data_PCOD9515714
_publ_section_title
;
Structure prediction by ZEFSAII (Michael W. Deem and Ramdas Pophale) SiO2 
 PCOD9515714
Probable space group: F D D D
;
_chemical_formula_sum "Si O2"
_cell_formula_units_Z 104
_cell_length_a 20.050490
_cell_length_b 10.285152
_cell_length_c 18.768048
_cell_angle_alpha 90.000000
_cell_angle_beta 90.000000
_cell_angle_gamma 90.000000
_cell_volume 3870.390726
_symmetry_space_group_name_H-M "F D D D"
_symmetry_group_IT_number 70
_space_group.IT_coordinate_system_code '2'
_symmetry_cell_setting 'orthorhombic'
loop_
_space_group_symop_operation_xyz
x,y,z
1/4-x,1/4-y,z
x,1/4-y,1/4-z
1/4-x,y,1/4-z
-x,-y,-z
3/4+x,3/4+y,-z
-x,3/4+y,3/4+z
3/4+x,-y,3/4+z
x,1/2+y,1/2+z
1/4-x,3/4-y,1/2+z
x,3/4-y,3/4-z
1/4-x,1/2+y,3/4-z
-x,1/2-y,1/2-z
3/4+x,1/4+y,1/2-z
-x,1/4+y,1/4+z
3/4+x,1/2-y,1/4+z
1/2+x,y,1/2+z
3/4-x,1/4-y,1/2+z
1/2+x,1/4-y,3/4-z
3/4-x,y,3/4-z
1/2-x,-y,1/2-z
1/4+x,3/4+y,1/2-z
1/2-x,3/4+y,1/4+z
1/4+x,-y,1/4+z
1/2+x,1/2+y,z
3/4-x,3/4-y,z
1/2+x,3/4-y,1/4-z
3/4-x,1/2+y,1/4-z
1/2-x,1/2-y,-z
1/4+x,1/4+y,-z
1/2-x,1/4+y,3/4+z
1/4+x,1/2-y,3/4+z
loop_
_atom_site_type_symbol
_atom_site_label
_atom_site_fract_x
_atom_site_fract_y
_atom_site_fract_z
Si Si1 0.487970 0.020711 0.882258
Si Si2 0.962512 0.023149 0.074932
Si Si3 0.875000 0.375000 0.375000
Si Si4 0.871658 0.119299 0.278739
O O1 0.539494 0.136848 0.865624
O O2 0.446543 0.046165 0.954647
O O3 0.430211 0.043670 0.821612
O O4 0.511608 0.875000 0.875000
O O5 0.003272 0.125000 0.125000
O O6 0.148003 0.352095 0.950252
O O7 0.000000 0.000000 0.000000
O O8 0.863045 0.260130 0.314339
#
# Coordination Sequence:
#
# PCOD9515714 Si02
#       4
#    32  32   8  32
#     4   9  18  35  64  90 124 173 224 289 361 420
#     4  10  22  37  64  94 128 178 234 292 354 442
#     4   8  16  32  66  92 108 180 226 286 348 432
#     4   9  18  32  64  88 125 171 236 272 364 425
#
# _framework density 26.870671999999999
#
# number of rings (size 3 to 8) (size 9 to 14) (size 15 to 20)
#    0.000    3.077    0.000    1.846   19.385    0.000 
#    0.000    6.154   27.077    0.000    0.000    0.000 
#    0.000    0.000    0.000    0.000    0.000    0.000 
#
# Total GULP energy -145120.639130 kJ/mol
# GULP energy per Si atom -5581.563043 kJ/mol
# Density = 2.680951 g / cm^3
# Si number density = 26.870672 Si / 1000 Ang^3
#
#
#
# Elastic Constant Matrix: (Units=GPa)
#
#
# Indices 1 2 3 4 5 6 
#
# 1 72.4678 23.3139 48.7243 0.0000 0.0000 0.0000
# 2 23.3139 200.2469 31.5338 0.0000 0.0000 0.0000
# 3 48.7243 31.5338 107.5237 0.0000 0.0000 0.0000
# 4 0.0000 0.0000 0.0000 5.5938 0.0000 0.0000
# 5 0.0000 0.0000 0.0000 0.0000 33.4575 0.0000
# 6 0.0000 0.0000 0.0000 0.0000 0.0000 -12.5258
#
#
#
# Elastic Compliance Matrix: (Units=1/GPa)
#
#
# Indices 1 2 3 4 5 6 
#
# 1 0.020015 -0.000946 -0.008793 0.000000 0.000000 0.000000
# 2 -0.000946 0.005280 -0.001120 0.000000 0.000000 0.000000
# 3 -0.008793 -0.001120 0.013613 0.000000 0.000000 0.000000
# 4 0.000000 0.000000 0.000000 0.178771 0.000000 0.000000
# 5 0.000000 0.000000 0.000000 0.000000 0.029889 0.000000
# 6 0.000000 0.000000 0.000000 0.000000 0.000000 -0.079835
#
#
# Mechanical properties :
#
#
# Convention : Reuss Voigt Hill
#
# Bulk Modulus (GPa) = 58.16630 65.26472 61.71551
# Shear Modulus (GPa) = 25.61739 23.74952 24.68346
#
# Velocity S-wave (km/s) = 3.09100 2.97618 3.03413
# Velocity P-wave (km/s) = 5.86795 6.01260 5.94071
#
# Compressibility (1/GPa) = 0.01719208
#
# Stress axis : x y z
#
# Youngs Moduli (GPa) = 49.96203 189.38270 73.45872
#
# Poissons Ratio (x) = 0.17910 0.64589
# Poissons Ratio (y) = 0.04725 0.08228
# Poissons Ratio (z) = 0.43929 0.21212
#
# Static dielectric constant tensor:
#      x y z
#    x 1.907630 0.000000 0.000000 
#    y 0.000000 2.035920 0.000000 
#    z 0.000000 0.000000 2.175540 
# 
# From -- ./inp_files/54702.got.cif
#   From: 2010.05.17/outbox.cif.g08.bks.cpg/sg70_28_cif.got.tgz:54702.got - 2010.06.03 15:57:51.
