data_PCOD9515831
_publ_section_title
;
Structure prediction by ZEFSAII (Michael W. Deem and Ramdas Pophale) SiO2 
 PCOD9515831
Probable space group: F D D D
;
_chemical_formula_sum "Si O2"
_cell_formula_units_Z 176
_cell_length_a 25.590345
_cell_length_b 21.251136
_cell_length_c 15.719547
_cell_angle_alpha 90.000000
_cell_angle_beta 90.000000
_cell_angle_gamma 90.000000
_cell_volume 8548.665385
_symmetry_space_group_name_H-M "F D D D"
_symmetry_group_IT_number 70
_space_group.IT_coordinate_system_code '2'
_symmetry_cell_setting 'orthorhombic'
loop_
_space_group_symop_operation_xyz
x,y,z
1/4-x,1/4-y,z
x,1/4-y,1/4-z
1/4-x,y,1/4-z
-x,-y,-z
3/4+x,3/4+y,-z
-x,3/4+y,3/4+z
3/4+x,-y,3/4+z
x,1/2+y,1/2+z
1/4-x,3/4-y,1/2+z
x,3/4-y,3/4-z
1/4-x,1/2+y,3/4-z
-x,1/2-y,1/2-z
3/4+x,1/4+y,1/2-z
-x,1/4+y,1/4+z
3/4+x,1/2-y,1/4+z
1/2+x,y,1/2+z
3/4-x,1/4-y,1/2+z
1/2+x,1/4-y,3/4-z
3/4-x,y,3/4-z
1/2-x,-y,1/2-z
1/4+x,3/4+y,1/2-z
1/2-x,3/4+y,1/4+z
1/4+x,-y,1/4+z
1/2+x,1/2+y,z
3/4-x,3/4-y,z
1/2+x,3/4-y,1/4-z
3/4-x,1/2+y,1/4-z
1/2-x,1/2-y,-z
1/4+x,1/4+y,-z
1/2-x,1/4+y,3/4+z
1/4+x,1/2-y,3/4+z
loop_
_atom_site_type_symbol
_atom_site_label
_atom_site_fract_x
_atom_site_fract_y
_atom_site_fract_z
Si Si1 0.057297 0.186199 0.985257
Si Si2 0.546247 0.375000 0.375000
Si Si3 0.254846 0.728683 0.362065
Si Si4 0.424303 0.460560 0.005866
Si Si5 0.075308 0.886806 0.568063
Si Si6 0.496331 0.506177 0.399947
O O1 0.112711 0.218780 0.003743
O O2 0.063153 0.113364 0.006648
O O3 0.041745 0.199881 0.888935
O O4 0.012437 0.219966 0.039094
O O5 0.578982 0.364086 0.286312
O O6 0.509405 0.436737 0.364451
O O7 0.197341 0.726352 0.401555
O O8 0.293462 0.750877 0.437426
O O9 0.277909 0.662077 0.333948
O O10 0.125000 0.866812 0.625000
O O11 0.056901 0.953819 0.607995
O O12 0.500000 0.500000 0.500000
#
# Coordination Sequence:
#
# PCOD9515831 Si02
#       6
#    32  16  32  32  32  32
#     4  11  20  41  63  88 127 169 211 262 317 383
#     4  10  22  44  69  86 124 174 211 266 336 372
#     4  11  21  38  62  95 130 166 207 258 319 395
#     4  10  23  37  62  95 127 169 209 256 322 390
#     4  11  22  41  66  96 127 166 218 271 328 391
#     4  10  22  41  62  86 119 167 214 260 316 381
#
# _framework density 20.588009
#
# number of rings (size 3 to 8) (size 9 to 14) (size 15 to 20)
#    0.000    1.455    3.636    2.182    0.000    1.455 
#    6.545    0.455    0.000    0.000    0.000    0.000 
#    0.000    0.000    0.000    0.000    0.000    0.000 
#
# Total GULP energy -245226.196468 kJ/mol
# GULP energy per Si atom -5573.322647 kJ/mol
# Density = 2.054115 g / cm^3
# Si number density = 20.588009 Si / 1000 Ang^3
#
#
#
# Elastic Constant Matrix: (Units=GPa)
#
#
# Indices 1 2 3 4 5 6 
#
# 1 26.3762 10.8913 18.5018 0.0000 0.0000 0.0000
# 2 10.8913 72.3301 18.3503 0.0000 0.0000 0.0000
# 3 18.5018 18.3503 95.0640 0.0000 0.0000 0.0000
# 4 0.0000 0.0000 0.0000 30.2861 0.0000 0.0000
# 5 0.0000 0.0000 0.0000 0.0000 24.6499 0.0000
# 6 0.0000 0.0000 0.0000 0.0000 0.0000 29.9258
#
#
#
# Elastic Compliance Matrix: (Units=1/GPa)
#
#
# Indices 1 2 3 4 5 6 
#
# 1 0.045462 -0.004838 -0.007914 0.000000 0.000000 0.000000
# 2 -0.004838 0.015052 -0.001964 0.000000 0.000000 0.000000
# 3 -0.007914 -0.001964 0.012439 0.000000 0.000000 0.000000
# 4 0.000000 0.000000 0.000000 0.033018 0.000000 0.000000
# 5 0.000000 0.000000 0.000000 0.000000 0.040568 0.000000
# 6 0.000000 0.000000 0.000000 0.000000 0.000000 0.033416
#
#
# Mechanical properties :
#
#
# Convention : Reuss Voigt Hill
#
# Bulk Modulus (GPa) = 22.97740 32.13968 27.55854
# Shear Modulus (GPa) = 22.33197 26.70749 24.51973
#
# Velocity S-wave (km/s) = 3.29706 3.60562 3.45479
# Velocity P-wave (km/s) = 5.06744 5.74272 5.41561
#
# Compressibility (1/GPa) = 0.04352103
#
# Stress axis : x y z
#
# Youngs Moduli (GPa) = 21.99640 66.43539 80.39458
#
# Poissons Ratio (x) = 0.32139 0.63626
# Poissons Ratio (y) = 0.10641 0.15790
# Poissons Ratio (z) = 0.17408 0.13048
#
# Static dielectric constant tensor:
#      x y z
#    x 1.713900 0.000000 0.000000 
#    y 0.000000 1.791280 0.000000 
#    z 0.000000 0.000000 1.756490 
# 
# From -- ./inp_files/29998.got.cif
#   From: 2010.05.17/outbox.cif.g08.bks.cpg/sg70_15_cif.got.tgz:29998.got - 2010.06.03 15:57:51.
