data_PCOD9515641
_publ_section_title
;
Structure prediction by ZEFSAII (Michael W. Deem and Ramdas Pophale) SiO2 
 PCOD9515641
Probable space group: F D D D
;
_chemical_formula_sum "Si O2"
_cell_formula_units_Z 144
_cell_length_a 15.608134
_cell_length_b 16.560877
_cell_length_c 22.030099
_cell_angle_alpha 90.000000
_cell_angle_beta 90.000000
_cell_angle_gamma 90.000000
_cell_volume 5694.436644
_symmetry_space_group_name_H-M "F D D D"
_symmetry_group_IT_number 70
_space_group.IT_coordinate_system_code '2'
_symmetry_cell_setting 'orthorhombic'
loop_
_space_group_symop_operation_xyz
x,y,z
1/4-x,1/4-y,z
x,1/4-y,1/4-z
1/4-x,y,1/4-z
-x,-y,-z
3/4+x,3/4+y,-z
-x,3/4+y,3/4+z
3/4+x,-y,3/4+z
x,1/2+y,1/2+z
1/4-x,3/4-y,1/2+z
x,3/4-y,3/4-z
1/4-x,1/2+y,3/4-z
-x,1/2-y,1/2-z
3/4+x,1/4+y,1/2-z
-x,1/4+y,1/4+z
3/4+x,1/2-y,1/4+z
1/2+x,y,1/2+z
3/4-x,1/4-y,1/2+z
1/2+x,1/4-y,3/4-z
3/4-x,y,3/4-z
1/2-x,-y,1/2-z
1/4+x,3/4+y,1/2-z
1/2-x,3/4+y,1/4+z
1/4+x,-y,1/4+z
1/2+x,1/2+y,z
3/4-x,3/4-y,z
1/2+x,3/4-y,1/4-z
3/4-x,1/2+y,1/4-z
1/2-x,1/2-y,-z
1/4+x,1/4+y,-z
1/2-x,1/4+y,3/4+z
1/4+x,1/2-y,3/4+z
loop_
_atom_site_type_symbol
_atom_site_label
_atom_site_fract_x
_atom_site_fract_y
_atom_site_fract_z
Si Si1 0.507899 0.375000 0.875000
Si Si2 0.999373 0.515903 0.805341
Si Si3 0.125000 0.884914 0.125000
Si Si4 0.335738 0.027997 0.674280
Si Si5 0.875000 0.875000 0.772590
Si Si6 0.495364 0.382284 0.221185
O O1 0.570864 0.441762 0.846045
O O2 0.448068 0.343611 0.819670
O O3 0.032109 0.464305 0.862002
O O4 0.077893 0.560265 0.770930
O O5 0.933473 0.580245 0.831279
O O6 0.051081 0.331613 0.770292
O O7 0.191992 0.923489 0.078697
O O8 0.454430 0.953902 0.759827
O O9 0.312529 0.934719 0.688983
#
# Coordination Sequence:
#
# PCOD9515641 Si02
#       6
#    16  32  16  32  16  32
#     4  11  22  48  68 101 158 202 242 323 386 454
#     4  11  23  47  72 110 149 198 254 324 378 468
#     4  10  24  44  73 113 148 188 262 300 394 437
#     4  10  21  43  73 103 147 201 256 312 388 435
#     4  11  28  44  70 112 152 203 256 298 402 463
#     4  10  21  44  72 108 149 198 251 322 376 455
#
# _framework density 25.287839000000002
#
# number of rings (size 3 to 8) (size 9 to 14) (size 15 to 20)
#    0.000    1.556    2.222    1.333    0.000    2.667 
#   16.000   25.556    0.000    0.000    0.000    0.000 
#    0.000    0.000    0.000    0.000    0.000    0.000 
#
# Total GULP energy -201385.718547 kJ/mol
# GULP energy per Si atom -5594.047737 kJ/mol
# Density = 2.523028 g / cm^3
# Si number density = 25.287839 Si / 1000 Ang^3
#
#
#
# Elastic Constant Matrix: (Units=GPa)
#
#
# Indices 1 2 3 4 5 6 
#
# 1 111.9837 24.5992 48.8480 0.0000 0.0000 0.0000
# 2 24.5992 64.1969 40.5455 0.0000 0.0000 0.0000
# 3 48.8480 40.5455 152.9869 0.0000 0.0000 0.0000
# 4 0.0000 0.0000 0.0000 42.4899 0.0000 0.0000
# 5 0.0000 0.0000 0.0000 0.0000 59.4951 0.0000
# 6 0.0000 0.0000 0.0000 0.0000 0.0000 20.9987
#
#
#
# Elastic Compliance Matrix: (Units=1/GPa)
#
#
# Indices 1 2 3 4 5 6 
#
# 1 0.010656 -0.002323 -0.002787 0.000000 0.000000 0.000000
# 2 -0.002323 0.019215 -0.004351 0.000000 0.000000 0.000000
# 3 -0.002787 -0.004351 0.008579 0.000000 0.000000 0.000000
# 4 0.000000 0.000000 0.000000 0.023535 0.000000 0.000000
# 5 0.000000 0.000000 0.000000 0.000000 0.016808 0.000000
# 6 0.000000 0.000000 0.000000 0.000000 0.000000 0.047622
#
#
# Mechanical properties :
#
#
# Convention : Reuss Voigt Hill
#
# Bulk Modulus (GPa) = 51.20544 61.90588 56.55566
# Shear Modulus (GPa) = 32.92811 38.94174 35.93492
#
# Velocity S-wave (km/s) = 3.61242 3.92846 3.77375
# Velocity P-wave (km/s) = 6.13942 6.71645 6.43441
#
# Compressibility (1/GPa) = 0.01952917
#
# Stress axis : x y z
#
# Youngs Moduli (GPa) = 93.84619 52.04236 116.55920
#
# Poissons Ratio (x) = 0.12090 0.32481
# Poissons Ratio (y) = 0.21802 0.50712
# Poissons Ratio (z) = 0.26152 0.22642
#
# Static dielectric constant tensor:
#      x y z
#    x 2.030620 0.000000 0.000000 
#    y 0.000000 2.008820 0.000000 
#    z 0.000000 0.000000 1.942000 
# 
# From -- ./inp_files/52083.got.cif
#   From: 2010.05.17/outbox.cif.g08.bks.cpg/sg70_27_cif.got.tgz:52083.got - 2010.06.03 15:57:51.
