data_PCOD9515205
_publ_section_title
;
Structure prediction by ZEFSAII (Michael W. Deem and Ramdas Pophale) SiO2 
 PCOD9515205
Probable space group: F D D D
;
_chemical_formula_sum "Si O2"
_cell_formula_units_Z 192
_cell_length_a 9.709054
_cell_length_b 26.297248
_cell_length_c 35.662399
_cell_angle_alpha 90.000000
_cell_angle_beta 90.000000
_cell_angle_gamma 90.000000
_cell_volume 9105.373672
_symmetry_space_group_name_H-M "F D D D"
_symmetry_group_IT_number 70
_space_group.IT_coordinate_system_code '2'
_symmetry_cell_setting 'orthorhombic'
loop_
_space_group_symop_operation_xyz
x,y,z
1/4-x,1/4-y,z
x,1/4-y,1/4-z
1/4-x,y,1/4-z
-x,-y,-z
3/4+x,3/4+y,-z
-x,3/4+y,3/4+z
3/4+x,-y,3/4+z
x,1/2+y,1/2+z
1/4-x,3/4-y,1/2+z
x,3/4-y,3/4-z
1/4-x,1/2+y,3/4-z
-x,1/2-y,1/2-z
3/4+x,1/4+y,1/2-z
-x,1/4+y,1/4+z
3/4+x,1/2-y,1/4+z
1/2+x,y,1/2+z
3/4-x,1/4-y,1/2+z
1/2+x,1/4-y,3/4-z
3/4-x,y,3/4-z
1/2-x,-y,1/2-z
1/4+x,3/4+y,1/2-z
1/2-x,3/4+y,1/4+z
1/4+x,-y,1/4+z
1/2+x,1/2+y,z
3/4-x,3/4-y,z
1/2+x,3/4-y,1/4-z
3/4-x,1/2+y,1/4-z
1/2-x,1/2-y,-z
1/4+x,1/4+y,-z
1/2-x,1/4+y,3/4+z
1/4+x,1/2-y,3/4+z
loop_
_atom_site_type_symbol
_atom_site_label
_atom_site_fract_x
_atom_site_fract_y
_atom_site_fract_z
Si Si1 0.125000 0.125000 0.560149
Si Si2 0.729010 0.224869 0.228792
Si Si3 0.030738 0.834495 0.737099
Si Si4 0.125000 0.125000 0.916781
Si Si5 0.483282 0.186428 0.523084
Si Si6 0.522603 0.517343 0.354369
Si Si7 0.891498 0.171338 0.102594
O O1 0.157875 0.076175 0.534950
O O2 0.251673 0.144949 0.585854
O O3 0.857275 0.207874 0.254846
O O4 0.655809 0.266500 0.254506
O O5 0.765496 0.253487 0.189831
O O6 0.993533 0.853641 0.695328
O O7 0.082413 0.883730 0.759766
O O8 0.886580 0.817644 0.755858
O O9 0.078514 0.174785 0.893849
O O10 0.481389 0.188277 0.567347
O O11 0.375000 0.515749 0.375000
O O12 0.607436 0.471164 0.373140
O O13 0.958437 0.125000 0.125000
#
# Coordination Sequence:
#
# PCOD9515205 Si02
#       7
#    16  32  32  16  32  32  32
#     4  12  23  38  69  96 121 176 214 266 335 398
#     4  12  22  42  69  94 127 170 218 275 328 404
#     4  10  20  42  71  92 121 165 224 270 325 386
#     4  10  24  44  65  92 126 184 218 266 326 398
#     4  10  22  39  65  98 123 164 217 275 328 383
#     4  12  23  43  67  91 135 180 213 265 337 410
#     4  12  22  41  66  99 133 168 218 268 338 398
#
# _framework density 21.086449999999999
#
# number of rings (size 3 to 8) (size 9 to 14) (size 15 to 20)
#    0.000    1.000    8.333    0.750    0.000    0.667 
#    6.000    5.833    0.000    0.000    0.000    0.000 
#    0.000    0.000    0.000    0.000    0.000    0.000 
#
# Total GULP energy -267905.312461 kJ/mol
# GULP energy per Si atom -5581.360676 kJ/mol
# Density = 2.103846 g / cm^3
# Si number density = 21.086450 Si / 1000 Ang^3
#
#
#
# Elastic Constant Matrix: (Units=GPa)
#
#
# Indices 1 2 3 4 5 6 
#
# 1 33.8362 22.6542 5.2625 0.0000 0.0000 0.0000
# 2 22.6542 200.4107 60.3811 0.0000 0.0000 0.0000
# 3 5.2625 60.3811 91.2459 0.0000 0.0000 0.0000
# 4 0.0000 0.0000 0.0000 45.5777 0.0000 0.0000
# 5 0.0000 0.0000 0.0000 0.0000 14.6464 0.0000
# 6 0.0000 0.0000 0.0000 0.0000 0.0000 16.3679
#
#
#
# Elastic Compliance Matrix: (Units=1/GPa)
#
#
# Indices 1 2 3 4 5 6 
#
# 1 0.032008 -0.003824 0.000685 0.000000 0.000000 0.000000
# 2 -0.003824 0.006689 -0.004206 0.000000 0.000000 0.000000
# 3 0.000685 -0.004206 0.013703 0.000000 0.000000 0.000000
# 4 0.000000 0.000000 0.000000 0.021941 0.000000 0.000000
# 5 0.000000 0.000000 0.000000 0.000000 0.068276 0.000000
# 6 0.000000 0.000000 0.000000 0.000000 0.000000 0.061095
#
#
# Mechanical properties :
#
#
# Convention : Reuss Voigt Hill
#
# Bulk Modulus (GPa) = 26.51866 55.78762 41.15314
# Shear Modulus (GPa) = 21.64746 31.13139 26.38942
#
# Velocity S-wave (km/s) = 3.20754 3.84652 3.54147
# Velocity P-wave (km/s) = 5.13042 6.80013 6.02341
#
# Compressibility (1/GPa) = 0.03770930
#
# Stress axis : x y z
#
# Youngs Moduli (GPa) = 31.24192 149.49289 72.97573
#
# Poissons Ratio (x) = 0.57174 -0.04997
# Poissons Ratio (y) = 0.11948 0.30694
# Poissons Ratio (z) = -0.02139 0.62877
#
# Static dielectric constant tensor:
#      x y z
#    x 1.812980 0.000000 0.000000 
#    y 0.000000 1.763880 0.000000 
#    z 0.000000 0.000000 1.754660 
# 
# From -- ./inp_files/64990.got.cif
#   From: 2010.05.17/outbox.cif.g08.bks.cpg/sg70_33_cif.got.tgz:64990.got - 2010.06.03 15:57:51.
