data_PCOD9515295
_publ_section_title
;
Structure prediction by ZEFSAII (Michael W. Deem and Ramdas Pophale) SiO2 
 PCOD9515295
Probable space group: F D D D
;
_chemical_formula_sum "Si O2"
_cell_formula_units_Z 184
_cell_length_a 26.421510
_cell_length_b 13.235832
_cell_length_c 18.193084
_cell_angle_alpha 90.000000
_cell_angle_beta 90.000000
_cell_angle_gamma 90.000000
_cell_volume 6362.315550
_symmetry_space_group_name_H-M "F D D D"
_symmetry_group_IT_number 70
_space_group.IT_coordinate_system_code '2'
_symmetry_cell_setting 'orthorhombic'
loop_
_space_group_symop_operation_xyz
x,y,z
1/4-x,1/4-y,z
x,1/4-y,1/4-z
1/4-x,y,1/4-z
-x,-y,-z
3/4+x,3/4+y,-z
-x,3/4+y,3/4+z
3/4+x,-y,3/4+z
x,1/2+y,1/2+z
1/4-x,3/4-y,1/2+z
x,3/4-y,3/4-z
1/4-x,1/2+y,3/4-z
-x,1/2-y,1/2-z
3/4+x,1/4+y,1/2-z
-x,1/4+y,1/4+z
3/4+x,1/2-y,1/4+z
1/2+x,y,1/2+z
3/4-x,1/4-y,1/2+z
1/2+x,1/4-y,3/4-z
3/4-x,y,3/4-z
1/2-x,-y,1/2-z
1/4+x,3/4+y,1/2-z
1/2-x,3/4+y,1/4+z
1/4+x,-y,1/4+z
1/2+x,1/2+y,z
3/4-x,3/4-y,z
1/2+x,3/4-y,1/4-z
3/4-x,1/2+y,1/4-z
1/2-x,1/2-y,-z
1/4+x,1/4+y,-z
1/2-x,1/4+y,3/4+z
1/4+x,1/2-y,3/4+z
loop_
_atom_site_type_symbol
_atom_site_label
_atom_site_fract_x
_atom_site_fract_y
_atom_site_fract_z
Si Si1 0.823641 0.819745 0.617040
Si Si2 0.543528 0.625000 0.625000
Si Si3 0.132679 0.383467 0.271238
Si Si4 0.875000 0.029174 0.375000
Si Si5 0.260221 0.628801 0.986360
Si Si6 0.953288 0.625000 0.625000
Si Si7 0.375000 0.375000 0.875000
Si Si8 0.463676 0.345985 0.769598
O O1 0.875000 0.875000 0.597561
O O2 0.777969 0.880669 0.579964
O O3 0.810916 0.842089 0.702032
O O4 0.912945 0.038256 0.577215
O O5 0.580843 0.708260 0.656568
O O6 0.509711 0.669760 0.561503
O O7 0.103105 0.424639 0.199713
O O8 0.182248 0.345144 0.227072
O O9 0.089941 0.327267 0.319620
O O10 0.250000 0.750000 0.000000
O O11 0.995202 0.662966 0.565926
O O12 0.415163 0.318435 0.821350
O O13 0.500000 0.250000 0.750000
#
# Coordination Sequence:
#
# PCOD9515295 Si02
#       8
#    32  16  32  16  32  16   8  32
#     4  11  21  42  72  98 137 182 238 293 366 442
#     4  11  19  36  58  92 124 170 217 259 342 434
#     4  11  24  42  64 101 145 182 229 308 374 439
#     4  11  22  36  67  94 135 172 221 282 356 444
#     4  10  21  36  58  95 133 174 219 276 352 430
#     4  11  27  45  69 104 142 188 248 308 366 454
#     4  10  24  52  76 104 152 190 250 330 354 452
#     4  11  25  48  76 107 141 194 253 306 381 443
#
# _framework density 28.920286999999998
#
# number of rings (size 3 to 8) (size 9 to 14) (size 15 to 20)
#    0.000    1.217    4.348    2.609    2.435    0.000 
#    3.130    5.217    0.000    0.000    0.000    0.000 
#    0.000    0.000    0.000    0.000    0.000    0.000 
#
# Total GULP energy -256260.288974 kJ/mol
# GULP energy per Si atom -5570.875847 kJ/mol
# Density = 2.885446 g / cm^3
# Si number density = 28.920287 Si / 1000 Ang^3
#
#
#
# Elastic Constant Matrix: (Units=GPa)
#
#
# Indices 1 2 3 4 5 6 
#
# 1 221.5769 8.0176 41.4392 0.0000 0.0000 0.0000
# 2 8.0176 99.8905 10.5614 0.0000 0.0000 0.0000
# 3 41.4392 10.5614 141.7654 0.0000 0.0000 0.0000
# 4 0.0000 0.0000 0.0000 26.2182 0.0000 0.0000
# 5 0.0000 0.0000 0.0000 0.0000 -898.0993 0.0000
# 6 0.0000 0.0000 0.0000 0.0000 0.0000 23.6597
#
#
#
# Elastic Compliance Matrix: (Units=1/GPa)
#
#
# Indices 1 2 3 4 5 6 
#
# 1 0.004780 -0.000238 -0.001379 0.000000 0.000000 0.000000
# 2 -0.000238 0.010102 -0.000683 0.000000 0.000000 0.000000
# 3 -0.001379 -0.000683 0.007508 0.000000 0.000000 0.000000
# 4 0.000000 0.000000 0.000000 0.038141 0.000000 0.000000
# 5 0.000000 0.000000 0.000000 0.000000 -0.001113 0.000000
# 6 0.000000 0.000000 0.000000 0.000000 0.000000 0.042266
#
#
# Mechanical properties :
#
#
# Convention : Reuss Voigt Hill
#
# Bulk Modulus (GPa) = 56.21345 64.80770 60.51058
# Shear Modulus (GPa) = 44.55757 -142.76332 -49.10287
#
# Velocity S-wave (km/s) = 3.92944 -7.03360 -4.12499
# Velocity P-wave (km/s) = 6.32984 6.59579 1.31101
#
# Compressibility (1/GPa) = 0.01778934
#
# Stress axis : x y z
#
# Youngs Moduli (GPa) = 209.21864 98.98764 133.19095
#
# Poissons Ratio (x) = 0.02354 0.18373
# Poissons Ratio (y) = 0.04975 0.09098
# Poissons Ratio (z) = 0.28860 0.06762
#
# Static dielectric constant tensor:
#      x y z
#    x 2.361000 0.000000 0.000000 
#    y 0.000000 1.933650 0.000000 
#    z 0.000000 0.000000 2.604090 
# 
# From -- ./inp_files/37622.got.cif
#   From: 2010.05.17/outbox.cif.g08.bks.cpg/sg70_19_cif.got.tgz:37622.got - 2010.06.03 15:57:51.
