data_PCOD9515520
_publ_section_title
;
Structure prediction by ZEFSAII (Michael W. Deem and Ramdas Pophale) SiO2 
 PCOD9515520
Probable space group: F D D D
;
_chemical_formula_sum "Si O2"
_cell_formula_units_Z 176
_cell_length_a 24.794720
_cell_length_b 11.595401
_cell_length_c 28.048908
_cell_angle_alpha 90.000000
_cell_angle_beta 90.000000
_cell_angle_gamma 90.000000
_cell_volume 8064.193471
_symmetry_space_group_name_H-M "F D D D"
_symmetry_group_IT_number 70
_space_group.IT_coordinate_system_code '2'
_symmetry_cell_setting 'orthorhombic'
loop_
_space_group_symop_operation_xyz
x,y,z
1/4-x,1/4-y,z
x,1/4-y,1/4-z
1/4-x,y,1/4-z
-x,-y,-z
3/4+x,3/4+y,-z
-x,3/4+y,3/4+z
3/4+x,-y,3/4+z
x,1/2+y,1/2+z
1/4-x,3/4-y,1/2+z
x,3/4-y,3/4-z
1/4-x,1/2+y,3/4-z
-x,1/2-y,1/2-z
3/4+x,1/4+y,1/2-z
-x,1/4+y,1/4+z
3/4+x,1/2-y,1/4+z
1/2+x,y,1/2+z
3/4-x,1/4-y,1/2+z
1/2+x,1/4-y,3/4-z
3/4-x,y,3/4-z
1/2-x,-y,1/2-z
1/4+x,3/4+y,1/2-z
1/2-x,3/4+y,1/4+z
1/4+x,-y,1/4+z
1/2+x,1/2+y,z
3/4-x,3/4-y,z
1/2+x,3/4-y,1/4-z
3/4-x,1/2+y,1/4-z
1/2-x,1/2-y,-z
1/4+x,1/4+y,-z
1/2-x,1/4+y,3/4+z
1/4+x,1/2-y,3/4+z
loop_
_atom_site_type_symbol
_atom_site_label
_atom_site_fract_x
_atom_site_fract_y
_atom_site_fract_z
Si Si1 0.044055 0.667869 0.225732
Si Si2 0.432325 0.920186 0.321326
Si Si3 0.741135 0.375000 0.875000
Si Si4 0.979446 0.158303 0.996529
Si Si5 0.109627 0.382850 0.733192
Si Si6 0.676654 0.045305 0.430155
O O1 0.037383 0.543069 0.249333
O O2 0.096832 0.747053 0.230623
O O3 0.000000 0.750000 0.250000
O O4 0.027874 0.645876 0.170943
O O5 0.434710 0.875000 0.375000
O O6 0.375000 0.875000 0.300118
O O7 0.486045 0.883143 0.293739
O O8 0.421817 0.055866 0.310807
O O9 0.701597 0.267202 0.865470
O O10 0.923623 0.097290 0.984556
O O11 0.023292 0.140034 0.954938
O O12 0.087706 0.445108 0.781081
O O13 0.625000 0.125000 0.422229
#
# Coordination Sequence:
#
# PCOD9515520 Si02
#       6
#    32  32  16  32  32  32
#     4  11  20  44  68  94 136 173 219 276 337 393
#     4  10  22  42  61  97 137 169 224 273 328 397
#     4  10  22  44  65  98 132 174 225 274 336 398
#     4  10  21  40  70  95 128 180 219 262 338 401
#     4  11  21  42  71  93 133 177 215 274 331 400
#     4  10  22  43  64  94 135 169 218 276 320 402
#
# _framework density 21.824873
#
# number of rings (size 3 to 8) (size 9 to 14) (size 15 to 20)
#    0.000    1.636    5.455    2.727    0.000    2.909 
#   21.273    3.636    2.000    0.000    0.000    0.000 
#    0.000    0.000    0.000    0.000    0.000    0.000 
#
# Total GULP energy -245548.041065 kJ/mol
# GULP energy per Si atom -5580.637297 kJ/mol
# Density = 2.177520 g / cm^3
# Si number density = 21.824873 Si / 1000 Ang^3
#
#
#
# Elastic Constant Matrix: (Units=GPa)
#
#
# Indices 1 2 3 4 5 6 
#
# 1 162.5158 23.3510 29.1313 0.0000 0.0000 0.0000
# 2 23.3510 98.1618 14.1699 0.0000 0.0000 0.0000
# 3 29.1313 14.1699 69.2288 0.0000 0.0000 0.0000
# 4 0.0000 0.0000 0.0000 24.5954 0.0000 0.0000
# 5 0.0000 0.0000 0.0000 0.0000 1.0586 0.0000
# 6 0.0000 0.0000 0.0000 0.0000 0.0000 42.0137
#
#
#
# Elastic Compliance Matrix: (Units=1/GPa)
#
#
# Indices 1 2 3 4 5 6 
#
# 1 0.006799 -0.001241 -0.002607 0.000000 0.000000 0.000000
# 2 -0.001241 0.010724 -0.001673 0.000000 0.000000 0.000000
# 3 -0.002607 -0.001673 0.015884 0.000000 0.000000 0.000000
# 4 0.000000 0.000000 0.000000 0.040658 0.000000 0.000000
# 5 0.000000 0.000000 0.000000 0.000000 0.944604 0.000000
# 6 0.000000 0.000000 0.000000 0.000000 0.000000 0.023802
#
#
# Mechanical properties :
#
#
# Convention : Reuss Voigt Hill
#
# Bulk Modulus (GPa) = 44.71153 51.46785 48.08969
# Shear Modulus (GPa) = 4.71268 31.08382 17.89825
#
# Velocity S-wave (km/s) = 1.47105 3.77800 2.86682
# Velocity P-wave (km/s) = 4.83904 6.53180 5.74808
#
# Compressibility (1/GPa) = 0.02236559
#
# Stress axis : x y z
#
# Youngs Moduli (GPa) = 147.08342 93.24922 62.95550
#
# Poissons Ratio (x) = 0.11572 0.16412
# Poissons Ratio (y) = 0.18253 0.10531
# Poissons Ratio (z) = 0.38344 0.15599
#
# Static dielectric constant tensor:
#      x y z
#    x 1.865000 0.000000 0.000000 
#    y 0.000000 1.890990 0.000000 
#    z 0.000000 0.000000 1.779110 
# 
# From -- ./inp_files/54994.got.cif
#   From: 2010.05.17/outbox.cif.g08.bks.cpg/sg70_28_cif.got.tgz:54994.got - 2010.06.03 15:57:51.
