data_PCOD9515858
_publ_section_title
;
Structure prediction by ZEFSAII (Michael W. Deem and Ramdas Pophale) SiO2 
 PCOD9515858
Probable space group: F D D D
;
_chemical_formula_sum "Si O2"
_cell_formula_units_Z 176
_cell_length_a 17.316046
_cell_length_b 14.451220
_cell_length_c 31.388982
_cell_angle_alpha 90.000000
_cell_angle_beta 90.000000
_cell_angle_gamma 90.000000
_cell_volume 7854.715772
_symmetry_space_group_name_H-M "F D D D"
_symmetry_group_IT_number 70
_space_group.IT_coordinate_system_code '2'
_symmetry_cell_setting 'orthorhombic'
loop_
_space_group_symop_operation_xyz
x,y,z
1/4-x,1/4-y,z
x,1/4-y,1/4-z
1/4-x,y,1/4-z
-x,-y,-z
3/4+x,3/4+y,-z
-x,3/4+y,3/4+z
3/4+x,-y,3/4+z
x,1/2+y,1/2+z
1/4-x,3/4-y,1/2+z
x,3/4-y,3/4-z
1/4-x,1/2+y,3/4-z
-x,1/2-y,1/2-z
3/4+x,1/4+y,1/2-z
-x,1/4+y,1/4+z
3/4+x,1/2-y,1/4+z
1/2+x,y,1/2+z
3/4-x,1/4-y,1/2+z
1/2+x,1/4-y,3/4-z
3/4-x,y,3/4-z
1/2-x,-y,1/2-z
1/4+x,3/4+y,1/2-z
1/2-x,3/4+y,1/4+z
1/4+x,-y,1/4+z
1/2+x,1/2+y,z
3/4-x,3/4-y,z
1/2+x,3/4-y,1/4-z
3/4-x,1/2+y,1/4-z
1/2-x,1/2-y,-z
1/4+x,1/4+y,-z
1/2-x,1/4+y,3/4+z
1/4+x,1/2-y,3/4+z
loop_
_atom_site_type_symbol
_atom_site_label
_atom_site_fract_x
_atom_site_fract_y
_atom_site_fract_z
Si Si1 0.545246 0.657204 0.901184
Si Si2 0.546181 0.068705 0.246026
Si Si3 0.355466 0.082407 0.550241
Si Si4 0.813816 0.105678 0.784033
Si Si5 0.720075 0.375000 0.375000
Si Si6 0.537684 0.943052 0.664003
O O1 0.625000 0.625000 0.881081
O O2 0.566300 0.753474 0.921401
O O3 0.517207 0.595185 0.941305
O O4 0.482768 0.645855 0.864806
O O5 0.625000 0.125000 0.243824
O O6 0.473236 0.119867 0.222563
O O7 0.517064 0.054870 0.294389
O O8 0.563585 0.966040 0.226819
O O9 0.410792 0.058940 0.510049
O O10 0.412868 0.127092 0.584292
O O11 0.877598 0.070277 0.817218
O O12 0.771611 0.283940 0.365016
#
# Coordination Sequence:
#
# PCOD9515858 Si02
#       6
#    32  32  32  32  16  32
#     4  11  22  41  66  92 125 173 221 272 336 395
#     4  10  22  41  67 100 134 175 224 281 352 402
#     4  10  23  40  64  95 130 172 223 277 329 411
#     4  10  23  44  65  95 133 174 221 282 331 405
#     4  12  22  42  66 100 134 180 228 276 341 408
#     4  11  23  41  69  99 136 175 227 282 339 414
#
# _framework density 22.406921000000001
#
# number of rings (size 3 to 8) (size 9 to 14) (size 15 to 20)
#    0.000    1.455    3.636    1.091    0.000    5.091 
#    0.000    4.091    0.000    0.000    0.000    0.000 
#    0.000    0.000    0.000    0.000    0.000    0.000 
#
# Total GULP energy -245013.762362 kJ/mol
# GULP energy per Si atom -5568.494599 kJ/mol
# Density = 2.235592 g / cm^3
# Si number density = 22.406921 Si / 1000 Ang^3
#
#
#
# Elastic Constant Matrix: (Units=GPa)
#
#
# Indices 1 2 3 4 5 6 
#
# 1 59.6659 23.5003 44.2493 0.0000 0.0000 0.0000
# 2 23.5003 59.1743 24.5824 0.0000 0.0000 0.0000
# 3 44.2493 24.5824 100.3867 0.0000 0.0000 0.0000
# 4 0.0000 0.0000 0.0000 -21.9152 0.0000 0.0000
# 5 0.0000 0.0000 0.0000 0.0000 11.1319 0.0000
# 6 0.0000 0.0000 0.0000 0.0000 0.0000 -5.5742
#
#
#
# Elastic Compliance Matrix: (Units=1/GPa)
#
#
# Indices 1 2 3 4 5 6 
#
# 1 0.026922 -0.006415 -0.010296 0.000000 0.000000 0.000000
# 2 -0.006415 0.020341 -0.002154 0.000000 0.000000 0.000000
# 3 -0.010296 -0.002154 0.015027 0.000000 0.000000 0.000000
# 4 0.000000 0.000000 0.000000 -0.045630 0.000000 0.000000
# 5 0.000000 0.000000 0.000000 0.000000 0.089832 0.000000
# 6 0.000000 0.000000 0.000000 0.000000 0.000000 -0.179399
#
#
# Mechanical properties :
#
#
# Convention : Reuss Voigt Hill
#
# Bulk Modulus (GPa) = 40.71323 44.87679 42.79501
# Shear Modulus (GPa) = -185.25163 5.18817 -90.03173
#
# Velocity S-wave (km/s) = -9.10250 1.52331 -6.34567
# Velocity P-wave (km/s) = 9.60545 4.81306 5.87789
#
# Compressibility (1/GPa) = 0.02456204
#
# Stress axis : x y z
#
# Youngs Moduli (GPa) = 37.14384 49.16088 66.54536
#
# Poissons Ratio (x) = 0.31535 0.68517
# Poissons Ratio (y) = 0.23826 0.14332
# Poissons Ratio (z) = 0.38244 0.10588
#
# Static dielectric constant tensor:
#      x y z
#    x 1.831470 0.000000 0.000000 
#    y 0.000000 1.886630 0.000000 
#    z 0.000000 0.000000 1.860970 
# 
# From -- ./inp_files/66652.got.cif
#   From: 2010.05.17/outbox.cif.g08.bks.cpg/sg70_34_cif.got.tgz:66652.got - 2010.06.03 15:57:51.
