data_PCOD9515193
_publ_section_title
;
Structure prediction by ZEFSAII (Michael W. Deem and Ramdas Pophale) SiO2 
 PCOD9515193
Probable space group: F D D D
;
_chemical_formula_sum "Si O2"
_cell_formula_units_Z 208
_cell_length_a 19.372847
_cell_length_b 27.902359
_cell_length_c 19.019376
_cell_angle_alpha 90.000000
_cell_angle_beta 90.000000
_cell_angle_gamma 90.000000
_cell_volume 10280.888166
_symmetry_space_group_name_H-M "F D D D"
_symmetry_group_IT_number 70
_space_group.IT_coordinate_system_code '2'
_symmetry_cell_setting 'orthorhombic'
loop_
_space_group_symop_operation_xyz
x,y,z
1/4-x,1/4-y,z
x,1/4-y,1/4-z
1/4-x,y,1/4-z
-x,-y,-z
3/4+x,3/4+y,-z
-x,3/4+y,3/4+z
3/4+x,-y,3/4+z
x,1/2+y,1/2+z
1/4-x,3/4-y,1/2+z
x,3/4-y,3/4-z
1/4-x,1/2+y,3/4-z
-x,1/2-y,1/2-z
3/4+x,1/4+y,1/2-z
-x,1/4+y,1/4+z
3/4+x,1/2-y,1/4+z
1/2+x,y,1/2+z
3/4-x,1/4-y,1/2+z
1/2+x,1/4-y,3/4-z
3/4-x,y,3/4-z
1/2-x,-y,1/2-z
1/4+x,3/4+y,1/2-z
1/2-x,3/4+y,1/4+z
1/4+x,-y,1/4+z
1/2+x,1/2+y,z
3/4-x,3/4-y,z
1/2+x,3/4-y,1/4-z
3/4-x,1/2+y,1/4-z
1/2-x,1/2-y,-z
1/4+x,1/4+y,-z
1/2-x,1/4+y,3/4+z
1/4+x,1/2-y,3/4+z
loop_
_atom_site_type_symbol
_atom_site_label
_atom_site_fract_x
_atom_site_fract_y
_atom_site_fract_z
Si Si1 0.205049 0.480499 0.509216
Si Si2 0.430579 0.832897 0.537702
Si Si3 0.547191 0.383069 0.303505
Si Si4 0.887461 0.990607 0.294257
Si Si5 0.563119 0.586850 0.454885
Si Si6 0.584201 0.347581 0.014766
Si Si7 0.875000 0.571297 0.375000
O O1 0.166121 0.529704 0.491242
O O2 0.184753 0.438110 0.456583
O O3 0.287145 0.482962 0.492324
O O4 0.182411 0.461194 0.585879
O O5 0.375000 0.875000 0.527094
O O6 0.444495 0.828550 0.621709
O O7 0.503391 0.844953 0.501995
O O8 0.506514 0.375000 0.375000
O O9 0.503191 0.362330 0.238855
O O10 0.618675 0.354957 0.303025
O O11 0.875000 0.973979 0.375000
O O12 0.885971 0.048168 0.296152
O O13 0.833320 0.961717 0.245954
O O14 0.625000 0.625000 0.464869
O O15 0.595352 0.392608 0.066440
#
# Coordination Sequence:
#
# PCOD9515193 Si02
#       7
#    32  32  32  32  32  32  16
#     4  10  22  40  64  92 127 171 223 273 331 401
#     4  10  23  43  65  93 123 168 228 278 336 394
#     4  11  23  39  59  94 135 174 215 267 325 397
#     4  11  22  37  61  96 132 173 216 266 328 407
#     4  11  23  36  62  92 133 174 209 265 321 400
#     4  10  22  40  63  89 128 174 215 268 330 400
#     4  10  20  42  67  88 125 180 216 268 338 402
#
# _framework density 20.231715999999999
#
# number of rings (size 3 to 8) (size 9 to 14) (size 15 to 20)
#    0.000    1.538    2.308    2.769    6.462    0.615 
#    0.000    6.538    0.000    0.000    0.000    0.000 
#    0.000    0.000    0.000    0.000    0.000    0.000 
#
# Total GULP energy -289833.112770 kJ/mol
# GULP energy per Si atom -5573.713707 kJ/mol
# Density = 2.018567 g / cm^3
# Si number density = 20.231716 Si / 1000 Ang^3
#
#
#
# Elastic Constant Matrix: (Units=GPa)
#
#
# Indices 1 2 3 4 5 6 
#
# 1 71.5293 42.6237 21.2722 0.0000 0.0000 0.0000
# 2 42.6237 130.6336 32.6545 0.0000 0.0000 0.0000
# 3 21.2722 32.6545 59.5591 0.0000 0.0000 0.0000
# 4 0.0000 0.0000 0.0000 28.9329 0.0000 0.0000
# 5 0.0000 0.0000 0.0000 0.0000 11.9898 0.0000
# 6 0.0000 0.0000 0.0000 0.0000 0.0000 29.9099
#
#
#
# Elastic Compliance Matrix: (Units=1/GPa)
#
#
# Indices 1 2 3 4 5 6 
#
# 1 0.018041 -0.004955 -0.003727 0.000000 0.000000 0.000000
# 2 -0.004955 0.010232 -0.003840 0.000000 0.000000 0.000000
# 3 -0.003727 -0.003840 0.020227 0.000000 0.000000 0.000000
# 4 0.000000 0.000000 0.000000 0.034563 0.000000 0.000000
# 5 0.000000 0.000000 0.000000 0.000000 0.083404 0.000000
# 6 0.000000 0.000000 0.000000 0.000000 0.000000 0.033434
#
#
# Mechanical properties :
#
#
# Convention : Reuss Voigt Hill
#
# Bulk Modulus (GPa) = 42.63380 50.53589 46.58485
# Shear Modulus (GPa) = 21.48116 25.17798 23.32957
#
# Velocity S-wave (km/s) = 3.26200 3.53155 3.39944
# Velocity P-wave (km/s) = 5.94188 6.45460 6.20354
#
# Compressibility (1/GPa) = 0.02345557
#
# Stress axis : x y z
#
# Youngs Moduli (GPa) = 55.42849 97.73649 49.43999
#
# Poissons Ratio (x) = 0.48428 0.18426
# Poissons Ratio (y) = 0.27464 0.18985
# Poissons Ratio (z) = 0.20658 0.37531
#
# Static dielectric constant tensor:
#      x y z
#    x 1.751980 0.000000 0.000000 
#    y 0.000000 1.758390 0.000000 
#    z 0.000000 0.000000 1.740500 
# 
# From -- ./inp_files/43937.got.cif
#   From: 2010.05.17/outbox.cif.g08.bks.cpg/sg70_22_cif.got.tgz:43937.got - 2010.06.03 15:57:51.
