data_PCOD9515949
_publ_section_title
;
Structure prediction by ZEFSAII (Michael W. Deem and Ramdas Pophale) SiO2 
 PCOD9515949
Probable space group: F D D D
;
_chemical_formula_sum "Si O2"
_cell_formula_units_Z 200
_cell_length_a 24.564250
_cell_length_b 13.073977
_cell_length_c 29.383614
_cell_angle_alpha 90.000000
_cell_angle_beta 90.000000
_cell_angle_gamma 90.000000
_cell_volume 9436.619318
_symmetry_space_group_name_H-M "F D D D"
_symmetry_group_IT_number 70
_space_group.IT_coordinate_system_code '2'
_symmetry_cell_setting 'orthorhombic'
loop_
_space_group_symop_operation_xyz
x,y,z
1/4-x,1/4-y,z
x,1/4-y,1/4-z
1/4-x,y,1/4-z
-x,-y,-z
3/4+x,3/4+y,-z
-x,3/4+y,3/4+z
3/4+x,-y,3/4+z
x,1/2+y,1/2+z
1/4-x,3/4-y,1/2+z
x,3/4-y,3/4-z
1/4-x,1/2+y,3/4-z
-x,1/2-y,1/2-z
3/4+x,1/4+y,1/2-z
-x,1/4+y,1/4+z
3/4+x,1/2-y,1/4+z
1/2+x,y,1/2+z
3/4-x,1/4-y,1/2+z
1/2+x,1/4-y,3/4-z
3/4-x,y,3/4-z
1/2-x,-y,1/2-z
1/4+x,3/4+y,1/2-z
1/2-x,3/4+y,1/4+z
1/4+x,-y,1/4+z
1/2+x,1/2+y,z
3/4-x,3/4-y,z
1/2+x,3/4-y,1/4-z
3/4-x,1/2+y,1/4-z
1/2-x,1/2-y,-z
1/4+x,1/4+y,-z
1/2-x,1/4+y,3/4+z
1/4+x,1/2-y,3/4+z
loop_
_atom_site_type_symbol
_atom_site_label
_atom_site_fract_x
_atom_site_fract_y
_atom_site_fract_z
Si Si1 0.779861 0.273428 0.929968
Si Si2 0.625000 0.281468 0.625000
Si Si3 0.428976 0.515602 0.522730
Si Si4 0.248487 0.350565 0.121121
Si Si5 0.483137 0.863673 0.234996
Si Si6 0.125000 0.625000 0.125000
Si Si7 0.125000 0.125000 0.042300
Si Si8 0.943533 0.979377 0.208634
O O1 0.727514 0.327191 0.952626
O O2 0.747377 0.212521 0.891694
O O3 0.831898 0.323843 0.908394
O O4 0.808629 0.208520 0.970295
O O5 0.683282 0.335225 0.623069
O O6 0.625735 0.217864 0.578110
O O7 0.367813 0.525410 0.540539
O O8 0.439349 0.391001 0.526562
O O9 0.268607 0.354609 0.069641
O O10 0.278520 0.276430 0.158094
O O11 0.500000 0.750000 0.250000
O O12 0.426414 0.883562 0.259811
O O13 0.523306 0.950209 0.255878
#
# Coordination Sequence:
#
# PCOD9515949 Si02
#       8
#    32  16  32  32  32   8  16  32
#     4  10  23  38  64  99 128 172 216 274 327 406
#     4  11  21  42  69  91 132 176 222 284 328 399
#     4   9  21  44  67  92 134 176 221 259 352 402
#     4  11  24  41  70  96 135 175 233 272 344 398
#     4  12  26  43  66 103 131 177 228 282 339 408
#     4  12  22  36  62  98 140 152 224 276 316 386
#     4  11  24  44  66  95 136 173 228 274 341 396
#     4  10  22  43  69  96 134 180 215 290 334 406
#
# _framework density 21.194030999999999
#
# number of rings (size 3 to 8) (size 9 to 14) (size 15 to 20)
#    0.000    1.440    3.200    1.440    6.720    3.200 
#    2.880    1.600    0.000    0.000    0.000    0.000 
#    0.000    0.000    0.000    0.000    0.000    0.000 
#
# Total GULP energy -278359.687990 kJ/mol
# GULP energy per Si atom -5567.193760 kJ/mol
# Density = 2.114579 g / cm^3
# Si number density = 21.194031 Si / 1000 Ang^3
#
#
#
# Elastic Constant Matrix: (Units=GPa)
#
#
# Indices 1 2 3 4 5 6 
#
# 1 164.1617 8.2253 52.7959 0.0000 0.0000 0.0000
# 2 8.2253 31.2382 18.9631 0.0000 0.0000 0.0000
# 3 52.7959 18.9631 176.9403 0.0000 0.0000 0.0000
# 4 0.0000 0.0000 0.0000 28.9683 0.0000 0.0000
# 5 0.0000 0.0000 0.0000 0.0000 60.0965 0.0000
# 6 0.0000 0.0000 0.0000 0.0000 0.0000 43.3193
#
#
#
# Elastic Compliance Matrix: (Units=1/GPa)
#
#
# Indices 1 2 3 4 5 6 
#
# 1 0.006748 -0.000593 -0.001950 0.000000 0.000000 0.000000
# 2 -0.000593 0.034292 -0.003498 0.000000 0.000000 0.000000
# 3 -0.001950 -0.003498 0.006608 0.000000 0.000000 0.000000
# 4 0.000000 0.000000 0.000000 0.034520 0.000000 0.000000
# 5 0.000000 0.000000 0.000000 0.000000 0.016640 0.000000
# 6 0.000000 0.000000 0.000000 0.000000 0.000000 0.023084
#
#
# Mechanical properties :
#
#
# Convention : Reuss Voigt Hill
#
# Bulk Modulus (GPa) = 28.11678 59.14544 43.63111
# Shear Modulus (GPa) = 34.28617 45.96722 40.12669
#
# Velocity S-wave (km/s) = 4.02646 4.66217 4.35593
# Velocity P-wave (km/s) = 5.90861 7.54641 6.77717
#
# Compressibility (1/GPa) = 0.03556595
#
# Stress axis : x y z
#
# Youngs Moduli (GPa) = 148.18273 29.16147 151.32290
#
# Poissons Ratio (x) = 0.01730 0.29509
# Poissons Ratio (y) = 0.08789 0.52935
# Poissons Ratio (z) = 0.28896 0.10201
#
# Static dielectric constant tensor:
#      x y z
#    x 1.762920 0.000000 0.000000 
#    y 0.000000 2.112430 0.000000 
#    z 0.000000 0.000000 1.809840 
# 
# From -- ./inp_files/61802.got.cif
#   From: 2010.05.17/outbox.cif.g08.bks.cpg/sg70_31_cif.got.tgz:61802.got - 2010.06.03 15:57:51.
