data_PCOD9515119
_publ_section_title
;
Structure prediction by ZEFSAII (Michael W. Deem and Ramdas Pophale) SiO2 
 PCOD9515119
Probable space group: F D D D
;
_chemical_formula_sum "Si O2"
_cell_formula_units_Z 112
_cell_length_a 12.369071
_cell_length_b 33.707990
_cell_length_c 12.061629
_cell_angle_alpha 90.000000
_cell_angle_beta 90.000000
_cell_angle_gamma 90.000000
_cell_volume 5028.933640
_symmetry_space_group_name_H-M "F D D D"
_symmetry_group_IT_number 70
_space_group.IT_coordinate_system_code '2'
_symmetry_cell_setting 'orthorhombic'
loop_
_space_group_symop_operation_xyz
x,y,z
1/4-x,1/4-y,z
x,1/4-y,1/4-z
1/4-x,y,1/4-z
-x,-y,-z
3/4+x,3/4+y,-z
-x,3/4+y,3/4+z
3/4+x,-y,3/4+z
x,1/2+y,1/2+z
1/4-x,3/4-y,1/2+z
x,3/4-y,3/4-z
1/4-x,1/2+y,3/4-z
-x,1/2-y,1/2-z
3/4+x,1/4+y,1/2-z
-x,1/4+y,1/4+z
3/4+x,1/2-y,1/4+z
1/2+x,y,1/2+z
3/4-x,1/4-y,1/2+z
1/2+x,1/4-y,3/4-z
3/4-x,y,3/4-z
1/2-x,-y,1/2-z
1/4+x,3/4+y,1/2-z
1/2-x,3/4+y,1/4+z
1/4+x,-y,1/4+z
1/2+x,1/2+y,z
3/4-x,3/4-y,z
1/2+x,3/4-y,1/4-z
3/4-x,1/2+y,1/4-z
1/2-x,1/2-y,-z
1/4+x,1/4+y,-z
1/2-x,1/4+y,3/4+z
1/4+x,1/2-y,3/4+z
loop_
_atom_site_type_symbol
_atom_site_label
_atom_site_fract_x
_atom_site_fract_y
_atom_site_fract_z
Si Si1 0.125000 0.125000 0.394990
Si Si2 0.148463 0.764321 0.922496
Si Si3 0.045963 0.555226 0.233625
Si Si4 0.515538 0.584890 0.192731
O O1 0.046243 0.150861 0.471111
O O2 0.053223 0.098919 0.313240
O O3 0.191266 0.783352 0.810604
O O4 0.069955 0.799667 0.962697
O O5 0.250000 0.750000 0.000000
O O6 0.085450 0.723329 0.918087
O O7 0.125000 0.555457 0.125000
O O8 0.476850 0.625000 0.125000
O O9 0.625000 0.572435 0.125000
#
# Coordination Sequence:
#
# PCOD9515119 Si02
#       4
#    16  32  32  32
#     4  10  20  40  66  94 128 170 214 262 324 388
#     4  10  21  39  62  89 125 168 212 264 319 380
#     4  10  21  37  60  93 127 163 208 262 317 381
#     4   9  21  43  66  92 128 169 213 265 326 394
#
# _framework density 22.271124
#
# number of rings (size 3 to 8) (size 9 to 14) (size 15 to 20)
#    0.000    2.571    0.000    2.143    0.000    6.857 
#    0.000   30.000    0.000    0.000    0.000    0.000 
#    0.000    0.000    0.000    0.000    0.000    0.000 
#
# Total GULP energy -155910.562341 kJ/mol
# GULP energy per Si atom -5568.234369 kJ/mol
# Density = 2.222043 g / cm^3
# Si number density = 22.271124 Si / 1000 Ang^3
#
#
#
# Elastic Constant Matrix: (Units=GPa)
#
#
# Indices 1 2 3 4 5 6 
#
# 1 65.7586 56.0272 26.0770 0.0000 0.0000 0.0000
# 2 56.0272 134.0618 53.2104 0.0000 0.0000 0.0000
# 3 26.0770 53.2104 82.0800 0.0000 0.0000 0.0000
# 4 0.0000 0.0000 0.0000 13.3596 0.0000 0.0000
# 5 0.0000 0.0000 0.0000 0.0000 5.5820 0.0000
# 6 0.0000 0.0000 0.0000 0.0000 0.0000 47.3131
#
#
#
# Elastic Compliance Matrix: (Units=1/GPa)
#
#
# Indices 1 2 3 4 5 6 
#
# 1 0.023752 -0.009333 -0.001496 0.000000 0.000000 0.000000
# 2 -0.009333 0.013711 -0.005923 0.000000 0.000000 0.000000
# 3 -0.001496 -0.005923 0.016498 0.000000 0.000000 0.000000
# 4 0.000000 0.000000 0.000000 0.074852 0.000000 0.000000
# 5 0.000000 0.000000 0.000000 0.000000 0.179147 0.000000
# 6 0.000000 0.000000 0.000000 0.000000 0.000000 0.021136
#
#
# Mechanical properties :
#
#
# Convention : Reuss Voigt Hill
#
# Bulk Modulus (GPa) = 48.88238 61.39219 55.13728
# Shear Modulus (GPa) = 13.53479 23.02333 18.27906
#
# Velocity S-wave (km/s) = 2.46789 3.21873 2.86798
# Velocity P-wave (km/s) = 5.48790 6.43733 5.98148
#
# Compressibility (1/GPa) = 0.02045727
#
# Stress axis : x y z
#
# Youngs Moduli (GPa) = 42.10184 72.93663 60.61214
#
# Poissons Ratio (x) = 0.68069 0.09067
# Poissons Ratio (y) = 0.39292 0.35902
# Poissons Ratio (z) = 0.06298 0.43202
#
# Static dielectric constant tensor:
#      x y z
#    x 1.926680 0.000000 0.000000 
#    y 0.000000 1.837680 0.000000 
#    z 0.000000 0.000000 1.870420 
# 
# From -- ./inp_files/14984.got.cif
#   From: 2010.05.17/outbox.cif.g08.bks.cpg/sg70_8_cif.got.tgz:14984.got - 2010.06.03 15:57:51.
