data_PCOD9515275
_publ_section_title
;
Structure prediction by ZEFSAII (Michael W. Deem and Ramdas Pophale) SiO2 
 PCOD9515275
Probable space group: F D D D
;
_chemical_formula_sum "Si O2"
_cell_formula_units_Z 240
_cell_length_a 27.889767
_cell_length_b 30.872987
_cell_length_c 15.107255
_cell_angle_alpha 90.000000
_cell_angle_beta 90.000000
_cell_angle_gamma 90.000000
_cell_volume 13007.957100
_symmetry_space_group_name_H-M "F D D D"
_symmetry_group_IT_number 70
_space_group.IT_coordinate_system_code '2'
_symmetry_cell_setting 'orthorhombic'
loop_
_space_group_symop_operation_xyz
x,y,z
1/4-x,1/4-y,z
x,1/4-y,1/4-z
1/4-x,y,1/4-z
-x,-y,-z
3/4+x,3/4+y,-z
-x,3/4+y,3/4+z
3/4+x,-y,3/4+z
x,1/2+y,1/2+z
1/4-x,3/4-y,1/2+z
x,3/4-y,3/4-z
1/4-x,1/2+y,3/4-z
-x,1/2-y,1/2-z
3/4+x,1/4+y,1/2-z
-x,1/4+y,1/4+z
3/4+x,1/2-y,1/4+z
1/2+x,y,1/2+z
3/4-x,1/4-y,1/2+z
1/2+x,1/4-y,3/4-z
3/4-x,y,3/4-z
1/2-x,-y,1/2-z
1/4+x,3/4+y,1/2-z
1/2-x,3/4+y,1/4+z
1/4+x,-y,1/4+z
1/2+x,1/2+y,z
3/4-x,3/4-y,z
1/2+x,3/4-y,1/4-z
3/4-x,1/2+y,1/4-z
1/2-x,1/2-y,-z
1/4+x,1/4+y,-z
1/2-x,1/4+y,3/4+z
1/4+x,1/2-y,3/4+z
loop_
_atom_site_type_symbol
_atom_site_label
_atom_site_fract_x
_atom_site_fract_y
_atom_site_fract_z
Si Si1 0.357938 0.786348 0.773578
Si Si2 0.761559 0.728212 0.257568
Si Si3 0.003457 0.202791 0.796769
Si Si4 0.046182 0.806528 0.505472
Si Si5 0.296668 0.883205 0.979747
Si Si6 0.675821 0.902727 0.962787
Si Si7 0.125000 0.353516 0.125000
Si Si8 0.834044 0.539045 0.692329
O O1 0.375000 0.789389 0.875000
O O2 0.309789 0.756753 0.773732
O O3 0.339766 0.833980 0.743726
O O4 0.398161 0.759466 0.718967
O O5 0.741489 0.713912 0.351963
O O6 0.725248 0.760839 0.209781
O O7 0.777725 0.683104 0.217161
O O8 0.949939 0.188826 0.766499
O O9 0.000000 0.250000 0.750000
O O10 0.039293 0.164724 0.768998
O O11 0.089516 0.825229 0.562950
O O12 0.060984 0.796477 0.403787
O O13 0.002350 0.840592 0.500566
O O14 0.300781 0.875000 0.875000
O O15 0.680658 0.875000 0.875000
O O16 0.632097 0.934220 0.942942
O O17 0.659469 0.879505 0.054892
#
# Coordination Sequence:
#
# PCOD9515275 Si02
#       8
#    32  32  32  32  32  32  16  32
#     4  10  21  35  52  85 123 160 191 238 297 374
#     4  10  21  37  58  84 121 159 199 247 306 365
#     4  12  20  34  58  84 114 161 199 242 300 370
#     4  11  22  39  60  85 119 158 203 249 305 361
#     4  11  22  34  54  86 123 157 195 245 307 368
#     4  11  22  37  61  92 119 151 200 256 303 354
#     4  12  24  38  62  98 119 152 205 262 302 350
#     4  11  20  35  59  83 120 156 196 241 301 363
#
# _framework density 18.450244999999999
#
# number of rings (size 3 to 8) (size 9 to 14) (size 15 to 20)
#    0.000    1.067    5.333    3.200    1.867    0.267 
#    0.000    0.667    2.933    0.000    0.000    0.000 
#    0.000    0.000    0.000    0.000    0.000    0.000 
#
# Total GULP energy -334434.733817 kJ/mol
# GULP energy per Si atom -5573.912230 kJ/mol
# Density = 1.840825 g / cm^3
# Si number density = 18.450245 Si / 1000 Ang^3
#
#
#
# Elastic Constant Matrix: (Units=GPa)
#
#
# Indices 1 2 3 4 5 6 
#
# 1 51.1419 44.9002 11.0393 0.0000 0.0000 0.0000
# 2 44.9002 155.7050 54.4060 0.0000 0.0000 0.0000
# 3 11.0393 54.4060 54.0835 0.0000 0.0000 0.0000
# 4 0.0000 0.0000 0.0000 21.1724 0.0000 0.0000
# 5 0.0000 0.0000 0.0000 0.0000 23.1085 0.0000
# 6 0.0000 0.0000 0.0000 0.0000 0.0000 30.2950
#
#
#
# Elastic Compliance Matrix: (Units=1/GPa)
#
#
# Indices 1 2 3 4 5 6 
#
# 1 0.026611 -0.008907 0.003528 0.000000 0.000000 0.000000
# 2 -0.008907 0.012884 -0.011143 0.000000 0.000000 0.000000
# 3 0.003528 -0.011143 0.028980 0.000000 0.000000 0.000000
# 4 0.000000 0.000000 0.000000 0.047231 0.000000 0.000000
# 5 0.000000 0.000000 0.000000 0.000000 0.043274 0.000000
# 6 0.000000 0.000000 0.000000 0.000000 0.000000 0.033009
#
#
# Mechanical properties :
#
#
# Convention : Reuss Voigt Hill
#
# Bulk Modulus (GPa) = 28.22349 53.51348 40.86848
# Shear Modulus (GPa) = 21.11093 24.95417 23.03255
#
# Velocity S-wave (km/s) = 3.38629 3.68164 3.53705
# Velocity P-wave (km/s) = 5.53349 6.86584 6.23536
#
# Compressibility (1/GPa) = 0.03543148
#
# Stress axis : x y z
#
# Youngs Moduli (GPa) = 37.57774 77.61324 34.50712
#
# Poissons Ratio (x) = 0.69127 -0.12174
# Poissons Ratio (y) = 0.33469 0.38452
# Poissons Ratio (z) = -0.13257 0.86486
#
# Static dielectric constant tensor:
#      x y z
#    x 2.034130 0.000000 0.000000 
#    y 0.000000 1.753610 0.000000 
#    z 0.000000 0.000000 -4.117210 
# 
# From -- ./inp_files/31352.got.cif
#   From: 2010.05.17/outbox.cif.g08.bks.cpg/sg70_16_cif.got.tgz:31352.got - 2010.06.03 15:57:51.
