data_PCOD9515823
_publ_section_title
;
Structure prediction by ZEFSAII (Michael W. Deem and Ramdas Pophale) SiO2 
 PCOD9515823
Probable space group: F D D D
;
_chemical_formula_sum "Si O2"
_cell_formula_units_Z 144
_cell_length_a 9.434608
_cell_length_b 28.813588
_cell_length_c 23.094775
_cell_angle_alpha 90.000000
_cell_angle_beta 90.000000
_cell_angle_gamma 90.000000
_cell_volume 6278.196982
_symmetry_space_group_name_H-M "F D D D"
_symmetry_group_IT_number 70
_space_group.IT_coordinate_system_code '2'
_symmetry_cell_setting 'orthorhombic'
loop_
_space_group_symop_operation_xyz
x,y,z
1/4-x,1/4-y,z
x,1/4-y,1/4-z
1/4-x,y,1/4-z
-x,-y,-z
3/4+x,3/4+y,-z
-x,3/4+y,3/4+z
3/4+x,-y,3/4+z
x,1/2+y,1/2+z
1/4-x,3/4-y,1/2+z
x,3/4-y,3/4-z
1/4-x,1/2+y,3/4-z
-x,1/2-y,1/2-z
3/4+x,1/4+y,1/2-z
-x,1/4+y,1/4+z
3/4+x,1/2-y,1/4+z
1/2+x,y,1/2+z
3/4-x,1/4-y,1/2+z
1/2+x,1/4-y,3/4-z
3/4-x,y,3/4-z
1/2-x,-y,1/2-z
1/4+x,3/4+y,1/2-z
1/2-x,3/4+y,1/4+z
1/4+x,-y,1/4+z
1/2+x,1/2+y,z
3/4-x,3/4-y,z
1/2+x,3/4-y,1/4-z
3/4-x,1/2+y,1/4-z
1/2-x,1/2-y,-z
1/4+x,1/4+y,-z
1/2-x,1/4+y,3/4+z
1/4+x,1/2-y,3/4+z
loop_
_atom_site_type_symbol
_atom_site_label
_atom_site_fract_x
_atom_site_fract_y
_atom_site_fract_z
Si Si1 0.158203 0.737699 0.685690
Si Si2 0.664879 0.796981 0.493478
Si Si3 0.716286 0.385729 0.569673
Si Si4 0.380244 0.184016 0.718615
Si Si5 0.625000 0.625000 0.546731
O O1 0.125000 0.762878 0.625000
O O2 0.304480 0.709177 0.690699
O O3 0.167938 0.773361 0.739569
O O4 0.023265 0.703479 0.690073
O O5 0.750000 0.750000 0.500000
O O6 0.568698 0.812305 0.548047
O O7 0.783172 0.836726 0.486699
O O8 0.625000 0.374952 0.625000
O O9 0.681918 0.354379 0.514324
O O10 0.875000 0.375000 0.585867
O O11 0.254224 0.159513 0.680634
#
# Coordination Sequence:
#
# PCOD9515823 Si02
#       5
#    32  32  32  32  16
#     4  11  23  43  72  96 138 190 230 277 359 419
#     4  11  23  45  65 101 143 172 224 293 343 417
#     4  11  24  40  67 101 131 175 232 289 346 402
#     4  10  22  43  65 101 139 169 232 298 331 416
#     4  10  22  40  71  92 132 182 216 288 353 388
#
# _framework density 22.936520000000002
#
# number of rings (size 3 to 8) (size 9 to 14) (size 15 to 20)
#    0.000    1.333    4.444    0.667    6.222    1.778 
#    0.000   11.111    0.000    0.000    0.000    0.000 
#    0.000    0.000    0.000    0.000    0.000    0.000 
#
# Total GULP energy -200558.898812 kJ/mol
# GULP energy per Si atom -5571.080523 kJ/mol
# Density = 2.288432 g / cm^3
# Si number density = 22.936520 Si / 1000 Ang^3
#
#
#
# Elastic Constant Matrix: (Units=GPa)
#
#
# Indices 1 2 3 4 5 6 
#
# 1 190.0982 62.6213 31.9883 0.0000 0.0000 0.0000
# 2 62.6213 126.0498 18.0586 0.0000 0.0000 0.0000
# 3 31.9883 18.0586 54.3223 0.0000 0.0000 0.0000
# 4 0.0000 0.0000 0.0000 -243.4155 0.0000 0.0000
# 5 0.0000 0.0000 0.0000 0.0000 -11.1435 0.0000
# 6 0.0000 0.0000 0.0000 0.0000 0.0000 53.1451
#
#
#
# Elastic Compliance Matrix: (Units=1/GPa)
#
#
# Indices 1 2 3 4 5 6 
#
# 1 0.006723 -0.002911 -0.002991 0.000000 0.000000 0.000000
# 2 -0.002911 0.009591 -0.001474 0.000000 0.000000 0.000000
# 3 -0.002991 -0.001474 0.020660 0.000000 0.000000 0.000000
# 4 0.000000 0.000000 0.000000 -0.004108 0.000000 0.000000
# 5 0.000000 0.000000 0.000000 0.000000 -0.089739 0.000000
# 6 0.000000 0.000000 0.000000 0.000000 0.000000 0.018816
#
#
# Mechanical properties :
#
#
# Convention : Reuss Voigt Hill
#
# Bulk Modulus (GPa) = 45.00241 66.20076 55.60158
# Shear Modulus (GPa) = -314.52042 -23.09598 -168.80820
#
# Velocity S-wave (km/s) = -11.72281 -3.17669 -8.58823
# Velocity P-wave (km/s) = 12.78942 3.93320 8.60521
#
# Compressibility (1/GPa) = 0.02222103
#
# Stress axis : x y z
#
# Youngs Moduli (GPa) = 148.74785 104.26546 48.40299
#
# Poissons Ratio (x) = 0.30356 0.14477
# Poissons Ratio (y) = 0.43306 0.07134
# Poissons Ratio (z) = 0.44490 0.15368
#
# Static dielectric constant tensor:
#      x y z
#    x 2.105050 0.000000 0.000000 
#    y 0.000000 1.927630 0.000000 
#    z 0.000000 0.000000 1.900480 
# 
# From -- ./inp_files/63878.got.cif
#   From: 2010.05.17/outbox.cif.g08.bks.cpg/sg70_32_cif.got.tgz:63878.got - 2010.06.03 15:57:51.
