data_PCOD9515647
_publ_section_title
;
Structure prediction by ZEFSAII (Michael W. Deem and Ramdas Pophale) SiO2 
 PCOD9515647
Probable space group: F D D D
;
_chemical_formula_sum "Si O2"
_cell_formula_units_Z 192
_cell_length_a 22.436967
_cell_length_b 14.895467
_cell_length_c 24.176303
_cell_angle_alpha 90.000000
_cell_angle_beta 90.000000
_cell_angle_gamma 90.000000
_cell_volume 8079.940504
_symmetry_space_group_name_H-M "F D D D"
_symmetry_group_IT_number 70
_space_group.IT_coordinate_system_code '2'
_symmetry_cell_setting 'orthorhombic'
loop_
_space_group_symop_operation_xyz
x,y,z
1/4-x,1/4-y,z
x,1/4-y,1/4-z
1/4-x,y,1/4-z
-x,-y,-z
3/4+x,3/4+y,-z
-x,3/4+y,3/4+z
3/4+x,-y,3/4+z
x,1/2+y,1/2+z
1/4-x,3/4-y,1/2+z
x,3/4-y,3/4-z
1/4-x,1/2+y,3/4-z
-x,1/2-y,1/2-z
3/4+x,1/4+y,1/2-z
-x,1/4+y,1/4+z
3/4+x,1/2-y,1/4+z
1/2+x,y,1/2+z
3/4-x,1/4-y,1/2+z
1/2+x,1/4-y,3/4-z
3/4-x,y,3/4-z
1/2-x,-y,1/2-z
1/4+x,3/4+y,1/2-z
1/2-x,3/4+y,1/4+z
1/4+x,-y,1/4+z
1/2+x,1/2+y,z
3/4-x,3/4-y,z
1/2+x,3/4-y,1/4-z
3/4-x,1/2+y,1/4-z
1/2-x,1/2-y,-z
1/4+x,1/4+y,-z
1/2-x,1/4+y,3/4+z
1/4+x,1/2-y,3/4+z
loop_
_atom_site_type_symbol
_atom_site_label
_atom_site_fract_x
_atom_site_fract_y
_atom_site_fract_z
Si Si1 0.182104 0.934779 0.922984
Si Si2 0.211894 0.576754 0.721173
Si Si3 0.167804 0.486917 0.206857
Si Si4 0.625000 0.625000 0.625000
Si Si5 0.824904 0.193945 0.712825
Si Si6 0.016192 0.616340 0.275466
Si Si7 0.625000 0.125000 0.430555
Si Si8 0.375000 0.875000 0.375000
O O1 0.210663 0.875000 0.875000
O O2 0.125061 0.871738 0.938537
O O3 0.229736 0.931259 0.974020
O O4 0.153858 0.031846 0.905808
O O5 0.250000 0.500000 0.750000
O O6 0.261471 0.648685 0.704586
O O7 0.175515 0.602191 0.775240
O O8 0.167236 0.568900 0.668201
O O9 0.163899 0.559865 0.160821
O O10 0.102315 0.455876 0.225400
O O11 0.195966 0.545996 0.257088
O O12 0.211112 0.406601 0.190614
O O13 0.810191 0.296355 0.695715
#
# Coordination Sequence:
#
# PCOD9515647 Si02
#       8
#    32  32  32   8  32  32  16   8
#     4  11  25  41  67 102 136 177 252 301 373 475
#     4  11  23  45  78 102 152 195 247 330 387 460
#     4  10  23  38  65  95 133 185 235 288 375 450
#     4  12  20  40  64  98 142 166 258 308 334 458
#     4  11  21  42  71  94 134 190 225 297 383 448
#     4  10  21  44  64  90 137 187 226 291 377 442
#     4  11  22  45  67 102 138 194 241 307 401 456
#     4  10  28  44  78 122 138 216 282 304 402 502
#
# _framework density 23.762550999999998
#
# number of rings (size 3 to 8) (size 9 to 14) (size 15 to 20)
#    0.000    1.333    5.000    0.000    2.333    0.000 
#    9.000    3.333    0.000    0.000    0.000    0.000 
#    0.000    0.000    0.000    0.000    0.000    0.000 
#
# Total GULP energy -267217.166628 kJ/mol
# GULP energy per Si atom -5567.024305 kJ/mol
# Density = 2.370847 g / cm^3
# Si number density = 23.762551 Si / 1000 Ang^3
#
#
#
# Elastic Constant Matrix: (Units=GPa)
#
#
# Indices 1 2 3 4 5 6 
#
# 1 130.1252 35.2146 20.4827 0.0000 0.0000 0.0000
# 2 35.2146 114.0054 35.1849 0.0000 0.0000 0.0000
# 3 20.4827 35.1849 64.0310 0.0000 0.0000 0.0000
# 4 0.0000 0.0000 0.0000 24.1890 0.0000 0.0000
# 5 0.0000 0.0000 0.0000 0.0000 12.1289 0.0000
# 6 0.0000 0.0000 0.0000 0.0000 0.0000 42.7470
#
#
#
# Elastic Compliance Matrix: (Units=1/GPa)
#
#
# Indices 1 2 3 4 5 6 
#
# 1 0.008510 -0.002154 -0.001539 0.000000 0.000000 0.000000
# 2 -0.002154 0.011108 -0.005415 0.000000 0.000000 0.000000
# 3 -0.001539 -0.005415 0.019085 0.000000 0.000000 0.000000
# 4 0.000000 0.000000 0.000000 0.041341 0.000000 0.000000
# 5 0.000000 0.000000 0.000000 0.000000 0.082448 0.000000
# 6 0.000000 0.000000 0.000000 0.000000 0.000000 0.023393
#
#
# Mechanical properties :
#
#
# Convention : Reuss Voigt Hill
#
# Bulk Modulus (GPa) = 48.80816 54.43620 51.62218
# Shear Modulus (GPa) = 23.70460 30.29827 27.00144
#
# Velocity S-wave (km/s) = 3.16185 3.57465 3.37456
# Velocity P-wave (km/s) = 5.82359 6.32421 6.07906
#
# Compressibility (1/GPa) = 0.02048838
#
# Stress axis : x y z
#
# Youngs Moduli (GPa) = 117.50941 90.02587 52.39685
#
# Poissons Ratio (x) = 0.19389 0.08063
# Poissons Ratio (y) = 0.25308 0.28372
# Poissons Ratio (z) = 0.18082 0.48748
#
# Static dielectric constant tensor:
#      x y z
#    x 1.827990 0.000000 0.000000 
#    y 0.000000 1.803620 0.000000 
#    z 0.000000 0.000000 2.217970 
# 
# From -- ./inp_files/29113.got.cif
#   From: 2010.05.17/outbox.cif.g08.bks.cpg/sg70_15_cif.got.tgz:29113.got - 2010.06.03 15:57:51.
