data_PCOD9515826
_publ_section_title
;
Structure prediction by ZEFSAII (Michael W. Deem and Ramdas Pophale) SiO2 
 PCOD9515826
Probable space group: F D D D
;
_chemical_formula_sum "Si O2"
_cell_formula_units_Z 208
_cell_length_a 27.855818
_cell_length_b 17.754841
_cell_length_c 19.639473
_cell_angle_alpha 90.000000
_cell_angle_beta 90.000000
_cell_angle_gamma 90.000000
_cell_volume 9713.204526
_symmetry_space_group_name_H-M "F D D D"
_symmetry_group_IT_number 70
_space_group.IT_coordinate_system_code '2'
_symmetry_cell_setting 'orthorhombic'
loop_
_space_group_symop_operation_xyz
x,y,z
1/4-x,1/4-y,z
x,1/4-y,1/4-z
1/4-x,y,1/4-z
-x,-y,-z
3/4+x,3/4+y,-z
-x,3/4+y,3/4+z
3/4+x,-y,3/4+z
x,1/2+y,1/2+z
1/4-x,3/4-y,1/2+z
x,3/4-y,3/4-z
1/4-x,1/2+y,3/4-z
-x,1/2-y,1/2-z
3/4+x,1/4+y,1/2-z
-x,1/4+y,1/4+z
3/4+x,1/2-y,1/4+z
1/2+x,y,1/2+z
3/4-x,1/4-y,1/2+z
1/2+x,1/4-y,3/4-z
3/4-x,y,3/4-z
1/2-x,-y,1/2-z
1/4+x,3/4+y,1/2-z
1/2-x,3/4+y,1/4+z
1/4+x,-y,1/4+z
1/2+x,1/2+y,z
3/4-x,3/4-y,z
1/2+x,3/4-y,1/4-z
3/4-x,1/2+y,1/4-z
1/2-x,1/2-y,-z
1/4+x,1/4+y,-z
1/2-x,1/4+y,3/4+z
1/4+x,1/2-y,3/4+z
loop_
_atom_site_type_symbol
_atom_site_label
_atom_site_fract_x
_atom_site_fract_y
_atom_site_fract_z
Si Si1 0.159641 0.940575 0.186350
Si Si2 0.805635 0.462397 0.688434
Si Si3 0.014180 0.313387 0.560997
Si Si4 0.291767 0.816905 0.497579
Si Si5 0.375000 0.375000 0.651967
Si Si6 0.229662 0.093399 0.548298
Si Si7 0.663390 0.872858 0.294763
O O1 0.125000 0.931333 0.125000
O O2 0.202763 0.883700 0.171493
O O3 0.130331 0.912008 0.252889
O O4 0.175982 0.027267 0.190974
O O5 0.764737 0.460434 0.629439
O O6 0.851625 0.436647 0.646412
O O7 0.790957 0.403116 0.745787
O O8 0.818371 0.542446 0.721357
O O9 0.042985 0.239068 0.540149
O O10 0.983610 0.351530 0.499182
O O11 0.250000 0.750000 0.500000
O O12 0.331876 0.834030 0.556488
O O13 0.225097 0.125000 0.625000
O O14 0.286541 0.078152 0.534803
O O15 0.651992 0.875000 0.375000
#
# Coordination Sequence:
#
# PCOD9515826 Si02
#       7
#    32  32  32  32  16  32  32
#     4  11  24  40  69  96 134 168 224 286 348 399
#     4  11  22  40  64  92 132 174 223 268 341 417
#     4  10  22  44  65  94 131 176 216 283 345 408
#     4   9  21  43  70  93 132 173 226 283 340 412
#     4  10  22  40  72  90 126 178 224 282 344 408
#     4  11  23  38  64  95 132 177 224 271 341 416
#     4  11  22  40  68  95 127 177 227 269 336 417
#
# _framework density 21.414148000000001
#
# number of rings (size 3 to 8) (size 9 to 14) (size 15 to 20)
#    0.000    1.538    3.077    2.308    6.462    0.000 
#    0.000    0.769    6.769    0.000    0.000    0.000 
#    0.000    0.000    0.000    0.000    0.000    0.000 
#
# Total GULP energy -289543.986362 kJ/mol
# GULP energy per Si atom -5568.153584 kJ/mol
# Density = 2.136541 g / cm^3
# Si number density = 21.414148 Si / 1000 Ang^3
#
#
#
# Elastic Constant Matrix: (Units=GPa)
#
#
# Indices 1 2 3 4 5 6 
#
# 1 38.2830 -1.6492 5.2914 0.0000 0.0000 0.0000
# 2 -1.6492 140.9434 25.8885 0.0000 0.0000 0.0000
# 3 5.2914 25.8885 25.0819 0.0000 0.0000 0.0000
# 4 0.0000 0.0000 0.0000 29.8530 0.0000 0.0000
# 5 0.0000 0.0000 0.0000 0.0000 4.6999 0.0000
# 6 0.0000 0.0000 0.0000 0.0000 0.0000 15.9398
#
#
#
# Elastic Compliance Matrix: (Units=1/GPa)
#
#
# Indices 1 2 3 4 5 6 
#
# 1 0.027230 0.001695 -0.007494 0.000000 0.000000 0.000000
# 2 0.001695 0.008860 -0.009503 0.000000 0.000000 0.000000
# 3 -0.007494 -0.009503 0.051259 0.000000 0.000000 0.000000
# 4 0.000000 0.000000 0.000000 0.033497 0.000000 0.000000
# 5 0.000000 0.000000 0.000000 0.000000 0.212768 0.000000
# 6 0.000000 0.000000 0.000000 0.000000 0.000000 0.062736
#
#
# Mechanical properties :
#
#
# Convention : Reuss Voigt Hill
#
# Bulk Modulus (GPa) = 17.62260 29.26330 23.44295
# Shear Modulus (GPa) = 11.21402 21.75039 16.48220
#
# Velocity S-wave (km/s) = 2.29087 3.19047 2.77733
# Velocity P-wave (km/s) = 3.90445 5.22180 4.61042
#
# Compressibility (1/GPa) = 0.05674531
#
# Stress axis : x y z
#
# Youngs Moduli (GPa) = 36.72399 112.86203 19.50879
#
# Poissons Ratio (x) = -0.19132 0.14621
# Poissons Ratio (y) = -0.06225 0.18539
# Poissons Ratio (z) = 0.27522 1.07252
#
# Static dielectric constant tensor:
#      x y z
#    x 1.751040 0.000000 0.000000 
#    y 0.000000 1.778200 0.000000 
#    z 0.000000 0.000000 1.788580 
# 
# From -- ./inp_files/46961.got.cif
#   From: 2010.05.17/outbox.cif.g08.bks.cpg/sg70_24_cif.got.tgz:46961.got - 2010.06.03 15:57:51.
