data_PCOD9515327
_publ_section_title
;
Structure prediction by ZEFSAII (Michael W. Deem and Ramdas Pophale) SiO2 
 PCOD9515327
Probable space group: F D D D
;
_chemical_formula_sum "Si O2"
_cell_formula_units_Z 176
_cell_length_a 13.137561
_cell_length_b 27.816050
_cell_length_c 24.677658
_cell_angle_alpha 90.000000
_cell_angle_beta 90.000000
_cell_angle_gamma 90.000000
_cell_volume 9018.081275
_symmetry_space_group_name_H-M "F D D D"
_symmetry_group_IT_number 70
_space_group.IT_coordinate_system_code '2'
_symmetry_cell_setting 'orthorhombic'
loop_
_space_group_symop_operation_xyz
x,y,z
1/4-x,1/4-y,z
x,1/4-y,1/4-z
1/4-x,y,1/4-z
-x,-y,-z
3/4+x,3/4+y,-z
-x,3/4+y,3/4+z
3/4+x,-y,3/4+z
x,1/2+y,1/2+z
1/4-x,3/4-y,1/2+z
x,3/4-y,3/4-z
1/4-x,1/2+y,3/4-z
-x,1/2-y,1/2-z
3/4+x,1/4+y,1/2-z
-x,1/4+y,1/4+z
3/4+x,1/2-y,1/4+z
1/2+x,y,1/2+z
3/4-x,1/4-y,1/2+z
1/2+x,1/4-y,3/4-z
3/4-x,y,3/4-z
1/2-x,-y,1/2-z
1/4+x,3/4+y,1/2-z
1/2-x,3/4+y,1/4+z
1/4+x,-y,1/4+z
1/2+x,1/2+y,z
3/4-x,3/4-y,z
1/2+x,3/4-y,1/4-z
3/4-x,1/2+y,1/4-z
1/2-x,1/2-y,-z
1/4+x,1/4+y,-z
1/2-x,1/4+y,3/4+z
1/4+x,1/2-y,3/4+z
loop_
_atom_site_type_symbol
_atom_site_label
_atom_site_fract_x
_atom_site_fract_y
_atom_site_fract_z
Si Si1 0.822723 0.573783 0.959722
Si Si2 0.875000 0.375000 0.245541
Si Si3 0.125000 0.399597 0.625000
Si Si4 0.506414 0.736527 0.401935
Si Si5 0.690192 0.720729 0.045443
Si Si6 0.803077 0.723356 0.549595
Si Si7 0.125000 0.740680 0.125000
O O1 0.708136 0.593486 0.963908
O O2 0.879492 0.615673 0.926888
O O3 0.830057 0.526184 0.921977
O O4 0.875359 0.565384 0.018383
O O5 0.818378 0.415322 0.280423
O O6 0.220522 0.435615 0.621821
O O7 0.420883 0.754567 0.444809
O O8 0.497087 0.773115 0.352188
O O9 0.618282 0.738992 0.424484
O O10 0.750000 0.750000 0.000000
O O11 0.750000 0.750000 0.500000
O O12 0.716184 0.712113 0.594374
#
# Coordination Sequence:
#
# PCOD9515327 Si02
#       7
#    32  16  16  32  32  32  16
#     4  10  21  37  58  95 120 156 213 258 315 370
#     4  12  20  35  62  88 130 160 202 267 320 366
#     4   9  20  38  62  91 119 153 203 274 312 373
#     4  10  21  39  60  87 121 159 208 252 322 372
#     4  10  22  36  58  90 123 161 202 253 323 377
#     4  10  21  40  60  88 124 163 210 254 306 382
#     4   9  22  38  62  84 122 173 212 247 308 375
#
# _framework density 19.516345999999999
#
# number of rings (size 3 to 8) (size 9 to 14) (size 15 to 20)
#    0.000    2.182    1.818    2.182    5.091    1.455 
#    0.000    0.000    0.000    2.182    0.000    0.000 
#    0.000    0.000    0.000    0.000    0.000    0.000 
#
# Total GULP energy -245162.662726 kJ/mol
# GULP energy per Si atom -5571.878698 kJ/mol
# Density = 1.947193 g / cm^3
# Si number density = 19.516346 Si / 1000 Ang^3
#
#
#
# Elastic Constant Matrix: (Units=GPa)
#
#
# Indices 1 2 3 4 5 6 
#
# 1 101.4135 6.9785 48.8566 0.0000 0.0000 0.0000
# 2 6.9785 69.0230 25.0819 0.0000 0.0000 0.0000
# 3 48.8566 25.0819 86.0928 0.0000 0.0000 0.0000
# 4 0.0000 0.0000 0.0000 10.0325 0.0000 0.0000
# 5 0.0000 0.0000 0.0000 0.0000 41.0332 0.0000
# 6 0.0000 0.0000 0.0000 0.0000 0.0000 14.7735
#
#
#
# Elastic Compliance Matrix: (Units=1/GPa)
#
#
# Indices 1 2 3 4 5 6 
#
# 1 0.013730 0.001614 -0.008262 0.000000 0.000000 0.000000
# 2 0.001614 0.016393 -0.005692 0.000000 0.000000 0.000000
# 3 -0.008262 -0.005692 0.017962 0.000000 0.000000 0.000000
# 4 0.000000 0.000000 0.000000 0.099676 0.000000 0.000000
# 5 0.000000 0.000000 0.000000 0.000000 0.024370 0.000000
# 6 0.000000 0.000000 0.000000 0.000000 0.000000 0.067689
#
#
# Mechanical properties :
#
#
# Convention : Reuss Voigt Hill
#
# Bulk Modulus (GPa) = 42.72438 46.48481 44.60460
# Shear Modulus (GPa) = 18.36209 24.87535 21.61872
#
# Velocity S-wave (km/s) = 3.07067 3.57401 3.33186
# Velocity P-wave (km/s) = 5.87462 6.39543 6.14055
#
# Compressibility (1/GPa) = 0.02340584
#
# Stress axis : x y z
#
# Youngs Moduli (GPa) = 72.83511 61.00142 55.67320
#
# Poissons Ratio (x) = -0.09846 0.45995
# Poissons Ratio (y) = -0.11756 0.31688
# Poissons Ratio (z) = 0.60174 0.34721
#
# Static dielectric constant tensor:
#      x y z
#    x 1.767890 0.000000 0.000000 
#    y 0.000000 1.666750 0.000000 
#    z 0.000000 0.000000 1.793940 
# 
# From -- ./inp_files/50466.got.cif
#   From: 2010.05.17/outbox.cif.g08.bks.cpg/sg70_26_cif.got.tgz:50466.got - 2010.06.03 15:57:51.
