data_PCOD9515567
_publ_section_title
;
Structure prediction by ZEFSAII (Michael W. Deem and Ramdas Pophale) SiO2 
 PCOD9515567
Probable space group: F D D D
;
_chemical_formula_sum "Si O2"
_cell_formula_units_Z 112
_cell_length_a 7.729625
_cell_length_b 28.493905
_cell_length_c 23.590785
_cell_angle_alpha 90.000000
_cell_angle_beta 90.000000
_cell_angle_gamma 90.000000
_cell_volume 5195.804352
_symmetry_space_group_name_H-M "F D D D"
_symmetry_group_IT_number 70
_space_group.IT_coordinate_system_code '2'
_symmetry_cell_setting 'orthorhombic'
loop_
_space_group_symop_operation_xyz
x,y,z
1/4-x,1/4-y,z
x,1/4-y,1/4-z
1/4-x,y,1/4-z
-x,-y,-z
3/4+x,3/4+y,-z
-x,3/4+y,3/4+z
3/4+x,-y,3/4+z
x,1/2+y,1/2+z
1/4-x,3/4-y,1/2+z
x,3/4-y,3/4-z
1/4-x,1/2+y,3/4-z
-x,1/2-y,1/2-z
3/4+x,1/4+y,1/2-z
-x,1/4+y,1/4+z
3/4+x,1/2-y,1/4+z
1/2+x,y,1/2+z
3/4-x,1/4-y,1/2+z
1/2+x,1/4-y,3/4-z
3/4-x,y,3/4-z
1/2-x,-y,1/2-z
1/4+x,3/4+y,1/2-z
1/2-x,3/4+y,1/4+z
1/4+x,-y,1/4+z
1/2+x,1/2+y,z
3/4-x,3/4-y,z
1/2+x,3/4-y,1/4-z
3/4-x,1/2+y,1/4-z
1/2-x,1/2-y,-z
1/4+x,1/4+y,-z
1/2-x,1/4+y,3/4+z
1/4+x,1/2-y,3/4+z
loop_
_atom_site_type_symbol
_atom_site_label
_atom_site_fract_x
_atom_site_fract_y
_atom_site_fract_z
Si Si1 0.022132 0.909234 0.235143
Si Si2 0.328246 0.074665 0.606970
Si Si3 0.625000 0.403147 0.625000
Si Si4 0.930177 0.473300 0.645331
O O1 0.122879 0.926625 0.289879
O O2 0.098749 0.878697 0.181986
O O3 0.875000 0.875000 0.259364
O O4 0.932087 0.955208 0.209459
O O5 0.400103 0.125000 0.625000
O O6 0.125000 0.074330 0.625000
O O7 0.393671 0.027384 0.635812
O O8 0.790171 0.437703 0.617349
O O9 0.125000 0.465451 0.625000
#
# Coordination Sequence:
#
# PCOD9515567 Si02
#       4
#    32  32  16  32
#     4  10  21  41  71  99 135 177 231 280 340 414
#     4  11  23  43  67 101 137 183 228 277 349 407
#     4  10  22  44  71  98 135 184 224 290 342 398
#     4  11  24  42  68 104 134 178 235 276 344 407
#
# _framework density 21.555854
#
# number of rings (size 3 to 8) (size 9 to 14) (size 15 to 20)
#    0.000    1.429    5.714    0.000    0.000    5.143 
#    0.000    2.857    0.000    0.000    0.000    0.000 
#    0.000    0.000    0.000    0.000    0.000    0.000 
#
# Total GULP energy -155907.970825 kJ/mol
# GULP energy per Si atom -5568.141815 kJ/mol
# Density = 2.150679 g / cm^3
# Si number density = 21.555854 Si / 1000 Ang^3
#
#
#
# Elastic Constant Matrix: (Units=GPa)
#
#
# Indices 1 2 3 4 5 6 
#
# 1 94.9281 42.9287 6.6855 0.0000 0.0000 0.0000
# 2 42.9287 222.5745 73.8509 0.0000 0.0000 0.0000
# 3 6.6855 73.8509 102.8304 0.0000 0.0000 0.0000
# 4 0.0000 0.0000 0.0000 11.6950 0.0000 0.0000
# 5 0.0000 0.0000 0.0000 0.0000 8.1188 0.0000
# 6 0.0000 0.0000 0.0000 0.0000 0.0000 -8.6245
#
#
#
# Elastic Compliance Matrix: (Units=1/GPa)
#
#
# Indices 1 2 3 4 5 6 
#
# 1 0.011639 -0.002617 0.001123 0.000000 0.000000 0.000000
# 2 -0.002617 0.006487 -0.004489 0.000000 0.000000 0.000000
# 3 0.001123 -0.004489 0.012875 0.000000 0.000000 0.000000
# 4 0.000000 0.000000 0.000000 0.085507 0.000000 0.000000
# 5 0.000000 0.000000 0.000000 0.000000 0.123171 0.000000
# 6 0.000000 0.000000 0.000000 0.000000 0.000000 -0.115949
#
#
# Mechanical properties :
#
#
# Convention : Reuss Voigt Hill
#
# Bulk Modulus (GPa) = 52.53412 74.14034 63.33723
# Shear Modulus (GPa) = 35.20102 22.02906 28.61504
#
# Velocity S-wave (km/s) = 4.04544 3.20027 3.64742
# Velocity P-wave (km/s) = 6.80036 6.93720 6.86912
#
# Compressibility (1/GPa) = 0.01903525
#
# Stress axis : x y z
#
# Youngs Moduli (GPa) = 85.91896 154.15212 77.66712
#
# Poissons Ratio (x) = 0.40349 -0.08723
# Poissons Ratio (y) = 0.22489 0.34863
# Poissons Ratio (z) = -0.09650 0.69195
#
# Static dielectric constant tensor:
#      x y z
#    x 1.888080 0.000000 0.000000 
#    y 0.000000 1.779680 0.000000 
#    z 0.000000 0.000000 2.693150 
# 
# From -- ./inp_files/49090.got.cif
#   From: 2010.05.17/outbox.cif.g08.bks.cpg/sg70_25_cif.got.tgz:49090.got - 2010.06.03 15:57:51.
