data_PCOD9515001
_publ_section_title
;
Structure prediction by ZEFSAII (Michael W. Deem and Ramdas Pophale) SiO2 
 PCOD9515001
Probable space group: F D D D
;
_chemical_formula_sum "Si O2"
_cell_formula_units_Z 192
_cell_length_a 10.898186
_cell_length_b 32.621949
_cell_length_c 28.131670
_cell_angle_alpha 90.000000
_cell_angle_beta 90.000000
_cell_angle_gamma 90.000000
_cell_volume 10001.373228
_symmetry_space_group_name_H-M "F D D D"
_symmetry_group_IT_number 70
_space_group.IT_coordinate_system_code '2'
_symmetry_cell_setting 'orthorhombic'
loop_
_space_group_symop_operation_xyz
x,y,z
1/4-x,1/4-y,z
x,1/4-y,1/4-z
1/4-x,y,1/4-z
-x,-y,-z
3/4+x,3/4+y,-z
-x,3/4+y,3/4+z
3/4+x,-y,3/4+z
x,1/2+y,1/2+z
1/4-x,3/4-y,1/2+z
x,3/4-y,3/4-z
1/4-x,1/2+y,3/4-z
-x,1/2-y,1/2-z
3/4+x,1/4+y,1/2-z
-x,1/4+y,1/4+z
3/4+x,1/2-y,1/4+z
1/2+x,y,1/2+z
3/4-x,1/4-y,1/2+z
1/2+x,1/4-y,3/4-z
3/4-x,y,3/4-z
1/2-x,-y,1/2-z
1/4+x,3/4+y,1/2-z
1/2-x,3/4+y,1/4+z
1/4+x,-y,1/4+z
1/2+x,1/2+y,z
3/4-x,3/4-y,z
1/2+x,3/4-y,1/4-z
3/4-x,1/2+y,1/4-z
1/2-x,1/2-y,-z
1/4+x,1/4+y,-z
1/2-x,1/4+y,3/4+z
1/4+x,1/2-y,3/4+z
loop_
_atom_site_type_symbol
_atom_site_label
_atom_site_fract_x
_atom_site_fract_y
_atom_site_fract_z
Si Si1 0.195964 0.070423 0.203705
Si Si2 0.484246 0.548211 0.610195
Si Si3 0.375000 0.206719 0.875000
Si Si4 0.653059 0.754189 0.293385
Si Si5 0.277051 0.737042 0.696143
Si Si6 0.923263 0.625000 0.625000
Si Si7 0.058576 0.085509 0.942866
O O1 0.057679 0.054385 0.195621
O O2 0.246084 0.098034 0.161263
O O3 0.220392 0.094783 0.252232
O O4 0.273801 0.028422 0.212316
O O5 0.625000 0.554927 0.625000
O O6 0.445350 0.525216 0.658435
O O7 0.419021 0.521870 0.567450
O O8 0.418233 0.591618 0.602679
O O9 0.280384 0.235319 0.846080
O O10 0.306709 0.178360 0.912670
O O11 0.741394 0.757410 0.247118
O O12 0.638452 0.705939 0.303185
O O13 0.125000 0.125000 0.921851
#
# Coordination Sequence:
#
# PCOD9515001 Si02
#       7
#    32  32  16  32  32  16  32
#     4  10  20  38  63  99 123 151 201 269 330 379
#     4  11  24  40  60  85 124 170 212 252 309 385
#     4  12  18  40  64  85 120 166 198 247 322 370
#     4  10  20  40  63  91 120 158 207 262 317 371
#     4  11  20  36  66  91 120 162 206 257 312 380
#     4  10  23  37  60  92 127 153 192 258 336 375
#     4  11  22  36  59  93 128 154 201 260 315 372
#
# _framework density 19.197365000000001
#
# number of rings (size 3 to 8) (size 9 to 14) (size 15 to 20)
#    0.000    1.333    5.000    2.250    4.667    1.333 
#    1.500    0.000    3.667    0.000    0.000    0.000 
#    0.000    0.000    0.000    0.000    0.000    0.000 
#
# Total GULP energy -267303.436269 kJ/mol
# GULP energy per Si atom -5568.821589 kJ/mol
# Density = 1.915367 g / cm^3
# Si number density = 19.197365 Si / 1000 Ang^3
#
#
#
# Elastic Constant Matrix: (Units=GPa)
#
#
# Indices 1 2 3 4 5 6 
#
# 1 87.0296 24.2059 32.2520 0.0000 0.0000 0.0000
# 2 24.2059 92.2075 24.5175 0.0000 0.0000 0.0000
# 3 32.2520 24.5175 87.6634 0.0000 0.0000 0.0000
# 4 0.0000 0.0000 0.0000 14.2999 0.0000 0.0000
# 5 0.0000 0.0000 0.0000 0.0000 27.3830 0.0000
# 6 0.0000 0.0000 0.0000 0.0000 0.0000 21.4943
#
#
#
# Elastic Compliance Matrix: (Units=1/GPa)
#
#
# Indices 1 2 3 4 5 6 
#
# 1 0.013800 -0.002455 -0.004391 0.000000 0.000000 0.000000
# 2 -0.002455 0.012153 -0.002496 0.000000 0.000000 0.000000
# 3 -0.004391 -0.002496 0.013721 0.000000 0.000000 0.000000
# 4 0.000000 0.000000 0.000000 0.069931 0.000000 0.000000
# 5 0.000000 0.000000 0.000000 0.000000 0.036519 0.000000
# 6 0.000000 0.000000 0.000000 0.000000 0.000000 0.046524
#
#
# Mechanical properties :
#
#
# Convention : Reuss Voigt Hill
#
# Bulk Modulus (GPa) = 47.63937 47.65015 47.64476
# Shear Modulus (GPa) = 22.90131 25.03043 23.96587
#
# Velocity S-wave (km/s) = 3.45764 3.61480 3.53709
# Velocity P-wave (km/s) = 6.38826 6.50365 6.44621
#
# Compressibility (1/GPa) = 0.02099104
#
# Stress axis : x y z
#
# Youngs Moduli (GPa) = 72.46204 82.28243 72.88338
#
# Poissons Ratio (x) = 0.20203 0.32000
# Poissons Ratio (y) = 0.17792 0.18189
# Poissons Ratio (z) = 0.31815 0.20535
#
# Static dielectric constant tensor:
#      x y z
#    x 1.817900 0.000000 0.000000 
#    y 0.000000 1.693050 0.000000 
#    z 0.000000 0.000000 1.723100 
# 
# From -- ./inp_files/57837.got.cif
#   From: 2010.05.17/outbox.cif.g08.bks.cpg/sg70_29_cif.got.tgz:57837.got - 2010.06.03 15:57:51.
