data_PCOD9515608
_publ_section_title
;
Structure prediction by ZEFSAII (Michael W. Deem and Ramdas Pophale) SiO2 
 PCOD9515608
Probable space group: F D D D
;
_chemical_formula_sum "Si O2"
_cell_formula_units_Z 240
_cell_length_a 16.927494
_cell_length_b 28.791595
_cell_length_c 23.603336
_cell_angle_alpha 90.000000
_cell_angle_beta 90.000000
_cell_angle_gamma 90.000000
_cell_volume 11503.547283
_symmetry_space_group_name_H-M "F D D D"
_symmetry_group_IT_number 70
_space_group.IT_coordinate_system_code '2'
_symmetry_cell_setting 'orthorhombic'
loop_
_space_group_symop_operation_xyz
x,y,z
1/4-x,1/4-y,z
x,1/4-y,1/4-z
1/4-x,y,1/4-z
-x,-y,-z
3/4+x,3/4+y,-z
-x,3/4+y,3/4+z
3/4+x,-y,3/4+z
x,1/2+y,1/2+z
1/4-x,3/4-y,1/2+z
x,3/4-y,3/4-z
1/4-x,1/2+y,3/4-z
-x,1/2-y,1/2-z
3/4+x,1/4+y,1/2-z
-x,1/4+y,1/4+z
3/4+x,1/2-y,1/4+z
1/2+x,y,1/2+z
3/4-x,1/4-y,1/2+z
1/2+x,1/4-y,3/4-z
3/4-x,y,3/4-z
1/2-x,-y,1/2-z
1/4+x,3/4+y,1/2-z
1/2-x,3/4+y,1/4+z
1/4+x,-y,1/4+z
1/2+x,1/2+y,z
3/4-x,3/4-y,z
1/2+x,3/4-y,1/4-z
3/4-x,1/2+y,1/4-z
1/2-x,1/2-y,-z
1/4+x,1/4+y,-z
1/2-x,1/4+y,3/4+z
1/4+x,1/2-y,3/4+z
loop_
_atom_site_type_symbol
_atom_site_label
_atom_site_fract_x
_atom_site_fract_y
_atom_site_fract_z
Si Si1 0.970893 0.325123 0.886822
Si Si2 0.826657 0.286900 0.756835
Si Si3 0.704973 0.937119 0.686034
Si Si4 0.003114 0.656326 0.391367
Si Si5 0.963232 0.741483 0.311802
Si Si6 0.876114 0.320972 0.507586
Si Si7 0.125000 0.125000 0.444327
Si Si8 0.559474 0.989710 0.683777
O O1 0.005308 0.375000 0.875000
O O2 0.875000 0.327722 0.875000
O O3 0.982059 0.313611 0.951797
O O4 0.999083 0.283412 0.848413
O O5 0.871981 0.251422 0.797318
O O6 0.879914 0.328324 0.731193
O O7 0.777911 0.262238 0.709182
O O8 0.698666 0.882173 0.671185
O O9 0.787811 0.942232 0.719763
O O10 0.621896 0.953525 0.712198
O O11 0.703722 0.971485 0.630691
O O12 0.971236 0.695727 0.349319
O O13 0.062170 0.678912 0.438547
O O14 0.052124 0.623155 0.348272
O O15 0.000000 0.750000 0.250000
O O16 0.875000 0.375000 0.490318
O O17 0.904777 0.288618 0.455874
#
# Coordination Sequence:
#
# PCOD9515608 Si02
#       8
#    32  32  32  32  32  32  16  32
#     4   9  19  35  53  77 114 158 201 239 301 376
#     4  11  21  37  56  88 122 167 208 256 318 389
#     4  10  22  41  64  92 127 165 212 269 318 396
#     4  11  20  39  63  95 122 160 211 267 324 384
#     4  11  22  34  58  92 122 164 207 263 315 380
#     4  10  21  42  70  94 123 164 218 272 330 391
#     4  12  18  36  65  84 126 165 208 254 322 394
#     4  11  22  40  63  93 122 170 212 262 327 382
#
# _framework density 20.863130000000002
#
# number of rings (size 3 to 8) (size 9 to 14) (size 15 to 20)
#    0.000    1.467    4.667    2.800    0.000    0.000 
#   16.800    1.333    0.000    0.000    0.000    0.000 
#    0.000    0.000    0.000    0.000    0.000    0.000 
#
# Total GULP energy -334044.070041 kJ/mol
# GULP energy per Si atom -5567.401167 kJ/mol
# Density = 2.081564 g / cm^3
# Si number density = 20.863130 Si / 1000 Ang^3
#
#
#
# Elastic Constant Matrix: (Units=GPa)
#
#
# Indices 1 2 3 4 5 6 
#
# 1 46.2195 24.6516 1.7719 0.0000 0.0000 0.0000
# 2 24.6516 115.8820 19.2495 0.0000 0.0000 0.0000
# 3 1.7719 19.2495 43.8650 0.0000 0.0000 0.0000
# 4 0.0000 0.0000 0.0000 35.8478 0.0000 0.0000
# 5 0.0000 0.0000 0.0000 0.0000 33.0775 0.0000
# 6 0.0000 0.0000 0.0000 0.0000 0.0000 -26.4195
#
#
#
# Elastic Compliance Matrix: (Units=1/GPa)
#
#
# Indices 1 2 3 4 5 6 
#
# 1 0.024484 -0.005441 0.001399 0.000000 0.000000 0.000000
# 2 -0.005441 0.010517 -0.004395 0.000000 0.000000 0.000000
# 3 0.001399 -0.004395 0.024670 0.000000 0.000000 0.000000
# 4 0.000000 0.000000 0.000000 0.027896 0.000000 0.000000
# 5 0.000000 0.000000 0.000000 0.000000 0.030232 0.000000
# 6 0.000000 0.000000 0.000000 0.000000 0.000000 -0.037851
#
#
# Mechanical properties :
#
#
# Convention : Reuss Voigt Hill
#
# Bulk Modulus (GPa) = 23.36699 33.03472 28.20086
# Shear Modulus (GPa) = 45.00921 19.18739 32.09830
#
# Velocity S-wave (km/s) = 4.64977 3.03591 3.92665
# Velocity P-wave (km/s) = 6.32864 5.30636 5.83991
#
# Compressibility (1/GPa) = 0.04279541
#
# Stress axis : x y z
#
# Youngs Moduli (GPa) = 40.84265 95.08373 40.53571
#
# Poissons Ratio (x) = 0.51734 -0.05669
# Poissons Ratio (y) = 0.22222 0.17817
# Poissons Ratio (z) = -0.05712 0.41794
#
# Static dielectric constant tensor:
#      x y z
#    x 1.796090 0.000000 0.000000 
#    y 0.000000 1.815980 0.000000 
#    z 0.000000 0.000000 1.779770 
# 
# From -- ./inp_files/59821.got.cif
#   From: 2010.05.17/outbox.cif.g08.bks.cpg/sg70_30_cif.got.tgz:59821.got - 2010.06.03 15:57:51.
