data_PCOD9515615
_publ_section_title
;
Structure prediction by ZEFSAII (Michael W. Deem and Ramdas Pophale) SiO2 
 PCOD9515615
Probable space group: F D D D
;
_chemical_formula_sum "Si O2"
_cell_formula_units_Z 160
_cell_length_a 23.774887
_cell_length_b 21.888075
_cell_length_c 14.516628
_cell_angle_alpha 90.000000
_cell_angle_beta 90.000000
_cell_angle_gamma 90.000000
_cell_volume 7554.257379
_symmetry_space_group_name_H-M "F D D D"
_symmetry_group_IT_number 70
_space_group.IT_coordinate_system_code '2'
_symmetry_cell_setting 'orthorhombic'
loop_
_space_group_symop_operation_xyz
x,y,z
1/4-x,1/4-y,z
x,1/4-y,1/4-z
1/4-x,y,1/4-z
-x,-y,-z
3/4+x,3/4+y,-z
-x,3/4+y,3/4+z
3/4+x,-y,3/4+z
x,1/2+y,1/2+z
1/4-x,3/4-y,1/2+z
x,3/4-y,3/4-z
1/4-x,1/2+y,3/4-z
-x,1/2-y,1/2-z
3/4+x,1/4+y,1/2-z
-x,1/4+y,1/4+z
3/4+x,1/2-y,1/4+z
1/2+x,y,1/2+z
3/4-x,1/4-y,1/2+z
1/2+x,1/4-y,3/4-z
3/4-x,y,3/4-z
1/2-x,-y,1/2-z
1/4+x,3/4+y,1/2-z
1/2-x,3/4+y,1/4+z
1/4+x,-y,1/4+z
1/2+x,1/2+y,z
3/4-x,3/4-y,z
1/2+x,3/4-y,1/4-z
3/4-x,1/2+y,1/4-z
1/2-x,1/2-y,-z
1/4+x,1/4+y,-z
1/2-x,1/4+y,3/4+z
1/4+x,1/2-y,3/4+z
loop_
_atom_site_type_symbol
_atom_site_label
_atom_site_fract_x
_atom_site_fract_y
_atom_site_fract_z
Si Si1 0.238275 0.277575 0.599402
Si Si2 0.112740 0.560711 0.844301
Si Si3 0.788727 0.279383 0.718115
Si Si4 0.939582 0.653163 0.865730
Si Si5 0.080295 0.935666 0.917754
O O1 0.250000 0.250000 0.500000
O O2 0.297507 0.305031 0.634039
O O3 0.217101 0.228812 0.673788
O O4 0.194662 0.333078 0.602746
O O5 0.125000 0.625000 0.793749
O O6 0.154508 0.562626 0.933495
O O7 0.131555 0.494402 0.804934
O O8 0.734122 0.311490 0.677383
O O9 0.793503 0.214087 0.665250
O O10 0.875000 0.671852 0.875000
O O11 0.953227 0.665292 0.758261
O O12 0.109408 0.875000 0.875000
#
# Coordination Sequence:
#
# PCOD9515615 Si02
#       5
#    32  32  32  32  32
#     4  12  26  42  65  99 140 189 239 288 351 435
#     4  10  22  45  68  99 138 179 231 296 359 427
#     4  10  24  44  69  96 137 180 232 295 360 417
#     4  12  24  43  69 103 135 182 240 297 361 428
#     4  10  21  42  74  93 137 183 231 293 357 424
#
# _framework density 21.180109999999999
#
# number of rings (size 3 to 8) (size 9 to 14) (size 15 to 20)
#    1.200    0.000    4.000    1.800    5.600    0.800 
#    0.000    1.000    0.000    0.000    0.000    0.000 
#    0.000    0.000    0.000    0.000    0.000    0.000 
#
# Total GULP energy -222863.559644 kJ/mol
# GULP energy per Si atom -5571.588991 kJ/mol
# Density = 2.113190 g / cm^3
# Si number density = 21.180110 Si / 1000 Ang^3
#
#
#
# Elastic Constant Matrix: (Units=GPa)
#
#
# Indices 1 2 3 4 5 6 
#
# 1 70.6454 1.5605 -13.4672 0.0000 0.0000 0.0000
# 2 1.5605 119.7238 21.1248 0.0000 0.0000 0.0000
# 3 -13.4672 21.1248 98.4443 0.0000 0.0000 0.0000
# 4 0.0000 0.0000 0.0000 12.1482 0.0000 0.0000
# 5 0.0000 0.0000 0.0000 0.0000 10.6185 0.0000
# 6 0.0000 0.0000 0.0000 0.0000 0.0000 29.4222
#
#
#
# Elastic Compliance Matrix: (Units=1/GPa)
#
#
# Indices 1 2 3 4 5 6 
#
# 1 0.014571 -0.000563 0.002114 0.000000 0.000000 0.000000
# 2 -0.000563 0.008703 -0.001945 0.000000 0.000000 0.000000
# 3 0.002114 -0.001945 0.010865 0.000000 0.000000 0.000000
# 4 0.000000 0.000000 0.000000 0.082317 0.000000 0.000000
# 5 0.000000 0.000000 0.000000 0.000000 0.094176 0.000000
# 6 0.000000 0.000000 0.000000 0.000000 0.000000 0.033988
#
#
# Mechanical properties :
#
#
# Convention : Reuss Voigt Hill
#
# Bulk Modulus (GPa) = 29.98385 34.13887 32.06136
# Shear Modulus (GPa) = 19.49150 29.07748 24.28449
#
# Velocity S-wave (km/s) = 3.03689 3.70924 3.38978
# Velocity P-wave (km/s) = 5.14629 5.87350 5.52188
#
# Compressibility (1/GPa) = 0.03335129
#
# Stress axis : x y z
#
# Youngs Moduli (GPa) = 68.63116 114.90287 92.04281
#
# Poissons Ratio (x) = 0.06468 -0.19458
# Poissons Ratio (y) = 0.03864 0.17898
# Poissons Ratio (z) = -0.14509 0.22344
#
# Static dielectric constant tensor:
#      x y z
#    x 1.747500 0.000000 0.000000 
#    y 0.000000 1.855590 0.000000 
#    z 0.000000 0.000000 1.771800 
# 
# From -- ./inp_files/28663.got.cif
#   From: 2010.05.17/outbox.cif.g08.bks.cpg/sg70_15_cif.got.tgz:28663.got - 2010.06.03 15:57:51.
