data_PCOD9515496
_publ_section_title
;
Structure prediction by ZEFSAII (Michael W. Deem and Ramdas Pophale) SiO2 
 PCOD9515496
Probable space group: F D D D
;
_chemical_formula_sum "Si O2"
_cell_formula_units_Z 216
_cell_length_a 11.305112
_cell_length_b 34.652351
_cell_length_c 22.101158
_cell_angle_alpha 90.000000
_cell_angle_beta 90.000000
_cell_angle_gamma 90.000000
_cell_volume 8658.100117
_symmetry_space_group_name_H-M "F D D D"
_symmetry_group_IT_number 70
_space_group.IT_coordinate_system_code '2'
_symmetry_cell_setting 'orthorhombic'
loop_
_space_group_symop_operation_xyz
x,y,z
1/4-x,1/4-y,z
x,1/4-y,1/4-z
1/4-x,y,1/4-z
-x,-y,-z
3/4+x,3/4+y,-z
-x,3/4+y,3/4+z
3/4+x,-y,3/4+z
x,1/2+y,1/2+z
1/4-x,3/4-y,1/2+z
x,3/4-y,3/4-z
1/4-x,1/2+y,3/4-z
-x,1/2-y,1/2-z
3/4+x,1/4+y,1/2-z
-x,1/4+y,1/4+z
3/4+x,1/2-y,1/4+z
1/2+x,y,1/2+z
3/4-x,1/4-y,1/2+z
1/2+x,1/4-y,3/4-z
3/4-x,y,3/4-z
1/2-x,-y,1/2-z
1/4+x,3/4+y,1/2-z
1/2-x,3/4+y,1/4+z
1/4+x,-y,1/4+z
1/2+x,1/2+y,z
3/4-x,3/4-y,z
1/2+x,3/4-y,1/4-z
3/4-x,1/2+y,1/4-z
1/2-x,1/2-y,-z
1/4+x,1/4+y,-z
1/2-x,1/4+y,3/4+z
1/4+x,1/2-y,3/4+z
loop_
_atom_site_type_symbol
_atom_site_label
_atom_site_fract_x
_atom_site_fract_y
_atom_site_fract_z
Si Si1 0.875000 0.875000 0.663611
Si Si2 0.851338 0.680987 0.995922
Si Si3 0.822306 0.324422 0.262780
Si Si4 0.236565 0.863917 0.941108
Si Si5 0.959998 0.446409 0.657659
Si Si6 0.693221 0.002003 0.437291
Si Si7 0.625000 0.125000 0.625000
Si Si8 0.426731 0.465650 0.472073
O O1 0.784162 0.850637 0.705720
O O2 0.944660 0.844992 0.622773
O O3 0.905958 0.699158 0.934458
O O4 0.712741 0.675036 0.000125
O O5 0.870849 0.714415 0.044914
O O6 0.918552 0.641646 0.012948
O O7 0.787793 0.281080 0.245039
O O8 0.807606 0.345861 0.327401
O O9 0.191740 0.875000 0.875000
O O10 0.375000 0.875000 0.943435
O O11 0.237247 0.817760 0.947510
O O12 0.884589 0.475739 0.613877
O O13 0.889958 0.446825 0.721020
O O14 0.823862 0.983617 0.429872
O O15 0.500000 0.500000 0.500000
#
# Coordination Sequence:
#
# PCOD9515496 Si02
#       8
#    16  32  32  32  32  32   8  32
#     4   9  20  41  62  90 127 176 225 282 346 414
#     4  11  23  42  69 101 134 186 246 287 377 447
#     4  10  23  42  68 101 141 183 240 295 365 450
#     4  11  23  41  66  95 139 178 235 305 362 438
#     4  10  21  40  65  89 137 172 226 297 349 421
#     4  10  23  42  63  98 140 180 238 298 359 443
#     4  10  24  44  68 100 154 192 234 320 370 420
#     4  11  25  42  67 100 137 184 242 294 375 447
#
# _framework density 24.947735999999999
#
# number of rings (size 3 to 8) (size 9 to 14) (size 15 to 20)
#    0.000    1.630    2.963    1.333    3.111    8.889 
#    0.000    2.963    0.000    0.000    0.000    0.000 
#    0.000    0.000    0.000    0.000    0.000    0.000 
#
# Total GULP energy -301389.448585 kJ/mol
# GULP energy per Si atom -5581.286085 kJ/mol
# Density = 2.489095 g / cm^3
# Si number density = 24.947736 Si / 1000 Ang^3
#
#
#
# Elastic Constant Matrix: (Units=GPa)
#
#
# Indices 1 2 3 4 5 6 
#
# 1 76.6758 51.7725 63.9598 0.0000 0.0000 0.0000
# 2 51.7725 173.3548 49.6567 0.0000 0.0000 0.0000
# 3 63.9598 49.6567 127.1322 0.0000 0.0000 0.0000
# 4 0.0000 0.0000 0.0000 38.6442 0.0000 0.0000
# 5 0.0000 0.0000 0.0000 0.0000 28.7002 0.0000
# 6 0.0000 0.0000 0.0000 0.0000 0.0000 42.6915
#
#
#
# Elastic Compliance Matrix: (Units=1/GPa)
#
#
# Indices 1 2 3 4 5 6 
#
# 1 0.025103 -0.004368 -0.010923 0.000000 0.000000 0.000000
# 2 -0.004368 0.007255 -0.000636 0.000000 0.000000 0.000000
# 3 -0.010923 -0.000636 0.013610 0.000000 0.000000 0.000000
# 4 0.000000 0.000000 0.000000 0.025877 0.000000 0.000000
# 5 0.000000 0.000000 0.000000 0.000000 0.034843 0.000000
# 6 0.000000 0.000000 0.000000 0.000000 0.000000 0.023424
#
#
# Mechanical properties :
#
#
# Convention : Reuss Voigt Hill
#
# Bulk Modulus (GPa) = 70.85648 78.66008 74.75828
# Shear Modulus (GPa) = 29.99920 36.12542 33.06231
#
# Velocity S-wave (km/s) = 3.47144 3.80945 3.64437
# Velocity P-wave (km/s) = 6.67319 7.13776 6.90938
#
# Compressibility (1/GPa) = 0.01411304
#
# Stress axis : x y z
#
# Youngs Moduli (GPa) = 39.83602 137.82993 73.47703
#
# Poissons Ratio (x) = 0.60206 0.80259
# Poissons Ratio (y) = 0.17401 0.04675
# Poissons Ratio (z) = 0.43513 0.08770
#
# Static dielectric constant tensor:
#      x y z
#    x 2.144380 0.000000 0.000000 
#    y 0.000000 1.991050 0.000000 
#    z 0.000000 0.000000 2.546190 
# 
# From -- ./inp_files/51628.got.cif
#   From: 2010.05.17/outbox.cif.g08.bks.cpg/sg70_26_cif.got.tgz:51628.got - 2010.06.03 15:57:51.
