data_PCOD9515968
_publ_section_title
;
Structure prediction by ZEFSAII (Michael W. Deem and Ramdas Pophale) SiO2 
 PCOD9515968
Probable space group: F D D D
;
_chemical_formula_sum "Si O2"
_cell_formula_units_Z 160
_cell_length_a 11.793237
_cell_length_b 29.365101
_cell_length_c 22.415651
_cell_angle_alpha 90.000000
_cell_angle_beta 90.000000
_cell_angle_gamma 90.000000
_cell_volume 7762.755033
_symmetry_space_group_name_H-M "F D D D"
_symmetry_group_IT_number 70
_space_group.IT_coordinate_system_code '2'
_symmetry_cell_setting 'orthorhombic'
loop_
_space_group_symop_operation_xyz
x,y,z
1/4-x,1/4-y,z
x,1/4-y,1/4-z
1/4-x,y,1/4-z
-x,-y,-z
3/4+x,3/4+y,-z
-x,3/4+y,3/4+z
3/4+x,-y,3/4+z
x,1/2+y,1/2+z
1/4-x,3/4-y,1/2+z
x,3/4-y,3/4-z
1/4-x,1/2+y,3/4-z
-x,1/2-y,1/2-z
3/4+x,1/4+y,1/2-z
-x,1/4+y,1/4+z
3/4+x,1/2-y,1/4+z
1/2+x,y,1/2+z
3/4-x,1/4-y,1/2+z
1/2+x,1/4-y,3/4-z
3/4-x,y,3/4-z
1/2-x,-y,1/2-z
1/4+x,3/4+y,1/2-z
1/2-x,3/4+y,1/4+z
1/4+x,-y,1/4+z
1/2+x,1/2+y,z
3/4-x,3/4-y,z
1/2+x,3/4-y,1/4-z
3/4-x,1/2+y,1/4-z
1/2-x,1/2-y,-z
1/4+x,1/4+y,-z
1/2-x,1/4+y,3/4+z
1/4+x,1/2-y,3/4+z
loop_
_atom_site_type_symbol
_atom_site_label
_atom_site_fract_x
_atom_site_fract_y
_atom_site_fract_z
Si Si1 0.375000 0.284341 0.375000
Si Si2 0.375766 0.120950 0.314388
Si Si3 0.125000 0.125000 0.261742
Si Si4 0.525213 0.554681 0.745111
Si Si5 0.361827 0.971746 0.232057
Si Si6 0.704306 0.204040 0.900120
O O1 0.328658 0.312271 0.319483
O O2 0.472865 0.250354 0.350626
O O3 0.375000 0.091184 0.375000
O O4 0.246214 0.129611 0.296023
O O5 0.436743 0.093628 0.262413
O O6 0.454924 0.163645 0.334297
O O7 0.114295 0.174409 0.231555
O O8 0.464442 0.505758 0.743886
O O9 0.617195 0.551661 0.796625
O O10 0.382590 0.956303 0.162426
O O11 0.250000 0.000000 0.250000
#
# Coordination Sequence:
#
# PCOD9515968 Si02
#       6
#    16  32  16  32  32  32
#     4  10  22  44  61  98 142 186 236 293 376 442
#     4  12  22  38  67 107 139 182 245 316 354 439
#     4  12  22  40  64  97 150 185 244 300 376 432
#     4  11  24  39  70 103 140 192 238 298 381 436
#     4  11  23  42  67 107 148 186 235 310 372 449
#     4  11  22  41  69 100 139 182 247 301 365 437
#
# _framework density 20.611239000000001
#
# number of rings (size 3 to 8) (size 9 to 14) (size 15 to 20)
#    0.000    0.800    5.000    3.600    0.000    0.000 
#    0.000    2.000    0.000    2.400    0.000    0.000 
#    0.000    0.000    0.000    0.000    0.000    0.000 
#
# Total GULP energy -222924.670755 kJ/mol
# GULP energy per Si atom -5573.116769 kJ/mol
# Density = 2.056433 g / cm^3
# Si number density = 20.611239 Si / 1000 Ang^3
#
#
#
# Elastic Constant Matrix: (Units=GPa)
#
#
# Indices 1 2 3 4 5 6 
#
# 1 157.5466 51.7383 67.8793 0.0000 0.0000 0.0000
# 2 51.7383 104.6926 48.7035 0.0000 0.0000 0.0000
# 3 67.8793 48.7035 93.7242 0.0000 0.0000 0.0000
# 4 0.0000 0.0000 0.0000 49.8804 0.0000 0.0000
# 5 0.0000 0.0000 0.0000 0.0000 39.7623 0.0000
# 6 0.0000 0.0000 0.0000 0.0000 0.0000 7.5517
#
#
#
# Elastic Compliance Matrix: (Units=1/GPa)
#
#
# Indices 1 2 3 4 5 6 
#
# 1 0.009527 -0.001976 -0.005873 0.000000 0.000000 0.000000
# 2 -0.001976 0.013007 -0.005328 0.000000 0.000000 0.000000
# 3 -0.005873 -0.005328 0.017692 0.000000 0.000000 0.000000
# 4 0.000000 0.000000 0.000000 0.020048 0.000000 0.000000
# 5 0.000000 0.000000 0.000000 0.000000 0.025149 0.000000
# 6 0.000000 0.000000 0.000000 0.000000 0.000000 0.132421
#
#
# Mechanical properties :
#
#
# Convention : Reuss Voigt Hill
#
# Bulk Modulus (GPa) = 72.08905 76.95619 74.52262
# Shear Modulus (GPa) = 20.09483 31.94835 26.02159
#
# Velocity S-wave (km/s) = 3.12580 3.94133 3.55702
# Velocity P-wave (km/s) = 6.93390 7.62432 7.28729
#
# Compressibility (1/GPa) = 0.01387173
#
# Stress axis : x y z
#
# Youngs Moduli (GPa) = 104.97035 76.88271 56.52409
#
# Poissons Ratio (x) = 0.15191 0.33195
# Poissons Ratio (y) = 0.20741 0.30116
# Poissons Ratio (z) = 0.61647 0.40963
#
# Static dielectric constant tensor:
#      x y z
#    x 1.759690 0.000000 0.000000 
#    y 0.000000 1.799300 0.000000 
#    z 0.000000 0.000000 1.766210 
# 
# From -- ./inp_files/57567.got.cif
#   From: 2010.05.17/outbox.cif.g08.bks.cpg/sg70_29_cif.got.tgz:57567.got - 2010.06.03 15:57:51.
