data_PCOD9515524
_publ_section_title
;
Structure prediction by ZEFSAII (Michael W. Deem and Ramdas Pophale) SiO2 
 PCOD9515524
Probable space group: F D D D
;
_chemical_formula_sum "Si O2"
_cell_formula_units_Z 176
_cell_length_a 21.579385
_cell_length_b 13.951710
_cell_length_c 21.990158
_cell_angle_alpha 90.000000
_cell_angle_beta 90.000000
_cell_angle_gamma 90.000000
_cell_volume 6620.561949
_symmetry_space_group_name_H-M "F D D D"
_symmetry_group_IT_number 70
_space_group.IT_coordinate_system_code '2'
_symmetry_cell_setting 'orthorhombic'
loop_
_space_group_symop_operation_xyz
x,y,z
1/4-x,1/4-y,z
x,1/4-y,1/4-z
1/4-x,y,1/4-z
-x,-y,-z
3/4+x,3/4+y,-z
-x,3/4+y,3/4+z
3/4+x,-y,3/4+z
x,1/2+y,1/2+z
1/4-x,3/4-y,1/2+z
x,3/4-y,3/4-z
1/4-x,1/2+y,3/4-z
-x,1/2-y,1/2-z
3/4+x,1/4+y,1/2-z
-x,1/4+y,1/4+z
3/4+x,1/2-y,1/4+z
1/2+x,y,1/2+z
3/4-x,1/4-y,1/2+z
1/2+x,1/4-y,3/4-z
3/4-x,y,3/4-z
1/2-x,-y,1/2-z
1/4+x,3/4+y,1/2-z
1/2-x,3/4+y,1/4+z
1/4+x,-y,1/4+z
1/2+x,1/2+y,z
3/4-x,3/4-y,z
1/2+x,3/4-y,1/4-z
3/4-x,1/2+y,1/4-z
1/2-x,1/2-y,-z
1/4+x,1/4+y,-z
1/2-x,1/4+y,3/4+z
1/4+x,1/2-y,3/4+z
loop_
_atom_site_type_symbol
_atom_site_label
_atom_site_fract_x
_atom_site_fract_y
_atom_site_fract_z
Si Si1 0.729446 0.345622 0.669815
Si Si2 0.375000 0.375000 0.721996
Si Si3 0.082461 0.420128 0.787434
Si Si4 0.044787 0.185840 0.681920
Si Si5 0.310944 0.293576 0.913777
Si Si6 0.890812 0.974229 0.205299
O O1 0.669992 0.326804 0.713643
O O2 0.733591 0.459996 0.667308
O O3 0.722429 0.305247 0.601813
O O4 0.785466 0.288851 0.702191
O O5 0.401357 0.472641 0.691873
O O6 0.323516 0.419776 0.768848
O O7 0.125529 0.333584 0.810313
O O8 0.014455 0.378201 0.800420
O O9 0.067338 0.125000 0.625000
O O10 0.153286 0.041864 0.733797
O O11 0.275511 0.375000 0.875000
O O12 0.375000 0.286130 0.875000
O O13 0.875000 0.875000 0.169861
#
# Coordination Sequence:
#
# PCOD9515524 Si02
#       6
#    32  16  32  32  32  32
#     4  11  20  42  69  99 139 178 235 292 359 412
#     4  10  21  40  72 106 146 178 234 292 364 435
#     4  11  21  42  69  95 140 187 229 297 363 425
#     4  11  25  43  66 101 137 182 244 298 352 428
#     4   9  17  35  65 100 132 180 224 282 338 427
#     4  11  21  40  71  95 129 190 231 287 362 423
#
# _framework density 26.583848
#
# number of rings (size 3 to 8) (size 9 to 14) (size 15 to 20)
#    0.000    1.636    7.273    1.091    0.000    1.818 
#    0.000    5.455    4.000    0.000    0.000    0.000 
#    0.000    0.000    0.000    0.000    0.000    0.000 
#
# Total GULP energy -245094.287646 kJ/mol
# GULP energy per Si atom -5570.324719 kJ/mol
# Density = 2.652334 g / cm^3
# Si number density = 26.583848 Si / 1000 Ang^3
#
#
#
# Elastic Constant Matrix: (Units=GPa)
#
#
# Indices 1 2 3 4 5 6 
#
# 1 94.8833 93.7714 38.2344 0.0000 0.0000 0.0000
# 2 93.7714 281.5237 86.7978 0.0000 0.0000 0.0000
# 3 38.2344 86.7978 91.8004 0.0000 0.0000 0.0000
# 4 0.0000 0.0000 0.0000 40.0815 0.0000 0.0000
# 5 0.0000 0.0000 0.0000 0.0000 7.6773 0.0000
# 6 0.0000 0.0000 0.0000 0.0000 0.0000 38.2839
#
#
#
# Elastic Compliance Matrix: (Units=1/GPa)
#
#
# Indices 1 2 3 4 5 6 
#
# 1 0.016048 -0.004636 -0.002300 0.000000 0.000000 0.000000
# 2 -0.004636 0.006353 -0.004076 0.000000 0.000000 0.000000
# 3 -0.002300 -0.004076 0.015705 0.000000 0.000000 0.000000
# 4 0.000000 0.000000 0.000000 0.024949 0.000000 0.000000
# 5 0.000000 0.000000 0.000000 0.000000 0.130254 0.000000
# 6 0.000000 0.000000 0.000000 0.000000 0.000000 0.026121
#
#
# Mechanical properties :
#
#
# Convention : Reuss Voigt Hill
#
# Bulk Modulus (GPa) = 62.18428 100.64608 81.41518
# Shear Modulus (GPa) = 20.25810 33.83545 27.04677
#
# Velocity S-wave (km/s) = 2.76351 3.57148 3.19315
# Velocity P-wave (km/s) = 5.79872 7.41278 6.65487
#
# Compressibility (1/GPa) = 0.01608123
#
# Stress axis : x y z
#
# Youngs Moduli (GPa) = 62.31290 157.40705 63.67364
#
# Poissons Ratio (x) = 0.72975 0.14648
# Poissons Ratio (y) = 0.28889 0.25952
# Poissons Ratio (z) = 0.14335 0.64157
#
# Static dielectric constant tensor:
#      x y z
#    x 2.308460 0.000000 0.000000 
#    y 0.000000 2.155710 0.000000 
#    z 0.000000 0.000000 2.200770 
# 
# From -- ./inp_files/61683.got.cif
#   From: 2010.05.17/outbox.cif.g08.bks.cpg/sg70_31_cif.got.tgz:61683.got - 2010.06.03 15:57:51.
