data_PCOD9515361
_publ_section_title
;
Structure prediction by ZEFSAII (Michael W. Deem and Ramdas Pophale) SiO2 
 PCOD9515361
Probable space group: F D D D
;
_chemical_formula_sum "Si O2"
_cell_formula_units_Z 208
_cell_length_a 25.719122
_cell_length_b 18.636423
_cell_length_c 25.914620
_cell_angle_alpha 90.000000
_cell_angle_beta 90.000000
_cell_angle_gamma 90.000000
_cell_volume 12421.199660
_symmetry_space_group_name_H-M "F D D D"
_symmetry_group_IT_number 70
_space_group.IT_coordinate_system_code '2'
_symmetry_cell_setting 'orthorhombic'
loop_
_space_group_symop_operation_xyz
x,y,z
1/4-x,1/4-y,z
x,1/4-y,1/4-z
1/4-x,y,1/4-z
-x,-y,-z
3/4+x,3/4+y,-z
-x,3/4+y,3/4+z
3/4+x,-y,3/4+z
x,1/2+y,1/2+z
1/4-x,3/4-y,1/2+z
x,3/4-y,3/4-z
1/4-x,1/2+y,3/4-z
-x,1/2-y,1/2-z
3/4+x,1/4+y,1/2-z
-x,1/4+y,1/4+z
3/4+x,1/2-y,1/4+z
1/2+x,y,1/2+z
3/4-x,1/4-y,1/2+z
1/2+x,1/4-y,3/4-z
3/4-x,y,3/4-z
1/2-x,-y,1/2-z
1/4+x,3/4+y,1/2-z
1/2-x,3/4+y,1/4+z
1/4+x,-y,1/4+z
1/2+x,1/2+y,z
3/4-x,3/4-y,z
1/2+x,3/4-y,1/4-z
3/4-x,1/2+y,1/4-z
1/2-x,1/2-y,-z
1/4+x,1/4+y,-z
1/2-x,1/4+y,3/4+z
1/4+x,1/2-y,3/4+z
loop_
_atom_site_type_symbol
_atom_site_label
_atom_site_fract_x
_atom_site_fract_y
_atom_site_fract_z
Si Si1 0.625000 0.625000 0.055798
Si Si2 0.069696 0.666471 0.391119
Si Si3 0.973409 0.808805 0.997361
Si Si4 0.608003 0.458330 0.882641
Si Si5 0.955914 0.692016 0.735715
Si Si6 0.577459 0.269209 0.657322
Si Si7 0.768260 0.957735 0.581103
O O1 0.666278 0.577387 0.024492
O O2 0.589752 0.565215 0.083880
O O3 0.125000 0.625000 0.402965
O O4 0.033651 0.676089 0.441666
O O5 0.090110 0.745272 0.377694
O O6 0.040541 0.621035 0.346479
O O7 0.013595 0.868525 0.976287
O O8 0.992965 0.733080 0.973317
O O9 0.617099 0.375000 0.875000
O O10 0.579827 0.466423 0.938468
O O11 0.566965 0.490644 0.842394
O O12 0.924094 0.690558 0.788495
O O13 0.000000 0.750000 0.750000
O O14 0.625000 0.299241 0.625000
O O15 0.525227 0.276176 0.624547
#
# Coordination Sequence:
#
# PCOD9515361 Si02
#       7
#    16  32  32  32  32  32  32
#     4  12  21  26  44  74 106 150 172 204 254 322
#     4  10  21  38  53  75 113 151 182 228 276 329
#     4  12  20  32  52  75 110 149 185 212 269 332
#     4  11  21  35  54  77 104 146 190 226 273 329
#     4  12  20  32  50  74 110 145 180 219 265 326
#     4  12  23  30  44  74 113 145 176 213 262 326
#     4  11  22  33  49  76 110 149 181 222 269 329
#
# _framework density 16.745564999999999
#
# number of rings (size 3 to 8) (size 9 to 14) (size 15 to 20)
#    0.000    0.615    8.462    2.077    0.000    0.000 
#    0.000    0.000    0.000    0.923    0.000    0.000 
#    0.000    0.000    0.000    0.000    0.000    0.000 
#
# Total GULP energy -289847.767750 kJ/mol
# GULP energy per Si atom -5573.995534 kJ/mol
# Density = 1.670745 g / cm^3
# Si number density = 16.745565 Si / 1000 Ang^3
#
#
#
# Elastic Constant Matrix: (Units=GPa)
#
#
# Indices 1 2 3 4 5 6 
#
# 1 62.8244 34.5213 14.9521 0.0000 0.0000 0.0000
# 2 34.5213 91.5394 17.6141 0.0000 0.0000 0.0000
# 3 14.9521 17.6141 50.3337 0.0000 0.0000 0.0000
# 4 0.0000 0.0000 0.0000 22.7065 0.0000 0.0000
# 5 0.0000 0.0000 0.0000 0.0000 20.8179 0.0000
# 6 0.0000 0.0000 0.0000 0.0000 0.0000 33.4990
#
#
#
# Elastic Compliance Matrix: (Units=1/GPa)
#
#
# Indices 1 2 3 4 5 6 
#
# 1 0.020689 -0.007098 -0.003662 0.000000 0.000000 0.000000
# 2 -0.007098 0.014148 -0.002843 0.000000 0.000000 0.000000
# 3 -0.003662 -0.002843 0.021950 0.000000 0.000000 0.000000
# 4 0.000000 0.000000 0.000000 0.044040 0.000000 0.000000
# 5 0.000000 0.000000 0.000000 0.000000 0.048036 0.000000
# 6 0.000000 0.000000 0.000000 0.000000 0.000000 0.029852
#
#
# Mechanical properties :
#
#
# Convention : Reuss Voigt Hill
#
# Bulk Modulus (GPa) = 33.80391 37.65249 35.72820
# Shear Modulus (GPa) = 23.17179 24.57867 23.87523
#
# Velocity S-wave (km/s) = 3.72392 3.83531 3.78003
# Velocity P-wave (km/s) = 6.22260 6.49205 6.35875
#
# Compressibility (1/GPa) = 0.02958238
#
# Stress axis : x y z
#
# Youngs Moduli (GPa) = 48.33492 70.68209 45.55809
#
# Poissons Ratio (x) = 0.50167 0.16684
# Poissons Ratio (y) = 0.34306 0.12950
# Poissons Ratio (z) = 0.17701 0.20092
#
# Static dielectric constant tensor:
#      x y z
#    x 1.604730 0.000000 0.000000 
#    y 0.000000 1.585070 0.000000 
#    z 0.000000 0.000000 1.644490 
# 
# From -- ./inp_files/38871.got.cif
#   From: 2010.05.17/outbox.cif.g08.bks.cpg/sg70_20_cif.got.tgz:38871.got - 2010.06.03 15:57:51.
