data_PCOD9515628
_publ_section_title
;
Structure prediction by ZEFSAII (Michael W. Deem and Ramdas Pophale) SiO2 
 PCOD9515628
Probable space group: F D D D
;
_chemical_formula_sum "Si O2"
_cell_formula_units_Z 216
_cell_length_a 12.763191
_cell_length_b 33.062422
_cell_length_c 23.873274
_cell_angle_alpha 90.000000
_cell_angle_beta 90.000000
_cell_angle_gamma 90.000000
_cell_volume 10074.092074
_symmetry_space_group_name_H-M "F D D D"
_symmetry_group_IT_number 70
_space_group.IT_coordinate_system_code '2'
_symmetry_cell_setting 'orthorhombic'
loop_
_space_group_symop_operation_xyz
x,y,z
1/4-x,1/4-y,z
x,1/4-y,1/4-z
1/4-x,y,1/4-z
-x,-y,-z
3/4+x,3/4+y,-z
-x,3/4+y,3/4+z
3/4+x,-y,3/4+z
x,1/2+y,1/2+z
1/4-x,3/4-y,1/2+z
x,3/4-y,3/4-z
1/4-x,1/2+y,3/4-z
-x,1/2-y,1/2-z
3/4+x,1/4+y,1/2-z
-x,1/4+y,1/4+z
3/4+x,1/2-y,1/4+z
1/2+x,y,1/2+z
3/4-x,1/4-y,1/2+z
1/2+x,1/4-y,3/4-z
3/4-x,y,3/4-z
1/2-x,-y,1/2-z
1/4+x,3/4+y,1/2-z
1/2-x,3/4+y,1/4+z
1/4+x,-y,1/4+z
1/2+x,1/2+y,z
3/4-x,3/4-y,z
1/2+x,3/4-y,1/4-z
3/4-x,1/2+y,1/4-z
1/2-x,1/2-y,-z
1/4+x,1/4+y,-z
1/2-x,1/4+y,3/4+z
1/4+x,1/2-y,3/4+z
loop_
_atom_site_type_symbol
_atom_site_label
_atom_site_fract_x
_atom_site_fract_y
_atom_site_fract_z
Si Si1 0.881642 0.232978 0.988480
Si Si2 0.215355 0.875000 0.875000
Si Si3 0.239505 0.951027 0.942975
Si Si4 0.106267 0.913464 0.034516
Si Si5 0.282291 0.265139 0.594070
Si Si6 0.697719 0.164486 0.367253
Si Si7 0.625000 0.125000 0.625000
Si Si8 0.958324 0.659449 0.542581
O O1 0.824709 0.217080 0.932612
O O2 0.921058 0.278421 0.979709
O O3 0.809519 0.235149 0.042984
O O4 0.967958 0.201570 0.009928
O O5 0.270401 0.908873 0.913306
O O6 0.141091 0.848618 0.916263
O O7 0.224062 0.986435 0.897604
O O8 0.140159 0.942269 0.982760
O O9 0.215103 0.906464 0.068663
O O10 0.018222 0.926511 0.078858
O O11 0.059303 0.873910 0.005098
O O12 0.369132 0.299041 0.603011
O O13 0.625000 0.125000 0.376133
O O14 0.554450 0.151579 0.583720
#
# Coordination Sequence:
#
# PCOD9515628 Si02
#       8
#    32  16  32  32  32  32   8  32
#     4  11  23  42  67  98 134 179 224 290 346 405
#     4   9  20  41  69  89 136 174 227 283 335 407
#     4  11  22  44  68 102 132 184 231 295 347 421
#     4  10  24  43  69  98 139 180 239 280 354 427
#     4  11  24  42  66  97 135 175 232 281 348 417
#     4  11  24  45  66 100 138 185 225 290 355 426
#     4  10  24  40  72 106 134 180 242 276 348 412
#     4  10  21  43  65  98 134 180 225 283 336 414
#
# _framework density 21.441137999999999
#
# number of rings (size 3 to 8) (size 9 to 14) (size 15 to 20)
#    0.000    1.481    2.963    1.333    3.111    0.593 
#    2.667    1.481    0.000    0.000    0.000    0.000 
#    0.000    0.000    0.000    0.000    0.000    0.000 
#
# Total GULP energy -301082.219420 kJ/mol
# GULP energy per Si atom -5575.596656 kJ/mol
# Density = 2.139234 g / cm^3
# Si number density = 21.441138 Si / 1000 Ang^3
#
#
#
# Elastic Constant Matrix: (Units=GPa)
#
#
# Indices 1 2 3 4 5 6 
#
# 1 82.4752 58.4762 40.9313 0.0000 0.0000 0.0000
# 2 58.4762 100.3379 49.3115 0.0000 0.0000 0.0000
# 3 40.9313 49.3115 129.5359 0.0000 0.0000 0.0000
# 4 0.0000 0.0000 0.0000 40.6304 0.0000 0.0000
# 5 0.0000 0.0000 0.0000 0.0000 18.7051 0.0000
# 6 0.0000 0.0000 0.0000 0.0000 0.0000 21.1900
#
#
#
# Elastic Compliance Matrix: (Units=1/GPa)
#
#
# Indices 1 2 3 4 5 6 
#
# 1 0.021284 -0.011193 -0.002464 0.000000 0.000000 0.000000
# 2 -0.011193 0.018146 -0.003371 0.000000 0.000000 0.000000
# 3 -0.002464 -0.003371 0.009782 0.000000 0.000000 0.000000
# 4 0.000000 0.000000 0.000000 0.024612 0.000000 0.000000
# 5 0.000000 0.000000 0.000000 0.000000 0.053461 0.000000
# 6 0.000000 0.000000 0.000000 0.000000 0.000000 0.047192
#
#
# Mechanical properties :
#
#
# Convention : Reuss Voigt Hill
#
# Bulk Modulus (GPa) = 65.98459 67.75410 66.86935
# Shear Modulus (GPa) = 23.40977 27.01378 25.21177
#
# Velocity S-wave (km/s) = 3.30785 3.55336 3.43280
# Velocity P-wave (km/s) = 6.74023 6.96447 6.85327
#
# Compressibility (1/GPa) = 0.01515505
#
# Stress axis : x y z
#
# Youngs Moduli (GPa) = 46.98393 55.10796 102.22966
#
# Poissons Ratio (x) = 0.61682 0.25194
# Poissons Ratio (y) = 0.52589 0.34462
# Poissons Ratio (z) = 0.11579 0.18577
#
# Static dielectric constant tensor:
#      x y z
#    x 1.847100 0.000000 0.000000 
#    y 0.000000 1.773260 0.000000 
#    z 0.000000 0.000000 1.828330 
# 
# From -- ./inp_files/51613.got.cif
#   From: 2010.05.17/outbox.cif.g08.bks.cpg/sg70_26_cif.got.tgz:51613.got - 2010.06.03 15:57:51.
