data_PCOD9515414
_publ_section_title
;
Structure prediction by ZEFSAII (Michael W. Deem and Ramdas Pophale) SiO2 
 PCOD9515414
Probable space group: F D D D
;
_chemical_formula_sum "Si O2"
_cell_formula_units_Z 176
_cell_length_a 11.544813
_cell_length_b 27.030387
_cell_length_c 23.858233
_cell_angle_alpha 90.000000
_cell_angle_beta 90.000000
_cell_angle_gamma 90.000000
_cell_volume 7445.218399
_symmetry_space_group_name_H-M "F D D D"
_symmetry_group_IT_number 70
_space_group.IT_coordinate_system_code '2'
_symmetry_cell_setting 'orthorhombic'
loop_
_space_group_symop_operation_xyz
x,y,z
1/4-x,1/4-y,z
x,1/4-y,1/4-z
1/4-x,y,1/4-z
-x,-y,-z
3/4+x,3/4+y,-z
-x,3/4+y,3/4+z
3/4+x,-y,3/4+z
x,1/2+y,1/2+z
1/4-x,3/4-y,1/2+z
x,3/4-y,3/4-z
1/4-x,1/2+y,3/4-z
-x,1/2-y,1/2-z
3/4+x,1/4+y,1/2-z
-x,1/4+y,1/4+z
3/4+x,1/2-y,1/4+z
1/2+x,y,1/2+z
3/4-x,1/4-y,1/2+z
1/2+x,1/4-y,3/4-z
3/4-x,y,3/4-z
1/2-x,-y,1/2-z
1/4+x,3/4+y,1/2-z
1/2-x,3/4+y,1/4+z
1/4+x,-y,1/4+z
1/2+x,1/2+y,z
3/4-x,3/4-y,z
1/2+x,3/4-y,1/4-z
3/4-x,1/2+y,1/4-z
1/2-x,1/2-y,-z
1/4+x,1/4+y,-z
1/2-x,1/4+y,3/4+z
1/4+x,1/2-y,3/4+z
loop_
_atom_site_type_symbol
_atom_site_label
_atom_site_fract_x
_atom_site_fract_y
_atom_site_fract_z
Si Si1 0.223939 0.552304 0.898027
Si Si2 0.824228 0.125000 0.625000
Si Si3 0.773798 0.590661 0.842445
Si Si4 0.799075 0.771593 0.267289
Si Si5 0.794148 0.680887 0.528271
Si Si6 0.953792 0.526113 0.558222
O O1 0.255433 0.607038 0.877099
O O2 0.260989 0.542297 0.960873
O O3 0.253063 0.510055 0.855526
O O4 0.085917 0.556142 0.904735
O O5 0.901141 0.093441 0.582160
O O6 0.768151 0.167667 0.582322
O O7 0.875000 0.563965 0.875000
O O8 0.790287 0.602780 0.777377
O O9 0.866588 0.722814 0.244676
O O10 0.687355 0.770016 0.307104
O O11 0.910823 0.802683 0.288185
O O12 0.000000 0.500000 0.500000
#
# Coordination Sequence:
#
# PCOD9515414 Si02
#       6
#    32  16  32  32  32  32
#     4  10  22  42  62 103 132 178 243 291 359 438
#     4  12  26  49  73 116 148 192 265 309 400 456
#     4  10  21  38  71  97 132 181 233 297 363 434
#     4  10  22  45  70 100 145 180 237 305 389 431
#     4  10  22  43  72 107 140 181 236 319 376 450
#     4  12  28  46  70 101 149 200 244 303 368 460
#
# _framework density 23.639334000000002
#
# number of rings (size 3 to 8) (size 9 to 14) (size 15 to 20)
#    0.000    1.455    1.818    2.182    5.091    3.636 
#    0.000    0.909    0.000    0.000    0.000    0.000 
#    0.000    0.000    0.000    0.000    0.000    0.000 
#
# Total GULP energy -245128.873637 kJ/mol
# GULP energy per Si atom -5571.110764 kJ/mol
# Density = 2.358553 g / cm^3
# Si number density = 23.639334 Si / 1000 Ang^3
#
#
#
# Elastic Constant Matrix: (Units=GPa)
#
#
# Indices 1 2 3 4 5 6 
#
# 1 89.1401 8.0543 20.4935 0.0000 0.0000 0.0000
# 2 8.0543 124.0275 47.3425 0.0000 0.0000 0.0000
# 3 20.4935 47.3425 100.5118 0.0000 0.0000 0.0000
# 4 0.0000 0.0000 0.0000 33.3610 0.0000 0.0000
# 5 0.0000 0.0000 0.0000 0.0000 32.2717 0.0000
# 6 0.0000 0.0000 0.0000 0.0000 0.0000 -13.8747
#
#
#
# Elastic Compliance Matrix: (Units=1/GPa)
#
#
# Indices 1 2 3 4 5 6 
#
# 1 0.011774 0.000185 -0.002488 0.000000 0.000000 0.000000
# 2 0.000185 0.009833 -0.004669 0.000000 0.000000 0.000000
# 3 -0.002488 -0.004669 0.012656 0.000000 0.000000 0.000000
# 4 0.000000 0.000000 0.000000 0.029975 0.000000 0.000000
# 5 0.000000 0.000000 0.000000 0.000000 0.030987 0.000000
# 6 0.000000 0.000000 0.000000 0.000000 0.000000 -0.072073
#
#
# Mechanical properties :
#
#
# Convention : Reuss Voigt Hill
#
# Bulk Modulus (GPa) = 49.21665 51.71778 50.46722
# Shear Modulus (GPa) = 113.98022 26.20418 70.09220
#
# Velocity S-wave (km/s) = 6.95133 3.33302 5.45115
# Velocity P-wave (km/s) = 9.23542 6.06114 7.81122
#
# Compressibility (1/GPa) = 0.02031833
#
# Stress axis : x y z
#
# Youngs Moduli (GPa) = 84.93649 101.69837 79.01668
#
# Poissons Ratio (x) = -0.01881 0.19657
# Poissons Ratio (y) = -0.01571 0.36894
# Poissons Ratio (z) = 0.21129 0.47485
#
# Static dielectric constant tensor:
#      x y z
#    x 1.937180 0.000000 0.000000 
#    y 0.000000 1.983790 0.000000 
#    z 0.000000 0.000000 1.978710 
# 
# From -- ./inp_files/57607.got.cif
#   From: 2010.05.17/outbox.cif.g08.bks.cpg/sg70_29_cif.got.tgz:57607.got - 2010.06.03 15:57:51.
