data_PCOD9515675
_publ_section_title
;
Structure prediction by ZEFSAII (Michael W. Deem and Ramdas Pophale) SiO2 
 PCOD9515675
Probable space group: F D D D
;
_chemical_formula_sum "Si O2"
_cell_formula_units_Z 176
_cell_length_a 15.071810
_cell_length_b 33.030533
_cell_length_c 17.102990
_cell_angle_alpha 90.000000
_cell_angle_beta 90.000000
_cell_angle_gamma 90.000000
_cell_volume 8514.380102
_symmetry_space_group_name_H-M "F D D D"
_symmetry_group_IT_number 70
_space_group.IT_coordinate_system_code '2'
_symmetry_cell_setting 'orthorhombic'
loop_
_space_group_symop_operation_xyz
x,y,z
1/4-x,1/4-y,z
x,1/4-y,1/4-z
1/4-x,y,1/4-z
-x,-y,-z
3/4+x,3/4+y,-z
-x,3/4+y,3/4+z
3/4+x,-y,3/4+z
x,1/2+y,1/2+z
1/4-x,3/4-y,1/2+z
x,3/4-y,3/4-z
1/4-x,1/2+y,3/4-z
-x,1/2-y,1/2-z
3/4+x,1/4+y,1/2-z
-x,1/4+y,1/4+z
3/4+x,1/2-y,1/4+z
1/2+x,y,1/2+z
3/4-x,1/4-y,1/2+z
1/2+x,1/4-y,3/4-z
3/4-x,y,3/4-z
1/2-x,-y,1/2-z
1/4+x,3/4+y,1/2-z
1/2-x,3/4+y,1/4+z
1/4+x,-y,1/4+z
1/2+x,1/2+y,z
3/4-x,3/4-y,z
1/2+x,3/4-y,1/4-z
3/4-x,1/2+y,1/4-z
1/2-x,1/2-y,-z
1/4+x,1/4+y,-z
1/2-x,1/4+y,3/4+z
1/4+x,1/2-y,3/4+z
loop_
_atom_site_type_symbol
_atom_site_label
_atom_site_fract_x
_atom_site_fract_y
_atom_site_fract_z
Si Si1 0.875000 0.474883 0.875000
Si Si2 0.132139 0.673845 0.265539
Si Si3 0.125000 0.353105 0.125000
Si Si4 0.826440 0.125000 0.625000
Si Si5 0.947517 0.475301 0.159873
Si Si6 0.335318 0.191545 0.719546
Si Si7 0.276900 0.857071 0.217104
O O1 0.835915 0.444473 0.809064
O O2 0.792208 0.504630 0.890290
O O3 0.125000 0.625000 0.271089
O O4 0.098569 0.699873 0.339804
O O5 0.232952 0.685219 0.243448
O O6 0.121623 0.324572 0.200695
O O7 0.211307 0.381006 0.105771
O O8 0.888049 0.087110 0.647462
O O9 0.766536 0.129725 0.701616
O O10 0.893190 0.512867 0.194664
O O11 0.964769 0.440937 0.222922
O O12 0.375000 0.875000 0.206134
#
# Coordination Sequence:
#
# PCOD9515675 Si02
#       7
#    16  32  16  16  32  32  32
#     4  10  24  38  60  99 134 172 212 277 340 398
#     4  11  23  40  63  94 131 172 219 273 334 409
#     4  10  21  46  66  95 131 177 220 273 342 389
#     4  10  25  44  67  92 138 176 223 270 338 396
#     4  11  23  39  65  96 132 168 226 275 335 393
#     4  10  24  40  66  93 131 171 221 275 335 396
#     4  11  23  45  70  99 131 182 223 277 333 405
#
# _framework density 20.670911
#
# number of rings (size 3 to 8) (size 9 to 14) (size 15 to 20)
#    0.000    1.455    0.000    4.364   10.182    1.455 
#    3.273    2.727    0.000    0.000    0.000    0.000 
#    0.000    0.000    0.000    0.000    0.000    0.000 
#
# Total GULP energy -245126.132414 kJ/mol
# GULP energy per Si atom -5571.048464 kJ/mol
# Density = 2.062386 g / cm^3
# Si number density = 20.670911 Si / 1000 Ang^3
#
#
#
# Elastic Constant Matrix: (Units=GPa)
#
#
# Indices 1 2 3 4 5 6 
#
# 1 86.6596 44.2329 31.8614 0.0000 0.0000 0.0000
# 2 44.2329 195.7564 53.8542 0.0000 0.0000 0.0000
# 3 31.8614 53.8542 90.9016 0.0000 0.0000 0.0000
# 4 0.0000 0.0000 0.0000 25.7670 0.0000 0.0000
# 5 0.0000 0.0000 0.0000 0.0000 14.0802 0.0000
# 6 0.0000 0.0000 0.0000 0.0000 0.0000 26.8704
#
#
#
# Elastic Compliance Matrix: (Units=1/GPa)
#
#
# Indices 1 2 3 4 5 6 
#
# 1 0.013973 -0.002162 -0.003616 0.000000 0.000000 0.000000
# 2 -0.002162 0.006438 -0.003056 0.000000 0.000000 0.000000
# 3 -0.003616 -0.003056 0.014079 0.000000 0.000000 0.000000
# 4 0.000000 0.000000 0.000000 0.038809 0.000000 0.000000
# 5 0.000000 0.000000 0.000000 0.000000 0.071022 0.000000
# 6 0.000000 0.000000 0.000000 0.000000 0.000000 0.037216
#
#
# Mechanical properties :
#
#
# Convention : Reuss Voigt Hill
#
# Bulk Modulus (GPa) = 59.45382 70.35717 64.90550
# Shear Modulus (GPa) = 24.41258 29.56813 26.99035
#
# Velocity S-wave (km/s) = 3.44031 3.78620 3.61739
# Velocity P-wave (km/s) = 6.67874 7.29551 6.99392
#
# Compressibility (1/GPa) = 0.01681978
#
# Stress axis : x y z
#
# Youngs Moduli (GPa) = 71.56796 155.33372 71.02749
#
# Poissons Ratio (x) = 0.33589 0.25687
# Poissons Ratio (y) = 0.15476 0.21707
# Poissons Ratio (z) = 0.25882 0.47472
#
# Static dielectric constant tensor:
#      x y z
#    x 1.855970 0.000000 0.000000 
#    y 0.000000 1.792100 0.000000 
#    z 0.000000 0.000000 1.929540 
# 
# From -- ./inp_files/35486.got.cif
#   From: 2010.05.17/outbox.cif.g08.bks.cpg/sg70_18_cif.got.tgz:35486.got - 2010.06.03 15:57:51.
