data_PCOD9515033
_publ_section_title
;
Structure prediction by ZEFSAII (Michael W. Deem and Ramdas Pophale) SiO2 
 PCOD9515033
Probable space group: F D D D
;
_chemical_formula_sum "Si O2"
_cell_formula_units_Z 160
_cell_length_a 20.264533
_cell_length_b 19.047773
_cell_length_c 20.975949
_cell_angle_alpha 90.000000
_cell_angle_beta 90.000000
_cell_angle_gamma 90.000000
_cell_volume 8096.595168
_symmetry_space_group_name_H-M "F D D D"
_symmetry_group_IT_number 70
_space_group.IT_coordinate_system_code '2'
_symmetry_cell_setting 'orthorhombic'
loop_
_space_group_symop_operation_xyz
x,y,z
1/4-x,1/4-y,z
x,1/4-y,1/4-z
1/4-x,y,1/4-z
-x,-y,-z
3/4+x,3/4+y,-z
-x,3/4+y,3/4+z
3/4+x,-y,3/4+z
x,1/2+y,1/2+z
1/4-x,3/4-y,1/2+z
x,3/4-y,3/4-z
1/4-x,1/2+y,3/4-z
-x,1/2-y,1/2-z
3/4+x,1/4+y,1/2-z
-x,1/4+y,1/4+z
3/4+x,1/2-y,1/4+z
1/2+x,y,1/2+z
3/4-x,1/4-y,1/2+z
1/2+x,1/4-y,3/4-z
3/4-x,y,3/4-z
1/2-x,-y,1/2-z
1/4+x,3/4+y,1/2-z
1/2-x,3/4+y,1/4+z
1/4+x,-y,1/4+z
1/2+x,1/2+y,z
3/4-x,3/4-y,z
1/2+x,3/4-y,1/4-z
3/4-x,1/2+y,1/4-z
1/2-x,1/2-y,-z
1/4+x,1/4+y,-z
1/2-x,1/4+y,3/4+z
1/4+x,1/2-y,3/4+z
loop_
_atom_site_type_symbol
_atom_site_label
_atom_site_fract_x
_atom_site_fract_y
_atom_site_fract_z
Si Si1 0.038182 0.937642 0.963238
Si Si2 0.521741 0.087190 0.890654
Si Si3 0.097205 0.234026 0.407340
Si Si4 0.343781 0.577552 0.943705
Si Si5 0.747543 0.046806 0.505470
O O1 0.072832 0.964427 0.898960
O O2 0.096501 0.909539 0.008581
O O3 0.990218 0.870908 0.957852
O O4 0.000000 0.000000 0.000000
O O5 0.561477 0.160886 0.888943
O O6 0.575283 0.030417 0.914059
O O7 0.457312 0.108332 0.931432
O O8 0.505221 0.063243 0.819157
O O9 0.065579 0.261602 0.472087
O O10 0.375000 0.560630 0.875000
O O11 0.306122 0.509937 0.971987
#
# Coordination Sequence:
#
# PCOD9515033 Si02
#       5
#    32  32  32  32  32
#     4  12  21  36  58  88 124 157 200 254 313 375
#     4  10  20  39  58  85 123 158 202 252 306 376
#     4  10  21  36  58  87 120 164 201 248 315 367
#     4  11  22  38  61  89 119 163 202 249 318 375
#     4  11  21  37  60  84 123 165 198 255 305 372
#
# _framework density 19.761393000000002
#
# number of rings (size 3 to 8) (size 9 to 14) (size 15 to 20)
#    0.000    1.200    6.000    1.800    0.000    0.800 
#    0.000    4.000    0.000    0.000    0.000    0.000 
#    0.000    0.000    0.000    0.000    0.000    0.000 
#
# Total GULP energy -223174.595948 kJ/mol
# GULP energy per Si atom -5579.364899 kJ/mol
# Density = 1.971642 g / cm^3
# Si number density = 19.761393 Si / 1000 Ang^3
#
#
#
# Elastic Constant Matrix: (Units=GPa)
#
#
# Indices 1 2 3 4 5 6 
#
# 1 100.7112 33.7816 34.9215 0.0000 0.0000 0.0000
# 2 33.7816 76.3403 25.0021 0.0000 0.0000 0.0000
# 3 34.9215 25.0021 54.2496 0.0000 0.0000 0.0000
# 4 0.0000 0.0000 0.0000 30.2899 0.0000 0.0000
# 5 0.0000 0.0000 0.0000 0.0000 30.4541 0.0000
# 6 0.0000 0.0000 0.0000 0.0000 0.0000 11.7112
#
#
#
# Elastic Compliance Matrix: (Units=1/GPa)
#
#
# Indices 1 2 3 4 5 6 
#
# 1 0.013623 -0.003717 -0.007056 0.000000 0.000000 0.000000
# 2 -0.003717 0.016442 -0.005185 0.000000 0.000000 0.000000
# 3 -0.007056 -0.005185 0.025365 0.000000 0.000000 0.000000
# 4 0.000000 0.000000 0.000000 0.033014 0.000000 0.000000
# 5 0.000000 0.000000 0.000000 0.000000 0.032836 0.000000
# 6 0.000000 0.000000 0.000000 0.000000 0.000000 0.085388
#
#
# Mechanical properties :
#
#
# Convention : Reuss Voigt Hill
#
# Bulk Modulus (GPa) = 42.52860 46.52350 44.52605
# Shear Modulus (GPa) = 20.29026 23.66412 21.97719
#
# Velocity S-wave (km/s) = 3.20779 3.46423 3.33848
# Velocity P-wave (km/s) = 5.94034 6.29245 6.11893
#
# Compressibility (1/GPa) = 0.02351359
#
# Stress axis : x y z
#
# Youngs Moduli (GPa) = 73.40509 60.81866 39.42439
#
# Poissons Ratio (x) = 0.22609 0.27818
# Poissons Ratio (y) = 0.27288 0.20441
# Poissons Ratio (z) = 0.51796 0.31533
#
# Static dielectric constant tensor:
#      x y z
#    x 1.789280 0.000000 0.000000 
#    y 0.000000 1.739440 0.000000 
#    z 0.000000 0.000000 1.712840 
# 
# From -- ./inp_files/36283.got.cif
#   From: 2010.05.17/outbox.cif.g08.bks.cpg/sg70_19_cif.got.tgz:36283.got - 2010.06.03 15:57:51.
