data_PCOD9515637
_publ_section_title
;
Structure prediction by ZEFSAII (Michael W. Deem and Ramdas Pophale) SiO2 
 PCOD9515637
Probable space group: F D D D
;
_chemical_formula_sum "Si O2"
_cell_formula_units_Z 216
_cell_length_a 13.778316
_cell_length_b 22.359760
_cell_length_c 29.651632
_cell_angle_alpha 90.000000
_cell_angle_beta 90.000000
_cell_angle_gamma 90.000000
_cell_volume 9135.070012
_symmetry_space_group_name_H-M "F D D D"
_symmetry_group_IT_number 70
_space_group.IT_coordinate_system_code '2'
_symmetry_cell_setting 'orthorhombic'
loop_
_space_group_symop_operation_xyz
x,y,z
1/4-x,1/4-y,z
x,1/4-y,1/4-z
1/4-x,y,1/4-z
-x,-y,-z
3/4+x,3/4+y,-z
-x,3/4+y,3/4+z
3/4+x,-y,3/4+z
x,1/2+y,1/2+z
1/4-x,3/4-y,1/2+z
x,3/4-y,3/4-z
1/4-x,1/2+y,3/4-z
-x,1/2-y,1/2-z
3/4+x,1/4+y,1/2-z
-x,1/4+y,1/4+z
3/4+x,1/2-y,1/4+z
1/2+x,y,1/2+z
3/4-x,1/4-y,1/2+z
1/2+x,1/4-y,3/4-z
3/4-x,y,3/4-z
1/2-x,-y,1/2-z
1/4+x,3/4+y,1/2-z
1/2-x,3/4+y,1/4+z
1/4+x,-y,1/4+z
1/2+x,1/2+y,z
3/4-x,3/4-y,z
1/2+x,3/4-y,1/4-z
3/4-x,1/2+y,1/4-z
1/2-x,1/2-y,-z
1/4+x,1/4+y,-z
1/2-x,1/4+y,3/4+z
1/4+x,1/2-y,3/4+z
loop_
_atom_site_type_symbol
_atom_site_label
_atom_site_fract_x
_atom_site_fract_y
_atom_site_fract_z
Si Si1 0.386555 0.517999 0.665206
Si Si2 0.712596 0.461901 0.425840
Si Si3 0.523662 0.097800 0.871453
Si Si4 0.249595 0.679611 0.466304
Si Si5 0.976519 0.610248 0.049962
Si Si6 0.625000 0.625000 0.625000
Si Si7 0.125000 0.625000 0.705646
Si Si8 0.219055 0.410185 0.543772
O O1 0.313518 0.538731 0.626565
O O2 0.459316 0.470533 0.641687
O O3 0.319126 0.483601 0.700831
O O4 0.443982 0.573894 0.683843
O O5 0.619498 0.430818 0.449267
O O6 0.812429 0.425419 0.430971
O O7 0.722928 0.529770 0.443250
O O8 0.625000 0.125000 0.889461
O O9 0.510137 0.132284 0.824593
O O10 0.455376 0.117474 0.912384
O O11 0.204293 0.654675 0.511660
O O12 0.363988 0.686535 0.469703
O O13 0.054698 0.591287 0.088446
O O14 0.008208 0.621263 0.998277
#
# Coordination Sequence:
#
# PCOD9515637 Si02
#       8
#    32  32  32  32  32   8  16  32
#     4  11  23  48  72 101 149 199 241 312 375 462
#     4  12  26  47  72 111 154 194 250 310 386 456
#     4  10  21  43  70 101 140 186 248 311 370 436
#     4  11  22  45  72 108 154 192 247 305 385 451
#     4  12  28  51  74 106 151 198 263 305 391 463
#     4  12  28  56  70  98 148 212 238 324 384 456
#     4  12  24  44  72 110 152 202 237 303 384 468
#     4  12  26  45  77 112 146 194 258 325 367 453
#
# _framework density 23.645139
#
# number of rings (size 3 to 8) (size 9 to 14) (size 15 to 20)
#    0.000    0.593    8.148    1.333    3.111    1.185 
#    8.000    1.481    0.000    0.000    0.000    0.000 
#    0.000    0.000    0.000    0.000    0.000    0.000 
#
# Total GULP energy -302031.752465 kJ/mol
# GULP energy per Si atom -5593.180601 kJ/mol
# Density = 2.359132 g / cm^3
# Si number density = 23.645139 Si / 1000 Ang^3
#
#
#
# Elastic Constant Matrix: (Units=GPa)
#
#
# Indices 1 2 3 4 5 6 
#
# 1 90.5768 27.1452 13.8011 0.0000 0.0000 0.0000
# 2 27.1452 93.7338 38.1125 0.0000 0.0000 0.0000
# 3 13.8011 38.1125 118.2680 0.0000 0.0000 0.0000
# 4 0.0000 0.0000 0.0000 -1.7699 0.0000 0.0000
# 5 0.0000 0.0000 0.0000 0.0000 55.3980 0.0000
# 6 0.0000 0.0000 0.0000 0.0000 0.0000 26.4312
#
#
#
# Elastic Compliance Matrix: (Units=1/GPa)
#
#
# Indices 1 2 3 4 5 6 
#
# 1 0.012100 -0.003372 -0.000325 0.000000 0.000000 0.000000
# 2 -0.003372 0.013217 -0.003866 0.000000 0.000000 0.000000
# 3 -0.000325 -0.003866 0.009739 0.000000 0.000000 0.000000
# 4 0.000000 0.000000 0.000000 -0.565000 0.000000 0.000000
# 5 0.000000 0.000000 0.000000 0.000000 0.018051 0.000000
# 6 0.000000 0.000000 0.000000 0.000000 0.000000 0.037834
#
#
# Mechanical properties :
#
#
# Convention : Reuss Voigt Hill
#
# Bulk Modulus (GPa) = 50.17503 51.18846 50.68175
# Shear Modulus (GPa) = -11.05489 30.91319 9.92915
#
# Velocity S-wave (km/s) = -2.16460 3.61969 2.05143
# Velocity P-wave (km/s) = 3.87541 6.25821 5.20500
#
# Compressibility (1/GPa) = 0.01993023
#
# Stress axis : x y z
#
# Youngs Moduli (GPa) = 82.64130 75.66108 102.67896
#
# Poissons Ratio (x) = 0.25513 0.03341
# Poissons Ratio (y) = 0.27866 0.39693
# Poissons Ratio (z) = 0.02689 0.29248
#
# Static dielectric constant tensor:
#      x y z
#    x 1.963930 0.000000 0.000000 
#    y 0.000000 2.478290 0.000000 
#    z 0.000000 0.000000 1.925580 
# 
# From -- ./inp_files/65986.got.cif
#   From: 2010.05.17/outbox.cif.g08.bks.cpg/sg70_33_cif.got.tgz:65986.got - 2010.06.03 15:57:51.
