data_PCOD9515700
_publ_section_title
;
Structure prediction by ZEFSAII (Michael W. Deem and Ramdas Pophale) SiO2 
 PCOD9515700
Probable space group: F D D D
;
_chemical_formula_sum "Si O2"
_cell_formula_units_Z 168
_cell_length_a 22.618065
_cell_length_b 12.454062
_cell_length_c 30.749306
_cell_angle_alpha 90.000000
_cell_angle_beta 90.000000
_cell_angle_gamma 90.000000
_cell_volume 8661.673112
_symmetry_space_group_name_H-M "F D D D"
_symmetry_group_IT_number 70
_space_group.IT_coordinate_system_code '2'
_symmetry_cell_setting 'orthorhombic'
loop_
_space_group_symop_operation_xyz
x,y,z
1/4-x,1/4-y,z
x,1/4-y,1/4-z
1/4-x,y,1/4-z
-x,-y,-z
3/4+x,3/4+y,-z
-x,3/4+y,3/4+z
3/4+x,-y,3/4+z
x,1/2+y,1/2+z
1/4-x,3/4-y,1/2+z
x,3/4-y,3/4-z
1/4-x,1/2+y,3/4-z
-x,1/2-y,1/2-z
3/4+x,1/4+y,1/2-z
-x,1/4+y,1/4+z
3/4+x,1/2-y,1/4+z
1/2+x,y,1/2+z
3/4-x,1/4-y,1/2+z
1/2+x,1/4-y,3/4-z
3/4-x,y,3/4-z
1/2-x,-y,1/2-z
1/4+x,3/4+y,1/2-z
1/2-x,3/4+y,1/4+z
1/4+x,-y,1/4+z
1/2+x,1/2+y,z
3/4-x,3/4-y,z
1/2+x,3/4-y,1/4-z
3/4-x,1/2+y,1/4-z
1/2-x,1/2-y,-z
1/4+x,1/4+y,-z
1/2-x,1/4+y,3/4+z
1/4+x,1/2-y,3/4+z
loop_
_atom_site_type_symbol
_atom_site_label
_atom_site_fract_x
_atom_site_fract_y
_atom_site_fract_z
Si Si1 0.489618 0.623844 0.256901
Si Si2 0.311051 0.321496 0.576703
Si Si3 0.571646 0.211668 0.422520
Si Si4 0.146445 0.347129 0.487886
Si Si5 0.547491 0.274749 0.562755
Si Si6 0.875000 0.375000 0.375000
O O1 0.500000 0.750000 0.250000
O O2 0.513976 0.588965 0.304038
O O3 0.423763 0.584368 0.244919
O O4 0.530791 0.563760 0.222769
O O5 0.375000 0.375000 0.577181
O O6 0.307483 0.259291 0.622662
O O7 0.315315 0.249511 0.533095
O O8 0.260940 0.412735 0.578252
O O9 0.625000 0.125000 0.423115
O O10 0.593592 0.309590 0.452153
O O11 0.167767 0.385815 0.535062
O O12 0.584211 0.207296 0.597654
#
# Coordination Sequence:
#
# PCOD9515700 Si02
#       6
#    32  32  32  32  32   8
#     4  11  21  38  63  92 130 173 215 278 339 406
#     4  11  23  42  63  97 129 181 226 277 337 409
#     4  10  22  36  62  95 130 173 227 276 342 399
#     4  11  22  42  64  91 133 178 225 274 342 410
#     4  11  26  41  66  96 134 170 223 281 341 417
#     4  12  28  44  68 108 134 172 224 294 372 388
#
# _framework density 19.395790999999999
#
# number of rings (size 3 to 8) (size 9 to 14) (size 15 to 20)
#    0.000    1.143    3.810    2.286    8.000    0.000 
#    0.000    0.000    0.000    0.000    0.000    0.000 
#    0.000    0.000    0.000    0.000    0.000    0.000 
#
# Total GULP energy -234153.047247 kJ/mol
# GULP energy per Si atom -5575.072553 kJ/mol
# Density = 1.935165 g / cm^3
# Si number density = 19.395791 Si / 1000 Ang^3
#
#
#
# Elastic Constant Matrix: (Units=GPa)
#
#
# Indices 1 2 3 4 5 6 
#
# 1 95.4926 38.1586 56.4447 0.0000 0.0000 0.0000
# 2 38.1586 72.5634 37.6777 0.0000 0.0000 0.0000
# 3 56.4447 37.6777 114.2862 0.0000 0.0000 0.0000
# 4 0.0000 0.0000 0.0000 0.3831 0.0000 0.0000
# 5 0.0000 0.0000 0.0000 0.0000 68.4888 0.0000
# 6 0.0000 0.0000 0.0000 0.0000 0.0000 35.0547
#
#
#
# Elastic Compliance Matrix: (Units=1/GPa)
#
#
# Indices 1 2 3 4 5 6 
#
# 1 0.016324 -0.005306 -0.006313 0.000000 0.000000 0.000000
# 2 -0.005306 0.018352 -0.003430 0.000000 0.000000 0.000000
# 3 -0.006313 -0.003430 0.012998 0.000000 0.000000 0.000000
# 4 0.000000 0.000000 0.000000 2.610296 0.000000 0.000000
# 5 0.000000 0.000000 0.000000 0.000000 0.014601 0.000000
# 6 0.000000 0.000000 0.000000 0.000000 0.000000 0.028527
#
#
# Mechanical properties :
#
#
# Convention : Reuss Voigt Hill
#
# Bulk Modulus (GPa) = 56.89218 60.76716 58.82967
# Shear Modulus (GPa) = 1.82678 30.78940 16.30809
#
# Velocity S-wave (km/s) = 0.97154 3.98858 2.90281
# Velocity P-wave (km/s) = 5.53664 7.25326 6.45229
#
# Compressibility (1/GPa) = 0.01757711
#
# Stress axis : x y z
#
# Youngs Moduli (GPa) = 61.26014 54.48921 76.93223
#
# Poissons Ratio (x) = 0.28914 0.48566
# Poissons Ratio (y) = 0.32507 0.26385
# Poissons Ratio (z) = 0.38672 0.18688
#
# Static dielectric constant tensor:
#      x y z
#    x 1.684710 0.000000 0.000000 
#    y 0.000000 1.678390 0.000000 
#    z 0.000000 0.000000 1.721830 
# 
# From -- ./inp_files/29854.got.cif
#   From: 2010.05.17/outbox.cif.g08.bks.cpg/sg70_15_cif.got.tgz:29854.got - 2010.06.03 15:57:51.
