data_PCOD9515286
_publ_section_title
;
Structure prediction by ZEFSAII (Michael W. Deem and Ramdas Pophale) SiO2 
 PCOD9515286
Probable space group: F D D D
;
_chemical_formula_sum "Si O2"
_cell_formula_units_Z 168
_cell_length_a 22.770943
_cell_length_b 17.371972
_cell_length_c 18.446555
_cell_angle_alpha 90.000000
_cell_angle_beta 90.000000
_cell_angle_gamma 90.000000
_cell_volume 7297.017839
_symmetry_space_group_name_H-M "F D D D"
_symmetry_group_IT_number 70
_space_group.IT_coordinate_system_code '2'
_symmetry_cell_setting 'orthorhombic'
loop_
_space_group_symop_operation_xyz
x,y,z
1/4-x,1/4-y,z
x,1/4-y,1/4-z
1/4-x,y,1/4-z
-x,-y,-z
3/4+x,3/4+y,-z
-x,3/4+y,3/4+z
3/4+x,-y,3/4+z
x,1/2+y,1/2+z
1/4-x,3/4-y,1/2+z
x,3/4-y,3/4-z
1/4-x,1/2+y,3/4-z
-x,1/2-y,1/2-z
3/4+x,1/4+y,1/2-z
-x,1/4+y,1/4+z
3/4+x,1/2-y,1/4+z
1/2+x,y,1/2+z
3/4-x,1/4-y,1/2+z
1/2+x,1/4-y,3/4-z
3/4-x,y,3/4-z
1/2-x,-y,1/2-z
1/4+x,3/4+y,1/2-z
1/2-x,3/4+y,1/4+z
1/4+x,-y,1/4+z
1/2+x,1/2+y,z
3/4-x,3/4-y,z
1/2+x,3/4-y,1/4-z
3/4-x,1/2+y,1/4-z
1/2-x,1/2-y,-z
1/4+x,1/4+y,-z
1/2-x,1/4+y,3/4+z
1/4+x,1/2-y,3/4+z
loop_
_atom_site_type_symbol
_atom_site_label
_atom_site_fract_x
_atom_site_fract_y
_atom_site_fract_z
Si Si1 0.774514 0.767661 0.394600
Si Si2 0.625000 0.125000 0.359147
Si Si3 0.444728 0.625000 0.125000
Si Si4 0.339794 0.117917 0.800021
Si Si5 0.836307 0.225017 0.173102
Si Si6 0.875000 0.375000 0.875000
Si Si7 0.438220 0.508929 0.230885
O O1 0.784125 0.685769 0.431193
O O2 0.708620 0.797810 0.392651
O O3 0.828847 0.821629 0.418198
O O4 0.784767 0.760418 0.308371
O O5 0.589777 0.183801 0.410828
O O6 0.665252 0.182573 0.310380
O O7 0.400375 0.688440 0.158907
O O8 0.476123 0.569786 0.182973
O O9 0.375000 0.135216 0.875000
O O10 0.322520 0.190758 0.752049
O O11 0.383213 0.062733 0.754602
#
# Coordination Sequence:
#
# PCOD9515286 Si02
#       7
#    32  16  16  32  32   8  32
#     4  11  21  33  55  89 123 156 195 241 305 374
#     4  10  21  36  56  86 116 155 202 260 292 344
#     4   8  17  36  50  73 106 155 182 236 295 344
#     4   9  19  38  58  80 118 165 191 243 315 364
#     4  10  21  36  58  84 120 155 209 247 296 374
#     4  12  20  36  52  96 124 156 192 244 304 370
#     4   9  17  33  55  74 110 152 185 235 301 344
#
# _framework density 23.023104
#
# number of rings (size 3 to 8) (size 9 to 14) (size 15 to 20)
#    0.000    2.286    2.857    1.143    2.667    0.000 
#    0.000    4.286    4.190    4.571    0.000    0.000 
#    0.000    0.000    0.000    0.000    0.000    0.000 
#
# Total GULP energy -234013.922840 kJ/mol
# GULP energy per Si atom -5571.760068 kJ/mol
# Density = 2.297070 g / cm^3
# Si number density = 23.023104 Si / 1000 Ang^3
#
#
#
# Elastic Constant Matrix: (Units=GPa)
#
#
# Indices 1 2 3 4 5 6 
#
# 1 47.0835 12.5807 9.9402 0.0000 0.0000 0.0000
# 2 12.5807 142.7616 72.2068 0.0000 0.0000 0.0000
# 3 9.9402 72.2068 113.5611 0.0000 0.0000 0.0000
# 4 0.0000 0.0000 0.0000 59.5124 0.0000 0.0000
# 5 0.0000 0.0000 0.0000 0.0000 23.0772 0.0000
# 6 0.0000 0.0000 0.0000 0.0000 0.0000 14.6283
#
#
#
# Elastic Compliance Matrix: (Units=1/GPa)
#
#
# Indices 1 2 3 4 5 6 
#
# 1 0.021830 -0.001411 -0.001014 0.000000 0.000000 0.000000
# 2 -0.001411 0.010417 -0.006500 0.000000 0.000000 0.000000
# 3 -0.001014 -0.006500 0.013027 0.000000 0.000000 0.000000
# 4 0.000000 0.000000 0.000000 0.016803 0.000000 0.000000
# 5 0.000000 0.000000 0.000000 0.000000 0.043333 0.000000
# 6 0.000000 0.000000 0.000000 0.000000 0.000000 0.068360
#
#
# Mechanical properties :
#
#
# Convention : Reuss Voigt Hill
#
# Bulk Modulus (GPa) = 36.46313 54.76241 45.61277
# Shear Modulus (GPa) = 24.90528 33.35548 29.13038
#
# Velocity S-wave (km/s) = 3.29257 3.81042 3.56092
# Velocity P-wave (km/s) = 5.50697 6.57241 6.06313
#
# Compressibility (1/GPa) = 0.02742496
#
# Stress axis : x y z
#
# Youngs Moduli (GPa) = 45.80873 96.00148 76.76156
#
# Poissons Ratio (x) = 0.13547 0.07780
# Poissons Ratio (y) = 0.06464 0.49893
# Poissons Ratio (z) = 0.04643 0.62398
#
# Static dielectric constant tensor:
#      x y z
#    x 2.057670 0.000000 0.000000 
#    y 0.000000 1.906390 0.000000 
#    z 0.000000 0.000000 2.018210 
# 
# From -- ./inp_files/47637.got.cif
#   From: 2010.05.17/outbox.cif.g08.bks.cpg/sg70_24_cif.got.tgz:47637.got - 2010.06.03 15:57:51.
