data_PCOD9515312
_publ_section_title
;
Structure prediction by ZEFSAII (Michael W. Deem and Ramdas Pophale) SiO2 
 PCOD9515312
Probable space group: F D D D
;
_chemical_formula_sum "Si O2"
_cell_formula_units_Z 216
_cell_length_a 15.005764
_cell_length_b 24.720216
_cell_length_c 32.213547
_cell_angle_alpha 90.000000
_cell_angle_beta 90.000000
_cell_angle_gamma 90.000000
_cell_volume 11949.477622
_symmetry_space_group_name_H-M "F D D D"
_symmetry_group_IT_number 70
_space_group.IT_coordinate_system_code '2'
_symmetry_cell_setting 'orthorhombic'
loop_
_space_group_symop_operation_xyz
x,y,z
1/4-x,1/4-y,z
x,1/4-y,1/4-z
1/4-x,y,1/4-z
-x,-y,-z
3/4+x,3/4+y,-z
-x,3/4+y,3/4+z
3/4+x,-y,3/4+z
x,1/2+y,1/2+z
1/4-x,3/4-y,1/2+z
x,3/4-y,3/4-z
1/4-x,1/2+y,3/4-z
-x,1/2-y,1/2-z
3/4+x,1/4+y,1/2-z
-x,1/4+y,1/4+z
3/4+x,1/2-y,1/4+z
1/2+x,y,1/2+z
3/4-x,1/4-y,1/2+z
1/2+x,1/4-y,3/4-z
3/4-x,y,3/4-z
1/2-x,-y,1/2-z
1/4+x,3/4+y,1/2-z
1/2-x,3/4+y,1/4+z
1/4+x,-y,1/4+z
1/2+x,1/2+y,z
3/4-x,3/4-y,z
1/2+x,3/4-y,1/4-z
3/4-x,1/2+y,1/4-z
1/2-x,1/2-y,-z
1/4+x,1/4+y,-z
1/2-x,1/4+y,3/4+z
1/4+x,1/2-y,3/4+z
loop_
_atom_site_type_symbol
_atom_site_label
_atom_site_fract_x
_atom_site_fract_y
_atom_site_fract_z
Si Si1 0.625000 0.910702 0.125000
Si Si2 0.746024 0.179953 0.058079
Si Si3 0.356600 0.959841 0.559330
Si Si4 0.631462 0.685881 0.760803
Si Si5 0.802205 0.784068 0.595776
Si Si6 0.025567 0.884451 0.047138
Si Si7 0.125000 0.125000 0.625000
Si Si8 0.924669 0.677037 0.016206
O O1 0.550312 0.947241 0.102181
O O2 0.675079 0.874565 0.090980
O O3 0.810423 0.223191 0.079129
O O4 0.682021 0.162149 0.094998
O O5 0.795682 0.126301 0.041895
O O6 0.687881 0.210966 0.022313
O O7 0.344848 0.958329 0.609181
O O8 0.275560 0.923235 0.540381
O O9 0.447614 0.928847 0.549011
O O10 0.355117 0.021416 0.543384
O O11 0.625000 0.625000 0.744436
O O12 0.596303 0.684822 0.807467
O O13 0.735399 0.698871 0.756788
O O14 0.098840 0.904788 0.014504
#
# Coordination Sequence:
#
# PCOD9515312 Si02
#       8
#    16  32  32  32  32  32   8  32
#     4  10  21  36  62  89 118 159 196 243 310 348
#     4  11  22  35  55  89 122 165 189 237 299 370
#     4  10  24  41  61  90 114 158 206 257 299 344
#     4  10  22  36  55  88 123 155 194 242 293 363
#     4  11  23  35  62  85 127 151 200 246 298 366
#     4  10  23  40  62  84 117 154 206 253 297 353
#     4  12  18  36  52  76 132 150 192 234 296 352
#     4  11  22  40  61  87 122 160 201 242 305 360
#
# _framework density 18.076104000000001
#
# number of rings (size 3 to 8) (size 9 to 14) (size 15 to 20)
#    0.000    1.481    2.222    4.000   12.444    0.000 
#    0.000    0.000    0.000    0.000    0.000    0.000 
#    0.000    0.000    0.000    0.000    0.000    0.000 
#
# Total GULP energy -300894.003767 kJ/mol
# GULP energy per Si atom -5572.111181 kJ/mol
# Density = 1.803496 g / cm^3
# Si number density = 18.076104 Si / 1000 Ang^3
#
#
#
# Elastic Constant Matrix: (Units=GPa)
#
#
# Indices 1 2 3 4 5 6 
#
# 1 87.8068 50.2625 57.8028 0.0000 0.0000 0.0000
# 2 50.2625 75.4757 38.7953 0.0000 0.0000 0.0000
# 3 57.8028 38.7953 112.5732 0.0000 0.0000 0.0000
# 4 0.0000 0.0000 0.0000 41.8927 0.0000 0.0000
# 5 0.0000 0.0000 0.0000 0.0000 13.6146 0.0000
# 6 0.0000 0.0000 0.0000 0.0000 0.0000 -68.2865
#
#
#
# Elastic Compliance Matrix: (Units=1/GPa)
#
#
# Indices 1 2 3 4 5 6 
#
# 1 0.023093 -0.011282 -0.007969 0.000000 0.000000 0.000000
# 2 -0.011282 0.021614 -0.001655 0.000000 0.000000 0.000000
# 3 -0.007969 -0.001655 0.013546 0.000000 0.000000 0.000000
# 4 0.000000 0.000000 0.000000 0.023871 0.000000 0.000000
# 5 0.000000 0.000000 0.000000 0.000000 0.073450 0.000000
# 6 0.000000 0.000000 0.000000 0.000000 0.000000 -0.014644
#
#
# Mechanical properties :
#
#
# Convention : Reuss Voigt Hill
#
# Bulk Modulus (GPa) = 60.83468 63.28633 62.06050
# Shear Modulus (GPa) = 26.56424 6.04383 16.30403
#
# Velocity S-wave (km/s) = 3.83767 1.83052 3.00653
# Velocity P-wave (km/s) = 7.30512 6.28926 6.81614
#
# Compressibility (1/GPa) = 0.01643799
#
# Stress axis : x y z
#
# Youngs Moduli (GPa) = 43.30288 46.26717 73.82434
#
# Poissons Ratio (x) = 0.52200 0.58834
# Poissons Ratio (y) = 0.48856 0.12221
# Poissons Ratio (z) = 0.34510 0.07659
#
# Static dielectric constant tensor:
#      x y z
#    x 2.022110 0.000000 0.000000 
#    y 0.000000 1.636890 0.000000 
#    z 0.000000 0.000000 1.605880 
# 
# From -- ./inp_files/66056.got.cif
#   From: 2010.05.17/outbox.cif.g08.bks.cpg/sg70_34_cif.got.tgz:66056.got - 2010.06.03 15:57:51.
