data_PCOD9515138
_publ_section_title
;
Structure prediction by ZEFSAII (Michael W. Deem and Ramdas Pophale) SiO2 
 PCOD9515138
Probable space group: F D D D
;
_chemical_formula_sum "Si O2"
_cell_formula_units_Z 176
_cell_length_a 17.876954
_cell_length_b 17.143938
_cell_length_c 28.383629
_cell_angle_alpha 90.000000
_cell_angle_beta 90.000000
_cell_angle_gamma 90.000000
_cell_volume 8699.054098
_symmetry_space_group_name_H-M "F D D D"
_symmetry_group_IT_number 70
_space_group.IT_coordinate_system_code '2'
_symmetry_cell_setting 'orthorhombic'
loop_
_space_group_symop_operation_xyz
x,y,z
1/4-x,1/4-y,z
x,1/4-y,1/4-z
1/4-x,y,1/4-z
-x,-y,-z
3/4+x,3/4+y,-z
-x,3/4+y,3/4+z
3/4+x,-y,3/4+z
x,1/2+y,1/2+z
1/4-x,3/4-y,1/2+z
x,3/4-y,3/4-z
1/4-x,1/2+y,3/4-z
-x,1/2-y,1/2-z
3/4+x,1/4+y,1/2-z
-x,1/4+y,1/4+z
3/4+x,1/2-y,1/4+z
1/2+x,y,1/2+z
3/4-x,1/4-y,1/2+z
1/2+x,1/4-y,3/4-z
3/4-x,y,3/4-z
1/2-x,-y,1/2-z
1/4+x,3/4+y,1/2-z
1/2-x,3/4+y,1/4+z
1/4+x,-y,1/4+z
1/2+x,1/2+y,z
3/4-x,3/4-y,z
1/2+x,3/4-y,1/4-z
3/4-x,1/2+y,1/4-z
1/2-x,1/2-y,-z
1/4+x,1/4+y,-z
1/2-x,1/4+y,3/4+z
1/4+x,1/2-y,3/4+z
loop_
_atom_site_type_symbol
_atom_site_label
_atom_site_fract_x
_atom_site_fract_y
_atom_site_fract_z
Si Si1 0.813203 0.979943 0.688773
Si Si2 0.037215 0.634832 0.718684
Si Si3 0.470711 0.230469 0.012819
Si Si4 0.362273 0.961716 0.929184
Si Si5 0.241147 0.932138 0.711502
Si Si6 0.625000 0.125000 0.355125
O O1 0.781128 0.919802 0.727925
O O2 0.833258 0.936013 0.640416
O O3 0.757922 0.054328 0.686538
O O4 0.889959 0.006264 0.714170
O O5 0.125000 0.625000 0.706217
O O6 0.008526 0.547087 0.724768
O O7 0.530184 0.233838 0.054587
O O8 0.474443 0.148439 0.987176
O O9 0.375000 0.948874 0.875000
O O10 0.375000 0.875000 0.952595
O O11 0.417171 0.034039 0.937658
O O12 0.312635 0.918043 0.677437
O O13 0.250000 0.000000 0.750000
#
# Coordination Sequence:
#
# PCOD9515138 Si02
#       6
#    32  32  32  32  32  16
#     4  10  20  40  71 101 136 177 232 296 348 434
#     4   9  19  38  70 103 133 177 223 279 369 418
#     4  11  20  41  65  95 133 183 225 277 367 418
#     4  11  23  39  60  90 127 170 222 279 332 409
#     4  12  25  43  62  93 137 185 225 292 349 419
#     4  12  24  44  70 106 139 185 258 294 356 444
#
# _framework density 20.232084
#
# number of rings (size 3 to 8) (size 9 to 14) (size 15 to 20)
#    0.000    1.273    4.545    3.273    0.000    0.000 
#    0.000    2.727    0.000    3.273    0.000    0.000 
#    0.000    0.000    0.000    0.000    0.000    0.000 
#
# Total GULP energy -245309.228446 kJ/mol
# GULP energy per Si atom -5575.209737 kJ/mol
# Density = 2.018603 g / cm^3
# Si number density = 20.232084 Si / 1000 Ang^3
#
#
#
# Elastic Constant Matrix: (Units=GPa)
#
#
# Indices 1 2 3 4 5 6 
#
# 1 82.4351 61.7280 33.0384 0.0000 0.0000 0.0000
# 2 61.7280 182.0417 61.0155 0.0000 0.0000 0.0000
# 3 33.0384 61.0155 85.4311 0.0000 0.0000 0.0000
# 4 0.0000 0.0000 0.0000 32.1730 0.0000 0.0000
# 5 0.0000 0.0000 0.0000 0.0000 26.6032 0.0000
# 6 0.0000 0.0000 0.0000 0.0000 0.0000 44.4081
#
#
#
# Elastic Compliance Matrix: (Units=1/GPa)
#
#
# Indices 1 2 3 4 5 6 
#
# 1 0.016904 -0.004655 -0.003212 0.000000 0.000000 0.000000
# 2 -0.004655 0.008504 -0.004273 0.000000 0.000000 0.000000
# 3 -0.003212 -0.004273 0.016000 0.000000 0.000000 0.000000
# 4 0.000000 0.000000 0.000000 0.031082 0.000000 0.000000
# 5 0.000000 0.000000 0.000000 0.000000 0.037589 0.000000
# 6 0.000000 0.000000 0.000000 0.000000 0.000000 0.022518
#
#
# Mechanical properties :
#
#
# Convention : Reuss Voigt Hill
#
# Bulk Modulus (GPa) = 58.39134 73.49686 65.94410
# Shear Modulus (GPa) = 30.75246 33.57859 32.16553
#
# Velocity S-wave (km/s) = 3.90293 4.07832 3.99159
# Velocity P-wave (km/s) = 7.01669 7.65394 7.34223
#
# Compressibility (1/GPa) = 0.01712583
#
# Stress axis : x y z
#
# Youngs Moduli (GPa) = 59.15722 117.59022 62.50090
#
# Poissons Ratio (x) = 0.54741 0.20078
# Poissons Ratio (y) = 0.27539 0.26709
# Poissons Ratio (z) = 0.19004 0.50251
#
# Static dielectric constant tensor:
#      x y z
#    x 1.702520 0.000000 0.000000 
#    y 0.000000 1.951210 0.000000 
#    z 0.000000 0.000000 1.750320 
# 
# From -- ./inp_files/38521.got.cif
#   From: 2010.05.17/outbox.cif.g08.bks.cpg/sg70_20_cif.got.tgz:38521.got - 2010.06.03 15:57:51.
