data_PCOD9515149
_publ_section_title
;
Structure prediction by ZEFSAII (Michael W. Deem and Ramdas Pophale) SiO2 
 PCOD9515149
Probable space group: F D D D
;
_chemical_formula_sum "Si O2"
_cell_formula_units_Z 72
_cell_length_a 23.190041
_cell_length_b 4.669634
_cell_length_c 24.356374
_cell_angle_alpha 90.000000
_cell_angle_beta 90.000000
_cell_angle_gamma 90.000000
_cell_volume 2637.527479
_symmetry_space_group_name_H-M "F D D D"
_symmetry_group_IT_number 70
_space_group.IT_coordinate_system_code '2'
_symmetry_cell_setting 'orthorhombic'
loop_
_space_group_symop_operation_xyz
x,y,z
1/4-x,1/4-y,z
x,1/4-y,1/4-z
1/4-x,y,1/4-z
-x,-y,-z
3/4+x,3/4+y,-z
-x,3/4+y,3/4+z
3/4+x,-y,3/4+z
x,1/2+y,1/2+z
1/4-x,3/4-y,1/2+z
x,3/4-y,3/4-z
1/4-x,1/2+y,3/4-z
-x,1/2-y,1/2-z
3/4+x,1/4+y,1/2-z
-x,1/4+y,1/4+z
3/4+x,1/2-y,1/4+z
1/2+x,y,1/2+z
3/4-x,1/4-y,1/2+z
1/2+x,1/4-y,3/4-z
3/4-x,y,3/4-z
1/2-x,-y,1/2-z
1/4+x,3/4+y,1/2-z
1/2-x,3/4+y,1/4+z
1/4+x,-y,1/4+z
1/2+x,1/2+y,z
3/4-x,3/4-y,z
1/2+x,3/4-y,1/4-z
3/4-x,1/2+y,1/4-z
1/2-x,1/2-y,-z
1/4+x,1/4+y,-z
1/2-x,1/4+y,3/4+z
1/4+x,1/2-y,3/4+z
loop_
_atom_site_type_symbol
_atom_site_label
_atom_site_fract_x
_atom_site_fract_y
_atom_site_fract_z
Si Si1 0.465386 0.551540 0.182919
Si Si2 0.125000 0.625000 0.625000
Si Si3 0.047978 0.701224 0.051268
O O1 0.435228 0.625000 0.125000
O O2 0.435933 0.426456 0.237085
O O3 0.490068 0.859231 0.198718
O O4 0.522094 0.345415 0.174653
O O5 0.093925 0.396244 0.583376
#
# Coordination Sequence:
#
# PCOD9515149 Si02
#       3
#    32   8  32
#     4  10  20  41  61  91 124 182 220 266 318 435
#     4  12  24  42  62 108 134 168 214 322 326 388
#     4  10  23  36  63  94 132 163 224 271 345 384
#
# _framework density 27.298296000000001
#
# number of rings (size 3 to 8) (size 9 to 14) (size 15 to 20)
#    0.000    1.778    2.222    1.333    0.000    3.556 
#    0.000    0.000    0.000   16.000    0.000    0.000 
#    0.000    0.000    0.000    0.000    0.000    0.000 
#
# Total GULP energy -100343.313440 kJ/mol
# GULP energy per Si atom -5574.628524 kJ/mol
# Density = 2.723616 g / cm^3
# Si number density = 27.298296 Si / 1000 Ang^3
#
#
#
# Elastic Constant Matrix: (Units=GPa)
#
#
# Indices 1 2 3 4 5 6 
#
# 1 70.5843 23.9981 34.5248 0.0066 -0.0037 -0.0078
# 2 23.9981 193.5649 31.4899 0.0167 0.0002 0.0339
# 3 34.5248 31.4899 274.8708 0.0030 -0.0033 -0.0184
# 4 0.0066 0.0167 0.0030 37.2202 -0.0046 -0.0038
# 5 -0.0037 0.0002 -0.0033 -0.0046 12.4848 0.0141
# 6 -0.0078 0.0339 -0.0184 -0.0038 0.0141 19.1768
#
#
#
# Elastic Compliance Matrix: (Units=1/GPa)
#
#
# Indices 1 2 3 4 5 6 
#
# 1 0.015593 -0.001645 -0.001770 -0.000002 0.000004 0.000008
# 2 -0.001645 0.005438 -0.000416 -0.000002 -0.000001 -0.000011
# 3 -0.001770 -0.000416 0.003908 0.000000 0.000001 0.000004
# 4 -0.000002 -0.000002 0.000000 0.026867 0.000010 0.000005
# 5 0.000004 -0.000001 0.000001 0.000010 0.080097 -0.000059
# 6 0.000008 -0.000011 0.000004 0.000005 -0.000059 0.052146
#
#
# Mechanical properties :
#
#
# Convention : Reuss Voigt Hill
#
# Bulk Modulus (GPa) = 57.88547 79.89393 68.88970
# Shear Modulus (GPa) = 25.32016 43.71018 34.51517
#
# Velocity S-wave (km/s) = 3.04885 4.00585 3.55966
# Velocity P-wave (km/s) = 5.80042 7.12224 6.49504
#
# Compressibility (1/GPa) = 0.01727549
#
# Stress axis : x y z
#
# Youngs Moduli (GPa) = 64.13307 183.89344 255.87949
#
# Poissons Ratio (x) = 0.30254 0.45291
# Poissons Ratio (y) = 0.10551 0.10653
# Poissons Ratio (z) = 0.11352 0.07656
#
# Static dielectric constant tensor:
#      x y z
#    x 2.276080 0.000000 0.000010 
#    y 0.000000 2.068030 0.000020 
#    z 0.000010 0.000020 2.357150 
# 
# From -- ./inp_files/2318.got.cif
#   From: 2010.05.17/outbox.cif.g08.bks.cpg/sg70_2_cif.got.tgz:2318.got - 2010.06.03 15:57:51.
