data_PCOD9515547
_publ_section_title
;
Structure prediction by ZEFSAII (Michael W. Deem and Ramdas Pophale) SiO2 
 PCOD9515547
Probable space group: F D D D
;
_chemical_formula_sum "Si O2"
_cell_formula_units_Z 168
_cell_length_a 25.179641
_cell_length_b 21.063944
_cell_length_c 15.106287
_cell_angle_alpha 90.000000
_cell_angle_beta 90.000000
_cell_angle_gamma 90.000000
_cell_volume 8012.110989
_symmetry_space_group_name_H-M "F D D D"
_symmetry_group_IT_number 70
_space_group.IT_coordinate_system_code '2'
_symmetry_cell_setting 'orthorhombic'
loop_
_space_group_symop_operation_xyz
x,y,z
1/4-x,1/4-y,z
x,1/4-y,1/4-z
1/4-x,y,1/4-z
-x,-y,-z
3/4+x,3/4+y,-z
-x,3/4+y,3/4+z
3/4+x,-y,3/4+z
x,1/2+y,1/2+z
1/4-x,3/4-y,1/2+z
x,3/4-y,3/4-z
1/4-x,1/2+y,3/4-z
-x,1/2-y,1/2-z
3/4+x,1/4+y,1/2-z
-x,1/4+y,1/4+z
3/4+x,1/2-y,1/4+z
1/2+x,y,1/2+z
3/4-x,1/4-y,1/2+z
1/2+x,1/4-y,3/4-z
3/4-x,y,3/4-z
1/2-x,-y,1/2-z
1/4+x,3/4+y,1/2-z
1/2-x,3/4+y,1/4+z
1/4+x,-y,1/4+z
1/2+x,1/2+y,z
3/4-x,3/4-y,z
1/2+x,3/4-y,1/4-z
3/4-x,1/2+y,1/4-z
1/2-x,1/2-y,-z
1/4+x,1/4+y,-z
1/2-x,1/4+y,3/4+z
1/4+x,1/2-y,3/4+z
loop_
_atom_site_type_symbol
_atom_site_label
_atom_site_fract_x
_atom_site_fract_y
_atom_site_fract_z
Si Si1 0.920921 0.697687 0.612122
Si Si2 0.625000 0.125000 0.625000
Si Si3 0.439677 0.488697 0.960761
Si Si4 0.438621 0.746341 0.658492
Si Si5 0.979980 0.728202 0.969207
Si Si6 0.031605 0.599588 0.034078
O O1 0.935444 0.625000 0.625000
O O2 0.910095 0.729357 0.707817
O O3 0.863864 0.706617 0.568136
O O4 0.968395 0.731290 0.559779
O O5 0.586236 0.170247 0.685176
O O6 0.441727 0.522392 0.865617
O O7 0.500000 0.500000 0.000000
O O8 0.451947 0.757373 0.555240
O O9 0.487767 0.702045 0.686940
O O10 0.434358 0.812069 0.711981
O O11 0.001247 0.658528 0.991012
O O12 0.057693 0.625000 0.125000
#
# Coordination Sequence:
#
# PCOD9515547 Si02
#       6
#    32   8  32  32  32  32
#     4  11  24  40  62  96 133 173 227 277 343 415
#     4  12  24  44  68  96 140 188 234 282 384 418
#     4  10  25  40  65  99 135 181 227 291 344 433
#     4  10  21  41  66  92 130 174 213 283 333 411
#     4  10  22  38  65  92 128 177 213 280 340 399
#     4   9  20  41  66  90 128 170 219 272 341 398
#
# _framework density 20.968257000000001
#
# number of rings (size 3 to 8) (size 9 to 14) (size 15 to 20)
#    0.000    1.905    0.000    2.857    8.000    5.333 
#    0.000   11.429    0.000    0.000    0.000    0.000 
#    0.000    0.000    0.000    0.000    0.000    0.000 
#
# Total GULP energy -234042.747891 kJ/mol
# GULP energy per Si atom -5572.446378 kJ/mol
# Density = 2.092053 g / cm^3
# Si number density = 20.968257 Si / 1000 Ang^3
#
#
#
# Elastic Constant Matrix: (Units=GPa)
#
#
# Indices 1 2 3 4 5 6 
#
# 1 59.1889 1.0895 33.2618 0.0000 0.0000 0.0000
# 2 1.0895 99.4945 68.4891 0.0000 0.0000 0.0000
# 3 33.2618 68.4891 83.2636 0.0000 0.0000 0.0000
# 4 0.0000 0.0000 0.0000 11.6243 0.0000 0.0000
# 5 0.0000 0.0000 0.0000 0.0000 3.5252 0.0000
# 6 0.0000 0.0000 0.0000 0.0000 0.0000 24.7227
#
#
#
# Elastic Compliance Matrix: (Units=1/GPa)
#
#
# Indices 1 2 3 4 5 6 
#
# 1 0.033432 0.020350 -0.030094 0.000000 0.000000 0.000000
# 2 0.020350 0.035557 -0.037377 0.000000 0.000000 0.000000
# 3 -0.030094 -0.037377 0.054777 0.000000 0.000000 0.000000
# 4 0.000000 0.000000 0.000000 0.086027 0.000000 0.000000
# 5 0.000000 0.000000 0.000000 0.000000 0.283676 0.000000
# 6 0.000000 0.000000 0.000000 0.000000 0.000000 0.040449
#
#
# Mechanical properties :
#
#
# Convention : Reuss Voigt Hill
#
# Bulk Modulus (GPa) = 33.87161 49.73641 41.80401
# Shear Modulus (GPa) = 7.83696 17.24820 12.54258
#
# Velocity S-wave (km/s) = 1.93537 2.87119 2.44840
# Velocity P-wave (km/s) = 4.60250 5.89601 5.28895
#
# Compressibility (1/GPa) = 0.02952325
#
# Stress axis : x y z
#
# Youngs Moduli (GPa) = 29.91114 28.12352 18.25581
#
# Poissons Ratio (x) = -0.57231 0.54940
# Poissons Ratio (y) = -0.60869 0.68235
# Poissons Ratio (z) = 0.90016 1.05118
#
# Static dielectric constant tensor:
#      x y z
#    x 1.857630 0.000000 0.000000 
#    y 0.000000 1.713780 0.000000 
#    z 0.000000 0.000000 1.779680 
# 
# From -- ./inp_files/29853.got.cif
#   From: 2010.05.17/outbox.cif.g08.bks.cpg/sg70_15_cif.got.tgz:29853.got - 2010.06.03 15:57:51.
