data_PCOD9515760
_publ_section_title
;
Structure prediction by ZEFSAII (Michael W. Deem and Ramdas Pophale) SiO2 
 PCOD9515760
Probable space group: F D D D
;
_chemical_formula_sum "Si O2"
_cell_formula_units_Z 112
_cell_length_a 23.853647
_cell_length_b 28.069721
_cell_length_c 7.337369
_cell_angle_alpha 90.000000
_cell_angle_beta 90.000000
_cell_angle_gamma 90.000000
_cell_volume 4912.847060
_symmetry_space_group_name_H-M "F D D D"
_symmetry_group_IT_number 70
_space_group.IT_coordinate_system_code '2'
_symmetry_cell_setting 'orthorhombic'
loop_
_space_group_symop_operation_xyz
x,y,z
1/4-x,1/4-y,z
x,1/4-y,1/4-z
1/4-x,y,1/4-z
-x,-y,-z
3/4+x,3/4+y,-z
-x,3/4+y,3/4+z
3/4+x,-y,3/4+z
x,1/2+y,1/2+z
1/4-x,3/4-y,1/2+z
x,3/4-y,3/4-z
1/4-x,1/2+y,3/4-z
-x,1/2-y,1/2-z
3/4+x,1/4+y,1/2-z
-x,1/4+y,1/4+z
3/4+x,1/2-y,1/4+z
1/2+x,y,1/2+z
3/4-x,1/4-y,1/2+z
1/2+x,1/4-y,3/4-z
3/4-x,y,3/4-z
1/2-x,-y,1/2-z
1/4+x,3/4+y,1/2-z
1/2-x,3/4+y,1/4+z
1/4+x,-y,1/4+z
1/2+x,1/2+y,z
3/4-x,3/4-y,z
1/2+x,3/4-y,1/4-z
3/4-x,1/2+y,1/4-z
1/2-x,1/2-y,-z
1/4+x,1/4+y,-z
1/2-x,1/4+y,3/4+z
1/4+x,1/2-y,3/4+z
loop_
_atom_site_type_symbol
_atom_site_label
_atom_site_fract_x
_atom_site_fract_y
_atom_site_fract_z
Si Si1 0.544275 0.724130 0.509116
Si Si2 0.771336 0.375000 0.875000
Si Si3 0.689978 0.826321 0.659283
Si Si4 0.067714 0.462097 0.538934
O O1 0.556397 0.672179 0.582143
O O2 0.552077 0.769711 0.640073
O O3 0.578199 0.739680 0.327937
O O4 0.480418 0.721077 0.434582
O O5 0.730498 0.391033 0.709006
O O6 0.625000 0.837578 0.625000
O O7 0.701355 0.823027 0.876200
O O8 0.125000 0.445520 0.625000
#
# Coordination Sequence:
#
# PCOD9515760 Si02
#       4
#    32  16  32  32
#     4   9  22  40  62  87 131 168 208 270 326 381
#     4  12  22  36  63 100 124 164 219 274 320 394
#     4  10  22  39  64  91 130 164 210 272 327 377
#     4   9  19  41  65  84 122 175 207 256 326 382
#
# _framework density 22.797370999999998
#
# number of rings (size 3 to 8) (size 9 to 14) (size 15 to 20)
#    1.714    0.571    0.000    2.571    0.000    4.571 
#    0.000    0.714    0.000    1.714    0.000    0.000 
#    0.000    0.000    0.000    0.000    0.000    0.000 
#
# Total GULP energy -156193.117211 kJ/mol
# GULP energy per Si atom -5578.325615 kJ/mol
# Density = 2.274548 g / cm^3
# Si number density = 22.797371 Si / 1000 Ang^3
#
#
#
# Elastic Constant Matrix: (Units=GPa)
#
#
# Indices 1 2 3 4 5 6 
#
# 1 57.6237 27.0875 25.4521 0.0070 -0.0228 -0.0017
# 2 27.0875 178.5049 28.1532 0.0093 -0.0103 -0.0065
# 3 25.4521 28.1532 101.3290 0.0112 -0.0356 0.0024
# 4 0.0070 0.0093 0.0112 35.7425 -0.0082 -0.0191
# 5 -0.0228 -0.0103 -0.0356 -0.0082 25.3125 0.0014
# 6 -0.0017 -0.0065 0.0024 -0.0191 0.0014 -11.3060
#
#
#
# Elastic Compliance Matrix: (Units=1/GPa)
#
#
# Indices 1 2 3 4 5 6 
#
# 1 0.020457 -0.002399 -0.004472 -0.000002 0.000011 -0.000003
# 2 -0.002399 0.006140 -0.001103 -0.000001 -0.000001 -0.000003
# 3 -0.004472 -0.001103 0.011299 -0.000002 0.000011 0.000004
# 4 -0.000002 -0.000001 -0.000002 0.027978 0.000009 -0.000047
# 5 0.000011 -0.000001 0.000011 0.000009 0.039506 0.000005
# 6 -0.000003 -0.000003 0.000004 -0.000047 0.000005 -0.088449
#
#
# Mechanical properties :
#
#
# Convention : Reuss Voigt Hill
#
# Bulk Modulus (GPa) = 45.56389 55.42701 50.49545
# Shear Modulus (GPa) = 124.39192 27.06745 75.72969
#
# Velocity S-wave (km/s) = 7.39477 3.44947 5.76981
# Velocity P-wave (km/s) = 9.64054 6.34277 8.15999
#
# Compressibility (1/GPa) = 0.02194721
#
# Stress axis : x y z
#
# Youngs Moduli (GPa) = 48.88325 162.86258 88.50589
#
# Poissons Ratio (x) = 0.39070 0.39579
# Poissons Ratio (y) = 0.11727 0.09766
# Poissons Ratio (z) = 0.21860 0.17970
#
# Static dielectric constant tensor:
#      x y z
#    x 1.778620 0.000010 0.000010 
#    y 0.000010 1.986670 -0.000020 
#    z 0.000010 -0.000020 1.912710 
# 
# From -- ./inp_files/11860.got.cif
#   From: 2010.05.17/outbox.cif.g08.bks.cpg/sg70_6_cif.got.tgz:11860.got - 2010.06.03 15:57:51.
