data_PCOD9515268
_publ_section_title
;
Structure prediction by ZEFSAII (Michael W. Deem and Ramdas Pophale) SiO2 
 PCOD9515268
Probable space group: F D D D
;
_chemical_formula_sum "Si O2"
_cell_formula_units_Z 232
_cell_length_a 15.927774
_cell_length_b 30.087165
_cell_length_c 25.149399
_cell_angle_alpha 90.000000
_cell_angle_beta 90.000000
_cell_angle_gamma 90.000000
_cell_volume 12052.134333
_symmetry_space_group_name_H-M "F D D D"
_symmetry_group_IT_number 70
_space_group.IT_coordinate_system_code '2'
_symmetry_cell_setting 'orthorhombic'
loop_
_space_group_symop_operation_xyz
x,y,z
1/4-x,1/4-y,z
x,1/4-y,1/4-z
1/4-x,y,1/4-z
-x,-y,-z
3/4+x,3/4+y,-z
-x,3/4+y,3/4+z
3/4+x,-y,3/4+z
x,1/2+y,1/2+z
1/4-x,3/4-y,1/2+z
x,3/4-y,3/4-z
1/4-x,1/2+y,3/4-z
-x,1/2-y,1/2-z
3/4+x,1/4+y,1/2-z
-x,1/4+y,1/4+z
3/4+x,1/2-y,1/4+z
1/2+x,y,1/2+z
3/4-x,1/4-y,1/2+z
1/2+x,1/4-y,3/4-z
3/4-x,y,3/4-z
1/2-x,-y,1/2-z
1/4+x,3/4+y,1/2-z
1/2-x,3/4+y,1/4+z
1/4+x,-y,1/4+z
1/2+x,1/2+y,z
3/4-x,3/4-y,z
1/2+x,3/4-y,1/4-z
3/4-x,1/2+y,1/4-z
1/2-x,1/2-y,-z
1/4+x,1/4+y,-z
1/2-x,1/4+y,3/4+z
1/4+x,1/2-y,3/4+z
loop_
_atom_site_type_symbol
_atom_site_label
_atom_site_fract_x
_atom_site_fract_y
_atom_site_fract_z
Si Si1 0.003834 0.785431 0.123419
Si Si2 0.728994 0.694227 0.693458
Si Si3 0.403703 0.137096 0.992554
Si Si4 0.311001 0.708521 0.984387
Si Si5 0.537550 0.810372 0.109593
Si Si6 0.348119 0.268657 0.202271
Si Si7 0.625000 0.125000 0.125000
Si Si8 0.973888 0.376788 0.197363
O O1 0.922792 0.783815 0.163324
O O2 0.992139 0.827540 0.085142
O O3 0.009987 0.739612 0.090287
O O4 0.073480 0.789781 0.170899
O O5 0.816156 0.674189 0.715862
O O6 0.669844 0.701749 0.745315
O O7 0.683860 0.657439 0.658578
O O8 0.456762 0.091689 0.000824
O O9 0.435163 0.153643 0.934798
O O10 0.303438 0.128680 0.987796
O O11 0.250000 0.750000 0.000000
O O12 0.388907 0.721079 0.021457
O O13 0.625000 0.789513 0.125000
O O14 0.482340 0.773050 0.083352
O O15 0.488910 0.836369 0.155678
O O16 0.875000 0.375000 0.214466
#
# Coordination Sequence:
#
# PCOD9515268 Si02
#       8
#    32  32  32  32  32  32   8  32
#     4  11  22  38  60  91 122 161 212 257 307 381
#     4  11  26  40  57  92 130 169 206 256 318 388
#     4  10  22  38  58  84 125 163 201 258 319 377
#     4  10  21  34  59  89 120 162 203 248 314 384
#     4   9  18  34  57  86 113 152 200 260 311 359
#     4  10  21  36  59  83 124 156 205 255 311 372
#     4  12  28  40  64  88 134 180 204 240 312 404
#     4  11  20  36  64  91 113 157 213 268 310 370
#
# _framework density 19.249703
#
# number of rings (size 3 to 8) (size 9 to 14) (size 15 to 20)
#    0.000    1.655    2.759    1.655    7.724    1.103 
#    0.000    0.690    3.034    0.000    0.000    0.483 
#    0.000    0.000    0.000    0.000    0.000    0.000 
#
# Total GULP energy -322975.735595 kJ/mol
# GULP energy per Si atom -5568.547165 kJ/mol
# Density = 1.920589 g / cm^3
# Si number density = 19.249703 Si / 1000 Ang^3
#
#
#
# Elastic Constant Matrix: (Units=GPa)
#
#
# Indices 1 2 3 4 5 6 
#
# 1 97.0171 27.0723 31.6275 0.0000 0.0000 0.0000
# 2 27.0723 74.4116 36.4530 0.0000 0.0000 0.0000
# 3 31.6275 36.4530 66.2767 0.0000 0.0000 0.0000
# 4 0.0000 0.0000 0.0000 15.2597 0.0000 0.0000
# 5 0.0000 0.0000 0.0000 0.0000 27.4980 0.0000
# 6 0.0000 0.0000 0.0000 0.0000 0.0000 19.7697
#
#
#
# Elastic Compliance Matrix: (Units=1/GPa)
#
#
# Indices 1 2 3 4 5 6 
#
# 1 0.012469 -0.002219 -0.004729 0.000000 0.000000 0.000000
# 2 -0.002219 0.018790 -0.009276 0.000000 0.000000 0.000000
# 3 -0.004729 -0.009276 0.022447 0.000000 0.000000 0.000000
# 4 0.000000 0.000000 0.000000 0.065532 0.000000 0.000000
# 5 0.000000 0.000000 0.000000 0.000000 0.036366 0.000000
# 6 0.000000 0.000000 0.000000 0.000000 0.000000 0.050582
#
#
# Mechanical properties :
#
#
# Convention : Reuss Voigt Hill
#
# Bulk Modulus (GPa) = 47.04408 47.55678 47.30043
# Shear Modulus (GPa) = 20.34828 22.00899 21.17864
#
# Velocity S-wave (km/s) = 3.25479 3.38500 3.32053
# Velocity P-wave (km/s) = 6.21424 6.32744 6.27110
#
# Compressibility (1/GPa) = 0.02125666
#
# Stress axis : x y z
#
# Youngs Moduli (GPa) = 80.20176 53.21907 44.54966
#
# Poissons Ratio (x) = 0.11812 0.21069
# Poissons Ratio (y) = 0.17801 0.41323
# Poissons Ratio (z) = 0.37930 0.49365
#
# Static dielectric constant tensor:
#      x y z
#    x 1.942040 0.000000 0.000000 
#    y 0.000000 1.662910 0.000000 
#    z 0.000000 0.000000 1.690760 
# 
# From -- ./inp_files/52449.got.cif
#   From: 2010.05.17/outbox.cif.g08.bks.cpg/sg70_27_cif.got.tgz:52449.got - 2010.06.03 15:57:51.
