data_PCOD9515679
_publ_section_title
;
Structure prediction by ZEFSAII (Michael W. Deem and Ramdas Pophale) SiO2 
 PCOD9515679
Probable space group: F D D D
;
_chemical_formula_sum "Si O2"
_cell_formula_units_Z 96
_cell_length_a 32.441869
_cell_length_b 7.182230
_cell_length_c 15.002360
_cell_angle_alpha 90.000000
_cell_angle_beta 90.000000
_cell_angle_gamma 90.000000
_cell_volume 3495.624364
_symmetry_space_group_name_H-M "F D D D"
_symmetry_group_IT_number 70
_space_group.IT_coordinate_system_code '2'
_symmetry_cell_setting 'orthorhombic'
loop_
_space_group_symop_operation_xyz
x,y,z
1/4-x,1/4-y,z
x,1/4-y,1/4-z
1/4-x,y,1/4-z
-x,-y,-z
3/4+x,3/4+y,-z
-x,3/4+y,3/4+z
3/4+x,-y,3/4+z
x,1/2+y,1/2+z
1/4-x,3/4-y,1/2+z
x,3/4-y,3/4-z
1/4-x,1/2+y,3/4-z
-x,1/2-y,1/2-z
3/4+x,1/4+y,1/2-z
-x,1/4+y,1/4+z
3/4+x,1/2-y,1/4+z
1/2+x,y,1/2+z
3/4-x,1/4-y,1/2+z
1/2+x,1/4-y,3/4-z
3/4-x,y,3/4-z
1/2-x,-y,1/2-z
1/4+x,3/4+y,1/2-z
1/2-x,3/4+y,1/4+z
1/4+x,-y,1/4+z
1/2+x,1/2+y,z
3/4-x,3/4-y,z
1/2+x,3/4-y,1/4-z
3/4-x,1/2+y,1/4-z
1/2-x,1/2-y,-z
1/4+x,1/4+y,-z
1/2-x,1/4+y,3/4+z
1/4+x,1/2-y,3/4+z
loop_
_atom_site_type_symbol
_atom_site_label
_atom_site_fract_x
_atom_site_fract_y
_atom_site_fract_z
Si Si1 0.229022 0.625000 0.125000
Si Si2 0.125000 0.125000 0.435732
Si Si3 0.454735 0.327693 0.675599
Si Si4 0.916673 0.144335 0.332344
O O1 0.147477 0.768741 0.248122
O O2 0.194845 0.779713 0.097369
O O3 0.086341 0.087583 0.370289
O O4 0.463684 0.125000 0.625000
O O5 0.444088 0.287226 0.777928
O O6 0.490046 0.484786 0.674000
O O7 0.875000 0.204575 0.375000
#
# Coordination Sequence:
#
# PCOD9515679 Si02
#       4
#    16  16  32  32
#     4  12  23  46  82 114 160 202 264 348 391 460
#     4  10  21  46  71 104 156 212 254 322 403 468
#     4  10  26  43  76 113 155 209 268 316 412 474
#     4  11  22  48  78 116 157 213 267 328 407 471
#
# _framework density 27.462904999999999
#
# number of rings (size 3 to 8) (size 9 to 14) (size 15 to 20)
#    0.000    1.333    3.333    1.000    7.000    5.333 
#    0.000    4.167    0.000    5.000    0.000    0.000 
#    0.000    0.000    0.000    0.000    0.000    0.000 
#
# Total GULP energy -133748.238974 kJ/mol
# GULP energy per Si atom -5572.843291 kJ/mol
# Density = 2.740040 g / cm^3
# Si number density = 27.462905 Si / 1000 Ang^3
#
#
#
# Elastic Constant Matrix: (Units=GPa)
#
#
# Indices 1 2 3 4 5 6 
#
# 1 222.0741 97.9309 52.8193 0.0000 0.0000 0.0000
# 2 97.9309 170.0751 56.8588 0.0000 0.0000 0.0000
# 3 52.8193 56.8588 96.4473 0.0000 0.0000 0.0000
# 4 0.0000 0.0000 0.0000 6.4537 0.0000 0.0000
# 5 0.0000 0.0000 0.0000 0.0000 0.7349 0.0000
# 6 0.0000 0.0000 0.0000 0.0000 0.0000 424.0794
#
#
#
# Elastic Compliance Matrix: (Units=1/GPa)
#
#
# Indices 1 2 3 4 5 6 
#
# 1 0.006231 -0.003048 -0.001616 0.000000 0.000000 0.000000
# 2 -0.003048 0.008814 -0.003527 0.000000 0.000000 0.000000
# 3 -0.001616 -0.003527 0.013332 0.000000 0.000000 0.000000
# 4 0.000000 0.000000 0.000000 0.154951 -0.000001 0.000000
# 5 0.000000 0.000000 0.000000 -0.000001 1.360639 0.000000
# 6 0.000000 0.000000 0.000000 0.000000 0.000000 0.002358
#
#
# Mechanical properties :
#
#
# Convention : Reuss Voigt Hill
#
# Bulk Modulus (GPa) = 83.35710 100.42382 91.89046
# Shear Modulus (GPa) = 3.19141 104.98611 54.08876
#
# Velocity S-wave (km/s) = 1.07917 6.18961 4.44274
# Velocity P-wave (km/s) = 5.65432 9.36633 7.73626
#
# Compressibility (1/GPa) = 0.01199658
#
# Stress axis : x y z
#
# Youngs Moduli (GPa) = 160.47813 113.45770 75.00506
#
# Poissons Ratio (x) = 0.34581 0.12119
# Poissons Ratio (y) = 0.48912 0.26453
# Poissons Ratio (z) = 0.25930 0.40015
#
# Static dielectric constant tensor:
#      x y z
#    x 2.079100 0.000000 0.000000 
#    y 0.000000 2.273220 0.000000 
#    z 0.000000 0.000000 2.215500 
# 
# From -- ./inp_files/37117.got.cif
#   From: 2010.05.17/outbox.cif.g08.bks.cpg/sg70_19_cif.got.tgz:37117.got - 2010.06.03 15:57:51.
