data_PCOD9515674
_publ_section_title
;
Structure prediction by ZEFSAII (Michael W. Deem and Ramdas Pophale) SiO2 
 PCOD9515674
Probable space group: F D D D
;
_chemical_formula_sum "Si O2"
_cell_formula_units_Z 192
_cell_length_a 26.511545
_cell_length_b 24.147475
_cell_length_c 10.434479
_cell_angle_alpha 90.000000
_cell_angle_beta 90.000000
_cell_angle_gamma 90.000000
_cell_volume 6680.016452
_symmetry_space_group_name_H-M "F D D D"
_symmetry_group_IT_number 70
_space_group.IT_coordinate_system_code '2'
_symmetry_cell_setting 'orthorhombic'
loop_
_space_group_symop_operation_xyz
x,y,z
1/4-x,1/4-y,z
x,1/4-y,1/4-z
1/4-x,y,1/4-z
-x,-y,-z
3/4+x,3/4+y,-z
-x,3/4+y,3/4+z
3/4+x,-y,3/4+z
x,1/2+y,1/2+z
1/4-x,3/4-y,1/2+z
x,3/4-y,3/4-z
1/4-x,1/2+y,3/4-z
-x,1/2-y,1/2-z
3/4+x,1/4+y,1/2-z
-x,1/4+y,1/4+z
3/4+x,1/2-y,1/4+z
1/2+x,y,1/2+z
3/4-x,1/4-y,1/2+z
1/2+x,1/4-y,3/4-z
3/4-x,y,3/4-z
1/2-x,-y,1/2-z
1/4+x,3/4+y,1/2-z
1/2-x,3/4+y,1/4+z
1/4+x,-y,1/4+z
1/2+x,1/2+y,z
3/4-x,3/4-y,z
1/2+x,3/4-y,1/4-z
3/4-x,1/2+y,1/4-z
1/2-x,1/2-y,-z
1/4+x,1/4+y,-z
1/2-x,1/4+y,3/4+z
1/4+x,1/2-y,3/4+z
loop_
_atom_site_type_symbol
_atom_site_label
_atom_site_fract_x
_atom_site_fract_y
_atom_site_fract_z
Si Si1 0.884590 0.777592 0.240914
Si Si2 0.966445 0.238709 0.913204
Si Si3 0.794678 0.165114 0.236351
Si Si4 0.802017 0.341587 0.197568
Si Si5 0.839843 0.078235 0.727247
Si Si6 0.700587 0.212348 0.522109
O O1 0.875000 0.810494 0.375000
O O2 0.936959 0.747165 0.279696
O O3 0.833686 0.739688 0.244894
O O4 0.900957 0.817329 0.128920
O O5 0.005462 0.283669 0.971967
O O6 0.000410 0.185131 0.898453
O O7 0.772521 0.125000 0.125000
O O8 0.851569 0.173708 0.186903
O O9 0.685793 0.403384 0.135185
O O10 0.799078 0.407531 0.185517
O O11 0.805090 0.316999 0.340664
O O12 0.817618 0.125000 0.625000
O O13 0.837470 0.011713 0.754301
O O14 0.750000 0.250000 0.500000
#
# Coordination Sequence:
#
# PCOD9515674 Si02
#       6
#    32  32  32  32  32  32
#     4   8  22  44  89 137 174 230 301 378 474 559
#     4   9  20  46  85 131 175 223 302 372 461 555
#     4  10  21  45  86 124 172 236 299 375 451 541
#     4  11  22  51  92 124 187 236 304 389 464 561
#     4  10  23  48  82 127 184 229 306 377 456 555
#     4  11  27  48  85 132 174 251 309 377 470 565
#
# _framework density 28.742443999999999
#
# number of rings (size 3 to 8) (size 9 to 14) (size 15 to 20)
#    1.000    1.000    1.667    0.500    2.333    1.333 
#    3.000    2.500   18.333    8.000    0.000    4.667 
#    0.000    0.000    0.000    0.000    0.000    0.000 
#
# Total GULP energy -267363.690357 kJ/mol
# GULP energy per Si atom -5570.076882 kJ/mol
# Density = 2.867702 g / cm^3
# Si number density = 28.742444 Si / 1000 Ang^3
#
#
#
# Elastic Constant Matrix: (Units=GPa)
#
#
# Indices 1 2 3 4 5 6 
#
# 1 196.8174 97.8570 38.0019 -0.0001 0.0001 0.0000
# 2 97.8570 252.6698 73.1978 -0.0004 0.0003 0.0001
# 3 38.0019 73.1978 142.1461 -0.0012 0.0011 0.0004
# 4 -0.0001 -0.0004 -0.0012 37.5322 0.0006 0.0002
# 5 0.0001 0.0003 0.0011 0.0006 39.0872 -0.0002
# 6 0.0000 0.0001 0.0004 0.0002 -0.0002 47.4811
#
#
#
# Elastic Compliance Matrix: (Units=1/GPa)
#
#
# Indices 1 2 3 4 5 6 
#
# 1 0.006323 -0.002303 -0.000505 0.000000 0.000000 0.000000
# 2 -0.002303 0.005490 -0.002212 0.000000 0.000000 0.000000
# 3 -0.000505 -0.002212 0.008309 0.000000 0.000000 0.000000
# 4 0.000000 0.000000 0.000000 0.026644 0.000000 0.000000
# 5 0.000000 0.000000 0.000000 0.000000 0.025584 0.000000
# 6 0.000000 0.000000 0.000000 0.000000 0.000000 0.021061
#
#
# Mechanical properties :
#
#
# Convention : Reuss Voigt Hill
#
# Bulk Modulus (GPa) = 99.16432 112.19407 105.67919
# Shear Modulus (GPa) = 46.81200 50.32521 48.56860
#
# Velocity S-wave (km/s) = 4.04006 4.18892 4.11516
# Velocity P-wave (km/s) = 7.50591 7.90665 7.70888
#
# Compressibility (1/GPa) = 0.01008427
#
# Stress axis : x y z
#
# Youngs Moduli (GPa) = 158.14772 182.14121 120.35458
#
# Poissons Ratio (x) = 0.41942 0.06074
# Poissons Ratio (y) = 0.36417 0.26617
# Poissons Ratio (z) = 0.07982 0.40282
#
# Static dielectric constant tensor:
#      x y z
#    x -23.499400 0.000050 0.000010 
#    y 0.000050 2.008800 0.000000 
#    z 0.000010 0.000000 2.568310 
# 
# From -- ./inp_files/52993.got.cif
#   From: 2010.05.17/outbox.cif.g08.bks.cpg/sg70_27_cif.got.tgz:52993.got - 2010.06.03 15:57:51.
