data_PCOD9515820
_publ_section_title
;
Structure prediction by ZEFSAII (Michael W. Deem and Ramdas Pophale) SiO2 
 PCOD9515820
Probable space group: F D D D
;
_chemical_formula_sum "Si O2"
_cell_formula_units_Z 136
_cell_length_a 16.331791
_cell_length_b 21.769083
_cell_length_c 16.331818
_cell_angle_alpha 90.000000
_cell_angle_beta 90.000000
_cell_angle_gamma 90.000000
_cell_volume 5806.420449
_symmetry_space_group_name_H-M "F D D D"
_symmetry_group_IT_number 70
_space_group.IT_coordinate_system_code '2'
_symmetry_cell_setting 'orthorhombic'
loop_
_space_group_symop_operation_xyz
x,y,z
1/4-x,1/4-y,z
x,1/4-y,1/4-z
1/4-x,y,1/4-z
-x,-y,-z
3/4+x,3/4+y,-z
-x,3/4+y,3/4+z
3/4+x,-y,3/4+z
x,1/2+y,1/2+z
1/4-x,3/4-y,1/2+z
x,3/4-y,3/4-z
1/4-x,1/2+y,3/4-z
-x,1/2-y,1/2-z
3/4+x,1/4+y,1/2-z
-x,1/4+y,1/4+z
3/4+x,1/2-y,1/4+z
1/2+x,y,1/2+z
3/4-x,1/4-y,1/2+z
1/2+x,1/4-y,3/4-z
3/4-x,y,3/4-z
1/2-x,-y,1/2-z
1/4+x,3/4+y,1/2-z
1/2-x,3/4+y,1/4+z
1/4+x,-y,1/4+z
1/2+x,1/2+y,z
3/4-x,3/4-y,z
1/2+x,3/4-y,1/4-z
3/4-x,1/2+y,1/4-z
1/2-x,1/2-y,-z
1/4+x,1/4+y,-z
1/2-x,1/4+y,3/4+z
1/4+x,1/2-y,3/4+z
loop_
_atom_site_type_symbol
_atom_site_label
_atom_site_fract_x
_atom_site_fract_y
_atom_site_fract_z
Si Si1 0.875000 0.375000 0.375000
Si Si2 0.809225 0.320913 0.678080
Si Si3 0.747597 0.334825 0.502404
Si Si4 0.556062 0.970428 0.193938
Si Si5 0.178079 0.820913 0.809226
O O1 0.816809 0.334945 0.433191
O O2 0.875000 0.375000 0.676923
O O3 0.779207 0.307915 0.587239
O O4 0.837863 0.261342 0.729302
O O5 0.730769 0.343123 0.730769
O O6 0.726798 0.406136 0.523203
O O7 0.662761 0.307915 0.470793
O O8 0.625000 0.964133 0.125000
O O9 0.479302 0.011342 0.162137
O O10 0.176922 0.875000 0.875000
#
# Coordination Sequence:
#
# PCOD9515820 Si02
#       5
#     8  32  32  32  32
#     4  12  28  48  68  96 148 188 252 296 368 412
#     4  10  22  40  69  99 145 179 235 308 348 432
#     4  12  24  49  69 102 144 202 243 300 363 439
#     4  10  24  42  77 108 139 191 240 296 387 433
#     4  10  22  40  69  99 145 179 235 308 348 432
#
# _framework density 23.422348
#
# number of rings (size 3 to 8) (size 9 to 14) (size 15 to 20)
#    1.412    0.000    2.353    3.529    0.000    3.765 
#    0.000    7.059    0.000    0.000    0.000    0.000 
#    0.000    0.000    0.000    0.000    0.000    0.000 
#
# Total GULP energy -190380.305517 kJ/mol
# GULP energy per Si atom -5599.420750 kJ/mol
# Density = 2.336904 g / cm^3
# Si number density = 23.422348 Si / 1000 Ang^3
#
#
#
# Elastic Constant Matrix: (Units=GPa)
#
#
# Indices 1 2 3 4 5 6 
#
# 1 176.3815 44.2840 86.4652 0.0000 0.0000 0.0000
# 2 44.2840 145.9124 44.2856 0.0000 0.0000 0.0000
# 3 86.4652 44.2856 176.3844 0.0000 0.0000 0.0000
# 4 0.0000 0.0000 0.0000 -6.5333 0.0000 0.0000
# 5 0.0000 0.0000 0.0000 0.0000 65.0190 0.0000
# 6 0.0000 0.0000 0.0000 0.0000 0.0000 -6.5334
#
#
#
# Elastic Compliance Matrix: (Units=1/GPa)
#
#
# Indices 1 2 3 4 5 6 
#
# 1 0.007680 -0.001286 -0.003442 0.000000 0.000000 0.000000
# 2 -0.001286 0.007634 -0.001286 0.000000 0.000000 0.000000
# 3 -0.003442 -0.001286 0.007680 0.000000 0.000000 0.000000
# 4 0.000000 0.000000 0.000000 -0.153063 0.000000 0.000000
# 5 0.000000 0.000000 0.000000 0.000000 0.015380 0.000000
# 6 0.000000 0.000000 0.000000 0.000000 0.000000 -0.153059
#
#
# Mechanical properties :
#
#
# Convention : Reuss Voigt Hill
#
# Bulk Modulus (GPa) = 91.19852 94.30533 92.75192
# Shear Modulus (GPa) = -19.83618 31.96667 6.06525
#
# Velocity S-wave (km/s) = -2.91330 3.69832 1.61094
# Velocity P-wave (km/s) = 5.26352 7.65422 6.56855
#
# Compressibility (1/GPa) = 0.01096509
#
# Stress axis : x y z
#
# Youngs Moduli (GPa) = 130.21467 130.99012 130.21621
#
# Poissons Ratio (x) = 0.16847 0.44817
# Poissons Ratio (y) = 0.16748 0.16749
# Poissons Ratio (z) = 0.44816 0.16849
#
# Static dielectric constant tensor:
#      x y z
#    x 1.846940 0.000000 0.000000 
#    y 0.000000 1.935070 0.000000 
#    z 0.000000 0.000000 1.846930 
# 
# From -- ./inp_files/34703.got.cif
#   From: 2010.05.17/outbox.cif.g08.bks.cpg/sg70_18_cif.got.tgz:34703.got - 2010.06.03 15:57:51.
