data_PCOD9515431
_publ_section_title
;
Structure prediction by ZEFSAII (Michael W. Deem and Ramdas Pophale) SiO2 
 PCOD9515431
Probable space group: F D D D
;
_chemical_formula_sum "Si O2"
_cell_formula_units_Z 160
_cell_length_a 14.443779
_cell_length_b 27.360390
_cell_length_c 17.933001
_cell_angle_alpha 90.000000
_cell_angle_beta 90.000000
_cell_angle_gamma 90.000000
_cell_volume 7086.896515
_symmetry_space_group_name_H-M "F D D D"
_symmetry_group_IT_number 70
_space_group.IT_coordinate_system_code '2'
_symmetry_cell_setting 'orthorhombic'
loop_
_space_group_symop_operation_xyz
x,y,z
1/4-x,1/4-y,z
x,1/4-y,1/4-z
1/4-x,y,1/4-z
-x,-y,-z
3/4+x,3/4+y,-z
-x,3/4+y,3/4+z
3/4+x,-y,3/4+z
x,1/2+y,1/2+z
1/4-x,3/4-y,1/2+z
x,3/4-y,3/4-z
1/4-x,1/2+y,3/4-z
-x,1/2-y,1/2-z
3/4+x,1/4+y,1/2-z
-x,1/4+y,1/4+z
3/4+x,1/2-y,1/4+z
1/2+x,y,1/2+z
3/4-x,1/4-y,1/2+z
1/2+x,1/4-y,3/4-z
3/4-x,y,3/4-z
1/2-x,-y,1/2-z
1/4+x,3/4+y,1/2-z
1/2-x,3/4+y,1/4+z
1/4+x,-y,1/4+z
1/2+x,1/2+y,z
3/4-x,3/4-y,z
1/2+x,3/4-y,1/4-z
3/4-x,1/2+y,1/4-z
1/2-x,1/2-y,-z
1/4+x,1/4+y,-z
1/2-x,1/4+y,3/4+z
1/4+x,1/2-y,3/4+z
loop_
_atom_site_type_symbol
_atom_site_label
_atom_site_fract_x
_atom_site_fract_y
_atom_site_fract_z
Si Si1 0.592719 0.441296 0.208613
Si Si2 0.159504 0.253609 0.823955
Si Si3 0.403571 0.826711 0.572399
Si Si4 0.860668 0.665631 0.286003
Si Si5 0.549708 0.038392 0.560449
O O1 0.625000 0.428869 0.125000
O O2 0.493263 0.468796 0.208499
O O3 0.600191 0.386933 0.242683
O O4 0.667045 0.484932 0.221800
O O5 0.094187 0.217882 0.870791
O O6 0.110655 0.288101 0.764088
O O7 0.209152 0.286501 0.887894
O O8 0.375000 0.875000 0.617007
O O9 0.499535 0.831946 0.530355
O O10 0.323708 0.821628 0.509995
O O11 0.875000 0.672405 0.375000
O O12 0.625000 0.049977 0.625000
#
# Coordination Sequence:
#
# PCOD9515431 Si02
#       5
#    32  32  32  32  32
#     4   8  16  36  60  81 120 159 195 254 312 368
#     4  10  21  39  62  91 127 162 204 263 318 375
#     4  12  22  36  63  90 120 168 210 254 325 384
#     4  11  22  39  62  90 121 166 214 254 311 388
#     4   9  17  37  57  85 128 154 190 262 316 366
#
# _framework density 22.576878000000001
#
# number of rings (size 3 to 8) (size 9 to 14) (size 15 to 20)
#    0.000    2.400    4.000    4.200    0.000    1.200 
#    0.000    3.000    0.000    3.000    0.000    0.000 
#    0.000    0.000    0.000    0.000    0.000    0.000 
#
# Total GULP energy -222787.223506 kJ/mol
# GULP energy per Si atom -5569.680588 kJ/mol
# Density = 2.252549 g / cm^3
# Si number density = 22.576878 Si / 1000 Ang^3
#
#
#
# Elastic Constant Matrix: (Units=GPa)
#
#
# Indices 1 2 3 4 5 6 
#
# 1 31.5964 12.7497 -4.2712 0.0000 0.0000 0.0000
# 2 12.7497 139.4931 57.8011 0.0000 0.0000 0.0000
# 3 -4.2712 57.8011 91.4831 0.0000 0.0000 0.0000
# 4 0.0000 0.0000 0.0000 14.4521 0.0000 0.0000
# 5 0.0000 0.0000 0.0000 0.0000 -1.0204 0.0000
# 6 0.0000 0.0000 0.0000 0.0000 0.0000 2.9756
#
#
#
# Elastic Compliance Matrix: (Units=1/GPa)
#
#
# Indices 1 2 3 4 5 6 
#
# 1 0.034389 -0.005159 0.004865 0.000000 0.000000 0.000000
# 2 -0.005159 0.010485 -0.006866 0.000000 0.000000 0.000000
# 3 0.004865 -0.006866 0.015496 0.000000 0.000000 0.000000
# 4 0.000000 0.000000 0.000000 0.069194 0.000000 0.000000
# 5 0.000000 0.000000 0.000000 0.000000 -0.980030 0.000000
# 6 0.000000 0.000000 0.000000 0.000000 0.000000 0.336066
#
#
# Mechanical properties :
#
#
# Convention : Reuss Voigt Hill
#
# Bulk Modulus (GPa) = 21.71518 43.90352 32.80935
# Shear Modulus (GPa) = -10.31501 16.36767 3.02633
#
# Velocity S-wave (km/s) = -2.13980 2.69546 1.15904
# Velocity P-wave (km/s) = 1.87995 5.40146 4.04413
#
# Compressibility (1/GPa) = 0.04605073
#
# Stress axis : x y z
#
# Youngs Moduli (GPa) = 29.07937 95.37205 64.53270
#
# Poissons Ratio (x) = 0.49203 -0.31396
# Poissons Ratio (y) = 0.15002 0.44306
# Poissons Ratio (z) = -0.14148 0.65479
#
# Static dielectric constant tensor:
#      x y z
#    x 1.974270 0.000000 0.000000 
#    y 0.000000 1.979350 0.000000 
#    z 0.000000 0.000000 1.916270 
# 
# From -- ./inp_files/35080.got.cif
#   From: 2010.05.17/outbox.cif.g08.bks.cpg/sg70_18_cif.got.tgz:35080.got - 2010.06.03 15:57:51.
