data_PCOD9515117
_publ_section_title
;
Structure prediction by ZEFSAII (Michael W. Deem and Ramdas Pophale) SiO2 
 PCOD9515117
Probable space group: F D D D
;
_chemical_formula_sum "Si O2"
_cell_formula_units_Z 136
_cell_length_a 15.213748
_cell_length_b 11.779868
_cell_length_c 33.881183
_cell_angle_alpha 90.000000
_cell_angle_beta 90.000000
_cell_angle_gamma 90.000000
_cell_volume 6072.048169
_symmetry_space_group_name_H-M "F D D D"
_symmetry_group_IT_number 70
_space_group.IT_coordinate_system_code '2'
_symmetry_cell_setting 'orthorhombic'
loop_
_space_group_symop_operation_xyz
x,y,z
1/4-x,1/4-y,z
x,1/4-y,1/4-z
1/4-x,y,1/4-z
-x,-y,-z
3/4+x,3/4+y,-z
-x,3/4+y,3/4+z
3/4+x,-y,3/4+z
x,1/2+y,1/2+z
1/4-x,3/4-y,1/2+z
x,3/4-y,3/4-z
1/4-x,1/2+y,3/4-z
-x,1/2-y,1/2-z
3/4+x,1/4+y,1/2-z
-x,1/4+y,1/4+z
3/4+x,1/2-y,1/4+z
1/2+x,y,1/2+z
3/4-x,1/4-y,1/2+z
1/2+x,1/4-y,3/4-z
3/4-x,y,3/4-z
1/2-x,-y,1/2-z
1/4+x,3/4+y,1/2-z
1/2-x,3/4+y,1/4+z
1/4+x,-y,1/4+z
1/2+x,1/2+y,z
3/4-x,3/4-y,z
1/2+x,3/4-y,1/4-z
3/4-x,1/2+y,1/4-z
1/2-x,1/2-y,-z
1/4+x,1/4+y,-z
1/2-x,1/4+y,3/4+z
1/4+x,1/2-y,3/4+z
loop_
_atom_site_type_symbol
_atom_site_label
_atom_site_fract_x
_atom_site_fract_y
_atom_site_fract_z
Si Si1 0.389907 0.625000 0.625000
Si Si2 0.761768 0.536833 0.185697
Si Si3 0.875000 0.875000 0.875000
Si Si4 0.970856 0.153454 0.982340
Si Si5 0.875000 0.875000 0.162291
Si Si6 0.985101 0.126486 0.768144
O O1 0.344677 0.594060 0.666164
O O2 0.407437 0.761904 0.638061
O O3 0.686475 0.551591 0.153255
O O4 0.772415 0.407281 0.197636
O O5 0.743282 0.603549 0.226242
O O6 0.869598 0.116567 0.976590
O O7 0.981886 0.286317 0.985931
O O8 0.792498 0.853291 0.192448
O O9 0.000000 0.250000 0.750000
#
# Coordination Sequence:
#
# PCOD9515117 Si02
#       6
#    16  32   8  32  16  32
#     4  11  24  45  68  98 146 188 232 303 370 455
#     4  10  22  39  66 103 134 180 230 296 359 430
#     4  10  20  40  66 100 156 182 220 302 372 428
#     4  11  23  40  71 103 133 182 247 297 358 447
#     4  12  26  46  67 104 138 199 238 303 380 447
#     4  12  22  43  68  98 138 182 240 303 364 432
#
# _framework density 22.397714000000001
#
# number of rings (size 3 to 8) (size 9 to 14) (size 15 to 20)
#    0.000    0.941    4.706    1.412    3.294    6.588 
#    0.000    0.000    0.000    0.000    0.000    0.000 
#    0.000    0.000    0.000    0.000    0.000    0.000 
#
# Total GULP energy -189322.922913 kJ/mol
# GULP energy per Si atom -5568.321262 kJ/mol
# Density = 2.234674 g / cm^3
# Si number density = 22.397714 Si / 1000 Ang^3
#
#
#
# Elastic Constant Matrix: (Units=GPa)
#
#
# Indices 1 2 3 4 5 6 
#
# 1 84.1832 25.0362 17.6557 0.0000 0.0000 0.0000
# 2 25.0362 156.4975 55.1649 0.0000 0.0000 0.0000
# 3 17.6557 55.1649 97.5798 0.0000 0.0000 0.0000
# 4 0.0000 0.0000 0.0000 58.2821 0.0000 0.0000
# 5 0.0000 0.0000 0.0000 0.0000 4.8208 0.0000
# 6 0.0000 0.0000 0.0000 0.0000 0.0000 33.7390
#
#
#
# Elastic Compliance Matrix: (Units=1/GPa)
#
#
# Indices 1 2 3 4 5 6 
#
# 1 0.012629 -0.001517 -0.001427 0.000000 0.000000 0.000000
# 2 -0.001517 0.008162 -0.004340 0.000000 0.000000 0.000000
# 3 -0.001427 -0.004340 0.012960 0.000000 0.000000 0.000000
# 4 0.000000 0.000000 0.000000 0.017158 0.000000 0.000000
# 5 0.000000 0.000000 0.000000 0.000000 0.207434 0.000000
# 6 0.000000 0.000000 0.000000 0.000000 0.000000 0.029639
#
#
# Mechanical properties :
#
#
# Convention : Reuss Voigt Hill
#
# Bulk Modulus (GPa) = 52.13088 59.33046 55.73067
# Shear Modulus (GPa) = 16.18403 35.39530 25.78967
#
# Velocity S-wave (km/s) = 2.69099 3.97962 3.39697
# Velocity P-wave (km/s) = 5.74290 6.90388 6.34998
#
# Compressibility (1/GPa) = 0.01918249
#
# Stress axis : x y z
#
# Youngs Moduli (GPa) = 79.17998 122.51249 77.16177
#
# Poissons Ratio (x) = 0.18589 0.11014
# Poissons Ratio (y) = 0.12014 0.33488
# Poissons Ratio (z) = 0.11302 0.53170
#
# Static dielectric constant tensor:
#      x y z
#    x 3.589150 0.000000 0.000000 
#    y 0.000000 1.949510 0.000000 
#    z 0.000000 0.000000 1.794600 
# 
# From -- ./inp_files/67128.got.cif
#   From: 2010.05.17/outbox.cif.g08.bks.cpg/sg70_34_cif.got.tgz:67128.got - 2010.06.03 15:57:51.
