data_PCOD9515467
_publ_section_title
;
Structure prediction by ZEFSAII (Michael W. Deem and Ramdas Pophale) SiO2 
 PCOD9515467
Probable space group: F D D D
;
_chemical_formula_sum "Si O2"
_cell_formula_units_Z 120
_cell_length_a 21.623659
_cell_length_b 27.729890
_cell_length_c 8.550032
_cell_angle_alpha 90.000000
_cell_angle_beta 90.000000
_cell_angle_gamma 90.000000
_cell_volume 5126.784599
_symmetry_space_group_name_H-M "F D D D"
_symmetry_group_IT_number 70
_space_group.IT_coordinate_system_code '2'
_symmetry_cell_setting 'orthorhombic'
loop_
_space_group_symop_operation_xyz
x,y,z
1/4-x,1/4-y,z
x,1/4-y,1/4-z
1/4-x,y,1/4-z
-x,-y,-z
3/4+x,3/4+y,-z
-x,3/4+y,3/4+z
3/4+x,-y,3/4+z
x,1/2+y,1/2+z
1/4-x,3/4-y,1/2+z
x,3/4-y,3/4-z
1/4-x,1/2+y,3/4-z
-x,1/2-y,1/2-z
3/4+x,1/4+y,1/2-z
-x,1/4+y,1/4+z
3/4+x,1/2-y,1/4+z
1/2+x,y,1/2+z
3/4-x,1/4-y,1/2+z
1/2+x,1/4-y,3/4-z
3/4-x,y,3/4-z
1/2-x,-y,1/2-z
1/4+x,3/4+y,1/2-z
1/2-x,3/4+y,1/4+z
1/4+x,-y,1/4+z
1/2+x,1/2+y,z
3/4-x,3/4-y,z
1/2+x,3/4-y,1/4-z
3/4-x,1/2+y,1/4-z
1/2-x,1/2-y,-z
1/4+x,1/4+y,-z
1/2-x,1/4+y,3/4+z
1/4+x,1/2-y,3/4+z
loop_
_atom_site_type_symbol
_atom_site_label
_atom_site_fract_x
_atom_site_fract_y
_atom_site_fract_z
Si Si1 0.125000 0.882495 0.125000
Si Si2 0.125000 0.125000 0.625000
Si Si3 0.895152 0.296415 0.635777
Si Si4 0.648119 0.306050 0.357002
Si Si5 0.218338 0.181660 0.085482
O O1 0.104461 0.917051 0.266181
O O2 0.165821 0.843551 0.219476
O O3 0.088969 0.087407 0.512204
O O4 0.882911 0.242803 0.697799
O O5 0.830185 0.311170 0.553882
O O6 0.942774 0.293601 0.492834
O O7 0.712921 0.299432 0.447169
O O8 0.217627 0.125000 0.125000
#
# Coordination Sequence:
#
# PCOD9515467 Si02
#       5
#    16   8  32  32  32
#     4  10  21  40  62  86 130 158 209 266 304 370
#     4  12  22  38  60  92 136 150 202 280 320 340
#     4  11  23  40  66  95 128 168 210 266 313 383
#     4  11  23  42  66  94 126 170 214 260 321 373
#     4  11  20  44  66  87 128 177 216 243 313 401
#
# _framework density 23.406483000000001
#
# number of rings (size 3 to 8) (size 9 to 14) (size 15 to 20)
#    0.000    1.067    5.333    4.000    0.000    0.000 
#    0.000   18.667    0.000    0.000    0.000    0.000 
#    0.000    0.000    0.000    0.000    0.000    0.000 
#
# Total GULP energy -167260.843235 kJ/mol
# GULP energy per Si atom -5575.361441 kJ/mol
# Density = 2.335321 g / cm^3
# Si number density = 23.406483 Si / 1000 Ang^3
#
#
#
# Elastic Constant Matrix: (Units=GPa)
#
#
# Indices 1 2 3 4 5 6 
#
# 1 37.8517 7.4019 19.9215 0.0001 -0.0010 -0.0003
# 2 7.4019 172.8956 46.4548 0.0002 -0.0002 -0.0001
# 3 19.9215 46.4548 107.4276 0.0007 -0.0022 -0.0007
# 4 0.0001 0.0002 0.0007 37.3659 -0.0003 -0.0001
# 5 -0.0010 -0.0002 -0.0022 -0.0003 10.7975 0.0005
# 6 -0.0003 -0.0001 -0.0007 -0.0001 0.0005 21.8312
#
#
#
# Elastic Compliance Matrix: (Units=1/GPa)
#
#
# Indices 1 2 3 4 5 6 
#
# 1 0.029284 0.000232 -0.005531 0.000000 0.000002 0.000000
# 2 0.000232 0.006546 -0.002874 0.000000 0.000000 0.000000
# 3 -0.005531 -0.002874 0.011577 0.000000 0.000002 0.000000
# 4 0.000000 0.000000 0.000000 0.026762 0.000001 0.000000
# 5 0.000002 0.000000 0.000002 0.000001 0.092614 -0.000002
# 6 0.000000 0.000000 0.000000 0.000000 -0.000002 0.045806
#
#
# Mechanical properties :
#
#
# Convention : Reuss Voigt Hill
#
# Bulk Modulus (GPa) = 32.19306 51.74794 41.97050
# Shear Modulus (GPa) = 20.89527 30.29204 25.59365
#
# Velocity S-wave (km/s) = 2.99107 3.60136 3.31031
# Velocity P-wave (km/s) = 5.07074 6.28088 5.70797
#
# Compressibility (1/GPa) = 0.03106259
#
# Stress axis : x y z
#
# Youngs Moduli (GPa) = 34.14785 152.76412 86.37822
#
# Poissons Ratio (x) = -0.03550 0.47776
# Poissons Ratio (y) = -0.00794 0.24823
# Poissons Ratio (z) = 0.18887 0.43901
#
# Static dielectric constant tensor:
#      x y z
#    x 1.851280 0.000000 0.000000 
#    y 0.000000 1.933200 0.000000 
#    z 0.000000 0.000000 1.929430 
# 
# From -- ./inp_files/10850.got.cif
#   From: 2010.05.17/outbox.cif.g08.bks.cpg/sg70_6_cif.got.tgz:10850.got - 2010.06.03 15:57:51.
