data_PCOD9515374
_publ_section_title
;
Structure prediction by ZEFSAII (Michael W. Deem and Ramdas Pophale) SiO2 
 PCOD9515374
Probable space group: F D D D
;
_chemical_formula_sum "Si O2"
_cell_formula_units_Z 96
_cell_length_a 28.612484
_cell_length_b 14.086062
_cell_length_c 8.470862
_cell_angle_alpha 90.000000
_cell_angle_beta 90.000000
_cell_angle_gamma 90.000000
_cell_volume 3414.072702
_symmetry_space_group_name_H-M "F D D D"
_symmetry_group_IT_number 70
_space_group.IT_coordinate_system_code '2'
_symmetry_cell_setting 'orthorhombic'
loop_
_space_group_symop_operation_xyz
x,y,z
1/4-x,1/4-y,z
x,1/4-y,1/4-z
1/4-x,y,1/4-z
-x,-y,-z
3/4+x,3/4+y,-z
-x,3/4+y,3/4+z
3/4+x,-y,3/4+z
x,1/2+y,1/2+z
1/4-x,3/4-y,1/2+z
x,3/4-y,3/4-z
1/4-x,1/2+y,3/4-z
-x,1/2-y,1/2-z
3/4+x,1/4+y,1/2-z
-x,1/4+y,1/4+z
3/4+x,1/2-y,1/4+z
1/2+x,y,1/2+z
3/4-x,1/4-y,1/2+z
1/2+x,1/4-y,3/4-z
3/4-x,y,3/4-z
1/2-x,-y,1/2-z
1/4+x,3/4+y,1/2-z
1/2-x,3/4+y,1/4+z
1/4+x,-y,1/4+z
1/2+x,1/2+y,z
3/4-x,3/4-y,z
1/2+x,3/4-y,1/4-z
3/4-x,1/2+y,1/4-z
1/2-x,1/2-y,-z
1/4+x,1/4+y,-z
1/2-x,1/4+y,3/4+z
1/4+x,1/2-y,3/4+z
loop_
_atom_site_type_symbol
_atom_site_label
_atom_site_fract_x
_atom_site_fract_y
_atom_site_fract_z
Si Si1 0.783276 0.041461 0.883709
Si Si2 0.895515 0.008596 0.627411
Si Si3 0.444426 0.994164 0.804150
O O1 0.800085 0.142220 0.820988
O O2 0.750000 0.000000 0.750000
O O3 0.826769 0.986326 0.962384
O O4 0.745232 0.046622 0.023451
O O5 0.896571 0.125000 0.625000
O O6 0.842634 0.978750 0.587992
O O7 0.923093 0.968808 0.474462
#
# Coordination Sequence:
#
# PCOD9515374 Si02
#       3
#    32  32  32
#     4  11  21  35  60  93 125 165 217 274 326 388
#     4   9  19  37  60  84 119 170 218 260 325 407
#     4  10  21  38  60  87 123 169 217 266 325 398
#
# _framework density 28.118908999999999
#
# number of rings (size 3 to 8) (size 9 to 14) (size 15 to 20)
#    0.000    2.000    0.000    4.000    0.000    4.000 
#    0.000    1.667    0.000   20.000    0.000    0.000 
#    0.000    0.000    0.000    0.000    0.000    0.000 
#
# Total GULP energy -134528.327930 kJ/mol
# GULP energy per Si atom -5605.346997 kJ/mol
# Density = 2.805491 g / cm^3
# Si number density = 28.118909 Si / 1000 Ang^3
#
#
#
# Elastic Constant Matrix: (Units=GPa)
#
#
# Indices 1 2 3 4 5 6 
#
# 1 226.9992 29.4937 86.8364 0.0000 0.0000 0.0000
# 2 29.4937 76.5077 58.7260 0.0000 0.0000 0.0000
# 3 86.8364 58.7260 157.4998 0.0000 0.0000 0.0000
# 4 0.0000 0.0000 0.0000 36.6871 0.0000 0.0000
# 5 0.0000 0.0000 0.0000 0.0000 76.2532 0.0000
# 6 0.0000 0.0000 0.0000 0.0000 0.0000 13.5696
#
#
#
# Elastic Compliance Matrix: (Units=1/GPa)
#
#
# Indices 1 2 3 4 5 6 
#
# 1 0.005588 0.000295 -0.003191 0.000000 0.000000 0.000000
# 2 0.000295 0.018327 -0.006996 0.000000 0.000000 0.000000
# 3 -0.003191 -0.006996 0.010717 0.000000 0.000000 0.000000
# 4 0.000000 0.000000 0.000000 0.027258 0.000000 0.000000
# 5 0.000000 0.000000 0.000000 0.000000 0.013114 0.000000
# 6 0.000000 0.000000 0.000000 0.000000 0.000000 0.073694
#
#
# Mechanical properties :
#
#
# Convention : Reuss Voigt Hill
#
# Bulk Modulus (GPa) = 67.34912 90.12432 78.73672
# Shear Modulus (GPa) = 28.83001 44.36534 36.59768
#
# Velocity S-wave (km/s) = 3.20549 3.97643 3.61159
# Velocity P-wave (km/s) = 6.14034 7.29407 6.74193
#
# Compressibility (1/GPa) = 0.01484800
#
# Stress axis : x y z
#
# Youngs Moduli (GPa) = 178.97016 54.56447 93.30967
#
# Poissons Ratio (x) = -0.01610 0.29772
# Poissons Ratio (y) = -0.05282 0.65281
# Poissons Ratio (z) = 0.57104 0.38174
#
# Static dielectric constant tensor:
#      x y z
#    x 2.094870 0.000000 0.000000 
#    y 0.000000 2.243150 0.000000 
#    z 0.000000 0.000000 2.262090 
# 
# From -- ./inp_files/8042.got.cif
#   From: 2010.05.17/outbox.cif.g08.bks.cpg/sg70_5_cif.got.tgz:8042.got - 2010.06.03 15:57:51.
