data_PCOD9515937
_publ_section_title
;
Structure prediction by ZEFSAII (Michael W. Deem and Ramdas Pophale) SiO2 
 PCOD9515937
Probable space group: F D D D
;
_chemical_formula_sum "Si O2"
_cell_formula_units_Z 136
_cell_length_a 15.250840
_cell_length_b 22.401219
_cell_length_c 15.355735
_cell_angle_alpha 90.000000
_cell_angle_beta 90.000000
_cell_angle_gamma 90.000000
_cell_volume 5246.093485
_symmetry_space_group_name_H-M "F D D D"
_symmetry_group_IT_number 70
_space_group.IT_coordinate_system_code '2'
_symmetry_cell_setting 'orthorhombic'
loop_
_space_group_symop_operation_xyz
x,y,z
1/4-x,1/4-y,z
x,1/4-y,1/4-z
1/4-x,y,1/4-z
-x,-y,-z
3/4+x,3/4+y,-z
-x,3/4+y,3/4+z
3/4+x,-y,3/4+z
x,1/2+y,1/2+z
1/4-x,3/4-y,1/2+z
x,3/4-y,3/4-z
1/4-x,1/2+y,3/4-z
-x,1/2-y,1/2-z
3/4+x,1/4+y,1/2-z
-x,1/4+y,1/4+z
3/4+x,1/2-y,1/4+z
1/2+x,y,1/2+z
3/4-x,1/4-y,1/2+z
1/2+x,1/4-y,3/4-z
3/4-x,y,3/4-z
1/2-x,-y,1/2-z
1/4+x,3/4+y,1/2-z
1/2-x,3/4+y,1/4+z
1/4+x,-y,1/4+z
1/2+x,1/2+y,z
3/4-x,3/4-y,z
1/2+x,3/4-y,1/4-z
3/4-x,1/2+y,1/4-z
1/2-x,1/2-y,-z
1/4+x,1/4+y,-z
1/2-x,1/4+y,3/4+z
1/4+x,1/2-y,3/4+z
loop_
_atom_site_type_symbol
_atom_site_label
_atom_site_fract_x
_atom_site_fract_y
_atom_site_fract_z
Si Si1 0.245202 0.413091 0.800777
Si Si2 0.791275 0.293141 0.628077
Si Si3 0.125000 0.625000 0.125000
Si Si4 0.433540 0.465958 0.472504
Si Si5 0.074759 0.860630 0.215768
O O1 0.288074 0.375000 0.875000
O O2 0.232017 0.478120 0.842543
O O3 0.297029 0.418930 0.710446
O O4 0.152644 0.380036 0.780193
O O5 0.873870 0.288033 0.690929
O O6 0.719650 0.326801 0.685745
O O7 0.201823 0.605609 0.199242
O O8 0.375000 0.462831 0.375000
O O9 0.460362 0.539460 0.479871
O O10 0.125000 0.845481 0.125000
#
# Coordination Sequence:
#
# PCOD9515937 Si02
#       5
#    32  32   8  32  32
#     4  10  22  43  74 100 132 190 235 278 354 432
#     4  10  22  44  66 103 144 174 230 299 345 413
#     4  12  28  48  68 116 130 180 254 280 354 444
#     4  12  26  43  70 102 142 183 225 299 353 418
#     4  10  22  43  66  95 138 177 225 285 342 413
#
# _framework density 25.924053000000001
#
# number of rings (size 3 to 8) (size 9 to 14) (size 15 to 20)
#    0.000    1.412    2.353    1.412    6.588    0.000 
#   12.706    0.000    5.176    0.000    0.000    0.000 
#    0.000    0.000    0.000    0.000    0.000    0.000 
#
# Total GULP energy -189287.620269 kJ/mol
# GULP energy per Si atom -5567.282949 kJ/mol
# Density = 2.586505 g / cm^3
# Si number density = 25.924053 Si / 1000 Ang^3
#
#
#
# Elastic Constant Matrix: (Units=GPa)
#
#
# Indices 1 2 3 4 5 6 
#
# 1 127.9427 84.8284 63.7602 0.0000 0.0000 0.0000
# 2 84.8284 149.0908 58.4863 0.0000 0.0000 0.0000
# 3 63.7602 58.4863 197.3567 0.0000 0.0000 0.0000
# 4 0.0000 0.0000 0.0000 46.5930 0.0000 0.0000
# 5 0.0000 0.0000 0.0000 0.0000 -65.6351 0.0000
# 6 0.0000 0.0000 0.0000 0.0000 0.0000 106.5790
#
#
#
# Elastic Compliance Matrix: (Units=1/GPa)
#
#
# Indices 1 2 3 4 5 6 
#
# 1 0.013450 -0.006730 -0.002351 0.000000 0.000000 0.000000
# 2 -0.006730 0.010958 -0.001073 0.000000 0.000000 0.000000
# 3 -0.002351 -0.001073 0.006144 0.000000 0.000000 0.000000
# 4 0.000000 0.000000 0.000000 0.021462 0.000000 0.000000
# 5 0.000000 0.000000 0.000000 0.000000 -0.015236 0.000000
# 6 0.000000 0.000000 0.000000 0.000000 0.000000 0.009383
#
#
# Mechanical properties :
#
#
# Convention : Reuss Voigt Hill
#
# Bulk Modulus (GPa) = 97.61978 98.72667 98.17322
# Shear Modulus (GPa) = 71.54722 35.32839 53.43780
#
# Velocity S-wave (km/s) = 5.25915 3.69557 4.54510
# Velocity P-wave (km/s) = 8.63806 7.50835 8.09294
#
# Compressibility (1/GPa) = 0.01024383
#
# Stress axis : x y z
#
# Youngs Moduli (GPa) = 74.35012 91.26070 162.75104
#
# Poissons Ratio (x) = 0.61422 0.38258
# Poissons Ratio (y) = 0.50041 0.17461
# Poissons Ratio (z) = 0.17478 0.09791
#
# Static dielectric constant tensor:
#      x y z
#    x 1.805640 0.000000 0.000000 
#    y 0.000000 3.002040 0.000000 
#    z 0.000000 0.000000 1.517780 
# 
# From -- ./inp_files/29729.got.cif
#   From: 2010.05.17/outbox.cif.g08.bks.cpg/sg70_15_cif.got.tgz:29729.got - 2010.06.03 15:57:51.
