data_PCOD9515208
_publ_section_title
;
Structure prediction by ZEFSAII (Michael W. Deem and Ramdas Pophale) SiO2 
 PCOD9515208
Probable space group: F D D D
;
_chemical_formula_sum "Si O2"
_cell_formula_units_Z 208
_cell_length_a 21.178687
_cell_length_b 15.737206
_cell_length_c 29.818583
_cell_angle_alpha 90.000000
_cell_angle_beta 90.000000
_cell_angle_gamma 90.000000
_cell_volume 9938.335722
_symmetry_space_group_name_H-M "F D D D"
_symmetry_group_IT_number 70
_space_group.IT_coordinate_system_code '2'
_symmetry_cell_setting 'orthorhombic'
loop_
_space_group_symop_operation_xyz
x,y,z
1/4-x,1/4-y,z
x,1/4-y,1/4-z
1/4-x,y,1/4-z
-x,-y,-z
3/4+x,3/4+y,-z
-x,3/4+y,3/4+z
3/4+x,-y,3/4+z
x,1/2+y,1/2+z
1/4-x,3/4-y,1/2+z
x,3/4-y,3/4-z
1/4-x,1/2+y,3/4-z
-x,1/2-y,1/2-z
3/4+x,1/4+y,1/2-z
-x,1/4+y,1/4+z
3/4+x,1/2-y,1/4+z
1/2+x,y,1/2+z
3/4-x,1/4-y,1/2+z
1/2+x,1/4-y,3/4-z
3/4-x,y,3/4-z
1/2-x,-y,1/2-z
1/4+x,3/4+y,1/2-z
1/2-x,3/4+y,1/4+z
1/4+x,-y,1/4+z
1/2+x,1/2+y,z
3/4-x,3/4-y,z
1/2+x,3/4-y,1/4-z
3/4-x,1/2+y,1/4-z
1/2-x,1/2-y,-z
1/4+x,1/4+y,-z
1/2-x,1/4+y,3/4+z
1/4+x,1/2-y,3/4+z
loop_
_atom_site_type_symbol
_atom_site_label
_atom_site_fract_x
_atom_site_fract_y
_atom_site_fract_z
Si Si1 0.125000 0.490704 0.125000
Si Si2 0.542752 0.350295 0.674797
Si Si3 0.672468 0.797420 0.212232
Si Si4 0.427175 0.809337 0.543352
Si Si5 0.155638 0.474085 0.361778
Si Si6 0.525008 0.264774 0.198436
Si Si7 0.236264 0.468589 0.895639
O O1 0.074117 0.429260 0.148686
O O2 0.167629 0.529740 0.167190
O O3 0.600144 0.299642 0.696939
O O4 0.493312 0.392015 0.708308
O O5 0.506106 0.287885 0.641463
O O6 0.677513 0.774927 0.263943
O O7 0.713711 0.729455 0.185186
O O8 0.701078 0.888626 0.200659
O O9 0.375000 0.875000 0.526398
O O10 0.410878 0.781301 0.593719
O O11 0.162201 0.375000 0.375000
O O12 0.212259 0.500316 0.329998
O O13 0.086133 0.485442 0.340722
O O14 0.500000 0.250000 0.250000
O O15 0.239072 0.375000 0.875000
#
# Coordination Sequence:
#
# PCOD9515208 Si02
#       7
#    16  32  32  32  32  32  32
#     4  10  20  42  72  98 134 180 224 290 346 412
#     4  11  21  43  68  93 136 176 227 283 350 413
#     4  11  26  42  66 104 134 178 236 288 346 428
#     4  12  25  41  68  97 137 184 221 282 358 414
#     4  11  24  44  69  98 138 178 232 285 347 422
#     4  11  23  45  75  99 139 183 233 295 351 418
#     4  11  23  40  68  98 132 183 229 283 348 420
#
# _framework density 20.929058000000001
#
# number of rings (size 3 to 8) (size 9 to 14) (size 15 to 20)
#    0.000    0.923    6.154    0.923    2.154    6.154 
#    0.000    0.385    3.385    0.000    0.000    0.000 
#    0.000    0.000    0.000    0.000    0.000    0.000 
#
# Total GULP energy -290139.814127 kJ/mol
# GULP energy per Si atom -5579.611810 kJ/mol
# Density = 2.088142 g / cm^3
# Si number density = 20.929058 Si / 1000 Ang^3
#
#
#
# Elastic Constant Matrix: (Units=GPa)
#
#
# Indices 1 2 3 4 5 6 
#
# 1 168.7455 31.9229 41.1709 0.0000 0.0000 0.0000
# 2 31.9229 35.0711 1.0116 0.0000 0.0000 0.0000
# 3 41.1709 1.0116 86.3904 0.0000 0.0000 0.0000
# 4 0.0000 0.0000 0.0000 13.2542 0.0000 0.0000
# 5 0.0000 0.0000 0.0000 0.0000 11.4646 0.0000
# 6 0.0000 0.0000 0.0000 0.0000 0.0000 22.3668
#
#
#
# Elastic Compliance Matrix: (Units=1/GPa)
#
#
# Indices 1 2 3 4 5 6 
#
# 1 0.008269 -0.007416 -0.003854 0.000000 0.000000 0.000000
# 2 -0.007416 0.035174 0.003122 0.000000 0.000000 0.000000
# 3 -0.003854 0.003122 0.013376 0.000000 0.000000 0.000000
# 4 0.000000 0.000000 0.000000 0.075448 0.000000 0.000000
# 5 0.000000 0.000000 0.000000 0.000000 0.087225 0.000000
# 6 0.000000 0.000000 0.000000 0.000000 0.000000 0.044709
#
#
# Mechanical properties :
#
#
# Convention : Reuss Voigt Hill
#
# Bulk Modulus (GPa) = 24.67722 48.71308 36.69515
# Shear Modulus (GPa) = 17.00661 23.82390 20.41525
#
# Velocity S-wave (km/s) = 2.85368 3.37756 3.12661
# Velocity P-wave (km/s) = 4.76177 6.20777 5.53222
#
# Compressibility (1/GPa) = 0.04052321
#
# Stress axis : x y z
#
# Youngs Moduli (GPa) = 120.92906 28.43041 74.76345
#
# Poissons Ratio (x) = 0.21084 0.28814
# Poissons Ratio (y) = 0.89679 -0.23343
# Poissons Ratio (z) = 0.46607 -0.08877
#
# Static dielectric constant tensor:
#      x y z
#    x 1.765990 0.000000 0.000000 
#    y 0.000000 1.802430 0.000000 
#    z 0.000000 0.000000 1.819240 
# 
# From -- ./inp_files/60447.got.cif
#   From: 2010.05.17/outbox.cif.g08.bks.cpg/sg70_31_cif.got.tgz:60447.got - 2010.06.03 15:57:51.
