data_PCOD9515732
_publ_section_title
;
Structure prediction by ZEFSAII (Michael W. Deem and Ramdas Pophale) SiO2 
 PCOD9515732
Probable space group: F D D D
;
_chemical_formula_sum "Si O2"
_cell_formula_units_Z 192
_cell_length_a 15.123867
_cell_length_b 28.089785
_cell_length_c 21.030790
_cell_angle_alpha 90.000000
_cell_angle_beta 90.000000
_cell_angle_gamma 90.000000
_cell_volume 8934.430018
_symmetry_space_group_name_H-M "F D D D"
_symmetry_group_IT_number 70
_space_group.IT_coordinate_system_code '2'
_symmetry_cell_setting 'orthorhombic'
loop_
_space_group_symop_operation_xyz
x,y,z
1/4-x,1/4-y,z
x,1/4-y,1/4-z
1/4-x,y,1/4-z
-x,-y,-z
3/4+x,3/4+y,-z
-x,3/4+y,3/4+z
3/4+x,-y,3/4+z
x,1/2+y,1/2+z
1/4-x,3/4-y,1/2+z
x,3/4-y,3/4-z
1/4-x,1/2+y,3/4-z
-x,1/2-y,1/2-z
3/4+x,1/4+y,1/2-z
-x,1/4+y,1/4+z
3/4+x,1/2-y,1/4+z
1/2+x,y,1/2+z
3/4-x,1/4-y,1/2+z
1/2+x,1/4-y,3/4-z
3/4-x,y,3/4-z
1/2-x,-y,1/2-z
1/4+x,3/4+y,1/2-z
1/2-x,3/4+y,1/4+z
1/4+x,-y,1/4+z
1/2+x,1/2+y,z
3/4-x,3/4-y,z
1/2+x,3/4-y,1/4-z
3/4-x,1/2+y,1/4-z
1/2-x,1/2-y,-z
1/4+x,1/4+y,-z
1/2-x,1/4+y,3/4+z
1/4+x,1/2-y,3/4+z
loop_
_atom_site_type_symbol
_atom_site_label
_atom_site_fract_x
_atom_site_fract_y
_atom_site_fract_z
Si Si1 0.785763 0.462238 0.446596
Si Si2 0.375000 0.875000 0.875000
Si Si3 0.034594 0.968736 0.659894
Si Si4 0.375000 0.039379 0.375000
Si Si5 0.395471 0.241590 0.184860
Si Si6 0.218483 0.672812 0.010614
Si Si7 0.625000 0.125000 0.625000
Si Si8 0.771315 0.868226 0.137880
O O1 0.743153 0.468864 0.516435
O O2 0.858644 0.502639 0.433026
O O3 0.698017 0.476308 0.407520
O O4 0.820769 0.411299 0.421557
O O5 0.316341 0.843824 0.922127
O O6 0.125000 0.985004 0.625000
O O7 0.960152 0.997879 0.622987
O O8 0.026424 0.913493 0.642018
O O9 0.462520 0.072552 0.379345
O O10 0.401108 0.290401 0.226099
O O11 0.441065 0.201659 0.229161
O O12 0.231209 0.628455 0.963663
O O13 0.875000 0.875000 0.118999
#
# Coordination Sequence:
#
# PCOD9515732 Si02
#       8
#    32   8  32  16  32  32   8  32
#     4  11  25  49  71 102 141 190 245 307 356 442
#     4  12  24  34  64 108 138 178 210 302 378 452
#     4  11  23  42  73 105 140 190 234 296 376 431
#     4  11  24  43  73 102 140 190 253 295 356 443
#     4  10  23  42  65  98 140 186 231 293 359 435
#     4  10  22  38  62 100 146 179 227 287 368 445
#     4  10  28  54  70  96 144 196 256 302 358 422
#     4  11  22  41  64 103 143 187 233 296 353 436
#
# _framework density 21.489899000000001
#
# number of rings (size 3 to 8) (size 9 to 14) (size 15 to 20)
#    0.000    1.333    1.667    5.000    4.667    0.667 
#    3.000    2.500    0.000    0.000    0.000    0.000 
#    0.000    0.000    0.000    0.000    0.000    0.000 
#
# Total GULP energy -267731.102786 kJ/mol
# GULP energy per Si atom -5577.731308 kJ/mol
# Density = 2.144099 g / cm^3
# Si number density = 21.489899 Si / 1000 Ang^3
#
#
#
# Elastic Constant Matrix: (Units=GPa)
#
#
# Indices 1 2 3 4 5 6 
#
# 1 137.3538 91.2312 56.3645 0.0000 0.0000 0.0000
# 2 91.2312 111.7473 29.0994 0.0000 0.0000 0.0000
# 3 56.3645 29.0994 114.7946 0.0000 0.0000 0.0000
# 4 0.0000 0.0000 0.0000 7.4798 0.0000 0.0000
# 5 0.0000 0.0000 0.0000 0.0000 10.8689 0.0000
# 6 0.0000 0.0000 0.0000 0.0000 0.0000 12.9943
#
#
#
# Elastic Compliance Matrix: (Units=1/GPa)
#
#
# Indices 1 2 3 4 5 6 
#
# 1 0.018884 -0.013921 -0.005743 0.000000 0.000000 0.000000
# 2 -0.013921 0.019844 0.001805 0.000000 0.000000 0.000000
# 3 -0.005743 0.001805 0.011074 0.000000 0.000000 0.000000
# 4 0.000000 0.000000 0.000000 0.133694 0.000000 0.000000
# 5 0.000000 0.000000 0.000000 0.000000 0.092006 0.000000
# 6 0.000000 0.000000 0.000000 0.000000 0.000000 0.076957
#
#
# Mechanical properties :
#
#
# Convention : Reuss Voigt Hill
#
# Bulk Modulus (GPa) = 71.00827 79.69843 75.35335
# Shear Modulus (GPa) = 12.72682 18.74863 15.73773
#
# Velocity S-wave (km/s) = 2.43620 2.95691 2.70910
# Velocity P-wave (km/s) = 6.40530 6.98747 6.70271
#
# Compressibility (1/GPa) = 0.01408287
#
# Stress axis : x y z
#
# Youngs Moduli (GPa) = 52.95519 50.39248 90.30557
#
# Poissons Ratio (x) = 0.70153 0.51863
# Poissons Ratio (y) = 0.73721 -0.16301
# Poissons Ratio (z) = 0.30413 -0.09097
#
# Static dielectric constant tensor:
#      x y z
#    x 1.869150 0.000000 0.000000 
#    y 0.000000 1.827670 0.000000 
#    z 0.000000 0.000000 1.886630 
# 
# From -- ./inp_files/51594.got.cif
#   From: 2010.05.17/outbox.cif.g08.bks.cpg/sg70_26_cif.got.tgz:51594.got - 2010.06.03 15:57:51.
