data_PCOD9515371
_publ_section_title
;
Structure prediction by ZEFSAII (Michael W. Deem and Ramdas Pophale) SiO2 
 PCOD9515371
Probable space group: F D D D
;
_chemical_formula_sum "Si O2"
_cell_formula_units_Z 96
_cell_length_a 7.303880
_cell_length_b 26.600842
_cell_length_c 26.227888
_cell_angle_alpha 90.000000
_cell_angle_beta 90.000000
_cell_angle_gamma 90.000000
_cell_volume 5095.799518
_symmetry_space_group_name_H-M "F D D D"
_symmetry_group_IT_number 70
_space_group.IT_coordinate_system_code '2'
_symmetry_cell_setting 'orthorhombic'
loop_
_space_group_symop_operation_xyz
x,y,z
1/4-x,1/4-y,z
x,1/4-y,1/4-z
1/4-x,y,1/4-z
-x,-y,-z
3/4+x,3/4+y,-z
-x,3/4+y,3/4+z
3/4+x,-y,3/4+z
x,1/2+y,1/2+z
1/4-x,3/4-y,1/2+z
x,3/4-y,3/4-z
1/4-x,1/2+y,3/4-z
-x,1/2-y,1/2-z
3/4+x,1/4+y,1/2-z
-x,1/4+y,1/4+z
3/4+x,1/2-y,1/4+z
1/2+x,y,1/2+z
3/4-x,1/4-y,1/2+z
1/2+x,1/4-y,3/4-z
3/4-x,y,3/4-z
1/2-x,-y,1/2-z
1/4+x,3/4+y,1/2-z
1/2-x,3/4+y,1/4+z
1/4+x,-y,1/4+z
1/2+x,1/2+y,z
3/4-x,3/4-y,z
1/2+x,3/4-y,1/4-z
3/4-x,1/2+y,1/4-z
1/2-x,1/2-y,-z
1/4+x,1/4+y,-z
1/2-x,1/4+y,3/4+z
1/4+x,1/2-y,3/4+z
loop_
_atom_site_type_symbol
_atom_site_label
_atom_site_fract_x
_atom_site_fract_y
_atom_site_fract_z
Si Si1 0.875000 0.375000 0.997997
Si Si2 0.047819 0.345413 0.321498
Si Si3 0.442817 0.428659 0.596021
Si Si4 0.875000 0.996965 0.875000
O O1 0.724047 0.401593 0.963484
O O2 0.778590 0.335924 0.036862
O O3 0.085420 0.375000 0.375000
O O4 0.875000 0.375000 0.297765
O O5 0.977811 0.290175 0.335807
O O6 0.625000 0.445158 0.625000
O O7 0.375000 0.375000 0.619368
O O8 0.279772 0.468179 0.600454
#
# Coordination Sequence:
#
# PCOD9515371 Si02
#       4
#    16  32  32  16
#     4  10  21  38  66  90 120 166 205 256 308 362
#     4   9  21  40  61  88 125 158 205 260 306 362
#     4  10  21  38  59  87 122 164 203 250 304 361
#     4  10  21  40  62  88 128 166 197 258 312 360
#
# _framework density 18.839047000000001
#
# number of rings (size 3 to 8) (size 9 to 14) (size 15 to 20)
#    1.000    1.667    1.667    0.500    0.000   10.667 
#    0.000   11.667    0.000    0.000    0.000    0.000 
#    0.000    0.000    0.000    0.000    0.000    0.000 
#
# Total GULP energy -133687.475237 kJ/mol
# GULP energy per Si atom -5570.311468 kJ/mol
# Density = 1.879617 g / cm^3
# Si number density = 18.839047 Si / 1000 Ang^3
#
#
#
# Elastic Constant Matrix: (Units=GPa)
#
#
# Indices 1 2 3 4 5 6 
#
# 1 120.0280 44.3147 71.9850 0.0000 0.0000 0.0000
# 2 44.3147 112.0891 30.8504 0.0000 0.0000 0.0000
# 3 71.9850 30.8504 76.1468 0.0000 0.0000 0.0000
# 4 0.0000 0.0000 0.0000 -7.7366 0.0000 0.0000
# 5 0.0000 0.0000 0.0000 0.0000 -1.6664 0.0000
# 6 0.0000 0.0000 0.0000 0.0000 0.0000 20.0119
#
#
#
# Elastic Compliance Matrix: (Units=1/GPa)
#
#
# Indices 1 2 3 4 5 6 
#
# 1 0.020132 -0.003063 -0.017791 0.000000 0.000000 0.000000
# 2 -0.003063 0.010507 -0.001362 0.000000 0.000000 0.000000
# 3 -0.017791 -0.001362 0.030503 0.000000 0.000000 0.000000
# 4 0.000000 0.000000 0.000000 -0.129255 0.000000 0.000000
# 5 0.000000 0.000000 0.000000 0.000000 -0.600082 0.000000
# 6 0.000000 0.000000 0.000000 0.000000 0.000000 0.049970
#
#
# Mechanical properties :
#
#
# Convention : Reuss Voigt Hill
#
# Bulk Modulus (GPa) = 59.83910 66.95158 63.39534
# Shear Modulus (GPa) = -8.79933 12.86269 2.03168
#
# Velocity S-wave (km/s) = -2.16355 2.61582 1.03961
# Velocity P-wave (km/s) = 5.05876 6.68874 5.93002
#
# Compressibility (1/GPa) = 0.01671148
#
# Stress axis : x y z
#
# Youngs Moduli (GPa) = 49.67260 95.17419 32.78417
#
# Poissons Ratio (x) = 0.29148 0.58325
# Poissons Ratio (y) = 0.15213 0.04464
# Poissons Ratio (z) = 0.88371 0.12959
#
# Static dielectric constant tensor:
#      x y z
#    x 1.642230 0.000000 0.000000 
#    y 0.000000 1.664120 0.000000 
#    z 0.000000 0.000000 1.656110 
# 
# From -- ./inp_files/56467.got.cif
#   From: 2010.05.17/outbox.cif.g08.bks.cpg/sg70_29_cif.got.tgz:56467.got - 2010.06.03 15:57:51.
