data_PCOD9515763
_publ_section_title
;
Structure prediction by ZEFSAII (Michael W. Deem and Ramdas Pophale) SiO2 
 PCOD9515763
Probable space group: F D D D
;
_chemical_formula_sum "Si O2"
_cell_formula_units_Z 176
_cell_length_a 21.453023
_cell_length_b 21.365294
_cell_length_c 17.448771
_cell_angle_alpha 90.000000
_cell_angle_beta 90.000000
_cell_angle_gamma 90.000000
_cell_volume 7997.646693
_symmetry_space_group_name_H-M "F D D D"
_symmetry_group_IT_number 70
_space_group.IT_coordinate_system_code '2'
_symmetry_cell_setting 'orthorhombic'
loop_
_space_group_symop_operation_xyz
x,y,z
1/4-x,1/4-y,z
x,1/4-y,1/4-z
1/4-x,y,1/4-z
-x,-y,-z
3/4+x,3/4+y,-z
-x,3/4+y,3/4+z
3/4+x,-y,3/4+z
x,1/2+y,1/2+z
1/4-x,3/4-y,1/2+z
x,3/4-y,3/4-z
1/4-x,1/2+y,3/4-z
-x,1/2-y,1/2-z
3/4+x,1/4+y,1/2-z
-x,1/4+y,1/4+z
3/4+x,1/2-y,1/4+z
1/2+x,y,1/2+z
3/4-x,1/4-y,1/2+z
1/2+x,1/4-y,3/4-z
3/4-x,y,3/4-z
1/2-x,-y,1/2-z
1/4+x,3/4+y,1/2-z
1/2-x,3/4+y,1/4+z
1/4+x,-y,1/4+z
1/2+x,1/2+y,z
3/4-x,3/4-y,z
1/2+x,3/4-y,1/4-z
3/4-x,1/2+y,1/4-z
1/2-x,1/2-y,-z
1/4+x,1/4+y,-z
1/2-x,1/4+y,3/4+z
1/4+x,1/2-y,3/4+z
loop_
_atom_site_type_symbol
_atom_site_label
_atom_site_fract_x
_atom_site_fract_y
_atom_site_fract_z
Si Si1 0.527229 0.625000 0.625000
Si Si2 0.657539 0.934779 0.042910
Si Si3 0.861350 0.442857 0.160793
Si Si4 0.199699 0.984204 0.812883
Si Si5 0.123144 0.954006 0.211314
Si Si6 0.976304 0.947750 0.235835
O O1 0.483575 0.683900 0.636394
O O2 0.556096 0.646636 0.543805
O O3 0.625000 0.949891 0.125000
O O4 0.664362 0.859842 0.039562
O O5 0.607825 0.951764 0.978196
O O6 0.712433 0.983133 0.022027
O O7 0.875000 0.375000 0.195393
O O8 0.922726 0.459143 0.110705
O O9 0.855349 0.496891 0.224474
O O10 0.805991 0.443601 0.097811
O O11 0.250000 0.000000 0.750000
O O12 0.125000 0.980432 0.125000
O O13 0.050290 0.936403 0.226597
#
# Coordination Sequence:
#
# PCOD9515763 Si02
#       6
#    16  32  32  32  32  32
#     4  12  20  40  69  98 136 174 221 284 362 426
#     4  10  22  39  65 103 139 182 238 287 370 435
#     4  11  25  42  65 101 141 184 244 302 366 431
#     4  11  20  35  63  93 131 177 212 284 353 436
#     4  11  25  47  71  97 138 197 253 300 355 425
#     4  11  24  42  72 106 142 183 233 308 365 451
#
# _framework density 22.006473
#
# number of rings (size 3 to 8) (size 9 to 14) (size 15 to 20)
#    0.000    1.091    3.636    2.182    0.000    6.182 
#    0.000    5.455    0.000    0.000    0.000    0.000 
#    0.000    0.000    0.000    0.000    0.000    0.000 
#
# Total GULP energy -245637.562921 kJ/mol
# GULP energy per Si atom -5582.671885 kJ/mol
# Density = 2.195639 g / cm^3
# Si number density = 22.006473 Si / 1000 Ang^3
#
#
#
# Elastic Constant Matrix: (Units=GPa)
#
#
# Indices 1 2 3 4 5 6 
#
# 1 46.3127 20.9968 18.8524 0.0000 0.0000 0.0000
# 2 20.9968 106.6704 35.7213 0.0000 0.0000 0.0000
# 3 18.8524 35.7213 127.9536 0.0000 0.0000 0.0000
# 4 0.0000 0.0000 0.0000 48.2228 0.0000 0.0000
# 5 0.0000 0.0000 0.0000 0.0000 27.6269 0.0000
# 6 0.0000 0.0000 0.0000 0.0000 0.0000-6074.6757
#
#
#
# Elastic Compliance Matrix: (Units=1/GPa)
#
#
# Indices 1 2 3 4 5 6 
#
# 1 0.024405 -0.003971 -0.002487 0.000000 0.000000 0.000000
# 2 -0.003971 0.010988 -0.002482 0.000000 0.000000 0.000000
# 3 -0.002487 -0.002482 0.008875 0.000000 0.000000 0.000000
# 4 0.000000 0.000000 0.000000 0.020737 0.000000 0.000000
# 5 0.000000 0.000000 0.000000 0.000000 0.036197 0.000000
# 6 0.000000 0.000000 0.000000 0.000000 0.000000 -0.000165
#
#
# Mechanical properties :
#
#
# Convention : Reuss Voigt Hill
#
# Bulk Modulus (GPa) = 37.89828 48.00865 42.95347
# Shear Modulus (GPa) = 39.15022 -1186.07411 -573.46195
#
# Velocity S-wave (km/s) = 4.22243 -23.24083 -16.16025
# Velocity P-wave (km/s) = 6.40552 26.42571 18.12854
#
# Compressibility (1/GPa) = 0.02638642
#
# Stress axis : x y z
#
# Youngs Moduli (GPa) = 40.97502 91.01169 112.67847
#
# Poissons Ratio (x) = 0.36140 0.28026
# Poissons Ratio (y) = 0.16271 0.27971
# Poissons Ratio (z) = 0.10191 0.22593
#
# Static dielectric constant tensor:
#      x y z
#    x 1.822110 0.000000 0.000000 
#    y 0.000000 1.855680 0.000000 
#    z 0.000000 0.000000 1.786050 
# 
# From -- ./inp_files/38533.got.cif
#   From: 2010.05.17/outbox.cif.g08.bks.cpg/sg70_20_cif.got.tgz:38533.got - 2010.06.03 15:57:51.
