data_PCOD9515682
_publ_section_title
;
Structure prediction by ZEFSAII (Michael W. Deem and Ramdas Pophale) SiO2 
 PCOD9515682
Probable space group: F D D D
;
_chemical_formula_sum "Si O2"
_cell_formula_units_Z 112
_cell_length_a 17.374511
_cell_length_b 15.655670
_cell_length_c 16.585775
_cell_angle_alpha 90.000000
_cell_angle_beta 90.000000
_cell_angle_gamma 90.000000
_cell_volume 4511.490200
_symmetry_space_group_name_H-M "F D D D"
_symmetry_group_IT_number 70
_space_group.IT_coordinate_system_code '2'
_symmetry_cell_setting 'orthorhombic'
loop_
_space_group_symop_operation_xyz
x,y,z
1/4-x,1/4-y,z
x,1/4-y,1/4-z
1/4-x,y,1/4-z
-x,-y,-z
3/4+x,3/4+y,-z
-x,3/4+y,3/4+z
3/4+x,-y,3/4+z
x,1/2+y,1/2+z
1/4-x,3/4-y,1/2+z
x,3/4-y,3/4-z
1/4-x,1/2+y,3/4-z
-x,1/2-y,1/2-z
3/4+x,1/4+y,1/2-z
-x,1/4+y,1/4+z
3/4+x,1/2-y,1/4+z
1/2+x,y,1/2+z
3/4-x,1/4-y,1/2+z
1/2+x,1/4-y,3/4-z
3/4-x,y,3/4-z
1/2-x,-y,1/2-z
1/4+x,3/4+y,1/2-z
1/2-x,3/4+y,1/4+z
1/4+x,-y,1/4+z
1/2+x,1/2+y,z
3/4-x,3/4-y,z
1/2+x,3/4-y,1/4-z
3/4-x,1/2+y,1/4-z
1/2-x,1/2-y,-z
1/4+x,1/4+y,-z
1/2-x,1/4+y,3/4+z
1/4+x,1/2-y,3/4+z
loop_
_atom_site_type_symbol
_atom_site_label
_atom_site_fract_x
_atom_site_fract_y
_atom_site_fract_z
Si Si1 0.969088 0.615423 0.757772
Si Si2 0.028897 0.779952 0.339122
Si Si3 0.297865 0.260613 0.126244
Si Si4 0.625000 0.446751 0.625000
O O1 0.967034 0.688907 0.691166
O O2 0.882352 0.608294 0.794101
O O3 0.016682 0.653759 0.833768
O O4 0.991207 0.530353 0.706678
O O5 0.040556 0.875000 0.375000
O O6 0.111706 0.736312 0.353709
O O7 0.000000 0.750000 0.250000
O O8 0.951362 0.750915 0.385279
#
# Coordination Sequence:
#
# PCOD9515682 Si02
#       4
#    32  32  32  16
#     4  10  22  43  73 111 148 201 257 328 386 465
#     4  12  24  47  73 108 151 200 257 322 387 469
#     4  10  21  46  76 106 154 200 263 323 393 465
#     4  12  25  42  70 109 148 196 252 324 388 463
#
# _framework density 24.825499000000001
#
# number of rings (size 3 to 8) (size 9 to 14) (size 15 to 20)
#    0.000    1.143    5.714    0.429    0.000    5.714 
#    5.143    2.857    0.000    5.143    0.000    0.000 
#    0.000    0.000    0.000    0.000    0.000    0.000 
#
# Total GULP energy -155902.199177 kJ/mol
# GULP energy per Si atom -5567.935685 kJ/mol
# Density = 2.476899 g / cm^3
# Si number density = 24.825499 Si / 1000 Ang^3
#
#
#
# Elastic Constant Matrix: (Units=GPa)
#
#
# Indices 1 2 3 4 5 6 
#
# 1 143.5969 74.8516 41.8975 0.0000 0.0000 0.0000
# 2 74.8516 104.6003 60.5447 0.0000 0.0000 0.0000
# 3 41.8975 60.5447 186.9425 0.0000 0.0000 0.0000
# 4 0.0000 0.0000 0.0000 35.2339 0.0000 0.0000
# 5 0.0000 0.0000 0.0000 0.0000 44.6097 0.0000
# 6 0.0000 0.0000 0.0000 0.0000 0.0000 40.8391
#
#
#
# Elastic Compliance Matrix: (Units=1/GPa)
#
#
# Indices 1 2 3 4 5 6 
#
# 1 0.011109 -0.008010 0.000104 0.000000 0.000000 0.000000
# 2 -0.008010 0.017541 -0.003886 0.000000 0.000000 0.000000
# 3 0.000104 -0.003886 0.006584 0.000000 0.000000 0.000000
# 4 0.000000 0.000000 0.000000 0.028382 0.000000 0.000000
# 5 0.000000 0.000000 0.000000 0.000000 0.022417 0.000000
# 6 0.000000 0.000000 0.000000 0.000000 0.000000 0.024486
#
#
# Mechanical properties :
#
#
# Convention : Reuss Voigt Hill
#
# Bulk Modulus (GPa) = 85.82389 87.74746 86.78567
# Shear Modulus (GPa) = 36.23576 41.32627 38.78101
#
# Velocity S-wave (km/s) = 3.82464 4.08446 3.95669
# Velocity P-wave (km/s) = 7.35865 7.59383 7.47716
#
# Compressibility (1/GPa) = 0.01165177
#
# Stress axis : x y z
#
# Youngs Moduli (GPa) = 90.01992 57.00875 151.87549
#
# Poissons Ratio (x) = 0.45663 -0.01586
# Poissons Ratio (y) = 0.72104 0.59017
# Poissons Ratio (z) = -0.00940 0.22153
#
# Static dielectric constant tensor:
#      x y z
#    x 1.991080 0.000000 0.000000 
#    y 0.000000 2.098690 0.000000 
#    z 0.000000 0.000000 2.279440 
# 
# From -- ./inp_files/34499.got.cif
#   From: 2010.05.17/outbox.cif.g08.bks.cpg/sg70_18_cif.got.tgz:34499.got - 2010.06.03 15:57:51.
