data_PCOD9515220
_publ_section_title
;
Structure prediction by ZEFSAII (Michael W. Deem and Ramdas Pophale) SiO2 
 PCOD9515220
Probable space group: F D D D
;
_chemical_formula_sum "Si O2"
_cell_formula_units_Z 72
_cell_length_a 6.992418
_cell_length_b 31.108970
_cell_length_c 15.619847
_cell_angle_alpha 90.000000
_cell_angle_beta 90.000000
_cell_angle_gamma 90.000000
_cell_volume 3397.737237
_symmetry_space_group_name_H-M "F D D D"
_symmetry_group_IT_number 70
_space_group.IT_coordinate_system_code '2'
_symmetry_cell_setting 'orthorhombic'
loop_
_space_group_symop_operation_xyz
x,y,z
1/4-x,1/4-y,z
x,1/4-y,1/4-z
1/4-x,y,1/4-z
-x,-y,-z
3/4+x,3/4+y,-z
-x,3/4+y,3/4+z
3/4+x,-y,3/4+z
x,1/2+y,1/2+z
1/4-x,3/4-y,1/2+z
x,3/4-y,3/4-z
1/4-x,1/2+y,3/4-z
-x,1/2-y,1/2-z
3/4+x,1/4+y,1/2-z
-x,1/4+y,1/4+z
3/4+x,1/2-y,1/4+z
1/2+x,y,1/2+z
3/4-x,1/4-y,1/2+z
1/2+x,1/4-y,3/4-z
3/4-x,y,3/4-z
1/2-x,-y,1/2-z
1/4+x,3/4+y,1/2-z
1/2-x,3/4+y,1/4+z
1/4+x,-y,1/4+z
1/2+x,1/2+y,z
3/4-x,3/4-y,z
1/2+x,3/4-y,1/4-z
3/4-x,1/2+y,1/4-z
1/2-x,1/2-y,-z
1/4+x,1/4+y,-z
1/2-x,1/4+y,3/4+z
1/4+x,1/2-y,3/4+z
loop_
_atom_site_type_symbol
_atom_site_label
_atom_site_fract_x
_atom_site_fract_y
_atom_site_fract_z
Si Si1 0.625000 0.125000 0.625000
Si Si2 0.157550 0.713750 0.355876
Si Si3 0.396433 0.194419 0.519716
O O1 0.487187 0.154638 0.568058
O O2 0.375000 0.701980 0.375000
O O3 0.142976 0.764099 0.331239
O O4 0.059607 0.689356 0.275786
O O5 0.036154 0.705744 0.440848
#
# Coordination Sequence:
#
# PCOD9515220 Si02
#       3
#     8  32  32
#     4  12  24  44  58 108 144 172 212 310 344 392
#     4  10  20  43  69  93 124 189 227 264 316 440
#     4  10  23  40  68  96 135 170 230 271 346 392
#
# _framework density 21.190572
#
# number of rings (size 3 to 8) (size 9 to 14) (size 15 to 20)
#    0.000    1.778    2.222    1.333    0.000    0.000 
#    8.000    2.222    0.000    0.000    0.000    0.000 
#    0.000    0.000    0.000    0.000    0.000    0.000 
#
# Total GULP energy -100683.742949 kJ/mol
# GULP energy per Si atom -5593.541275 kJ/mol
# Density = 2.114234 g / cm^3
# Si number density = 21.190572 Si / 1000 Ang^3
#
#
#
# Elastic Constant Matrix: (Units=GPa)
#
#
# Indices 1 2 3 4 5 6 
#
# 1 182.2721 55.5676 72.2651 0.0000 0.0000 0.0000
# 2 55.5676 119.2427 88.9676 0.0000 0.0000 0.0000
# 3 72.2651 88.9676 132.2700 0.0000 0.0000 0.0000
# 4 0.0000 0.0000 0.0000 -33.2527 0.0000 0.0000
# 5 0.0000 0.0000 0.0000 0.0000 24.1858 0.0000
# 6 0.0000 0.0000 0.0000 0.0000 0.0000 37.8490
#
#
#
# Elastic Compliance Matrix: (Units=1/GPa)
#
#
# Indices 1 2 3 4 5 6 
#
# 1 0.007044 -0.000825 -0.003293 0.000000 0.000000 0.000000
# 2 -0.000825 0.016931 -0.010937 0.000000 0.000000 0.000000
# 3 -0.003293 -0.010937 0.016716 0.000000 0.000000 0.000000
# 4 0.000000 0.000000 0.000000 -0.030073 0.000000 0.000000
# 5 0.000000 0.000000 0.000000 0.000000 0.041347 0.000000
# 6 0.000000 0.000000 0.000000 0.000000 0.000000 0.026421
#
#
# Mechanical properties :
#
#
# Convention : Reuss Voigt Hill
#
# Bulk Modulus (GPa) = 94.52363 96.37612 95.44988
# Shear Modulus (GPa) = 44.63333 20.22206 32.42769
#
# Velocity S-wave (km/s) = 4.59440 3.09252 3.91613
# Velocity P-wave (km/s) = 8.53511 7.63747 8.09873
#
# Compressibility (1/GPa) = 0.01057937
#
# Stress axis : x y z
#
# Youngs Moduli (GPa) = 141.97474 59.06190 59.82217
#
# Poissons Ratio (x) = 0.04875 0.19700
# Poissons Ratio (y) = 0.11718 0.65430
# Poissons Ratio (z) = 0.46753 0.64599
#
# Static dielectric constant tensor:
#      x y z
#    x 1.803350 0.000000 0.000000 
#    y 0.000000 1.730960 0.000000 
#    z 0.000000 0.000000 1.744280 
# 
# From -- ./inp_files/2322.got.cif
#   From: 2010.05.17/outbox.cif.g08.bks.cpg/sg70_2_cif.got.tgz:2322.got - 2010.06.03 15:57:51.
