data_PCOD9515061
_publ_section_title
;
Structure prediction by ZEFSAII (Michael W. Deem and Ramdas Pophale) SiO2 
 PCOD9515061
Probable space group: F D D D
;
_chemical_formula_sum "Si O2"
_cell_formula_units_Z 128
_cell_length_a 25.884601
_cell_length_b 27.722711
_cell_length_c 8.863950
_cell_angle_alpha 90.000000
_cell_angle_beta 90.000000
_cell_angle_gamma 90.000000
_cell_volume 6360.693518
_symmetry_space_group_name_H-M "F D D D"
_symmetry_group_IT_number 70
_space_group.IT_coordinate_system_code '2'
_symmetry_cell_setting 'orthorhombic'
loop_
_space_group_symop_operation_xyz
x,y,z
1/4-x,1/4-y,z
x,1/4-y,1/4-z
1/4-x,y,1/4-z
-x,-y,-z
3/4+x,3/4+y,-z
-x,3/4+y,3/4+z
3/4+x,-y,3/4+z
x,1/2+y,1/2+z
1/4-x,3/4-y,1/2+z
x,3/4-y,3/4-z
1/4-x,1/2+y,3/4-z
-x,1/2-y,1/2-z
3/4+x,1/4+y,1/2-z
-x,1/4+y,1/4+z
3/4+x,1/2-y,1/4+z
1/2+x,y,1/2+z
3/4-x,1/4-y,1/2+z
1/2+x,1/4-y,3/4-z
3/4-x,y,3/4-z
1/2-x,-y,1/2-z
1/4+x,3/4+y,1/2-z
1/2-x,3/4+y,1/4+z
1/4+x,-y,1/4+z
1/2+x,1/2+y,z
3/4-x,3/4-y,z
1/2+x,3/4-y,1/4-z
3/4-x,1/2+y,1/4-z
1/2-x,1/2-y,-z
1/4+x,1/4+y,-z
1/2-x,1/4+y,3/4+z
1/4+x,1/2-y,3/4+z
loop_
_atom_site_type_symbol
_atom_site_label
_atom_site_fract_x
_atom_site_fract_y
_atom_site_fract_z
Si Si1 0.383403 0.428583 0.620442
Si Si2 0.625000 0.989678 0.125000
Si Si3 0.449119 0.959024 0.383842
Si Si4 0.689035 0.929297 0.895315
Si Si5 0.125000 0.455822 0.625000
O O1 0.375000 0.375000 0.555851
O O2 0.393366 0.472124 0.503652
O O3 0.429131 0.425975 0.744775
O O4 0.332168 0.443114 0.716732
O O5 0.583529 0.953872 0.203683
O O6 0.510049 0.959467 0.395286
O O7 0.423618 0.010049 0.340471
O O8 0.708765 0.875000 0.875000
O O9 0.642416 0.929244 0.774383
#
# Coordination Sequence:
#
# PCOD9515061 Si02
#       5
#    32  16  32  32  16
#     4  10  20  39  64  96 124 156 208 266 313 370
#     4  12  24  38  60  93 133 158 199 271 316 360
#     4  10  20  42  68  87 119 167 217 246 303 380
#     4  12  24  42  64  90 125 172 211 257 314 375
#     4  10  21  42  65  89 121 162 211 261 304 376
#
# _framework density 20.123591999999999
#
# number of rings (size 3 to 8) (size 9 to 14) (size 15 to 20)
#    0.000    1.500    5.000    4.875    0.000    1.000 
#    0.000    0.000    0.000    0.000    0.000    0.000 
#    0.000    0.000    0.000    0.000    0.000    0.000 
#
# Total GULP energy -178159.531112 kJ/mol
# GULP energy per Si atom -5567.485347 kJ/mol
# Density = 2.007779 g / cm^3
# Si number density = 20.123592 Si / 1000 Ang^3
#
#
#
# Elastic Constant Matrix: (Units=GPa)
#
#
# Indices 1 2 3 4 5 6 
#
# 1 113.6565 6.1060 38.9246 0.0051 -0.0037 -0.0013
# 2 6.1060 59.7164 23.4305 0.0057 -0.0032 -0.0013
# 3 38.9246 23.4305 105.5079 0.0121 -0.0062 -0.0036
# 4 0.0051 0.0057 0.0121 18.3691 -0.0075 -0.0034
# 5 -0.0037 -0.0032 -0.0062 -0.0075 16.6195 0.0025
# 6 -0.0013 -0.0013 -0.0036 -0.0034 0.0025 16.4786
#
#
#
# Elastic Compliance Matrix: (Units=1/GPa)
#
#
# Indices 1 2 3 4 5 6 
#
# 1 0.010083 0.000469 -0.003824 0.000000 0.000001 0.000000
# 2 0.000469 0.018366 -0.004252 -0.000003 0.000002 0.000001
# 3 -0.003824 -0.004252 0.011833 -0.000005 0.000003 0.000002
# 4 0.000000 -0.000003 -0.000005 0.054439 0.000024 0.000011
# 5 0.000001 0.000002 0.000003 0.000024 0.060170 -0.000009
# 6 0.000000 0.000001 0.000002 0.000011 -0.000009 0.060685
#
#
# Mechanical properties :
#
#
# Convention : Reuss Voigt Hill
#
# Bulk Modulus (GPa) = 39.88984 46.20035 43.04509
# Shear Modulus (GPa) = 20.90777 24.32142 22.61459
#
# Velocity S-wave (km/s) = 3.22680 3.48027 3.35593
# Velocity P-wave (km/s) = 5.80934 6.25762 6.03764
#
# Compressibility (1/GPa) = 0.02506904
#
# Stress axis : x y z
#
# Youngs Moduli (GPa) = 99.17803 54.44822 84.50949
#
# Poissons Ratio (x) = -0.02556 0.32317
# Poissons Ratio (y) = -0.04656 0.35932
# Poissons Ratio (z) = 0.37927 0.23150
#
# Static dielectric constant tensor:
#      x y z
#    x 1.690070 0.000000 0.000000 
#    y 0.000000 1.787970 0.000000 
#    z 0.000000 0.000000 1.789700 
# 
# From -- ./inp_files/11054.got.cif
#   From: 2010.05.17/outbox.cif.g08.bks.cpg/sg70_6_cif.got.tgz:11054.got - 2010.06.03 15:57:51.
