data_PCOD9515838
_publ_section_title
;
Structure prediction by ZEFSAII (Michael W. Deem and Ramdas Pophale) SiO2 
 PCOD9515838
Probable space group: F D D D
;
_chemical_formula_sum "Si O2"
_cell_formula_units_Z 176
_cell_length_a 14.540752
_cell_length_b 24.638359
_cell_length_c 22.451964
_cell_angle_alpha 90.000000
_cell_angle_beta 90.000000
_cell_angle_gamma 90.000000
_cell_volume 8043.646638
_symmetry_space_group_name_H-M "F D D D"
_symmetry_group_IT_number 70
_space_group.IT_coordinate_system_code '2'
_symmetry_cell_setting 'orthorhombic'
loop_
_space_group_symop_operation_xyz
x,y,z
1/4-x,1/4-y,z
x,1/4-y,1/4-z
1/4-x,y,1/4-z
-x,-y,-z
3/4+x,3/4+y,-z
-x,3/4+y,3/4+z
3/4+x,-y,3/4+z
x,1/2+y,1/2+z
1/4-x,3/4-y,1/2+z
x,3/4-y,3/4-z
1/4-x,1/2+y,3/4-z
-x,1/2-y,1/2-z
3/4+x,1/4+y,1/2-z
-x,1/4+y,1/4+z
3/4+x,1/2-y,1/4+z
1/2+x,y,1/2+z
3/4-x,1/4-y,1/2+z
1/2+x,1/4-y,3/4-z
3/4-x,y,3/4-z
1/2-x,-y,1/2-z
1/4+x,3/4+y,1/2-z
1/2-x,3/4+y,1/4+z
1/4+x,-y,1/4+z
1/2+x,1/2+y,z
3/4-x,3/4-y,z
1/2+x,3/4-y,1/4-z
3/4-x,1/2+y,1/4-z
1/2-x,1/2-y,-z
1/4+x,1/4+y,-z
1/2-x,1/4+y,3/4+z
1/4+x,1/2-y,3/4+z
loop_
_atom_site_type_symbol
_atom_site_label
_atom_site_fract_x
_atom_site_fract_y
_atom_site_fract_z
Si Si1 0.375000 0.016726 0.375000
Si Si2 0.810644 0.577296 0.168142
Si Si3 0.333898 0.139263 0.783452
Si Si4 0.375000 0.375000 0.567887
Si Si5 0.125000 0.795250 0.125000
Si Si6 0.073205 0.228096 0.898527
Si Si7 0.621978 0.690285 0.030587
O O1 0.380826 0.061824 0.428131
O O2 0.320250 0.971938 0.416061
O O3 0.778415 0.625000 0.125000
O O4 0.874943 0.605023 0.218252
O O5 0.869539 0.531487 0.136064
O O6 0.727820 0.547312 0.202734
O O7 0.221945 0.138906 0.785223
O O8 0.363813 0.084890 0.818057
O O9 0.394968 0.426896 0.609552
O O10 0.216971 0.762182 0.134806
O O11 0.089157 0.211827 0.967382
O O12 0.625000 0.625000 0.030196
#
# Coordination Sequence:
#
# PCOD9515838 Si02
#       7
#    16  32  32  16  16  32  32
#     4  11  21  36  63 102 133 174 211 269 344 424
#     4  12  26  44  62  99 139 176 223 286 349 409
#     4  10  22  41  64  90 128 175 228 276 338 406
#     4  10  22  42  65  93 122 176 232 276 332 416
#     4   9  22  42  68  94 128 178 232 279 332 404
#     4  11  22  43  67  98 135 179 224 283 346 412
#     4  12  23  38  65 104 141 171 216 282 352 410
#
# _framework density 21.880623
#
# number of rings (size 3 to 8) (size 9 to 14) (size 15 to 20)
#    0.000    1.091    2.727    4.091    5.091    0.000 
#    6.545    1.818    0.000    0.000    0.000    0.000 
#    0.000    0.000    0.000    0.000    0.000    0.000 
#
# Total GULP energy -245359.519449 kJ/mol
# GULP energy per Si atom -5576.352715 kJ/mol
# Density = 2.183082 g / cm^3
# Si number density = 21.880623 Si / 1000 Ang^3
#
#
#
# Elastic Constant Matrix: (Units=GPa)
#
#
# Indices 1 2 3 4 5 6 
#
# 1 151.6363 20.2146 25.2065 0.0000 0.0000 0.0000
# 2 20.2146 86.7165 7.6716 0.0000 0.0000 0.0000
# 3 25.2065 7.6716 74.0970 0.0000 0.0000 0.0000
# 4 0.0000 0.0000 0.0000 11.1896 0.0000 0.0000
# 5 0.0000 0.0000 0.0000 0.0000 20.1067 0.0000
# 6 0.0000 0.0000 0.0000 0.0000 0.0000 33.3333
#
#
#
# Elastic Compliance Matrix: (Units=1/GPa)
#
#
# Indices 1 2 3 4 5 6 
#
# 1 0.007171 -0.001469 -0.002287 0.000000 0.000000 0.000000
# 2 -0.001469 0.011939 -0.000736 0.000000 0.000000 0.000000
# 3 -0.002287 -0.000736 0.014350 0.000000 0.000000 0.000000
# 4 0.000000 0.000000 0.000000 0.089369 0.000000 0.000000
# 5 0.000000 0.000000 0.000000 0.000000 0.049735 0.000000
# 6 0.000000 0.000000 0.000000 0.000000 0.000000 0.030000
#
#
# Mechanical properties :
#
#
# Convention : Reuss Voigt Hill
#
# Bulk Modulus (GPa) = 40.85849 46.51505 43.68677
# Shear Modulus (GPa) = 22.75751 30.21639 26.48695
#
# Velocity S-wave (km/s) = 3.22852 3.72017 3.48303
# Velocity P-wave (km/s) = 5.71066 6.30536 6.01537
#
# Compressibility (1/GPa) = 0.02447472
#
# Stress axis : x y z
#
# Youngs Moduli (GPa) = 139.45438 83.75575 69.68568
#
# Poissons Ratio (x) = 0.12306 0.15939
# Poissons Ratio (y) = 0.20489 0.05131
# Poissons Ratio (z) = 0.31897 0.06167
#
# Static dielectric constant tensor:
#      x y z
#    x 1.903370 0.000000 0.000000 
#    y 0.000000 1.785820 0.000000 
#    z 0.000000 0.000000 1.798780 
# 
# From -- ./inp_files/28794.got.cif
#   From: 2010.05.17/outbox.cif.g08.bks.cpg/sg70_15_cif.got.tgz:28794.got - 2010.06.03 15:57:51.
