data_PCOD9515832
_publ_section_title
;
Structure prediction by ZEFSAII (Michael W. Deem and Ramdas Pophale) SiO2 
 PCOD9515832
Probable space group: F D D D
;
_chemical_formula_sum "Si O2"
_cell_formula_units_Z 176
_cell_length_a 30.031019
_cell_length_b 25.195117
_cell_length_c 11.275190
_cell_angle_alpha 90.000000
_cell_angle_beta 90.000000
_cell_angle_gamma 90.000000
_cell_volume 8531.203807
_symmetry_space_group_name_H-M "F D D D"
_symmetry_group_IT_number 70
_space_group.IT_coordinate_system_code '2'
_symmetry_cell_setting 'orthorhombic'
loop_
_space_group_symop_operation_xyz
x,y,z
1/4-x,1/4-y,z
x,1/4-y,1/4-z
1/4-x,y,1/4-z
-x,-y,-z
3/4+x,3/4+y,-z
-x,3/4+y,3/4+z
3/4+x,-y,3/4+z
x,1/2+y,1/2+z
1/4-x,3/4-y,1/2+z
x,3/4-y,3/4-z
1/4-x,1/2+y,3/4-z
-x,1/2-y,1/2-z
3/4+x,1/4+y,1/2-z
-x,1/4+y,1/4+z
3/4+x,1/2-y,1/4+z
1/2+x,y,1/2+z
3/4-x,1/4-y,1/2+z
1/2+x,1/4-y,3/4-z
3/4-x,y,3/4-z
1/2-x,-y,1/2-z
1/4+x,3/4+y,1/2-z
1/2-x,3/4+y,1/4+z
1/4+x,-y,1/4+z
1/2+x,1/2+y,z
3/4-x,3/4-y,z
1/2+x,3/4-y,1/4-z
3/4-x,1/2+y,1/4-z
1/2-x,1/2-y,-z
1/4+x,1/4+y,-z
1/2-x,1/4+y,3/4+z
1/4+x,1/2-y,3/4+z
loop_
_atom_site_type_symbol
_atom_site_label
_atom_site_fract_x
_atom_site_fract_y
_atom_site_fract_z
Si Si1 0.875000 0.617248 0.375000
Si Si2 0.977431 0.316273 0.355151
Si Si3 0.538291 0.813876 0.831756
Si Si4 0.386564 0.541187 0.188739
Si Si5 0.807944 0.707655 0.948284
Si Si6 0.530991 0.980775 0.176581
O O1 0.865989 0.654055 0.262467
O O2 0.832110 0.580623 0.392945
O O3 0.959640 0.375000 0.375000
O O4 0.943600 0.267915 0.344205
O O5 0.009082 0.311584 0.238566
O O6 0.008454 0.301563 0.466672
O O7 0.540709 0.875000 0.875000
O O8 0.585057 0.781313 0.841975
O O9 0.498780 0.782314 0.898428
O O10 0.530346 0.806005 0.690277
O O11 0.412238 0.544932 0.065907
O O12 0.418711 0.507170 0.276776
#
# Coordination Sequence:
#
# PCOD9515832 Si02
#       6
#    16  32  32  32  32  32
#     4  12  20  36  65  96 127 162 222 282 338 388
#     4  10  22  41  62  89 136 176 210 270 340 403
#     4  11  23  39  66  97 130 178 225 277 344 413
#     4  11  22  38  62  98 129 168 220 289 335 400
#     4  10  23  36  61  98 128 166 222 273 334 397
#     4  10  23  40  61  97 135 165 226 282 332 403
#
# _framework density 20.630147999999998
#
# number of rings (size 3 to 8) (size 9 to 14) (size 15 to 20)
#    0.000    1.455    1.818    3.818    5.091    3.636 
#    0.000    0.455    0.000   13.091    0.000    0.000 
#    0.000    0.000    0.000    0.000    0.000    0.000 
#
# Total GULP energy -245594.289061 kJ/mol
# GULP energy per Si atom -5581.688388 kJ/mol
# Density = 2.058319 g / cm^3
# Si number density = 20.630148 Si / 1000 Ang^3
#
#
#
# Elastic Constant Matrix: (Units=GPa)
#
#
# Indices 1 2 3 4 5 6 
#
# 1 109.2585 49.8023 25.1866 0.0000 0.0000 0.0000
# 2 49.8023 110.1023 28.2139 0.0000 0.0000 0.0000
# 3 25.1866 28.2139 74.5225 0.0001 -0.0001 0.0000
# 4 0.0000 0.0000 0.0001 24.0691 -0.0001 0.0000
# 5 0.0000 0.0000 -0.0001 -0.0001 38.2389 0.0000
# 6 0.0000 0.0000 0.0000 0.0000 0.0000 29.4618
#
#
#
# Elastic Compliance Matrix: (Units=1/GPa)
#
#
# Indices 1 2 3 4 5 6 
#
# 1 0.011843 -0.004797 -0.002187 0.000000 0.000000 0.000000
# 2 -0.004797 0.012001 -0.002922 0.000000 0.000000 0.000000
# 3 -0.002187 -0.002922 0.015264 0.000000 0.000000 0.000000
# 4 0.000000 0.000000 0.000000 0.041547 0.000000 0.000000
# 5 0.000000 0.000000 0.000000 0.000000 0.026151 0.000000
# 6 0.000000 0.000000 0.000000 0.000000 0.000000 0.033942
#
#
# Mechanical properties :
#
#
# Convention : Reuss Voigt Hill
#
# Bulk Modulus (GPa) = 51.82175 55.58766 53.70470
# Shear Modulus (GPa) = 29.94143 31.06597 30.50370
#
# Velocity S-wave (km/s) = 3.81378 3.88474 3.84943
# Velocity P-wave (km/s) = 6.67587 6.86476 6.77097
#
# Compressibility (1/GPa) = 0.01929692
#
# Stress axis : x y z
#
# Youngs Moduli (GPa) = 84.43751 83.32664 65.51269
#
# Poissons Ratio (x) = 0.39969 0.14326
# Poissons Ratio (y) = 0.40501 0.19145
# Poissons Ratio (z) = 0.18464 0.24351
#
# Static dielectric constant tensor:
#      x y z
#    x 1.808420 0.000000 0.000000 
#    y 0.000000 1.720150 0.000000 
#    z 0.000000 0.000000 1.812680 
# 
# From -- ./inp_files/22295.got.cif
#   From: 2010.05.17/outbox.cif.g08.bks.cpg/sg70_12_cif.got.tgz:22295.got - 2010.06.03 15:57:51.
