data_PCOD9515816
_publ_section_title
;
Structure prediction by ZEFSAII (Michael W. Deem and Ramdas Pophale) SiO2 
 PCOD9515816
Probable space group: F D D D
;
_chemical_formula_sum "Si O2"
_cell_formula_units_Z 176
_cell_length_a 14.566947
_cell_length_b 25.282524
_cell_length_c 24.387130
_cell_angle_alpha 90.000000
_cell_angle_beta 90.000000
_cell_angle_gamma 90.000000
_cell_volume 8981.516284
_symmetry_space_group_name_H-M "F D D D"
_symmetry_group_IT_number 70
_space_group.IT_coordinate_system_code '2'
_symmetry_cell_setting 'orthorhombic'
loop_
_space_group_symop_operation_xyz
x,y,z
1/4-x,1/4-y,z
x,1/4-y,1/4-z
1/4-x,y,1/4-z
-x,-y,-z
3/4+x,3/4+y,-z
-x,3/4+y,3/4+z
3/4+x,-y,3/4+z
x,1/2+y,1/2+z
1/4-x,3/4-y,1/2+z
x,3/4-y,3/4-z
1/4-x,1/2+y,3/4-z
-x,1/2-y,1/2-z
3/4+x,1/4+y,1/2-z
-x,1/4+y,1/4+z
3/4+x,1/2-y,1/4+z
1/2+x,y,1/2+z
3/4-x,1/4-y,1/2+z
1/2+x,1/4-y,3/4-z
3/4-x,y,3/4-z
1/2-x,-y,1/2-z
1/4+x,3/4+y,1/2-z
1/2-x,3/4+y,1/4+z
1/4+x,-y,1/4+z
1/2+x,1/2+y,z
3/4-x,3/4-y,z
1/2+x,3/4-y,1/4-z
3/4-x,1/2+y,1/4-z
1/2-x,1/2-y,-z
1/4+x,1/4+y,-z
1/2-x,1/4+y,3/4+z
1/4+x,1/2-y,3/4+z
loop_
_atom_site_type_symbol
_atom_site_label
_atom_site_fract_x
_atom_site_fract_y
_atom_site_fract_z
Si Si1 0.333968 0.511183 0.819050
Si Si2 0.870645 0.240896 0.199547
Si Si3 0.931772 0.949297 0.496659
Si Si4 0.625000 0.883866 0.625000
Si Si5 0.762812 0.348711 0.815032
Si Si6 0.062537 0.673000 0.367117
O O1 0.375000 0.488109 0.875000
O O2 0.387357 0.496600 0.764011
O O3 0.228064 0.496207 0.813736
O O4 0.343680 0.574739 0.827899
O O5 0.830468 0.183558 0.187198
O O6 0.816316 0.280920 0.160979
O O7 0.843983 0.942212 0.455280
O O8 0.897248 0.941629 0.558758
O O9 0.987017 0.897105 0.477732
O O10 0.000000 0.000000 0.500000
O O11 0.710398 0.848261 0.608373
O O12 0.776365 0.375000 0.875000
O O13 0.125000 0.625000 0.387461
#
# Coordination Sequence:
#
# PCOD9515816 Si02
#       6
#    32  32  32  16  32  32
#     4   9  21  43  68  89 134 177 226 286 343 403
#     4  11  23  40  70  98 131 184 226 282 353 408
#     4  11  24  41  67  93 138 182 217 280 347 407
#     4  10  22  40  68  90 134 172 228 290 328 398
#     4  11  24  44  65  97 145 176 225 284 347 423
#     4  12  22  40  63 100 128 175 235 281 334 411
#
# _framework density 19.595801000000002
#
# number of rings (size 3 to 8) (size 9 to 14) (size 15 to 20)
#    0.545    0.727    3.636    3.273    5.091    0.000 
#    0.000    0.000    0.000    0.000    0.000    0.000 
#    0.000    0.000    0.000    0.000    0.000    0.000 
#
# Total GULP energy -245275.401881 kJ/mol
# GULP energy per Si atom -5574.440952 kJ/mol
# Density = 1.955120 g / cm^3
# Si number density = 19.595801 Si / 1000 Ang^3
#
#
#
# Elastic Constant Matrix: (Units=GPa)
#
#
# Indices 1 2 3 4 5 6 
#
# 1 89.6619 34.2615 35.7691 0.0000 0.0000 0.0000
# 2 34.2615 81.8100 37.7811 0.0000 0.0000 0.0000
# 3 35.7691 37.7811 155.5293 0.0000 0.0000 0.0000
# 4 0.0000 0.0000 0.0000 25.4816 0.0000 0.0000
# 5 0.0000 0.0000 0.0000 0.0000 17.6218 0.0000
# 6 0.0000 0.0000 0.0000 0.0000 0.0000 42.7026
#
#
#
# Elastic Compliance Matrix: (Units=1/GPa)
#
#
# Indices 1 2 3 4 5 6 
#
# 1 0.013806 -0.004861 -0.001994 0.000000 0.000000 0.000000
# 2 -0.004861 0.015479 -0.002642 0.000000 0.000000 0.000000
# 3 -0.001994 -0.002642 0.007530 0.000000 0.000000 0.000000
# 4 0.000000 0.000000 0.000000 0.039244 0.000000 0.000000
# 5 0.000000 0.000000 0.000000 0.000000 0.056748 0.000000
# 6 0.000000 0.000000 0.000000 0.000000 0.000000 0.023418
#
#
# Mechanical properties :
#
#
# Convention : Reuss Voigt Hill
#
# Bulk Modulus (GPa) = 56.11499 60.29161 58.20330
# Shear Modulus (GPa) = 27.59981 31.77384 29.68682
#
# Velocity S-wave (km/s) = 3.75701 4.03111 3.89647
# Velocity P-wave (km/s) = 6.89337 7.24575 7.07175
#
# Compressibility (1/GPa) = 0.01782055
#
# Stress axis : x y z
#
# Youngs Moduli (GPa) = 72.43204 64.60198 132.79863
#
# Poissons Ratio (x) = 0.31402 0.26485
# Poissons Ratio (y) = 0.35208 0.35090
# Poissons Ratio (z) = 0.14446 0.17070
#
# Static dielectric constant tensor:
#      x y z
#    x 1.708070 0.000000 0.000000 
#    y 0.000000 1.707700 0.000000 
#    z 0.000000 0.000000 1.713490 
# 
# From -- ./inp_files/51361.got.cif
#   From: 2010.05.17/outbox.cif.g08.bks.cpg/sg70_26_cif.got.tgz:51361.got - 2010.06.03 15:57:51.
