data_PCOD9515739
_publ_section_title
;
Structure prediction by ZEFSAII (Michael W. Deem and Ramdas Pophale) SiO2 
 PCOD9515739
Probable space group: F D D D
;
_chemical_formula_sum "Si O2"
_cell_formula_units_Z 168
_cell_length_a 25.548710
_cell_length_b 14.983176
_cell_length_c 18.274742
_cell_angle_alpha 90.000000
_cell_angle_beta 90.000000
_cell_angle_gamma 90.000000
_cell_volume 6995.586196
_symmetry_space_group_name_H-M "F D D D"
_symmetry_group_IT_number 70
_space_group.IT_coordinate_system_code '2'
_symmetry_cell_setting 'orthorhombic'
loop_
_space_group_symop_operation_xyz
x,y,z
1/4-x,1/4-y,z
x,1/4-y,1/4-z
1/4-x,y,1/4-z
-x,-y,-z
3/4+x,3/4+y,-z
-x,3/4+y,3/4+z
3/4+x,-y,3/4+z
x,1/2+y,1/2+z
1/4-x,3/4-y,1/2+z
x,3/4-y,3/4-z
1/4-x,1/2+y,3/4-z
-x,1/2-y,1/2-z
3/4+x,1/4+y,1/2-z
-x,1/4+y,1/4+z
3/4+x,1/2-y,1/4+z
1/2+x,y,1/2+z
3/4-x,1/4-y,1/2+z
1/2+x,1/4-y,3/4-z
3/4-x,y,3/4-z
1/2-x,-y,1/2-z
1/4+x,3/4+y,1/2-z
1/2-x,3/4+y,1/4+z
1/4+x,-y,1/4+z
1/2+x,1/2+y,z
3/4-x,3/4-y,z
1/2+x,3/4-y,1/4-z
3/4-x,1/2+y,1/4-z
1/2-x,1/2-y,-z
1/4+x,1/4+y,-z
1/2-x,1/4+y,3/4+z
1/4+x,1/2-y,3/4+z
loop_
_atom_site_type_symbol
_atom_site_label
_atom_site_fract_x
_atom_site_fract_y
_atom_site_fract_z
Si Si1 0.215520 0.996470 0.139349
Si Si2 0.910589 0.659772 0.449471
Si Si3 0.375000 0.875000 0.375000
Si Si4 0.188678 0.412270 0.484626
Si Si5 0.811170 0.264428 0.090099
Si Si6 0.815674 0.279713 0.674147
O O1 0.208213 0.905391 0.182743
O O2 0.275886 0.021823 0.130070
O O3 0.168399 0.061889 0.164451
O O4 0.202420 0.968655 0.055896
O O5 0.875000 0.674841 0.375000
O O6 0.873122 0.605735 0.504722
O O7 0.931409 0.745120 0.492287
O O8 0.204807 0.308518 0.471290
O O9 0.206103 0.469499 0.415497
O O10 0.797604 0.366916 0.076248
O O11 0.874327 0.269711 0.098913
#
# Coordination Sequence:
#
# PCOD9515739 Si02
#       6
#    32  32   8  32  32  32
#     4  11  23  40  62  91 131 171 227 270 336 409
#     4   9  19  42  63  88 134 175 207 280 344 397
#     4  12  24  44  60  96 126 184 220 280 342 402
#     4   9  18  39  64  82 130 171 205 267 337 386
#     4   9  20  39  63  93 127 168 214 281 336 391
#     4  10  22  38  65  98 130 166 233 271 331 420
#
# _framework density 24.015142000000001
#
# number of rings (size 3 to 8) (size 9 to 14) (size 15 to 20)
#    0.000    2.286    2.857    0.000    2.667    5.333 
#    0.000   18.095    0.000    0.000    0.000    0.000 
#    0.000    0.000    0.000    0.000    0.000    0.000 
#
# Total GULP energy -233920.697172 kJ/mol
# GULP energy per Si atom -5569.540409 kJ/mol
# Density = 2.396048 g / cm^3
# Si number density = 24.015142 Si / 1000 Ang^3
#
#
#
# Elastic Constant Matrix: (Units=GPa)
#
#
# Indices 1 2 3 4 5 6 
#
# 1 121.1591 19.2313 -1.5102 0.0000 0.0000 0.0000
# 2 19.2313 137.3159 31.7809 0.0000 0.0000 0.0000
# 3 -1.5102 31.7809 45.2127 0.0000 0.0000 0.0000
# 4 0.0000 0.0000 0.0000 17.9856 0.0000 0.0000
# 5 0.0000 0.0000 0.0000 0.0000 21.4589 0.0000
# 6 0.0000 0.0000 0.0000 0.0000 0.0000 -1.6702
#
#
#
# Elastic Compliance Matrix: (Units=1/GPa)
#
#
# Indices 1 2 3 4 5 6 
#
# 1 0.008509 -0.001502 0.001340 0.000000 0.000000 0.000000
# 2 -0.001502 0.008962 -0.006350 0.000000 0.000000 0.000000
# 3 0.001340 -0.006350 0.026626 0.000000 0.000000 0.000000
# 4 0.000000 0.000000 0.000000 0.055600 0.000000 0.000000
# 5 0.000000 0.000000 0.000000 0.000000 0.046601 0.000000
# 6 0.000000 0.000000 0.000000 0.000000 0.000000 -0.598719
#
#
# Mechanical properties :
#
#
# Convention : Reuss Voigt Hill
#
# Bulk Modulus (GPa) = 32.18209 44.74353 38.46281
# Shear Modulus (GPa) = -11.65393 24.50056 6.42331
#
# Velocity S-wave (km/s) = -2.20528 3.19754 1.63722
# Velocity P-wave (km/s) = 2.63543 5.68368 4.42999
#
# Compressibility (1/GPa) = 0.03107318
#
# Stress axis : x y z
#
# Youngs Moduli (GPa) = 117.52700 111.57617 37.55723
#
# Poissons Ratio (x) = 0.16756 -0.05032
# Poissons Ratio (y) = 0.17650 0.23849
# Poissons Ratio (z) = -0.15746 0.70852
#
# Static dielectric constant tensor:
#      x y z
#    x 1.987940 0.000000 0.000000 
#    y 0.000000 1.966640 0.000000 
#    z 0.000000 0.000000 1.941950 
# 
# From -- ./inp_files/29840.got.cif
#   From: 2010.05.17/outbox.cif.g08.bks.cpg/sg70_15_cif.got.tgz:29840.got - 2010.06.03 15:57:51.
