data_PCOD9515299
_publ_section_title
;
Structure prediction by ZEFSAII (Michael W. Deem and Ramdas Pophale) SiO2 
 PCOD9515299
Probable space group: F D D D
;
_chemical_formula_sum "Si O2"
_cell_formula_units_Z 160
_cell_length_a 23.509798
_cell_length_b 18.880709
_cell_length_c 15.691099
_cell_angle_alpha 90.000000
_cell_angle_beta 90.000000
_cell_angle_gamma 90.000000
_cell_volume 6964.990988
_symmetry_space_group_name_H-M "F D D D"
_symmetry_group_IT_number 70
_space_group.IT_coordinate_system_code '2'
_symmetry_cell_setting 'orthorhombic'
loop_
_space_group_symop_operation_xyz
x,y,z
1/4-x,1/4-y,z
x,1/4-y,1/4-z
1/4-x,y,1/4-z
-x,-y,-z
3/4+x,3/4+y,-z
-x,3/4+y,3/4+z
3/4+x,-y,3/4+z
x,1/2+y,1/2+z
1/4-x,3/4-y,1/2+z
x,3/4-y,3/4-z
1/4-x,1/2+y,3/4-z
-x,1/2-y,1/2-z
3/4+x,1/4+y,1/2-z
-x,1/4+y,1/4+z
3/4+x,1/2-y,1/4+z
1/2+x,y,1/2+z
3/4-x,1/4-y,1/2+z
1/2+x,1/4-y,3/4-z
3/4-x,y,3/4-z
1/2-x,-y,1/2-z
1/4+x,3/4+y,1/2-z
1/2-x,3/4+y,1/4+z
1/4+x,-y,1/4+z
1/2+x,1/2+y,z
3/4-x,3/4-y,z
1/2+x,3/4-y,1/4-z
3/4-x,1/2+y,1/4-z
1/2-x,1/2-y,-z
1/4+x,1/4+y,-z
1/2-x,1/4+y,3/4+z
1/4+x,1/2-y,3/4+z
loop_
_atom_site_type_symbol
_atom_site_label
_atom_site_fract_x
_atom_site_fract_y
_atom_site_fract_z
Si Si1 0.923472 0.125628 0.218242
Si Si2 0.286686 0.925486 0.529019
Si Si3 0.972340 0.952573 0.375099
Si Si4 0.155294 0.030180 0.304659
Si Si5 0.377842 0.990009 0.997763
O O1 0.896854 0.125000 0.125000
O O2 0.929796 0.208364 0.235391
O O3 0.884089 0.073323 0.272235
O O4 0.984444 0.086326 0.214835
O O5 0.302034 0.846170 0.559072
O O6 0.348143 0.953225 0.500826
O O7 0.261965 0.982976 0.595420
O O8 0.000354 0.875000 0.375000
O O9 0.921025 0.949509 0.305320
O O10 0.939062 0.968819 0.462455
O O11 0.133600 0.022543 0.402655
#
# Coordination Sequence:
#
# PCOD9515299 Si02
#       5
#    32  32  32  32  32
#     4   9  19  40  61  82 117 157 198 253 304 352
#     4  10  22  37  59  88 114 158 206 240 303 365
#     4  10  21  36  59  88 126 152 197 243 296 372
#     4  10  21  38  59  84 121 155 202 254 295 356
#     4   9  19  37  59  85 119 159 188 239 311 354
#
# _framework density 22.972033
#
# number of rings (size 3 to 8) (size 9 to 14) (size 15 to 20)
#    0.000    2.400    0.000    1.800    5.600    3.200 
#   10.800    2.000    4.400    0.000    0.000    0.000 
#    0.000    0.000    0.000    0.000    0.000    0.000 
#
# Total GULP energy -222905.831489 kJ/mol
# GULP energy per Si atom -5572.645787 kJ/mol
# Density = 2.291975 g / cm^3
# Si number density = 22.972033 Si / 1000 Ang^3
#
#
#
# Elastic Constant Matrix: (Units=GPa)
#
#
# Indices 1 2 3 4 5 6 
#
# 1 83.7077 37.7224 6.9079 0.0000 0.0000 0.0000
# 2 37.7224 185.6840 5.9151 0.0000 0.0000 0.0000
# 3 6.9079 5.9151 30.2944 0.0000 0.0000 0.0000
# 4 0.0000 0.0000 0.0000 23.8000 0.0000 0.0000
# 5 0.0000 0.0000 0.0000 0.0000 19.5733 0.0000
# 6 0.0000 0.0000 0.0000 0.0000 0.0000 10.5049
#
#
#
# Elastic Compliance Matrix: (Units=1/GPa)
#
#
# Indices 1 2 3 4 5 6 
#
# 1 0.013340 -0.002630 -0.002528 0.000000 0.000000 0.000000
# 2 -0.002630 0.005938 -0.000560 0.000000 0.000000 0.000000
# 3 -0.002528 -0.000560 0.033695 0.000000 0.000000 0.000000
# 4 0.000000 0.000000 0.000000 0.042017 0.000000 0.000000
# 5 0.000000 0.000000 0.000000 0.000000 0.051090 0.000000
# 6 0.000000 0.000000 0.000000 0.000000 0.000000 0.095194
#
#
# Mechanical properties :
#
#
# Convention : Reuss Voigt Hill
#
# Bulk Modulus (GPa) = 24.07474 44.53079 34.30276
# Shear Modulus (GPa) = 18.75788 27.38501 23.07145
#
# Velocity S-wave (km/s) = 2.86064 3.45643 3.17255
# Velocity P-wave (km/s) = 4.62750 5.94610 5.32775
#
# Compressibility (1/GPa) = 0.04153732
#
# Stress axis : x y z
#
# Youngs Moduli (GPa) = 74.96270 168.42045 29.67782
#
# Poissons Ratio (x) = 0.44286 0.07504
# Poissons Ratio (y) = 0.19712 0.01661
# Poissons Ratio (z) = 0.18954 0.09427
#
# Static dielectric constant tensor:
#      x y z
#    x 1.879570 0.000000 0.000000 
#    y 0.000000 1.967760 0.000000 
#    z 0.000000 0.000000 1.869510 
# 
# From -- ./inp_files/38445.got.cif
#   From: 2010.05.17/outbox.cif.g08.bks.cpg/sg70_20_cif.got.tgz:38445.got - 2010.06.03 15:57:51.
