data_PCOD9515616
_publ_section_title
;
Structure prediction by ZEFSAII (Michael W. Deem and Ramdas Pophale) SiO2 
 PCOD9515616
Probable space group: F D D D
;
_chemical_formula_sum "Si O2"
_cell_formula_units_Z 112
_cell_length_a 34.742800
_cell_length_b 11.408377
_cell_length_c 10.406686
_cell_angle_alpha 90.000000
_cell_angle_beta 90.000000
_cell_angle_gamma 90.000000
_cell_volume 4124.783245
_symmetry_space_group_name_H-M "F D D D"
_symmetry_group_IT_number 70
_space_group.IT_coordinate_system_code '2'
_symmetry_cell_setting 'orthorhombic'
loop_
_space_group_symop_operation_xyz
x,y,z
1/4-x,1/4-y,z
x,1/4-y,1/4-z
1/4-x,y,1/4-z
-x,-y,-z
3/4+x,3/4+y,-z
-x,3/4+y,3/4+z
3/4+x,-y,3/4+z
x,1/2+y,1/2+z
1/4-x,3/4-y,1/2+z
x,3/4-y,3/4-z
1/4-x,1/2+y,3/4-z
-x,1/2-y,1/2-z
3/4+x,1/4+y,1/2-z
-x,1/4+y,1/4+z
3/4+x,1/2-y,1/4+z
1/2+x,y,1/2+z
3/4-x,1/4-y,1/2+z
1/2+x,1/4-y,3/4-z
3/4-x,y,3/4-z
1/2-x,-y,1/2-z
1/4+x,3/4+y,1/2-z
1/2-x,3/4+y,1/4+z
1/4+x,-y,1/4+z
1/2+x,1/2+y,z
3/4-x,3/4-y,z
1/2+x,3/4-y,1/4-z
3/4-x,1/2+y,1/4-z
1/2-x,1/2-y,-z
1/4+x,1/4+y,-z
1/2-x,1/4+y,3/4+z
1/4+x,1/2-y,3/4+z
loop_
_atom_site_type_symbol
_atom_site_label
_atom_site_fract_x
_atom_site_fract_y
_atom_site_fract_z
Si Si1 0.585509 0.188858 0.757183
Si Si2 0.043455 0.875000 0.375000
Si Si3 0.518844 0.999963 0.304516
Si Si4 0.334599 0.559578 0.367552
O O1 0.625000 0.125000 0.804406
O O2 0.576540 0.125000 0.625000
O O3 0.547277 0.185154 0.844372
O O4 0.591945 0.322415 0.706942
O O5 0.072672 0.810225 0.280590
O O6 0.017262 0.811617 0.485086
O O7 0.510875 0.875000 0.375000
O O8 0.547545 0.988752 0.186434
O O9 0.375000 0.497372 0.375000
#
# Coordination Sequence:
#
# PCOD9515616 Si02
#       4
#    32  16  32  32
#     4  10  21  42  75 110 149 200 252 300 382 463
#     4  12  28  48  77 108 156 206 256 322 409 462
#     4  10  26  48  72 114 158 196 260 328 386 469
#     4  11  25  45  75 110 148 199 254 317 378 466
#
# _framework density 27.152943
#
# number of rings (size 3 to 8) (size 9 to 14) (size 15 to 20)
#    0.000    1.429    2.857    0.857    6.000   12.571 
#    0.000    0.000    0.000    0.000    0.000    0.000 
#    0.000    0.000    0.000    0.000    0.000    0.000 
#
# Total GULP energy -156440.603342 kJ/mol
# GULP energy per Si atom -5587.164405 kJ/mol
# Density = 2.709114 g / cm^3
# Si number density = 27.152943 Si / 1000 Ang^3
#
#
#
# Elastic Constant Matrix: (Units=GPa)
#
#
# Indices 1 2 3 4 5 6 
#
# 1 198.5047 56.5863 77.9222 0.0000 0.0000 0.0000
# 2 56.5863 121.0699 31.9886 0.0000 0.0000 0.0000
# 3 77.9222 31.9886 197.8905 0.0000 0.0000 0.0000
# 4 0.0000 0.0000 0.0000 207.0919 0.0000 0.0000
# 5 0.0000 0.0000 0.0000 0.0000 -716.8383 0.0000
# 6 0.0000 0.0000 0.0000 0.0000 0.0000 73.8541
#
#
#
# Elastic Compliance Matrix: (Units=1/GPa)
#
#
# Indices 1 2 3 4 5 6 
#
# 1 0.006617 -0.002512 -0.002200 0.000000 0.000000 0.000000
# 2 -0.002512 0.009581 -0.000560 0.000000 0.000000 0.000000
# 3 -0.002200 -0.000560 0.006010 0.000000 0.000000 0.000000
# 4 0.000000 0.000000 0.000000 0.004829 0.000000 0.000000
# 5 0.000000 0.000000 0.000000 0.000000 -0.001395 0.000000
# 6 0.000000 0.000000 0.000000 0.000000 0.000000 0.013540
#
#
# Mechanical properties :
#
#
# Convention : Reuss Voigt Hill
#
# Bulk Modulus (GPa) = 85.71577 94.49548 90.10562
# Shear Modulus (GPa) = 93.26060 -63.78059 14.74000
#
# Velocity S-wave (km/s) = 5.86694 -4.85184 2.33244
# Velocity P-wave (km/s) = 8.80516 1.86804 6.36477
#
# Compressibility (1/GPa) = 0.01166647
#
# Stress axis : x y z
#
# Youngs Moduli (GPa) = 151.12482 104.36796 166.39174
#
# Poissons Ratio (x) = 0.26213 0.36599
# Poissons Ratio (y) = 0.37956 0.09316
# Poissons Ratio (z) = 0.33241 0.05843
#
# Static dielectric constant tensor:
#      x y z
#    x 2.125260 0.000000 0.000000 
#    y 0.000000 2.492210 0.000000 
#    z 0.000000 0.000000 2.070700 
# 
# From -- ./inp_files/21754.got.cif
#   From: 2010.05.17/outbox.cif.g08.bks.cpg/sg70_11_cif.got.tgz:21754.got - 2010.06.03 15:57:51.
