data_PCOD9515857
_publ_section_title
;
Structure prediction by ZEFSAII (Michael W. Deem and Ramdas Pophale) SiO2 
 PCOD9515857
Probable space group: F D D D
;
_chemical_formula_sum "Si O2"
_cell_formula_units_Z 176
_cell_length_a 25.294785
_cell_length_b 11.349374
_cell_length_c 25.649318
_cell_angle_alpha 90.000000
_cell_angle_beta 90.000000
_cell_angle_gamma 90.000000
_cell_volume 7363.405576
_symmetry_space_group_name_H-M "F D D D"
_symmetry_group_IT_number 70
_space_group.IT_coordinate_system_code '2'
_symmetry_cell_setting 'orthorhombic'
loop_
_space_group_symop_operation_xyz
x,y,z
1/4-x,1/4-y,z
x,1/4-y,1/4-z
1/4-x,y,1/4-z
-x,-y,-z
3/4+x,3/4+y,-z
-x,3/4+y,3/4+z
3/4+x,-y,3/4+z
x,1/2+y,1/2+z
1/4-x,3/4-y,1/2+z
x,3/4-y,3/4-z
1/4-x,1/2+y,3/4-z
-x,1/2-y,1/2-z
3/4+x,1/4+y,1/2-z
-x,1/4+y,1/4+z
3/4+x,1/2-y,1/4+z
1/2+x,y,1/2+z
3/4-x,1/4-y,1/2+z
1/2+x,1/4-y,3/4-z
3/4-x,y,3/4-z
1/2-x,-y,1/2-z
1/4+x,3/4+y,1/2-z
1/2-x,3/4+y,1/4+z
1/4+x,-y,1/4+z
1/2+x,1/2+y,z
3/4-x,3/4-y,z
1/2+x,3/4-y,1/4-z
3/4-x,1/2+y,1/4-z
1/2-x,1/2-y,-z
1/4+x,1/4+y,-z
1/2-x,1/4+y,3/4+z
1/4+x,1/2-y,3/4+z
loop_
_atom_site_type_symbol
_atom_site_label
_atom_site_fract_x
_atom_site_fract_y
_atom_site_fract_z
Si Si1 0.933184 0.407043 0.988653
Si Si2 0.683912 0.127386 0.360476
Si Si3 0.433507 0.324509 0.768909
Si Si4 0.002007 0.375000 0.375000
Si Si5 0.780934 0.658437 0.291747
Si Si6 0.536195 0.494559 0.609004
O O1 0.875000 0.375000 0.968886
O O2 0.967217 0.291283 0.977577
O O3 0.954166 0.513245 0.952390
O O4 0.928805 0.414316 0.050133
O O5 0.625000 0.125000 0.383253
O O6 0.712147 0.256488 0.365270
O O7 0.725908 0.027896 0.377107
O O8 0.375000 0.375000 0.769709
O O9 0.465604 0.353831 0.823105
O O10 0.471753 0.366499 0.722255
O O11 0.432769 0.183511 0.760866
O O12 0.809201 0.654987 0.349060
O O13 0.552644 0.625000 0.625000
#
# Coordination Sequence:
#
# PCOD9515857 Si02
#       6
#    32  32  32  16  32  32
#     4  10  22  43  67  95 134 180 222 285 351 401
#     4  11  24  42  67 100 136 181 226 284 345 407
#     4  11  24  44  68  98 138 185 229 286 352 408
#     4  12  23  46  70  98 142 178 237 288 336 424
#     4  10  22  44  63 100 136 171 231 287 337 429
#     4  10  22  41  66  94 135 173 228 276 337 415
#
# _framework density 23.901983999999999
#
# number of rings (size 3 to 8) (size 9 to 14) (size 15 to 20)
#    0.000    1.455    3.636    0.818    1.273    5.455 
#   16.364    0.000    0.000    0.000    0.000    0.000 
#    0.000    0.000    0.000    0.000    0.000    0.000 
#
# Total GULP energy -245027.426294 kJ/mol
# GULP energy per Si atom -5568.805143 kJ/mol
# Density = 2.384758 g / cm^3
# Si number density = 23.901984 Si / 1000 Ang^3
#
#
#
# Elastic Constant Matrix: (Units=GPa)
#
#
# Indices 1 2 3 4 5 6 
#
# 1 105.4476 17.8519 7.0103 0.0000 0.0000 0.0000
# 2 17.8519 47.9287 12.8046 0.0000 0.0000 0.0000
# 3 7.0103 12.8046 109.0646 0.0000 0.0000 0.0000
# 4 0.0000 0.0000 0.0000 30.8033 0.0000 0.0000
# 5 0.0000 0.0000 0.0000 0.0000 -9.3921 0.0000
# 6 0.0000 0.0000 0.0000 0.0000 0.0000 25.9090
#
#
#
# Elastic Compliance Matrix: (Units=1/GPa)
#
#
# Indices 1 2 3 4 5 6 
#
# 1 0.010127 -0.003714 -0.000215 0.000000 0.000000 0.000000
# 2 -0.003714 0.022902 -0.002450 0.000000 0.000000 0.000000
# 3 -0.000215 -0.002450 0.009470 0.000000 0.000000 0.000000
# 4 0.000000 0.000000 0.000000 0.032464 0.000000 0.000000
# 5 0.000000 0.000000 0.000000 0.000000 -0.106472 0.000000
# 6 0.000000 0.000000 0.000000 0.000000 0.000000 0.038597
#
#
# Mechanical properties :
#
#
# Convention : Reuss Voigt Hill
#
# Bulk Modulus (GPa) = 33.62403 37.53050 35.57726
# Shear Modulus (GPa) = 168.01071 24.44896 96.22984
#
# Velocity S-wave (km/s) = 8.39310 3.20173 6.35198
# Velocity P-wave (km/s) = 10.39344 5.42254 8.28938
#
# Compressibility (1/GPa) = 0.02974064
#
# Stress axis : x y z
#
# Youngs Moduli (GPa) = 98.75072 43.66353 105.59292
#
# Poissons Ratio (x) = 0.16218 0.02268
# Poissons Ratio (y) = 0.36680 0.25871
# Poissons Ratio (z) = 0.02121 0.10698
#
# Static dielectric constant tensor:
#      x y z
#    x 2.029030 0.000000 0.000000 
#    y 0.000000 1.931310 0.000000 
#    z 0.000000 0.000000 2.191370 
# 
# From -- ./inp_files/67807.got.cif
#   From: 2010.05.17/outbox.cif.g08.bks.cpg/sg70_34_cif.got.tgz:67807.got - 2010.06.03 15:57:51.
