data_PCOD9515251
_publ_section_title
;
Structure prediction by ZEFSAII (Michael W. Deem and Ramdas Pophale) SiO2 
 PCOD9515251
Probable space group: F D D D
;
_chemical_formula_sum "Si O2"
_cell_formula_units_Z 168
_cell_length_a 17.936769
_cell_length_b 15.129166
_cell_length_c 23.228482
_cell_angle_alpha 90.000000
_cell_angle_beta 90.000000
_cell_angle_gamma 90.000000
_cell_volume 6303.474966
_symmetry_space_group_name_H-M "F D D D"
_symmetry_group_IT_number 70
_space_group.IT_coordinate_system_code '2'
_symmetry_cell_setting 'orthorhombic'
loop_
_space_group_symop_operation_xyz
x,y,z
1/4-x,1/4-y,z
x,1/4-y,1/4-z
1/4-x,y,1/4-z
-x,-y,-z
3/4+x,3/4+y,-z
-x,3/4+y,3/4+z
3/4+x,-y,3/4+z
x,1/2+y,1/2+z
1/4-x,3/4-y,1/2+z
x,3/4-y,3/4-z
1/4-x,1/2+y,3/4-z
-x,1/2-y,1/2-z
3/4+x,1/4+y,1/2-z
-x,1/4+y,1/4+z
3/4+x,1/2-y,1/4+z
1/2+x,y,1/2+z
3/4-x,1/4-y,1/2+z
1/2+x,1/4-y,3/4-z
3/4-x,y,3/4-z
1/2-x,-y,1/2-z
1/4+x,3/4+y,1/2-z
1/2-x,3/4+y,1/4+z
1/4+x,-y,1/4+z
1/2+x,1/2+y,z
3/4-x,3/4-y,z
1/2+x,3/4-y,1/4-z
3/4-x,1/2+y,1/4-z
1/2-x,1/2-y,-z
1/4+x,1/4+y,-z
1/2-x,1/4+y,3/4+z
1/4+x,1/2-y,3/4+z
loop_
_atom_site_type_symbol
_atom_site_label
_atom_site_fract_x
_atom_site_fract_y
_atom_site_fract_z
Si Si1 0.875000 0.875000 0.375000
Si Si2 0.124093 0.274056 0.869553
Si Si3 0.545177 0.117155 0.781843
Si Si4 0.765373 0.723669 0.801387
Si Si5 0.476053 0.227348 0.314630
Si Si6 0.029845 0.735012 0.671676
O O1 0.827451 0.805467 0.413437
O O2 0.097319 0.375000 0.875000
O O3 0.177978 0.239629 0.816972
O O4 0.189556 0.279840 0.918024
O O5 0.046545 0.224713 0.858517
O O6 0.625000 0.125000 0.813620
O O7 0.473759 0.161475 0.811491
O O8 0.556480 0.176316 0.723759
O O9 0.531665 0.018994 0.759002
O O10 0.795552 0.625416 0.807871
O O11 0.802590 0.775677 0.855559
O O12 0.500000 0.250000 0.250000
#
# Coordination Sequence:
#
# PCOD9515251 Si02
#       6
#     8  32  32  32  32  32
#     4  12  32  52  76 116 146 208 270 308 396 466
#     4  10  20  47  76  99 142 195 237 300 375 441
#     4  11  22  38  66 108 142 173 235 295 361 444
#     4  10  23  45  70 101 141 191 237 303 374 440
#     4  12  29  50  73 103 148 198 256 317 367 452
#     4   9  22  40  66 106 138 187 230 278 380 447
#
# _framework density 26.651966999999999
#
# number of rings (size 3 to 8) (size 9 to 14) (size 15 to 20)
#    1.143    0.381    2.857    1.143    5.333    6.095 
#    0.000    0.000    0.000    0.000    0.000    0.000 
#    0.000    0.000    0.000    0.000    0.000    0.000 
#
# Total GULP energy -234198.727924 kJ/mol
# GULP energy per Si atom -5576.160189 kJ/mol
# Density = 2.659131 g / cm^3
# Si number density = 26.651967 Si / 1000 Ang^3
#
#
#
# Elastic Constant Matrix: (Units=GPa)
#
#
# Indices 1 2 3 4 5 6 
#
# 1 106.6840 31.1408 14.3432 0.0000 0.0000 0.0000
# 2 31.1408 149.5001 26.8062 0.0000 0.0000 0.0000
# 3 14.3432 26.8062 120.6340 0.0000 0.0000 0.0000
# 4 0.0000 0.0000 0.0000 43.1072 0.0000 0.0000
# 5 0.0000 0.0000 0.0000 0.0000 18.8014 0.0000
# 6 0.0000 0.0000 0.0000 0.0000 0.0000 34.1359
#
#
#
# Elastic Compliance Matrix: (Units=1/GPa)
#
#
# Indices 1 2 3 4 5 6 
#
# 1 0.010047 -0.001956 -0.000760 0.000000 0.000000 0.000000
# 2 -0.001956 0.007348 -0.001400 0.000000 0.000000 0.000000
# 3 -0.000760 -0.001400 0.008691 0.000000 0.000000 0.000000
# 4 0.000000 0.000000 0.000000 0.023198 0.000000 0.000000
# 5 0.000000 0.000000 0.000000 0.000000 0.053187 0.000000
# 6 0.000000 0.000000 0.000000 0.000000 0.000000 0.029295
#
#
# Mechanical properties :
#
#
# Convention : Reuss Voigt Hill
#
# Bulk Modulus (GPa) = 56.01447 57.93317 56.97382
# Shear Modulus (GPa) = 34.25858 39.51077 36.88468
#
# Velocity S-wave (km/s) = 3.58914 3.85446 3.72417
# Velocity P-wave (km/s) = 6.18374 6.44929 6.31791
#
# Compressibility (1/GPa) = 0.01785253
#
# Stress axis : x y z
#
# Youngs Moduli (GPa) = 99.53495 136.10005 115.06171
#
# Poissons Ratio (x) = 0.26628 0.08742
# Poissons Ratio (y) = 0.19474 0.16110
# Poissons Ratio (z) = 0.07563 0.19055
#
# Static dielectric constant tensor:
#      x y z
#    x 2.134070 0.000000 0.000000 
#    y 0.000000 2.868310 0.000000 
#    z 0.000000 0.000000 2.162520 
# 
# From -- ./inp_files/60304.got.cif
#   From: 2010.05.17/outbox.cif.g08.bks.cpg/sg70_31_cif.got.tgz:60304.got - 2010.06.03 15:57:51.
