data_PCOD9515207
_publ_section_title
;
Structure prediction by ZEFSAII (Michael W. Deem and Ramdas Pophale) SiO2 
 PCOD9515207
Probable space group: F D D D
;
_chemical_formula_sum "Si O2"
_cell_formula_units_Z 112
_cell_length_a 9.642490
_cell_length_b 33.663750
_cell_length_c 14.908942
_cell_angle_alpha 90.000000
_cell_angle_beta 90.000000
_cell_angle_gamma 90.000000
_cell_volume 4839.477948
_symmetry_space_group_name_H-M "F D D D"
_symmetry_group_IT_number 70
_space_group.IT_coordinate_system_code '2'
_symmetry_cell_setting 'orthorhombic'
loop_
_space_group_symop_operation_xyz
x,y,z
1/4-x,1/4-y,z
x,1/4-y,1/4-z
1/4-x,y,1/4-z
-x,-y,-z
3/4+x,3/4+y,-z
-x,3/4+y,3/4+z
3/4+x,-y,3/4+z
x,1/2+y,1/2+z
1/4-x,3/4-y,1/2+z
x,3/4-y,3/4-z
1/4-x,1/2+y,3/4-z
-x,1/2-y,1/2-z
3/4+x,1/4+y,1/2-z
-x,1/4+y,1/4+z
3/4+x,1/2-y,1/4+z
1/2+x,y,1/2+z
3/4-x,1/4-y,1/2+z
1/2+x,1/4-y,3/4-z
3/4-x,y,3/4-z
1/2-x,-y,1/2-z
1/4+x,3/4+y,1/2-z
1/2-x,3/4+y,1/4+z
1/4+x,-y,1/4+z
1/2+x,1/2+y,z
3/4-x,3/4-y,z
1/2+x,3/4-y,1/4-z
3/4-x,1/2+y,1/4-z
1/2-x,1/2-y,-z
1/4+x,1/4+y,-z
1/2-x,1/4+y,3/4+z
1/4+x,1/2-y,3/4+z
loop_
_atom_site_type_symbol
_atom_site_label
_atom_site_fract_x
_atom_site_fract_y
_atom_site_fract_z
Si Si1 0.022944 0.955084 0.326333
Si Si2 0.894176 0.289873 0.119118
Si Si3 0.625000 0.907859 0.125000
Si Si4 0.760739 0.599009 0.232802
O O1 0.137073 0.920496 0.339553
O O2 0.875000 0.949049 0.375000
O O3 0.986656 0.958582 0.220281
O O4 0.095295 0.995487 0.359240
O O5 0.755316 0.315033 0.102674
O O6 0.962291 0.312134 0.204006
O O7 0.598965 0.878840 0.207222
O O8 0.625000 0.625000 0.211581
#
# Coordination Sequence:
#
# PCOD9515207 Si02
#       4
#    32  32  16  32
#     4  12  24  42  72 108 145 187 242 304 366 435
#     4  11  23  42  73 100 141 188 242 294 365 433
#     4  10  20  42  72  96 134 193 251 280 364 428
#     4  10  22  43  73  97 141 194 246 294 362 434
#
# _framework density 23.142992
#
# number of rings (size 3 to 8) (size 9 to 14) (size 15 to 20)
#    0.000    1.143    4.286    1.714    0.000    0.000 
#    0.000    2.857    6.286    0.000    0.000    0.000 
#    0.000    0.000    0.000    0.000    0.000    0.000 
#
# Total GULP energy -156749.021572 kJ/mol
# GULP energy per Si atom -5598.179342 kJ/mol
# Density = 2.309032 g / cm^3
# Si number density = 23.142992 Si / 1000 Ang^3
#
#
#
# Elastic Constant Matrix: (Units=GPa)
#
#
# Indices 1 2 3 4 5 6 
#
# 1 164.2541 95.0183 40.5480 0.0000 0.0000 0.0000
# 2 95.0183 178.1645 34.9954 0.0000 0.0000 0.0000
# 3 40.5480 34.9954 77.4716 0.0000 0.0000 0.0000
# 4 0.0000 0.0000 0.0000 119.9635 0.0000 0.0000
# 5 0.0000 0.0000 0.0000 0.0000 -21.9556 0.0000
# 6 0.0000 0.0000 0.0000 0.0000 0.0000 28.0660
#
#
#
# Elastic Compliance Matrix: (Units=1/GPa)
#
#
# Indices 1 2 3 4 5 6 
#
# 1 0.009364 -0.004424 -0.002903 0.000000 0.000000 0.000000
# 2 -0.004424 0.008249 -0.001411 0.000000 0.000000 0.000000
# 3 -0.002903 -0.001411 0.015065 0.000000 0.000000 0.000000
# 4 0.000000 0.000000 0.000000 0.008336 0.000000 0.000000
# 5 0.000000 0.000000 0.000000 0.000000 -0.045546 0.000000
# 6 0.000000 0.000000 0.000000 0.000000 0.000000 0.035630
#
#
# Mechanical properties :
#
#
# Convention : Reuss Voigt Hill
#
# Bulk Modulus (GPa) = 65.77729 84.55706 75.16718
# Shear Modulus (GPa) = 93.21521 41.83668 67.52595
#
# Velocity S-wave (km/s) = 6.35338 4.25637 5.40750
# Velocity P-wave (km/s) = 9.07217 7.79562 8.45802
#
# Compressibility (1/GPa) = 0.01520282
#
# Stress axis : x y z
#
# Youngs Moduli (GPa) = 106.79542 121.22433 66.38111
#
# Poissons Ratio (x) = 0.53626 0.19268
# Poissons Ratio (y) = 0.47243 0.09366
# Poissons Ratio (z) = 0.30999 0.17105
#
# Static dielectric constant tensor:
#      x y z
#    x 1.903810 0.000000 0.000000 
#    y 0.000000 1.826030 0.000000 
#    z 0.000000 0.000000 1.916320 
# 
# From -- ./inp_files/24447.got.cif
#   From: 2010.05.17/outbox.cif.g08.bks.cpg/sg70_13_cif.got.tgz:24447.got - 2010.06.03 15:57:51.
