data_PCOD9515250
_publ_section_title
;
Structure prediction by ZEFSAII (Michael W. Deem and Ramdas Pophale) SiO2 
 PCOD9515250
Probable space group: F D D D
;
_chemical_formula_sum "Si O2"
_cell_formula_units_Z 176
_cell_length_a 10.226367
_cell_length_b 25.573805
_cell_length_c 25.882053
_cell_angle_alpha 90.000000
_cell_angle_beta 90.000000
_cell_angle_gamma 90.000000
_cell_volume 6768.858665
_symmetry_space_group_name_H-M "F D D D"
_symmetry_group_IT_number 70
_space_group.IT_coordinate_system_code '2'
_symmetry_cell_setting 'orthorhombic'
loop_
_space_group_symop_operation_xyz
x,y,z
1/4-x,1/4-y,z
x,1/4-y,1/4-z
1/4-x,y,1/4-z
-x,-y,-z
3/4+x,3/4+y,-z
-x,3/4+y,3/4+z
3/4+x,-y,3/4+z
x,1/2+y,1/2+z
1/4-x,3/4-y,1/2+z
x,3/4-y,3/4-z
1/4-x,1/2+y,3/4-z
-x,1/2-y,1/2-z
3/4+x,1/4+y,1/2-z
-x,1/4+y,1/4+z
3/4+x,1/2-y,1/4+z
1/2+x,y,1/2+z
3/4-x,1/4-y,1/2+z
1/2+x,1/4-y,3/4-z
3/4-x,y,3/4-z
1/2-x,-y,1/2-z
1/4+x,3/4+y,1/2-z
1/2-x,3/4+y,1/4+z
1/4+x,-y,1/4+z
1/2+x,1/2+y,z
3/4-x,3/4-y,z
1/2+x,3/4-y,1/4-z
3/4-x,1/2+y,1/4-z
1/2-x,1/2-y,-z
1/4+x,1/4+y,-z
1/2-x,1/4+y,3/4+z
1/4+x,1/2-y,3/4+z
loop_
_atom_site_type_symbol
_atom_site_label
_atom_site_fract_x
_atom_site_fract_y
_atom_site_fract_z
Si Si1 0.924493 0.599261 0.729334
Si Si2 0.174457 0.991432 0.030310
Si Si3 0.110483 0.566161 0.913093
Si Si4 0.742883 0.037841 0.164707
Si Si5 0.427110 0.700958 0.179230
Si Si6 0.875000 0.375000 0.187384
O O1 0.779886 0.578066 0.710931
O O2 0.966419 0.640963 0.686137
O O3 0.004154 0.545825 0.730536
O O4 0.990320 0.628160 0.779672
O O5 0.254142 0.958799 0.070993
O O6 0.174508 0.960310 0.976311
O O7 0.038493 0.008703 0.054882
O O8 0.125000 0.625000 0.935099
O O9 0.101336 0.576927 0.851861
O O10 0.998936 0.524153 0.930132
O O11 0.625000 0.049758 0.125000
O O12 0.866316 0.041335 0.126039
#
# Coordination Sequence:
#
# PCOD9515250 Si02
#       6
#    32  32  32  32  32  16
#     4  11  22  44  75 104 145 192 245 312 379 440
#     4  10  22  44  71 114 137 189 255 309 380 443
#     4   9  23  46  73 105 152 197 247 310 373 450
#     4  11  26  49  68 107 146 198 248 307 378 457
#     4  11  23  43  74 102 147 187 242 324 369 443
#     4  10  20  46  71 114 150 196 241 318 372 450
#
# _framework density 26.001429999999999
#
# number of rings (size 3 to 8) (size 9 to 14) (size 15 to 20)
#    0.545    1.091    1.818    1.636    2.545    4.364 
#   16.364    4.545    0.000    0.000    0.000    0.000 
#    0.000    0.000    0.000    0.000    0.000    0.000 
#
# Total GULP energy -245565.328549 kJ/mol
# GULP energy per Si atom -5581.030194 kJ/mol
# Density = 2.594225 g / cm^3
# Si number density = 26.001430 Si / 1000 Ang^3
#
#
#
# Elastic Constant Matrix: (Units=GPa)
#
#
# Indices 1 2 3 4 5 6 
#
# 1 58.2761 14.1178 24.8996 0.0000 0.0000 0.0000
# 2 14.1178 110.9158 25.3429 0.0000 0.0000 0.0000
# 3 24.8996 25.3429 115.1660 0.0000 0.0000 0.0000
# 4 0.0000 0.0000 0.0000 34.2113 0.0000 0.0000
# 5 0.0000 0.0000 0.0000 0.0000 24.8613 0.0000
# 6 0.0000 0.0000 0.0000 0.0000 0.0000 22.5860
#
#
#
# Elastic Compliance Matrix: (Units=1/GPa)
#
#
# Indices 1 2 3 4 5 6 
#
# 1 0.019163 -0.001571 -0.003797 0.000000 0.000000 0.000000
# 2 -0.001571 0.009622 -0.001778 0.000000 0.000000 0.000000
# 3 -0.003797 -0.001778 0.009895 0.000000 0.000000 0.000000
# 4 0.000000 0.000000 0.000000 0.029230 0.000000 0.000000
# 5 0.000000 0.000000 0.000000 0.000000 0.040223 0.000000
# 6 0.000000 0.000000 0.000000 0.000000 0.000000 0.044275
#
#
# Mechanical properties :
#
#
# Convention : Reuss Voigt Hill
#
# Bulk Modulus (GPa) = 41.00481 45.89760 43.45120
# Shear Modulus (GPa) = 28.59911 30.99823 29.79867
#
# Velocity S-wave (km/s) = 3.32008 3.45653 3.38899
# Velocity P-wave (km/s) = 5.52283 5.79831 5.66225
#
# Compressibility (1/GPa) = 0.02438738
#
# Stress axis : x y z
#
# Youngs Moduli (GPa) = 52.18420 103.92804 101.05808
#
# Poissons Ratio (x) = 0.16332 0.38375
# Poissons Ratio (y) = 0.08201 0.17964
# Poissons Ratio (z) = 0.19816 0.18474
#
# Static dielectric constant tensor:
#      x y z
#    x 2.094690 0.000000 0.000000 
#    y 0.000000 2.143930 0.000000 
#    z 0.000000 0.000000 2.105060 
# 
# From -- ./inp_files/57619.got.cif
#   From: 2010.05.17/outbox.cif.g08.bks.cpg/sg70_29_cif.got.tgz:57619.got - 2010.06.03 15:57:51.
