data_PCOD9515480
_publ_section_title
;
Structure prediction by ZEFSAII (Michael W. Deem and Ramdas Pophale) SiO2 
 PCOD9515480
Probable space group: F D D D
;
_chemical_formula_sum "Si O2"
_cell_formula_units_Z 160
_cell_length_a 18.853728
_cell_length_b 19.101034
_cell_length_c 19.748582
_cell_angle_alpha 90.000000
_cell_angle_beta 90.000000
_cell_angle_gamma 90.000000
_cell_volume 7111.971908
_symmetry_space_group_name_H-M "F D D D"
_symmetry_group_IT_number 70
_space_group.IT_coordinate_system_code '2'
_symmetry_cell_setting 'orthorhombic'
loop_
_space_group_symop_operation_xyz
x,y,z
1/4-x,1/4-y,z
x,1/4-y,1/4-z
1/4-x,y,1/4-z
-x,-y,-z
3/4+x,3/4+y,-z
-x,3/4+y,3/4+z
3/4+x,-y,3/4+z
x,1/2+y,1/2+z
1/4-x,3/4-y,1/2+z
x,3/4-y,3/4-z
1/4-x,1/2+y,3/4-z
-x,1/2-y,1/2-z
3/4+x,1/4+y,1/2-z
-x,1/4+y,1/4+z
3/4+x,1/2-y,1/4+z
1/2+x,y,1/2+z
3/4-x,1/4-y,1/2+z
1/2+x,1/4-y,3/4-z
3/4-x,y,3/4-z
1/2-x,-y,1/2-z
1/4+x,3/4+y,1/2-z
1/2-x,3/4+y,1/4+z
1/4+x,-y,1/4+z
1/2+x,1/2+y,z
3/4-x,3/4-y,z
1/2+x,3/4-y,1/4-z
3/4-x,1/2+y,1/4-z
1/2-x,1/2-y,-z
1/4+x,1/4+y,-z
1/2-x,1/4+y,3/4+z
1/4+x,1/2-y,3/4+z
loop_
_atom_site_type_symbol
_atom_site_label
_atom_site_fract_x
_atom_site_fract_y
_atom_site_fract_z
Si Si1 0.315509 0.317457 0.486873
Si Si2 0.247800 0.719982 0.883718
Si Si3 0.689928 0.839195 0.300964
Si Si4 0.534303 0.430501 0.934469
Si Si5 0.047560 0.661110 0.818138
O O1 0.375000 0.375000 0.475517
O O2 0.307636 0.262125 0.425929
O O3 0.316239 0.281073 0.560068
O O4 0.242398 0.361839 0.490125
O O5 0.226141 0.765304 0.818260
O O6 0.255277 0.641739 0.856722
O O7 0.686353 0.875000 0.375000
O O8 0.609837 0.831423 0.277631
O O9 0.526724 0.375000 0.875000
O O10 0.540143 0.509468 0.905862
O O11 0.473365 0.419725 0.989577
O O12 0.125000 0.625000 0.824990
#
# Coordination Sequence:
#
# PCOD9515480 Si02
#       5
#    32  32  32  32  32
#     4  10  22  40  64  95 133 178 217 267 326 398
#     4  10  21  40  63  94 129 172 220 260 331 400
#     4   9  19  39  59  88 127 167 214 261 329 394
#     4  10  23  43  68  92 130 173 215 276 335 388
#     4  11  22  42  69  98 126 170 225 274 330 397
#
# _framework density 22.497275999999999
#
# number of rings (size 3 to 8) (size 9 to 14) (size 15 to 20)
#    0.000    2.000    2.000    0.600    0.000    5.600 
#   14.400    0.000    0.000    0.000    0.000    0.000 
#    0.000    0.000    0.000    0.000    0.000    0.000 
#
# Total GULP energy -223239.360105 kJ/mol
# GULP energy per Si atom -5580.984003 kJ/mol
# Density = 2.244607 g / cm^3
# Si number density = 22.497276 Si / 1000 Ang^3
#
#
#
# Elastic Constant Matrix: (Units=GPa)
#
#
# Indices 1 2 3 4 5 6 
#
# 1 35.6587 37.6870 6.7893 0.0000 0.0000 0.0000
# 2 37.6870 194.0563 48.9864 0.0000 0.0000 0.0000
# 3 6.7893 48.9864 61.5413 0.0000 0.0000 0.0000
# 4 0.0000 0.0000 0.0000 38.2243 0.0000 0.0000
# 5 0.0000 0.0000 0.0000 0.0000 25.7408 0.0000
# 6 0.0000 0.0000 0.0000 0.0000 0.0000 32.3940
#
#
#
# Elastic Compliance Matrix: (Units=1/GPa)
#
#
# Indices 1 2 3 4 5 6 
#
# 1 0.035475 -0.007386 0.001965 0.000000 0.000000 0.000000
# 2 -0.007386 0.007987 -0.005542 0.000000 0.000000 0.000000
# 3 0.001965 -0.005542 0.020444 0.000000 0.000000 0.000000
# 4 0.000000 0.000000 0.000000 0.026161 0.000000 0.000000
# 5 0.000000 0.000000 0.000000 0.000000 0.038849 0.000000
# 6 0.000000 0.000000 0.000000 0.000000 0.000000 0.030870
#
#
# Mechanical properties :
#
#
# Convention : Reuss Voigt Hill
#
# Bulk Modulus (GPa) = 23.82071 53.13129 38.47600
# Shear Modulus (GPa) = 25.54862 32.45805 29.00334
#
# Velocity S-wave (km/s) = 3.37357 3.80248 3.59443
# Velocity P-wave (km/s) = 5.07798 6.55336 5.86227
#
# Compressibility (1/GPa) = 0.04198027
#
# Stress axis : x y z
#
# Youngs Moduli (GPa) = 28.18875 125.21000 48.91357
#
# Poissons Ratio (x) = 0.92475 -0.09613
# Poissons Ratio (y) = 0.20819 0.27110
# Poissons Ratio (z) = -0.05540 0.69397
#
# Static dielectric constant tensor:
#      x y z
#    x 1.875400 0.000000 0.000000 
#    y 0.000000 1.913470 0.000000 
#    z 0.000000 0.000000 1.817070 
# 
# From -- ./inp_files/44711.got.cif
#   From: 2010.05.17/outbox.cif.g08.bks.cpg/sg70_23_cif.got.tgz:44711.got - 2010.06.03 15:57:51.
