data_PCOD9515923
_publ_section_title
;
Structure prediction by ZEFSAII (Michael W. Deem and Ramdas Pophale) SiO2 
 PCOD9515923
Probable space group: F D D D
;
_chemical_formula_sum "Si O2"
_cell_formula_units_Z 168
_cell_length_a 26.875976
_cell_length_b 11.781053
_cell_length_c 27.854539
_cell_angle_alpha 90.000000
_cell_angle_beta 90.000000
_cell_angle_gamma 90.000000
_cell_volume 8819.507412
_symmetry_space_group_name_H-M "F D D D"
_symmetry_group_IT_number 70
_space_group.IT_coordinate_system_code '2'
_symmetry_cell_setting 'orthorhombic'
loop_
_space_group_symop_operation_xyz
x,y,z
1/4-x,1/4-y,z
x,1/4-y,1/4-z
1/4-x,y,1/4-z
-x,-y,-z
3/4+x,3/4+y,-z
-x,3/4+y,3/4+z
3/4+x,-y,3/4+z
x,1/2+y,1/2+z
1/4-x,3/4-y,1/2+z
x,3/4-y,3/4-z
1/4-x,1/2+y,3/4-z
-x,1/2-y,1/2-z
3/4+x,1/4+y,1/2-z
-x,1/4+y,1/4+z
3/4+x,1/2-y,1/4+z
1/2+x,y,1/2+z
3/4-x,1/4-y,1/2+z
1/2+x,1/4-y,3/4-z
3/4-x,y,3/4-z
1/2-x,-y,1/2-z
1/4+x,3/4+y,1/2-z
1/2-x,3/4+y,1/4+z
1/4+x,-y,1/4+z
1/2+x,1/2+y,z
3/4-x,3/4-y,z
1/2+x,3/4-y,1/4-z
3/4-x,1/2+y,1/4-z
1/2-x,1/2-y,-z
1/4+x,1/4+y,-z
1/2-x,1/4+y,3/4+z
1/4+x,1/2-y,3/4+z
loop_
_atom_site_type_symbol
_atom_site_label
_atom_site_fract_x
_atom_site_fract_y
_atom_site_fract_z
Si Si1 0.625000 0.125000 0.296316
Si Si2 0.971693 0.874796 0.615225
Si Si3 0.056416 0.875000 0.375000
Si Si4 0.138036 0.879290 0.774662
Si Si5 0.777068 0.697973 0.045528
Si Si6 0.799699 0.241415 0.307747
Si Si7 0.625000 0.125000 0.625000
O O1 0.672715 0.143584 0.331583
O O2 0.616510 0.236430 0.263876
O O3 0.972016 0.783971 0.658970
O O4 0.021160 0.859054 0.584227
O O5 0.971303 0.005698 0.631053
O O6 0.089708 0.881764 0.422157
O O7 0.083149 0.828321 0.779558
O O8 0.173284 0.805910 0.739798
O O9 0.744337 0.585297 0.054530
O O10 0.750000 0.750000 0.000000
O O11 0.841138 0.297382 0.341264
#
# Coordination Sequence:
#
# PCOD9515923 Si02
#       7
#    16  32  16  32  32  32   8
#     4  10  22  42  73  93 136 178 226 286 348 406
#     4  11  22  43  66 100 132 181 224 288 344 412
#     4  10  24  41  70  97 136 171 233 286 344 404
#     4  11  24  43  65 106 131 180 229 292 340 419
#     4  12  23  41  68  98 134 179 232 283 342 415
#     4  12  25  42  68  99 141 175 232 281 356 408
#     4  12  24  46  66 102 140 188 220 296 342 412
#
# _framework density 19.048684000000002
#
# number of rings (size 3 to 8) (size 9 to 14) (size 15 to 20)
#    0.000    0.762    3.810    4.571    0.000    4.571 
#    3.429    0.000    0.000    0.000    0.000    0.000 
#    0.000    0.000    0.000    0.000    0.000    0.000 
#
# Total GULP energy -234440.937205 kJ/mol
# GULP energy per Si atom -5581.927076 kJ/mol
# Density = 1.900533 g / cm^3
# Si number density = 19.048684 Si / 1000 Ang^3
#
#
#
# Elastic Constant Matrix: (Units=GPa)
#
#
# Indices 1 2 3 4 5 6 
#
# 1 126.8760 53.5992 53.7749 0.0000 0.0000 0.0000
# 2 53.5992 128.1040 37.4651 0.0000 0.0000 0.0000
# 3 53.7749 37.4651 84.5200 0.0000 0.0000 0.0000
# 4 0.0000 0.0000 0.0000 21.8765 0.0000 0.0000
# 5 0.0000 0.0000 0.0000 0.0000 24.4223 0.0000
# 6 0.0000 0.0000 0.0000 0.0000 0.0000 50.7665
#
#
#
# Elastic Compliance Matrix: (Units=1/GPa)
#
#
# Indices 1 2 3 4 5 6 
#
# 1 0.011804 -0.003151 -0.006113 0.000000 0.000000 0.000000
# 2 -0.003151 0.009810 -0.002344 0.000000 0.000000 0.000000
# 3 -0.006113 -0.002344 0.016760 0.000000 0.000000 0.000000
# 4 0.000000 0.000000 0.000000 0.045711 0.000000 0.000000
# 5 0.000000 0.000000 0.000000 0.000000 0.040946 0.000000
# 6 0.000000 0.000000 0.000000 0.000000 0.000000 0.019698
#
#
# Mechanical properties :
#
#
# Convention : Reuss Voigt Hill
#
# Bulk Modulus (GPa) = 65.97260 69.90872 67.94066
# Shear Modulus (GPa) = 28.90209 32.39044 30.64627
#
# Velocity S-wave (km/s) = 3.89945 4.12807 4.01538
# Velocity P-wave (km/s) = 7.41506 7.71369 7.56585
#
# Compressibility (1/GPa) = 0.01515781
#
# Stress axis : x y z
#
# Youngs Moduli (GPa) = 84.71765 101.93738 59.66575
#
# Poissons Ratio (x) = 0.32119 0.36476
# Poissons Ratio (y) = 0.26693 0.13984
# Poissons Ratio (z) = 0.51792 0.23891
#
# Static dielectric constant tensor:
#      x y z
#    x 1.594460 0.000000 0.000000 
#    y 0.000000 1.831500 0.000000 
#    z 0.000000 0.000000 1.682670 
# 
# From -- ./inp_files/67819.got.cif
#   From: 2010.05.17/outbox.cif.g08.bks.cpg/sg70_34_cif.got.tgz:67819.got - 2010.06.03 15:57:51.
