data_PCOD9515770
_publ_section_title
;
Structure prediction by ZEFSAII (Michael W. Deem and Ramdas Pophale) SiO2 
 PCOD9515770
Probable space group: F D D D
;
_chemical_formula_sum "Si O2"
_cell_formula_units_Z 104
_cell_length_a 27.390392
_cell_length_b 17.197052
_cell_length_c 8.125230
_cell_angle_alpha 90.000000
_cell_angle_beta 90.000000
_cell_angle_gamma 90.000000
_cell_volume 3827.259551
_symmetry_space_group_name_H-M "F D D D"
_symmetry_group_IT_number 70
_space_group.IT_coordinate_system_code '2'
_symmetry_cell_setting 'orthorhombic'
loop_
_space_group_symop_operation_xyz
x,y,z
1/4-x,1/4-y,z
x,1/4-y,1/4-z
1/4-x,y,1/4-z
-x,-y,-z
3/4+x,3/4+y,-z
-x,3/4+y,3/4+z
3/4+x,-y,3/4+z
x,1/2+y,1/2+z
1/4-x,3/4-y,1/2+z
x,3/4-y,3/4-z
1/4-x,1/2+y,3/4-z
-x,1/2-y,1/2-z
3/4+x,1/4+y,1/2-z
-x,1/4+y,1/4+z
3/4+x,1/2-y,1/4+z
1/2+x,y,1/2+z
3/4-x,1/4-y,1/2+z
1/2+x,1/4-y,3/4-z
3/4-x,y,3/4-z
1/2-x,-y,1/2-z
1/4+x,3/4+y,1/2-z
1/2-x,3/4+y,1/4+z
1/4+x,-y,1/4+z
1/2+x,1/2+y,z
3/4-x,3/4-y,z
1/2+x,3/4-y,1/4-z
3/4-x,1/2+y,1/4-z
1/2-x,1/2-y,-z
1/4+x,1/4+y,-z
1/2-x,1/4+y,3/4+z
1/4+x,1/2-y,3/4+z
loop_
_atom_site_type_symbol
_atom_site_label
_atom_site_fract_x
_atom_site_fract_y
_atom_site_fract_z
Si Si1 0.875000 0.375000 0.875000
Si Si2 0.699845 0.795746 0.471587
Si Si3 0.946102 0.467765 0.338881
Si Si4 0.061734 0.751745 0.939514
O O1 0.912342 0.425781 0.764783
O O2 0.706277 0.875000 0.375000
O O3 0.750000 0.750000 0.500000
O O4 0.673842 0.739966 0.338303
O O5 0.679097 0.808930 0.655049
O O6 0.945054 0.375000 0.375000
O O7 0.924280 0.509662 0.499019
O O8 0.002609 0.496285 0.326884
#
# Coordination Sequence:
#
# PCOD9515770 Si02
#       4
#     8  32  32  32
#     4  12  24  48  66 104 144 214 226 312 406 460
#     4  10  23  38  67 106 140 174 233 306 363 430
#     4  10  22  39  70 109 134 180 248 310 355 439
#     4  10  24  38  68  95 145 184 240 295 367 451
#
# _framework density 27.173490000000001
#
# number of rings (size 3 to 8) (size 9 to 14) (size 15 to 20)
#    0.000    1.846    0.000    1.846   34.462    0.000 
#    0.000    8.462    0.000    0.000    0.000    0.000 
#    0.000    0.000    0.000    0.000    0.000    0.000 
#
# Total GULP energy -145067.031895 kJ/mol
# GULP energy per Si atom -5579.501227 kJ/mol
# Density = 2.711164 g / cm^3
# Si number density = 27.173490 Si / 1000 Ang^3
#
#
#
# Elastic Constant Matrix: (Units=GPa)
#
#
# Indices 1 2 3 4 5 6 
#
# 1 136.9264 22.9470 12.6396 0.0000 0.0000 0.0000
# 2 22.9470 180.4788 73.0027 0.0000 0.0000 0.0000
# 3 12.6396 73.0027 334.2160 0.0001 0.0000 0.0000
# 4 0.0000 0.0000 0.0001 32.7761 0.0000 0.0000
# 5 0.0000 0.0000 0.0000 0.0000 7.5492 0.0000
# 6 0.0000 0.0000 0.0000 0.0000 0.0000 54.4930
#
#
#
# Elastic Compliance Matrix: (Units=1/GPa)
#
#
# Indices 1 2 3 4 5 6 
#
# 1 0.007464 -0.000916 -0.000082 0.000000 0.000000 0.000000
# 2 -0.000916 0.006190 -0.001317 0.000000 0.000000 0.000000
# 3 -0.000082 -0.001317 0.003283 0.000000 0.000000 0.000000
# 4 0.000000 0.000000 0.000000 0.030510 0.000000 0.000000
# 5 0.000000 0.000000 0.000000 0.000000 0.132464 0.000000
# 6 0.000000 0.000000 0.000000 0.000000 0.000000 0.018351
#
#
# Mechanical properties :
#
#
# Convention : Reuss Voigt Hill
#
# Bulk Modulus (GPa) = 81.25875 96.53331 88.89603
# Shear Modulus (GPa) = 24.15506 55.16580 39.66043
#
# Velocity S-wave (km/s) = 2.98471 4.51059 3.82452
# Velocity P-wave (km/s) = 6.46890 7.92017 7.23104
#
# Compressibility (1/GPa) = 0.01230637
#
# Stress axis : x y z
#
# Youngs Moduli (GPa) = 133.97181 161.54652 304.60270
#
# Poissons Ratio (x) = 0.14794 0.02506
# Poissons Ratio (y) = 0.12269 0.40131
# Poissons Ratio (z) = 0.01102 0.21283
#
# Static dielectric constant tensor:
#      x y z
#    x 2.278060 0.000000 0.000000 
#    y 0.000000 2.155460 0.000000 
#    z 0.000000 0.000000 2.208150 
# 
# From -- ./inp_files/11713.got.cif
#   From: 2010.05.17/outbox.cif.g08.bks.cpg/sg70_6_cif.got.tgz:11713.got - 2010.06.03 15:57:51.
