data_PCOD9515427
_publ_section_title
;
Structure prediction by ZEFSAII (Michael W. Deem and Ramdas Pophale) SiO2 
 PCOD9515427
Probable space group: F D D D
;
_chemical_formula_sum "Si O2"
_cell_formula_units_Z 152
_cell_length_a 17.249455
_cell_length_b 18.196959
_cell_length_c 21.207055
_cell_angle_alpha 90.000000
_cell_angle_beta 90.000000
_cell_angle_gamma 90.000000
_cell_volume 6656.632136
_symmetry_space_group_name_H-M "F D D D"
_symmetry_group_IT_number 70
_space_group.IT_coordinate_system_code '2'
_symmetry_cell_setting 'orthorhombic'
loop_
_space_group_symop_operation_xyz
x,y,z
1/4-x,1/4-y,z
x,1/4-y,1/4-z
1/4-x,y,1/4-z
-x,-y,-z
3/4+x,3/4+y,-z
-x,3/4+y,3/4+z
3/4+x,-y,3/4+z
x,1/2+y,1/2+z
1/4-x,3/4-y,1/2+z
x,3/4-y,3/4-z
1/4-x,1/2+y,3/4-z
-x,1/2-y,1/2-z
3/4+x,1/4+y,1/2-z
-x,1/4+y,1/4+z
3/4+x,1/2-y,1/4+z
1/2+x,y,1/2+z
3/4-x,1/4-y,1/2+z
1/2+x,1/4-y,3/4-z
3/4-x,y,3/4-z
1/2-x,-y,1/2-z
1/4+x,3/4+y,1/2-z
1/2-x,3/4+y,1/4+z
1/4+x,-y,1/4+z
1/2+x,1/2+y,z
3/4-x,3/4-y,z
1/2+x,3/4-y,1/4-z
3/4-x,1/2+y,1/4-z
1/2-x,1/2-y,-z
1/4+x,1/4+y,-z
1/2-x,1/4+y,3/4+z
1/4+x,1/2-y,3/4+z
loop_
_atom_site_type_symbol
_atom_site_label
_atom_site_fract_x
_atom_site_fract_y
_atom_site_fract_z
Si Si1 0.699432 0.875000 0.375000
Si Si2 0.625000 0.625000 0.125000
Si Si3 0.387054 0.218355 0.240721
Si Si4 0.022835 0.511210 0.804413
Si Si5 0.816828 0.017101 0.928679
Si Si6 0.223485 0.594737 0.321176
O O1 0.651606 0.920402 0.322522
O O2 0.749274 0.814192 0.339314
O O3 0.568628 0.681078 0.088822
O O4 0.301165 0.210539 0.266736
O O5 0.413616 0.301700 0.224027
O O6 0.445437 0.188287 0.294470
O O7 0.045510 0.567595 0.858538
O O8 0.087230 0.487085 0.752958
O O9 0.875000 0.048132 0.875000
O O10 0.741457 0.068649 0.926246
#
# Coordination Sequence:
#
# PCOD9515427 Si02
#       6
#    16   8  32  32  32  32
#     4  10  22  41  63 102 140 172 228 276 326 428
#     4   8  24  42  72  84 122 178 244 274 322 388
#     4  10  21  39  62 103 138 173 219 263 341 427
#     4  11  22  39  70 100 135 181 216 278 347 410
#     4  10  21  44  68  91 130 173 226 285 328 401
#     4  10  21  40  65  98 139 176 211 272 342 412
#
# _framework density 22.83437
#
# number of rings (size 3 to 8) (size 9 to 14) (size 15 to 20)
#    0.632    1.263    2.105    1.895    0.000    1.684 
#    3.789    5.263    0.000    0.000    0.000    0.000 
#    0.000    0.000    0.000    0.000    0.000    0.000 
#
# Total GULP energy -211653.799427 kJ/mol
# GULP energy per Si atom -5569.836827 kJ/mol
# Density = 2.278240 g / cm^3
# Si number density = 22.834370 Si / 1000 Ang^3
#
#
#
# Elastic Constant Matrix: (Units=GPa)
#
#
# Indices 1 2 3 4 5 6 
#
# 1 67.7912 6.2026 18.0900 0.0000 0.0000 0.0000
# 2 6.2026 140.3786 27.0384 0.0000 0.0000 0.0000
# 3 18.0900 27.0384 132.3063 0.0000 0.0000 0.0000
# 4 0.0000 0.0000 0.0000 39.4058 0.0000 0.0000
# 5 0.0000 0.0000 0.0000 0.0000 25.0223 0.0000
# 6 0.0000 0.0000 0.0000 0.0000 0.0000 11.2401
#
#
#
# Elastic Compliance Matrix: (Units=1/GPa)
#
#
# Indices 1 2 3 4 5 6 
#
# 1 0.015321 -0.000285 -0.002037 0.000000 0.000000 0.000000
# 2 -0.000285 0.007421 -0.001478 0.000000 0.000000 0.000000
# 3 -0.002037 -0.001478 0.008139 0.000000 0.000000 0.000000
# 4 0.000000 0.000000 0.000000 0.025377 0.000000 0.000000
# 5 0.000000 0.000000 0.000000 0.000000 0.039964 0.000000
# 6 0.000000 0.000000 0.000000 0.000000 0.000000 0.088967
#
#
# Mechanical properties :
#
#
# Convention : Reuss Voigt Hill
#
# Bulk Modulus (GPa) = 42.95098 49.23758 46.09428
# Shear Modulus (GPa) = 24.93178 34.40997 29.67087
#
# Velocity S-wave (km/s) = 3.30790 3.88614 3.60862
# Velocity P-wave (km/s) = 5.78276 6.46110 6.13132
#
# Compressibility (1/GPa) = 0.02328236
#
# Stress axis : x y z
#
# Youngs Moduli (GPa) = 65.27121 134.75684 122.87051
#
# Poissons Ratio (x) = 0.03836 0.25024
# Poissons Ratio (y) = 0.01858 0.18155
# Poissons Ratio (z) = 0.13293 0.19912
#
# Static dielectric constant tensor:
#      x y z
#    x 1.909170 0.000000 0.000000 
#    y 0.000000 1.924090 0.000000 
#    z 0.000000 0.000000 1.922090 
# 
# From -- ./inp_files/44811.got.cif
#   From: 2010.05.17/outbox.cif.g08.bks.cpg/sg70_23_cif.got.tgz:44811.got - 2010.06.03 15:57:51.
