data_PCOD9515476
_publ_section_title
;
Structure prediction by ZEFSAII (Michael W. Deem and Ramdas Pophale) SiO2 
 PCOD9515476
Probable space group: F D D D
;
_chemical_formula_sum "Si O2"
_cell_formula_units_Z 216
_cell_length_a 21.983837
_cell_length_b 13.865618
_cell_length_c 31.140201
_cell_angle_alpha 90.000000
_cell_angle_beta 90.000000
_cell_angle_gamma 90.000000
_cell_volume 9492.140063
_symmetry_space_group_name_H-M "F D D D"
_symmetry_group_IT_number 70
_space_group.IT_coordinate_system_code '2'
_symmetry_cell_setting 'orthorhombic'
loop_
_space_group_symop_operation_xyz
x,y,z
1/4-x,1/4-y,z
x,1/4-y,1/4-z
1/4-x,y,1/4-z
-x,-y,-z
3/4+x,3/4+y,-z
-x,3/4+y,3/4+z
3/4+x,-y,3/4+z
x,1/2+y,1/2+z
1/4-x,3/4-y,1/2+z
x,3/4-y,3/4-z
1/4-x,1/2+y,3/4-z
-x,1/2-y,1/2-z
3/4+x,1/4+y,1/2-z
-x,1/4+y,1/4+z
3/4+x,1/2-y,1/4+z
1/2+x,y,1/2+z
3/4-x,1/4-y,1/2+z
1/2+x,1/4-y,3/4-z
3/4-x,y,3/4-z
1/2-x,-y,1/2-z
1/4+x,3/4+y,1/2-z
1/2-x,3/4+y,1/4+z
1/4+x,-y,1/4+z
1/2+x,1/2+y,z
3/4-x,3/4-y,z
1/2+x,3/4-y,1/4-z
3/4-x,1/2+y,1/4-z
1/2-x,1/2-y,-z
1/4+x,1/4+y,-z
1/2-x,1/4+y,3/4+z
1/4+x,1/2-y,3/4+z
loop_
_atom_site_type_symbol
_atom_site_label
_atom_site_fract_x
_atom_site_fract_y
_atom_site_fract_z
Si Si1 0.083213 0.260747 0.375107
Si Si2 0.480101 0.607803 0.914855
Si Si3 0.685477 0.273628 0.047687
Si Si4 0.633260 0.262255 0.699156
Si Si5 0.827710 0.253431 0.205178
Si Si6 0.573973 0.477378 0.452418
Si Si7 0.375000 0.509237 0.375000
Si Si8 0.625000 0.125000 0.625000
O O1 0.068171 0.375000 0.375000
O O2 0.122972 0.236525 0.332750
O O3 0.126145 0.245806 0.416826
O O4 0.023897 0.195799 0.368862
O O5 0.438789 0.530652 0.940881
O O6 0.521639 0.676778 0.944428
O O7 0.430510 0.675851 0.892709
O O8 0.664499 0.383776 0.053179
O O9 0.757424 0.270789 0.053350
O O10 0.656255 0.210515 0.084817
O O11 0.660524 0.244464 0.001120
O O12 0.647233 0.226779 0.747109
O O13 0.656336 0.196006 0.659775
O O14 0.813449 0.138795 0.202543
#
# Coordination Sequence:
#
# PCOD9515476 Si02
#       8
#    32  32  32  32  32  32  16   8
#     4  10  22  39  63  97 130 177 240 285 351 419
#     4  11  23  43  69  94 139 186 226 295 351 416
#     4   9  18  40  68  97 139 180 219 296 354 410
#     4  10  24  43  64  99 142 183 241 284 351 424
#     4  10  22  43  69 102 135 183 234 296 351 425
#     4   9  19  40  71 102 137 175 235 296 355 423
#     4  10  21  40  62  99 130 174 229 270 349 422
#     4  12  26  44  64  94 146 192 226 296 336 410
#
# _framework density 22.755668
#
# number of rings (size 3 to 8) (size 9 to 14) (size 15 to 20)
#    0.000    2.074    0.000    3.111    3.111    0.593 
#    0.000   21.481    0.000   14.222    0.000    0.000 
#    0.000    0.000    0.000    0.000    0.000    0.000 
#
# Total GULP energy -301536.358832 kJ/mol
# GULP energy per Si atom -5584.006645 kJ/mol
# Density = 2.270388 g / cm^3
# Si number density = 22.755668 Si / 1000 Ang^3
#
#
#
# Elastic Constant Matrix: (Units=GPa)
#
#
# Indices 1 2 3 4 5 6 
#
# 1 101.3532 37.8745 72.3241 0.0000 0.0000 0.0000
# 2 37.8745 77.2622 22.4822 0.0000 0.0000 0.0000
# 3 72.3241 22.4822 186.6103 0.0000 0.0000 0.0000
# 4 0.0000 0.0000 0.0000 14.6391 0.0000 0.0000
# 5 0.0000 0.0000 0.0000 0.0000 32.4557 0.0000
# 6 0.0000 0.0000 0.0000 0.0000 0.0000 8.5573
#
#
#
# Elastic Compliance Matrix: (Units=1/GPa)
#
#
# Indices 1 2 3 4 5 6 
#
# 1 0.016151 -0.006317 -0.005498 0.000000 0.000000 0.000000
# 2 -0.006317 0.015884 0.000535 0.000000 0.000000 0.000000
# 3 -0.005498 0.000535 0.007425 0.000000 0.000000 0.000000
# 4 0.000000 0.000000 0.000000 0.068310 0.000000 0.000000
# 5 0.000000 0.000000 0.000000 0.000000 0.030811 0.000000
# 6 0.000000 0.000000 0.000000 0.000000 0.000000 0.116860
#
#
# Mechanical properties :
#
#
# Convention : Reuss Voigt Hill
#
# Bulk Modulus (GPa) = 59.17771 70.06526 64.62149
# Shear Modulus (GPa) = 17.62821 26.63341 22.13081
#
# Velocity S-wave (km/s) = 2.78631 3.42483 3.12194
# Velocity P-wave (km/s) = 6.03436 6.81883 6.43855
#
# Compressibility (1/GPa) = 0.01689825
#
# Stress axis : x y z
#
# Youngs Moduli (GPa) = 61.91654 62.95603 134.67365
#
# Poissons Ratio (x) = 0.39771 0.74049
# Poissons Ratio (y) = 0.39114 -0.07201
# Poissons Ratio (z) = 0.34044 -0.03366
#
# Static dielectric constant tensor:
#      x y z
#    x 1.808480 0.000000 0.000000 
#    y 0.000000 1.941670 0.000000 
#    z 0.000000 0.000000 1.896940 
# 
# From -- ./inp_files/67997.got.cif
#   From: 2010.05.17/outbox.cif.g08.bks.cpg/sg70_34_cif.got.tgz:67997.got - 2010.06.03 15:57:51.
