data_PCOD9515354
_publ_section_title
;
Structure prediction by ZEFSAII (Michael W. Deem and Ramdas Pophale) SiO2 
 PCOD9515354
Probable space group: F D D D
;
_chemical_formula_sum "Si O2"
_cell_formula_units_Z 144
_cell_length_a 22.192989
_cell_length_b 16.259579
_cell_length_c 17.628295
_cell_angle_alpha 90.000000
_cell_angle_beta 90.000000
_cell_angle_gamma 90.000000
_cell_volume 6361.146592
_symmetry_space_group_name_H-M "F D D D"
_symmetry_group_IT_number 70
_space_group.IT_coordinate_system_code '2'
_symmetry_cell_setting 'orthorhombic'
loop_
_space_group_symop_operation_xyz
x,y,z
1/4-x,1/4-y,z
x,1/4-y,1/4-z
1/4-x,y,1/4-z
-x,-y,-z
3/4+x,3/4+y,-z
-x,3/4+y,3/4+z
3/4+x,-y,3/4+z
x,1/2+y,1/2+z
1/4-x,3/4-y,1/2+z
x,3/4-y,3/4-z
1/4-x,1/2+y,3/4-z
-x,1/2-y,1/2-z
3/4+x,1/4+y,1/2-z
-x,1/4+y,1/4+z
3/4+x,1/2-y,1/4+z
1/2+x,y,1/2+z
3/4-x,1/4-y,1/2+z
1/2+x,1/4-y,3/4-z
3/4-x,y,3/4-z
1/2-x,-y,1/2-z
1/4+x,3/4+y,1/2-z
1/2-x,3/4+y,1/4+z
1/4+x,-y,1/4+z
1/2+x,1/2+y,z
3/4-x,3/4-y,z
1/2+x,3/4-y,1/4-z
3/4-x,1/2+y,1/4-z
1/2-x,1/2-y,-z
1/4+x,1/4+y,-z
1/2-x,1/4+y,3/4+z
1/4+x,1/2-y,3/4+z
loop_
_atom_site_type_symbol
_atom_site_label
_atom_site_fract_x
_atom_site_fract_y
_atom_site_fract_z
Si Si1 0.809899 0.310719 0.941852
Si Si2 0.375000 0.375000 0.178024
Si Si3 0.925851 0.591099 0.540234
Si Si4 0.552153 0.369559 0.205972
Si Si5 0.981339 0.416193 0.575681
O O1 0.818565 0.375000 0.875000
O O2 0.807023 0.218072 0.912545
O O3 0.860983 0.305260 0.008767
O O4 0.749771 0.345773 0.983107
O O5 0.318837 0.382140 0.122570
O O6 0.921474 0.625000 0.625000
O O7 0.863251 0.603957 0.496578
O O8 0.945449 0.495695 0.546552
O O9 0.981723 0.626758 0.491302
O O10 0.529529 0.434294 0.143064
#
# Coordination Sequence:
#
# PCOD9515354 Si02
#       5
#    32  16  32  32  32
#     4  10  21  37  64  99 128 164 212 271 349 412
#     4  10  21  38  57  88 132 164 210 274 331 394
#     4  11  23  41  64  88 121 173 227 274 330 391
#     4  10  22  41  64  92 130 168 212 277 341 401
#     4  10  24  40  59  90 125 168 218 264 322 399
#
# _framework density 22.637428
#
# number of rings (size 3 to 8) (size 9 to 14) (size 15 to 20)
#    0.000    1.778    0.000    3.000    0.000   12.444 
#    0.000    2.778    0.000    0.000    0.000    0.000 
#    0.000    0.000    0.000    0.000    0.000    0.000 
#
# Total GULP energy -200586.234521 kJ/mol
# GULP energy per Si atom -5571.839848 kJ/mol
# Density = 2.258590 g / cm^3
# Si number density = 22.637428 Si / 1000 Ang^3
#
#
#
# Elastic Constant Matrix: (Units=GPa)
#
#
# Indices 1 2 3 4 5 6 
#
# 1 140.0996 19.8430 76.1318 0.0000 0.0000 0.0000
# 2 19.8430 50.5374 26.2279 0.0000 0.0000 0.0000
# 3 76.1318 26.2279 124.9130 0.0000 0.0000 0.0000
# 4 0.0000 0.0000 0.0000 31.2202 0.0000 0.0000
# 5 0.0000 0.0000 0.0000 0.0000 41.6414 0.0000
# 6 0.0000 0.0000 0.0000 0.0000 0.0000 -673.1875
#
#
#
# Elastic Compliance Matrix: (Units=1/GPa)
#
#
# Indices 1 2 3 4 5 6 
#
# 1 0.010710 -0.000918 -0.006335 0.000000 0.000000 0.000000
# 2 -0.000918 0.022286 -0.004120 0.000000 0.000000 0.000000
# 3 -0.006335 -0.004120 0.012732 0.000000 0.000000 0.000000
# 4 0.000000 0.000000 0.000000 0.032031 0.000000 0.000000
# 5 0.000000 0.000000 0.000000 0.000000 0.024015 0.000000
# 6 0.000000 0.000000 0.000000 0.000000 0.000000 -0.001485
#
#
# Mechanical properties :
#
#
# Convention : Reuss Voigt Hill
#
# Bulk Modulus (GPa) = 43.51140 62.21725 52.86433
# Shear Modulus (GPa) = 38.25743 -107.17535 -34.45896
#
# Velocity S-wave (km/s) = 4.11543 -6.88819 -3.90579
# Velocity P-wave (km/s) = 6.46878 5.97653 1.75017
#
# Compressibility (1/GPa) = 0.02298248
#
# Stress axis : x y z
#
# Youngs Moduli (GPa) = 93.36850 44.87156 78.54397
#
# Poissons Ratio (x) = 0.04117 0.49758
# Poissons Ratio (y) = 0.08567 0.32361
# Poissons Ratio (z) = 0.59149 0.18488
#
# Static dielectric constant tensor:
#      x y z
#    x 1.993680 0.000000 0.000000 
#    y 0.000000 1.897160 0.000000 
#    z 0.000000 0.000000 1.847980 
# 
# From -- ./inp_files/37333.got.cif
#   From: 2010.05.17/outbox.cif.g08.bks.cpg/sg70_19_cif.got.tgz:37333.got - 2010.06.03 15:57:51.
