data_PCOD9515580
_publ_section_title
;
Structure prediction by ZEFSAII (Michael W. Deem and Ramdas Pophale) SiO2 
 PCOD9515580
Probable space group: F D D D
;
_chemical_formula_sum "Si O2"
_cell_formula_units_Z 160
_cell_length_a 18.746341
_cell_length_b 22.464831
_cell_length_c 18.219662
_cell_angle_alpha 90.000000
_cell_angle_beta 90.000000
_cell_angle_gamma 90.000000
_cell_volume 7672.907885
_symmetry_space_group_name_H-M "F D D D"
_symmetry_group_IT_number 70
_space_group.IT_coordinate_system_code '2'
_symmetry_cell_setting 'orthorhombic'
loop_
_space_group_symop_operation_xyz
x,y,z
1/4-x,1/4-y,z
x,1/4-y,1/4-z
1/4-x,y,1/4-z
-x,-y,-z
3/4+x,3/4+y,-z
-x,3/4+y,3/4+z
3/4+x,-y,3/4+z
x,1/2+y,1/2+z
1/4-x,3/4-y,1/2+z
x,3/4-y,3/4-z
1/4-x,1/2+y,3/4-z
-x,1/2-y,1/2-z
3/4+x,1/4+y,1/2-z
-x,1/4+y,1/4+z
3/4+x,1/2-y,1/4+z
1/2+x,y,1/2+z
3/4-x,1/4-y,1/2+z
1/2+x,1/4-y,3/4-z
3/4-x,y,3/4-z
1/2-x,-y,1/2-z
1/4+x,3/4+y,1/2-z
1/2-x,3/4+y,1/4+z
1/4+x,-y,1/4+z
1/2+x,1/2+y,z
3/4-x,3/4-y,z
1/2+x,3/4-y,1/4-z
3/4-x,1/2+y,1/4-z
1/2-x,1/2-y,-z
1/4+x,1/4+y,-z
1/2-x,1/4+y,3/4+z
1/4+x,1/2-y,3/4+z
loop_
_atom_site_type_symbol
_atom_site_label
_atom_site_fract_x
_atom_site_fract_y
_atom_site_fract_z
Si Si1 0.691713 0.434731 0.960176
Si Si2 0.449329 0.050420 0.034058
Si Si3 0.536832 0.953465 0.252274
Si Si4 0.293690 0.460399 0.855982
Si Si5 0.464233 0.672594 0.284469
O O1 0.720539 0.369211 0.982481
O O2 0.690860 0.445454 0.872433
O O3 0.611672 0.434420 0.993698
O O4 0.739999 0.489257 0.985980
O O5 0.370640 0.036117 0.004038
O O6 0.500000 0.000000 0.000000
O O7 0.526626 0.896848 0.199165
O O8 0.509277 0.934593 0.333255
O O9 0.375000 0.446805 0.875000
O O10 0.274609 0.439324 0.774549
O O11 0.283507 0.531996 0.851508
#
# Coordination Sequence:
#
# PCOD9515580 Si02
#       5
#    32  32  32  32  32
#     4  10  21  42  63  87 123 159 204 255 305 365
#     4  10  23  42  63  86 119 165 210 253 304 354
#     4  11  22  39  63  88 122 164 198 252 312 362
#     4  11  21  38  62  91 125 157 200 248 307 376
#     4  10  22  39  59  92 126 159 198 247 313 377
#
# _framework density 20.852591
#
# number of rings (size 3 to 8) (size 9 to 14) (size 15 to 20)
#    0.000    1.600    4.000    0.600    0.000    4.800 
#    0.000    2.000    0.000    0.000    0.000    0.000 
#    0.000    0.000    0.000    0.000    0.000    0.000 
#
# Total GULP energy -223291.471964 kJ/mol
# GULP energy per Si atom -5582.286799 kJ/mol
# Density = 2.080513 g / cm^3
# Si number density = 20.852591 Si / 1000 Ang^3
#
#
#
# Elastic Constant Matrix: (Units=GPa)
#
#
# Indices 1 2 3 4 5 6 
#
# 1 99.8665 59.5494 0.1314 0.0000 0.0000 0.0000
# 2 59.5494 166.5573 30.3280 0.0000 0.0000 0.0000
# 3 0.1314 30.3280 24.3267 0.0000 0.0000 0.0000
# 4 0.0000 0.0000 0.0000 36.6355 0.0000 0.0000
# 5 0.0000 0.0000 0.0000 0.0000 20.7200 0.0000
# 6 0.0000 0.0000 0.0000 0.0000 0.0000 29.4053
#
#
#
# Elastic Compliance Matrix: (Units=1/GPa)
#
#
# Indices 1 2 3 4 5 6 
#
# 1 0.013798 -0.006364 0.007860 0.000000 0.000000 0.000000
# 2 -0.006364 0.010703 -0.013309 0.000000 0.000000 0.000000
# 3 0.007860 -0.013309 0.057657 0.000000 0.000000 0.000000
# 4 0.000000 0.000000 0.000000 0.027296 0.000000 0.000000
# 5 0.000000 0.000000 0.000000 0.000000 0.048263 0.000000
# 6 0.000000 0.000000 0.000000 0.000000 0.000000 0.034007
#
#
# Mechanical properties :
#
#
# Convention : Reuss Voigt Hill
#
# Bulk Modulus (GPa) = 17.08492 52.30757 34.69624
# Shear Modulus (GPa) = 21.28924 30.73493 26.01209
#
# Velocity S-wave (km/s) = 3.19868 3.84332 3.53573
# Velocity P-wave (km/s) = 4.67473 6.69580 5.77438
#
# Compressibility (1/GPa) = 0.05853114
#
# Stress axis : x y z
#
# Youngs Moduli (GPa) = 72.47380 93.43354 17.34405
#
# Poissons Ratio (x) = 0.59465 -0.13632
# Poissons Ratio (y) = 0.46126 0.23083
# Poissons Ratio (z) = -0.56965 1.24349
#
# Static dielectric constant tensor:
#      x y z
#    x 1.691960 0.000000 0.000000 
#    y 0.000000 1.831170 0.000000 
#    z 0.000000 0.000000 1.764370 
# 
# From -- ./inp_files/36280.got.cif
#   From: 2010.05.17/outbox.cif.g08.bks.cpg/sg70_19_cif.got.tgz:36280.got - 2010.06.03 15:57:51.
