data_PCOD9515578
_publ_section_title
;
Structure prediction by ZEFSAII (Michael W. Deem and Ramdas Pophale) SiO2 
 PCOD9515578
Probable space group: F D D D
;
_chemical_formula_sum "Si O2"
_cell_formula_units_Z 192
_cell_length_a 11.731033
_cell_length_b 24.898028
_cell_length_c 28.200058
_cell_angle_alpha 90.000000
_cell_angle_beta 90.000000
_cell_angle_gamma 90.000000
_cell_volume 8236.661325
_symmetry_space_group_name_H-M "F D D D"
_symmetry_group_IT_number 70
_space_group.IT_coordinate_system_code '2'
_symmetry_cell_setting 'orthorhombic'
loop_
_space_group_symop_operation_xyz
x,y,z
1/4-x,1/4-y,z
x,1/4-y,1/4-z
1/4-x,y,1/4-z
-x,-y,-z
3/4+x,3/4+y,-z
-x,3/4+y,3/4+z
3/4+x,-y,3/4+z
x,1/2+y,1/2+z
1/4-x,3/4-y,1/2+z
x,3/4-y,3/4-z
1/4-x,1/2+y,3/4-z
-x,1/2-y,1/2-z
3/4+x,1/4+y,1/2-z
-x,1/4+y,1/4+z
3/4+x,1/2-y,1/4+z
1/2+x,y,1/2+z
3/4-x,1/4-y,1/2+z
1/2+x,1/4-y,3/4-z
3/4-x,y,3/4-z
1/2-x,-y,1/2-z
1/4+x,3/4+y,1/2-z
1/2-x,3/4+y,1/4+z
1/4+x,-y,1/4+z
1/2+x,1/2+y,z
3/4-x,3/4-y,z
1/2+x,3/4-y,1/4-z
3/4-x,1/2+y,1/4-z
1/2-x,1/2-y,-z
1/4+x,1/4+y,-z
1/2-x,1/4+y,3/4+z
1/4+x,1/2-y,3/4+z
loop_
_atom_site_type_symbol
_atom_site_label
_atom_site_fract_x
_atom_site_fract_y
_atom_site_fract_z
Si Si1 0.290762 0.521430 0.617010
Si Si2 0.554537 0.875000 0.875000
Si Si3 0.571545 0.988117 0.800987
Si Si4 0.038163 0.366734 0.775524
Si Si5 0.795671 0.823065 0.782103
Si Si6 0.625000 0.479425 0.625000
Si Si7 0.318792 0.320824 0.566895
O O1 0.360823 0.575156 0.631401
O O2 0.311957 0.496703 0.669232
O O3 0.191069 0.543202 0.583061
O O4 0.352927 0.479818 0.580546
O O5 0.489282 0.891082 0.921864
O O6 0.564776 0.033356 0.761175
O O7 0.465694 0.991630 0.839421
O O8 0.556973 0.931171 0.773118
O O9 0.164335 0.341841 0.777661
O O10 0.963195 0.335555 0.737187
O O11 0.875000 0.875000 0.780827
O O12 0.549261 0.442571 0.591471
O O13 0.375000 0.375000 0.586645
#
# Coordination Sequence:
#
# PCOD9515578 Si02
#       7
#    32  16  32  32  32  16  32
#     4   9  21  41  67  98 142 182 245 295 362 438
#     4   8  18  38  62  88 136 178 224 296 338 428
#     4  10  21  43  68 101 145 187 241 310 360 446
#     4  10  21  42  63 104 142 179 248 291 366 440
#     4  11  23  42  73  99 140 199 238 306 373 440
#     4  10  22  44  70 101 142 191 240 304 376 428
#     4  11  22  41  69 102 141 188 237 305 371 437
#
# _framework density 23.310416
#
# number of rings (size 3 to 8) (size 9 to 14) (size 15 to 20)
#    0.000    2.000    1.667    1.000    0.000    6.000 
#   18.000   15.000    7.333    0.000    0.000    0.000 
#    0.000    0.000    0.000    0.000    0.000    0.000 
#
# Total GULP energy -267423.950223 kJ/mol
# GULP energy per Si atom -5571.332296 kJ/mol
# Density = 2.325736 g / cm^3
# Si number density = 23.310416 Si / 1000 Ang^3
#
#
#
# Elastic Constant Matrix: (Units=GPa)
#
#
# Indices 1 2 3 4 5 6 
#
# 1 33.8087 9.1617 1.4457 0.0000 0.0000 0.0000
# 2 9.1617 111.6716 59.8839 0.0000 0.0000 0.0000
# 3 1.4457 59.8839 145.3432 0.0000 0.0000 0.0000
# 4 0.0000 0.0000 0.0000 66.0518 0.0000 0.0000
# 5 0.0000 0.0000 0.0000 0.0000 28.1560 0.0000
# 6 0.0000 0.0000 0.0000 0.0000 0.0000 1.7419
#
#
#
# Elastic Compliance Matrix: (Units=1/GPa)
#
#
# Indices 1 2 3 4 5 6 
#
# 1 0.030348 -0.002988 0.000929 0.000000 0.000000 0.000000
# 2 -0.002988 0.011789 -0.004827 0.000000 0.000000 0.000000
# 3 0.000929 -0.004827 0.008860 0.000000 0.000000 0.000000
# 4 0.000000 0.000000 0.000000 0.015140 0.000000 0.000000
# 5 0.000000 0.000000 0.000000 0.000000 0.035516 0.000000
# 6 0.000000 0.000000 0.000000 0.000000 0.000000 0.574083
#
#
# Mechanical properties :
#
#
# Convention : Reuss Voigt Hill
#
# Bulk Modulus (GPa) = 26.86415 47.97847 37.42131
# Shear Modulus (GPa) = 7.12336 33.87875 20.50105
#
# Velocity S-wave (km/s) = 1.75000 3.81645 2.96882
# Velocity P-wave (km/s) = 3.95384 6.32831 5.27638
#
# Compressibility (1/GPa) = 0.03722432
#
# Stress axis : x y z
#
# Youngs Moduli (GPa) = 32.95090 84.82711 112.86677
#
# Poissons Ratio (x) = 0.25348 -0.10489
# Poissons Ratio (y) = 0.09846 0.54486
# Poissons Ratio (z) = -0.03062 0.40950
#
# Static dielectric constant tensor:
#      x y z
#    x 1.947330 0.000000 0.000000 
#    y 0.000000 1.931430 0.000000 
#    z 0.000000 0.000000 1.997210 
# 
# From -- ./inp_files/65006.got.cif
#   From: 2010.05.17/outbox.cif.g08.bks.cpg/sg70_33_cif.got.tgz:65006.got - 2010.06.03 15:57:51.
