data_PCOD9515080
_publ_section_title
;
Structure prediction by ZEFSAII (Michael W. Deem and Ramdas Pophale) SiO2 
 PCOD9515080
Probable space group: F D D D
;
_chemical_formula_sum "Si O2"
_cell_formula_units_Z 216
_cell_length_a 14.461132
_cell_length_b 29.344804
_cell_length_c 24.569329
_cell_angle_alpha 90.000000
_cell_angle_beta 90.000000
_cell_angle_gamma 90.000000
_cell_volume 10426.217953
_symmetry_space_group_name_H-M "F D D D"
_symmetry_group_IT_number 70
_space_group.IT_coordinate_system_code '2'
_symmetry_cell_setting 'orthorhombic'
loop_
_space_group_symop_operation_xyz
x,y,z
1/4-x,1/4-y,z
x,1/4-y,1/4-z
1/4-x,y,1/4-z
-x,-y,-z
3/4+x,3/4+y,-z
-x,3/4+y,3/4+z
3/4+x,-y,3/4+z
x,1/2+y,1/2+z
1/4-x,3/4-y,1/2+z
x,3/4-y,3/4-z
1/4-x,1/2+y,3/4-z
-x,1/2-y,1/2-z
3/4+x,1/4+y,1/2-z
-x,1/4+y,1/4+z
3/4+x,1/2-y,1/4+z
1/2+x,y,1/2+z
3/4-x,1/4-y,1/2+z
1/2+x,1/4-y,3/4-z
3/4-x,y,3/4-z
1/2-x,-y,1/2-z
1/4+x,3/4+y,1/2-z
1/2-x,3/4+y,1/4+z
1/4+x,-y,1/4+z
1/2+x,1/2+y,z
3/4-x,3/4-y,z
1/2+x,3/4-y,1/4-z
3/4-x,1/2+y,1/4-z
1/2-x,1/2-y,-z
1/4+x,1/4+y,-z
1/2-x,1/4+y,3/4+z
1/4+x,1/2-y,3/4+z
loop_
_atom_site_type_symbol
_atom_site_label
_atom_site_fract_x
_atom_site_fract_y
_atom_site_fract_z
Si Si1 0.434516 0.320156 0.144538
Si Si2 0.732303 0.049446 0.695285
Si Si3 0.723849 0.022948 0.139524
Si Si4 0.625000 0.877739 0.625000
Si Si5 0.048503 0.092050 0.517551
Si Si6 0.375000 0.375000 0.875000
Si Si7 0.757780 0.804654 0.070420
Si Si8 0.577782 0.405542 0.322282
O O1 0.453346 0.266748 0.138629
O O2 0.533150 0.346331 0.134750
O O3 0.417170 0.330572 0.207755
O O4 0.341250 0.325019 0.108238
O O5 0.682845 0.089738 0.662083
O O6 0.703783 0.052193 0.758617
O O7 0.839546 0.062812 0.695427
O O8 0.726615 0.998339 0.670392
O O9 0.625000 0.003115 0.125000
O O10 0.718004 0.047212 0.197586
O O11 0.749300 0.061238 0.095735
O O12 0.581294 0.912752 0.580057
O O13 0.125000 0.125000 0.543820
O O14 0.956562 0.122327 0.524664
O O15 0.604199 0.375000 0.375000
#
# Coordination Sequence:
#
# PCOD9515080 Si02
#       8
#    32  32  32  16  32   8  32  32
#     4  12  25  43  66  97 137 179 226 278 339 414
#     4  11  24  46  71  98 131 178 234 292 340 406
#     4  11  21  41  64  98 137 173 219 275 335 401
#     4  12  25  44  66  93 135 178 224 277 340 416
#     4  11  22  37  65 100 133 172 214 269 336 411
#     4  12  26  44  72 108 126 168 244 294 334 396
#     4  11  26  47  69  96 139 184 228 283 358 413
#     4  10  20  39  69  99 131 174 222 280 340 407
#
# _framework density 20.717003999999999
#
# number of rings (size 3 to 8) (size 9 to 14) (size 15 to 20)
#    0.000    0.889    4.444    3.111    2.074    0.000 
#    0.000    1.481    0.000    0.000    0.000    0.000 
#    0.000    0.000    0.000    0.000    0.000    0.000 
#
# Total GULP energy -300886.866861 kJ/mol
# GULP energy per Si atom -5571.979016 kJ/mol
# Density = 2.066985 g / cm^3
# Si number density = 20.717004 Si / 1000 Ang^3
#
#
#
# Elastic Constant Matrix: (Units=GPa)
#
#
# Indices 1 2 3 4 5 6 
#
# 1 73.8529 28.5571 44.8553 0.0000 0.0000 0.0000
# 2 28.5571 120.5791 42.7174 0.0000 0.0000 0.0000
# 3 44.8553 42.7174 81.4708 0.0000 0.0000 0.0000
# 4 0.0000 0.0000 0.0000 -7.5429 0.0000 0.0000
# 5 0.0000 0.0000 0.0000 0.0000 20.5636 0.0000
# 6 0.0000 0.0000 0.0000 0.0000 0.0000 46.2369
#
#
#
# Elastic Compliance Matrix: (Units=1/GPa)
#
#
# Indices 1 2 3 4 5 6 
#
# 1 0.020451 -0.001049 -0.010709 0.000000 0.000000 0.000000
# 2 -0.001049 0.010239 -0.004791 0.000000 0.000000 0.000000
# 3 -0.010709 -0.004791 0.020682 0.000000 0.000000 0.000000
# 4 0.000000 0.000000 0.000000 -0.132574 0.000000 0.000000
# 5 0.000000 0.000000 0.000000 0.000000 0.048630 0.000000
# 6 0.000000 0.000000 0.000000 0.000000 0.000000 0.021628
#
#
# Mechanical properties :
#
#
# Convention : Reuss Voigt Hill
#
# Bulk Modulus (GPa) = 54.72510 56.46249 55.59379
# Shear Modulus (GPa) = 177.02097 22.50305 99.76201
#
# Velocity S-wave (km/s) = 9.25379 3.29935 6.94688
# Velocity P-wave (km/s) = 11.85959 6.46743 9.55190
#
# Compressibility (1/GPa) = 0.01827315
#
# Stress axis : x y z
#
# Youngs Moduli (GPa) = 48.89838 97.66480 48.35006
#
# Poissons Ratio (x) = 0.10249 0.51779
# Poissons Ratio (y) = 0.05131 0.23164
# Poissons Ratio (z) = 0.52366 0.46790
#
# Static dielectric constant tensor:
#      x y z
#    x 1.757510 0.000000 0.000000 
#    y 0.000000 1.749210 0.000000 
#    z 0.000000 0.000000 1.760160 
# 
# From -- ./inp_files/51617.got.cif
#   From: 2010.05.17/outbox.cif.g08.bks.cpg/sg70_26_cif.got.tgz:51617.got - 2010.06.03 15:57:51.
