data_PCOD9515183
_publ_section_title
;
Structure prediction by ZEFSAII (Michael W. Deem and Ramdas Pophale) SiO2 
 PCOD9515183
Probable space group: F D D D
;
_chemical_formula_sum "Si O2"
_cell_formula_units_Z 176
_cell_length_a 24.752026
_cell_length_b 13.936735
_cell_length_c 20.665464
_cell_angle_alpha 90.000000
_cell_angle_beta 90.000000
_cell_angle_gamma 90.000000
_cell_volume 7128.808618
_symmetry_space_group_name_H-M "F D D D"
_symmetry_group_IT_number 70
_space_group.IT_coordinate_system_code '2'
_symmetry_cell_setting 'orthorhombic'
loop_
_space_group_symop_operation_xyz
x,y,z
1/4-x,1/4-y,z
x,1/4-y,1/4-z
1/4-x,y,1/4-z
-x,-y,-z
3/4+x,3/4+y,-z
-x,3/4+y,3/4+z
3/4+x,-y,3/4+z
x,1/2+y,1/2+z
1/4-x,3/4-y,1/2+z
x,3/4-y,3/4-z
1/4-x,1/2+y,3/4-z
-x,1/2-y,1/2-z
3/4+x,1/4+y,1/2-z
-x,1/4+y,1/4+z
3/4+x,1/2-y,1/4+z
1/2+x,y,1/2+z
3/4-x,1/4-y,1/2+z
1/2+x,1/4-y,3/4-z
3/4-x,y,3/4-z
1/2-x,-y,1/2-z
1/4+x,3/4+y,1/2-z
1/2-x,3/4+y,1/4+z
1/4+x,-y,1/4+z
1/2+x,1/2+y,z
3/4-x,3/4-y,z
1/2+x,3/4-y,1/4-z
3/4-x,1/2+y,1/4-z
1/2-x,1/2-y,-z
1/4+x,1/4+y,-z
1/2-x,1/4+y,3/4+z
1/4+x,1/2-y,3/4+z
loop_
_atom_site_type_symbol
_atom_site_label
_atom_site_fract_x
_atom_site_fract_y
_atom_site_fract_z
Si Si1 0.311209 0.459739 0.747084
Si Si2 0.184176 0.512450 0.102783
Si Si3 0.420232 0.503969 0.691453
Si Si4 0.712868 0.125000 0.625000
Si Si5 0.528542 0.214795 0.315887
Si Si6 0.980096 0.480938 0.721926
O O1 0.250000 0.500000 0.750000
O O2 0.359495 0.521677 0.715951
O O3 0.316032 0.358726 0.708162
O O4 0.321290 0.433526 0.822214
O O5 0.195725 0.625000 0.125000
O O6 0.125000 0.493375 0.125000
O O7 0.226694 0.448708 0.139428
O O8 0.191492 0.484148 0.028722
O O9 0.431588 0.520087 0.615067
O O10 0.466221 0.552087 0.736719
O O11 0.750138 0.196770 0.667389
O O12 0.500000 0.250000 0.250000
O O13 0.551837 0.110652 0.303428
#
# Coordination Sequence:
#
# PCOD9515183 Si02
#       6
#    32  32  32  16  32  32
#     4  10  20  42  63  96 136 181 233 288 366 450
#     4  10  21  42  65  94 133 178 228 284 354 422
#     4   9  22  39  63  94 135 181 227 292 363 427
#     4  10  22  41  68  96 132 182 226 294 357 434
#     4  11  21  41  66  96 130 177 230 291 349 424
#     4  10  21  41  66  99 133 176 234 289 357 434
#
# _framework density 24.688559000000001
#
# number of rings (size 3 to 8) (size 9 to 14) (size 15 to 20)
#    0.000    2.000    1.818    1.091    0.000    5.818 
#   22.909    0.000    0.000    0.000    0.000    0.000 
#    0.000    0.000    0.000    0.000    0.000    0.000 
#
# Total GULP energy -245459.604813 kJ/mol
# GULP energy per Si atom -5578.627382 kJ/mol
# Density = 2.463237 g / cm^3
# Si number density = 24.688559 Si / 1000 Ang^3
#
#
#
# Elastic Constant Matrix: (Units=GPa)
#
#
# Indices 1 2 3 4 5 6 
#
# 1 149.3226 11.0669 50.2000 0.0000 0.0000 0.0000
# 2 11.0669 46.2185 32.1215 0.0000 0.0000 0.0000
# 3 50.2000 32.1215 214.0480 0.0000 0.0000 0.0000
# 4 0.0000 0.0000 0.0000 30.0124 0.0000 0.0000
# 5 0.0000 0.0000 0.0000 0.0000 32.4712 0.0000
# 6 0.0000 0.0000 0.0000 0.0000 0.0000 30.7600
#
#
#
# Elastic Compliance Matrix: (Units=1/GPa)
#
#
# Indices 1 2 3 4 5 6 
#
# 1 0.007286 -0.000622 -0.001615 0.000000 0.000000 0.000000
# 2 -0.000622 0.024209 -0.003487 0.000000 0.000000 0.000000
# 3 -0.001615 -0.003487 0.005574 0.000000 0.000000 0.000000
# 4 0.000000 0.000000 0.000000 0.033320 0.000000 0.000000
# 5 0.000000 0.000000 0.000000 0.000000 0.030796 0.000000
# 6 0.000000 0.000000 0.000000 0.000000 0.000000 0.032510
#
#
# Mechanical properties :
#
#
# Convention : Reuss Voigt Hill
#
# Bulk Modulus (GPa) = 39.03200 66.26287 52.64744
# Shear Modulus (GPa) = 32.53438 39.72877 36.13157
#
# Velocity S-wave (km/s) = 3.63408 4.01583 3.82972
# Velocity P-wave (km/s) = 5.78384 6.95703 6.39739
#
# Compressibility (1/GPa) = 0.02562000
#
# Stress axis : x y z
#
# Youngs Moduli (GPa) = 137.24769 41.30733 179.40387
#
# Poissons Ratio (x) = 0.02569 0.28982
# Poissons Ratio (y) = 0.08535 0.62560
# Poissons Ratio (z) = 0.22172 0.14404
#
# Static dielectric constant tensor:
#      x y z
#    x 1.988370 0.000000 0.000000 
#    y 0.000000 2.129900 0.000000 
#    z 0.000000 0.000000 2.082690 
# 
# From -- ./inp_files/38554.got.cif
#   From: 2010.05.17/outbox.cif.g08.bks.cpg/sg70_20_cif.got.tgz:38554.got - 2010.06.03 15:57:51.
