data_PCOD9515563
_publ_section_title
;
Structure prediction by ZEFSAII (Michael W. Deem and Ramdas Pophale) SiO2 
 PCOD9515563
Probable space group: F D D D
;
_chemical_formula_sum "Si O2"
_cell_formula_units_Z 112
_cell_length_a 25.084659
_cell_length_b 16.337200
_cell_length_c 10.805148
_cell_angle_alpha 90.000000
_cell_angle_beta 90.000000
_cell_angle_gamma 90.000000
_cell_volume 4428.091101
_symmetry_space_group_name_H-M "F D D D"
_symmetry_group_IT_number 70
_space_group.IT_coordinate_system_code '2'
_symmetry_cell_setting 'orthorhombic'
loop_
_space_group_symop_operation_xyz
x,y,z
1/4-x,1/4-y,z
x,1/4-y,1/4-z
1/4-x,y,1/4-z
-x,-y,-z
3/4+x,3/4+y,-z
-x,3/4+y,3/4+z
3/4+x,-y,3/4+z
x,1/2+y,1/2+z
1/4-x,3/4-y,1/2+z
x,3/4-y,3/4-z
1/4-x,1/2+y,3/4-z
-x,1/2-y,1/2-z
3/4+x,1/4+y,1/2-z
-x,1/4+y,1/4+z
3/4+x,1/2-y,1/4+z
1/2+x,y,1/2+z
3/4-x,1/4-y,1/2+z
1/2+x,1/4-y,3/4-z
3/4-x,y,3/4-z
1/2-x,-y,1/2-z
1/4+x,3/4+y,1/2-z
1/2-x,3/4+y,1/4+z
1/4+x,-y,1/4+z
1/2+x,1/2+y,z
3/4-x,3/4-y,z
1/2+x,3/4-y,1/4-z
3/4-x,1/2+y,1/4-z
1/2-x,1/2-y,-z
1/4+x,1/4+y,-z
1/2-x,1/4+y,3/4+z
1/4+x,1/2-y,3/4+z
loop_
_atom_site_type_symbol
_atom_site_label
_atom_site_fract_x
_atom_site_fract_y
_atom_site_fract_z
Si Si1 0.435354 0.900262 0.594385
Si Si2 0.968470 0.560449 0.744564
Si Si3 0.074938 0.235864 0.719691
Si Si4 0.124348 0.375000 0.875000
O O1 0.375000 0.875000 0.550740
O O2 0.477998 0.863127 0.499934
O O3 0.436731 0.850693 0.722837
O O4 0.454200 0.990773 0.641677
O O5 0.969385 0.519030 0.878572
O O6 0.917735 0.622669 0.737146
O O7 0.125000 0.231716 0.625000
O O8 0.088770 0.298182 0.833143
#
# Coordination Sequence:
#
# PCOD9515563 Si02
#       4
#    32  32  32  16
#     4  12  24  45  70 105 143 187 241 297 358 435
#     4  11  26  41  72 103 144 189 237 301 362 432
#     4  10  21  41  70 101 138 184 232 305 349 430
#     4  10  22  42  67 106 143 182 244 296 358 442
#
# _framework density 25.293064999999999
#
# number of rings (size 3 to 8) (size 9 to 14) (size 15 to 20)
#    0.000    1.143    5.714    1.714    4.000    1.143 
#    0.000    0.714    0.000    0.000    0.000    0.000 
#    0.000    0.000    0.000    0.000    0.000    0.000 
#
# Total GULP energy -155910.981621 kJ/mol
# GULP energy per Si atom -5568.249344 kJ/mol
# Density = 2.523550 g / cm^3
# Si number density = 25.293065 Si / 1000 Ang^3
#
#
#
# Elastic Constant Matrix: (Units=GPa)
#
#
# Indices 1 2 3 4 5 6 
#
# 1 151.3263 54.0113 32.8798 0.0000 0.0000 0.0000
# 2 54.0113 178.3822 75.9302 0.0000 0.0000 0.0000
# 3 32.8798 75.9302 96.2044 0.0000 0.0000 0.0000
# 4 0.0000 0.0000 0.0000 34.1099 0.0000 0.0000
# 5 0.0000 0.0000 0.0000 0.0000 17.6239 0.0000
# 6 0.0000 0.0000 0.0000 0.0000 0.0000 31.4209
#
#
#
# Elastic Compliance Matrix: (Units=1/GPa)
#
#
# Indices 1 2 3 4 5 6 
#
# 1 0.007494 -0.001775 -0.001160 0.000000 0.000000 0.000000
# 2 -0.001775 0.008863 -0.006388 0.000000 0.000000 0.000000
# 3 -0.001160 -0.006388 0.015833 0.000000 0.000000 0.000000
# 4 0.000000 0.000000 0.000000 0.029317 0.000000 0.000000
# 5 0.000000 0.000000 0.000000 0.000000 0.056741 0.000000
# 6 0.000000 0.000000 0.000000 0.000000 0.000000 0.031826
#
#
# Mechanical properties :
#
#
# Convention : Reuss Voigt Hill
#
# Bulk Modulus (GPa) = 73.84164 83.50618 78.67391
# Shear Modulus (GPa) = 28.86256 34.17039 31.51648
#
# Velocity S-wave (km/s) = 3.38172 3.67955 3.53378
# Velocity P-wave (km/s) = 6.67127 7.15117 6.91539
#
# Compressibility (1/GPa) = 0.01354249
#
# Stress axis : x y z
#
# Youngs Moduli (GPa) = 133.44168 112.83282 63.15929
#
# Poissons Ratio (x) = 0.20031 0.07327
# Poissons Ratio (y) = 0.23689 0.40348
# Poissons Ratio (z) = 0.15480 0.72080
#
# Static dielectric constant tensor:
#      x y z
#    x 2.206850 0.000000 0.000000 
#    y 0.000000 2.064180 0.000000 
#    z 0.000000 0.000000 2.017470 
# 
# From -- ./inp_files/20237.got.cif
#   From: 2010.05.17/outbox.cif.g08.bks.cpg/sg70_11_cif.got.tgz:20237.got - 2010.06.03 15:57:51.
