data_PCOD9515802
_publ_section_title
;
Structure prediction by ZEFSAII (Michael W. Deem and Ramdas Pophale) SiO2 
 PCOD9515802
Probable space group: F D D D
;
_chemical_formula_sum "Si O2"
_cell_formula_units_Z 176
_cell_length_a 18.124308
_cell_length_b 21.922100
_cell_length_c 19.033533
_cell_angle_alpha 90.000000
_cell_angle_beta 90.000000
_cell_angle_gamma 90.000000
_cell_volume 7562.458384
_symmetry_space_group_name_H-M "F D D D"
_symmetry_group_IT_number 70
_space_group.IT_coordinate_system_code '2'
_symmetry_cell_setting 'orthorhombic'
loop_
_space_group_symop_operation_xyz
x,y,z
1/4-x,1/4-y,z
x,1/4-y,1/4-z
1/4-x,y,1/4-z
-x,-y,-z
3/4+x,3/4+y,-z
-x,3/4+y,3/4+z
3/4+x,-y,3/4+z
x,1/2+y,1/2+z
1/4-x,3/4-y,1/2+z
x,3/4-y,3/4-z
1/4-x,1/2+y,3/4-z
-x,1/2-y,1/2-z
3/4+x,1/4+y,1/2-z
-x,1/4+y,1/4+z
3/4+x,1/2-y,1/4+z
1/2+x,y,1/2+z
3/4-x,1/4-y,1/2+z
1/2+x,1/4-y,3/4-z
3/4-x,y,3/4-z
1/2-x,-y,1/2-z
1/4+x,3/4+y,1/2-z
1/2-x,3/4+y,1/4+z
1/4+x,-y,1/4+z
1/2+x,1/2+y,z
3/4-x,3/4-y,z
1/2+x,3/4-y,1/4-z
3/4-x,1/2+y,1/4-z
1/2-x,1/2-y,-z
1/4+x,1/4+y,-z
1/2-x,1/4+y,3/4+z
1/4+x,1/2-y,3/4+z
loop_
_atom_site_type_symbol
_atom_site_label
_atom_site_fract_x
_atom_site_fract_y
_atom_site_fract_z
Si Si1 0.761728 0.905639 0.805930
Si Si2 0.242010 0.565378 0.211353
Si Si3 0.125000 0.515949 0.125000
Si Si4 0.125000 0.815100 0.625000
Si Si5 0.125000 0.625000 0.935579
Si Si6 0.542229 0.530078 0.913724
Si Si7 0.139421 0.835677 0.241445
O O1 0.796401 0.875000 0.875000
O O2 0.803006 0.939342 0.741300
O O3 0.719354 0.850110 0.769361
O O4 0.701480 0.957255 0.828796
O O5 0.250000 0.500000 0.250000
O O6 0.196008 0.555559 0.141468
O O7 0.192749 0.604832 0.264923
O O8 0.325861 0.583771 0.201254
O O9 0.109701 0.473505 0.191994
O O10 0.205009 0.784516 0.610546
O O11 0.134693 0.859152 0.691136
O O12 0.094487 0.681450 0.888295
#
# Coordination Sequence:
#
# PCOD9515802 Si02
#       7
#    32  32  16  16  16  32  32
#     4  10  23  44  67  96 127 173 235 271 330 397
#     4  10  22  40  65 102 135 175 222 263 338 415
#     4   9  20  37  64  97 133 171 212 269 330 398
#     4   9  16  40  69  85 129 179 204 267 344 378
#     4  12  24  45  69 104 138 172 220 284 334 402
#     4  10  23  44  67  99 135 172 227 280 334 398
#     4   9  18  39  66  92 131 174 211 271 328 399
#
# _framework density 23.272856000000001
#
# number of rings (size 3 to 8) (size 9 to 14) (size 15 to 20)
#    0.000    2.182    1.818    0.000    7.636    0.364 
#   13.091    0.000    0.000    0.000    0.000    0.000 
#    0.000    0.000    0.000    0.000    0.000    0.000 
#
# Total GULP energy -245450.938940 kJ/mol
# GULP energy per Si atom -5578.430430 kJ/mol
# Density = 2.321989 g / cm^3
# Si number density = 23.272856 Si / 1000 Ang^3
#
#
#
# Elastic Constant Matrix: (Units=GPa)
#
#
# Indices 1 2 3 4 5 6 
#
# 1 56.9842 4.9046 27.1848 0.0000 0.0000 0.0000
# 2 4.9046 60.1115 25.9561 0.0000 0.0000 0.0000
# 3 27.1848 25.9561 101.5017 0.0000 0.0000 0.0000
# 4 0.0000 0.0000 0.0000 3.2163 0.0000 0.0000
# 5 0.0000 0.0000 0.0000 0.0000 30.6251 0.0000
# 6 0.0000 0.0000 0.0000 0.0000 0.0000 -3.7317
#
#
#
# Elastic Compliance Matrix: (Units=1/GPa)
#
#
# Indices 1 2 3 4 5 6 
#
# 1 0.020151 0.000771 -0.005594 0.000000 0.000000 0.000000
# 2 0.000771 0.018730 -0.004996 0.000000 0.000000 0.000000
# 3 -0.005594 -0.004996 0.012628 0.000000 0.000000 0.000000
# 4 0.000000 0.000000 0.000000 0.310917 0.000000 0.000000
# 5 0.000000 0.000000 0.000000 0.000000 0.032653 0.000000
# 6 0.000000 0.000000 0.000000 0.000000 0.000000 -0.267977
#
#
# Mechanical properties :
#
#
# Convention : Reuss Voigt Hill
#
# Bulk Modulus (GPa) = 31.37647 37.18760 34.28203
# Shear Modulus (GPa) = 31.77361 16.72541 24.24951
#
# Velocity S-wave (km/s) = 3.69896 2.68370 3.23145
# Velocity P-wave (km/s) = 5.63510 5.06129 5.35588
#
# Compressibility (1/GPa) = 0.03187102
#
# Stress axis : x y z
#
# Youngs Moduli (GPa) = 49.62503 53.38973 79.18914
#
# Poissons Ratio (x) = -0.04119 0.44300
# Poissons Ratio (y) = -0.03828 0.39565
# Poissons Ratio (z) = 0.27762 0.26675
#
# Static dielectric constant tensor:
#      x y z
#    x 1.878640 0.000000 0.000000 
#    y 0.000000 1.892400 0.000000 
#    z 0.000000 0.000000 1.889280 
# 
# From -- ./inp_files/35320.got.cif
#   From: 2010.05.17/outbox.cif.g08.bks.cpg/sg70_18_cif.got.tgz:35320.got - 2010.06.03 15:57:51.
