data_PCOD9515252
_publ_section_title
;
Structure prediction by ZEFSAII (Michael W. Deem and Ramdas Pophale) SiO2 
 PCOD9515252
Probable space group: F D D D
;
_chemical_formula_sum "Si O2"
_cell_formula_units_Z 136
_cell_length_a 22.561052
_cell_length_b 23.513347
_cell_length_c 9.424762
_cell_angle_alpha 90.000000
_cell_angle_beta 90.000000
_cell_angle_gamma 90.000000
_cell_volume 4999.702827
_symmetry_space_group_name_H-M "F D D D"
_symmetry_group_IT_number 70
_space_group.IT_coordinate_system_code '2'
_symmetry_cell_setting 'orthorhombic'
loop_
_space_group_symop_operation_xyz
x,y,z
1/4-x,1/4-y,z
x,1/4-y,1/4-z
1/4-x,y,1/4-z
-x,-y,-z
3/4+x,3/4+y,-z
-x,3/4+y,3/4+z
3/4+x,-y,3/4+z
x,1/2+y,1/2+z
1/4-x,3/4-y,1/2+z
x,3/4-y,3/4-z
1/4-x,1/2+y,3/4-z
-x,1/2-y,1/2-z
3/4+x,1/4+y,1/2-z
-x,1/4+y,1/4+z
3/4+x,1/2-y,1/4+z
1/2+x,y,1/2+z
3/4-x,1/4-y,1/2+z
1/2+x,1/4-y,3/4-z
3/4-x,y,3/4-z
1/2-x,-y,1/2-z
1/4+x,3/4+y,1/2-z
1/2-x,3/4+y,1/4+z
1/4+x,-y,1/4+z
1/2+x,1/2+y,z
3/4-x,3/4-y,z
1/2+x,3/4-y,1/4-z
3/4-x,1/2+y,1/4-z
1/2-x,1/2-y,-z
1/4+x,1/4+y,-z
1/2-x,1/4+y,3/4+z
1/4+x,1/2-y,3/4+z
loop_
_atom_site_type_symbol
_atom_site_label
_atom_site_fract_x
_atom_site_fract_y
_atom_site_fract_z
Si Si1 0.674106 0.315659 0.239917
Si Si2 0.721221 0.625000 0.125000
Si Si3 0.125000 0.125000 0.625000
Si Si4 0.066665 0.248992 0.210045
Si Si5 0.026939 0.043104 0.731304
Si Si6 0.929328 0.125000 0.625000
O O1 0.732193 0.354538 0.254045
O O2 0.669027 0.278969 0.389009
O O3 0.695734 0.261646 0.149532
O O4 0.614163 0.351880 0.252522
O O5 0.687036 0.569643 0.180347
O O6 0.081700 0.087419 0.725508
O O7 0.125000 0.266716 0.125000
O O8 0.008928 0.275068 0.127117
O O9 0.973332 0.073741 0.654258
#
# Coordination Sequence:
#
# PCOD9515252 Si02
#       6
#    32  16   8  32  32  16
#     4  10  21  40  67  94 134 175 228 281 352 411
#     4   9  23  43  63  98 132 178 226 280 340 430
#     4  10  20  50  64 106 134 170 234 292 366 418
#     4  11  26  45  70  99 141 185 235 288 356 429
#     4  10  23  43  67  96 135 177 224 294 343 425
#     4  10  24  39  65  99 135 174 232 284 351 427
#
# _framework density 27.201618
#
# number of rings (size 3 to 8) (size 9 to 14) (size 15 to 20)
#    0.000    1.882    1.176    0.353   13.176    0.941 
#    4.235    0.000    0.000    0.000    0.000    0.000 
#    0.000    0.000    0.000    0.000    0.000    0.000 
#
# Total GULP energy -189522.519239 kJ/mol
# GULP energy per Si atom -5574.191742 kJ/mol
# Density = 2.713971 g / cm^3
# Si number density = 27.201618 Si / 1000 Ang^3
#
#
#
# Elastic Constant Matrix: (Units=GPa)
#
#
# Indices 1 2 3 4 5 6 
#
# 1 171.3423 70.2681 15.2381 0.0002 -0.0003 -0.0002
# 2 70.2681 183.0844 22.9927 0.0003 -0.0002 -0.0001
# 3 15.2381 22.9927 64.4868 0.0011 -0.0011 -0.0006
# 4 0.0002 0.0003 0.0011 48.4598 -0.0006 -0.0002
# 5 -0.0003 -0.0002 -0.0011 -0.0006 8.0390 0.0003
# 6 -0.0002 -0.0001 -0.0006 -0.0002 0.0003 71.4733
#
#
#
# Elastic Compliance Matrix: (Units=1/GPa)
#
#
# Indices 1 2 3 4 5 6 
#
# 1 0.006959 -0.002580 -0.000725 0.000000 0.000000 0.000000
# 2 -0.002580 0.006674 -0.001770 0.000000 0.000000 0.000000
# 3 -0.000725 -0.001770 0.016309 0.000000 0.000002 0.000000
# 4 0.000000 0.000000 0.000000 0.020636 0.000002 0.000000
# 5 0.000000 0.000000 0.000002 0.000002 0.124393 -0.000001
# 6 0.000000 0.000000 0.000000 0.000000 -0.000001 0.013991
#
#
# Mechanical properties :
#
#
# Convention : Reuss Voigt Hill
#
# Bulk Modulus (GPa) = 50.52136 70.65682 60.58909
# Shear Modulus (GPa) = 24.30612 46.28870 35.29741
#
# Velocity S-wave (km/s) = 2.99248 4.12963 3.60616
# Velocity P-wave (km/s) = 5.52749 6.98356 6.29775
#
# Compressibility (1/GPa) = 0.01979361
#
# Stress axis : x y z
#
# Youngs Moduli (GPa) = 143.70545 149.82646 61.31432
#
# Poissons Ratio (x) = 0.38652 0.04442
# Poissons Ratio (y) = 0.37073 0.10854
# Poissons Ratio (z) = 0.10412 0.26522
#
# Static dielectric constant tensor:
#      x y z
#    x 2.388390 0.000000 0.000010 
#    y 0.000000 2.297980 0.000000 
#    z 0.000010 0.000000 1.478230 
# 
# From -- ./inp_files/18992.got.cif
#   From: 2010.05.17/outbox.cif.g08.bks.cpg/sg70_10_cif.got.tgz:18992.got - 2010.06.03 15:57:51.
