data_PCOD9515726
_publ_section_title
;
Structure prediction by ZEFSAII (Michael W. Deem and Ramdas Pophale) SiO2 
 PCOD9515726
Probable space group: F D D D
;
_chemical_formula_sum "Si O2"
_cell_formula_units_Z 128
_cell_length_a 21.324297
_cell_length_b 26.262809
_cell_length_c 10.250546
_cell_angle_alpha 90.000000
_cell_angle_beta 90.000000
_cell_angle_gamma 90.000000
_cell_volume 5740.674156
_symmetry_space_group_name_H-M "F D D D"
_symmetry_group_IT_number 70
_space_group.IT_coordinate_system_code '2'
_symmetry_cell_setting 'orthorhombic'
loop_
_space_group_symop_operation_xyz
x,y,z
1/4-x,1/4-y,z
x,1/4-y,1/4-z
1/4-x,y,1/4-z
-x,-y,-z
3/4+x,3/4+y,-z
-x,3/4+y,3/4+z
3/4+x,-y,3/4+z
x,1/2+y,1/2+z
1/4-x,3/4-y,1/2+z
x,3/4-y,3/4-z
1/4-x,1/2+y,3/4-z
-x,1/2-y,1/2-z
3/4+x,1/4+y,1/2-z
-x,1/4+y,1/4+z
3/4+x,1/2-y,1/4+z
1/2+x,y,1/2+z
3/4-x,1/4-y,1/2+z
1/2+x,1/4-y,3/4-z
3/4-x,y,3/4-z
1/2-x,-y,1/2-z
1/4+x,3/4+y,1/2-z
1/2-x,3/4+y,1/4+z
1/4+x,-y,1/4+z
1/2+x,1/2+y,z
3/4-x,3/4-y,z
1/2+x,3/4-y,1/4-z
3/4-x,1/2+y,1/4-z
1/2-x,1/2-y,-z
1/4+x,1/4+y,-z
1/2-x,1/4+y,3/4+z
1/4+x,1/2-y,3/4+z
loop_
_atom_site_type_symbol
_atom_site_label
_atom_site_fract_x
_atom_site_fract_y
_atom_site_fract_z
Si Si1 0.040812 0.571840 0.547399
Si Si2 0.370450 0.935870 0.676333
Si Si3 0.273604 0.313722 0.379720
Si Si4 0.553062 0.965221 0.662461
O O1 0.043057 0.625000 0.625000
O O2 0.105455 0.557846 0.470265
O O3 0.028548 0.522322 0.634083
O O4 0.988403 0.571447 0.432533
O O5 0.375000 0.875000 0.692784
O O6 0.302017 0.950658 0.729619
O O7 0.423454 0.955714 0.776204
O O8 0.271978 0.375000 0.375000
O O9 0.209415 0.296660 0.313838
O O10 0.625000 0.959082 0.625000
#
# Coordination Sequence:
#
# PCOD9515726 Si02
#       4
#    32  32  32  32
#     4  10  22  38  61  90 126 165 216 266 324 377
#     4   8  15  29  58  87 111 153 205 266 313 355
#     4   8  15  33  57  84 120 156 206 263 314 368
#     4  10  22  38  59  89 128 173 210 261 324 391
#
# _framework density 22.297032999999999
#
# number of rings (size 3 to 8) (size 9 to 14) (size 15 to 20)
#    0.000    3.000    0.000    1.500    3.500    1.000 
#    0.000    1.250   16.500    0.000    0.000    0.000 
#    0.000    0.000    0.000    0.000    0.000    0.000 
#
# Total GULP energy -178311.770092 kJ/mol
# GULP energy per Si atom -5572.242815 kJ/mol
# Density = 2.224628 g / cm^3
# Si number density = 22.297033 Si / 1000 Ang^3
#
#
#
# Elastic Constant Matrix: (Units=GPa)
#
#
# Indices 1 2 3 4 5 6 
#
# 1 101.6693 20.5650 46.3359 0.0000 0.0000 0.0000
# 2 20.5650 68.1151 62.4509 0.0000 0.0000 0.0000
# 3 46.3359 62.4509 116.7114 -0.0001 0.0002 0.0000
# 4 0.0000 0.0000 -0.0001 36.4447 0.0000 0.0000
# 5 0.0000 0.0000 0.0002 0.0000 53.1472 0.0000
# 6 0.0000 0.0000 0.0000 0.0000 0.0000 11.9813
#
#
#
# Elastic Compliance Matrix: (Units=1/GPa)
#
#
# Indices 1 2 3 4 5 6 
#
# 1 0.012083 0.001473 -0.005585 0.000000 0.000000 0.000000
# 2 0.001473 0.028999 -0.016102 0.000000 0.000000 0.000000
# 3 -0.005585 -0.016102 0.019401 0.000000 0.000000 0.000000
# 4 0.000000 0.000000 0.000000 0.027439 0.000000 0.000000
# 5 0.000000 0.000000 0.000000 0.000000 0.018816 0.000000
# 6 0.000000 0.000000 0.000000 0.000000 0.000000 0.083463
#
#
# Mechanical properties :
#
#
# Convention : Reuss Voigt Hill
#
# Bulk Modulus (GPa) = 49.86224 60.57771 55.21998
# Shear Modulus (GPa) = 21.06897 30.79093 25.92995
#
# Velocity S-wave (km/s) = 3.07729 3.72014 3.41388
# Velocity P-wave (km/s) = 5.91926 6.75870 6.35286
#
# Compressibility (1/GPa) = 0.02005526
#
# Stress axis : x y z
#
# Youngs Moduli (GPa) = 82.75804 34.48365 51.54257
#
# Poissons Ratio (x) = -0.05078 0.28788
# Poissons Ratio (y) = -0.12187 0.82993
# Poissons Ratio (z) = 0.46222 0.55525
#
# Static dielectric constant tensor:
#      x y z
#    x 1.908040 0.000000 0.000000 
#    y 0.000000 1.795360 0.000000 
#    z 0.000000 0.000000 1.932760 
# 
# From -- ./inp_files/19096.got.cif
#   From: 2010.05.17/outbox.cif.g08.bks.cpg/sg70_10_cif.got.tgz:19096.got - 2010.06.03 15:57:51.
