data_PCOD9515331
_publ_section_title
;
Structure prediction by ZEFSAII (Michael W. Deem and Ramdas Pophale) SiO2 
 PCOD9515331
Probable space group: F D D D
;
_chemical_formula_sum "Si O2"
_cell_formula_units_Z 176
_cell_length_a 28.094059
_cell_length_b 10.913008
_cell_length_c 26.338372
_cell_angle_alpha 90.000000
_cell_angle_beta 90.000000
_cell_angle_gamma 90.000000
_cell_volume 8075.099661
_symmetry_space_group_name_H-M "F D D D"
_symmetry_group_IT_number 70
_space_group.IT_coordinate_system_code '2'
_symmetry_cell_setting 'orthorhombic'
loop_
_space_group_symop_operation_xyz
x,y,z
1/4-x,1/4-y,z
x,1/4-y,1/4-z
1/4-x,y,1/4-z
-x,-y,-z
3/4+x,3/4+y,-z
-x,3/4+y,3/4+z
3/4+x,-y,3/4+z
x,1/2+y,1/2+z
1/4-x,3/4-y,1/2+z
x,3/4-y,3/4-z
1/4-x,1/2+y,3/4-z
-x,1/2-y,1/2-z
3/4+x,1/4+y,1/2-z
-x,1/4+y,1/4+z
3/4+x,1/2-y,1/4+z
1/2+x,y,1/2+z
3/4-x,1/4-y,1/2+z
1/2+x,1/4-y,3/4-z
3/4-x,y,3/4-z
1/2-x,-y,1/2-z
1/4+x,3/4+y,1/2-z
1/2-x,3/4+y,1/4+z
1/4+x,-y,1/4+z
1/2+x,1/2+y,z
3/4-x,3/4-y,z
1/2+x,3/4-y,1/4-z
3/4-x,1/2+y,1/4-z
1/2-x,1/2-y,-z
1/4+x,1/4+y,-z
1/2-x,1/4+y,3/4+z
1/4+x,1/2-y,3/4+z
loop_
_atom_site_type_symbol
_atom_site_label
_atom_site_fract_x
_atom_site_fract_y
_atom_site_fract_z
Si Si1 0.860057 0.544877 0.207953
Si Si2 0.723999 0.792720 0.301159
Si Si3 0.375000 0.375000 0.616443
Si Si4 0.223685 0.548273 0.335570
Si Si5 0.125000 0.625000 0.549039
Si Si6 0.046502 0.125000 0.125000
Si Si7 0.517867 0.314322 0.954322
O O1 0.917178 0.555614 0.206867
O O2 0.850391 0.468862 0.156198
O O3 0.851045 0.470483 0.260099
O O4 0.823730 0.656749 0.206747
O O5 0.733724 0.737899 0.356487
O O6 0.746366 0.704306 0.259704
O O7 0.741621 0.933724 0.302357
O O8 0.333983 0.309995 0.584656
O O9 0.241762 0.681621 0.321000
O O10 0.085333 0.685025 0.585993
O O11 0.008776 0.163497 0.168924
#
# Coordination Sequence:
#
# PCOD9515331 Si02
#       7
#    32  32  16  32  16  16  32
#     4  10  21  38  63  90 127 166 213 269 330 393
#     4  10  22  41  59  89 131 170 212 279 330 383
#     4   9  18  37  60  89 122 161 210 275 333 386
#     4  10  21  37  60  87 127 164 213 275 330 379
#     4  10  22  43  58  86 132 172 200 265 343 387
#     4  11  24  38  62  92 126 164 214 264 326 407
#     4  12  23  37  64  98 121 172 227 264 325 412
#
# _framework density 21.795396
#
# number of rings (size 3 to 8) (size 9 to 14) (size 15 to 20)
#    0.000    1.636    1.818    2.727    2.545    3.636 
#    0.000    0.000    0.000    0.000    0.000    0.000 
#    0.000    0.000    0.000    0.000    0.000    0.000 
#
# Total GULP energy -245090.845671 kJ/mol
# GULP energy per Si atom -5570.246493 kJ/mol
# Density = 2.174579 g / cm^3
# Si number density = 21.795396 Si / 1000 Ang^3
#
#
#
# Elastic Constant Matrix: (Units=GPa)
#
#
# Indices 1 2 3 4 5 6 
#
# 1 66.9136 1.9179 9.8282 0.0000 0.0000 0.0000
# 2 1.9179 70.8262 11.1532 0.0000 0.0000 0.0000
# 3 9.8282 11.1532 81.1173 0.0000 0.0000 0.0000
# 4 0.0000 0.0000 0.0000 25.2919 0.0000 0.0000
# 5 0.0000 0.0000 0.0000 0.0000 14.8443 0.0000
# 6 0.0000 0.0000 0.0000 0.0000 0.0000 23.1058
#
#
#
# Elastic Compliance Matrix: (Units=1/GPa)
#
#
# Indices 1 2 3 4 5 6 
#
# 1 0.015217 -0.000124 -0.001827 0.000000 0.000000 0.000000
# 2 -0.000124 0.014433 -0.001969 0.000000 0.000000 0.000000
# 3 -0.001827 -0.001969 0.012820 0.000000 0.000000 0.000000
# 4 0.000000 0.000000 0.000000 0.039538 0.000000 0.000000
# 5 0.000000 0.000000 0.000000 0.000000 0.067366 0.000000
# 6 0.000000 0.000000 0.000000 0.000000 0.000000 0.043279
#
#
# Mechanical properties :
#
#
# Convention : Reuss Voigt Hill
#
# Bulk Modulus (GPa) = 28.87804 29.40620 29.14212
# Shear Modulus (GPa) = 23.58095 25.71225 24.64660
#
# Velocity S-wave (km/s) = 3.29283 3.43842 3.36641
# Velocity P-wave (km/s) = 5.26643 5.41155 5.33948
#
# Compressibility (1/GPa) = 0.03462839
#
# Stress axis : x y z
#
# Youngs Moduli (GPa) = 65.71813 69.28777 78.00368
#
# Poissons Ratio (x) = 0.00862 0.14248
# Poissons Ratio (y) = 0.00818 0.15362
# Poissons Ratio (z) = 0.12004 0.13645
#
# Static dielectric constant tensor:
#      x y z
#    x 1.806180 0.000000 0.000000 
#    y 0.000000 1.906260 0.000000 
#    z 0.000000 0.000000 1.800030 
# 
# From -- ./inp_files/62215.got.cif
#   From: 2010.05.17/outbox.cif.g08.bks.cpg/sg70_32_cif.got.tgz:62215.got - 2010.06.03 15:57:51.
