data_PCOD9515659
_publ_section_title
;
Structure prediction by ZEFSAII (Michael W. Deem and Ramdas Pophale) SiO2 
 PCOD9515659
Probable space group: F D D D
;
_chemical_formula_sum "Si O2"
_cell_formula_units_Z 112
_cell_length_a 9.747443
_cell_length_b 18.074317
_cell_length_c 24.453792
_cell_angle_alpha 90.000000
_cell_angle_beta 90.000000
_cell_angle_gamma 90.000000
_cell_volume 4308.229330
_symmetry_space_group_name_H-M "F D D D"
_symmetry_group_IT_number 70
_space_group.IT_coordinate_system_code '2'
_symmetry_cell_setting 'orthorhombic'
loop_
_space_group_symop_operation_xyz
x,y,z
1/4-x,1/4-y,z
x,1/4-y,1/4-z
1/4-x,y,1/4-z
-x,-y,-z
3/4+x,3/4+y,-z
-x,3/4+y,3/4+z
3/4+x,-y,3/4+z
x,1/2+y,1/2+z
1/4-x,3/4-y,1/2+z
x,3/4-y,3/4-z
1/4-x,1/2+y,3/4-z
-x,1/2-y,1/2-z
3/4+x,1/4+y,1/2-z
-x,1/4+y,1/4+z
3/4+x,1/2-y,1/4+z
1/2+x,y,1/2+z
3/4-x,1/4-y,1/2+z
1/2+x,1/4-y,3/4-z
3/4-x,y,3/4-z
1/2-x,-y,1/2-z
1/4+x,3/4+y,1/2-z
1/2-x,3/4+y,1/4+z
1/4+x,-y,1/4+z
1/2+x,1/2+y,z
3/4-x,3/4-y,z
1/2+x,3/4-y,1/4-z
3/4-x,1/2+y,1/4-z
1/2-x,1/2-y,-z
1/4+x,1/4+y,-z
1/2-x,1/4+y,3/4+z
1/4+x,1/2-y,3/4+z
loop_
_atom_site_type_symbol
_atom_site_label
_atom_site_fract_x
_atom_site_fract_y
_atom_site_fract_z
Si Si1 0.748662 0.686682 0.954502
Si Si2 0.885411 0.203164 0.986933
Si Si3 0.936398 0.204433 0.105631
Si Si4 0.125000 0.225230 0.625000
O O1 0.625000 0.625000 0.958135
O O2 0.733355 0.729598 0.896218
O O3 0.750000 0.750000 0.000000
O O4 0.877170 0.633517 0.971427
O O5 0.973405 0.213484 0.041979
O O6 0.750000 0.250000 0.000000
O O7 0.931768 0.234928 0.928957
O O8 0.987026 0.125000 0.125000
O O9 0.770008 0.194113 0.104454
#
# Coordination Sequence:
#
# PCOD9515659 Si02
#       4
#    32  32  32  16
#     4  12  25  50  76 113 164 208 273 347 414 501
#     4  10  23  46  75 116 155 215 270 339 415 501
#     4  11  22  43  73 107 153 208 273 336 423 488
#     4  10  21  44  70 106 151 196 274 334 399 502
#
# _framework density 25.996758
#
# number of rings (size 3 to 8) (size 9 to 14) (size 15 to 20)
#    0.000    1.143    5.714    0.429    0.000    0.000 
#   10.286    2.857    0.000    0.000    0.000    0.000 
#    0.000    0.000    0.000    0.000    0.000    0.000 
#
# Total GULP energy -156005.421198 kJ/mol
# GULP energy per Si atom -5571.622186 kJ/mol
# Density = 2.593759 g / cm^3
# Si number density = 25.996758 Si / 1000 Ang^3
#
#
#
# Elastic Constant Matrix: (Units=GPa)
#
#
# Indices 1 2 3 4 5 6 
#
# 1 137.4841 46.3057 17.8652 0.0000 0.0000 0.0000
# 2 46.3057 185.9198 103.9066 0.0000 0.0000 0.0000
# 3 17.8652 103.9066 275.7818 0.0000 0.0000 0.0000
# 4 0.0000 0.0000 0.0000 36.7817 0.0000 0.0000
# 5 0.0000 0.0000 0.0000 0.0000 22.8425 0.0000
# 6 0.0000 0.0000 0.0000 0.0000 0.0000 12.1703
#
#
#
# Elastic Compliance Matrix: (Units=1/GPa)
#
#
# Indices 1 2 3 4 5 6 
#
# 1 0.007958 -0.002146 0.000293 0.000000 0.000000 0.000000
# 2 -0.002146 0.007392 -0.002646 0.000000 0.000000 0.000000
# 3 0.000293 -0.002646 0.004604 0.000000 0.000000 0.000000
# 4 0.000000 0.000000 0.000000 0.027187 0.000000 0.000000
# 5 0.000000 0.000000 0.000000 0.000000 0.043778 0.000000
# 6 0.000000 0.000000 0.000000 0.000000 0.000000 0.082168
#
#
# Mechanical properties :
#
#
# Convention : Reuss Voigt Hill
#
# Bulk Modulus (GPa) = 91.27139 103.92674 97.59906
# Shear Modulus (GPa) = 26.91975 43.09942 35.00958
#
# Velocity S-wave (km/s) = 3.22142 4.07612 3.67371
# Velocity P-wave (km/s) = 7.00155 7.88775 7.45782
#
# Compressibility (1/GPa) = 0.01095634
#
# Stress axis : x y z
#
# Youngs Moduli (GPa) = 125.65602 135.28258 217.20078
#
# Poissons Ratio (x) = 0.29029 -0.06363
# Poissons Ratio (y) = 0.26964 0.57473
# Poissons Ratio (z) = -0.03681 0.35797
#
# Static dielectric constant tensor:
#      x y z
#    x 2.107660 0.000000 0.000000 
#    y 0.000000 2.072330 0.000000 
#    z 0.000000 0.000000 2.054160 
# 
# From -- ./inp_files/57098.got.cif
#   From: 2010.05.17/outbox.cif.g08.bks.cpg/sg70_29_cif.got.tgz:57098.got - 2010.06.03 15:57:51.
