data_PCOD9515485
_publ_section_title
;
Structure prediction by ZEFSAII (Michael W. Deem and Ramdas Pophale) SiO2 
 PCOD9515485
Probable space group: F D D D
;
_chemical_formula_sum "Si O2"
_cell_formula_units_Z 112
_cell_length_a 28.954193
_cell_length_b 7.837857
_cell_length_c 24.258671
_cell_angle_alpha 90.000000
_cell_angle_beta 90.000000
_cell_angle_gamma 90.000000
_cell_volume 5505.234275
_symmetry_space_group_name_H-M "F D D D"
_symmetry_group_IT_number 70
_space_group.IT_coordinate_system_code '2'
_symmetry_cell_setting 'orthorhombic'
loop_
_space_group_symop_operation_xyz
x,y,z
1/4-x,1/4-y,z
x,1/4-y,1/4-z
1/4-x,y,1/4-z
-x,-y,-z
3/4+x,3/4+y,-z
-x,3/4+y,3/4+z
3/4+x,-y,3/4+z
x,1/2+y,1/2+z
1/4-x,3/4-y,1/2+z
x,3/4-y,3/4-z
1/4-x,1/2+y,3/4-z
-x,1/2-y,1/2-z
3/4+x,1/4+y,1/2-z
-x,1/4+y,1/4+z
3/4+x,1/2-y,1/4+z
1/2+x,y,1/2+z
3/4-x,1/4-y,1/2+z
1/2+x,1/4-y,3/4-z
3/4-x,y,3/4-z
1/2-x,-y,1/2-z
1/4+x,3/4+y,1/2-z
1/2-x,3/4+y,1/4+z
1/4+x,-y,1/4+z
1/2+x,1/2+y,z
3/4-x,3/4-y,z
1/2+x,3/4-y,1/4-z
3/4-x,1/2+y,1/4-z
1/2-x,1/2-y,-z
1/4+x,1/4+y,-z
1/2-x,1/4+y,3/4+z
1/4+x,1/2-y,3/4+z
loop_
_atom_site_type_symbol
_atom_site_label
_atom_site_fract_x
_atom_site_fract_y
_atom_site_fract_z
Si Si1 0.222869 0.875000 0.375000
Si Si2 0.625658 0.828230 0.686905
Si Si3 0.926237 0.956665 0.022803
Si Si4 0.477177 0.165375 0.970026
O O1 0.190477 0.789076 0.420213
O O2 0.251047 0.735541 0.337611
O O3 0.625000 0.625000 0.685495
O O4 0.625000 0.898210 0.625000
O O5 0.575930 0.870843 0.710436
O O6 0.666516 0.907932 0.723462
O O7 0.875000 0.875000 0.028748
O O8 0.968758 0.830817 0.008308
O O9 0.500000 0.000000 0.000000
#
# Coordination Sequence:
#
# PCOD9515485 Si02
#       4
#    16  32  32  32
#     4  12  24  40  65  92 126 162 210 276 323 380
#     4  10  21  40  64  89 122 168 214 258 316 391
#     4  10  24  42  61  89 126 168 211 257 322 393
#     4  11  24  40  62  92 126 163 210 266 326 386
#
# _framework density 20.344275
#
# number of rings (size 3 to 8) (size 9 to 14) (size 15 to 20)
#    0.000    1.429    0.000    4.286    0.000   15.429 
#    0.000    0.000    0.000    0.000    0.000    0.000 
#    0.000    0.000    0.000    0.000    0.000    0.000 
#
# Total GULP energy -156008.234112 kJ/mol
# GULP energy per Si atom -5571.722647 kJ/mol
# Density = 2.029797 g / cm^3
# Si number density = 20.344275 Si / 1000 Ang^3
#
#
#
# Elastic Constant Matrix: (Units=GPa)
#
#
# Indices 1 2 3 4 5 6 
#
# 1 94.2350 47.9358 52.4216 0.0000 0.0000 -0.0001
# 2 47.9358 120.0552 77.8500 0.0002 -0.0001 -0.0001
# 3 52.4216 77.8500 174.2145 0.0001 0.0000 0.0000
# 4 0.0000 0.0002 0.0001 -35.5804 -0.0001 -0.0001
# 5 0.0000 -0.0001 0.0000 -0.0001 48.9726 0.0000
# 6 -0.0001 -0.0001 0.0000 -0.0001 0.0000 30.2860
#
#
#
# Elastic Compliance Matrix: (Units=1/GPa)
#
#
# Indices 1 2 3 4 5 6 
#
# 1 0.014003 -0.004025 -0.002415 0.000000 0.000000 0.000000
# 2 -0.004025 0.012885 -0.004547 0.000000 0.000000 0.000000
# 3 -0.002415 -0.004547 0.008498 0.000000 0.000000 0.000000
# 4 0.000000 0.000000 0.000000 -0.028105 0.000000 0.000000
# 5 0.000000 0.000000 0.000000 0.000000 0.020420 0.000000
# 6 0.000000 0.000000 0.000000 0.000000 0.000000 0.033019
#
#
# Mechanical properties :
#
#
# Convention : Reuss Voigt Hill
#
# Bulk Modulus (GPa) = 74.55510 82.76882 78.66196
# Shear Modulus (GPa) = 57.36411 22.75547 40.05979
#
# Velocity S-wave (km/s) = 5.31582 3.34806 4.44226
# Velocity P-wave (km/s) = 8.62574 7.46447 8.06604
#
# Compressibility (1/GPa) = 0.01341290
#
# Stress axis : x y z
#
# Youngs Moduli (GPa) = 71.41552 77.61009 117.66963
#
# Poissons Ratio (x) = 0.31239 0.28414
# Poissons Ratio (y) = 0.28746 0.53500
# Poissons Ratio (z) = 0.17245 0.35286
#
# Static dielectric constant tensor:
#      x y z
#    x 1.689820 0.000000 0.000000 
#    y 0.000000 4.801590 0.000000 
#    z 0.000000 0.000000 1.979010 
# 
# From -- ./inp_files/9491.got.cif
#   From: 2010.05.17/outbox.cif.g08.bks.cpg/sg70_5_cif.got.tgz:9491.got - 2010.06.03 15:57:51.
