data_PCOD9515992
_publ_section_title
;
Structure prediction by ZEFSAII (Michael W. Deem and Ramdas Pophale) SiO2 
 PCOD9515992
Probable space group: F D D D
;
_chemical_formula_sum "Si O2"
_cell_formula_units_Z 80
_cell_length_a 15.649256
_cell_length_b 7.075293
_cell_length_c 35.607337
_cell_angle_alpha 90.000000
_cell_angle_beta 90.000000
_cell_angle_gamma 90.000000
_cell_volume 3942.553718
_symmetry_space_group_name_H-M "F D D D"
_symmetry_group_IT_number 70
_space_group.IT_coordinate_system_code '2'
_symmetry_cell_setting 'orthorhombic'
loop_
_space_group_symop_operation_xyz
x,y,z
1/4-x,1/4-y,z
x,1/4-y,1/4-z
1/4-x,y,1/4-z
-x,-y,-z
3/4+x,3/4+y,-z
-x,3/4+y,3/4+z
3/4+x,-y,3/4+z
x,1/2+y,1/2+z
1/4-x,3/4-y,1/2+z
x,3/4-y,3/4-z
1/4-x,1/2+y,3/4-z
-x,1/2-y,1/2-z
3/4+x,1/4+y,1/2-z
-x,1/4+y,1/4+z
3/4+x,1/2-y,1/4+z
1/2+x,y,1/2+z
3/4-x,1/4-y,1/2+z
1/2+x,1/4-y,3/4-z
3/4-x,y,3/4-z
1/2-x,-y,1/2-z
1/4+x,3/4+y,1/2-z
1/2-x,3/4+y,1/4+z
1/4+x,-y,1/4+z
1/2+x,1/2+y,z
3/4-x,3/4-y,z
1/2+x,3/4-y,1/4-z
3/4-x,1/2+y,1/4-z
1/2-x,1/2-y,-z
1/4+x,1/4+y,-z
1/2-x,1/4+y,3/4+z
1/4+x,1/2-y,3/4+z
loop_
_atom_site_type_symbol
_atom_site_label
_atom_site_fract_x
_atom_site_fract_y
_atom_site_fract_z
Si Si1 0.795119 0.743218 0.039965
Si Si2 0.125000 0.625000 0.330024
Si Si3 0.720257 0.849194 0.116318
O O1 0.832245 0.541488 0.055002
O O2 0.738913 0.844793 0.072174
O O3 0.875000 0.875000 0.035686
O O4 0.750000 0.750000 0.000000
O O5 0.203393 0.566480 0.357977
O O6 0.722117 0.625000 0.125000
O O7 0.625000 0.918054 0.125000
#
# Coordination Sequence:
#
# PCOD9515992 Si02
#       3
#    32  16  32
#     4  11  25  42  65  97 135 172 218 278 338 389
#     4  10  22  44  70  92 135 176 227 272 326 406
#     4   9  19  39  68  93 127 175 222 270 325 393
#
# _framework density 20.291416000000002
#
# number of rings (size 3 to 8) (size 9 to 14) (size 15 to 20)
#    0.000    2.000    2.000    0.000   11.200    1.600 
#    0.000    2.000    0.000    0.000    0.000    0.000 
#    0.000    0.000    0.000    0.000    0.000    0.000 
#
# Total GULP energy -111471.185694 kJ/mol
# GULP energy per Si atom -5573.559285 kJ/mol
# Density = 2.024523 g / cm^3
# Si number density = 20.291416 Si / 1000 Ang^3
#
#
#
# Elastic Constant Matrix: (Units=GPa)
#
#
# Indices 1 2 3 4 5 6 
#
# 1 187.7699 37.9583 119.4476 0.0000 0.0000 0.0000
# 2 37.9583 104.5526 57.3678 0.0000 0.0000 0.0000
# 3 119.4476 57.3678 232.7978 0.0000 0.0000 0.0000
# 4 0.0000 0.0000 0.0000 261.2395 0.0000 0.0000
# 5 0.0000 0.0000 0.0000 0.0000 52.1570 0.0000
# 6 0.0000 0.0000 0.0000 0.0000 0.0000 22.3188
#
#
#
# Elastic Compliance Matrix: (Units=1/GPa)
#
#
# Indices 1 2 3 4 5 6 
#
# 1 0.007957 -0.000750 -0.003898 0.000000 0.000000 0.000000
# 2 -0.000750 0.011131 -0.002358 0.000000 0.000000 0.000000
# 3 -0.003898 -0.002358 0.006877 0.000000 0.000000 0.000000
# 4 0.000000 0.000000 0.000000 0.003828 0.000000 0.000000
# 5 0.000000 0.000000 0.000000 0.000000 0.019173 0.000000
# 6 0.000000 0.000000 0.000000 0.000000 0.000000 0.044805
#
#
# Mechanical properties :
#
#
# Convention : Reuss Voigt Hill
#
# Bulk Modulus (GPa) = 83.66554 106.07419 94.86987
# Shear Modulus (GPa) = 44.73626 87.83283 66.28454
#
# Velocity S-wave (km/s) = 4.70051 6.58633 5.72164
# Velocity P-wave (km/s) = 8.41315 10.49897 9.51340
#
# Compressibility (1/GPa) = 0.01195235
#
# Stress axis : x y z
#
# Youngs Moduli (GPa) = 125.67843 89.84127 145.42075
#
# Poissons Ratio (x) = 0.06739 0.56682
# Poissons Ratio (y) = 0.09427 0.34291
# Poissons Ratio (z) = 0.48987 0.21185
#
# Static dielectric constant tensor:
#      x y z
#    x 1.678420 0.000000 0.000000 
#    y 0.000000 1.762120 0.000000 
#    z 0.000000 0.000000 1.637220 
# 
# From -- ./inp_files/6794.got.cif
#   From: 2010.05.17/outbox.cif.g08.bks.cpg/sg70_4_cif.got.tgz:6794.got - 2010.06.03 15:57:51.
