data_PCOD9515574
_publ_section_title
;
Structure prediction by ZEFSAII (Michael W. Deem and Ramdas Pophale) SiO2 
 PCOD9515574
Probable space group: F D D D
;
_chemical_formula_sum "Si O2"
_cell_formula_units_Z 208
_cell_length_a 18.730278
_cell_length_b 22.031998
_cell_length_c 26.368426
_cell_angle_alpha 90.000000
_cell_angle_beta 90.000000
_cell_angle_gamma 90.000000
_cell_volume 10881.338313
_symmetry_space_group_name_H-M "F D D D"
_symmetry_group_IT_number 70
_space_group.IT_coordinate_system_code '2'
_symmetry_cell_setting 'orthorhombic'
loop_
_space_group_symop_operation_xyz
x,y,z
1/4-x,1/4-y,z
x,1/4-y,1/4-z
1/4-x,y,1/4-z
-x,-y,-z
3/4+x,3/4+y,-z
-x,3/4+y,3/4+z
3/4+x,-y,3/4+z
x,1/2+y,1/2+z
1/4-x,3/4-y,1/2+z
x,3/4-y,3/4-z
1/4-x,1/2+y,3/4-z
-x,1/2-y,1/2-z
3/4+x,1/4+y,1/2-z
-x,1/4+y,1/4+z
3/4+x,1/2-y,1/4+z
1/2+x,y,1/2+z
3/4-x,1/4-y,1/2+z
1/2+x,1/4-y,3/4-z
3/4-x,y,3/4-z
1/2-x,-y,1/2-z
1/4+x,3/4+y,1/2-z
1/2-x,3/4+y,1/4+z
1/4+x,-y,1/4+z
1/2+x,1/2+y,z
3/4-x,3/4-y,z
1/2+x,3/4-y,1/4-z
3/4-x,1/2+y,1/4-z
1/2-x,1/2-y,-z
1/4+x,1/4+y,-z
1/2-x,1/4+y,3/4+z
1/4+x,1/2-y,3/4+z
loop_
_atom_site_type_symbol
_atom_site_label
_atom_site_fract_x
_atom_site_fract_y
_atom_site_fract_z
Si Si1 0.670577 0.883898 0.048498
Si Si2 0.217777 0.404433 0.597779
Si Si3 0.895447 0.625000 0.625000
Si Si4 0.735452 0.486423 0.333902
Si Si5 0.687966 0.075637 0.753055
Si Si6 0.831945 0.051109 0.217174
Si Si7 0.813371 0.915596 0.228689
O O1 0.602402 0.841535 0.062409
O O2 0.702217 0.891882 0.105140
O O3 0.735400 0.856843 0.015952
O O4 0.634103 0.936054 0.015267
O O5 0.236337 0.468043 0.623384
O O6 0.280740 0.376663 0.565060
O O7 0.944517 0.570678 0.605331
O O8 0.852066 0.595503 0.671379
O O9 0.682833 0.526183 0.297969
O O10 0.799387 0.461048 0.298715
O O11 0.625000 0.125000 0.751960
O O12 0.751601 0.066856 0.234351
O O13 0.838564 0.979835 0.205700
O O14 0.875000 0.875000 0.253425
#
# Coordination Sequence:
#
# PCOD9515574 Si02
#       7
#    32  32  16  32  32  32  32
#     4   9  18  39  60  89 120 162 203 250 314 364
#     4   9  19  37  68  87 120 164 209 256 309 378
#     4  12  22  40  58  94 126 168 202 266 314 378
#     4  10  22  40  60  91 128 160 215 257 311 384
#     4  10  21  42  61  87 128 164 209 256 308 378
#     4  10  22  40  63  87 129 157 206 260 312 372
#     4  10  21  42  64  93 117 162 211 259 311 382
#
# _framework density 19.115296000000001
#
# number of rings (size 3 to 8) (size 9 to 14) (size 15 to 20)
#    0.000    2.154    1.538    0.923    0.000    4.923 
#   19.385    0.385    0.000    0.000    0.000    0.000 
#    0.000    0.000    0.000    0.000    0.000    0.000 
#
# Total GULP energy -289828.767210 kJ/mol
# GULP energy per Si atom -5573.630139 kJ/mol
# Density = 1.907179 g / cm^3
# Si number density = 19.115296 Si / 1000 Ang^3
#
#
#
# Elastic Constant Matrix: (Units=GPa)
#
#
# Indices 1 2 3 4 5 6 
#
# 1 82.1275 72.8664 41.2654 0.0000 0.0000 0.0000
# 2 72.8664 139.5915 53.5163 0.0000 0.0000 0.0000
# 3 41.2654 53.5163 59.1866 0.0000 0.0000 0.0000
# 4 0.0000 0.0000 0.0000 24.3441 0.0000 0.0000
# 5 0.0000 0.0000 0.0000 0.0000 9.8769 0.0000
# 6 0.0000 0.0000 0.0000 0.0000 0.0000 -280.9623
#
#
#
# Elastic Compliance Matrix: (Units=1/GPa)
#
#
# Indices 1 2 3 4 5 6 
#
# 1 0.025319 -0.009870 -0.008728 0.000000 0.000000 0.000000
# 2 -0.009870 0.014812 -0.006512 0.000000 0.000000 0.000000
# 3 -0.008728 -0.006512 0.028869 0.000000 0.000000 0.000000
# 4 0.000000 0.000000 0.000000 0.041078 0.000000 0.000000
# 5 0.000000 0.000000 0.000000 0.000000 0.101247 0.000000
# 6 0.000000 0.000000 0.000000 0.000000 0.000000 -0.003559
#
#
# Mechanical properties :
#
#
# Convention : Reuss Voigt Hill
#
# Bulk Modulus (GPa) = 53.24726 68.46688 60.85707
# Shear Modulus (GPa) = 18.92184 -41.79777 -11.43797
#
# Velocity S-wave (km/s) = 3.14965 -4.68120 -2.44881
# Velocity P-wave (km/s) = 6.41431 2.58408 4.88983
#
# Compressibility (1/GPa) = 0.01878031
#
# Stress axis : x y z
#
# Youngs Moduli (GPa) = 39.49638 67.51061 34.63961
#
# Poissons Ratio (x) = 0.66635 0.30233
# Poissons Ratio (y) = 0.38984 0.22556
# Poissons Ratio (z) = 0.34472 0.43961
#
# Static dielectric constant tensor:
#      x y z
#    x 1.684480 0.000000 0.000000 
#    y 0.000000 1.651840 0.000000 
#    z 0.000000 0.000000 1.685600 
# 
# From -- ./inp_files/59630.got.cif
#   From: 2010.05.17/outbox.cif.g08.bks.cpg/sg70_30_cif.got.tgz:59630.got - 2010.06.03 15:57:51.
