data_PCOD9515339
_publ_section_title
;
Structure prediction by ZEFSAII (Michael W. Deem and Ramdas Pophale) SiO2 
 PCOD9515339
Probable space group: F D D D
;
_chemical_formula_sum "Si O2"
_cell_formula_units_Z 176
_cell_length_a 11.335593
_cell_length_b 33.531280
_cell_length_c 24.431859
_cell_angle_alpha 90.000000
_cell_angle_beta 90.000000
_cell_angle_gamma 90.000000
_cell_volume 9286.474914
_symmetry_space_group_name_H-M "F D D D"
_symmetry_group_IT_number 70
_space_group.IT_coordinate_system_code '2'
_symmetry_cell_setting 'orthorhombic'
loop_
_space_group_symop_operation_xyz
x,y,z
1/4-x,1/4-y,z
x,1/4-y,1/4-z
1/4-x,y,1/4-z
-x,-y,-z
3/4+x,3/4+y,-z
-x,3/4+y,3/4+z
3/4+x,-y,3/4+z
x,1/2+y,1/2+z
1/4-x,3/4-y,1/2+z
x,3/4-y,3/4-z
1/4-x,1/2+y,3/4-z
-x,1/2-y,1/2-z
3/4+x,1/4+y,1/2-z
-x,1/4+y,1/4+z
3/4+x,1/2-y,1/4+z
1/2+x,y,1/2+z
3/4-x,1/4-y,1/2+z
1/2+x,1/4-y,3/4-z
3/4-x,y,3/4-z
1/2-x,-y,1/2-z
1/4+x,3/4+y,1/2-z
1/2-x,3/4+y,1/4+z
1/4+x,-y,1/4+z
1/2+x,1/2+y,z
3/4-x,3/4-y,z
1/2+x,3/4-y,1/4-z
3/4-x,1/2+y,1/4-z
1/2-x,1/2-y,-z
1/4+x,1/4+y,-z
1/2-x,1/4+y,3/4+z
1/4+x,1/2-y,3/4+z
loop_
_atom_site_type_symbol
_atom_site_label
_atom_site_fract_x
_atom_site_fract_y
_atom_site_fract_z
Si Si1 0.919737 0.080511 0.521203
Si Si2 0.069919 0.056248 0.694944
Si Si3 0.188495 0.166061 0.913392
Si Si4 0.055884 0.410954 0.704983
Si Si5 0.062218 0.875000 0.375000
Si Si6 0.956661 0.215080 0.925327
O O1 0.950705 0.116840 0.480468
O O2 0.868831 0.101235 0.576746
O O3 0.844462 0.050533 0.483663
O O4 0.042014 0.061773 0.542401
O O5 0.004970 0.059881 0.752661
O O6 0.016235 0.092054 0.657808
O O7 0.045635 0.012695 0.672104
O O8 0.125000 0.125000 0.929858
O O9 0.236897 0.161896 0.851842
O O10 0.307193 0.171829 0.947785
O O11 0.088738 0.199235 0.918140
O O12 0.875000 0.199340 0.875000
#
# Coordination Sequence:
#
# PCOD9515339 Si02
#       6
#    32  32  32  32  16  32
#     4  11  20  37  60  89 121 158 207 253 317 370
#     4  11  22  37  59  88 122 158 208 252 312 375
#     4  11  21  38  59  87 119 152 203 252 321 372
#     4  10  21  37  62  83 114 161 200 251 307 384
#     4  10  21  38  60  83 120 171 202 246 305 388
#     4  12  24  36  59  93 125 154 199 267 316 366
#
# _framework density 18.952294999999999
#
# number of rings (size 3 to 8) (size 9 to 14) (size 15 to 20)
#    0.000    1.091    1.818    8.182    0.000    2.182 
#    0.000    0.000    0.000    8.727    0.000    0.000 
#    0.000    0.000    0.000    0.000    0.000    0.000 
#
# Total GULP energy -245648.798984 kJ/mol
# GULP energy per Si atom -5582.927250 kJ/mol
# Density = 1.890916 g / cm^3
# Si number density = 18.952295 Si / 1000 Ang^3
#
#
#
# Elastic Constant Matrix: (Units=GPa)
#
#
# Indices 1 2 3 4 5 6 
#
# 1 65.1294 20.5277 -7.6193 0.0000 0.0000 0.0000
# 2 20.5277 95.3236 5.3536 0.0000 0.0000 0.0000
# 3 -7.6193 5.3536 51.7277 0.0000 0.0000 0.0000
# 4 0.0000 0.0000 0.0000 20.9039 0.0000 0.0000
# 5 0.0000 0.0000 0.0000 0.0000 25.9859 0.0000
# 6 0.0000 0.0000 0.0000 0.0000 0.0000 26.6939
#
#
#
# Elastic Compliance Matrix: (Units=1/GPa)
#
#
# Indices 1 2 3 4 5 6 
#
# 1 0.016888 -0.003799 0.002881 0.000000 0.000000 0.000000
# 2 -0.003799 0.011406 -0.001740 0.000000 0.000000 0.000000
# 3 0.002881 -0.001740 0.019936 0.000000 0.000000 0.000000
# 4 0.000000 0.000000 0.000000 0.047838 0.000000 0.000000
# 5 0.000000 0.000000 0.000000 0.000000 0.038482 0.000000
# 6 0.000000 0.000000 0.000000 0.000000 0.000000 0.037462
#
#
# Mechanical properties :
#
#
# Convention : Reuss Voigt Hill
#
# Bulk Modulus (GPa) = 23.30179 27.63386 25.46783
# Shear Modulus (GPa) = 26.09138 27.64465 26.86802
#
# Velocity S-wave (km/s) = 3.71440 3.82336 3.76927
# Velocity P-wave (km/s) = 5.54232 5.83980 5.69300
#
# Compressibility (1/GPa) = 0.04291515
#
# Stress axis : x y z
#
# Youngs Moduli (GPa) = 59.21252 87.67062 50.15950
#
# Poissons Ratio (x) = 0.33303 -0.14450
# Poissons Ratio (y) = 0.22493 0.08728
# Poissons Ratio (z) = -0.17057 0.15255
#
# Static dielectric constant tensor:
#      x y z
#    x 1.764780 0.000000 0.000000 
#    y 0.000000 1.663090 0.000000 
#    z 0.000000 0.000000 1.714560 
# 
# From -- ./inp_files/19623.got.cif
#   From: 2010.05.17/outbox.cif.g08.bks.cpg/sg70_10_cif.got.tgz:19623.got - 2010.06.03 15:57:51.
