data_PCOD9515708
_publ_section_title
;
Structure prediction by ZEFSAII (Michael W. Deem and Ramdas Pophale) SiO2 
 PCOD9515708
Probable space group: F D D D
;
_chemical_formula_sum "Si O2"
_cell_formula_units_Z 240
_cell_length_a 23.342222
_cell_length_b 22.100849
_cell_length_c 23.743351
_cell_angle_alpha 90.000000
_cell_angle_beta 90.000000
_cell_angle_gamma 90.000000
_cell_volume 12248.789333
_symmetry_space_group_name_H-M "F D D D"
_symmetry_group_IT_number 70
_space_group.IT_coordinate_system_code '2'
_symmetry_cell_setting 'orthorhombic'
loop_
_space_group_symop_operation_xyz
x,y,z
1/4-x,1/4-y,z
x,1/4-y,1/4-z
1/4-x,y,1/4-z
-x,-y,-z
3/4+x,3/4+y,-z
-x,3/4+y,3/4+z
3/4+x,-y,3/4+z
x,1/2+y,1/2+z
1/4-x,3/4-y,1/2+z
x,3/4-y,3/4-z
1/4-x,1/2+y,3/4-z
-x,1/2-y,1/2-z
3/4+x,1/4+y,1/2-z
-x,1/4+y,1/4+z
3/4+x,1/2-y,1/4+z
1/2+x,y,1/2+z
3/4-x,1/4-y,1/2+z
1/2+x,1/4-y,3/4-z
3/4-x,y,3/4-z
1/2-x,-y,1/2-z
1/4+x,3/4+y,1/2-z
1/2-x,3/4+y,1/4+z
1/4+x,-y,1/4+z
1/2+x,1/2+y,z
3/4-x,3/4-y,z
1/2+x,3/4-y,1/4-z
3/4-x,1/2+y,1/4-z
1/2-x,1/2-y,-z
1/4+x,1/4+y,-z
1/2-x,1/4+y,3/4+z
1/4+x,1/2-y,3/4+z
loop_
_atom_site_type_symbol
_atom_site_label
_atom_site_fract_x
_atom_site_fract_y
_atom_site_fract_z
Si Si1 0.708404 0.955889 0.597633
Si Si2 0.202981 0.068796 0.025098
Si Si3 0.837862 0.815403 0.181930
Si Si4 0.220431 0.697002 0.552307
Si Si5 0.636936 0.215465 0.447415
Si Si6 0.397340 0.155512 0.685936
Si Si7 0.125000 0.346562 0.625000
Si Si8 0.585704 0.452180 0.740449
O O1 0.768657 0.934632 0.570923
O O2 0.673165 0.895068 0.606267
O O3 0.683033 0.008478 0.557419
O O4 0.712682 0.996249 0.655538
O O5 0.196097 0.128915 0.062506
O O6 0.164245 0.075285 0.970502
O O7 0.268664 0.059251 0.006110
O O8 0.875000 0.875000 0.194671
O O9 0.849883 0.798588 0.116904
O O10 0.852891 0.762935 0.226807
O O11 0.189818 0.710802 0.492205
O O12 0.287675 0.680005 0.555690
O O13 0.612427 0.283869 0.444902
O O14 0.393806 0.125000 0.625000
O O15 0.383180 0.104659 0.730629
O O16 0.149835 0.305073 0.675103
#
# Coordination Sequence:
#
# PCOD9515708 Si02
#       8
#    32  32  32  32  32  32  16  32
#     4  11  22  40  60  92 127 166 204 243 302 359
#     4  10  22  37  59  88 130 163 198 242 295 367
#     4  11  24  41  64  89 120 159 207 261 307 358
#     4  11  20  33  56  89 128 166 197 230 284 367
#     4  12  22  34  58  94 120 163 207 241 293 353
#     4  11  19  36  58  86 125 171 199 236 294 360
#     4  12  26  40  66  88 120 162 208 260 304 366
#     4  10  23  43  61  87 120 161 201 251 313 365
#
# _framework density 19.593772999999999
#
# number of rings (size 3 to 8) (size 9 to 14) (size 15 to 20)
#    0.000    1.067    2.667    6.000    5.600    0.000 
#    0.000    4.333    0.000    0.000    0.000    0.000 
#    0.000    0.000    0.000    0.000    0.000    0.000 
#
# Total GULP energy -334408.563385 kJ/mol
# GULP energy per Si atom -5573.476056 kJ/mol
# Density = 1.954918 g / cm^3
# Si number density = 19.593773 Si / 1000 Ang^3
#
#
#
# Elastic Constant Matrix: (Units=GPa)
#
#
# Indices 1 2 3 4 5 6 
#
# 1 28.1929 31.0121 13.6976 0.0000 0.0000 0.0000
# 2 31.0121 106.0254 51.9014 0.0000 0.0000 0.0000
# 3 13.6976 51.9014 118.7689 0.0000 0.0000 0.0000
# 4 0.0000 0.0000 0.0000 32.1799 0.0000 0.0000
# 5 0.0000 0.0000 0.0000 0.0000 18.9499 0.0000
# 6 0.0000 0.0000 0.0000 0.0000 0.0000 29.9885
#
#
#
# Elastic Compliance Matrix: (Units=1/GPa)
#
#
# Indices 1 2 3 4 5 6 
#
# 1 0.052360 -0.015723 0.000832 0.000000 0.000000 0.000000
# 2 -0.015723 0.016719 -0.005493 0.000000 0.000000 0.000000
# 3 0.000832 -0.005493 0.010724 0.000000 0.000000 0.000000
# 4 0.000000 0.000000 0.000000 0.031075 0.000000 0.000000
# 5 0.000000 0.000000 0.000000 0.000000 0.052771 0.000000
# 6 0.000000 0.000000 0.000000 0.000000 0.000000 0.033346
#
#
# Mechanical properties :
#
#
# Convention : Reuss Voigt Hill
#
# Bulk Modulus (GPa) = 25.61683 49.57882 37.59783
# Shear Modulus (GPa) = 19.93813 26.64872 23.29343
#
# Velocity S-wave (km/s) = 3.19341 3.69190 3.45166
# Velocity P-wave (km/s) = 5.16715 6.59786 5.92584
#
# Compressibility (1/GPa) = 0.03903683
#
# Stress axis : x y z
#
# Youngs Moduli (GPa) = 19.09840 59.81065 93.24716
#
# Poissons Ratio (x) = 0.94037 -0.07758
# Poissons Ratio (y) = 0.30027 0.51221
# Poissons Ratio (z) = -0.01589 0.32854
#
# Static dielectric constant tensor:
#      x y z
#    x 1.738420 0.000000 0.000000 
#    y 0.000000 1.735810 0.000000 
#    z 0.000000 0.000000 1.734000 
# 
# From -- ./inp_files/47194.got.cif
#   From: 2010.05.17/outbox.cif.g08.bks.cpg/sg70_24_cif.got.tgz:47194.got - 2010.06.03 15:57:51.
