data_PCOD9515395
_publ_section_title
;
Structure prediction by ZEFSAII (Michael W. Deem and Ramdas Pophale) SiO2 
 PCOD9515395
Probable space group: F D D D
;
_chemical_formula_sum "Si O2"
_cell_formula_units_Z 136
_cell_length_a 8.630491
_cell_length_b 20.121638
_cell_length_c 28.151109
_cell_angle_alpha 90.000000
_cell_angle_beta 90.000000
_cell_angle_gamma 90.000000
_cell_volume 4888.710769
_symmetry_space_group_name_H-M "F D D D"
_symmetry_group_IT_number 70
_space_group.IT_coordinate_system_code '2'
_symmetry_cell_setting 'orthorhombic'
loop_
_space_group_symop_operation_xyz
x,y,z
1/4-x,1/4-y,z
x,1/4-y,1/4-z
1/4-x,y,1/4-z
-x,-y,-z
3/4+x,3/4+y,-z
-x,3/4+y,3/4+z
3/4+x,-y,3/4+z
x,1/2+y,1/2+z
1/4-x,3/4-y,1/2+z
x,3/4-y,3/4-z
1/4-x,1/2+y,3/4-z
-x,1/2-y,1/2-z
3/4+x,1/4+y,1/2-z
-x,1/4+y,1/4+z
3/4+x,1/2-y,1/4+z
1/2+x,y,1/2+z
3/4-x,1/4-y,1/2+z
1/2+x,1/4-y,3/4-z
3/4-x,y,3/4-z
1/2-x,-y,1/2-z
1/4+x,3/4+y,1/2-z
1/2-x,3/4+y,1/4+z
1/4+x,-y,1/4+z
1/2+x,1/2+y,z
3/4-x,3/4-y,z
1/2+x,3/4-y,1/4-z
3/4-x,1/2+y,1/4-z
1/2-x,1/2-y,-z
1/4+x,1/4+y,-z
1/2-x,1/4+y,3/4+z
1/4+x,1/2-y,3/4+z
loop_
_atom_site_type_symbol
_atom_site_label
_atom_site_fract_x
_atom_site_fract_y
_atom_site_fract_z
Si Si1 0.460300 0.241688 0.805374
Si Si2 0.984682 0.574517 0.978078
Si Si3 0.375000 0.375000 0.375000
Si Si4 0.598876 0.376327 0.936293
Si Si5 0.358166 0.976731 0.102035
O O1 0.500000 0.250000 0.750000
O O2 0.467843 0.319268 0.821802
O O3 0.581485 0.211015 0.842964
O O4 0.297374 0.210402 0.820846
O O5 0.125000 0.625000 0.989618
O O6 0.998702 0.559946 0.922382
O O7 0.000000 0.500000 0.000000
O O8 0.847757 0.608105 0.007744
O O9 0.491186 0.408619 0.335652
O O10 0.613226 0.305064 0.911174
#
# Coordination Sequence:
#
# PCOD9515395 Si02
#       5
#    32  32   8  32  32
#     4  11  22  38  63  91 128 171 220 267 331 408
#     4  10  21  38  63  92 128 172 217 272 343 406
#     4  12  20  32  66  92 128 156 232 278 332 392
#     4  11  21  37  63  94 126 166 217 279 331 402
#     4  10  22  40  62  92 127 171 214 276 336 403
#
# _framework density 27.819195000000001
#
# number of rings (size 3 to 8) (size 9 to 14) (size 15 to 20)
#    0.000    1.412    3.529    2.118    0.000    1.882 
#    0.000    2.353    0.000   31.059    0.000    0.000 
#    0.000    0.000    0.000    0.000    0.000    0.000 
#
# Total GULP energy -189271.125134 kJ/mol
# GULP energy per Si atom -5566.797798 kJ/mol
# Density = 2.775588 g / cm^3
# Si number density = 27.819195 Si / 1000 Ang^3
#
#
#
# Elastic Constant Matrix: (Units=GPa)
#
#
# Indices 1 2 3 4 5 6 
#
# 1 51.1123 24.7425 31.2974 0.0000 0.0000 0.0000
# 2 24.7425 125.6991 -0.1268 0.0000 0.0000 0.0000
# 3 31.2974 -0.1268 274.4441 0.0000 0.0000 0.0000
# 4 0.0000 0.0000 0.0000 12.4750 0.0000 0.0000
# 5 0.0000 0.0000 0.0000 0.0000 31.1811 0.0000
# 6 0.0000 0.0000 0.0000 0.0000 0.0000 44.0757
#
#
#
# Elastic Compliance Matrix: (Units=1/GPa)
#
#
# Indices 1 2 3 4 5 6 
#
# 1 0.023437 -0.004616 -0.002675 0.000000 0.000000 0.000000
# 2 -0.004616 0.008865 0.000531 0.000000 0.000000 0.000000
# 3 -0.002675 0.000531 0.003949 0.000000 0.000000 0.000000
# 4 0.000000 0.000000 0.000000 0.080160 0.000000 0.000000
# 5 0.000000 0.000000 0.000000 0.000000 0.032071 0.000000
# 6 0.000000 0.000000 0.000000 0.000000 0.000000 0.022688
#
#
# Mechanical properties :
#
#
# Convention : Reuss Voigt Hill
#
# Bulk Modulus (GPa) = 43.99473 62.56463 53.27968
# Shear Modulus (GPa) = 26.00542 43.90254 34.95398
#
# Velocity S-wave (km/s) = 3.06077 3.97689 3.54852
# Velocity P-wave (km/s) = 5.32353 6.60500 5.99858
#
# Compressibility (1/GPa) = 0.02273000
#
# Stress axis : x y z
#
# Youngs Moduli (GPa) = 42.66723 112.80748 253.22751
#
# Poissons Ratio (x) = 0.52072 0.67736
# Poissons Ratio (y) = 0.19695 -0.13434
# Poissons Ratio (z) = 0.11413 -0.05985
#
# Static dielectric constant tensor:
#      x y z
#    x 2.574820 0.000000 0.000000 
#    y 0.000000 2.285090 0.000000 
#    z 0.000000 0.000000 2.383240 
# 
# From -- ./inp_files/17865.got.cif
#   From: 2010.05.17/outbox.cif.g08.bks.cpg/sg70_9_cif.got.tgz:17865.got - 2010.06.03 15:57:51.
