data_PCOD9515684
_publ_section_title
;
Structure prediction by ZEFSAII (Michael W. Deem and Ramdas Pophale) SiO2 
 PCOD9515684
Probable space group: F D D D
;
_chemical_formula_sum "Si O2"
_cell_formula_units_Z 96
_cell_length_a 18.698123
_cell_length_b 7.560221
_cell_length_c 29.070606
_cell_angle_alpha 90.000000
_cell_angle_beta 90.000000
_cell_angle_gamma 90.000000
_cell_volume 4109.477324
_symmetry_space_group_name_H-M "F D D D"
_symmetry_group_IT_number 70
_space_group.IT_coordinate_system_code '2'
_symmetry_cell_setting 'orthorhombic'
loop_
_space_group_symop_operation_xyz
x,y,z
1/4-x,1/4-y,z
x,1/4-y,1/4-z
1/4-x,y,1/4-z
-x,-y,-z
3/4+x,3/4+y,-z
-x,3/4+y,3/4+z
3/4+x,-y,3/4+z
x,1/2+y,1/2+z
1/4-x,3/4-y,1/2+z
x,3/4-y,3/4-z
1/4-x,1/2+y,3/4-z
-x,1/2-y,1/2-z
3/4+x,1/4+y,1/2-z
-x,1/4+y,1/4+z
3/4+x,1/2-y,1/4+z
1/2+x,y,1/2+z
3/4-x,1/4-y,1/2+z
1/2+x,1/4-y,3/4-z
3/4-x,y,3/4-z
1/2-x,-y,1/2-z
1/4+x,3/4+y,1/2-z
1/2-x,3/4+y,1/4+z
1/4+x,-y,1/4+z
1/2+x,1/2+y,z
3/4-x,3/4-y,z
1/2+x,3/4-y,1/4-z
3/4-x,1/2+y,1/4-z
1/2-x,1/2-y,-z
1/4+x,1/4+y,-z
1/2-x,1/4+y,3/4+z
1/4+x,1/2-y,3/4+z
loop_
_atom_site_type_symbol
_atom_site_label
_atom_site_fract_x
_atom_site_fract_y
_atom_site_fract_z
Si Si1 0.375000 0.096313 0.375000
Si Si2 0.449684 0.109319 0.465824
Si Si3 0.741239 0.955361 0.330571
Si Si4 0.375000 0.375000 0.523662
O O1 0.421490 0.018582 0.418325
O O2 0.435293 0.211009 0.349154
O O3 0.490977 0.286741 0.450370
O O4 0.384466 0.196034 0.494359
O O5 0.500000 0.000000 0.500000
O O6 0.701346 0.875000 0.375000
O O7 0.694428 0.098205 0.304714
#
# Coordination Sequence:
#
# PCOD9515684 Si02
#       4
#    16  32  32  16
#     4  10  21  48  73  94 147 205 236 293 384 445
#     4  11  23  41  72 104 137 187 248 301 367 444
#     4  10  22  44  70  96 140 194 235 295 373 437
#     4  12  24  41  70 100 142 182 246 307 356 442
#
# _framework density 23.360636
#
# number of rings (size 3 to 8) (size 9 to 14) (size 15 to 20)
#    0.000    1.333    3.333    4.500    0.000    6.667 
#    0.000    1.667    0.000    0.000    0.000    0.000 
#    0.000    0.000    0.000    0.000    0.000    0.000 
#
# Total GULP energy -133949.382704 kJ/mol
# GULP energy per Si atom -5581.224279 kJ/mol
# Density = 2.330747 g / cm^3
# Si number density = 23.360636 Si / 1000 Ang^3
#
#
#
# Elastic Constant Matrix: (Units=GPa)
#
#
# Indices 1 2 3 4 5 6 
#
# 1 99.5926 38.5909 74.1136 0.0000 0.0000 0.0000
# 2 38.5909 68.4459 43.4118 0.0000 0.0000 0.0000
# 3 74.1136 43.4118 172.3374 0.0000 0.0000 0.0000
# 4 0.0000 0.0000 0.0000 37.7739 0.0000 0.0000
# 5 0.0000 0.0000 0.0000 0.0000 45.4574 0.0000
# 6 0.0000 0.0000 0.0000 0.0000 0.0000 52.3320
#
#
#
# Elastic Compliance Matrix: (Units=1/GPa)
#
#
# Indices 1 2 3 4 5 6 
#
# 1 0.016442 -0.005696 -0.005636 0.000000 0.000000 0.000000
# 2 -0.005696 0.019361 -0.002428 0.000000 0.000000 0.000000
# 3 -0.005636 -0.002428 0.008838 0.000000 0.000000 0.000000
# 4 0.000000 0.000000 0.000000 0.026473 0.000000 0.000000
# 5 0.000000 0.000000 0.000000 0.000000 0.021999 0.000000
# 6 0.000000 0.000000 0.000000 0.000000 0.000000 0.019109
#
#
# Mechanical properties :
#
#
# Convention : Reuss Voigt Hill
#
# Bulk Modulus (GPa) = 58.40359 72.51207 65.45783
# Shear Modulus (GPa) = 34.37647 39.39664 36.88655
#
# Velocity S-wave (km/s) = 3.84025 4.11110 3.97798
# Velocity P-wave (km/s) = 6.68719 7.32411 7.01288
#
# Compressibility (1/GPa) = 0.01712224
#
# Stress axis : x y z
#
# Youngs Moduli (GPa) = 60.81918 51.65001 113.14828
#
# Poissons Ratio (x) = 0.29418 0.63773
# Poissons Ratio (y) = 0.34640 0.27469
# Poissons Ratio (z) = 0.34279 0.12539
#
# Static dielectric constant tensor:
#      x y z
#    x 1.860180 0.000000 0.000000 
#    y 0.000000 1.923790 0.000000 
#    z 0.000000 0.000000 2.026890 
# 
# From -- ./inp_files/8130.got.cif
#   From: 2010.05.17/outbox.cif.g08.bks.cpg/sg70_5_cif.got.tgz:8130.got - 2010.06.03 15:57:51.
