data_PCOD9515136
_publ_section_title
;
Structure prediction by ZEFSAII (Michael W. Deem and Ramdas Pophale) SiO2 
 PCOD9515136
Probable space group: F D D D
;
_chemical_formula_sum "Si O2"
_cell_formula_units_Z 176
_cell_length_a 21.713139
_cell_length_b 32.137143
_cell_length_c 12.358130
_cell_angle_alpha 90.000000
_cell_angle_beta 90.000000
_cell_angle_gamma 90.000000
_cell_volume 8623.481525
_symmetry_space_group_name_H-M "F D D D"
_symmetry_group_IT_number 70
_space_group.IT_coordinate_system_code '2'
_symmetry_cell_setting 'orthorhombic'
loop_
_space_group_symop_operation_xyz
x,y,z
1/4-x,1/4-y,z
x,1/4-y,1/4-z
1/4-x,y,1/4-z
-x,-y,-z
3/4+x,3/4+y,-z
-x,3/4+y,3/4+z
3/4+x,-y,3/4+z
x,1/2+y,1/2+z
1/4-x,3/4-y,1/2+z
x,3/4-y,3/4-z
1/4-x,1/2+y,3/4-z
-x,1/2-y,1/2-z
3/4+x,1/4+y,1/2-z
-x,1/4+y,1/4+z
3/4+x,1/2-y,1/4+z
1/2+x,y,1/2+z
3/4-x,1/4-y,1/2+z
1/2+x,1/4-y,3/4-z
3/4-x,y,3/4-z
1/2-x,-y,1/2-z
1/4+x,3/4+y,1/2-z
1/2-x,3/4+y,1/4+z
1/4+x,-y,1/4+z
1/2+x,1/2+y,z
3/4-x,3/4-y,z
1/2+x,3/4-y,1/4-z
3/4-x,1/2+y,1/4-z
1/2-x,1/2-y,-z
1/4+x,1/4+y,-z
1/2-x,1/4+y,3/4+z
1/4+x,1/2-y,3/4+z
loop_
_atom_site_type_symbol
_atom_site_label
_atom_site_fract_x
_atom_site_fract_y
_atom_site_fract_z
Si Si1 0.050776 0.943155 0.616088
Si Si2 0.875000 0.473061 0.375000
Si Si3 0.568829 0.032198 0.205015
Si Si4 0.042223 0.326739 0.876933
Si Si5 0.089613 0.769877 0.832521
Si Si6 0.237561 0.580497 0.571858
O O1 0.125000 0.937794 0.625000
O O2 0.027357 0.934865 0.496870
O O3 0.018546 0.914873 0.704867
O O4 0.039065 0.990717 0.651164
O O5 0.839328 0.500224 0.285999
O O6 0.826037 0.444257 0.436049
O O7 0.625000 0.043503 0.125000
O O8 0.516474 0.067094 0.201977
O O9 0.589218 0.015607 0.323181
O O10 0.060173 0.375000 0.875000
O O11 0.098645 0.297267 0.908926
O O12 0.033987 0.801202 0.859540
O O13 0.228934 0.625000 0.625000
#
# Coordination Sequence:
#
# PCOD9515136 Si02
#       6
#    32  16  32  32  32  32
#     4  10  20  40  70  94 118 171 222 262 321 393
#     4  12  27  42  68  94 136 184 220 256 328 414
#     4  10  21  39  67  90 128 169 219 260 326 401
#     4  12  24  39  65 103 128 163 216 286 339 364
#     4  11  23  43  67  95 126 175 223 263 318 400
#     4  11  24  43  65  97 136 173 219 274 332 387
#
# _framework density 20.409389999999998
#
# number of rings (size 3 to 8) (size 9 to 14) (size 15 to 20)
#    0.000    1.091    5.455    4.091    2.545    3.273 
#    0.000    0.000    0.000    0.000    0.000    0.000 
#    0.000    0.000    0.000    0.000    0.000    0.000 
#
# Total GULP energy -245917.688934 kJ/mol
# GULP energy per Si atom -5589.038385 kJ/mol
# Density = 2.036294 g / cm^3
# Si number density = 20.409390 Si / 1000 Ang^3
#
#
#
# Elastic Constant Matrix: (Units=GPa)
#
#
# Indices 1 2 3 4 5 6 
#
# 1 50.7126 13.7699 -16.8660 0.0000 0.0000 0.0000
# 2 13.7699 44.4585 18.5751 0.0000 0.0000 0.0000
# 3 -16.8660 18.5751 67.0892 0.0000 0.0000 0.0000
# 4 0.0000 0.0000 0.0000 11.0695 0.0000 0.0000
# 5 0.0000 0.0000 0.0000 0.0000 18.5998 0.0000
# 6 0.0000 0.0000 0.0000 0.0000 0.0000 0.6807
#
#
#
# Elastic Compliance Matrix: (Units=1/GPa)
#
#
# Indices 1 2 3 4 5 6 
#
# 1 0.026438 -0.012400 0.010080 0.000000 0.000000 0.000000
# 2 -0.012400 0.031251 -0.011770 0.000000 0.000000 0.000000
# 3 0.010080 -0.011770 0.020698 0.000000 0.000000 0.000000
# 4 0.000000 0.000000 0.000000 0.090338 0.000000 0.000000
# 5 0.000000 0.000000 0.000000 0.000000 0.053764 0.000000
# 6 0.000000 0.000000 0.000000 0.000000 0.000000 1.469107
#
#
# Mechanical properties :
#
#
# Convention : Reuss Voigt Hill
#
# Bulk Modulus (GPa) = 19.91745 21.46871 20.69308
# Shear Modulus (GPa) = 2.87933 15.85542 9.36738
#
# Velocity S-wave (km/s) = 1.18905 2.79026 2.14469
# Velocity P-wave (km/s) = 3.41545 4.57412 4.03658
#
# Compressibility (1/GPa) = 0.05020722
#
# Stress axis : x y z
#
# Youngs Moduli (GPa) = 37.82412 31.99900 48.31333
#
# Poissons Ratio (x) = 0.39678 -0.48698
# Poissons Ratio (y) = 0.46902 0.56864
# Poissons Ratio (z) = -0.38125 0.37662
#
# Static dielectric constant tensor:
#      x y z
#    x 1.751840 0.000000 0.000000 
#    y 0.000000 1.711720 0.000000 
#    z 0.000000 0.000000 1.736710 
# 
# From -- ./inp_files/19640.got.cif
#   From: 2010.05.17/outbox.cif.g08.bks.cpg/sg70_10_cif.got.tgz:19640.got - 2010.06.03 15:57:51.
