data_PCOD9515114
_publ_section_title
;
Structure prediction by ZEFSAII (Michael W. Deem and Ramdas Pophale) SiO2 
 PCOD9515114
Probable space group: F D D D
;
_chemical_formula_sum "Si O2"
_cell_formula_units_Z 192
_cell_length_a 22.276841
_cell_length_b 14.458810
_cell_length_c 30.577999
_cell_angle_alpha 90.000000
_cell_angle_beta 90.000000
_cell_angle_gamma 90.000000
_cell_volume 9849.069862
_symmetry_space_group_name_H-M "F D D D"
_symmetry_group_IT_number 70
_space_group.IT_coordinate_system_code '2'
_symmetry_cell_setting 'orthorhombic'
loop_
_space_group_symop_operation_xyz
x,y,z
1/4-x,1/4-y,z
x,1/4-y,1/4-z
1/4-x,y,1/4-z
-x,-y,-z
3/4+x,3/4+y,-z
-x,3/4+y,3/4+z
3/4+x,-y,3/4+z
x,1/2+y,1/2+z
1/4-x,3/4-y,1/2+z
x,3/4-y,3/4-z
1/4-x,1/2+y,3/4-z
-x,1/2-y,1/2-z
3/4+x,1/4+y,1/2-z
-x,1/4+y,1/4+z
3/4+x,1/2-y,1/4+z
1/2+x,y,1/2+z
3/4-x,1/4-y,1/2+z
1/2+x,1/4-y,3/4-z
3/4-x,y,3/4-z
1/2-x,-y,1/2-z
1/4+x,3/4+y,1/2-z
1/2-x,3/4+y,1/4+z
1/4+x,-y,1/4+z
1/2+x,1/2+y,z
3/4-x,3/4-y,z
1/2+x,3/4-y,1/4-z
3/4-x,1/2+y,1/4-z
1/2-x,1/2-y,-z
1/4+x,1/4+y,-z
1/2-x,1/4+y,3/4+z
1/4+x,1/2-y,3/4+z
loop_
_atom_site_type_symbol
_atom_site_label
_atom_site_fract_x
_atom_site_fract_y
_atom_site_fract_z
Si Si1 0.305960 0.719692 0.529835
Si Si2 0.648747 0.823050 0.673680
Si Si3 0.678805 0.753577 0.762753
Si Si4 0.800024 0.520558 0.445577
Si Si5 0.765088 0.923757 0.639678
Si Si6 0.625000 0.125000 0.916007
Si Si7 0.125000 0.625000 0.515922
O O1 0.250000 0.750000 0.500000
O O2 0.317347 0.612512 0.523174
O O3 0.293340 0.750776 0.578751
O O4 0.358251 0.787499 0.513269
O O5 0.625000 0.795131 0.625000
O O6 0.654679 0.749039 0.712978
O O7 0.603575 0.903836 0.691439
O O8 0.715591 0.864232 0.665872
O O9 0.746023 0.711805 0.769874
O O10 0.637752 0.708043 0.800095
O O11 0.769939 0.525217 0.398574
O O12 0.823508 0.417573 0.454289
O O13 0.817205 0.865778 0.615420
#
# Coordination Sequence:
#
# PCOD9515114 Si02
#       7
#    32  32  32  32  32  16  16
#     4  12  21  36  62  92 128 165 209 272 338 401
#     4  10  20  40  65  92 127 165 217 275 325 389
#     4  11  22  42  62  92 129 174 220 266 339 397
#     4  10  21  34  58  91 129 161 205 263 334 403
#     4  10  21  40  56  93 127 169 208 270 333 394
#     4  10  25  42  63  87 132 183 217 268 315 404
#     4  12  19  34  59  93 120 163 200 260 336 398
#
# _framework density 19.494228
#
# number of rings (size 3 to 8) (size 9 to 14) (size 15 to 20)
#    0.000    1.333    5.000    0.500    0.000    2.667 
#    6.000    7.917    0.000    0.000    0.000    0.000 
#    0.000    0.000    0.000    0.000    0.000    0.000 
#
# Total GULP energy -267621.012525 kJ/mol
# GULP energy per Si atom -5575.437761 kJ/mol
# Density = 1.944986 g / cm^3
# Si number density = 19.494228 Si / 1000 Ang^3
#
#
#
# Elastic Constant Matrix: (Units=GPa)
#
#
# Indices 1 2 3 4 5 6 
#
# 1 91.7099 36.8376 52.8823 0.0000 0.0000 0.0000
# 2 36.8376 59.6034 26.4144 0.0000 0.0000 0.0000
# 3 52.8823 26.4144 112.6705 0.0000 0.0000 0.0000
# 4 0.0000 0.0000 0.0000 36.6511 0.0000 0.0000
# 5 0.0000 0.0000 0.0000 0.0000 27.1909 0.0000
# 6 0.0000 0.0000 0.0000 0.0000 0.0000 28.8325
#
#
#
# Elastic Compliance Matrix: (Units=1/GPa)
#
#
# Indices 1 2 3 4 5 6 
#
# 1 0.017951 -0.008214 -0.006500 0.000000 0.000000 0.000000
# 2 -0.008214 0.022481 -0.001415 0.000000 0.000000 0.000000
# 3 -0.006500 -0.001415 0.012258 0.000000 0.000000 0.000000
# 4 0.000000 0.000000 0.000000 0.027284 0.000000 0.000000
# 5 0.000000 0.000000 0.000000 0.000000 0.036777 0.000000
# 6 0.000000 0.000000 0.000000 0.000000 0.000000 0.034683
#
#
# Mechanical properties :
#
#
# Convention : Reuss Voigt Hill
#
# Bulk Modulus (GPa) = 48.94198 55.13916 52.04057
# Shear Modulus (GPa) = 26.24612 28.39154 27.31883
#
# Velocity S-wave (km/s) = 3.67325 3.82043 3.74756
# Velocity P-wave (km/s) = 6.56892 6.91427 6.74381
#
# Compressibility (1/GPa) = 0.02043236
#
# Stress axis : x y z
#
# Youngs Moduli (GPa) = 55.70608 44.48103 81.58000
#
# Poissons Ratio (x) = 0.36538 0.53025
# Poissons Ratio (y) = 0.45758 0.11545
# Poissons Ratio (z) = 0.36208 0.06295
#
# Static dielectric constant tensor:
#      x y z
#    x 1.780790 0.000000 0.000000 
#    y 0.000000 1.653830 0.000000 
#    z 0.000000 0.000000 1.711790 
# 
# From -- ./inp_files/55121.got.cif
#   From: 2010.05.17/outbox.cif.g08.bks.cpg/sg70_28_cif.got.tgz:55121.got - 2010.06.03 15:57:51.
