data_PCOD9515045
_publ_section_title
;
Structure prediction by ZEFSAII (Michael W. Deem and Ramdas Pophale) SiO2 
 PCOD9515045
Probable space group: F D D D
;
_chemical_formula_sum "Si O2"
_cell_formula_units_Z 160
_cell_length_a 18.592142
_cell_length_b 19.910871
_cell_length_c 19.194479
_cell_angle_alpha 90.000000
_cell_angle_beta 90.000000
_cell_angle_gamma 90.000000
_cell_volume 7105.522431
_symmetry_space_group_name_H-M "F D D D"
_symmetry_group_IT_number 70
_space_group.IT_coordinate_system_code '2'
_symmetry_cell_setting 'orthorhombic'
loop_
_space_group_symop_operation_xyz
x,y,z
1/4-x,1/4-y,z
x,1/4-y,1/4-z
1/4-x,y,1/4-z
-x,-y,-z
3/4+x,3/4+y,-z
-x,3/4+y,3/4+z
3/4+x,-y,3/4+z
x,1/2+y,1/2+z
1/4-x,3/4-y,1/2+z
x,3/4-y,3/4-z
1/4-x,1/2+y,3/4-z
-x,1/2-y,1/2-z
3/4+x,1/4+y,1/2-z
-x,1/4+y,1/4+z
3/4+x,1/2-y,1/4+z
1/2+x,y,1/2+z
3/4-x,1/4-y,1/2+z
1/2+x,1/4-y,3/4-z
3/4-x,y,3/4-z
1/2-x,-y,1/2-z
1/4+x,3/4+y,1/2-z
1/2-x,3/4+y,1/4+z
1/4+x,-y,1/4+z
1/2+x,1/2+y,z
3/4-x,3/4-y,z
1/2+x,3/4-y,1/4-z
3/4-x,1/2+y,1/4-z
1/2-x,1/2-y,-z
1/4+x,1/4+y,-z
1/2-x,1/4+y,3/4+z
1/4+x,1/2-y,3/4+z
loop_
_atom_site_type_symbol
_atom_site_label
_atom_site_fract_x
_atom_site_fract_y
_atom_site_fract_z
Si Si1 0.426658 0.283932 0.231070
Si Si2 0.969728 0.813349 0.502827
Si Si3 0.105324 0.799522 0.405315
Si Si4 0.125000 0.518453 0.625000
Si Si5 0.125000 0.125000 0.012007
Si Si6 0.231395 0.040454 0.333193
O O1 0.500000 0.250000 0.250000
O O2 0.349900 0.268607 0.267629
O O3 0.445416 0.359724 0.252897
O O4 0.414559 0.257926 0.151813
O O5 0.976114 0.807702 0.585505
O O6 0.042387 0.798591 0.462399
O O7 0.106536 0.875000 0.375000
O O8 0.184988 0.777513 0.428830
O O9 0.155495 0.568085 0.564737
O O10 0.184014 0.475882 0.667291
O O11 0.189174 0.155203 0.964058
#
# Coordination Sequence:
#
# PCOD9515045 Si02
#       6
#    32  32  32  16  16  32
#     4  10  20  39  61  95 134 176 231 288 338 410
#     4  10  22  40  65  94 136 183 226 279 354 412
#     4  11  22  39  67  98 138 185 228 290 355 413
#     4  11  26  46  76 110 130 188 243 278 360 431
#     4  11  24  46  74 102 149 182 226 302 349 406
#     4  11  24  46  69 102 144 180 231 291 352 421
#
# _framework density 22.517697999999999
#
# number of rings (size 3 to 8) (size 9 to 14) (size 15 to 20)
#    0.000    1.400    2.000    4.200    2.800    0.800 
#    0.000    4.000    0.000    0.000    0.000    0.000 
#    0.000    0.000    0.000    0.000    0.000    0.000 
#
# Total GULP energy -222765.512467 kJ/mol
# GULP energy per Si atom -5569.137812 kJ/mol
# Density = 2.246645 g / cm^3
# Si number density = 22.517698 Si / 1000 Ang^3
#
#
#
# Elastic Constant Matrix: (Units=GPa)
#
#
# Indices 1 2 3 4 5 6 
#
# 1 160.3054 57.0934 64.6817 0.0000 0.0000 0.0000
# 2 57.0934 50.6740 16.9639 0.0000 0.0000 0.0000
# 3 64.6817 16.9639 71.8486 0.0000 0.0000 0.0000
# 4 0.0000 0.0000 0.0000 33.1417 0.0000 0.0000
# 5 0.0000 0.0000 0.0000 0.0000 214.4568 0.0000
# 6 0.0000 0.0000 0.0000 0.0000 0.0000 33.6465
#
#
#
# Elastic Compliance Matrix: (Units=1/GPa)
#
#
# Indices 1 2 3 4 5 6 
#
# 1 0.015480 -0.013873 -0.010661 0.000000 0.000000 0.000000
# 2 -0.013873 0.033859 0.004494 0.000000 0.000000 0.000000
# 3 -0.010661 0.004494 0.022454 0.000000 0.000000 0.000000
# 4 0.000000 0.000000 0.000000 0.030173 0.000000 0.000000
# 5 0.000000 0.000000 0.000000 0.000000 0.004663 0.000000
# 6 0.000000 0.000000 0.000000 0.000000 0.000000 0.029721
#
#
# Mechanical properties :
#
#
# Convention : Reuss Voigt Hill
#
# Bulk Modulus (GPa) = 31.52972 62.25622 46.89297
# Shear Modulus (GPa) = 26.73776 65.85493 46.29634
#
# Velocity S-wave (km/s) = 3.44962 5.41381 4.53923
# Velocity P-wave (km/s) = 5.46801 8.17232 6.95291
#
# Compressibility (1/GPa) = 0.03171611
#
# Stress axis : x y z
#
# Youngs Moduli (GPa) = 64.59777 29.53394 44.53465
#
# Poissons Ratio (x) = 0.40971 0.47478
# Poissons Ratio (y) = 0.89614 -0.20016
# Poissons Ratio (z) = 0.68867 -0.13274
#
# Static dielectric constant tensor:
#      x y z
#    x 2.004370 0.000000 0.000000 
#    y 0.000000 1.885100 0.000000 
#    z 0.000000 0.000000 1.809090 
# 
# From -- ./inp_files/43699.got.cif
#   From: 2010.05.17/outbox.cif.g08.bks.cpg/sg70_22_cif.got.tgz:43699.got - 2010.06.03 15:57:51.
