data_PCOD9515981
_publ_section_title
;
Structure prediction by ZEFSAII (Michael W. Deem and Ramdas Pophale) SiO2 
 PCOD9515981
Probable space group: F D D D
;
_chemical_formula_sum "Si O2"
_cell_formula_units_Z 160
_cell_length_a 12.293570
_cell_length_b 25.301204
_cell_length_c 25.289821
_cell_angle_alpha 90.000000
_cell_angle_beta 90.000000
_cell_angle_gamma 90.000000
_cell_volume 7866.199600
_symmetry_space_group_name_H-M "F D D D"
_symmetry_group_IT_number 70
_space_group.IT_coordinate_system_code '2'
_symmetry_cell_setting 'orthorhombic'
loop_
_space_group_symop_operation_xyz
x,y,z
1/4-x,1/4-y,z
x,1/4-y,1/4-z
1/4-x,y,1/4-z
-x,-y,-z
3/4+x,3/4+y,-z
-x,3/4+y,3/4+z
3/4+x,-y,3/4+z
x,1/2+y,1/2+z
1/4-x,3/4-y,1/2+z
x,3/4-y,3/4-z
1/4-x,1/2+y,3/4-z
-x,1/2-y,1/2-z
3/4+x,1/4+y,1/2-z
-x,1/4+y,1/4+z
3/4+x,1/2-y,1/4+z
1/2+x,y,1/2+z
3/4-x,1/4-y,1/2+z
1/2+x,1/4-y,3/4-z
3/4-x,y,3/4-z
1/2-x,-y,1/2-z
1/4+x,3/4+y,1/2-z
1/2-x,3/4+y,1/4+z
1/4+x,-y,1/4+z
1/2+x,1/2+y,z
3/4-x,3/4-y,z
1/2+x,3/4-y,1/4-z
3/4-x,1/2+y,1/4-z
1/2-x,1/2-y,-z
1/4+x,1/4+y,-z
1/2-x,1/4+y,3/4+z
1/4+x,1/2-y,3/4+z
loop_
_atom_site_type_symbol
_atom_site_label
_atom_site_fract_x
_atom_site_fract_y
_atom_site_fract_z
Si Si1 0.875000 0.875000 0.875000
Si Si2 0.625000 0.125000 0.125000
Si Si3 0.463367 0.626338 0.222204
Si Si4 0.890538 0.741690 0.215274
Si Si5 0.625000 0.125000 0.817054
Si Si6 0.496761 0.970001 0.137392
Si Si7 0.002929 0.557927 0.215367
O O1 0.785021 0.892396 0.829668
O O2 0.562593 0.087638 0.166693
O O3 0.424101 0.564262 0.220472
O O4 0.531199 0.640039 0.274813
O O5 0.353961 0.659512 0.225178
O O6 0.936706 0.745484 0.156548
O O7 0.820589 0.793151 0.232416
O O8 0.000000 0.750000 0.250000
O O9 0.567840 0.083424 0.855090
O O10 0.625000 0.963438 0.125000
O O11 0.482845 0.000076 0.192264
#
# Coordination Sequence:
#
# PCOD9515981 Si02
#       7
#     8   8  32  32  16  32  32
#     4  10  22  44  68  92 134 180 234 290 348 416
#     4  12  22  38  68 108 130 166 226 296 348 394
#     4  11  24  45  68  99 138 185 233 288 352 420
#     4  12  23  43  68 103 140 180 230 294 352 420
#     4  11  26  46  66  94 152 184 218 295 352 420
#     4  12  24  44  69 102 140 179 230 290 352 414
#     4  12  23  42  71 101 134 179 231 287 345 417
#
# _framework density 20.340191000000001
#
# number of rings (size 3 to 8) (size 9 to 14) (size 15 to 20)
#    0.000    0.400    5.000    4.200    0.000    4.800 
#    3.600    0.000    2.200    0.000    0.000    0.000 
#    0.000    0.000    0.000    0.000    0.000    0.000 
#
# Total GULP energy -222739.814385 kJ/mol
# GULP energy per Si atom -5568.495360 kJ/mol
# Density = 2.029390 g / cm^3
# Si number density = 20.340191 Si / 1000 Ang^3
#
#
#
# Elastic Constant Matrix: (Units=GPa)
#
#
# Indices 1 2 3 4 5 6 
#
# 1 139.7003 57.1206 23.4778 0.0000 0.0000 0.0000
# 2 57.1206 81.8789 3.8330 0.0000 0.0000 0.0000
# 3 23.4778 3.8330 50.0270 0.0000 0.0000 0.0000
# 4 0.0000 0.0000 0.0000 25.5568 0.0000 0.0000
# 5 0.0000 0.0000 0.0000 0.0000 -19.0196 0.0000
# 6 0.0000 0.0000 0.0000 0.0000 0.0000 48.2186
#
#
#
# Elastic Compliance Matrix: (Units=1/GPa)
#
#
# Indices 1 2 3 4 5 6 
#
# 1 0.010969 -0.007438 -0.004578 0.000000 0.000000 0.000000
# 2 -0.007438 0.017300 0.002165 0.000000 0.000000 0.000000
# 3 -0.004578 0.002165 0.021972 0.000000 0.000000 0.000000
# 4 0.000000 0.000000 0.000000 0.039129 0.000000 0.000000
# 5 0.000000 0.000000 0.000000 0.000000 -0.052577 0.000000
# 6 0.000000 0.000000 0.000000 0.000000 0.000000 0.020739
#
#
# Mechanical properties :
#
#
# Convention : Reuss Voigt Hill
#
# Bulk Modulus (GPa) = 32.74401 48.94098 40.84249
# Shear Modulus (GPa) = 57.20061 23.42949 40.31505
#
# Velocity S-wave (km/s) = 5.30877 3.39762 4.45684
# Velocity P-wave (km/s) = 7.32874 6.28532 6.82699
#
# Compressibility (1/GPa) = 0.03053994
#
# Stress axis : x y z
#
# Youngs Moduli (GPa) = 91.16927 57.80187 45.51314
#
# Poissons Ratio (x) = 0.42991 0.20835
# Poissons Ratio (y) = 0.67809 -0.09853
# Poissons Ratio (z) = 0.41735 -0.12514
#
# Static dielectric constant tensor:
#      x y z
#    x 1.516220 0.000000 0.000000 
#    y 0.000000 1.858750 0.000000 
#    z 0.000000 0.000000 1.311210 
# 
# From -- ./inp_files/57578.got.cif
#   From: 2010.05.17/outbox.cif.g08.bks.cpg/sg70_29_cif.got.tgz:57578.got - 2010.06.03 15:57:51.
