data_PCOD9515593
_publ_section_title
;
Structure prediction by ZEFSAII (Michael W. Deem and Ramdas Pophale) SiO2 
 PCOD9515593
Probable space group: F D D D
;
_chemical_formula_sum "Si O2"
_cell_formula_units_Z 208
_cell_length_a 26.671747
_cell_length_b 20.844535
_cell_length_c 14.805279
_cell_angle_alpha 90.000000
_cell_angle_beta 90.000000
_cell_angle_gamma 90.000000
_cell_volume 8231.145339
_symmetry_space_group_name_H-M "F D D D"
_symmetry_group_IT_number 70
_space_group.IT_coordinate_system_code '2'
_symmetry_cell_setting 'orthorhombic'
loop_
_space_group_symop_operation_xyz
x,y,z
1/4-x,1/4-y,z
x,1/4-y,1/4-z
1/4-x,y,1/4-z
-x,-y,-z
3/4+x,3/4+y,-z
-x,3/4+y,3/4+z
3/4+x,-y,3/4+z
x,1/2+y,1/2+z
1/4-x,3/4-y,1/2+z
x,3/4-y,3/4-z
1/4-x,1/2+y,3/4-z
-x,1/2-y,1/2-z
3/4+x,1/4+y,1/2-z
-x,1/4+y,1/4+z
3/4+x,1/2-y,1/4+z
1/2+x,y,1/2+z
3/4-x,1/4-y,1/2+z
1/2+x,1/4-y,3/4-z
3/4-x,y,3/4-z
1/2-x,-y,1/2-z
1/4+x,3/4+y,1/2-z
1/2-x,3/4+y,1/4+z
1/4+x,-y,1/4+z
1/2+x,1/2+y,z
3/4-x,3/4-y,z
1/2+x,3/4-y,1/4-z
3/4-x,1/2+y,1/4-z
1/2-x,1/2-y,-z
1/4+x,1/4+y,-z
1/2-x,1/4+y,3/4+z
1/4+x,1/2-y,3/4+z
loop_
_atom_site_type_symbol
_atom_site_label
_atom_site_fract_x
_atom_site_fract_y
_atom_site_fract_z
Si Si1 0.334885 0.658690 0.528217
Si Si2 0.195785 0.531507 0.244292
Si Si3 0.930420 0.352764 0.581084
Si Si4 0.058044 0.785806 0.504226
Si Si5 0.525639 0.519042 0.883581
Si Si6 0.650797 0.275451 0.223026
Si Si7 0.742467 0.625000 0.625000
O O1 0.346857 0.625000 0.625000
O O2 0.384098 0.694956 0.493663
O O3 0.292402 0.709164 0.556093
O O4 0.326274 0.596603 0.464970
O O5 0.250000 0.500000 0.250000
O O6 0.184947 0.589176 0.312445
O O7 0.153410 0.480567 0.272226
O O8 0.204447 0.567999 0.150677
O O9 0.875000 0.375000 0.555400
O O10 0.946162 0.284679 0.540716
O O11 0.962516 0.415444 0.565217
O O12 0.030721 0.774947 0.599061
O O13 0.028092 0.842028 0.450468
O O14 0.560997 0.511208 0.791424
O O15 0.625000 0.258740 0.125000
#
# Coordination Sequence:
#
# PCOD9515593 Si02
#       7
#    32  32  32  32  32  32  16
#     4  10  21  42  67  88 135 186 232 285 363 424
#     4  12  23  36  58  93 138 177 221 274 355 444
#     4  12  22  38  60  94 141 181 226 277 358 426
#     4  12  22  36  64  96 129 182 232 283 349 440
#     4  11  24  40  62  99 136 182 233 290 353 434
#     4  11  24  40  60  94 135 178 224 293 355 421
#     4  12  22  32  55  94 138 180 224 278 351 448
#
# _framework density 25.269873
#
# number of rings (size 3 to 8) (size 9 to 14) (size 15 to 20)
#    0.000    0.615    6.923    2.769    0.000    0.000 
#    0.000    0.000    0.000   14.769    0.000    1.077 
#    0.000    0.000    0.000    0.000    0.000    0.000 
#
# Total GULP energy -290210.443210 kJ/mol
# GULP energy per Si atom -5580.970062 kJ/mol
# Density = 2.521236 g / cm^3
# Si number density = 25.269873 Si / 1000 Ang^3
#
#
#
# Elastic Constant Matrix: (Units=GPa)
#
#
# Indices 1 2 3 4 5 6 
#
# 1 99.9465 43.9663 16.2570 0.0000 0.0000 0.0000
# 2 43.9663 128.1119 0.4391 0.0000 0.0000 0.0000
# 3 16.2570 0.4391 53.9006 0.0000 0.0000 0.0000
# 4 0.0000 0.0000 0.0000 19.8954 0.0000 0.0000
# 5 0.0000 0.0000 0.0000 0.0000 14.5038 0.0000
# 6 0.0000 0.0000 0.0000 0.0000 0.0000 39.1777
#
#
#
# Elastic Compliance Matrix: (Units=1/GPa)
#
#
# Indices 1 2 3 4 5 6 
#
# 1 0.012493 -0.004275 -0.003733 0.000000 0.000000 0.000000
# 2 -0.004275 0.009269 0.001214 0.000000 0.000000 0.000000
# 3 -0.003733 0.001214 0.019669 0.000000 0.000000 0.000000
# 4 0.000000 0.000000 0.000000 0.050263 0.000000 0.000000
# 5 0.000000 0.000000 0.000000 0.000000 0.068947 0.000000
# 6 0.000000 0.000000 0.000000 0.000000 0.000000 0.025525
#
#
# Mechanical properties :
#
#
# Convention : Reuss Voigt Hill
#
# Bulk Modulus (GPa) = 35.91680 44.80931 40.36305
# Shear Modulus (GPa) = 23.91955 29.46849 26.69402
#
# Velocity S-wave (km/s) = 3.07997 3.41860 3.25369
# Velocity P-wave (km/s) = 5.18579 5.77523 5.48843
#
# Compressibility (1/GPa) = 0.02784213
#
# Stress axis : x y z
#
# Youngs Moduli (GPa) = 80.04491 107.89218 50.84210
#
# Poissons Ratio (x) = 0.46120 0.18980
# Poissons Ratio (y) = 0.34216 -0.06171
# Poissons Ratio (z) = 0.29882 -0.13096
#
# Static dielectric constant tensor:
#      x y z
#    x 2.036060 0.000000 0.000000 
#    y 0.000000 1.492870 0.000000 
#    z 0.000000 0.000000 2.187650 
# 
# From -- ./inp_files/39869.got.cif
#   From: 2010.05.17/outbox.cif.g08.bks.cpg/sg70_20_cif.got.tgz:39869.got - 2010.06.03 15:57:51.
