data_PCOD9515133
_publ_section_title
;
Structure prediction by ZEFSAII (Michael W. Deem and Ramdas Pophale) SiO2 
 PCOD9515133
Probable space group: F D D D
;
_chemical_formula_sum "Si O2"
_cell_formula_units_Z 240
_cell_length_a 22.024847
_cell_length_b 19.594411
_cell_length_c 23.570008
_cell_angle_alpha 90.000000
_cell_angle_beta 90.000000
_cell_angle_gamma 90.000000
_cell_volume 10171.964678
_symmetry_space_group_name_H-M "F D D D"
_symmetry_group_IT_number 70
_space_group.IT_coordinate_system_code '2'
_symmetry_cell_setting 'orthorhombic'
loop_
_space_group_symop_operation_xyz
x,y,z
1/4-x,1/4-y,z
x,1/4-y,1/4-z
1/4-x,y,1/4-z
-x,-y,-z
3/4+x,3/4+y,-z
-x,3/4+y,3/4+z
3/4+x,-y,3/4+z
x,1/2+y,1/2+z
1/4-x,3/4-y,1/2+z
x,3/4-y,3/4-z
1/4-x,1/2+y,3/4-z
-x,1/2-y,1/2-z
3/4+x,1/4+y,1/2-z
-x,1/4+y,1/4+z
3/4+x,1/2-y,1/4+z
1/2+x,y,1/2+z
3/4-x,1/4-y,1/2+z
1/2+x,1/4-y,3/4-z
3/4-x,y,3/4-z
1/2-x,-y,1/2-z
1/4+x,3/4+y,1/2-z
1/2-x,3/4+y,1/4+z
1/4+x,-y,1/4+z
1/2+x,1/2+y,z
3/4-x,3/4-y,z
1/2+x,3/4-y,1/4-z
3/4-x,1/2+y,1/4-z
1/2-x,1/2-y,-z
1/4+x,1/4+y,-z
1/2-x,1/4+y,3/4+z
1/4+x,1/2-y,3/4+z
loop_
_atom_site_type_symbol
_atom_site_label
_atom_site_fract_x
_atom_site_fract_y
_atom_site_fract_z
Si Si1 0.992487 0.796210 0.891096
Si Si2 0.065805 0.036406 0.265301
Si Si3 0.215081 0.390455 0.435962
Si Si4 0.049965 0.407899 0.202029
Si Si5 0.861606 0.523525 0.059074
Si Si6 0.814202 0.504760 0.280364
Si Si7 0.125000 0.499393 0.125000
Si Si8 0.555582 0.696773 0.737505
O O1 0.002707 0.875000 0.875000
O O2 0.947625 0.769950 0.843482
O O3 0.060723 0.765341 0.893046
O O4 0.960080 0.783856 0.950985
O O5 0.136974 0.038937 0.253836
O O6 0.022983 0.092218 0.295128
O O7 0.055290 0.966597 0.300754
O O8 0.244280 0.375000 0.375000
O O9 0.159207 0.336326 0.434156
O O10 0.268087 0.372283 0.480386
O O11 0.073370 0.453367 0.254227
O O12 0.079731 0.334632 0.212885
O O13 0.072843 0.448418 0.147633
O O14 0.899838 0.458045 0.040247
O O15 0.750000 0.500000 0.250000
O O16 0.155512 0.537742 0.179504
O O17 0.500000 0.750000 0.750000
#
# Coordination Sequence:
#
# PCOD9515133 Si02
#       8
#    32  32  32  32  32  32  16  32
#     4  11  25  44  71  99 132 182 238 293 365 430
#     4  11  25  44  68 103 137 186 241 294 358 448
#     4  11  21  37  70 100 140 187 235 289 356 445
#     4  10  22  41  66  96 137 177 229 292 348 430
#     4   9  19  40  66  93 134 179 227 288 351 433
#     4  12  26  42  70  98 133 181 234 301 371 430
#     4  10  20  40  69  98 137 184 232 280 350 432
#     4   9  20  37  62  99 134 179 229 285 350 420
#
# _framework density 23.594262000000001
#
# number of rings (size 3 to 8) (size 9 to 14) (size 15 to 20)
#    0.000    1.600    1.333    3.200    3.733    2.667 
#    0.000   11.000    2.933    0.000    0.000    0.000 
#    0.000    0.000    0.000    0.000    0.000    0.000 
#
# Total GULP energy -334893.957556 kJ/mol
# GULP energy per Si atom -5581.565959 kJ/mol
# Density = 2.354056 g / cm^3
# Si number density = 23.594262 Si / 1000 Ang^3
#
#
#
# Elastic Constant Matrix: (Units=GPa)
#
#
# Indices 1 2 3 4 5 6 
#
# 1 139.0883 20.7085 11.5716 0.0000 0.0000 0.0000
# 2 20.7085 22.3166 5.4743 0.0000 0.0000 0.0000
# 3 11.5716 5.4743 52.6078 0.0000 0.0000 0.0000
# 4 0.0000 0.0000 0.0000 16.6079 0.0000 0.0000
# 5 0.0000 0.0000 0.0000 0.0000 43.1108 0.0000
# 6 0.0000 0.0000 0.0000 0.0000 0.0000 30.9134
#
#
#
# Elastic Compliance Matrix: (Units=1/GPa)
#
#
# Indices 1 2 3 4 5 6 
#
# 1 0.008400 -0.007534 -0.001064 0.000000 0.000000 0.000000
# 2 -0.007534 0.052740 -0.003831 0.000000 0.000000 0.000000
# 3 -0.001064 -0.003831 0.019641 0.000000 0.000000 0.000000
# 4 0.000000 0.000000 0.000000 0.060212 0.000000 0.000000
# 5 0.000000 0.000000 0.000000 0.000000 0.023196 0.000000
# 6 0.000000 0.000000 0.000000 0.000000 0.000000 0.032348
#
#
# Mechanical properties :
#
#
# Convention : Reuss Voigt Hill
#
# Bulk Modulus (GPa) = 17.88121 32.16905 25.02513
# Shear Modulus (GPa) = 20.83020 29.87697 25.35359
#
# Velocity S-wave (km/s) = 2.97450 3.56234 3.28161
# Velocity P-wave (km/s) = 4.40363 5.53030 4.99881
#
# Compressibility (1/GPa) = 0.05592464
#
# Stress axis : x y z
#
# Youngs Moduli (GPa) = 119.04992 18.96089 50.91342
#
# Poissons Ratio (x) = 0.14284 0.05416
# Poissons Ratio (y) = 0.89688 0.19505
# Poissons Ratio (z) = 0.12663 0.07264
#
# Static dielectric constant tensor:
#      x y z
#    x 1.995720 0.000000 0.000000 
#    y 0.000000 1.885160 0.000000 
#    z 0.000000 0.000000 1.872640 
# 
# From -- ./inp_files/60551.got.cif
#   From: 2010.05.17/outbox.cif.g08.bks.cpg/sg70_31_cif.got.tgz:60551.got - 2010.06.03 15:57:51.
