data_PCOD9515036
_publ_section_title
;
Structure prediction by ZEFSAII (Michael W. Deem and Ramdas Pophale) SiO2 
 PCOD9515036
Probable space group: F D D D
;
_chemical_formula_sum "Si O2"
_cell_formula_units_Z 160
_cell_length_a 26.880865
_cell_length_b 12.824188
_cell_length_c 22.812347
_cell_angle_alpha 90.000000
_cell_angle_beta 90.000000
_cell_angle_gamma 90.000000
_cell_volume 7863.992396
_symmetry_space_group_name_H-M "F D D D"
_symmetry_group_IT_number 70
_space_group.IT_coordinate_system_code '2'
_symmetry_cell_setting 'orthorhombic'
loop_
_space_group_symop_operation_xyz
x,y,z
1/4-x,1/4-y,z
x,1/4-y,1/4-z
1/4-x,y,1/4-z
-x,-y,-z
3/4+x,3/4+y,-z
-x,3/4+y,3/4+z
3/4+x,-y,3/4+z
x,1/2+y,1/2+z
1/4-x,3/4-y,1/2+z
x,3/4-y,3/4-z
1/4-x,1/2+y,3/4-z
-x,1/2-y,1/2-z
3/4+x,1/4+y,1/2-z
-x,1/4+y,1/4+z
3/4+x,1/2-y,1/4+z
1/2+x,y,1/2+z
3/4-x,1/4-y,1/2+z
1/2+x,1/4-y,3/4-z
3/4-x,y,3/4-z
1/2-x,-y,1/2-z
1/4+x,3/4+y,1/2-z
1/2-x,3/4+y,1/4+z
1/4+x,-y,1/4+z
1/2+x,1/2+y,z
3/4-x,3/4-y,z
1/2+x,3/4-y,1/4-z
3/4-x,1/2+y,1/4-z
1/2-x,1/2-y,-z
1/4+x,1/4+y,-z
1/2-x,1/4+y,3/4+z
1/4+x,1/2-y,3/4+z
loop_
_atom_site_type_symbol
_atom_site_label
_atom_site_fract_x
_atom_site_fract_y
_atom_site_fract_z
Si Si1 0.171850 0.949013 0.458321
Si Si2 0.756953 0.270933 0.902067
Si Si3 0.224808 0.696606 0.777145
Si Si4 0.167727 0.712617 0.416994
Si Si5 0.818872 0.658301 0.495527
O O1 0.222262 0.954349 0.495461
O O2 0.159835 0.832434 0.434766
O O3 0.121862 0.964224 0.495911
O O4 0.179306 0.024520 0.402438
O O5 0.781353 0.375000 0.875000
O O6 0.730626 0.221900 0.846079
O O7 0.715957 0.303778 0.950346
O O8 0.794705 0.196540 0.935238
O O9 0.205141 0.579779 0.783026
O O10 0.187360 0.782398 0.749557
O O11 0.125000 0.625000 0.419866
#
# Coordination Sequence:
#
# PCOD9515036 Si02
#       5
#    32  32  32  32  32
#     4  11  24  37  63  92 118 161 214 254 312 382
#     4   9  20  36  60  85 125 160 198 253 309 365
#     4  11  21  38  60  89 123 160 202 260 313 372
#     4  11  22  40  63  88 121 161 209 262 309 368
#     4  10  20  39  59  89 123 163 205 253 310 373
#
# _framework density 20.3459
#
# number of rings (size 3 to 8) (size 9 to 14) (size 15 to 20)
#    0.000    1.600    2.000    3.000    5.600    4.000 
#    0.000    3.000    0.000    0.000    0.000    0.000 
#    0.000    0.000    0.000    0.000    0.000    0.000 
#
# Total GULP energy -222831.696790 kJ/mol
# GULP energy per Si atom -5570.792420 kJ/mol
# Density = 2.029959 g / cm^3
# Si number density = 20.345900 Si / 1000 Ang^3
#
#
#
# Elastic Constant Matrix: (Units=GPa)
#
#
# Indices 1 2 3 4 5 6 
#
# 1 82.3436 15.2207 16.7857 0.0000 0.0000 0.0000
# 2 15.2207 73.2122 18.9358 0.0000 0.0000 0.0000
# 3 16.7857 18.9358 51.7357 0.0000 0.0000 0.0000
# 4 0.0000 0.0000 0.0000 32.5746 0.0000 0.0000
# 5 0.0000 0.0000 0.0000 0.0000 20.2777 0.0000
# 6 0.0000 0.0000 0.0000 0.0000 0.0000 1.9053
#
#
#
# Elastic Compliance Matrix: (Units=1/GPa)
#
#
# Indices 1 2 3 4 5 6 
#
# 1 0.013218 -0.001810 -0.003626 0.000000 0.000000 0.000000
# 2 -0.001810 0.015335 -0.005025 0.000000 0.000000 0.000000
# 3 -0.003626 -0.005025 0.022345 0.000000 0.000000 0.000000
# 4 0.000000 0.000000 0.000000 0.030699 0.000000 0.000000
# 5 0.000000 0.000000 0.000000 0.000000 0.049315 0.000000
# 6 0.000000 0.000000 0.000000 0.000000 0.000000 0.524860
#
#
# Mechanical properties :
#
#
# Convention : Reuss Voigt Hill
#
# Bulk Modulus (GPa) = 33.36164 34.35288 33.85726
# Shear Modulus (GPa) = 7.28133 21.37479 14.32806
#
# Velocity S-wave (km/s) = 1.89382 3.24477 2.65660
# Velocity P-wave (km/s) = 4.60596 5.56409 5.10754
#
# Compressibility (1/GPa) = 0.02997455
#
# Stress axis : x y z
#
# Youngs Moduli (GPa) = 75.65437 65.21008 44.75299
#
# Poissons Ratio (x) = 0.11804 0.16228
# Poissons Ratio (y) = 0.13695 0.22490
# Poissons Ratio (z) = 0.27433 0.32771
#
# Static dielectric constant tensor:
#      x y z
#    x 1.773820 0.000000 0.000000 
#    y 0.000000 1.856360 0.000000 
#    z 0.000000 0.000000 1.691010 
# 
# From -- ./inp_files/19518.got.cif
#   From: 2010.05.17/outbox.cif.g08.bks.cpg/sg70_10_cif.got.tgz:19518.got - 2010.06.03 15:57:51.
