data_PCOD9515965
_publ_section_title
;
Structure prediction by ZEFSAII (Michael W. Deem and Ramdas Pophale) SiO2 
 PCOD9515965
Probable space group: F D D D
;
_chemical_formula_sum "Si O2"
_cell_formula_units_Z 240
_cell_length_a 18.376869
_cell_length_b 19.725663
_cell_length_c 26.114962
_cell_angle_alpha 90.000000
_cell_angle_beta 90.000000
_cell_angle_gamma 90.000000
_cell_volume 9466.567304
_symmetry_space_group_name_H-M "F D D D"
_symmetry_group_IT_number 70
_space_group.IT_coordinate_system_code '2'
_symmetry_cell_setting 'orthorhombic'
loop_
_space_group_symop_operation_xyz
x,y,z
1/4-x,1/4-y,z
x,1/4-y,1/4-z
1/4-x,y,1/4-z
-x,-y,-z
3/4+x,3/4+y,-z
-x,3/4+y,3/4+z
3/4+x,-y,3/4+z
x,1/2+y,1/2+z
1/4-x,3/4-y,1/2+z
x,3/4-y,3/4-z
1/4-x,1/2+y,3/4-z
-x,1/2-y,1/2-z
3/4+x,1/4+y,1/2-z
-x,1/4+y,1/4+z
3/4+x,1/2-y,1/4+z
1/2+x,y,1/2+z
3/4-x,1/4-y,1/2+z
1/2+x,1/4-y,3/4-z
3/4-x,y,3/4-z
1/2-x,-y,1/2-z
1/4+x,3/4+y,1/2-z
1/2-x,3/4+y,1/4+z
1/4+x,-y,1/4+z
1/2+x,1/2+y,z
3/4-x,3/4-y,z
1/2+x,3/4-y,1/4-z
3/4-x,1/2+y,1/4-z
1/2-x,1/2-y,-z
1/4+x,1/4+y,-z
1/2-x,1/4+y,3/4+z
1/4+x,1/2-y,3/4+z
loop_
_atom_site_type_symbol
_atom_site_label
_atom_site_fract_x
_atom_site_fract_y
_atom_site_fract_z
Si Si1 0.119545 0.750357 0.755834
Si Si2 0.272241 0.695539 0.724864
Si Si3 0.294523 0.164597 0.668329
Si Si4 0.054044 0.089937 0.826912
Si Si5 0.453810 0.437449 0.479463
Si Si6 0.170930 0.482261 0.076783
Si Si7 0.260316 0.125000 0.125000
Si Si8 0.987720 0.022986 0.916117
O O1 0.185830 0.702624 0.736725
O O2 0.161757 0.810931 0.783212
O O3 0.062196 0.724997 0.799232
O O4 0.076148 0.774877 0.706662
O O5 0.305837 0.764919 0.699472
O O6 0.307897 0.683557 0.780212
O O7 0.285778 0.638960 0.683239
O O8 0.340124 0.125000 0.625000
O O9 0.242343 0.104822 0.685542
O O10 0.244742 0.229833 0.654902
O O11 0.125000 0.125000 0.852322
O O12 0.045665 0.139280 0.778901
O O13 0.995789 0.079435 0.871977
O O14 0.500000 0.500000 0.500000
O O15 0.379850 0.462851 0.453055
O O16 0.125000 0.457437 0.125000
O O17 0.228100 0.049231 0.136484
#
# Coordination Sequence:
#
# PCOD9515965 Si02
#       8
#    32  32  32  32  32  32  16  32
#     4  10  23  46  67 106 141 192 255 324 389 443
#     4  10  22  43  75 106 147 196 256 315 377 460
#     4  11  22  40  74 101 141 197 240 309 380 466
#     4  11  21  45  70 101 142 198 238 302 382 458
#     4  12  24  39  66 106 148 193 247 300 369 463
#     4  11  21  41  71 106 150 199 247 295 378 466
#     4  10  24  45  76 108 136 202 257 318 386 450
#     4  10  25  46  73  99 149 195 254 328 384 456
#
# _framework density 25.352378999999999
#
# number of rings (size 3 to 8) (size 9 to 14) (size 15 to 20)
#    0.000    1.333    5.333    0.400    0.933    5.333 
#    4.800    1.333    0.000    0.000    0.000    0.000 
#    0.000    0.000    0.000    0.000    0.000    0.000 
#
# Total GULP energy -335034.807321 kJ/mol
# GULP energy per Si atom -5583.913455 kJ/mol
# Density = 2.529468 g / cm^3
# Si number density = 25.352379 Si / 1000 Ang^3
#
#
#
# Elastic Constant Matrix: (Units=GPa)
#
#
# Indices 1 2 3 4 5 6 
#
# 1 81.6331 12.8380 37.3209 0.0000 0.0000 0.0000
# 2 12.8380 59.7942 5.4350 0.0000 0.0000 0.0000
# 3 37.3209 5.4350 156.9154 0.0000 0.0000 0.0000
# 4 0.0000 0.0000 0.0000 6.9420 0.0000 0.0000
# 5 0.0000 0.0000 0.0000 0.0000 55.0968 0.0000
# 6 0.0000 0.0000 0.0000 0.0000 0.0000 14.8813
#
#
#
# Elastic Compliance Matrix: (Units=1/GPa)
#
#
# Indices 1 2 3 4 5 6 
#
# 1 0.014180 -0.002747 -0.003278 0.000000 0.000000 0.000000
# 2 -0.002747 0.017309 0.000054 0.000000 0.000000 0.000000
# 3 -0.003278 0.000054 0.007151 0.000000 0.000000 0.000000
# 4 0.000000 0.000000 0.000000 0.144050 0.000000 0.000000
# 5 0.000000 0.000000 0.000000 0.000000 0.018150 0.000000
# 6 0.000000 0.000000 0.000000 0.000000 0.000000 0.067198
#
#
# Mechanical properties :
#
#
# Convention : Reuss Voigt Hill
#
# Bulk Modulus (GPa) = 37.45479 45.50338 41.47909
# Shear Modulus (GPa) = 17.30830 31.56728 24.43779
#
# Velocity S-wave (km/s) = 2.61570 3.53248 3.10808
# Velocity P-wave (km/s) = 4.89166 5.88432 5.41080
#
# Compressibility (1/GPa) = 0.02669885
#
# Stress axis : x y z
#
# Youngs Moduli (GPa) = 70.52039 57.77389 139.84984
#
# Poissons Ratio (x) = 0.15868 0.45836
# Poissons Ratio (y) = 0.19369 -0.00752
# Poissons Ratio (z) = 0.23113 -0.00310
#
# Static dielectric constant tensor:
#      x y z
#    x 2.115640 0.000000 0.000000 
#    y 0.000000 1.854450 0.000000 
#    z 0.000000 0.000000 1.791340 
# 
# From -- ./inp_files/60554.got.cif
#   From: 2010.05.17/outbox.cif.g08.bks.cpg/sg70_31_cif.got.tgz:60554.got - 2010.06.03 15:57:51.
