data_PCOD9515868
_publ_section_title
;
Structure prediction by ZEFSAII (Michael W. Deem and Ramdas Pophale) SiO2 
 PCOD9515868
Probable space group: F D D D
;
_chemical_formula_sum "Si O2"
_cell_formula_units_Z 168
_cell_length_a 25.459599
_cell_length_b 14.264204
_cell_length_c 21.263267
_cell_angle_alpha 90.000000
_cell_angle_beta 90.000000
_cell_angle_gamma 90.000000
_cell_volume 7721.987476
_symmetry_space_group_name_H-M "F D D D"
_symmetry_group_IT_number 70
_space_group.IT_coordinate_system_code '2'
_symmetry_cell_setting 'orthorhombic'
loop_
_space_group_symop_operation_xyz
x,y,z
1/4-x,1/4-y,z
x,1/4-y,1/4-z
1/4-x,y,1/4-z
-x,-y,-z
3/4+x,3/4+y,-z
-x,3/4+y,3/4+z
3/4+x,-y,3/4+z
x,1/2+y,1/2+z
1/4-x,3/4-y,1/2+z
x,3/4-y,3/4-z
1/4-x,1/2+y,3/4-z
-x,1/2-y,1/2-z
3/4+x,1/4+y,1/2-z
-x,1/4+y,1/4+z
3/4+x,1/2-y,1/4+z
1/2+x,y,1/2+z
3/4-x,1/4-y,1/2+z
1/2+x,1/4-y,3/4-z
3/4-x,y,3/4-z
1/2-x,-y,1/2-z
1/4+x,3/4+y,1/2-z
1/2-x,3/4+y,1/4+z
1/4+x,-y,1/4+z
1/2+x,1/2+y,z
3/4-x,3/4-y,z
1/2+x,3/4-y,1/4-z
3/4-x,1/2+y,1/4-z
1/2-x,1/2-y,-z
1/4+x,1/4+y,-z
1/2-x,1/4+y,3/4+z
1/4+x,1/2-y,3/4+z
loop_
_atom_site_type_symbol
_atom_site_label
_atom_site_fract_x
_atom_site_fract_y
_atom_site_fract_z
Si Si1 0.375000 0.375000 0.875000
Si Si2 0.658708 0.483743 0.026475
Si Si3 0.426403 0.494970 0.171418
Si Si4 0.997217 0.586974 0.952453
Si Si5 0.686805 0.486405 0.883784
Si Si6 0.799537 0.047347 0.718756
O O1 0.338468 0.437804 0.920243
O O2 0.693412 0.393761 0.043439
O O3 0.675231 0.511700 0.955729
O O4 0.597436 0.464430 0.017104
O O5 0.456246 0.413935 0.209160
O O6 0.363018 0.490637 0.162279
O O7 0.446481 0.593219 0.199876
O O8 0.442741 0.494930 0.098000
O O9 0.011069 0.539268 0.886541
O O10 0.000000 0.500000 0.000000
O O11 0.692841 0.375000 0.875000
O O12 0.750000 0.000000 0.750000
#
# Coordination Sequence:
#
# PCOD9515868 Si02
#       6
#     8  32  32  32  32  32
#     4  12  32  48  68 112 166 196 256 342 396 440
#     4  11  27  48  70 108 156 192 260 326 387 476
#     4  10  22  41  69 106 140 192 261 309 380 472
#     4  12  25  42  72 109 147 193 250 321 390 460
#     4  11  21  49  76 104 144 200 265 311 382 487
#     4  10  22  42  71 102 142 196 254 315 387 462
#
# _framework density 21.756057999999999
#
# number of rings (size 3 to 8) (size 9 to 14) (size 15 to 20)
#    0.000    1.143    5.714    0.571   10.667    0.000 
#    0.000    0.952    0.000    0.000    0.000    0.000 
#    0.000    0.000    0.000    0.000    0.000    0.000 
#
# Total GULP energy -234631.653596 kJ/mol
# GULP energy per Si atom -5586.467943 kJ/mol
# Density = 2.170654 g / cm^3
# Si number density = 21.756058 Si / 1000 Ang^3
#
#
#
# Elastic Constant Matrix: (Units=GPa)
#
#
# Indices 1 2 3 4 5 6 
#
# 1 154.9730 72.0419 61.4820 0.0000 0.0000 0.0000
# 2 72.0419 144.7001 68.4154 0.0000 0.0000 0.0000
# 3 61.4820 68.4154 96.8309 0.0000 0.0000 0.0000
# 4 0.0000 0.0000 0.0000 50.8413 0.0000 0.0000
# 5 0.0000 0.0000 0.0000 0.0000 24.1980 0.0000
# 6 0.0000 0.0000 0.0000 0.0000 0.0000 43.1982
#
#
#
# Elastic Compliance Matrix: (Units=1/GPa)
#
#
# Indices 1 2 3 4 5 6 
#
# 1 0.009307 -0.002763 -0.003958 0.000000 0.000000 0.000000
# 2 -0.002763 0.011198 -0.006158 0.000000 0.000000 0.000000
# 3 -0.003958 -0.006158 0.017191 0.000000 0.000000 0.000000
# 4 0.000000 0.000000 0.000000 0.019669 0.000000 0.000000
# 5 0.000000 0.000000 0.000000 0.000000 0.041326 0.000000
# 6 0.000000 0.000000 0.000000 0.000000 0.000000 0.023149
#
#
# Mechanical properties :
#
#
# Convention : Reuss Voigt Hill
#
# Bulk Modulus (GPa) = 83.75207 88.93142 86.34174
# Shear Modulus (GPa) = 32.98708 36.61847 34.80278
#
# Velocity S-wave (km/s) = 3.89810 4.10706 4.00394
# Velocity P-wave (km/s) = 7.67071 7.96592 7.81971
#
# Compressibility (1/GPa) = 0.01194000
#
# Stress axis : x y z
#
# Youngs Moduli (GPa) = 107.44583 89.30518 58.17100
#
# Poissons Ratio (x) = 0.24671 0.23022
# Poissons Ratio (y) = 0.29682 0.35819
# Poissons Ratio (z) = 0.42522 0.54990
#
# Static dielectric constant tensor:
#      x y z
#    x 1.837300 0.000000 0.000000 
#    y 0.000000 1.563770 0.000000 
#    z 0.000000 0.000000 1.815220 
# 
# From -- ./inp_files/46764.got.cif
#   From: 2010.05.17/outbox.cif.g08.bks.cpg/sg70_24_cif.got.tgz:46764.got - 2010.06.03 15:57:51.
