data_PCOD9515225
_publ_section_title
;
Structure prediction by ZEFSAII (Michael W. Deem and Ramdas Pophale) SiO2 
 PCOD9515225
Probable space group: F D D D
;
_chemical_formula_sum "Si O2"
_cell_formula_units_Z 112
_cell_length_a 11.622436
_cell_length_b 20.975228
_cell_length_c 18.726774
_cell_angle_alpha 90.000000
_cell_angle_beta 90.000000
_cell_angle_gamma 90.000000
_cell_volume 4565.273734
_symmetry_space_group_name_H-M "F D D D"
_symmetry_group_IT_number 70
_space_group.IT_coordinate_system_code '2'
_symmetry_cell_setting 'orthorhombic'
loop_
_space_group_symop_operation_xyz
x,y,z
1/4-x,1/4-y,z
x,1/4-y,1/4-z
1/4-x,y,1/4-z
-x,-y,-z
3/4+x,3/4+y,-z
-x,3/4+y,3/4+z
3/4+x,-y,3/4+z
x,1/2+y,1/2+z
1/4-x,3/4-y,1/2+z
x,3/4-y,3/4-z
1/4-x,1/2+y,3/4-z
-x,1/2-y,1/2-z
3/4+x,1/4+y,1/2-z
-x,1/4+y,1/4+z
3/4+x,1/2-y,1/4+z
1/2+x,y,1/2+z
3/4-x,1/4-y,1/2+z
1/2+x,1/4-y,3/4-z
3/4-x,y,3/4-z
1/2-x,-y,1/2-z
1/4+x,3/4+y,1/2-z
1/2-x,3/4+y,1/4+z
1/4+x,-y,1/4+z
1/2+x,1/2+y,z
3/4-x,3/4-y,z
1/2+x,3/4-y,1/4-z
3/4-x,1/2+y,1/4-z
1/2-x,1/2-y,-z
1/4+x,1/4+y,-z
1/2-x,1/4+y,3/4+z
1/4+x,1/2-y,3/4+z
loop_
_atom_site_type_symbol
_atom_site_label
_atom_site_fract_x
_atom_site_fract_y
_atom_site_fract_z
Si Si1 0.375000 0.375000 0.583623
Si Si2 0.625000 0.225417 0.125000
Si Si3 0.613760 0.411399 0.520512
Si Si4 0.928347 0.125000 0.625000
Si Si5 0.232349 0.787844 0.575895
O O1 0.483809 0.388039 0.533436
O O2 0.345041 0.440655 0.628043
O O3 0.632473 0.270548 0.056235
O O4 0.514725 0.182576 0.109943
O O5 0.645760 0.402513 0.438856
O O6 0.692764 0.360103 0.558893
O O7 0.125000 0.761720 0.625000
O O8 0.250000 0.750000 0.500000
#
# Coordination Sequence:
#
# PCOD9515225 Si02
#       5
#    16  16  32  16  32
#     4  10  20  43  71  90 140 188 226 280 366 419
#     4  11  22  46  64 100 138 175 228 284 362 415
#     4  11  23  45  67 100 138 184 225 293 357 424
#     4  11  26  40  70 103 128 174 237 288 342 433
#     4  10  23  45  70 104 139 190 239 293 363 433
#
# _framework density 24.533031999999999
#
# number of rings (size 3 to 8) (size 9 to 14) (size 15 to 20)
#    0.000    1.429    4.286    2.571    4.000    0.000 
#   10.286    0.000    0.000    0.000    0.000    0.000 
#    0.000    0.000    0.000    0.000    0.000    0.000 
#
# Total GULP energy -156380.215714 kJ/mol
# GULP energy per Si atom -5585.007704 kJ/mol
# Density = 2.447719 g / cm^3
# Si number density = 24.533032 Si / 1000 Ang^3
#
#
#
# Elastic Constant Matrix: (Units=GPa)
#
#
# Indices 1 2 3 4 5 6 
#
# 1 40.7425 7.5164 0.4637 0.0000 0.0000 0.0000
# 2 7.5164 123.2626 44.0841 0.0000 0.0000 0.0000
# 3 0.4637 44.0841 161.4765 0.0000 0.0000 0.0000
# 4 0.0000 0.0000 0.0000 39.5619 0.0000 0.0000
# 5 0.0000 0.0000 0.0000 0.0000 18.6764 0.0000
# 6 0.0000 0.0000 0.0000 0.0000 0.0000 17.4430
#
#
#
# Elastic Compliance Matrix: (Units=1/GPa)
#
#
# Indices 1 2 3 4 5 6 
#
# 1 0.024845 -0.001651 0.000379 0.000000 0.000000 0.000000
# 2 -0.001651 0.009100 -0.002480 0.000000 0.000000 0.000000
# 3 0.000379 -0.002480 0.006869 0.000000 0.000000 0.000000
# 4 0.000000 0.000000 0.000000 0.025277 0.000000 0.000000
# 5 0.000000 0.000000 0.000000 0.000000 0.053543 0.000000
# 6 0.000000 0.000000 0.000000 0.000000 0.000000 0.057329
#
#
# Mechanical properties :
#
#
# Convention : Reuss Voigt Hill
#
# Bulk Modulus (GPa) = 30.01966 47.73445 38.87705
# Shear Modulus (GPa) = 25.56639 33.36410 29.46525
#
# Velocity S-wave (km/s) = 3.23169 3.69177 3.46937
# Velocity P-wave (km/s) = 5.11743 6.13773 5.65066
#
# Compressibility (1/GPa) = 0.03331151
#
# Stress axis : x y z
#
# Youngs Moduli (GPa) = 40.25022 109.88693 145.58725
#
# Poissons Ratio (x) = 0.18138 -0.05522
# Poissons Ratio (y) = 0.06644 0.36101
# Poissons Ratio (z) = -0.01527 0.27249
#
# Static dielectric constant tensor:
#      x y z
#    x 2.084060 0.000000 0.000000 
#    y 0.000000 1.903490 0.000000 
#    z 0.000000 0.000000 2.042680 
# 
# From -- ./inp_files/41766.got.cif
#   From: 2010.05.17/outbox.cif.g08.bks.cpg/sg70_21_cif.got.tgz:41766.got - 2010.06.03 15:57:51.
