data_PCOD9515187
_publ_section_title
;
Structure prediction by ZEFSAII (Michael W. Deem and Ramdas Pophale) SiO2 
 PCOD9515187
Probable space group: F D D D
;
_chemical_formula_sum "Si O2"
_cell_formula_units_Z 136
_cell_length_a 22.415087
_cell_length_b 27.063551
_cell_length_c 10.147805
_cell_angle_alpha 90.000000
_cell_angle_beta 90.000000
_cell_angle_gamma 90.000000
_cell_volume 6155.981723
_symmetry_space_group_name_H-M "F D D D"
_symmetry_group_IT_number 70
_space_group.IT_coordinate_system_code '2'
_symmetry_cell_setting 'orthorhombic'
loop_
_space_group_symop_operation_xyz
x,y,z
1/4-x,1/4-y,z
x,1/4-y,1/4-z
1/4-x,y,1/4-z
-x,-y,-z
3/4+x,3/4+y,-z
-x,3/4+y,3/4+z
3/4+x,-y,3/4+z
x,1/2+y,1/2+z
1/4-x,3/4-y,1/2+z
x,3/4-y,3/4-z
1/4-x,1/2+y,3/4-z
-x,1/2-y,1/2-z
3/4+x,1/4+y,1/2-z
-x,1/4+y,1/4+z
3/4+x,1/2-y,1/4+z
1/2+x,y,1/2+z
3/4-x,1/4-y,1/2+z
1/2+x,1/4-y,3/4-z
3/4-x,y,3/4-z
1/2-x,-y,1/2-z
1/4+x,3/4+y,1/2-z
1/2-x,3/4+y,1/4+z
1/4+x,-y,1/4+z
1/2+x,1/2+y,z
3/4-x,3/4-y,z
1/2+x,3/4-y,1/4-z
3/4-x,1/2+y,1/4-z
1/2-x,1/2-y,-z
1/4+x,1/4+y,-z
1/2-x,1/4+y,3/4+z
1/4+x,1/2-y,3/4+z
loop_
_atom_site_type_symbol
_atom_site_label
_atom_site_fract_x
_atom_site_fract_y
_atom_site_fract_z
Si Si1 0.125000 0.625000 0.125000
Si Si2 0.731900 0.679370 0.134497
Si Si3 0.022392 0.055926 0.648956
Si Si4 0.694564 0.804622 0.599676
Si Si5 0.309402 0.213785 0.898820
O O1 0.077682 0.589624 0.195108
O O2 0.704541 0.625000 0.125000
O O3 0.762994 0.682661 0.277041
O O4 0.691090 0.726269 0.097188
O O5 0.784277 0.687938 0.028197
O O6 0.977967 0.074229 0.531979
O O7 0.982824 0.046849 0.776058
O O8 0.051431 0.005285 0.593940
O O9 0.625000 0.818288 0.625000
O O10 0.375000 0.195239 0.875000
#
# Coordination Sequence:
#
# PCOD9515187 Si02
#       5
#     8  32  32  32  32
#     4  12  24  44  64 102 128 168 224 276 304 408
#     4  10  23  40  61  96 129 167 218 258 332 391
#     4  10  23  40  68  95 127 173 214 269 325 371
#     4  10  20  42  64  93 129 169 216 266 324 384
#     4  10  22  45  65  91 134 171 213 273 327 381
#
# _framework density 22.092333
#
# number of rings (size 3 to 8) (size 9 to 14) (size 15 to 20)
#    0.000    1.882    1.176    1.412    3.294    1.412 
#    8.471    0.000    0.000    0.000    0.000    0.000 
#    0.000    0.000    0.000    0.000    0.000    0.000 
#
# Total GULP energy -189680.805480 kJ/mol
# GULP energy per Si atom -5578.847220 kJ/mol
# Density = 2.204205 g / cm^3
# Si number density = 22.092333 Si / 1000 Ang^3
#
#
#
# Elastic Constant Matrix: (Units=GPa)
#
#
# Indices 1 2 3 4 5 6 
#
# 1 94.3831 18.0060 -18.8857 0.0001 0.0000 0.0000
# 2 18.0060 97.8912 15.1545 0.0000 0.0000 0.0000
# 3 -18.8857 15.1545 65.7322 0.0001 0.0000 -0.0001
# 4 0.0001 0.0000 0.0001 -8.4366 0.0000 -0.0001
# 5 0.0000 0.0000 0.0000 0.0000 15.8861 0.0000
# 6 0.0000 0.0000 -0.0001 -0.0001 0.0000 -41.3150
#
#
#
# Elastic Compliance Matrix: (Units=1/GPa)
#
#
# Indices 1 2 3 4 5 6 
#
# 1 0.011953 -0.002831 0.004087 0.000000 0.000000 0.000000
# 2 -0.002831 0.011264 -0.003410 0.000000 0.000000 0.000000
# 3 0.004087 -0.003410 0.017174 0.000000 0.000000 0.000000
# 4 0.000000 0.000000 0.000000 -0.118531 0.000000 0.000000
# 5 0.000000 0.000000 0.000000 0.000000 0.062948 0.000000
# 6 0.000000 0.000000 0.000000 0.000000 0.000000 -0.024204
#
#
# Mechanical properties :
#
#
# Convention : Reuss Voigt Hill
#
# Bulk Modulus (GPa) = 27.71500 31.83957 29.77728
# Shear Modulus (GPa) = -216.83069 9.47568 -103.67750
#
# Velocity S-wave (km/s) = -9.91769 2.07327 -6.85792
# Velocity P-wave (km/s) = 10.88922 4.49161 7.01429
#
# Compressibility (1/GPa) = 0.03608154
#
# Stress axis : x y z
#
# Youngs Moduli (GPa) = 83.66052 88.77692 58.22831
#
# Poissons Ratio (x) = 0.25136 -0.23798
# Poissons Ratio (y) = 0.23687 0.19858
# Poissons Ratio (z) = -0.34192 0.30277
#
# Static dielectric constant tensor:
#      x y z
#    x 1.731010 0.000000 0.000000 
#    y 0.000000 1.954610 0.000000 
#    z 0.000000 0.000000 1.769520 
# 
# From -- ./inp_files/17680.got.cif
#   From: 2010.05.17/outbox.cif.g08.bks.cpg/sg70_9_cif.got.tgz:17680.got - 2010.06.03 15:57:51.
