data_PCOD9515067
_publ_section_title
;
Structure prediction by ZEFSAII (Michael W. Deem and Ramdas Pophale) SiO2 
 PCOD9515067
Probable space group: F D D D
;
_chemical_formula_sum "Si O2"
_cell_formula_units_Z 168
_cell_length_a 20.847499
_cell_length_b 18.604203
_cell_length_c 17.983320
_cell_angle_alpha 90.000000
_cell_angle_beta 90.000000
_cell_angle_gamma 90.000000
_cell_volume 6974.850505
_symmetry_space_group_name_H-M "F D D D"
_symmetry_group_IT_number 70
_space_group.IT_coordinate_system_code '2'
_symmetry_cell_setting 'orthorhombic'
loop_
_space_group_symop_operation_xyz
x,y,z
1/4-x,1/4-y,z
x,1/4-y,1/4-z
1/4-x,y,1/4-z
-x,-y,-z
3/4+x,3/4+y,-z
-x,3/4+y,3/4+z
3/4+x,-y,3/4+z
x,1/2+y,1/2+z
1/4-x,3/4-y,1/2+z
x,3/4-y,3/4-z
1/4-x,1/2+y,3/4-z
-x,1/2-y,1/2-z
3/4+x,1/4+y,1/2-z
-x,1/4+y,1/4+z
3/4+x,1/2-y,1/4+z
1/2+x,y,1/2+z
3/4-x,1/4-y,1/2+z
1/2+x,1/4-y,3/4-z
3/4-x,y,3/4-z
1/2-x,-y,1/2-z
1/4+x,3/4+y,1/2-z
1/2-x,3/4+y,1/4+z
1/4+x,-y,1/4+z
1/2+x,1/2+y,z
3/4-x,3/4-y,z
1/2+x,3/4-y,1/4-z
3/4-x,1/2+y,1/4-z
1/2-x,1/2-y,-z
1/4+x,1/4+y,-z
1/2-x,1/4+y,3/4+z
1/4+x,1/2-y,3/4+z
loop_
_atom_site_type_symbol
_atom_site_label
_atom_site_fract_x
_atom_site_fract_y
_atom_site_fract_z
Si Si1 0.375000 0.375000 0.875000
Si Si2 0.645441 0.792473 0.855982
Si Si3 0.711829 0.251289 0.608756
Si Si4 0.786113 0.175785 0.996230
Si Si5 0.443341 0.095474 0.835675
Si Si6 0.537941 0.980222 0.778029
O O1 0.324438 0.321481 0.916549
O O2 0.658514 0.875000 0.875000
O O3 0.712627 0.755176 0.874873
O O4 0.607880 0.803320 0.776503
O O5 0.592667 0.758420 0.910935
O O6 0.696359 0.321776 0.559290
O O7 0.686334 0.262835 0.693883
O O8 0.767906 0.103241 0.040301
O O9 0.750000 0.250000 0.000000
O O10 0.768314 0.151756 0.913154
O O11 0.375000 0.077898 0.875000
O O12 0.480247 0.036296 0.788344
#
# Coordination Sequence:
#
# PCOD9515067 Si02
#       6
#     8  32  32  32  32  32
#     4  12  24  48  64  92 124 166 226 284 330 396
#     4  10  20  40  66  92 130 172 212 272 328 387
#     4  11  24  42  66  94 126 173 223 274 333 398
#     4  10  20  39  65  93 130 172 212 264 323 387
#     4  11  22  40  61  93 134 169 211 272 322 389
#     4  10  23  40  63  96 132 167 222 264 331 398
#
# _framework density 24.086537
#
# number of rings (size 3 to 8) (size 9 to 14) (size 15 to 20)
#    0.000    1.524    3.810    1.143    0.000    2.286 
#    0.000    5.714    0.000    0.000    0.000    0.000 
#    0.000    0.000    0.000    0.000    0.000    0.000 
#
# Total GULP energy -233827.197598 kJ/mol
# GULP energy per Si atom -5567.314229 kJ/mol
# Density = 2.403172 g / cm^3
# Si number density = 24.086537 Si / 1000 Ang^3
#
#
#
# Elastic Constant Matrix: (Units=GPa)
#
#
# Indices 1 2 3 4 5 6 
#
# 1 141.4905 92.8793 -14.2458 0.0000 0.0000 0.0000
# 2 92.8793 155.6651 -4.1672 0.0000 0.0000 0.0000
# 3 -14.2458 -4.1672 41.3795 0.0000 0.0000 0.0000
# 4 0.0000 0.0000 0.0000 14.9193 0.0000 0.0000
# 5 0.0000 0.0000 0.0000 0.0000 11.4177 0.0000
# 6 0.0000 0.0000 0.0000 0.0000 0.0000 40.5567
#
#
#
# Elastic Compliance Matrix: (Units=1/GPa)
#
#
# Indices 1 2 3 4 5 6 
#
# 1 0.012089 -0.007121 0.003445 0.000000 0.000000 0.000000
# 2 -0.007121 0.010636 -0.001380 0.000000 0.000000 0.000000
# 3 0.003445 -0.001380 0.025213 0.000000 0.000000 0.000000
# 4 0.000000 0.000000 0.000000 0.067027 0.000000 0.000000
# 5 0.000000 0.000000 0.000000 0.000000 0.087583 0.000000
# 6 0.000000 0.000000 0.000000 0.000000 0.000000 0.024657
#
#
# Mechanical properties :
#
#
# Convention : Reuss Voigt Hill
#
# Bulk Modulus (GPa) = 26.43733 54.16307 40.30020
# Shear Modulus (GPa) = 20.00594 30.98333 25.49464
#
# Velocity S-wave (km/s) = 2.88512 3.59044 3.25693
# Velocity P-wave (km/s) = 4.70089 6.30270 5.55978
#
# Compressibility (1/GPa) = 0.03782531
#
# Stress axis : x y z
#
# Youngs Moduli (GPa) = 82.72223 94.02312 39.66131
#
# Poissons Ratio (x) = 0.66950 -0.13662
# Poissons Ratio (y) = 0.58903 0.05475
# Poissons Ratio (z) = -0.28495 0.12978
#
# Static dielectric constant tensor:
#      x y z
#    x 2.026490 0.000000 0.000000 
#    y 0.000000 1.936500 0.000000 
#    z 0.000000 0.000000 2.031760 
# 
# From -- ./inp_files/44834.got.cif
#   From: 2010.05.17/outbox.cif.g08.bks.cpg/sg70_23_cif.got.tgz:44834.got - 2010.06.03 15:57:51.
