data_PCOD9515664
_publ_section_title
;
Structure prediction by ZEFSAII (Michael W. Deem and Ramdas Pophale) SiO2 
 PCOD9515664
Probable space group: F D D D
;
_chemical_formula_sum "Si O2"
_cell_formula_units_Z 168
_cell_length_a 14.415272
_cell_length_b 19.776450
_cell_length_c 28.320972
_cell_angle_alpha 90.000000
_cell_angle_beta 90.000000
_cell_angle_gamma 90.000000
_cell_volume 8073.824997
_symmetry_space_group_name_H-M "F D D D"
_symmetry_group_IT_number 70
_space_group.IT_coordinate_system_code '2'
_symmetry_cell_setting 'orthorhombic'
loop_
_space_group_symop_operation_xyz
x,y,z
1/4-x,1/4-y,z
x,1/4-y,1/4-z
1/4-x,y,1/4-z
-x,-y,-z
3/4+x,3/4+y,-z
-x,3/4+y,3/4+z
3/4+x,-y,3/4+z
x,1/2+y,1/2+z
1/4-x,3/4-y,1/2+z
x,3/4-y,3/4-z
1/4-x,1/2+y,3/4-z
-x,1/2-y,1/2-z
3/4+x,1/4+y,1/2-z
-x,1/4+y,1/4+z
3/4+x,1/2-y,1/4+z
1/2+x,y,1/2+z
3/4-x,1/4-y,1/2+z
1/2+x,1/4-y,3/4-z
3/4-x,y,3/4-z
1/2-x,-y,1/2-z
1/4+x,3/4+y,1/2-z
1/2-x,3/4+y,1/4+z
1/4+x,-y,1/4+z
1/2+x,1/2+y,z
3/4-x,3/4-y,z
1/2+x,3/4-y,1/4-z
3/4-x,1/2+y,1/4-z
1/2-x,1/2-y,-z
1/4+x,1/4+y,-z
1/2-x,1/4+y,3/4+z
1/4+x,1/2-y,3/4+z
loop_
_atom_site_type_symbol
_atom_site_label
_atom_site_fract_x
_atom_site_fract_y
_atom_site_fract_z
Si Si1 0.875000 0.875000 0.375000
Si Si2 0.872868 0.113352 0.002533
Si Si3 0.222730 0.962633 0.822047
Si Si4 0.519561 0.596565 0.921755
Si Si5 0.066384 0.803380 0.850059
Si Si6 0.234658 0.113519 0.818809
O O1 0.807920 0.918322 0.341088
O O2 0.835287 0.178824 0.030144
O O3 0.897967 0.068393 0.047455
O O4 0.789473 0.090377 0.968151
O O5 0.959560 0.117332 0.967078
O O6 0.151154 0.967215 0.865908
O O7 0.255055 0.036073 0.807658
O O8 0.625000 0.625000 0.928320
O O9 0.510859 0.516176 0.909172
O O10 0.485924 0.628333 0.872778
O O11 0.030703 0.875000 0.875000
O O12 0.125000 0.125000 0.815454
#
# Coordination Sequence:
#
# PCOD9515664 Si02
#       6
#     8  32  32  32  32  32
#     4  12  24  40  76  96 142 184 210 276 364 404
#     4  11  24  40  69  99 133 176 238 281 333 419
#     4  11  23  43  64 103 139 175 221 279 346 414
#     4  11  23  43  68  96 136 184 227 288 346 400
#     4  10  21  45  65  92 138 175 218 282 340 410
#     4  11  24  42  67  97 140 177 224 285 347 406
#
# _framework density 20.807981000000002
#
# number of rings (size 3 to 8) (size 9 to 14) (size 15 to 20)
#    0.000    1.143    6.667    1.714    4.000    1.524 
#    0.000    0.000    0.000    1.143    0.000    0.000 
#    0.000    0.000    0.000    0.000    0.000    0.000 
#
# Total GULP energy -234024.679125 kJ/mol
# GULP energy per Si atom -5572.016170 kJ/mol
# Density = 2.076062 g / cm^3
# Si number density = 20.807981 Si / 1000 Ang^3
#
#
#
# Elastic Constant Matrix: (Units=GPa)
#
#
# Indices 1 2 3 4 5 6 
#
# 1 87.9431 21.6316 63.4306 0.0000 0.0000 0.0000
# 2 21.6316 89.6117 -9.3986 0.0000 0.0000 0.0000
# 3 63.4306 -9.3986 122.2616 0.0000 0.0000 0.0000
# 4 0.0000 0.0000 0.0000 -106.3024 0.0000 0.0000
# 5 0.0000 0.0000 0.0000 0.0000 56.4364 0.0000
# 6 0.0000 0.0000 0.0000 0.0000 0.0000 -6.8773
#
#
#
# Elastic Compliance Matrix: (Units=1/GPa)
#
#
# Indices 1 2 3 4 5 6 
#
# 1 0.021218 -0.006327 -0.011495 0.000000 0.000000 0.000000
# 2 -0.006327 0.013137 0.004293 0.000000 0.000000 0.000000
# 3 -0.011495 0.004293 0.014473 0.000000 0.000000 0.000000
# 4 0.000000 0.000000 0.000000 -0.009407 0.000000 0.000000
# 5 0.000000 0.000000 0.000000 0.000000 0.017719 0.000000
# 6 0.000000 0.000000 0.000000 0.000000 0.000000 -0.145406
#
#
# Mechanical properties :
#
#
# Convention : Reuss Voigt Hill
#
# Bulk Modulus (GPa) = 45.93725 50.12705 48.03215
# Shear Modulus (GPa) = -92.67678 3.59485 -44.54096
#
# Velocity S-wave (km/s) = -6.68100 1.31582 -4.63165
# Velocity P-wave (km/s) = 6.11471 5.14306 2.33865
#
# Compressibility (1/GPa) = 0.02176882
#
# Stress axis : x y z
#
# Youngs Moduli (GPa) = 47.12969 76.12159 69.09572
#
# Poissons Ratio (x) = 0.48166 0.79423
# Poissons Ratio (y) = 0.29821 -0.29660
# Poissons Ratio (z) = 0.54174 -0.32676
#
# Static dielectric constant tensor:
#      x y z
#    x 1.724350 0.000000 0.000000 
#    y 0.000000 1.788750 0.000000 
#    z 0.000000 0.000000 1.759580 
# 
# From -- ./inp_files/58464.got.cif
#   From: 2010.05.17/outbox.cif.g08.bks.cpg/sg70_30_cif.got.tgz:58464.got - 2010.06.03 15:57:51.
