data_PCOD9515750
_publ_section_title
;
Structure prediction by ZEFSAII (Michael W. Deem and Ramdas Pophale) SiO2 
 PCOD9515750
Probable space group: F D D D
;
_chemical_formula_sum "Si O2"
_cell_formula_units_Z 176
_cell_length_a 24.593965
_cell_length_b 15.479372
_cell_length_c 22.653182
_cell_angle_alpha 90.000000
_cell_angle_beta 90.000000
_cell_angle_gamma 90.000000
_cell_volume 8624.046751
_symmetry_space_group_name_H-M "F D D D"
_symmetry_group_IT_number 70
_space_group.IT_coordinate_system_code '2'
_symmetry_cell_setting 'orthorhombic'
loop_
_space_group_symop_operation_xyz
x,y,z
1/4-x,1/4-y,z
x,1/4-y,1/4-z
1/4-x,y,1/4-z
-x,-y,-z
3/4+x,3/4+y,-z
-x,3/4+y,3/4+z
3/4+x,-y,3/4+z
x,1/2+y,1/2+z
1/4-x,3/4-y,1/2+z
x,3/4-y,3/4-z
1/4-x,1/2+y,3/4-z
-x,1/2-y,1/2-z
3/4+x,1/4+y,1/2-z
-x,1/4+y,1/4+z
3/4+x,1/2-y,1/4+z
1/2+x,y,1/2+z
3/4-x,1/4-y,1/2+z
1/2+x,1/4-y,3/4-z
3/4-x,y,3/4-z
1/2-x,-y,1/2-z
1/4+x,3/4+y,1/2-z
1/2-x,3/4+y,1/4+z
1/4+x,-y,1/4+z
1/2+x,1/2+y,z
3/4-x,3/4-y,z
1/2+x,3/4-y,1/4-z
3/4-x,1/2+y,1/4-z
1/2-x,1/2-y,-z
1/4+x,1/4+y,-z
1/2-x,1/4+y,3/4+z
1/4+x,1/2-y,3/4+z
loop_
_atom_site_type_symbol
_atom_site_label
_atom_site_fract_x
_atom_site_fract_y
_atom_site_fract_z
Si Si1 0.799957 0.934661 0.699295
Si Si2 0.663415 0.990354 0.428458
Si Si3 0.923725 0.301464 0.700289
Si Si4 0.625000 0.935421 0.625000
Si Si5 0.213465 0.047076 0.169273
Si Si6 0.548456 0.355499 0.222287
O O1 0.815943 0.838308 0.685277
O O2 0.775000 0.925184 0.764401
O O3 0.850354 0.000503 0.696573
O O4 0.757356 0.974842 0.654403
O O5 0.693084 0.925233 0.473812
O O6 0.667962 0.987041 0.357020
O O7 0.875000 0.375000 0.699123
O O8 0.925025 0.234567 0.754970
O O9 0.984609 0.342787 0.705712
O O10 0.582932 0.883967 0.665193
O O11 0.656124 0.000346 0.668382
O O12 0.214374 0.125000 0.125000
#
# Coordination Sequence:
#
# PCOD9515750 Si02
#       6
#    32  32  32  16  32  32
#     4  10  22  39  60  98 128 174 219 259 325 405
#     4  11  21  45  66  93 135 169 222 275 331 399
#     4  11  25  46  71  97 132 181 232 283 339 401
#     4  12  23  40  63  96 134 176 214 282 337 397
#     4  11  23  37  60  95 138 173 215 264 334 396
#     4  11  26  44  69 102 134 179 228 283 343 402
#
# _framework density 20.408052999999999
#
# number of rings (size 3 to 8) (size 9 to 14) (size 15 to 20)
#    0.000    1.091    3.636    3.000    2.545    4.364 
#    0.000    2.273    0.000    0.000    0.000    0.000 
#    0.000    0.000    0.000    0.000    0.000    0.000 
#
# Total GULP energy -245049.524648 kJ/mol
# GULP energy per Si atom -5569.307378 kJ/mol
# Density = 2.036160 g / cm^3
# Si number density = 20.408053 Si / 1000 Ang^3
#
#
#
# Elastic Constant Matrix: (Units=GPa)
#
#
# Indices 1 2 3 4 5 6 
#
# 1 102.7006 45.9975 36.6087 0.0000 0.0000 0.0000
# 2 45.9975 60.6172 39.5398 0.0000 0.0000 0.0000
# 3 36.6087 39.5398 105.8647 0.0000 0.0000 0.0000
# 4 0.0000 0.0000 0.0000 35.4783 0.0000 0.0000
# 5 0.0000 0.0000 0.0000 0.0000 33.6845 0.0000
# 6 0.0000 0.0000 0.0000 0.0000 0.0000 23.8367
#
#
#
# Elastic Compliance Matrix: (Units=1/GPa)
#
#
# Indices 1 2 3 4 5 6 
#
# 1 0.014869 -0.010483 -0.001227 0.000000 0.000000 0.000000
# 2 -0.010483 0.029201 -0.007281 0.000000 0.000000 0.000000
# 3 -0.001227 -0.007281 0.012590 0.000000 0.000000 0.000000
# 4 0.000000 0.000000 0.000000 0.028186 0.000000 0.000000
# 5 0.000000 0.000000 0.000000 0.000000 0.029687 0.000000
# 6 0.000000 0.000000 0.000000 0.000000 0.000000 0.041952
#
#
# Mechanical properties :
#
#
# Convention : Reuss Voigt Hill
#
# Bulk Modulus (GPa) = 53.53799 57.05271 55.29535
# Shear Modulus (GPa) = 24.91352 28.40233 26.65793
#
# Velocity S-wave (km/s) = 3.49774 3.73463 3.61812
# Velocity P-wave (km/s) = 6.52709 6.82739 6.67893
#
# Compressibility (1/GPa) = 0.01867833
#
# Stress axis : x y z
#
# Youngs Moduli (GPa) = 67.25196 34.24508 79.42991
#
# Poissons Ratio (x) = 0.35900 0.09743
# Poissons Ratio (y) = 0.70501 0.57836
# Poissons Ratio (z) = 0.08249 0.24935
#
# Static dielectric constant tensor:
#      x y z
#    x 1.807950 0.000000 0.000000 
#    y 0.000000 1.771780 0.000000 
#    z 0.000000 0.000000 1.771740 
# 
# From -- ./inp_files/54325.got.cif
#   From: 2010.05.17/outbox.cif.g08.bks.cpg/sg70_28_cif.got.tgz:54325.got - 2010.06.03 15:57:51.
