data_PCOD9515918
_publ_section_title
;
Structure prediction by ZEFSAII (Michael W. Deem and Ramdas Pophale) SiO2 
 PCOD9515918
Probable space group: F D D D
;
_chemical_formula_sum "Si O2"
_cell_formula_units_Z 80
_cell_length_a 18.073580
_cell_length_b 10.933978
_cell_length_c 18.176110
_cell_angle_alpha 90.000000
_cell_angle_beta 90.000000
_cell_angle_gamma 90.000000
_cell_volume 3591.892446
_symmetry_space_group_name_H-M "F D D D"
_symmetry_group_IT_number 70
_space_group.IT_coordinate_system_code '2'
_symmetry_cell_setting 'orthorhombic'
loop_
_space_group_symop_operation_xyz
x,y,z
1/4-x,1/4-y,z
x,1/4-y,1/4-z
1/4-x,y,1/4-z
-x,-y,-z
3/4+x,3/4+y,-z
-x,3/4+y,3/4+z
3/4+x,-y,3/4+z
x,1/2+y,1/2+z
1/4-x,3/4-y,1/2+z
x,3/4-y,3/4-z
1/4-x,1/2+y,3/4-z
-x,1/2-y,1/2-z
3/4+x,1/4+y,1/2-z
-x,1/4+y,1/4+z
3/4+x,1/2-y,1/4+z
1/2+x,y,1/2+z
3/4-x,1/4-y,1/2+z
1/2+x,1/4-y,3/4-z
3/4-x,y,3/4-z
1/2-x,-y,1/2-z
1/4+x,3/4+y,1/2-z
1/2-x,3/4+y,1/4+z
1/4+x,-y,1/4+z
1/2+x,1/2+y,z
3/4-x,3/4-y,z
1/2+x,3/4-y,1/4-z
3/4-x,1/2+y,1/4-z
1/2-x,1/2-y,-z
1/4+x,1/4+y,-z
1/2-x,1/4+y,3/4+z
1/4+x,1/2-y,3/4+z
loop_
_atom_site_type_symbol
_atom_site_label
_atom_site_fract_x
_atom_site_fract_y
_atom_site_fract_z
Si Si1 0.125000 0.125000 0.952664
Si Si2 0.497498 0.954687 0.806892
Si Si3 0.878076 0.138729 0.287438
O O1 0.057144 0.193175 0.913447
O O2 0.157044 0.233151 0.004038
O O3 0.431429 0.026906 0.768678
O O4 0.471225 0.875000 0.875000
O O5 0.547621 0.879882 0.749605
O O6 0.875000 0.145786 0.375000
#
# Coordination Sequence:
#
# PCOD9515918 Si02
#       3
#    16  32  32
#     4   8  21  42  64  98 133 186 222 280 345 422
#     4  10  23  41  66 103 136 183 232 286 348 416
#     4  10  22  42  69  99 138 179 232 287 347 414
#
# _framework density 22.272382
#
# number of rings (size 3 to 8) (size 9 to 14) (size 15 to 20)
#    2.400    0.000    0.000    1.800    0.000    5.600 
#    0.000    0.000    0.000    0.000    0.000    0.000 
#    0.000    0.000    0.000    0.000    0.000    0.000 
#
# Total GULP energy -111444.370659 kJ/mol
# GULP energy per Si atom -5572.218533 kJ/mol
# Density = 2.222169 g / cm^3
# Si number density = 22.272382 Si / 1000 Ang^3
#
#
#
# Elastic Constant Matrix: (Units=GPa)
#
#
# Indices 1 2 3 4 5 6 
#
# 1 111.8091 79.8890 32.5006 0.0000 0.0000 0.0000
# 2 79.8890 105.4308 37.5894 0.0000 0.0000 0.0000
# 3 32.5006 37.5894 52.3838 0.0000 0.0000 0.0000
# 4 0.0000 0.0000 0.0000 9.5108 0.0000 0.0000
# 5 0.0000 0.0000 0.0000 0.0000 20.5134 0.0000
# 6 0.0000 0.0000 0.0000 0.0000 0.0000 37.5665
#
#
#
# Elastic Compliance Matrix: (Units=1/GPa)
#
#
# Indices 1 2 3 4 5 6 
#
# 1 0.019662 -0.014176 -0.002026 0.000000 0.000000 0.000000
# 2 -0.014176 0.022967 -0.007685 0.000000 0.000000 0.000000
# 3 -0.002026 -0.007685 0.025862 0.000000 0.000000 0.000000
# 4 0.000000 0.000000 0.000000 0.105143 0.000000 0.000000
# 5 0.000000 0.000000 0.000000 0.000000 0.048749 0.000000
# 6 0.000000 0.000000 0.000000 0.000000 0.000000 0.026619
#
#
# Mechanical properties :
#
#
# Convention : Reuss Voigt Hill
#
# Bulk Modulus (GPa) = 48.27386 63.28686 55.78036
# Shear Modulus (GPa) = 16.46463 21.49445 18.97954
#
# Velocity S-wave (km/s) = 2.72185 3.10993 2.92234
# Velocity P-wave (km/s) = 5.62133 6.43212 6.04034
#
# Compressibility (1/GPa) = 0.02071514
#
# Stress axis : x y z
#
# Youngs Moduli (GPa) = 50.86007 43.54161 38.66724
#
# Poissons Ratio (x) = 0.61725 0.07836
# Poissons Ratio (y) = 0.72099 0.29716
# Poissons Ratio (z) = 0.10307 0.33462
#
# Static dielectric constant tensor:
#      x y z
#    x 1.855000 0.000000 0.000000 
#    y 0.000000 1.858880 0.000000 
#    z 0.000000 0.000000 1.755180 
# 
# From -- ./inp_files/6878.got.cif
#   From: 2010.05.17/outbox.cif.g08.bks.cpg/sg70_4_cif.got.tgz:6878.got - 2010.06.03 15:57:51.
