data_PCOD9515090
_publ_section_title
;
Structure prediction by ZEFSAII (Michael W. Deem and Ramdas Pophale) SiO2 
 PCOD9515090
Probable space group: F D D D
;
_chemical_formula_sum "Si O2"
_cell_formula_units_Z 144
_cell_length_a 31.628313
_cell_length_b 11.909152
_cell_length_c 17.217415
_cell_angle_alpha 90.000000
_cell_angle_beta 90.000000
_cell_angle_gamma 90.000000
_cell_volume 6485.221502
_symmetry_space_group_name_H-M "F D D D"
_symmetry_group_IT_number 70
_space_group.IT_coordinate_system_code '2'
_symmetry_cell_setting 'orthorhombic'
loop_
_space_group_symop_operation_xyz
x,y,z
1/4-x,1/4-y,z
x,1/4-y,1/4-z
1/4-x,y,1/4-z
-x,-y,-z
3/4+x,3/4+y,-z
-x,3/4+y,3/4+z
3/4+x,-y,3/4+z
x,1/2+y,1/2+z
1/4-x,3/4-y,1/2+z
x,3/4-y,3/4-z
1/4-x,1/2+y,3/4-z
-x,1/2-y,1/2-z
3/4+x,1/4+y,1/2-z
-x,1/4+y,1/4+z
3/4+x,1/2-y,1/4+z
1/2+x,y,1/2+z
3/4-x,1/4-y,1/2+z
1/2+x,1/4-y,3/4-z
3/4-x,y,3/4-z
1/2-x,-y,1/2-z
1/4+x,3/4+y,1/2-z
1/2-x,3/4+y,1/4+z
1/4+x,-y,1/4+z
1/2+x,1/2+y,z
3/4-x,3/4-y,z
1/2+x,3/4-y,1/4-z
3/4-x,1/2+y,1/4-z
1/2-x,1/2-y,-z
1/4+x,1/4+y,-z
1/2-x,1/4+y,3/4+z
1/4+x,1/2-y,3/4+z
loop_
_atom_site_type_symbol
_atom_site_label
_atom_site_fract_x
_atom_site_fract_y
_atom_site_fract_z
Si Si1 0.301208 0.001079 0.091029
Si Si2 0.204859 0.992178 0.112816
Si Si3 0.417424 0.656787 0.539051
Si Si4 0.375000 0.875000 0.166125
Si Si5 0.402463 0.200197 0.446929
O O1 0.313107 0.125000 0.125000
O O2 0.254946 0.980492 0.126862
O O3 0.333171 0.907893 0.120453
O O4 0.308730 0.000423 0.997704
O O5 0.194936 0.125000 0.125000
O O6 0.173374 0.914706 0.163031
O O7 0.200741 0.940732 0.026025
O O8 0.432473 0.625000 0.625000
O O9 0.387686 0.765844 0.537708
O O10 0.385020 0.562394 0.509951
O O11 0.375000 0.249053 0.375000
#
# Coordination Sequence:
#
# PCOD9515090 Si02
#       5
#    32  32  32  16  32
#     4  11  23  40  61  96 125 162 208 264 314 379
#     4  10  24  37  66  95 126 162 210 273 326 364
#     4  11  21  40  63  92 128 166 210 260 317 393
#     4  12  20  36  66  86 116 174 198 246 318 388
#     4  10  20  40  59  88 130 156 202 264 307 371
#
# _framework density 22.204329999999999
#
# number of rings (size 3 to 8) (size 9 to 14) (size 15 to 20)
#    0.000    1.333    4.444    1.333    3.111    4.889 
#    0.000    3.889    0.000    0.000    0.000    0.000 
#    0.000    0.000    0.000    0.000    0.000    0.000 
#
# Total GULP energy -200467.975311 kJ/mol
# GULP energy per Si atom -5568.554870 kJ/mol
# Density = 2.215379 g / cm^3
# Si number density = 22.204330 Si / 1000 Ang^3
#
#
#
# Elastic Constant Matrix: (Units=GPa)
#
#
# Indices 1 2 3 4 5 6 
#
# 1 85.3780 28.5775 22.3612 0.0000 0.0000 0.0000
# 2 28.5775 30.0175 -3.0108 0.0000 0.0000 0.0000
# 3 22.3612 -3.0108 74.7495 0.0000 0.0000 0.0000
# 4 0.0000 0.0000 0.0000 -1.8621 0.0000 0.0000
# 5 0.0000 0.0000 0.0000 0.0000 225.6200 0.0000
# 6 0.0000 0.0000 0.0000 0.0000 0.0000 15.1888
#
#
#
# Elastic Compliance Matrix: (Units=1/GPa)
#
#
# Indices 1 2 3 4 5 6 
#
# 1 0.020152 -0.019870 -0.006829 0.000000 0.000000 0.000000
# 2 -0.019870 0.053041 0.008081 0.000000 0.000000 0.000000
# 3 -0.006829 0.008081 0.015746 0.000000 0.000000 0.000000
# 4 0.000000 0.000000 0.000000 -0.537018 0.000000 0.000000
# 5 0.000000 0.000000 0.000000 0.000000 0.004432 0.000000
# 6 0.000000 0.000000 0.000000 0.000000 0.000000 0.065838
#
#
# Mechanical properties :
#
#
# Convention : Reuss Voigt Hill
#
# Bulk Modulus (GPa) = 19.34131 31.77786 25.55959
# Shear Modulus (GPa) = -15.46375 57.27048 20.90337
#
# Velocity S-wave (km/s) = -2.64186 5.08414 3.07157
# Velocity P-wave (km/s) = 0.75919 6.98622 4.91075
#
# Compressibility (1/GPa) = 0.05170279
#
# Stress axis : x y z
#
# Youngs Moduli (GPa) = 49.62273 18.85324 63.50686
#
# Poissons Ratio (x) = 0.37462 0.43368
# Poissons Ratio (y) = 0.98601 -0.51317
# Poissons Ratio (z) = 0.33886 -0.15235
#
# Static dielectric constant tensor:
#      x y z
#    x 1.843260 0.000000 0.000000 
#    y 0.000000 1.862630 0.000000 
#    z 0.000000 0.000000 1.907140 
# 
# From -- ./inp_files/39489.got.cif
#   From: 2010.05.17/outbox.cif.g08.bks.cpg/sg70_20_cif.got.tgz:39489.got - 2010.06.03 15:57:51.
