data_PCOD9515771
_publ_section_title
;
Structure prediction by ZEFSAII (Michael W. Deem and Ramdas Pophale) SiO2 
 PCOD9515771
Probable space group: F D D D
;
_chemical_formula_sum "Si O2"
_cell_formula_units_Z 192
_cell_length_a 24.198568
_cell_length_b 13.289002
_cell_length_c 25.813547
_cell_angle_alpha 90.000000
_cell_angle_beta 90.000000
_cell_angle_gamma 90.000000
_cell_volume 8300.986693
_symmetry_space_group_name_H-M "F D D D"
_symmetry_group_IT_number 70
_space_group.IT_coordinate_system_code '2'
_symmetry_cell_setting 'orthorhombic'
loop_
_space_group_symop_operation_xyz
x,y,z
1/4-x,1/4-y,z
x,1/4-y,1/4-z
1/4-x,y,1/4-z
-x,-y,-z
3/4+x,3/4+y,-z
-x,3/4+y,3/4+z
3/4+x,-y,3/4+z
x,1/2+y,1/2+z
1/4-x,3/4-y,1/2+z
x,3/4-y,3/4-z
1/4-x,1/2+y,3/4-z
-x,1/2-y,1/2-z
3/4+x,1/4+y,1/2-z
-x,1/4+y,1/4+z
3/4+x,1/2-y,1/4+z
1/2+x,y,1/2+z
3/4-x,1/4-y,1/2+z
1/2+x,1/4-y,3/4-z
3/4-x,y,3/4-z
1/2-x,-y,1/2-z
1/4+x,3/4+y,1/2-z
1/2-x,3/4+y,1/4+z
1/4+x,-y,1/4+z
1/2+x,1/2+y,z
3/4-x,3/4-y,z
1/2+x,3/4-y,1/4-z
3/4-x,1/2+y,1/4-z
1/2-x,1/2-y,-z
1/4+x,1/4+y,-z
1/2-x,1/4+y,3/4+z
1/4+x,1/2-y,3/4+z
loop_
_atom_site_type_symbol
_atom_site_label
_atom_site_fract_x
_atom_site_fract_y
_atom_site_fract_z
Si Si1 0.992720 0.625000 0.625000
Si Si2 0.101940 0.237515 0.488181
Si Si3 0.541082 0.332762 0.275427
Si Si4 0.923199 0.670251 0.402675
Si Si5 0.722781 0.625000 0.625000
Si Si6 0.528629 0.721527 0.025646
Si Si7 0.226553 0.051816 0.302098
O O1 0.958277 0.711253 0.658284
O O2 0.032849 0.670438 0.580980
O O3 0.125000 0.125000 0.493289
O O4 0.150598 0.289181 0.455600
O O5 0.100577 0.288594 0.543834
O O6 0.038222 0.252588 0.472886
O O7 0.500000 0.250000 0.250000
O O8 0.508750 0.381766 0.323197
O O9 0.553639 0.419906 0.234317
O O10 0.875000 0.611125 0.375000
O O11 0.939174 0.771582 0.371641
O O12 0.976311 0.604915 0.414137
O O13 0.549674 0.649239 0.978203
O O14 0.250000 0.000000 0.250000
#
# Coordination Sequence:
#
# PCOD9515771 Si02
#       7
#    16  32  32  32  16  32  32
#     4  10  22  39  71  78 117 171 216 257 333 390
#     4  11  21  38  58  92 135 164 214 270 317 398
#     4  12  23  37  66  94 132 172 214 263 338 403
#     4  11  21  35  63  92 131 168 213 271 342 388
#     4  12  23  39  62 102 137 171 210 276 343 409
#     4  10  22  41  62  91 127 168 210 271 328 393
#     4   9  20  40  60  87 120 165 216 268 327 398
#
# _framework density 23.129781000000001
#
# number of rings (size 3 to 8) (size 9 to 14) (size 15 to 20)
#    0.000    1.333    5.000    2.250    4.667    0.667 
#    0.000    0.417    3.667    2.000    0.000    0.000 
#    0.000    0.000    0.000    0.000    0.000    0.000 
#
# Total GULP energy -267364.204942 kJ/mol
# GULP energy per Si atom -5570.087603 kJ/mol
# Density = 2.307714 g / cm^3
# Si number density = 23.129781 Si / 1000 Ang^3
#
#
#
# Elastic Constant Matrix: (Units=GPa)
#
#
# Indices 1 2 3 4 5 6 
#
# 1 51.2225 8.3038 -0.4155 0.0000 0.0000 0.0000
# 2 8.3038 109.5884 8.5884 0.0000 0.0000 0.0000
# 3 -0.4155 8.5884 76.9649 0.0000 0.0000 0.0000
# 4 0.0000 0.0000 0.0000 43.4320 0.0000 0.0000
# 5 0.0000 0.0000 0.0000 0.0000 13.9707 0.0000
# 6 0.0000 0.0000 0.0000 0.0000 0.0000 15.4650
#
#
#
# Elastic Compliance Matrix: (Units=1/GPa)
#
#
# Indices 1 2 3 4 5 6 
#
# 1 0.019771 -0.001520 0.000276 0.000000 0.000000 0.000000
# 2 -0.001520 0.009322 -0.001048 0.000000 0.000000 0.000000
# 3 0.000276 -0.001048 0.013111 0.000000 0.000000 0.000000
# 4 0.000000 0.000000 0.000000 0.023024 0.000000 0.000000
# 5 0.000000 0.000000 0.000000 0.000000 0.071578 0.000000
# 6 0.000000 0.000000 0.000000 0.000000 0.000000 0.064662
#
#
# Mechanical properties :
#
#
# Convention : Reuss Voigt Hill
#
# Bulk Modulus (GPa) = 26.58073 30.08102 28.33087
# Shear Modulus (GPa) = 22.87341 29.32681 26.10011
#
# Velocity S-wave (km/s) = 3.14811 3.56466 3.36284
# Velocity P-wave (km/s) = 4.97304 5.47503 5.23006
#
# Compressibility (1/GPa) = 0.03762124
#
# Stress axis : x y z
#
# Youngs Moduli (GPa) = 50.57839 107.26871 76.26935
#
# Poissons Ratio (x) = 0.16302 -0.02108
# Poissons Ratio (y) = 0.07687 0.07997
# Poissons Ratio (z) = -0.01398 0.11247
#
# Static dielectric constant tensor:
#      x y z
#    x 1.978640 0.000000 0.000000 
#    y 0.000000 1.997140 0.000000 
#    z 0.000000 0.000000 1.917530 
# 
# From -- ./inp_files/30161.got.cif
#   From: 2010.05.17/outbox.cif.g08.bks.cpg/sg70_16_cif.got.tgz:30161.got - 2010.06.03 15:57:51.
