data_PCOD9515383
_publ_section_title
;
Structure prediction by ZEFSAII (Michael W. Deem and Ramdas Pophale) SiO2 
 PCOD9515383
Probable space group: F D D D
;
_chemical_formula_sum "Si O2"
_cell_formula_units_Z 176
_cell_length_a 25.479722
_cell_length_b 19.800002
_cell_length_c 15.902137
_cell_angle_alpha 90.000000
_cell_angle_beta 90.000000
_cell_angle_gamma 90.000000
_cell_volume 8022.605004
_symmetry_space_group_name_H-M "F D D D"
_symmetry_group_IT_number 70
_space_group.IT_coordinate_system_code '2'
_symmetry_cell_setting 'orthorhombic'
loop_
_space_group_symop_operation_xyz
x,y,z
1/4-x,1/4-y,z
x,1/4-y,1/4-z
1/4-x,y,1/4-z
-x,-y,-z
3/4+x,3/4+y,-z
-x,3/4+y,3/4+z
3/4+x,-y,3/4+z
x,1/2+y,1/2+z
1/4-x,3/4-y,1/2+z
x,3/4-y,3/4-z
1/4-x,1/2+y,3/4-z
-x,1/2-y,1/2-z
3/4+x,1/4+y,1/2-z
-x,1/4+y,1/4+z
3/4+x,1/2-y,1/4+z
1/2+x,y,1/2+z
3/4-x,1/4-y,1/2+z
1/2+x,1/4-y,3/4-z
3/4-x,y,3/4-z
1/2-x,-y,1/2-z
1/4+x,3/4+y,1/2-z
1/2-x,3/4+y,1/4+z
1/4+x,-y,1/4+z
1/2+x,1/2+y,z
3/4-x,3/4-y,z
1/2+x,3/4-y,1/4-z
3/4-x,1/2+y,1/4-z
1/2-x,1/2-y,-z
1/4+x,1/4+y,-z
1/2-x,1/4+y,3/4+z
1/4+x,1/2-y,3/4+z
loop_
_atom_site_type_symbol
_atom_site_label
_atom_site_fract_x
_atom_site_fract_y
_atom_site_fract_z
Si Si1 0.334731 0.201537 0.997359
Si Si2 0.206772 0.145599 0.850654
Si Si3 0.136190 0.738381 0.898250
Si Si4 0.973618 0.826886 0.800969
Si Si5 0.959788 0.059498 0.482250
Si Si6 0.375000 0.661537 0.875000
O O1 0.377762 0.239057 0.052769
O O2 0.286304 0.180970 0.057242
O O3 0.306846 0.256437 0.937564
O O4 0.357771 0.138969 0.948458
O O5 0.172017 0.077865 0.844380
O O6 0.171154 0.209643 0.822518
O O7 0.257840 0.127223 0.793614
O O8 0.216269 0.153470 0.951842
O O9 0.166114 0.799410 0.944915
O O10 0.954904 0.875000 0.875000
O O11 0.924765 0.044990 0.400279
O O12 0.000000 0.000000 0.500000
#
# Coordination Sequence:
#
# PCOD9515383 Si02
#       6
#    32  32  32  32  32  16
#     4  10  23  38  57  93 124 157 206 257 324 384
#     4   9  18  40  61  93 126 160 213 277 313 392
#     4   9  20  37  64  89 123 165 213 264 331 388
#     4  10  21  38  62  89 126 165 198 249 331 396
#     4  10  22  42  66  90 126 179 222 270 333 383
#     4  12  24  40  61  91 128 162 218 284 316 402
#
# _framework density 21.938010999999999
#
# number of rings (size 3 to 8) (size 9 to 14) (size 15 to 20)
#    0.000    2.182    1.818    0.000    5.091    0.000 
#    0.000    5.455    0.000    7.636    0.000    0.000 
#    0.000    0.000    0.000    0.000    0.000    0.000 
#
# Total GULP energy -244978.114769 kJ/mol
# GULP energy per Si atom -5567.684427 kJ/mol
# Density = 2.188808 g / cm^3
# Si number density = 21.938011 Si / 1000 Ang^3
#
#
#
# Elastic Constant Matrix: (Units=GPa)
#
#
# Indices 1 2 3 4 5 6 
#
# 1 105.2291 36.7213 39.4629 0.0000 0.0000 0.0000
# 2 36.7213 65.2461 47.2975 0.0000 0.0000 0.0000
# 3 39.4629 47.2975 58.5745 0.0000 0.0000 0.0000
# 4 0.0000 0.0000 0.0000 43.4555 0.0000 0.0000
# 5 0.0000 0.0000 0.0000 0.0000 14.9058 0.0000
# 6 0.0000 0.0000 0.0000 0.0000 0.0000 -5.2213
#
#
#
# Elastic Compliance Matrix: (Units=1/GPa)
#
#
# Indices 1 2 3 4 5 6 
#
# 1 0.012858 -0.002308 -0.006799 0.000000 0.000000 0.000000
# 2 -0.002308 0.037377 -0.028626 0.000000 0.000000 0.000000
# 3 -0.006799 -0.028626 0.044768 0.000000 0.000000 0.000000
# 4 0.000000 0.000000 0.000000 0.023012 0.000000 0.000000
# 5 0.000000 0.000000 0.000000 0.000000 0.067088 0.000000
# 6 0.000000 0.000000 0.000000 0.000000 0.000000 -0.191523
#
#
# Mechanical properties :
#
#
# Convention : Reuss Voigt Hill
#
# Bulk Modulus (GPa) = 51.18604 52.89036 52.03820
# Shear Modulus (GPa) = 66.17465 17.66587 41.92026
#
# Velocity S-wave (km/s) = 5.49817 2.84079 4.37607
# Velocity P-wave (km/s) = 7.98056 5.90944 7.02178
#
# Compressibility (1/GPa) = 0.01953657
#
# Stress axis : x y z
#
# Youngs Moduli (GPa) = 77.77054 26.75464 22.33748
#
# Poissons Ratio (x) = 0.06175 0.15188
# Poissons Ratio (y) = 0.17949 0.63943
# Poissons Ratio (z) = 0.52879 0.76587
#
# Static dielectric constant tensor:
#      x y z
#    x 1.886870 0.000000 0.000000 
#    y 0.000000 1.829440 0.000000 
#    z 0.000000 0.000000 2.502950 
# 
# From -- ./inp_files/38550.got.cif
#   From: 2010.05.17/outbox.cif.g08.bks.cpg/sg70_20_cif.got.tgz:38550.got - 2010.06.03 15:57:51.
