data_PCOD9515938
_publ_section_title
;
Structure prediction by ZEFSAII (Michael W. Deem and Ramdas Pophale) SiO2 
 PCOD9515938
Probable space group: F D D D
;
_chemical_formula_sum "Si O2"
_cell_formula_units_Z 176
_cell_length_a 11.308414
_cell_length_b 24.205423
_cell_length_c 28.156469
_cell_angle_alpha 90.000000
_cell_angle_beta 90.000000
_cell_angle_gamma 90.000000
_cell_volume 7707.127910
_symmetry_space_group_name_H-M "F D D D"
_symmetry_group_IT_number 70
_space_group.IT_coordinate_system_code '2'
_symmetry_cell_setting 'orthorhombic'
loop_
_space_group_symop_operation_xyz
x,y,z
1/4-x,1/4-y,z
x,1/4-y,1/4-z
1/4-x,y,1/4-z
-x,-y,-z
3/4+x,3/4+y,-z
-x,3/4+y,3/4+z
3/4+x,-y,3/4+z
x,1/2+y,1/2+z
1/4-x,3/4-y,1/2+z
x,3/4-y,3/4-z
1/4-x,1/2+y,3/4-z
-x,1/2-y,1/2-z
3/4+x,1/4+y,1/2-z
-x,1/4+y,1/4+z
3/4+x,1/2-y,1/4+z
1/2+x,y,1/2+z
3/4-x,1/4-y,1/2+z
1/2+x,1/4-y,3/4-z
3/4-x,y,3/4-z
1/2-x,-y,1/2-z
1/4+x,3/4+y,1/2-z
1/2-x,3/4+y,1/4+z
1/4+x,-y,1/4+z
1/2+x,1/2+y,z
3/4-x,3/4-y,z
1/2+x,3/4-y,1/4-z
3/4-x,1/2+y,1/4-z
1/2-x,1/2-y,-z
1/4+x,1/4+y,-z
1/2-x,1/4+y,3/4+z
1/4+x,1/2-y,3/4+z
loop_
_atom_site_type_symbol
_atom_site_label
_atom_site_fract_x
_atom_site_fract_y
_atom_site_fract_z
Si Si1 0.375000 0.239542 0.875000
Si Si2 0.469921 0.298228 0.712454
Si Si3 0.381828 0.627887 0.744157
Si Si4 0.055967 0.293507 0.672973
Si Si5 0.983378 0.028804 0.690462
Si Si6 0.887224 0.538169 0.657285
O O1 0.444719 0.206568 0.833712
O O2 0.274430 0.277656 0.851998
O O3 0.500000 0.250000 0.750000
O O4 0.504737 0.354142 0.739043
O O5 0.338966 0.278838 0.697576
O O6 0.436555 0.660467 0.787723
O O7 0.456455 0.573728 0.730135
O O8 0.375846 0.668768 0.699585
O O9 0.125000 0.310994 0.625000
O O10 0.131521 0.238996 0.687951
O O11 0.924179 0.270891 0.667724
O O12 0.930381 0.053898 0.641611
#
# Coordination Sequence:
#
# PCOD9515938 Si02
#       6
#    16  32  32  32  32  32
#     4  10  22  44  69  88 146 174 218 291 348 400
#     4   9  21  40  61  95 133 172 221 280 340 396
#     4  11  22  38  68  98 130 176 237 269 343 412
#     4  10  23  43  66  93 138 175 224 281 339 403
#     4   9  21  44  63  93 137 174 217 286 337 397
#     4  10  22  43  66  98 130 179 225 278 341 409
#
# _framework density 22.836002000000001
#
# number of rings (size 3 to 8) (size 9 to 14) (size 15 to 20)
#    0.000    2.182    0.000    1.091    6.364    1.455 
#    9.818   10.909    0.000    0.000    0.000    0.000 
#    0.000    0.000    0.000    0.000    0.000    0.000 
#
# Total GULP energy -245847.512790 kJ/mol
# GULP energy per Si atom -5587.443473 kJ/mol
# Density = 2.278403 g / cm^3
# Si number density = 22.836002 Si / 1000 Ang^3
#
#
#
# Elastic Constant Matrix: (Units=GPa)
#
#
# Indices 1 2 3 4 5 6 
#
# 1 80.6763 18.8608 22.3183 0.0000 0.0000 0.0000
# 2 18.8608 86.4821 69.6735 0.0000 0.0000 0.0000
# 3 22.3183 69.6735 110.9681 0.0000 0.0000 0.0000
# 4 0.0000 0.0000 0.0000 24.5535 0.0000 0.0000
# 5 0.0000 0.0000 0.0000 0.0000 13.2243 0.0000
# 6 0.0000 0.0000 0.0000 0.0000 0.0000 1.1872
#
#
#
# Elastic Compliance Matrix: (Units=1/GPa)
#
#
# Indices 1 2 3 4 5 6 
#
# 1 0.013221 -0.001500 -0.001717 0.000000 0.000000 0.000000
# 2 -0.001500 0.023569 -0.014497 0.000000 0.000000 0.000000
# 3 -0.001717 -0.014497 0.018459 0.000000 0.000000 0.000000
# 4 0.000000 0.000000 0.000000 0.040727 0.000000 0.000000
# 5 0.000000 0.000000 0.000000 0.000000 0.075618 0.000000
# 6 0.000000 0.000000 0.000000 0.000000 0.000000 0.842312
#
#
# Mechanical properties :
#
#
# Convention : Reuss Voigt Hill
#
# Bulk Modulus (GPa) = 50.45032 55.53683 52.99358
# Shear Modulus (GPa) = 4.73511 18.94460 11.83985
#
# Velocity S-wave (km/s) = 1.44154 2.88339 2.27947
# Velocity P-wave (km/s) = 4.99110 5.95465 5.49404
#
# Compressibility (1/GPa) = 0.01982148
#
# Stress axis : x y z
#
# Youngs Moduli (GPa) = 75.63764 42.42774 54.17353
#
# Poissons Ratio (x) = 0.06363 0.09304
# Poissons Ratio (y) = 0.11344 0.78535
# Poissons Ratio (z) = 0.12990 0.61507
#
# Static dielectric constant tensor:
#      x y z
#    x 1.869590 0.000000 0.000000 
#    y 0.000000 1.824560 0.000000 
#    z 0.000000 0.000000 1.891420 
# 
# From -- ./inp_files/19668.got.cif
#   From: 2010.05.17/outbox.cif.g08.bks.cpg/sg70_10_cif.got.tgz:19668.got - 2010.06.03 15:57:51.
