data_PCOD9515145
_publ_section_title
;
Structure prediction by ZEFSAII (Michael W. Deem and Ramdas Pophale) SiO2 
 PCOD9515145
Probable space group: F D D D
;
_chemical_formula_sum "Si O2"
_cell_formula_units_Z 112
_cell_length_a 12.166011
_cell_length_b 13.220968
_cell_length_c 28.022136
_cell_angle_alpha 90.000000
_cell_angle_beta 90.000000
_cell_angle_gamma 90.000000
_cell_volume 4507.260876
_symmetry_space_group_name_H-M "F D D D"
_symmetry_group_IT_number 70
_space_group.IT_coordinate_system_code '2'
_symmetry_cell_setting 'orthorhombic'
loop_
_space_group_symop_operation_xyz
x,y,z
1/4-x,1/4-y,z
x,1/4-y,1/4-z
1/4-x,y,1/4-z
-x,-y,-z
3/4+x,3/4+y,-z
-x,3/4+y,3/4+z
3/4+x,-y,3/4+z
x,1/2+y,1/2+z
1/4-x,3/4-y,1/2+z
x,3/4-y,3/4-z
1/4-x,1/2+y,3/4-z
-x,1/2-y,1/2-z
3/4+x,1/4+y,1/2-z
-x,1/4+y,1/4+z
3/4+x,1/2-y,1/4+z
1/2+x,y,1/2+z
3/4-x,1/4-y,1/2+z
1/2+x,1/4-y,3/4-z
3/4-x,y,3/4-z
1/2-x,-y,1/2-z
1/4+x,3/4+y,1/2-z
1/2-x,3/4+y,1/4+z
1/4+x,-y,1/4+z
1/2+x,1/2+y,z
3/4-x,3/4-y,z
1/2+x,3/4-y,1/4-z
3/4-x,1/2+y,1/4-z
1/2-x,1/2-y,-z
1/4+x,1/4+y,-z
1/2-x,1/4+y,3/4+z
1/4+x,1/2-y,3/4+z
loop_
_atom_site_type_symbol
_atom_site_label
_atom_site_fract_x
_atom_site_fract_y
_atom_site_fract_z
Si Si1 0.034309 0.039291 0.862294
Si Si2 0.744840 0.353060 0.451668
Si Si3 0.125000 0.625000 0.227365
Si Si4 0.651543 0.400233 0.711862
O O1 0.125000 0.125000 0.866369
O O2 0.932346 0.091761 0.835644
O O3 0.021775 0.985189 0.913155
O O4 0.062059 0.949481 0.824788
O O5 0.687674 0.349158 0.503069
O O6 0.875000 0.375000 0.455713
O O7 0.234007 0.609207 0.258881
O O8 0.116245 0.516175 0.201589
#
# Coordination Sequence:
#
# PCOD9515145 Si02
#       4
#    32  32  16  32
#     4  11  22  47  78 109 158 204 265 339 391 480
#     4  11  26  48  72 115 166 205 261 337 408 487
#     4  10  20  40  78 119 144 198 278 330 400 493
#     4  11  20  44  78 113 156 211 261 335 410 480
#
# _framework density 24.848794000000002
#
# number of rings (size 3 to 8) (size 9 to 14) (size 15 to 20)
#    0.000    1.143    4.286    3.429    0.000    1.143 
#   10.286    2.857    0.000    3.429    0.000    0.000 
#    0.000    0.000    0.000    0.000    0.000    0.000 
#
# Total GULP energy -156720.013296 kJ/mol
# GULP energy per Si atom -5597.143332 kJ/mol
# Density = 2.479224 g / cm^3
# Si number density = 24.848794 Si / 1000 Ang^3
#
#
#
# Elastic Constant Matrix: (Units=GPa)
#
#
# Indices 1 2 3 4 5 6 
#
# 1 135.4785 74.7144 65.4591 0.0000 0.0000 0.0000
# 2 74.7144 224.1184 104.6829 0.0000 0.0000 0.0000
# 3 65.4591 104.6829 189.9464 0.0000 0.0000 0.0000
# 4 0.0000 0.0000 0.0000 19.2663 0.0000 0.0000
# 5 0.0000 0.0000 0.0000 0.0000 14.6456 0.0000
# 6 0.0000 0.0000 0.0000 0.0000 0.0000 56.5224
#
#
#
# Elastic Compliance Matrix: (Units=1/GPa)
#
#
# Indices 1 2 3 4 5 6 
#
# 1 0.009620 -0.002233 -0.002084 0.000000 0.000000 0.000000
# 2 -0.002233 0.006527 -0.002828 0.000000 0.000000 0.000000
# 3 -0.002084 -0.002828 0.007541 0.000000 0.000000 0.000000
# 4 0.000000 0.000000 0.000000 0.051904 0.000000 0.000000
# 5 0.000000 0.000000 0.000000 0.000000 0.068280 0.000000
# 6 0.000000 0.000000 0.000000 0.000000 0.000000 0.017692
#
#
# Mechanical properties :
#
#
# Convention : Reuss Voigt Hill
#
# Bulk Modulus (GPa) = 106.40814 115.47290 110.94052
# Shear Modulus (GPa) = 27.93478 38.39931 33.16704
#
# Velocity S-wave (km/s) = 3.35653 3.93532 3.65739
# Velocity P-wave (km/s) = 7.61163 8.19879 7.91066
#
# Compressibility (1/GPa) = 0.00939778
#
# Stress axis : x y z
#
# Youngs Moduli (GPa) = 103.94936 153.20445 132.60348
#
# Poissons Ratio (x) = 0.34218 0.27639
# Poissons Ratio (y) = 0.23217 0.37495
# Poissons Ratio (z) = 0.21667 0.43320
#
# Static dielectric constant tensor:
#      x y z
#    x 1.999220 0.000000 0.000000 
#    y 0.000000 2.102510 0.000000 
#    z 0.000000 0.000000 1.930940 
# 
# From -- ./inp_files/64370.got.cif
#   From: 2010.05.17/outbox.cif.g08.bks.cpg/sg70_33_cif.got.tgz:64370.got - 2010.06.03 15:57:51.
