data_PCOD9515557
_publ_section_title
;
Structure prediction by ZEFSAII (Michael W. Deem and Ramdas Pophale) SiO2 
 PCOD9515557
Probable space group: F D D D
;
_chemical_formula_sum "Si O2"
_cell_formula_units_Z 104
_cell_length_a 27.830730
_cell_length_b 9.741729
_cell_length_c 17.249185
_cell_angle_alpha 90.000000
_cell_angle_beta 90.000000
_cell_angle_gamma 90.000000
_cell_volume 4676.589197
_symmetry_space_group_name_H-M "F D D D"
_symmetry_group_IT_number 70
_space_group.IT_coordinate_system_code '2'
_symmetry_cell_setting 'orthorhombic'
loop_
_space_group_symop_operation_xyz
x,y,z
1/4-x,1/4-y,z
x,1/4-y,1/4-z
1/4-x,y,1/4-z
-x,-y,-z
3/4+x,3/4+y,-z
-x,3/4+y,3/4+z
3/4+x,-y,3/4+z
x,1/2+y,1/2+z
1/4-x,3/4-y,1/2+z
x,3/4-y,3/4-z
1/4-x,1/2+y,3/4-z
-x,1/2-y,1/2-z
3/4+x,1/4+y,1/2-z
-x,1/4+y,1/4+z
3/4+x,1/2-y,1/4+z
1/2+x,y,1/2+z
3/4-x,1/4-y,1/2+z
1/2+x,1/4-y,3/4-z
3/4-x,y,3/4-z
1/2-x,-y,1/2-z
1/4+x,3/4+y,1/2-z
1/2-x,3/4+y,1/4+z
1/4+x,-y,1/4+z
1/2+x,1/2+y,z
3/4-x,3/4-y,z
1/2+x,3/4-y,1/4-z
3/4-x,1/2+y,1/4-z
1/2-x,1/2-y,-z
1/4+x,1/4+y,-z
1/2-x,1/4+y,3/4+z
1/4+x,1/2-y,3/4+z
loop_
_atom_site_type_symbol
_atom_site_label
_atom_site_fract_x
_atom_site_fract_y
_atom_site_fract_z
Si Si1 0.375000 0.375000 0.375000
Si Si2 0.460822 0.106264 0.533130
Si Si3 0.737401 0.396350 0.965604
Si Si4 0.139595 0.901069 0.042496
O O1 0.352134 0.260908 0.433418
O O2 0.467479 0.125000 0.625000
O O3 0.471521 0.245797 0.486261
O O4 0.405438 0.074698 0.513653
O O5 0.500000 0.000000 0.500000
O O6 0.730408 0.375000 0.875000
O O7 0.750000 0.250000 0.000000
O O8 0.688707 0.450972 0.005385
O O9 0.125000 0.964616 0.125000
#
# Coordination Sequence:
#
# PCOD9515557 Si02
#       4
#     8  32  32  32
#     4   8  20  36  72  94 128 164 230 278 332 388
#     4  12  26  44  65 100 141 179 220 281 347 405
#     4  12  25  43  71 101 132 182 237 280 334 409
#     4  10  21  41  67  99 132 171 225 286 337 391
#
# _framework density 22.238430999999999
#
# number of rings (size 3 to 8) (size 9 to 14) (size 15 to 20)
#    0.923    0.000    0.000    8.308    4.308    1.231 
#    0.000    9.231    0.000    0.000    0.000    0.000 
#    0.000    0.000    0.000    0.000    0.000    0.000 
#
# Total GULP energy -145254.961255 kJ/mol
# GULP energy per Si atom -5586.729279 kJ/mol
# Density = 2.218782 g / cm^3
# Si number density = 22.238431 Si / 1000 Ang^3
#
#
#
# Elastic Constant Matrix: (Units=GPa)
#
#
# Indices 1 2 3 4 5 6 
#
# 1 122.8658 -9.9104 30.8733 0.0000 0.0000 0.0000
# 2 -9.9104 72.0048 -6.5688 0.0000 0.0000 0.0000
# 3 30.8733 -6.5688 172.4380 0.0000 0.0000 0.0000
# 4 0.0000 0.0000 0.0000 18.0574 0.0000 0.0000
# 5 0.0000 0.0000 0.0000 0.0000 32.7346 0.0000
# 6 0.0000 0.0000 0.0000 0.0000 0.0000 30.7987
#
#
#
# Elastic Compliance Matrix: (Units=1/GPa)
#
#
# Indices 1 2 3 4 5 6 
#
# 1 0.008600 0.001047 -0.001500 0.000000 0.000000 0.000000
# 2 0.001047 0.014064 0.000348 0.000000 0.000000 0.000000
# 3 -0.001500 0.000348 0.006081 0.000000 0.000000 0.000000
# 4 0.000000 0.000000 0.000000 0.055379 0.000000 0.000000
# 5 0.000000 0.000000 0.000000 0.000000 0.030549 0.000000
# 6 0.000000 0.000000 0.000000 0.000000 0.000000 0.032469
#
#
# Mechanical properties :
#
#
# Convention : Reuss Voigt Hill
#
# Bulk Modulus (GPa) = 35.04389 44.01076 39.52732
# Shear Modulus (GPa) = 31.87497 39.84580 35.86038
#
# Velocity S-wave (km/s) = 3.79004 4.23750 4.02000
# Velocity P-wave (km/s) = 5.91143 6.61629 6.27377
#
# Compressibility (1/GPa) = 0.02853565
#
# Stress axis : x y z
#
# Youngs Moduli (GPa) = 116.27509 71.10444 164.44671
#
# Poissons Ratio (x) = -0.07444 0.24666
# Poissons Ratio (y) = -0.12173 -0.05728
# Poissons Ratio (z) = 0.17440 -0.02477
#
# Static dielectric constant tensor:
#      x y z
#    x 1.828710 0.000000 0.000000 
#    y 0.000000 1.833400 0.000000 
#    z 0.000000 0.000000 1.770770 
# 
# From -- ./inp_files/38208.got.cif
#   From: 2010.05.17/outbox.cif.g08.bks.cpg/sg70_20_cif.got.tgz:38208.got - 2010.06.03 15:57:51.
