data_PCOD9515799
_publ_section_title
;
Structure prediction by ZEFSAII (Michael W. Deem and Ramdas Pophale) SiO2 
 PCOD9515799
Probable space group: F D D D
;
_chemical_formula_sum "Si O2"
_cell_formula_units_Z 176
_cell_length_a 24.009974
_cell_length_b 12.787613
_cell_length_c 29.694083
_cell_angle_alpha 90.000000
_cell_angle_beta 90.000000
_cell_angle_gamma 90.000000
_cell_volume 9116.981895
_symmetry_space_group_name_H-M "F D D D"
_symmetry_group_IT_number 70
_space_group.IT_coordinate_system_code '2'
_symmetry_cell_setting 'orthorhombic'
loop_
_space_group_symop_operation_xyz
x,y,z
1/4-x,1/4-y,z
x,1/4-y,1/4-z
1/4-x,y,1/4-z
-x,-y,-z
3/4+x,3/4+y,-z
-x,3/4+y,3/4+z
3/4+x,-y,3/4+z
x,1/2+y,1/2+z
1/4-x,3/4-y,1/2+z
x,3/4-y,3/4-z
1/4-x,1/2+y,3/4-z
-x,1/2-y,1/2-z
3/4+x,1/4+y,1/2-z
-x,1/4+y,1/4+z
3/4+x,1/2-y,1/4+z
1/2+x,y,1/2+z
3/4-x,1/4-y,1/2+z
1/2+x,1/4-y,3/4-z
3/4-x,y,3/4-z
1/2-x,-y,1/2-z
1/4+x,3/4+y,1/2-z
1/2-x,3/4+y,1/4+z
1/4+x,-y,1/4+z
1/2+x,1/2+y,z
3/4-x,3/4-y,z
1/2+x,3/4-y,1/4-z
3/4-x,1/2+y,1/4-z
1/2-x,1/2-y,-z
1/4+x,1/4+y,-z
1/2-x,1/4+y,3/4+z
1/4+x,1/2-y,3/4+z
loop_
_atom_site_type_symbol
_atom_site_label
_atom_site_fract_x
_atom_site_fract_y
_atom_site_fract_z
Si Si1 0.125000 0.125000 0.267317
Si Si2 0.135754 0.792441 0.338162
Si Si3 0.405747 0.145074 0.755810
Si Si4 0.489342 0.796470 0.556661
Si Si5 0.219306 0.856737 0.010299
Si Si6 0.785900 0.858503 0.596747
O O1 0.106296 0.230478 0.241447
O O2 0.179230 0.153155 0.296030
O O3 0.117148 0.875000 0.375000
O O4 0.161159 0.854532 0.295807
O O5 0.180223 0.712926 0.359514
O O6 0.082234 0.721331 0.326795
O O7 0.458834 0.107459 0.784072
O O8 0.346392 0.094412 0.768347
O O9 0.483224 0.685917 0.530685
O O10 0.493032 0.803356 0.610658
O O11 0.245098 0.894217 0.057327
O O12 0.250000 0.750000 0.000000
#
# Coordination Sequence:
#
# PCOD9515799 Si02
#       6
#    16  32  32  32  32  32
#     4  10  22  40  64  97 122 168 214 275 328 388
#     4  11  21  38  66  94 121 170 224 277 322 389
#     4  11  22  40  66  91 132 170 218 270 339 395
#     4  11  23  41  64  95 131 171 215 274 333 398
#     4  11  23  40  64  94 130 174 215 271 334 395
#     4  11  23  39  62  94 132 165 224 270 328 402
#
# _framework density 19.304635000000001
#
# number of rings (size 3 to 8) (size 9 to 14) (size 15 to 20)
#    0.000    1.091    3.636    4.909    0.000    1.455 
#    0.000    0.000    0.000    6.545    0.000    0.000 
#    0.000    0.000    0.000    0.000    0.000    0.000 
#
# Total GULP energy -245425.269312 kJ/mol
# GULP energy per Si atom -5577.847030 kJ/mol
# Density = 1.926070 g / cm^3
# Si number density = 19.304635 Si / 1000 Ang^3
#
#
#
# Elastic Constant Matrix: (Units=GPa)
#
#
# Indices 1 2 3 4 5 6 
#
# 1 78.5726 50.7020 27.0307 0.0000 0.0000 0.0000
# 2 50.7020 95.2792 22.3699 0.0000 0.0000 0.0000
# 3 27.0307 22.3699 83.4758 0.0000 0.0000 0.0000
# 4 0.0000 0.0000 0.0000 18.4930 0.0000 0.0000
# 5 0.0000 0.0000 0.0000 0.0000 30.2753 0.0000
# 6 0.0000 0.0000 0.0000 0.0000 0.0000 27.0746
#
#
#
# Elastic Compliance Matrix: (Units=1/GPa)
#
#
# Indices 1 2 3 4 5 6 
#
# 1 0.020548 -0.010001 -0.003974 0.000000 0.000000 0.000000
# 2 -0.010001 0.016068 -0.001067 0.000000 0.000000 0.000000
# 3 -0.003974 -0.001067 0.013552 0.000000 0.000000 0.000000
# 4 0.000000 0.000000 0.000000 0.054074 0.000000 0.000000
# 5 0.000000 0.000000 0.000000 0.000000 0.033030 0.000000
# 6 0.000000 0.000000 0.000000 0.000000 0.000000 0.036935
#
#
# Mechanical properties :
#
#
# Convention : Reuss Voigt Hill
#
# Bulk Modulus (GPa) = 49.79161 50.83698 50.31429
# Shear Modulus (GPa) = 23.69810 25.65025 24.67418
#
# Velocity S-wave (km/s) = 3.50749 3.64910 3.57900
# Velocity P-wave (km/s) = 6.50015 6.64423 6.57258
#
# Compressibility (1/GPa) = 0.02008370
#
# Stress axis : x y z
#
# Youngs Moduli (GPa) = 48.66676 62.23445 73.78861
#
# Poissons Ratio (x) = 0.62244 0.29320
# Poissons Ratio (y) = 0.48674 0.07876
# Poissons Ratio (z) = 0.19338 0.06643
#
# Static dielectric constant tensor:
#      x y z
#    x 1.669600 0.000000 0.000000 
#    y 0.000000 1.721700 0.000000 
#    z 0.000000 0.000000 1.711810 
# 
# From -- ./inp_files/19613.got.cif
#   From: 2010.05.17/outbox.cif.g08.bks.cpg/sg70_10_cif.got.tgz:19613.got - 2010.06.03 15:57:51.
