data_PCOD9515898
_publ_section_title
;
Structure prediction by ZEFSAII (Michael W. Deem and Ramdas Pophale) SiO2 
 PCOD9515898
Probable space group: F D D D
;
_chemical_formula_sum "Si O2"
_cell_formula_units_Z 160
_cell_length_a 25.417740
_cell_length_b 19.693431
_cell_length_c 14.691045
_cell_angle_alpha 90.000000
_cell_angle_beta 90.000000
_cell_angle_gamma 90.000000
_cell_volume 7353.786343
_symmetry_space_group_name_H-M "F D D D"
_symmetry_group_IT_number 70
_space_group.IT_coordinate_system_code '2'
_symmetry_cell_setting 'orthorhombic'
loop_
_space_group_symop_operation_xyz
x,y,z
1/4-x,1/4-y,z
x,1/4-y,1/4-z
1/4-x,y,1/4-z
-x,-y,-z
3/4+x,3/4+y,-z
-x,3/4+y,3/4+z
3/4+x,-y,3/4+z
x,1/2+y,1/2+z
1/4-x,3/4-y,1/2+z
x,3/4-y,3/4-z
1/4-x,1/2+y,3/4-z
-x,1/2-y,1/2-z
3/4+x,1/4+y,1/2-z
-x,1/4+y,1/4+z
3/4+x,1/2-y,1/4+z
1/2+x,y,1/2+z
3/4-x,1/4-y,1/2+z
1/2+x,1/4-y,3/4-z
3/4-x,y,3/4-z
1/2-x,-y,1/2-z
1/4+x,3/4+y,1/2-z
1/2-x,3/4+y,1/4+z
1/4+x,-y,1/4+z
1/2+x,1/2+y,z
3/4-x,3/4-y,z
1/2+x,3/4-y,1/4-z
3/4-x,1/2+y,1/4-z
1/2-x,1/2-y,-z
1/4+x,1/4+y,-z
1/2-x,1/4+y,3/4+z
1/4+x,1/2-y,3/4+z
loop_
_atom_site_type_symbol
_atom_site_label
_atom_site_fract_x
_atom_site_fract_y
_atom_site_fract_z
Si Si1 0.946120 0.625000 0.625000
Si Si2 0.039628 0.439071 0.983349
Si Si3 0.488981 0.208114 0.027309
Si Si4 0.294380 0.353604 0.778333
Si Si5 0.396712 0.742728 0.018215
Si Si6 0.125000 0.625000 0.875387
O O1 0.914873 0.691669 0.598486
O O2 0.985746 0.615426 0.539638
O O3 0.097116 0.453527 0.025047
O O4 0.016465 0.366766 0.016166
O O5 0.039920 0.444722 0.873099
O O6 0.000000 0.500000 0.000000
O O7 0.461716 0.272112 0.978814
O O8 0.550451 0.231710 0.033694
O O9 0.318615 0.375000 0.875000
O O10 0.325484 0.379615 0.692028
O O11 0.372112 0.809791 0.061711
#
# Coordination Sequence:
#
# PCOD9515898 Si02
#       6
#    16  32  32  32  32  16
#     4   8  20  39  58  82 126 165 212 264 334 392
#     4  11  23  41  68  93 132 176 228 286 336 413
#     4  10  22  42  65  95 132 173 228 280 342 414
#     4   9  20  39  60  93 128 164 217 275 331 403
#     4  11  22  39  64  94 127 177 219 274 349 410
#     4  12  21  34  66  93 130 170 222 262 353 402
#
# _framework density 21.757498999999999
#
# number of rings (size 3 to 8) (size 9 to 14) (size 15 to 20)
#    0.600    1.200    2.000    2.700    0.000    1.600 
#    0.000    2.000    4.400    0.000    0.000    0.000 
#    0.000    0.000    0.000    0.000    0.000    0.000 
#
# Total GULP energy -222788.512447 kJ/mol
# GULP energy per Si atom -5569.712811 kJ/mol
# Density = 2.170798 g / cm^3
# Si number density = 21.757499 Si / 1000 Ang^3
#
#
#
# Elastic Constant Matrix: (Units=GPa)
#
#
# Indices 1 2 3 4 5 6 
#
# 1 123.8145 38.3998 9.8029 0.0000 0.0000 0.0000
# 2 38.3998 124.5754 11.2624 0.0000 0.0000 0.0000
# 3 9.8029 11.2624 40.8445 0.0000 0.0000 0.0000
# 4 0.0000 0.0000 0.0000 32.3307 0.0000 0.0000
# 5 0.0000 0.0000 0.0000 0.0000 -217.1132 0.0000
# 6 0.0000 0.0000 0.0000 0.0000 0.0000 28.8115
#
#
#
# Elastic Compliance Matrix: (Units=1/GPa)
#
#
# Indices 1 2 3 4 5 6 
#
# 1 0.009011 -0.002648 -0.001433 0.000000 0.000000 0.000000
# 2 -0.002648 0.009011 -0.001849 0.000000 0.000000 0.000000
# 3 -0.001433 -0.001849 0.025337 0.000000 0.000000 0.000000
# 4 0.000000 0.000000 0.000000 0.030930 0.000000 0.000000
# 5 0.000000 0.000000 0.000000 0.000000 -0.004606 0.000000
# 6 0.000000 0.000000 0.000000 0.000000 0.000000 0.034708
#
#
# Mechanical properties :
#
#
# Convention : Reuss Voigt Hill
#
# Bulk Modulus (GPa) = 31.74676 45.35161 38.54919
# Shear Modulus (GPa) = 39.44746 -15.87623 11.78561
#
# Velocity S-wave (km/s) = 4.26261 -2.70421 2.32993
# Velocity P-wave (km/s) = 6.23292 3.33752 4.99942
#
# Compressibility (1/GPa) = 0.03149928
#
# Stress axis : x y z
#
# Youngs Moduli (GPa) = 110.97148 110.97885 39.46835
#
# Poissons Ratio (x) = 0.29389 0.05654
# Poissons Ratio (y) = 0.29387 0.07298
# Poissons Ratio (z) = 0.15897 0.20520
#
# Static dielectric constant tensor:
#      x y z
#    x 1.870110 0.000000 0.000000 
#    y 0.000000 2.262440 0.000000 
#    z 0.000000 0.000000 2.046650 
# 
# From -- ./inp_files/38484.got.cif
#   From: 2010.05.17/outbox.cif.g08.bks.cpg/sg70_20_cif.got.tgz:38484.got - 2010.06.03 15:57:51.
