data_PCOD9515935
_publ_section_title
;
Structure prediction by ZEFSAII (Michael W. Deem and Ramdas Pophale) SiO2 
 PCOD9515935
Probable space group: F D D D
;
_chemical_formula_sum "Si O2"
_cell_formula_units_Z 112
_cell_length_a 24.749171
_cell_length_b 12.418537
_cell_length_c 14.245897
_cell_angle_alpha 90.000000
_cell_angle_beta 90.000000
_cell_angle_gamma 90.000000
_cell_volume 4378.455014
_symmetry_space_group_name_H-M "F D D D"
_symmetry_group_IT_number 70
_space_group.IT_coordinate_system_code '2'
_symmetry_cell_setting 'orthorhombic'
loop_
_space_group_symop_operation_xyz
x,y,z
1/4-x,1/4-y,z
x,1/4-y,1/4-z
1/4-x,y,1/4-z
-x,-y,-z
3/4+x,3/4+y,-z
-x,3/4+y,3/4+z
3/4+x,-y,3/4+z
x,1/2+y,1/2+z
1/4-x,3/4-y,1/2+z
x,3/4-y,3/4-z
1/4-x,1/2+y,3/4-z
-x,1/2-y,1/2-z
3/4+x,1/4+y,1/2-z
-x,1/4+y,1/4+z
3/4+x,1/2-y,1/4+z
1/2+x,y,1/2+z
3/4-x,1/4-y,1/2+z
1/2+x,1/4-y,3/4-z
3/4-x,y,3/4-z
1/2-x,-y,1/2-z
1/4+x,3/4+y,1/2-z
1/2-x,3/4+y,1/4+z
1/4+x,-y,1/4+z
1/2+x,1/2+y,z
3/4-x,3/4-y,z
1/2+x,3/4-y,1/4-z
3/4-x,1/2+y,1/4-z
1/2-x,1/2-y,-z
1/4+x,1/4+y,-z
1/2-x,1/4+y,3/4+z
1/4+x,1/2-y,3/4+z
loop_
_atom_site_type_symbol
_atom_site_label
_atom_site_fract_x
_atom_site_fract_y
_atom_site_fract_z
Si Si1 0.077911 0.457673 0.203162
Si Si2 0.125000 0.125000 0.852967
Si Si3 0.461018 0.222473 0.063984
Si Si4 0.811362 0.994378 0.862053
O O1 0.125000 0.458837 0.125000
O O2 0.099433 0.531035 0.287992
O O3 0.060068 0.332095 0.221753
O O4 0.023143 0.507981 0.162599
O O5 0.172568 0.074118 0.915851
O O6 0.439214 0.125000 0.125000
O O7 0.459564 0.195090 0.954503
O O8 0.786857 0.875000 0.875000
O O9 0.875000 0.979944 0.875000
#
# Coordination Sequence:
#
# PCOD9515935 Si02
#       4
#    32  16  32  32
#     4  11  24  43  69 100 136 175 221 276 335 397
#     4  12  25  42  71 104 130 174 232 276 331 402
#     4  12  25  43  69  99 133 174 222 277 334 397
#     4  10  22  43  65  90 133 178 215 269 334 391
#
# _framework density 25.579799000000001
#
# number of rings (size 3 to 8) (size 9 to 14) (size 15 to 20)
#    0.000    0.857    0.000    9.000    0.000    4.571 
#    0.000    8.571    0.000    0.000    0.000    0.000 
#    0.000    0.000    0.000    0.000    0.000    0.000 
#
# Total GULP energy -156522.788368 kJ/mol
# GULP energy per Si atom -5590.099585 kJ/mol
# Density = 2.552158 g / cm^3
# Si number density = 25.579799 Si / 1000 Ang^3
#
#
#
# Elastic Constant Matrix: (Units=GPa)
#
#
# Indices 1 2 3 4 5 6 
#
# 1 149.4930 31.0688 25.8063 0.0000 0.0000 0.0000
# 2 31.0688 142.6110 36.9835 0.0000 0.0000 0.0000
# 3 25.8063 36.9835 75.4900 0.0000 0.0000 0.0000
# 4 0.0000 0.0000 0.0000 109.1803 0.0000 0.0000
# 5 0.0000 0.0000 0.0000 0.0000 33.9047 0.0000
# 6 0.0000 0.0000 0.0000 0.0000 0.0000 20.9101
#
#
#
# Elastic Compliance Matrix: (Units=1/GPa)
#
#
# Indices 1 2 3 4 5 6 
#
# 1 0.007249 -0.001073 -0.001953 0.000000 0.000000 0.000000
# 2 -0.001073 0.008191 -0.003646 0.000000 0.000000 0.000000
# 3 -0.001953 -0.003646 0.015701 0.000000 0.000000 0.000000
# 4 0.000000 0.000000 0.000000 0.009159 0.000000 0.000000
# 5 0.000000 0.000000 0.000000 0.000000 0.029494 0.000000
# 6 0.000000 0.000000 0.000000 0.000000 0.000000 0.047824
#
#
# Mechanical properties :
#
#
# Convention : Reuss Voigt Hill
#
# Bulk Modulus (GPa) = 56.18667 61.70123 58.94395
# Shear Modulus (GPa) = 36.52437 51.04806 43.78621
#
# Velocity S-wave (km/s) = 3.78280 4.47210 4.14182
# Velocity P-wave (km/s) = 6.41034 7.13020 6.77983
#
# Compressibility (1/GPa) = 0.01779782
#
# Stress axis : x y z
#
# Youngs Moduli (GPa) = 137.94394 122.07879 63.69176
#
# Poissons Ratio (x) = 0.13099 0.12436
# Poissons Ratio (y) = 0.14801 0.23224
# Poissons Ratio (z) = 0.26934 0.44513
#
# Static dielectric constant tensor:
#      x y z
#    x 2.139270 0.000000 0.000000 
#    y 0.000000 2.174920 0.000000 
#    z 0.000000 0.000000 2.154410 
# 
# From -- ./inp_files/15024.got.cif
#   From: 2010.05.17/outbox.cif.g08.bks.cpg/sg70_8_cif.got.tgz:15024.got - 2010.06.03 15:57:51.
