data_PCOD9515034
_publ_section_title
;
Structure prediction by ZEFSAII (Michael W. Deem and Ramdas Pophale) SiO2 
 PCOD9515034
Probable space group: F D D D
;
_chemical_formula_sum "Si O2"
_cell_formula_units_Z 160
_cell_length_a 23.400908
_cell_length_b 19.589304
_cell_length_c 17.782263
_cell_angle_alpha 90.000000
_cell_angle_beta 90.000000
_cell_angle_gamma 90.000000
_cell_volume 8151.522738
_symmetry_space_group_name_H-M "F D D D"
_symmetry_group_IT_number 70
_space_group.IT_coordinate_system_code '2'
_symmetry_cell_setting 'orthorhombic'
loop_
_space_group_symop_operation_xyz
x,y,z
1/4-x,1/4-y,z
x,1/4-y,1/4-z
1/4-x,y,1/4-z
-x,-y,-z
3/4+x,3/4+y,-z
-x,3/4+y,3/4+z
3/4+x,-y,3/4+z
x,1/2+y,1/2+z
1/4-x,3/4-y,1/2+z
x,3/4-y,3/4-z
1/4-x,1/2+y,3/4-z
-x,1/2-y,1/2-z
3/4+x,1/4+y,1/2-z
-x,1/4+y,1/4+z
3/4+x,1/2-y,1/4+z
1/2+x,y,1/2+z
3/4-x,1/4-y,1/2+z
1/2+x,1/4-y,3/4-z
3/4-x,y,3/4-z
1/2-x,-y,1/2-z
1/4+x,3/4+y,1/2-z
1/2-x,3/4+y,1/4+z
1/4+x,-y,1/4+z
1/2+x,1/2+y,z
3/4-x,3/4-y,z
1/2+x,3/4-y,1/4-z
3/4-x,1/2+y,1/4-z
1/2-x,1/2-y,-z
1/4+x,1/4+y,-z
1/2-x,1/4+y,3/4+z
1/4+x,1/2-y,3/4+z
loop_
_atom_site_type_symbol
_atom_site_label
_atom_site_fract_x
_atom_site_fract_y
_atom_site_fract_z
Si Si1 0.600534 0.733180 0.411407
Si Si2 0.294534 0.400395 0.108832
Si Si3 0.418260 0.188742 0.435631
Si Si4 0.301523 0.408443 0.794510
Si Si5 0.669412 0.802970 0.987367
O O1 0.661420 0.694261 0.408295
O O2 0.552450 0.677650 0.386907
O O3 0.582002 0.765539 0.489625
O O4 0.605781 0.788375 0.344741
O O5 0.230277 0.427410 0.102309
O O6 0.315766 0.394526 0.022281
O O7 0.375000 0.218140 0.375000
O O8 0.395335 0.114967 0.464256
O O9 0.310187 0.375000 0.875000
O O10 0.330684 0.481744 0.782238
O O11 0.234576 0.424509 0.780454
#
# Coordination Sequence:
#
# PCOD9515034 Si02
#       5
#    32  32  32  32  32
#     4  10  20  39  59  80 119 158 188 238 305 357
#     4   9  21  38  57  81 114 156 195 237 296 363
#     4  11  23  36  57  87 114 150 203 252 292 347
#     4   9  16  30  53  81 113 147 183 226 281 347
#     4   9  18  31  51  80 112 144 180 231 290 338
#
# _framework density 19.628235
#
# number of rings (size 3 to 8) (size 9 to 14) (size 15 to 20)
#    0.000    2.400    0.000    4.200    0.000    4.000 
#    0.000    9.000    0.000    0.000    0.000    0.000 
#    0.000    0.000    0.000    0.000    0.000    0.000 
#
# Total GULP energy -223127.100625 kJ/mol
# GULP energy per Si atom -5578.177516 kJ/mol
# Density = 1.958356 g / cm^3
# Si number density = 19.628235 Si / 1000 Ang^3
#
#
#
# Elastic Constant Matrix: (Units=GPa)
#
#
# Indices 1 2 3 4 5 6 
#
# 1 81.9247 21.7091 29.9506 0.0000 0.0000 0.0000
# 2 21.7091 60.3337 37.4081 0.0000 0.0000 0.0000
# 3 29.9506 37.4081 110.3785 0.0000 0.0000 0.0000
# 4 0.0000 0.0000 0.0000 23.5173 0.0000 0.0000
# 5 0.0000 0.0000 0.0000 0.0000 17.7505 0.0000
# 6 0.0000 0.0000 0.0000 0.0000 0.0000 22.7793
#
#
#
# Elastic Compliance Matrix: (Units=1/GPa)
#
#
# Indices 1 2 3 4 5 6 
#
# 1 0.014086 -0.003416 -0.002664 0.000000 0.000000 0.000000
# 2 -0.003416 0.021812 -0.006465 0.000000 0.000000 0.000000
# 3 -0.002664 -0.006465 0.011974 0.000000 0.000000 0.000000
# 4 0.000000 0.000000 0.000000 0.042522 0.000000 0.000000
# 5 0.000000 0.000000 0.000000 0.000000 0.056336 0.000000
# 6 0.000000 0.000000 0.000000 0.000000 0.000000 0.043899
#
#
# Mechanical properties :
#
#
# Convention : Reuss Voigt Hill
#
# Bulk Modulus (GPa) = 43.89833 47.86363 45.88098
# Shear Modulus (GPa) = 22.38991 23.71404 23.05197
#
# Velocity S-wave (km/s) = 3.38109 3.47963 3.43071
# Velocity P-wave (km/s) = 6.13643 6.37038 6.25450
#
# Compressibility (1/GPa) = 0.02277991
#
# Stress axis : x y z
#
# Youngs Moduli (GPa) = 70.99425 45.84544 83.51550
#
# Poissons Ratio (x) = 0.15663 0.22250
# Poissons Ratio (y) = 0.24254 0.53996
# Poissons Ratio (z) = 0.18914 0.29641
#
# Static dielectric constant tensor:
#      x y z
#    x 1.746160 0.000000 0.000000 
#    y 0.000000 1.727810 0.000000 
#    z 0.000000 0.000000 1.684750 
# 
# From -- ./inp_files/38469.got.cif
#   From: 2010.05.17/outbox.cif.g08.bks.cpg/sg70_20_cif.got.tgz:38469.got - 2010.06.03 15:57:51.
