data_PCOD9515663
_publ_section_title
;
Structure prediction by ZEFSAII (Michael W. Deem and Ramdas Pophale) SiO2 
 PCOD9515663
Probable space group: F D D D
;
_chemical_formula_sum "Si O2"
_cell_formula_units_Z 168
_cell_length_a 27.269231
_cell_length_b 14.900494
_cell_length_c 19.831401
_cell_angle_alpha 90.000000
_cell_angle_beta 90.000000
_cell_angle_gamma 90.000000
_cell_volume 8057.994267
_symmetry_space_group_name_H-M "F D D D"
_symmetry_group_IT_number 70
_space_group.IT_coordinate_system_code '2'
_symmetry_cell_setting 'orthorhombic'
loop_
_space_group_symop_operation_xyz
x,y,z
1/4-x,1/4-y,z
x,1/4-y,1/4-z
1/4-x,y,1/4-z
-x,-y,-z
3/4+x,3/4+y,-z
-x,3/4+y,3/4+z
3/4+x,-y,3/4+z
x,1/2+y,1/2+z
1/4-x,3/4-y,1/2+z
x,3/4-y,3/4-z
1/4-x,1/2+y,3/4-z
-x,1/2-y,1/2-z
3/4+x,1/4+y,1/2-z
-x,1/4+y,1/4+z
3/4+x,1/2-y,1/4+z
1/2+x,y,1/2+z
3/4-x,1/4-y,1/2+z
1/2+x,1/4-y,3/4-z
3/4-x,y,3/4-z
1/2-x,-y,1/2-z
1/4+x,3/4+y,1/2-z
1/2-x,3/4+y,1/4+z
1/4+x,-y,1/4+z
1/2+x,1/2+y,z
3/4-x,3/4-y,z
1/2+x,3/4-y,1/4-z
3/4-x,1/2+y,1/4-z
1/2-x,1/2-y,-z
1/4+x,1/4+y,-z
1/2-x,1/4+y,3/4+z
1/4+x,1/2-y,3/4+z
loop_
_atom_site_type_symbol
_atom_site_label
_atom_site_fract_x
_atom_site_fract_y
_atom_site_fract_z
Si Si1 0.079093 0.992917 0.230904
Si Si2 0.558822 0.980714 0.880250
Si Si3 0.340092 0.604138 0.438624
Si Si4 0.081398 0.965757 0.830319
Si Si5 0.749643 0.355936 0.651969
Si Si6 0.875000 0.375000 0.375000
O O1 0.070011 0.022688 0.306544
O O2 0.126450 0.928776 0.225303
O O3 0.031625 0.934842 0.212707
O O4 0.090433 0.067082 0.174477
O O5 0.546296 0.875000 0.875000
O O6 0.611014 0.986516 0.916275
O O7 0.517901 0.043013 0.912854
O O8 0.375000 0.572590 0.375000
O O9 0.322736 0.542105 0.499903
O O10 0.290858 0.644134 0.406887
O O11 0.073486 0.875000 0.875000
O O12 0.046139 0.042215 0.859241
#
# Coordination Sequence:
#
# PCOD9515663 Si02
#       6
#    32  32  32  32  32   8
#     4  11  23  43  64 101 135 182 223 276 351 414
#     4  11  24  45  68  93 137 182 229 284 344 403
#     4  10  21  45  64  92 143 175 221 289 338 414
#     4  11  23  40  66  99 138 181 225 286 351 415
#     4  11  24  40  69 100 132 175 240 282 338 418
#     4  12  24  40  72  96 150 180 214 280 372 408
#
# _framework density 20.848860999999999
#
# number of rings (size 3 to 8) (size 9 to 14) (size 15 to 20)
#    0.000    1.143    6.667    1.714    4.000    1.524 
#    0.000    0.000    0.000    1.143    0.000    0.000 
#    0.000    0.000    0.000    0.000    0.000    0.000 
#
# Total GULP energy -234317.062675 kJ/mol
# GULP energy per Si atom -5578.977683 kJ/mol
# Density = 2.080141 g / cm^3
# Si number density = 20.848861 Si / 1000 Ang^3
#
#
#
# Elastic Constant Matrix: (Units=GPa)
#
#
# Indices 1 2 3 4 5 6 
#
# 1 82.9124 60.3774 0.7284 0.0000 0.0000 0.0000
# 2 60.3774 81.6297 17.6732 0.0000 0.0000 0.0000
# 3 0.7284 17.6732 112.9432 0.0000 0.0000 0.0000
# 4 0.0000 0.0000 0.0000 4.4242 0.0000 0.0000
# 5 0.0000 0.0000 0.0000 0.0000 -6.6983 0.0000
# 6 0.0000 0.0000 0.0000 0.0000 0.0000 25.9185
#
#
#
# Elastic Compliance Matrix: (Units=1/GPa)
#
#
# Indices 1 2 3 4 5 6 
#
# 1 0.027131 -0.020732 0.003069 0.000000 0.000000 0.000000
# 2 -0.020732 0.028522 -0.004329 0.000000 0.000000 0.000000
# 3 0.003069 -0.004329 0.009512 0.000000 0.000000 0.000000
# 4 0.000000 0.000000 0.000000 0.226031 0.000000 0.000000
# 5 0.000000 0.000000 0.000000 0.000000 -0.149292 0.000000
# 6 0.000000 0.000000 0.000000 0.000000 0.000000 0.038582
#
#
# Mechanical properties :
#
#
# Convention : Reuss Voigt Hill
#
# Bulk Modulus (GPa) = 47.21334 48.33815 47.77574
# Shear Modulus (GPa) = 21.59534 17.97596 19.78565
#
# Velocity S-wave (km/s) = 3.22188 2.93952 3.08393
# Velocity P-wave (km/s) = 6.04445 5.89545 5.97042
#
# Compressibility (1/GPa) = 0.02118046
#
# Stress axis : x y z
#
# Youngs Moduli (GPa) = 36.85786 35.06029 105.13389
#
# Poissons Ratio (x) = 0.72687 -0.32267
# Poissons Ratio (y) = 0.76414 0.45517
# Poissons Ratio (z) = -0.11312 0.15179
#
# Static dielectric constant tensor:
#      x y z
#    x 1.718620 0.000000 0.000000 
#    y 0.000000 1.798080 0.000000 
#    z 0.000000 0.000000 1.804740 
# 
# From -- ./inp_files/46783.got.cif
#   From: 2010.05.17/outbox.cif.g08.bks.cpg/sg70_24_cif.got.tgz:46783.got - 2010.06.03 15:57:51.
