data_PCOD9515259
_publ_section_title
;
Structure prediction by ZEFSAII (Michael W. Deem and Ramdas Pophale) SiO2 
 PCOD9515259
Probable space group: F D D D
;
_chemical_formula_sum "Si O2"
_cell_formula_units_Z 96
_cell_length_a 15.061509
_cell_length_b 26.198353
_cell_length_c 10.322220
_cell_angle_alpha 90.000000
_cell_angle_beta 90.000000
_cell_angle_gamma 90.000000
_cell_volume 4073.011031
_symmetry_space_group_name_H-M "F D D D"
_symmetry_group_IT_number 70
_space_group.IT_coordinate_system_code '2'
_symmetry_cell_setting 'orthorhombic'
loop_
_space_group_symop_operation_xyz
x,y,z
1/4-x,1/4-y,z
x,1/4-y,1/4-z
1/4-x,y,1/4-z
-x,-y,-z
3/4+x,3/4+y,-z
-x,3/4+y,3/4+z
3/4+x,-y,3/4+z
x,1/2+y,1/2+z
1/4-x,3/4-y,1/2+z
x,3/4-y,3/4-z
1/4-x,1/2+y,3/4-z
-x,1/2-y,1/2-z
3/4+x,1/4+y,1/2-z
-x,1/4+y,1/4+z
3/4+x,1/2-y,1/4+z
1/2+x,y,1/2+z
3/4-x,1/4-y,1/2+z
1/2+x,1/4-y,3/4-z
3/4-x,y,3/4-z
1/2-x,-y,1/2-z
1/4+x,3/4+y,1/2-z
1/2-x,3/4+y,1/4+z
1/4+x,-y,1/4+z
1/2+x,1/2+y,z
3/4-x,3/4-y,z
1/2+x,3/4-y,1/4-z
3/4-x,1/2+y,1/4-z
1/2-x,1/2-y,-z
1/4+x,1/4+y,-z
1/2-x,1/4+y,3/4+z
1/4+x,1/2-y,3/4+z
loop_
_atom_site_type_symbol
_atom_site_label
_atom_site_fract_x
_atom_site_fract_y
_atom_site_fract_z
Si Si1 0.848302 0.931242 0.051714
Si Si2 0.271292 0.681037 0.062757
Si Si3 0.549421 0.495249 0.788924
O O1 0.875000 0.875000 0.016286
O O2 0.788015 0.927072 0.183841
O O3 0.785744 0.959447 0.950270
O O4 0.820339 0.783578 0.095084
O O5 0.282643 0.625000 0.125000
O O6 0.222685 0.718060 0.166283
O O7 0.364760 0.708281 0.030292
#
# Coordination Sequence:
#
# PCOD9515259 Si02
#       3
#    32  32  32
#     4  11  19  32  55  82 114 143 185 224 279 321
#     4  11  19  32  55  82 114 143 185 224 279 321
#     4  10  21  34  52  83 114 147 182 233 268 327
#
# _framework density 23.569787000000002
#
# number of rings (size 3 to 8) (size 9 to 14) (size 15 to 20)
#    0.000    1.333    3.333    8.000    0.000    0.000 
#    0.000    0.000    0.000   13.000    0.000    0.000 
#    0.000    0.000    0.000    0.000    0.000    0.000 
#
# Total GULP energy -134485.373043 kJ/mol
# GULP energy per Si atom -5603.557210 kJ/mol
# Density = 2.351614 g / cm^3
# Si number density = 23.569787 Si / 1000 Ang^3
#
#
#
# Elastic Constant Matrix: (Units=GPa)
#
#
# Indices 1 2 3 4 5 6 
#
# 1 149.0605 101.2303 65.7251 0.0000 0.0000 0.0000
# 2 101.2303 255.4701 67.4846 0.0000 0.0000 0.0000
# 3 65.7251 67.4846 130.1499 0.0000 0.0000 0.0000
# 4 0.0000 0.0000 0.0000 8.2033 0.0000 0.0000
# 5 0.0000 0.0000 0.0000 0.0000 34.6410 0.0000
# 6 0.0000 0.0000 0.0000 0.0000 0.0000 33.1983
#
#
#
# Elastic Compliance Matrix: (Units=1/GPa)
#
#
# Indices 1 2 3 4 5 6 
#
# 1 0.010480 -0.003192 -0.003637 0.000000 0.000000 0.000000
# 2 -0.003192 0.005508 -0.001244 0.000000 0.000000 0.000000
# 3 -0.003637 -0.001244 0.010165 0.000000 0.000000 0.000000
# 4 0.000000 0.000000 0.000000 0.121902 0.000000 0.000000
# 5 0.000000 0.000000 0.000000 0.000000 0.028867 0.000000
# 6 0.000000 0.000000 0.000000 0.000000 0.000000 0.030122
#
#
# Mechanical properties :
#
#
# Convention : Reuss Voigt Hill
#
# Bulk Modulus (GPa) = 99.93257 111.50672 105.71965
# Shear Modulus (GPa) = 22.07239 35.22456 28.64848
#
# Velocity S-wave (km/s) = 3.06350 3.87004 3.49015
# Velocity P-wave (km/s) = 7.41647 8.20863 7.82258
#
# Compressibility (1/GPa) = 0.01000675
#
# Stress axis : x y z
#
# Youngs Moduli (GPa) = 95.41755 181.56185 98.37377
#
# Poissons Ratio (x) = 0.57954 0.35782
# Poissons Ratio (y) = 0.30457 0.12237
# Poissons Ratio (z) = 0.34707 0.22585
#
# Static dielectric constant tensor:
#      x y z
#    x 1.888990 0.000000 0.000000 
#    y 0.000000 1.837770 0.000000 
#    z 0.000000 0.000000 1.905450 
# 
# From -- ./inp_files/17078.got.cif
#   From: 2010.05.17/outbox.cif.g08.bks.cpg/sg70_9_cif.got.tgz:17078.got - 2010.06.03 15:57:51.
