data_PCOD9515730
_publ_section_title
;
Structure prediction by ZEFSAII (Michael W. Deem and Ramdas Pophale) SiO2 
 PCOD9515730
Probable space group: F D D D
;
_chemical_formula_sum "Si O2"
_cell_formula_units_Z 144
_cell_length_a 12.275385
_cell_length_b 23.434424
_cell_length_c 26.762345
_cell_angle_alpha 90.000000
_cell_angle_beta 90.000000
_cell_angle_gamma 90.000000
_cell_volume 7698.632175
_symmetry_space_group_name_H-M "F D D D"
_symmetry_group_IT_number 70
_space_group.IT_coordinate_system_code '2'
_symmetry_cell_setting 'orthorhombic'
loop_
_space_group_symop_operation_xyz
x,y,z
1/4-x,1/4-y,z
x,1/4-y,1/4-z
1/4-x,y,1/4-z
-x,-y,-z
3/4+x,3/4+y,-z
-x,3/4+y,3/4+z
3/4+x,-y,3/4+z
x,1/2+y,1/2+z
1/4-x,3/4-y,1/2+z
x,3/4-y,3/4-z
1/4-x,1/2+y,3/4-z
-x,1/2-y,1/2-z
3/4+x,1/4+y,1/2-z
-x,1/4+y,1/4+z
3/4+x,1/2-y,1/4+z
1/2+x,y,1/2+z
3/4-x,1/4-y,1/2+z
1/2+x,1/4-y,3/4-z
3/4-x,y,3/4-z
1/2-x,-y,1/2-z
1/4+x,3/4+y,1/2-z
1/2-x,3/4+y,1/4+z
1/4+x,-y,1/4+z
1/2+x,1/2+y,z
3/4-x,3/4-y,z
1/2+x,3/4-y,1/4-z
3/4-x,1/2+y,1/4-z
1/2-x,1/2-y,-z
1/4+x,1/4+y,-z
1/2-x,1/4+y,3/4+z
1/4+x,1/2-y,3/4+z
loop_
_atom_site_type_symbol
_atom_site_label
_atom_site_fract_x
_atom_site_fract_y
_atom_site_fract_z
Si Si1 0.732437 0.052700 0.712328
Si Si2 0.727297 0.429669 0.478034
Si Si3 0.777076 0.193906 0.841345
Si Si4 0.875000 0.667761 0.875000
Si Si5 0.314030 0.752488 0.639024
O O1 0.603551 0.063988 0.712362
O O2 0.791608 0.111499 0.728102
O O3 0.750000 0.000000 0.750000
O O4 0.772080 0.035045 0.657476
O O5 0.716959 0.457095 0.532885
O O6 0.659144 0.463056 0.436231
O O7 0.875000 0.218830 0.875000
O O8 0.800084 0.125748 0.843727
O O9 0.665018 0.211599 0.867373
O O10 0.787740 0.706667 0.846769
#
# Coordination Sequence:
#
# PCOD9515730 Si02
#       5
#    32  32  32  16  32
#     4  11  21  37  63  93 123 154 195 261 316 359
#     4  11  23  36  63  94 120 160 203 252 317 358
#     4  10  25  39  60  87 126 164 210 244 302 371
#     4  10  22  38  61  94 119 164 202 258 296 372
#     4  12  21  40  63  90 126 157 203 263 304 364
#
# _framework density 18.704622000000001
#
# number of rings (size 3 to 8) (size 9 to 14) (size 15 to 20)
#    0.667    0.444    4.444    2.667    3.111    2.667 
#    0.000    0.000    0.000    2.667    0.000    0.000 
#    0.000    0.000    0.000    0.000    0.000    0.000 
#
# Total GULP energy -200650.883366 kJ/mol
# GULP energy per Si atom -5573.635649 kJ/mol
# Density = 1.866205 g / cm^3
# Si number density = 18.704622 Si / 1000 Ang^3
#
#
#
# Elastic Constant Matrix: (Units=GPa)
#
#
# Indices 1 2 3 4 5 6 
#
# 1 75.8310 32.5325 39.9841 0.0000 0.0000 0.0000
# 2 32.5325 93.6654 61.7464 0.0000 0.0000 0.0000
# 3 39.9841 61.7464 137.9499 0.0000 0.0000 0.0000
# 4 0.0000 0.0000 0.0000 19.7172 0.0000 0.0000
# 5 0.0000 0.0000 0.0000 0.0000 18.2873 0.0000
# 6 0.0000 0.0000 0.0000 0.0000 0.0000 22.6081
#
#
#
# Elastic Compliance Matrix: (Units=1/GPa)
#
#
# Indices 1 2 3 4 5 6 
#
# 1 0.016394 -0.003634 -0.003125 0.000000 0.000000 0.000000
# 2 -0.003634 0.015951 -0.006086 0.000000 0.000000 0.000000
# 3 -0.003125 -0.006086 0.010879 0.000000 0.000000 0.000000
# 4 0.000000 0.000000 0.000000 0.050717 0.000000 0.000000
# 5 0.000000 0.000000 0.000000 0.000000 0.054683 0.000000
# 6 0.000000 0.000000 0.000000 0.000000 0.000000 0.044232
#
#
# Mechanical properties :
#
#
# Convention : Reuss Voigt Hill
#
# Bulk Modulus (GPa) = 57.03510 63.99691 60.51601
# Shear Modulus (GPa) = 22.28258 23.66808 22.97533
#
# Velocity S-wave (km/s) = 3.45525 3.56105 3.50855
# Velocity P-wave (km/s) = 6.81741 7.15520 6.98834
#
# Compressibility (1/GPa) = 0.01753306
#
# Stress axis : x y z
#
# Youngs Moduli (GPa) = 60.99766 62.69335 91.91995
#
# Poissons Ratio (x) = 0.22782 0.28727
# Poissons Ratio (y) = 0.22166 0.55945
# Poissons Ratio (z) = 0.19063 0.38157
#
# Static dielectric constant tensor:
#      x y z
#    x 1.617060 0.000000 0.000000 
#    y 0.000000 1.693330 0.000000 
#    z 0.000000 0.000000 1.660000 
# 
# From -- ./inp_files/57411.got.cif
#   From: 2010.05.17/outbox.cif.g08.bks.cpg/sg70_29_cif.got.tgz:57411.got - 2010.06.03 15:57:51.
