data_PCOD9515818
_publ_section_title
;
Structure prediction by ZEFSAII (Michael W. Deem and Ramdas Pophale) SiO2 
 PCOD9515818
Probable space group: F D D D
;
_chemical_formula_sum "Si O2"
_cell_formula_units_Z 136
_cell_length_a 17.474296
_cell_length_b 24.240448
_cell_length_c 13.922969
_cell_angle_alpha 90.000000
_cell_angle_beta 90.000000
_cell_angle_gamma 90.000000
_cell_volume 5897.557531
_symmetry_space_group_name_H-M "F D D D"
_symmetry_group_IT_number 70
_space_group.IT_coordinate_system_code '2'
_symmetry_cell_setting 'orthorhombic'
loop_
_space_group_symop_operation_xyz
x,y,z
1/4-x,1/4-y,z
x,1/4-y,1/4-z
1/4-x,y,1/4-z
-x,-y,-z
3/4+x,3/4+y,-z
-x,3/4+y,3/4+z
3/4+x,-y,3/4+z
x,1/2+y,1/2+z
1/4-x,3/4-y,1/2+z
x,3/4-y,3/4-z
1/4-x,1/2+y,3/4-z
-x,1/2-y,1/2-z
3/4+x,1/4+y,1/2-z
-x,1/4+y,1/4+z
3/4+x,1/2-y,1/4+z
1/2+x,y,1/2+z
3/4-x,1/4-y,1/2+z
1/2+x,1/4-y,3/4-z
3/4-x,y,3/4-z
1/2-x,-y,1/2-z
1/4+x,3/4+y,1/2-z
1/2-x,3/4+y,1/4+z
1/4+x,-y,1/4+z
1/2+x,1/2+y,z
3/4-x,3/4-y,z
1/2+x,3/4-y,1/4-z
3/4-x,1/2+y,1/4-z
1/2-x,1/2-y,-z
1/4+x,1/4+y,-z
1/2-x,1/4+y,3/4+z
1/4+x,1/2-y,3/4+z
loop_
_atom_site_type_symbol
_atom_site_label
_atom_site_fract_x
_atom_site_fract_y
_atom_site_fract_z
Si Si1 0.423867 0.625000 0.125000
Si Si2 0.367982 0.006321 0.181487
Si Si3 0.952996 0.404933 0.216238
Si Si4 0.625000 0.125000 0.125000
Si Si5 0.625000 0.962030 0.625000
Si Si6 0.779209 0.328896 0.704044
O O1 0.379173 0.682283 0.138967
O O2 0.478603 0.615282 0.217092
O O3 0.331614 0.006472 0.289279
O O4 0.443768 0.970615 0.207415
O O5 0.322424 0.969014 0.105523
O O6 0.875000 0.375000 0.253406
O O7 0.959585 0.384140 0.107987
O O8 0.568942 0.089031 0.193885
O O9 0.561059 0.930619 0.686180
#
# Coordination Sequence:
#
# PCOD9515818 Si02
#       6
#    16  32  32   8  16  32
#     4  12  23  41  72 109 150 193 254 330 392 462
#     4  11  24  42  72 111 154 198 261 332 400 469
#     4  10  22  40  69 110 142 194 257 320 395 468
#     4  12  24  54  82 104 164 228 264 312 414 508
#     4  12  24  42  74 112 156 194 262 338 396 466
#     4  11  24  47  76 110 155 212 265 328 402 483
#
# _framework density 23.060393999999999
#
# number of rings (size 3 to 8) (size 9 to 14) (size 15 to 20)
#    0.000    0.941    5.882    2.471    9.882    0.941 
#    0.000    2.353    0.000    0.000    0.000    0.000 
#    0.000    0.000    0.000    0.000    0.000    0.000 
#
# Total GULP energy -189580.133669 kJ/mol
# GULP energy per Si atom -5575.886284 kJ/mol
# Density = 2.300791 g / cm^3
# Si number density = 23.060394 Si / 1000 Ang^3
#
#
#
# Elastic Constant Matrix: (Units=GPa)
#
#
# Indices 1 2 3 4 5 6 
#
# 1 94.3819 32.1084 47.4626 0.0000 0.0000 0.0000
# 2 32.1084 167.0993 37.4856 0.0000 0.0000 0.0000
# 3 47.4626 37.4856 164.9138 0.0000 0.0000 0.0000
# 4 0.0000 0.0000 0.0000 30.5502 0.0000 0.0000
# 5 0.0000 0.0000 0.0000 0.0000 27.1666 0.0000
# 6 0.0000 0.0000 0.0000 0.0000 0.0000 15.9132
#
#
#
# Elastic Compliance Matrix: (Units=1/GPa)
#
#
# Indices 1 2 3 4 5 6 
#
# 1 0.012844 -0.001727 -0.003304 0.000000 0.000000 0.000000
# 2 -0.001727 0.006538 -0.000989 0.000000 0.000000 0.000000
# 3 -0.003304 -0.000989 0.007240 0.000000 0.000000 0.000000
# 4 0.000000 0.000000 0.000000 0.032733 0.000000 0.000000
# 5 0.000000 0.000000 0.000000 0.000000 0.036810 0.000000
# 6 0.000000 0.000000 0.000000 0.000000 0.000000 0.062841
#
#
# Mechanical properties :
#
#
# Convention : Reuss Voigt Hill
#
# Bulk Modulus (GPa) = 68.57866 73.38980 70.98423
# Shear Modulus (GPa) = 28.42416 35.34857 31.88636
#
# Velocity S-wave (km/s) = 3.51464 3.91943 3.72255
# Velocity P-wave (km/s) = 6.80247 7.23718 7.02319
#
# Compressibility (1/GPa) = 0.01458180
#
# Stress axis : x y z
#
# Youngs Moduli (GPa) = 77.85569 152.94780 138.13029
#
# Poissons Ratio (x) = 0.26412 0.45640
# Poissons Ratio (y) = 0.13444 0.13663
# Poissons Ratio (z) = 0.25724 0.15129
#
# Static dielectric constant tensor:
#      x y z
#    x 2.067590 0.000000 0.000000 
#    y 0.000000 1.944220 0.000000 
#    z 0.000000 0.000000 1.940320 
# 
# From -- ./inp_files/27504.got.cif
#   From: 2010.05.17/outbox.cif.g08.bks.cpg/sg70_14_cif.got.tgz:27504.got - 2010.06.03 15:57:51.
