data_PCOD9515953
_publ_section_title
;
Structure prediction by ZEFSAII (Michael W. Deem and Ramdas Pophale) SiO2 
 PCOD9515953
Probable space group: F D D D
;
_chemical_formula_sum "Si O2"
_cell_formula_units_Z 104
_cell_length_a 18.416890
_cell_length_b 27.925145
_cell_length_c 8.322346
_cell_angle_alpha 90.000000
_cell_angle_beta 90.000000
_cell_angle_gamma 90.000000
_cell_volume 4280.135308
_symmetry_space_group_name_H-M "F D D D"
_symmetry_group_IT_number 70
_space_group.IT_coordinate_system_code '2'
_symmetry_cell_setting 'orthorhombic'
loop_
_space_group_symop_operation_xyz
x,y,z
1/4-x,1/4-y,z
x,1/4-y,1/4-z
1/4-x,y,1/4-z
-x,-y,-z
3/4+x,3/4+y,-z
-x,3/4+y,3/4+z
3/4+x,-y,3/4+z
x,1/2+y,1/2+z
1/4-x,3/4-y,1/2+z
x,3/4-y,3/4-z
1/4-x,1/2+y,3/4-z
-x,1/2-y,1/2-z
3/4+x,1/4+y,1/2-z
-x,1/4+y,1/4+z
3/4+x,1/2-y,1/4+z
1/2+x,y,1/2+z
3/4-x,1/4-y,1/2+z
1/2+x,1/4-y,3/4-z
3/4-x,y,3/4-z
1/2-x,-y,1/2-z
1/4+x,3/4+y,1/2-z
1/2-x,3/4+y,1/4+z
1/4+x,-y,1/4+z
1/2+x,1/2+y,z
3/4-x,3/4-y,z
1/2+x,3/4-y,1/4-z
3/4-x,1/2+y,1/4-z
1/2-x,1/2-y,-z
1/4+x,1/4+y,-z
1/2-x,1/4+y,3/4+z
1/4+x,1/2-y,3/4+z
loop_
_atom_site_type_symbol
_atom_site_label
_atom_site_fract_x
_atom_site_fract_y
_atom_site_fract_z
Si Si1 0.538335 0.028573 0.648662
Si Si2 0.246377 0.684960 0.215741
Si Si3 0.792224 0.598811 0.884272
Si Si4 0.375000 0.875000 0.875000
O O1 0.625000 0.033932 0.625000
O O2 0.290963 0.093946 0.397696
O O3 0.499742 0.076521 0.715081
O O4 0.500000 0.000000 0.500000
O O5 0.268787 0.739469 0.216190
O O6 0.166135 0.663187 0.241629
O O7 0.258212 0.668024 0.033778
O O8 0.875000 0.582319 0.875000
#
# Coordination Sequence:
#
# PCOD9515953 Si02
#       4
#    32  32  32   8
#     4  12  27  41  66 104 143 175 224 290 355 410
#     4  10  23  42  70  91 135 180 241 268 354 407
#     4  10  22  43  70  94 129 183 231 283 339 418
#     4   8  20  36  68  90 116 172 238 278 312 408
#
# _framework density 24.298299
#
# number of rings (size 3 to 8) (size 9 to 14) (size 15 to 20)
#    0.000    1.846    0.000    3.692   10.769    3.692 
#    0.000    1.538    0.000    0.000    0.000    0.000 
#    0.000    0.000    0.000    0.000    0.000    0.000 
#
# Total GULP energy -144767.651882 kJ/mol
# GULP energy per Si atom -5567.986611 kJ/mol
# Density = 2.424299 g / cm^3
# Si number density = 24.298299 Si / 1000 Ang^3
#
#
#
# Elastic Constant Matrix: (Units=GPa)
#
#
# Indices 1 2 3 4 5 6 
#
# 1 161.9005 23.8422 16.8341 0.0000 -0.0001 0.0000
# 2 23.8422 124.1322 22.3752 0.0000 0.0000 0.0000
# 3 16.8341 22.3752 107.0028 0.0001 -0.0003 0.0001
# 4 0.0000 0.0000 0.0001 65.5740 -0.0001 0.0001
# 5 -0.0001 0.0000 -0.0003 -0.0001 19.6942 -0.0001
# 6 0.0000 0.0000 0.0001 0.0001 -0.0001 -40.8932
#
#
#
# Elastic Compliance Matrix: (Units=1/GPa)
#
#
# Indices 1 2 3 4 5 6 
#
# 1 0.006419 -0.001092 -0.000781 0.000000 0.000000 0.000000
# 2 -0.001092 0.008557 -0.001618 0.000000 0.000000 0.000000
# 3 -0.000781 -0.001618 0.009807 0.000000 0.000000 0.000000
# 4 0.000000 0.000000 0.000000 0.015250 0.000000 0.000000
# 5 0.000000 0.000000 0.000000 0.000000 0.050776 0.000000
# 6 0.000000 0.000000 0.000000 0.000000 0.000000 -0.024454
#
#
# Mechanical properties :
#
#
# Convention : Reuss Voigt Hill
#
# Bulk Modulus (GPa) = 56.17792 57.68204 56.92998
# Shear Modulus (GPa) = 63.07508 30.87394 46.97451
#
# Velocity S-wave (km/s) = 5.10049 3.56844 4.40164
# Velocity P-wave (km/s) = 7.60638 6.38507 7.02232
#
# Compressibility (1/GPa) = 0.01780059
#
# Stress axis : x y z
#
# Youngs Moduli (GPa) = 155.79481 116.86005 101.97061
#
# Poissons Ratio (x) = 0.12761 0.07969
# Poissons Ratio (y) = 0.17013 0.16495
# Poissons Ratio (z) = 0.12175 0.18903
#
# Static dielectric constant tensor:
#      x y z
#    x 0.302870 0.000000 0.000000 
#    y 0.000000 1.511960 0.000000 
#    z 0.000000 0.000000 1.999670 
# 
# From -- ./inp_files/15049.got.cif
#   From: 2010.05.17/outbox.cif.g08.bks.cpg/sg70_8_cif.got.tgz:15049.got - 2010.06.03 15:57:51.
