data_PCOD9515404
_publ_section_title
;
Structure prediction by ZEFSAII (Michael W. Deem and Ramdas Pophale) SiO2 
 PCOD9515404
Probable space group: F D D D
;
_chemical_formula_sum "Si O2"
_cell_formula_units_Z 176
_cell_length_a 26.262252
_cell_length_b 11.103348
_cell_length_c 25.719987
_cell_angle_alpha 90.000000
_cell_angle_beta 90.000000
_cell_angle_gamma 90.000000
_cell_volume 7499.920514
_symmetry_space_group_name_H-M "F D D D"
_symmetry_group_IT_number 70
_space_group.IT_coordinate_system_code '2'
_symmetry_cell_setting 'orthorhombic'
loop_
_space_group_symop_operation_xyz
x,y,z
1/4-x,1/4-y,z
x,1/4-y,1/4-z
1/4-x,y,1/4-z
-x,-y,-z
3/4+x,3/4+y,-z
-x,3/4+y,3/4+z
3/4+x,-y,3/4+z
x,1/2+y,1/2+z
1/4-x,3/4-y,1/2+z
x,3/4-y,3/4-z
1/4-x,1/2+y,3/4-z
-x,1/2-y,1/2-z
3/4+x,1/4+y,1/2-z
-x,1/4+y,1/4+z
3/4+x,1/2-y,1/4+z
1/2+x,y,1/2+z
3/4-x,1/4-y,1/2+z
1/2+x,1/4-y,3/4-z
3/4-x,y,3/4-z
1/2-x,-y,1/2-z
1/4+x,3/4+y,1/2-z
1/2-x,3/4+y,1/4+z
1/4+x,-y,1/4+z
1/2+x,1/2+y,z
3/4-x,3/4-y,z
1/2+x,3/4-y,1/4-z
3/4-x,1/2+y,1/4-z
1/2-x,1/2-y,-z
1/4+x,1/4+y,-z
1/2-x,1/4+y,3/4+z
1/4+x,1/2-y,3/4+z
loop_
_atom_site_type_symbol
_atom_site_label
_atom_site_fract_x
_atom_site_fract_y
_atom_site_fract_z
Si Si1 0.160590 0.027080 0.913360
Si Si2 0.242487 0.108673 0.210059
Si Si3 0.327813 0.125000 0.125000
Si Si4 0.659226 0.806388 0.077027
Si Si5 0.188942 0.397624 0.512306
Si Si6 0.017452 0.483010 0.113617
O O1 0.125000 0.125000 0.945028
O O2 0.211382 0.062955 0.881881
O O3 0.116455 0.985466 0.874552
O O4 0.178780 0.914542 0.950072
O O5 0.291496 0.119243 0.174373
O O6 0.225738 0.236779 0.231180
O O7 0.250000 0.000000 0.250000
O O8 0.193734 0.058593 0.180927
O O9 0.625000 0.777661 0.125000
O O10 0.619123 0.840518 0.032731
O O11 0.694737 0.915623 0.096348
O O12 0.215308 0.302734 0.553894
O O13 0.020817 0.625000 0.125000
#
# Coordination Sequence:
#
# PCOD9515404 Si02
#       6
#    32  32  16  32  32  32
#     4  12  24  45  70 101 146 192 251 322 381 451
#     4  12  23  41  69 110 144 182 244 315 403 457
#     4  12  24  40  67 102 145 190 236 308 388 456
#     4  10  21  38  65  96 135 181 238 305 365 440
#     4  11  24  41  72 105 139 192 254 311 384 464
#     4  11  25  46  67 101 150 207 255 310 385 466
#
# _framework density 23.466916000000001
#
# number of rings (size 3 to 8) (size 9 to 14) (size 15 to 20)
#    0.000    0.727    0.909    9.273    0.000    6.182 
#    0.000    0.000    0.000    0.000    0.000    0.000 
#    0.000    0.000    0.000    0.000    0.000    0.000 
#
# Total GULP energy -245329.194292 kJ/mol
# GULP energy per Si atom -5575.663507 kJ/mol
# Density = 2.341350 g / cm^3
# Si number density = 23.466916 Si / 1000 Ang^3
#
#
#
# Elastic Constant Matrix: (Units=GPa)
#
#
# Indices 1 2 3 4 5 6 
#
# 1 180.2839 20.8231 61.6367 0.0000 0.0000 0.0000
# 2 20.8231 86.4608 29.1293 0.0000 0.0000 0.0000
# 3 61.6367 29.1293 91.2733 0.0000 0.0000 0.0000
# 4 0.0000 0.0000 0.0000 274.9968 0.0000 0.0000
# 5 0.0000 0.0000 0.0000 0.0000 95.3614 0.0000
# 6 0.0000 0.0000 0.0000 0.0000 0.0000 81.8478
#
#
#
# Elastic Compliance Matrix: (Units=1/GPa)
#
#
# Indices 1 2 3 4 5 6 
#
# 1 0.007213 -0.000108 -0.004836 0.000000 0.000000 0.000000
# 2 -0.000108 0.012961 -0.004064 0.000000 0.000000 0.000000
# 3 -0.004836 -0.004064 0.015519 0.000000 0.000000 0.000000
# 4 0.000000 0.000000 0.000000 0.003636 0.000000 0.000000
# 5 0.000000 0.000000 0.000000 0.000000 0.010486 0.000000
# 6 0.000000 0.000000 0.000000 0.000000 0.000000 0.012218
#
#
# Mechanical properties :
#
#
# Convention : Reuss Voigt Hill
#
# Bulk Modulus (GPa) = 56.57008 64.57737 60.57373
# Shear Modulus (GPa) = 58.17925 106.86977 82.52451
#
# Velocity S-wave (km/s) = 4.98456 6.75570 5.93655
# Velocity P-wave (km/s) = 7.56878 9.40377 8.53573
#
# Compressibility (1/GPa) = 0.01767719
#
# Stress axis : x y z
#
# Youngs Moduli (GPa) = 138.64347 77.15475 64.43706
#
# Poissons Ratio (x) = 0.00831 0.31164
# Poissons Ratio (y) = 0.01493 0.26185
# Poissons Ratio (z) = 0.67053 0.31353
#
# Static dielectric constant tensor:
#      x y z
#    x 1.689480 0.000000 0.000000 
#    y 0.000000 2.084920 0.000000 
#    z 0.000000 0.000000 1.994510 
# 
# From -- ./inp_files/68353.got.cif
#   From: 2010.05.17/outbox.cif.g08.bks.cpg/sg70_35_cif.got.tgz:68353.got - 2010.06.03 15:57:51.
