data_PCOD9515092
_publ_section_title
;
Structure prediction by ZEFSAII (Michael W. Deem and Ramdas Pophale) SiO2 
 PCOD9515092
Probable space group: F D D D
;
_chemical_formula_sum "Si O2"
_cell_formula_units_Z 144
_cell_length_a 29.174576
_cell_length_b 15.754874
_cell_length_c 11.772102
_cell_angle_alpha 90.000000
_cell_angle_beta 90.000000
_cell_angle_gamma 90.000000
_cell_volume 5410.949787
_symmetry_space_group_name_H-M "F D D D"
_symmetry_group_IT_number 70
_space_group.IT_coordinate_system_code '2'
_symmetry_cell_setting 'orthorhombic'
loop_
_space_group_symop_operation_xyz
x,y,z
1/4-x,1/4-y,z
x,1/4-y,1/4-z
1/4-x,y,1/4-z
-x,-y,-z
3/4+x,3/4+y,-z
-x,3/4+y,3/4+z
3/4+x,-y,3/4+z
x,1/2+y,1/2+z
1/4-x,3/4-y,1/2+z
x,3/4-y,3/4-z
1/4-x,1/2+y,3/4-z
-x,1/2-y,1/2-z
3/4+x,1/4+y,1/2-z
-x,1/4+y,1/4+z
3/4+x,1/2-y,1/4+z
1/2+x,y,1/2+z
3/4-x,1/4-y,1/2+z
1/2+x,1/4-y,3/4-z
3/4-x,y,3/4-z
1/2-x,-y,1/2-z
1/4+x,3/4+y,1/2-z
1/2-x,3/4+y,1/4+z
1/4+x,-y,1/4+z
1/2+x,1/2+y,z
3/4-x,3/4-y,z
1/2+x,3/4-y,1/4-z
3/4-x,1/2+y,1/4-z
1/2-x,1/2-y,-z
1/4+x,1/4+y,-z
1/2-x,1/4+y,3/4+z
1/4+x,1/2-y,3/4+z
loop_
_atom_site_type_symbol
_atom_site_label
_atom_site_fract_x
_atom_site_fract_y
_atom_site_fract_z
Si Si1 0.142389 0.375000 0.375000
Si Si2 0.695971 0.731099 0.510721
Si Si3 0.191311 0.789958 0.485698
Si Si4 0.928792 0.359606 0.545160
Si Si5 0.977798 0.038838 0.270201
O O1 0.169429 0.440211 0.295882
O O2 0.110588 0.430035 0.460760
O O3 0.750000 0.750000 0.500000
O O4 0.681950 0.651522 0.432809
O O5 0.696127 0.732001 0.647327
O O6 0.196353 0.693257 0.521029
O O7 0.210833 0.785037 0.357613
O O8 0.215455 0.863602 0.556632
O O9 0.875000 0.375000 0.522210
O O10 0.966630 0.285576 0.519400
#
# Coordination Sequence:
#
# PCOD9515092 Si02
#       5
#    16  32  32  32  32
#     4  10  20  40  60  88 132 170 218 272 342 392
#     4  10  22  38  65  94 127 170 217 275 335 393
#     4  10  22  41  65  90 133 172 219 273 325 413
#     4  11  21  40  64  96 132 166 223 286 321 393
#     4   9  22  40  65  89 129 178 213 258 350 392
#
# _framework density 26.612703
#
# number of rings (size 3 to 8) (size 9 to 14) (size 15 to 20)
#    0.000    2.222    2.222    0.667    0.000   11.556 
#    0.000    3.333    9.778    0.000    0.000    0.000 
#    0.000    0.000    0.000    0.000    0.000    0.000 
#
# Total GULP energy -200556.018274 kJ/mol
# GULP energy per Si atom -5571.000508 kJ/mol
# Density = 2.655213 g / cm^3
# Si number density = 26.612703 Si / 1000 Ang^3
#
#
#
# Elastic Constant Matrix: (Units=GPa)
#
#
# Indices 1 2 3 4 5 6 
#
# 1 144.3336 9.8672 28.2143 0.0000 0.0000 0.0000
# 2 9.8672 78.1716 23.4758 0.0000 0.0000 0.0000
# 3 28.2143 23.4758 112.1048 0.0000 0.0000 0.0000
# 4 0.0000 0.0000 0.0000 44.3448 0.0000 0.0000
# 5 0.0000 0.0000 0.0000 0.0000 128.9187 0.0000
# 6 0.0000 0.0000 0.0000 0.0000 0.0000 -7.4533
#
#
#
# Elastic Compliance Matrix: (Units=1/GPa)
#
#
# Indices 1 2 3 4 5 6 
#
# 1 0.007298 -0.000394 -0.001754 0.000000 0.000000 0.000000
# 2 -0.000394 0.013672 -0.002764 0.000000 0.000000 0.000000
# 3 -0.001754 -0.002764 0.009940 0.000000 0.000000 0.000000
# 4 0.000000 0.000000 0.000000 0.022551 0.000000 0.000000
# 5 0.000000 0.000000 0.000000 0.000000 0.007757 0.000000
# 6 0.000000 0.000000 0.000000 0.000000 0.000000 -0.134169
#
#
# Mechanical properties :
#
#
# Convention : Reuss Voigt Hill
#
# Bulk Modulus (GPa) = 47.42476 50.85829 49.14152
# Shear Modulus (GPa) = -89.13186 51.36554 -18.88316
#
# Velocity S-wave (km/s) = -5.79352 4.39807 -2.66664
# Velocity P-wave (km/s) = 5.18596 6.70393 3.00404
#
# Compressibility (1/GPa) = 0.02108603
#
# Stress axis : x y z
#
# Youngs Moduli (GPa) = 137.01869 73.14130 100.59861
#
# Poissons Ratio (x) = 0.02885 0.17647
# Poissons Ratio (y) = 0.05404 0.27804
# Poissons Ratio (z) = 0.24036 0.20215
#
# Static dielectric constant tensor:
#      x y z
#    x 2.143550 0.000000 0.000000 
#    y 0.000000 2.056200 0.000000 
#    z 0.000000 0.000000 2.397240 
# 
# From -- ./inp_files/30835.got.cif
#   From: 2010.05.17/outbox.cif.g08.bks.cpg/sg70_16_cif.got.tgz:30835.got - 2010.06.03 15:57:51.
