data_PCOD9515697
_publ_section_title
;
Structure prediction by ZEFSAII (Michael W. Deem and Ramdas Pophale) SiO2 
 PCOD9515697
Probable space group: F D D D
;
_chemical_formula_sum "Si O2"
_cell_formula_units_Z 176
_cell_length_a 25.426725
_cell_length_b 12.718394
_cell_length_c 25.246211
_cell_angle_alpha 90.000000
_cell_angle_beta 90.000000
_cell_angle_gamma 90.000000
_cell_volume 8164.299130
_symmetry_space_group_name_H-M "F D D D"
_symmetry_group_IT_number 70
_space_group.IT_coordinate_system_code '2'
_symmetry_cell_setting 'orthorhombic'
loop_
_space_group_symop_operation_xyz
x,y,z
1/4-x,1/4-y,z
x,1/4-y,1/4-z
1/4-x,y,1/4-z
-x,-y,-z
3/4+x,3/4+y,-z
-x,3/4+y,3/4+z
3/4+x,-y,3/4+z
x,1/2+y,1/2+z
1/4-x,3/4-y,1/2+z
x,3/4-y,3/4-z
1/4-x,1/2+y,3/4-z
-x,1/2-y,1/2-z
3/4+x,1/4+y,1/2-z
-x,1/4+y,1/4+z
3/4+x,1/2-y,1/4+z
1/2+x,y,1/2+z
3/4-x,1/4-y,1/2+z
1/2+x,1/4-y,3/4-z
3/4-x,y,3/4-z
1/2-x,-y,1/2-z
1/4+x,3/4+y,1/2-z
1/2-x,3/4+y,1/4+z
1/4+x,-y,1/4+z
1/2+x,1/2+y,z
3/4-x,3/4-y,z
1/2+x,3/4-y,1/4-z
3/4-x,1/2+y,1/4-z
1/2-x,1/2-y,-z
1/4+x,1/4+y,-z
1/2-x,1/4+y,3/4+z
1/4+x,1/2-y,3/4+z
loop_
_atom_site_type_symbol
_atom_site_label
_atom_site_fract_x
_atom_site_fract_y
_atom_site_fract_z
Si Si1 0.625000 0.125000 0.934232
Si Si2 0.077896 0.565807 0.218464
Si Si3 0.384909 0.583256 0.994481
Si Si4 0.032412 0.525224 0.771498
Si Si5 0.183383 0.033712 0.341805
Si Si6 0.957396 0.316517 0.324467
O O1 0.577742 0.115004 0.976961
O O2 0.648593 0.039501 0.894279
O O3 0.125000 0.625000 0.186594
O O4 0.101932 0.452230 0.232391
O O5 0.018236 0.534635 0.204707
O O6 0.415024 0.509441 0.952364
O O7 0.323760 0.556359 0.997505
O O8 0.407960 0.545524 0.050367
O O9 0.060874 0.600721 0.814641
O O10 0.021512 0.606686 0.722726
O O11 0.243134 0.996743 0.347938
O O12 0.934634 0.375000 0.375000
#
# Coordination Sequence:
#
# PCOD9515697 Si02
#       6
#    16  32  32  32  32  32
#     4  10  22  36  58  94 121 151 226 254 280 380
#     4  10  23  40  56  86 124 166 214 252 303 358
#     4  11  21  37  61  87 127 163 197 255 319 371
#     4  11  20  38  60  88 122 161 200 249 325 376
#     4  11  18  35  60  92 123 160 196 260 321 364
#     4  11  21  34  62  91 126 152 194 256 329 373
#
# _framework density 21.557269999999999
#
# number of rings (size 3 to 8) (size 9 to 14) (size 15 to 20)
#    0.545    0.727    5.455    3.818    0.000    2.182 
#    0.000    0.000    0.000    0.000    0.000    2.545 
#    0.000    0.000    0.000    0.000    0.000    0.000 
#
# Total GULP energy -245061.367806 kJ/mol
# GULP energy per Si atom -5569.576541 kJ/mol
# Density = 2.150820 g / cm^3
# Si number density = 21.557270 Si / 1000 Ang^3
#
#
#
# Elastic Constant Matrix: (Units=GPa)
#
#
# Indices 1 2 3 4 5 6 
#
# 1 105.0714 54.8201 -16.7215 0.0000 0.0000 0.0000
# 2 54.8201 55.0839 10.4725 0.0000 0.0000 0.0000
# 3 -16.7215 10.4725 63.9935 0.0000 0.0000 0.0000
# 4 0.0000 0.0000 0.0000 7.3166 0.0000 0.0000
# 5 0.0000 0.0000 0.0000 0.0000 -29.6037 0.0000
# 6 0.0000 0.0000 0.0000 0.0000 0.0000 39.9196
#
#
#
# Elastic Compliance Matrix: (Units=1/GPa)
#
#
# Indices 1 2 3 4 5 6 
#
# 1 0.025886 -0.027917 0.011333 0.000000 0.000000 0.000000
# 2 -0.027917 0.048844 -0.015288 0.000000 0.000000 0.000000
# 3 0.011333 -0.015288 0.021090 0.000000 0.000000 0.000000
# 4 0.000000 0.000000 0.000000 0.136676 0.000000 0.000000
# 5 0.000000 0.000000 0.000000 0.000000 -0.033780 0.000000
# 6 0.000000 0.000000 0.000000 0.000000 0.000000 0.025050
#
#
# Mechanical properties :
#
#
# Convention : Reuss Voigt Hill
#
# Bulk Modulus (GPa) = 31.17646 35.69902 33.43774
# Shear Modulus (GPa) = 16.76713 15.23168 15.99940
#
# Velocity S-wave (km/s) = 2.79192 2.66102 2.72726
# Velocity P-wave (km/s) = 4.98865 5.10268 5.04599
#
# Compressibility (1/GPa) = 0.03207548
#
# Stress axis : x y z
#
# Youngs Moduli (GPa) = 38.63065 20.47347 47.41657
#
# Poissons Ratio (x) = 0.57155 -0.53735
# Poissons Ratio (y) = 1.07844 0.72490
# Poissons Ratio (z) = -0.43779 0.31300
#
# Static dielectric constant tensor:
#      x y z
#    x 1.856800 0.000000 0.000000 
#    y 0.000000 1.831610 0.000000 
#    z 0.000000 0.000000 1.801350 
# 
# From -- ./inp_files/29058.got.cif
#   From: 2010.05.17/outbox.cif.g08.bks.cpg/sg70_15_cif.got.tgz:29058.got - 2010.06.03 15:57:51.
