data_PCOD9515486
_publ_section_title
;
Structure prediction by ZEFSAII (Michael W. Deem and Ramdas Pophale) SiO2 
 PCOD9515486
Probable space group: F D D D
;
_chemical_formula_sum "Si O2"
_cell_formula_units_Z 160
_cell_length_a 26.480699
_cell_length_b 23.568195
_cell_length_c 12.689675
_cell_angle_alpha 90.000000
_cell_angle_beta 90.000000
_cell_angle_gamma 90.000000
_cell_volume 7919.655072
_symmetry_space_group_name_H-M "F D D D"
_symmetry_group_IT_number 70
_space_group.IT_coordinate_system_code '2'
_symmetry_cell_setting 'orthorhombic'
loop_
_space_group_symop_operation_xyz
x,y,z
1/4-x,1/4-y,z
x,1/4-y,1/4-z
1/4-x,y,1/4-z
-x,-y,-z
3/4+x,3/4+y,-z
-x,3/4+y,3/4+z
3/4+x,-y,3/4+z
x,1/2+y,1/2+z
1/4-x,3/4-y,1/2+z
x,3/4-y,3/4-z
1/4-x,1/2+y,3/4-z
-x,1/2-y,1/2-z
3/4+x,1/4+y,1/2-z
-x,1/4+y,1/4+z
3/4+x,1/2-y,1/4+z
1/2+x,y,1/2+z
3/4-x,1/4-y,1/2+z
1/2+x,1/4-y,3/4-z
3/4-x,y,3/4-z
1/2-x,-y,1/2-z
1/4+x,3/4+y,1/2-z
1/2-x,3/4+y,1/4+z
1/4+x,-y,1/4+z
1/2+x,1/2+y,z
3/4-x,3/4-y,z
1/2+x,3/4-y,1/4-z
3/4-x,1/2+y,1/4-z
1/2-x,1/2-y,-z
1/4+x,1/4+y,-z
1/2-x,1/4+y,3/4+z
1/4+x,1/2-y,3/4+z
loop_
_atom_site_type_symbol
_atom_site_label
_atom_site_fract_x
_atom_site_fract_y
_atom_site_fract_z
Si Si1 0.836255 0.731763 0.079213
Si Si2 0.267404 0.026074 0.980017
Si Si3 0.068951 0.558162 0.604110
Si Si4 0.317206 0.112580 0.343917
Si Si5 0.448012 0.686048 0.568055
O O1 0.815175 0.736219 0.196228
O O2 0.896456 0.721580 0.086113
O O3 0.813257 0.785149 0.014279
O O4 0.818041 0.676345 0.011443
O O5 0.223168 0.038510 0.064838
O O6 0.282325 0.083132 0.920333
O O7 0.246095 0.975596 0.908182
O O8 0.071342 0.625000 0.625000
O O9 0.125000 0.533377 0.625000
O O10 0.375000 0.128320 0.375000
O O11 0.298788 0.077529 0.443886
O O12 0.445513 0.625000 0.625000
#
# Coordination Sequence:
#
# PCOD9515486 Si02
#       5
#    32  32  32  32  32
#     4  11  20  41  63  96 126 166 208 259 319 381
#     4  12  23  37  66  93 124 166 210 261 319 375
#     4  11  21  34  57  97 137 154 190 262 331 377
#     4  10  21  40  64  91 124 165 216 260 305 380
#     4  11  24  42  63  90 127 168 217 263 306 376
#
# _framework density 20.202901000000001
#
# number of rings (size 3 to 8) (size 9 to 14) (size 15 to 20)
#    0.000    1.000    4.000    5.400    2.800    0.800 
#    0.000    0.000    0.000    3.000    0.000    0.000 
#    0.000    0.000    0.000    0.000    0.000    0.000 
#
# Total GULP energy -223199.974493 kJ/mol
# GULP energy per Si atom -5579.999362 kJ/mol
# Density = 2.015692 g / cm^3
# Si number density = 20.202901 Si / 1000 Ang^3
#
#
#
# Elastic Constant Matrix: (Units=GPa)
#
#
# Indices 1 2 3 4 5 6 
#
# 1 73.3588 59.3078 24.9019 0.0000 0.0000 0.0000
# 2 59.3078 124.0306 26.0018 0.0000 0.0000 0.0000
# 3 24.9019 26.0018 16.9601 0.0000 0.0000 0.0000
# 4 0.0000 0.0000 0.0000 30.6859 0.0000 0.0000
# 5 0.0000 0.0000 0.0000 0.0000 15.0444 0.0000
# 6 0.0000 0.0000 0.0000 0.0000 0.0000 34.3752
#
#
#
# Elastic Compliance Matrix: (Units=1/GPa)
#
#
# Indices 1 2 3 4 5 6 
#
# 1 0.031755 -0.007972 -0.034402 0.000000 0.000000 0.000000
# 2 -0.007972 0.013883 -0.009578 0.000000 0.000000 0.000000
# 3 -0.034402 -0.009578 0.124158 0.000000 0.000000 0.000000
# 4 0.000000 0.000000 0.000000 0.032588 0.000000 0.000000
# 5 0.000000 0.000000 0.000000 0.000000 0.066470 0.000000
# 6 0.000000 0.000000 0.000000 0.000000 0.000000 0.029091
#
#
# Mechanical properties :
#
#
# Convention : Reuss Voigt Hill
#
# Bulk Modulus (GPa) = 15.17682 48.30805 31.74243
# Shear Modulus (GPa) = 11.79769 22.96364 17.38066
#
# Velocity S-wave (km/s) = 2.41915 3.37508 2.93628
# Velocity P-wave (km/s) = 3.91555 6.25712 5.21935
#
# Compressibility (1/GPa) = 0.06588994
#
# Stress axis : x y z
#
# Youngs Moduli (GPa) = 31.49147 72.03268 8.05428
#
# Poissons Ratio (x) = 0.57425 0.27708
# Poissons Ratio (y) = 0.25105 0.07715
# Poissons Ratio (z) = 1.08337 0.68996
#
# Static dielectric constant tensor:
#      x y z
#    x 1.765540 0.000000 0.000000 
#    y 0.000000 1.882500 0.000000 
#    z 0.000000 0.000000 1.751910 
# 
# From -- ./inp_files/22193.got.cif
#   From: 2010.05.17/outbox.cif.g08.bks.cpg/sg70_12_cif.got.tgz:22193.got - 2010.06.03 15:57:51.
