data_PCOD9515483
_publ_section_title
;
Structure prediction by ZEFSAII (Michael W. Deem and Ramdas Pophale) SiO2 
 PCOD9515483
Probable space group: F D D D
;
_chemical_formula_sum "Si O2"
_cell_formula_units_Z 192
_cell_length_a 18.541797
_cell_length_b 19.161005
_cell_length_c 26.636370
_cell_angle_alpha 90.000000
_cell_angle_beta 90.000000
_cell_angle_gamma 90.000000
_cell_volume 9463.355284
_symmetry_space_group_name_H-M "F D D D"
_symmetry_group_IT_number 70
_space_group.IT_coordinate_system_code '2'
_symmetry_cell_setting 'orthorhombic'
loop_
_space_group_symop_operation_xyz
x,y,z
1/4-x,1/4-y,z
x,1/4-y,1/4-z
1/4-x,y,1/4-z
-x,-y,-z
3/4+x,3/4+y,-z
-x,3/4+y,3/4+z
3/4+x,-y,3/4+z
x,1/2+y,1/2+z
1/4-x,3/4-y,1/2+z
x,3/4-y,3/4-z
1/4-x,1/2+y,3/4-z
-x,1/2-y,1/2-z
3/4+x,1/4+y,1/2-z
-x,1/4+y,1/4+z
3/4+x,1/2-y,1/4+z
1/2+x,y,1/2+z
3/4-x,1/4-y,1/2+z
1/2+x,1/4-y,3/4-z
3/4-x,y,3/4-z
1/2-x,-y,1/2-z
1/4+x,3/4+y,1/2-z
1/2-x,3/4+y,1/4+z
1/4+x,-y,1/4+z
1/2+x,1/2+y,z
3/4-x,3/4-y,z
1/2+x,3/4-y,1/4-z
3/4-x,1/2+y,1/4-z
1/2-x,1/2-y,-z
1/4+x,1/4+y,-z
1/2-x,1/4+y,3/4+z
1/4+x,1/2-y,3/4+z
loop_
_atom_site_type_symbol
_atom_site_label
_atom_site_fract_x
_atom_site_fract_y
_atom_site_fract_z
Si Si1 0.953435 0.618291 0.295592
Si Si2 0.404109 0.642157 0.038698
Si Si3 0.432605 0.486140 0.418646
Si Si4 0.375000 0.715266 0.375000
Si Si5 0.405410 0.303736 0.518081
Si Si6 0.194100 0.660775 0.570012
Si Si7 0.044599 0.875000 0.375000
O O1 0.880004 0.627420 0.265058
O O2 0.974657 0.697198 0.309264
O O3 0.934805 0.578638 0.346280
O O4 0.011025 0.575580 0.263339
O O5 0.481815 0.606705 0.043227
O O6 0.349502 0.610237 0.079500
O O7 0.404484 0.727288 0.044137
O O8 0.375000 0.505139 0.375000
O O9 0.387686 0.454447 0.465591
O O10 0.490713 0.434455 0.394883
O O11 0.332663 0.762519 0.415637
O O12 0.375000 0.375000 0.543818
O O13 0.125000 0.625000 0.544266
O O14 0.202880 0.625000 0.625000
#
# Coordination Sequence:
#
# PCOD9515483 Si02
#       7
#    32  32  32  16  32  32  16
#     4  11  23  39  62  93 126 166 211 261 318 381
#     4  11  23  38  63  96 122 159 219 262 306 388
#     4  11  22  39  60  90 128 165 209 255 318 380
#     4  10  21  40  64  83 126 168 202 260 324 371
#     4  11  22  39  62  91 127 168 205 261 319 378
#     4   9  18  37  64  89 116 161 209 250 313 377
#     4  12  23  38  63  90 118 166 210 260 315 382
#
# _framework density 20.288786999999999
#
# number of rings (size 3 to 8) (size 9 to 14) (size 15 to 20)
#    0.000    1.500    1.667    6.250    0.000    3.333 
#    0.000    0.000    0.000    1.000    0.000    0.000 
#    0.000    0.000    0.000    0.000    0.000    0.000 
#
# Total GULP energy -267720.163418 kJ/mol
# GULP energy per Si atom -5577.503405 kJ/mol
# Density = 2.024261 g / cm^3
# Si number density = 20.288787 Si / 1000 Ang^3
#
#
#
# Elastic Constant Matrix: (Units=GPa)
#
#
# Indices 1 2 3 4 5 6 
#
# 1 134.4685 55.2072 29.1273 0.0000 0.0000 0.0000
# 2 55.2072 115.7735 31.9713 0.0000 0.0000 0.0000
# 3 29.1273 31.9713 46.3934 0.0000 0.0000 0.0000
# 4 0.0000 0.0000 0.0000 2.4376 0.0000 0.0000
# 5 0.0000 0.0000 0.0000 0.0000 23.7925 0.0000
# 6 0.0000 0.0000 0.0000 0.0000 0.0000 206.8057
#
#
#
# Elastic Compliance Matrix: (Units=1/GPa)
#
#
# Indices 1 2 3 4 5 6 
#
# 1 0.009708 -0.003638 -0.003587 0.000000 0.000000 0.000000
# 2 -0.003638 0.012031 -0.006007 0.000000 0.000000 0.000000
# 3 -0.003587 -0.006007 0.027947 0.000000 0.000000 0.000000
# 4 0.000000 0.000000 0.000000 0.410233 0.000000 0.000000
# 5 0.000000 0.000000 0.000000 0.000000 0.042030 0.000000
# 6 0.000000 0.000000 0.000000 0.000000 0.000000 0.004835
#
#
# Mechanical properties :
#
#
# Convention : Reuss Voigt Hill
#
# Bulk Modulus (GPa) = 43.06606 58.80523 50.93564
# Shear Modulus (GPa) = 9.24233 58.62916 33.93575
#
# Velocity S-wave (km/s) = 2.13665 5.38145 4.09422
# Velocity P-wave (km/s) = 5.23065 8.22560 6.89275
#
# Compressibility (1/GPa) = 0.02322014
#
# Stress axis : x y z
#
# Youngs Moduli (GPa) = 103.01289 83.11589 35.78253
#
# Poissons Ratio (x) = 0.30241 0.12836
# Poissons Ratio (y) = 0.37480 0.21494
# Poissons Ratio (z) = 0.36954 0.49927
#
# Static dielectric constant tensor:
#      x y z
#    x 1.748430 0.000000 0.000000 
#    y 0.000000 1.766770 0.000000 
#    z 0.000000 0.000000 1.707630 
# 
# From -- ./inp_files/66705.got.cif
#   From: 2010.05.17/outbox.cif.g08.bks.cpg/sg70_34_cif.got.tgz:66705.got - 2010.06.03 15:57:51.
