data_PCOD9515255
_publ_section_title
;
Structure prediction by ZEFSAII (Michael W. Deem and Ramdas Pophale) SiO2 
 PCOD9515255
Probable space group: F D D D
;
_chemical_formula_sum "Si O2"
_cell_formula_units_Z 96
_cell_length_a 12.958233
_cell_length_b 9.476126
_cell_length_c 29.282615
_cell_angle_alpha 90.000000
_cell_angle_beta 90.000000
_cell_angle_gamma 90.000000
_cell_volume 3595.724994
_symmetry_space_group_name_H-M "F D D D"
_symmetry_group_IT_number 70
_space_group.IT_coordinate_system_code '2'
_symmetry_cell_setting 'orthorhombic'
loop_
_space_group_symop_operation_xyz
x,y,z
1/4-x,1/4-y,z
x,1/4-y,1/4-z
1/4-x,y,1/4-z
-x,-y,-z
3/4+x,3/4+y,-z
-x,3/4+y,3/4+z
3/4+x,-y,3/4+z
x,1/2+y,1/2+z
1/4-x,3/4-y,1/2+z
x,3/4-y,3/4-z
1/4-x,1/2+y,3/4-z
-x,1/2-y,1/2-z
3/4+x,1/4+y,1/2-z
-x,1/4+y,1/4+z
3/4+x,1/2-y,1/4+z
1/2+x,y,1/2+z
3/4-x,1/4-y,1/2+z
1/2+x,1/4-y,3/4-z
3/4-x,y,3/4-z
1/2-x,-y,1/2-z
1/4+x,3/4+y,1/2-z
1/2-x,3/4+y,1/4+z
1/4+x,-y,1/4+z
1/2+x,1/2+y,z
3/4-x,3/4-y,z
1/2+x,3/4-y,1/4-z
3/4-x,1/2+y,1/4-z
1/2-x,1/2-y,-z
1/4+x,1/4+y,-z
1/2-x,1/4+y,3/4+z
1/4+x,1/2-y,3/4+z
loop_
_atom_site_type_symbol
_atom_site_label
_atom_site_fract_x
_atom_site_fract_y
_atom_site_fract_z
Si Si1 0.569230 0.973908 0.915882
Si Si2 0.307974 0.228992 0.245700
Si Si3 0.111758 0.914652 0.176259
O O1 0.625000 0.125000 0.909412
O O2 0.605888 0.903869 0.962905
O O3 0.451805 0.020363 0.917401
O O4 0.595876 0.875000 0.875000
O O5 0.375000 0.375000 0.252975
O O6 0.213049 0.246113 0.210180
O O7 0.294951 0.138300 0.291551
O O8 0.125000 0.972526 0.125000
#
# Coordination Sequence:
#
# PCOD9515255 Si02
#       3
#    32  32  32
#     4   9  19  35  58  91 128 165 212 262 326 383
#     4   9  19  35  51  93 130 153 215 269 317 382
#     4  10  21  32  59  96 124 164 212 272 325 377
#
# _framework density 26.698370000000001
#
# number of rings (size 3 to 8) (size 9 to 14) (size 15 to 20)
#    0.000    3.333    0.000    4.000    9.333    0.000 
#    0.000    0.000    0.000   24.000    0.000    0.000 
#    0.000    0.000    0.000    0.000    0.000    0.000 
#
# Total GULP energy -133803.322258 kJ/mol
# GULP energy per Si atom -5575.138427 kJ/mol
# Density = 2.663760 g / cm^3
# Si number density = 26.698370 Si / 1000 Ang^3
#
#
#
# Elastic Constant Matrix: (Units=GPa)
#
#
# Indices 1 2 3 4 5 6 
#
# 1 65.0229 19.5171 43.8791 0.0000 0.0000 0.0000
# 2 19.5171 63.5629 68.5220 0.0000 0.0000 0.0000
# 3 43.8791 68.5220 245.7782 0.0000 0.0000 0.0000
# 4 0.0000 0.0000 0.0000 -10.1062 0.0000 0.0000
# 5 0.0000 0.0000 0.0000 0.0000 27.8796 0.0000
# 6 0.0000 0.0000 0.0000 0.0000 0.0000 12.2585
#
#
#
# Elastic Compliance Matrix: (Units=1/GPa)
#
#
# Indices 1 2 3 4 5 6 
#
# 1 0.017858 -0.002926 -0.002373 0.000000 0.000000 0.000000
# 2 -0.002926 0.022972 -0.005882 0.000000 0.000000 0.000000
# 3 -0.002373 -0.005882 0.006132 0.000000 0.000000 0.000000
# 4 0.000000 0.000000 0.000000 -0.098950 0.000000 0.000000
# 5 0.000000 0.000000 0.000000 0.000000 0.035869 0.000000
# 6 0.000000 0.000000 0.000000 0.000000 0.000000 0.081576
#
#
# Mechanical properties :
#
#
# Convention : Reuss Voigt Hill
#
# Bulk Modulus (GPa) = 40.64783 70.91116 55.77950
# Shear Modulus (GPa) = 52.07300 22.16944 37.12122
#
# Velocity S-wave (km/s) = 4.42115 2.88473 3.73284
# Velocity P-wave (km/s) = 6.42806 6.14112 6.28623
#
# Compressibility (1/GPa) = 0.02460156
#
# Stress axis : x y z
#
# Youngs Moduli (GPa) = 55.99579 43.53155 163.07342
#
# Poissons Ratio (x) = 0.12736 0.38691
# Poissons Ratio (y) = 0.16383 0.95922
# Poissons Ratio (z) = 0.13286 0.25606
#
# Static dielectric constant tensor:
#      x y z
#    x 2.255560 0.000000 0.000000 
#    y 0.000000 2.134370 0.000000 
#    z 0.000000 0.000000 2.157110 
# 
# From -- ./inp_files/15847.got.cif
#   From: 2010.05.17/outbox.cif.g08.bks.cpg/sg70_8_cif.got.tgz:15847.got - 2010.06.03 15:57:51.
