data_PCOD9515537
_publ_section_title
;
Structure prediction by ZEFSAII (Michael W. Deem and Ramdas Pophale) SiO2 
 PCOD9515537
Probable space group: F D D D
;
_chemical_formula_sum "Si O2"
_cell_formula_units_Z 208
_cell_length_a 17.455150
_cell_length_b 27.954401
_cell_length_c 22.558102
_cell_angle_alpha 90.000000
_cell_angle_beta 90.000000
_cell_angle_gamma 90.000000
_cell_volume 11007.186679
_symmetry_space_group_name_H-M "F D D D"
_symmetry_group_IT_number 70
_space_group.IT_coordinate_system_code '2'
_symmetry_cell_setting 'orthorhombic'
loop_
_space_group_symop_operation_xyz
x,y,z
1/4-x,1/4-y,z
x,1/4-y,1/4-z
1/4-x,y,1/4-z
-x,-y,-z
3/4+x,3/4+y,-z
-x,3/4+y,3/4+z
3/4+x,-y,3/4+z
x,1/2+y,1/2+z
1/4-x,3/4-y,1/2+z
x,3/4-y,3/4-z
1/4-x,1/2+y,3/4-z
-x,1/2-y,1/2-z
3/4+x,1/4+y,1/2-z
-x,1/4+y,1/4+z
3/4+x,1/2-y,1/4+z
1/2+x,y,1/2+z
3/4-x,1/4-y,1/2+z
1/2+x,1/4-y,3/4-z
3/4-x,y,3/4-z
1/2-x,-y,1/2-z
1/4+x,3/4+y,1/2-z
1/2-x,3/4+y,1/4+z
1/4+x,-y,1/4+z
1/2+x,1/2+y,z
3/4-x,3/4-y,z
1/2+x,3/4-y,1/4-z
3/4-x,1/2+y,1/4-z
1/2-x,1/2-y,-z
1/4+x,1/4+y,-z
1/2-x,1/4+y,3/4+z
1/4+x,1/2-y,3/4+z
loop_
_atom_site_type_symbol
_atom_site_label
_atom_site_fract_x
_atom_site_fract_y
_atom_site_fract_z
Si Si1 0.125000 0.047414 0.625000
Si Si2 0.247821 0.481743 0.181942
Si Si3 0.359821 0.728518 0.622847
Si Si4 0.125000 0.625000 0.024641
Si Si5 0.831937 0.677449 0.013808
Si Si6 0.324627 0.125000 0.125000
Si Si7 0.970373 0.124713 0.449161
Si Si8 0.287659 0.211494 0.889902
O O1 0.136537 0.080224 0.567835
O O2 0.198102 0.016138 0.640684
O O3 0.250000 0.500000 0.250000
O O4 0.333036 0.486030 0.155484
O O5 0.210579 0.429566 0.178569
O O6 0.370713 0.720011 0.552353
O O7 0.369042 0.673386 0.645588
O O8 0.274208 0.749111 0.628645
O O9 0.201185 0.627913 0.985986
O O10 0.787734 0.646940 0.065053
O O11 0.899073 0.644273 0.987421
O O12 0.784744 0.698647 0.959539
O O13 0.977531 0.162718 0.396195
O O14 0.375000 0.226200 0.875000
#
# Coordination Sequence:
#
# PCOD9515537 Si02
#       8
#    16  32  32  16  32  16  32  32
#     4  11  26  36  62  92 134 172 220 259 324 382
#     4  12  24  40  62  94 134 173 217 261 316 406
#     4  10  21  41  64  89 119 168 212 256 322 379
#     4  11  22  40  58  92 130 173 212 268 316 405
#     4   9  20  39  63  87 118 167 206 255 317 386
#     4   8  20  34  67  81 116 154 212 252 308 373
#     4  11  22  38  60  90 131 162 211 264 328 377
#     4  10  22  39  63  91 123 164 211 271 325 382
#
# _framework density 18.896746
#
# number of rings (size 3 to 8) (size 9 to 14) (size 15 to 20)
#    0.923    0.769    1.538    3.231    3.231    0.000 
#    0.000    0.385    0.000    1.846    0.000    0.000 
#    0.000    0.000    0.000    0.000    0.000    0.000 
#
# Total GULP energy -289492.120038 kJ/mol
# GULP energy per Si atom -5567.156155 kJ/mol
# Density = 1.885374 g / cm^3
# Si number density = 18.896746 Si / 1000 Ang^3
#
#
#
# Elastic Constant Matrix: (Units=GPa)
#
#
# Indices 1 2 3 4 5 6 
#
# 1 81.8531 27.3881 22.4272 0.0000 0.0000 0.0000
# 2 27.3881 85.8120 17.4712 0.0000 0.0000 0.0000
# 3 22.4272 17.4712 97.1270 0.0000 0.0000 0.0000
# 4 0.0000 0.0000 0.0000 37.6744 0.0000 0.0000
# 5 0.0000 0.0000 0.0000 0.0000 26.6228 0.0000
# 6 0.0000 0.0000 0.0000 0.0000 0.0000 17.8440
#
#
#
# Elastic Compliance Matrix: (Units=1/GPa)
#
#
# Indices 1 2 3 4 5 6 
#
# 1 0.014270 -0.004031 -0.002570 0.000000 0.000000 0.000000
# 2 -0.004031 0.013235 -0.001450 0.000000 0.000000 0.000000
# 3 -0.002570 -0.001450 0.011150 0.000000 0.000000 0.000000
# 4 0.000000 0.000000 0.000000 0.026543 0.000000 0.000000
# 5 0.000000 0.000000 0.000000 0.000000 0.037562 0.000000
# 6 0.000000 0.000000 0.000000 0.000000 0.000000 0.056041
#
#
# Mechanical properties :
#
#
# Convention : Reuss Voigt Hill
#
# Bulk Modulus (GPa) = 44.33975 44.37391 44.35683
# Shear Modulus (GPa) = 27.40907 29.59527 28.50217
#
# Velocity S-wave (km/s) = 3.81263 3.96176 3.88791
# Velocity P-wave (km/s) = 6.54956 6.66789 6.60899
#
# Compressibility (1/GPa) = 0.02255313
#
# Stress axis : x y z
#
# Youngs Moduli (GPa) = 70.07710 75.55604 89.68603
#
# Poissons Ratio (x) = 0.30458 0.23048
# Poissons Ratio (y) = 0.28250 0.13004
# Poissons Ratio (z) = 0.18009 0.10955
#
# Static dielectric constant tensor:
#      x y z
#    x 1.663710 0.000000 0.000000 
#    y 0.000000 1.659290 0.000000 
#    z 0.000000 0.000000 1.686640 
# 
# From -- ./inp_files/52444.got.cif
#   From: 2010.05.17/outbox.cif.g08.bks.cpg/sg70_27_cif.got.tgz:52444.got - 2010.06.03 15:57:51.
