data_PCOD9515314
_publ_section_title
;
Structure prediction by ZEFSAII (Michael W. Deem and Ramdas Pophale) SiO2 
 PCOD9515314
Probable space group: F D D D
;
_chemical_formula_sum "Si O2"
_cell_formula_units_Z 176
_cell_length_a 16.475932
_cell_length_b 32.493979
_cell_length_c 16.934098
_cell_angle_alpha 90.000000
_cell_angle_beta 90.000000
_cell_angle_gamma 90.000000
_cell_volume 9065.984142
_symmetry_space_group_name_H-M "F D D D"
_symmetry_group_IT_number 70
_space_group.IT_coordinate_system_code '2'
_symmetry_cell_setting 'orthorhombic'
loop_
_space_group_symop_operation_xyz
x,y,z
1/4-x,1/4-y,z
x,1/4-y,1/4-z
1/4-x,y,1/4-z
-x,-y,-z
3/4+x,3/4+y,-z
-x,3/4+y,3/4+z
3/4+x,-y,3/4+z
x,1/2+y,1/2+z
1/4-x,3/4-y,1/2+z
x,3/4-y,3/4-z
1/4-x,1/2+y,3/4-z
-x,1/2-y,1/2-z
3/4+x,1/4+y,1/2-z
-x,1/4+y,1/4+z
3/4+x,1/2-y,1/4+z
1/2+x,y,1/2+z
3/4-x,1/4-y,1/2+z
1/2+x,1/4-y,3/4-z
3/4-x,y,3/4-z
1/2-x,-y,1/2-z
1/4+x,3/4+y,1/2-z
1/2-x,3/4+y,1/4+z
1/4+x,-y,1/4+z
1/2+x,1/2+y,z
3/4-x,3/4-y,z
1/2+x,3/4-y,1/4-z
3/4-x,1/2+y,1/4-z
1/2-x,1/2-y,-z
1/4+x,1/4+y,-z
1/2-x,1/4+y,3/4+z
1/4+x,1/2-y,3/4+z
loop_
_atom_site_type_symbol
_atom_site_label
_atom_site_fract_x
_atom_site_fract_y
_atom_site_fract_z
Si Si1 0.219601 0.406464 0.620196
Si Si2 0.084720 0.712190 0.958941
Si Si3 0.243080 0.686072 0.863817
Si Si4 0.625000 0.005777 0.125000
Si Si5 0.291233 0.794058 0.481525
Si Si6 0.980241 0.794286 0.942312
O O1 0.125000 0.416888 0.625000
O O2 0.263458 0.429358 0.548621
O O3 0.230796 0.358161 0.605108
O O4 0.265025 0.424644 0.698836
O O5 0.155517 0.698682 0.898621
O O6 0.040234 0.755220 0.939141
O O7 0.117962 0.717366 0.046667
O O8 0.299526 0.724722 0.883728
O O9 0.252868 0.679851 0.769241
O O10 0.250000 0.750000 0.500000
O O11 0.266299 0.811995 0.395704
O O12 0.386707 0.784283 0.466405
#
# Coordination Sequence:
#
# PCOD9515314 Si02
#       6
#    32  32  32  16  32  32
#     4  12  24  40  66  97 138 172 211 277 343 399
#     4  11  22  40  69  93 127 175 228 269 332 394
#     4  11  22  43  63  96 129 173 221 276 335 389
#     4  10  24  44  69  92 126 176 234 276 313 402
#     4  11  20  36  60  97 132 165 216 262 323 400
#     4  10  21  36  63  94 127 170 216 265 321 398
#
# _framework density 19.413225000000001
#
# number of rings (size 3 to 8) (size 9 to 14) (size 15 to 20)
#    0.000    1.091    4.545    2.182    0.000    2.182 
#    0.000    3.636    4.000    0.000    0.000    0.000 
#    0.000    0.000    0.000    0.000    0.000    0.000 
#
# Total GULP energy -245204.702430 kJ/mol
# GULP energy per Si atom -5572.834146 kJ/mol
# Density = 1.936904 g / cm^3
# Si number density = 19.413225 Si / 1000 Ang^3
#
#
#
# Elastic Constant Matrix: (Units=GPa)
#
#
# Indices 1 2 3 4 5 6 
#
# 1 110.0529 11.3525 31.3729 0.0000 0.0000 0.0000
# 2 11.3525 40.9783 27.3014 0.0000 0.0000 0.0000
# 3 31.3729 27.3014 125.9447 0.0000 0.0000 0.0000
# 4 0.0000 0.0000 0.0000 15.0728 0.0000 0.0000
# 5 0.0000 0.0000 0.0000 0.0000 25.3259 0.0000
# 6 0.0000 0.0000 0.0000 0.0000 0.0000 -50.0755
#
#
#
# Elastic Compliance Matrix: (Units=1/GPa)
#
#
# Indices 1 2 3 4 5 6 
#
# 1 0.009838 -0.001277 -0.002174 0.000000 0.000000 0.000000
# 2 -0.001277 0.028688 -0.005901 0.000000 0.000000 0.000000
# 3 -0.002174 -0.005901 0.009761 0.000000 0.000000 0.000000
# 4 0.000000 0.000000 0.000000 0.066345 0.000000 0.000000
# 5 0.000000 0.000000 0.000000 0.000000 0.039485 0.000000
# 6 0.000000 0.000000 0.000000 0.000000 0.000000 -0.019970
#
#
# Mechanical properties :
#
#
# Convention : Reuss Voigt Hill
#
# Bulk Modulus (GPa) = 33.80265 46.33660 40.06963
# Shear Modulus (GPa) = 30.72928 11.86125 21.29526
#
# Velocity S-wave (km/s) = 3.98289 2.47450 3.31561
# Velocity P-wave (km/s) = 6.21299 5.66433 5.94499
#
# Compressibility (1/GPa) = 0.02958348
#
# Stress axis : x y z
#
# Youngs Moduli (GPa) = 101.64692 34.85743 102.45273
#
# Poissons Ratio (x) = 0.04452 0.22271
# Poissons Ratio (y) = 0.12982 0.60454
# Poissons Ratio (z) = 0.22096 0.20568
#
# Static dielectric constant tensor:
#      x y z
#    x 1.674930 0.000000 0.000000 
#    y 0.000000 1.642740 0.000000 
#    z 0.000000 0.000000 -1.766860 
# 
# From -- ./inp_files/35258.got.cif
#   From: 2010.05.17/outbox.cif.g08.bks.cpg/sg70_18_cif.got.tgz:35258.got - 2010.06.03 15:57:51.
