data_PCOD9515318
_publ_section_title
;
Structure prediction by ZEFSAII (Michael W. Deem and Ramdas Pophale) SiO2 
 PCOD9515318
Probable space group: F D D D
;
_chemical_formula_sum "Si O2"
_cell_formula_units_Z 144
_cell_length_a 31.690978
_cell_length_b 29.403981
_cell_length_c 8.435532
_cell_angle_alpha 90.000000
_cell_angle_beta 90.000000
_cell_angle_gamma 90.000000
_cell_volume 7860.573857
_symmetry_space_group_name_H-M "F D D D"
_symmetry_group_IT_number 70
_space_group.IT_coordinate_system_code '2'
_symmetry_cell_setting 'orthorhombic'
loop_
_space_group_symop_operation_xyz
x,y,z
1/4-x,1/4-y,z
x,1/4-y,1/4-z
1/4-x,y,1/4-z
-x,-y,-z
3/4+x,3/4+y,-z
-x,3/4+y,3/4+z
3/4+x,-y,3/4+z
x,1/2+y,1/2+z
1/4-x,3/4-y,1/2+z
x,3/4-y,3/4-z
1/4-x,1/2+y,3/4-z
-x,1/2-y,1/2-z
3/4+x,1/4+y,1/2-z
-x,1/4+y,1/4+z
3/4+x,1/2-y,1/4+z
1/2+x,y,1/2+z
3/4-x,1/4-y,1/2+z
1/2+x,1/4-y,3/4-z
3/4-x,y,3/4-z
1/2-x,-y,1/2-z
1/4+x,3/4+y,1/2-z
1/2-x,3/4+y,1/4+z
1/4+x,-y,1/4+z
1/2+x,1/2+y,z
3/4-x,3/4-y,z
1/2+x,3/4-y,1/4-z
3/4-x,1/2+y,1/4-z
1/2-x,1/2-y,-z
1/4+x,1/4+y,-z
1/2-x,1/4+y,3/4+z
1/4+x,1/2-y,3/4+z
loop_
_atom_site_type_symbol
_atom_site_label
_atom_site_fract_x
_atom_site_fract_y
_atom_site_fract_z
Si Si1 0.466923 0.209692 0.725799
Si Si2 0.587902 0.339257 0.507647
Si Si3 0.023491 0.125000 0.125000
Si Si4 0.101664 0.166769 0.953793
Si Si5 0.867931 0.010643 0.560371
O O1 0.500000 0.250000 0.750000
O O2 0.444937 0.187618 0.881248
O O3 0.493133 0.166906 0.662485
O O4 0.430556 0.231674 0.614605
O O5 0.625000 0.358872 0.625000
O O6 0.571921 0.375000 0.375000
O O7 0.609441 0.300433 0.404784
O O8 0.055402 0.102849 0.255501
O O9 0.125000 0.125000 0.869089
O O10 0.110568 0.213333 0.864438
O O11 0.125000 0.173228 0.125000
O O12 0.875000 0.015704 0.375000
#
# Coordination Sequence:
#
# PCOD9515318 Si02
#       5
#    32  32  16  32  32
#     4  11  23  41  62  92 125 163 204 264 320 367
#     4  10  22  38  62  84 121 161 206 245 306 375
#     4  10  21  36  66  88 122 156 208 254 318 366
#     4   9  18  39  64  84 115 164 208 244 309 389
#     4  11  23  38  63  88 122 163 212 253 306 383
#
# _framework density 18.319272999999999
#
# number of rings (size 3 to 8) (size 9 to 14) (size 15 to 20)
#    0.000    2.000    0.000    6.667    9.333    0.444 
#    4.000    2.222    0.000    0.000    0.000    0.000 
#    0.000    0.000    0.000    0.000    0.000    0.000 
#
# Total GULP energy -200424.625377 kJ/mol
# GULP energy per Si atom -5567.350705 kJ/mol
# Density = 1.827758 g / cm^3
# Si number density = 18.319273 Si / 1000 Ang^3
#
#
#
# Elastic Constant Matrix: (Units=GPa)
#
#
# Indices 1 2 3 4 5 6 
#
# 1 118.2331 61.9877 51.9765 -0.0007 0.0007 -0.0003
# 2 61.9877 129.6499 41.9301 -0.0033 0.0026 0.0015
# 3 51.9765 41.9301 95.5676 -0.0110 0.0057 0.0061
# 4 -0.0007 -0.0033 -0.0110 20.7833 0.0032 0.0034
# 5 0.0007 0.0026 0.0057 0.0032 7.1822 -0.0033
# 6 -0.0003 0.0015 0.0061 0.0034 -0.0033 33.2253
#
#
#
# Elastic Compliance Matrix: (Units=1/GPa)
#
#
# Indices 1 2 3 4 5 6 
#
# 1 0.013129 -0.004624 -0.005112 -0.000003 0.000005 0.000001
# 2 -0.004624 0.010617 -0.002143 0.000000 -0.000002 0.000000
# 3 -0.005112 -0.002143 0.014184 0.000007 -0.000010 -0.000003
# 4 -0.000003 0.000000 0.000007 0.048116 -0.000022 -0.000005
# 5 0.000005 -0.000002 -0.000010 -0.000022 0.139233 0.000014
# 6 0.000001 0.000000 -0.000003 -0.000005 0.000014 0.030098
#
#
# Mechanical properties :
#
#
# Convention : Reuss Voigt Hill
#
# Bulk Modulus (GPa) = 70.56038 72.80437 71.68238
# Shear Modulus (GPa) = 17.61434 24.74192 21.17813
#
# Velocity S-wave (km/s) = 3.10420 3.67903 3.40377
# Velocity P-wave (km/s) = 7.17278 7.60758 7.39338
#
# Compressibility (1/GPa) = 0.01417226
#
# Stress axis : x y z
#
# Youngs Moduli (GPa) = 76.16437 94.18739 70.50010
#
# Poissons Ratio (x) = 0.43554 0.36039
# Poissons Ratio (y) = 0.35220 0.15110
# Poissons Ratio (z) = 0.38935 0.20187
#
# Static dielectric constant tensor:
#      x y z
#    x 1.753040 0.000000 0.000250 
#    y 0.000000 1.659660 -0.000190 
#    z 0.000250 -0.000190 2.118400 
# 
# From -- ./inp_files/12220.got.cif
#   From: 2010.05.17/outbox.cif.g08.bks.cpg/sg70_7_cif.got.tgz:12220.got - 2010.06.03 15:57:51.
