data_PCOD9515639
_publ_section_title
;
Structure prediction by ZEFSAII (Michael W. Deem and Ramdas Pophale) SiO2 
 PCOD9515639
Probable space group: F D D D
;
_chemical_formula_sum "Si O2"
_cell_formula_units_Z 160
_cell_length_a 28.375015
_cell_length_b 8.994764
_cell_length_c 28.395636
_cell_angle_alpha 90.000000
_cell_angle_beta 90.000000
_cell_angle_gamma 90.000000
_cell_volume 7247.320592
_symmetry_space_group_name_H-M "F D D D"
_symmetry_group_IT_number 70
_space_group.IT_coordinate_system_code '2'
_symmetry_cell_setting 'orthorhombic'
loop_
_space_group_symop_operation_xyz
x,y,z
1/4-x,1/4-y,z
x,1/4-y,1/4-z
1/4-x,y,1/4-z
-x,-y,-z
3/4+x,3/4+y,-z
-x,3/4+y,3/4+z
3/4+x,-y,3/4+z
x,1/2+y,1/2+z
1/4-x,3/4-y,1/2+z
x,3/4-y,3/4-z
1/4-x,1/2+y,3/4-z
-x,1/2-y,1/2-z
3/4+x,1/4+y,1/2-z
-x,1/4+y,1/4+z
3/4+x,1/2-y,1/4+z
1/2+x,y,1/2+z
3/4-x,1/4-y,1/2+z
1/2+x,1/4-y,3/4-z
3/4-x,y,3/4-z
1/2-x,-y,1/2-z
1/4+x,3/4+y,1/2-z
1/2-x,3/4+y,1/4+z
1/4+x,-y,1/4+z
1/2+x,1/2+y,z
3/4-x,3/4-y,z
1/2+x,3/4-y,1/4-z
3/4-x,1/2+y,1/4-z
1/2-x,1/2-y,-z
1/4+x,1/4+y,-z
1/2-x,1/4+y,3/4+z
1/4+x,1/2-y,3/4+z
loop_
_atom_site_type_symbol
_atom_site_label
_atom_site_fract_x
_atom_site_fract_y
_atom_site_fract_z
Si Si1 0.045170 0.662601 0.077470
Si Si2 0.116262 0.381032 0.446091
Si Si3 0.625000 0.125000 0.371968
Si Si4 0.375000 0.620565 0.375000
Si Si5 0.765570 0.082860 0.509290
Si Si6 0.178080 0.841175 0.711499
O O1 0.017176 0.625000 0.125000
O O2 0.087514 0.764429 0.097891
O O3 0.063018 0.515871 0.050233
O O4 0.015833 0.755063 0.041141
O O5 0.141763 0.251814 0.415329
O O6 0.101199 0.513850 0.410408
O O7 0.067625 0.322748 0.468756
O O8 0.149882 0.426989 0.489615
O O9 0.351265 0.711396 0.333517
O O10 0.750000 0.250000 0.500000
O O11 0.726992 0.994780 0.538714
#
# Coordination Sequence:
#
# PCOD9515639 Si02
#       6
#    32  32  16  16  32  32
#     4  10  21  43  72 105 134 181 242 291 362 438
#     4  11  23  47  70  95 143 181 248 287 357 442
#     4  10  24  44  68  94 128 202 228 288 358 432
#     4  10  21  44  79 108 135 186 243 304 369 434
#     4  12  26  44  67 105 147 186 233 308 365 436
#     4  11  22  44  77 101 137 188 233 302 367 423
#
# _framework density 22.077124000000001
#
# number of rings (size 3 to 8) (size 9 to 14) (size 15 to 20)
#    0.000    1.200    2.000    5.700    0.000    0.000 
#   28.800    1.000    0.000    0.000    0.000    0.000 
#    0.000    0.000    0.000    0.000    0.000    0.000 
#
# Total GULP energy -223088.225342 kJ/mol
# GULP energy per Si atom -5577.205634 kJ/mol
# Density = 2.202688 g / cm^3
# Si number density = 22.077124 Si / 1000 Ang^3
#
#
#
# Elastic Constant Matrix: (Units=GPa)
#
#
# Indices 1 2 3 4 5 6 
#
# 1 43.2064 26.1786 8.2904 0.0000 0.0000 -0.0001
# 2 26.1786 75.6355 36.0752 0.0000 0.0000 -0.0002
# 3 8.2904 36.0752 117.4518 0.0000 0.0000 0.0000
# 4 0.0000 0.0000 0.0000 -0.8267 0.0000 0.0000
# 5 0.0000 0.0000 0.0000 0.0000 32.9001 0.0000
# 6 -0.0001 -0.0002 0.0000 0.0000 0.0000 26.4720
#
#
#
# Elastic Compliance Matrix: (Units=1/GPa)
#
#
# Indices 1 2 3 4 5 6 
#
# 1 0.029438 -0.010777 0.001232 0.000001 0.000000 0.000000
# 2 -0.010777 0.019436 -0.005209 0.000000 0.000000 0.000000
# 3 0.001232 -0.005209 0.010027 0.000000 0.000000 0.000000
# 4 0.000001 0.000000 0.000000 -1.209579 0.000000 -0.000001
# 5 0.000000 0.000000 0.000000 0.000000 0.030395 0.000000
# 6 0.000000 0.000000 0.000000 -0.000001 0.000000 0.037776
#
#
# Mechanical properties :
#
#
# Convention : Reuss Voigt Hill
#
# Bulk Modulus (GPa) = 34.02083 41.93135 37.97609
# Shear Modulus (GPa) = -4.79293 22.75903 8.98305
#
# Velocity S-wave (km/s) = -1.47503 3.21423 2.01935
# Velocity P-wave (km/s) = 3.54154 5.72795 4.76193
#
# Compressibility (1/GPa) = 0.02939376
#
# Stress axis : x y z
#
# Youngs Moduli (GPa) = 33.97000 51.45164 99.72972
#
# Poissons Ratio (x) = 0.55447 -0.12288
# Poissons Ratio (y) = 0.36608 0.51949
# Poissons Ratio (z) = -0.04186 0.26801
#
# Static dielectric constant tensor:
#      x y z
#    x 1.802000 0.000000 0.000000 
#    y 0.000000 1.849610 0.000000 
#    z 0.000000 0.000000 1.866010 
# 
# From -- ./inp_files/68837.got.cif
#   From: 2010.05.17/outbox.cif.g08.bks.cpg/sg70_35_cif.got.tgz:68837.got - 2010.06.03 15:57:51.
