data_PCOD9515975
_publ_section_title
;
Structure prediction by ZEFSAII (Michael W. Deem and Ramdas Pophale) SiO2 
 PCOD9515975
Probable space group: F D D D
;
_chemical_formula_sum "Si O2"
_cell_formula_units_Z 160
_cell_length_a 15.487185
_cell_length_b 15.404783
_cell_length_c 32.802526
_cell_angle_alpha 90.000000
_cell_angle_beta 90.000000
_cell_angle_gamma 90.000000
_cell_volume 7825.919199
_symmetry_space_group_name_H-M "F D D D"
_symmetry_group_IT_number 70
_space_group.IT_coordinate_system_code '2'
_symmetry_cell_setting 'orthorhombic'
loop_
_space_group_symop_operation_xyz
x,y,z
1/4-x,1/4-y,z
x,1/4-y,1/4-z
1/4-x,y,1/4-z
-x,-y,-z
3/4+x,3/4+y,-z
-x,3/4+y,3/4+z
3/4+x,-y,3/4+z
x,1/2+y,1/2+z
1/4-x,3/4-y,1/2+z
x,3/4-y,3/4-z
1/4-x,1/2+y,3/4-z
-x,1/2-y,1/2-z
3/4+x,1/4+y,1/2-z
-x,1/4+y,1/4+z
3/4+x,1/2-y,1/4+z
1/2+x,y,1/2+z
3/4-x,1/4-y,1/2+z
1/2+x,1/4-y,3/4-z
3/4-x,y,3/4-z
1/2-x,-y,1/2-z
1/4+x,3/4+y,1/2-z
1/2-x,3/4+y,1/4+z
1/4+x,-y,1/4+z
1/2+x,1/2+y,z
3/4-x,3/4-y,z
1/2+x,3/4-y,1/4-z
3/4-x,1/2+y,1/4-z
1/2-x,1/2-y,-z
1/4+x,1/4+y,-z
1/2-x,1/4+y,3/4+z
1/4+x,1/2-y,3/4+z
loop_
_atom_site_type_symbol
_atom_site_label
_atom_site_fract_x
_atom_site_fract_y
_atom_site_fract_z
Si Si1 0.375000 0.875000 0.240858
Si Si2 0.529917 0.085822 0.192785
Si Si3 0.550133 0.952773 0.720476
Si Si4 0.099390 0.875000 0.375000
Si Si5 0.963520 0.616738 0.817195
Si Si6 0.446921 0.799419 0.111055
O O1 0.346665 0.792785 0.267412
O O2 0.456621 0.855252 0.211828
O O3 0.625000 0.125000 0.189958
O O4 0.496394 0.082567 0.239114
O O5 0.462231 0.135285 0.164172
O O6 0.530485 0.986432 0.177201
O O7 0.624355 0.888975 0.704602
O O8 0.482704 0.966054 0.684095
O O9 0.156835 0.789033 0.378495
O O10 0.977714 0.666614 0.859322
O O11 0.375000 0.875000 0.110954
#
# Coordination Sequence:
#
# PCOD9515975 Si02
#       6
#    16  32  32  16  32  32
#     4  10  22  44  67 100 132 182 224 273 346 416
#     4  11  26  46  70 104 132 183 230 282 347 416
#     4  11  26  40  72 100 138 174 230 288 334 409
#     4  12  27  44  75  94 144 186 230 283 348 415
#     4  11  23  47  69  95 143 180 222 279 353 404
#     4  12  25  46  67 104 137 181 229 285 338 409
#
# _framework density 20.444882
#
# number of rings (size 3 to 8) (size 9 to 14) (size 15 to 20)
#    0.000    0.800    3.000    3.300   11.200    2.400 
#    0.000    0.000    0.000    0.000    0.000    0.000 
#    0.000    0.000    0.000    0.000    0.000    0.000 
#
# Total GULP energy -223887.154964 kJ/mol
# GULP energy per Si atom -5597.178874 kJ/mol
# Density = 2.039835 g / cm^3
# Si number density = 20.444882 Si / 1000 Ang^3
#
#
#
# Elastic Constant Matrix: (Units=GPa)
#
#
# Indices 1 2 3 4 5 6 
#
# 1 95.5052 30.0346 25.0307 0.0000 0.0000 0.0000
# 2 30.0346 76.2033 23.3966 0.0000 0.0000 0.0000
# 3 25.0307 23.3966 95.4574 0.0000 0.0000 0.0000
# 4 0.0000 0.0000 0.0000 21.6405 0.0000 0.0000
# 5 0.0000 0.0000 0.0000 0.0000 50.5702 0.0000
# 6 0.0000 0.0000 0.0000 0.0000 0.0000 30.4513
#
#
#
# Elastic Compliance Matrix: (Units=1/GPa)
#
#
# Indices 1 2 3 4 5 6 
#
# 1 0.012371 -0.004196 -0.002216 0.000000 0.000000 0.000000
# 2 -0.004196 0.015614 -0.002727 0.000000 0.000000 0.000000
# 3 -0.002216 -0.002727 0.011725 0.000000 0.000000 0.000000
# 4 0.000000 0.000000 0.000000 0.046210 0.000000 0.000000
# 5 0.000000 0.000000 0.000000 0.000000 0.019775 0.000000
# 6 0.000000 0.000000 0.000000 0.000000 0.000000 0.032839
#
#
# Mechanical properties :
#
#
# Convention : Reuss Voigt Hill
#
# Bulk Modulus (GPa) = 46.65509 47.12106 46.88808
# Shear Modulus (GPa) = 30.49650 33.11265 31.80457
#
# Velocity S-wave (km/s) = 3.86637 4.02880 3.94842
# Velocity P-wave (km/s) = 6.54227 6.68876 6.61592
#
# Compressibility (1/GPa) = 0.02143389
#
# Stress axis : x y z
#
# Youngs Moduli (GPa) = 80.83610 64.04675 85.28674
#
# Poissons Ratio (x) = 0.26871 0.18895
# Poissons Ratio (y) = 0.33915 0.23256
# Poissons Ratio (z) = 0.17909 0.17464
#
# Static dielectric constant tensor:
#      x y z
#    x 1.703310 0.000000 0.000000 
#    y 0.000000 1.704040 0.000000 
#    z 0.000000 0.000000 1.718690 
# 
# From -- ./inp_files/34010.got.cif
#   From: 2010.05.17/outbox.cif.g08.bks.cpg/sg70_18_cif.got.tgz:34010.got - 2010.06.03 15:57:51.
