data_PCOD9515127
_publ_section_title
;
Structure prediction by ZEFSAII (Michael W. Deem and Ramdas Pophale) SiO2 
 PCOD9515127
Probable space group: F D D D
;
_chemical_formula_sum "Si O2"
_cell_formula_units_Z 112
_cell_length_a 23.457087
_cell_length_b 11.658908
_cell_length_c 16.082514
_cell_angle_alpha 90.000000
_cell_angle_beta 90.000000
_cell_angle_gamma 90.000000
_cell_volume 4398.310569
_symmetry_space_group_name_H-M "F D D D"
_symmetry_group_IT_number 70
_space_group.IT_coordinate_system_code '2'
_symmetry_cell_setting 'orthorhombic'
loop_
_space_group_symop_operation_xyz
x,y,z
1/4-x,1/4-y,z
x,1/4-y,1/4-z
1/4-x,y,1/4-z
-x,-y,-z
3/4+x,3/4+y,-z
-x,3/4+y,3/4+z
3/4+x,-y,3/4+z
x,1/2+y,1/2+z
1/4-x,3/4-y,1/2+z
x,3/4-y,3/4-z
1/4-x,1/2+y,3/4-z
-x,1/2-y,1/2-z
3/4+x,1/4+y,1/2-z
-x,1/4+y,1/4+z
3/4+x,1/2-y,1/4+z
1/2+x,y,1/2+z
3/4-x,1/4-y,1/2+z
1/2+x,1/4-y,3/4-z
3/4-x,y,3/4-z
1/2-x,-y,1/2-z
1/4+x,3/4+y,1/2-z
1/2-x,3/4+y,1/4+z
1/4+x,-y,1/4+z
1/2+x,1/2+y,z
3/4-x,3/4-y,z
1/2+x,3/4-y,1/4-z
3/4-x,1/2+y,1/4-z
1/2-x,1/2-y,-z
1/4+x,1/4+y,-z
1/2-x,1/4+y,3/4+z
1/4+x,1/2-y,3/4+z
loop_
_atom_site_type_symbol
_atom_site_label
_atom_site_fract_x
_atom_site_fract_y
_atom_site_fract_z
Si Si1 0.804286 0.125000 0.625000
Si Si2 0.988395 0.125000 0.625000
Si Si3 0.851343 0.501067 0.519754
Si Si4 0.316166 0.316707 0.242035
Si Si5 0.875000 0.652307 0.375000
O O1 0.844347 0.185215 0.558201
O O2 0.782335 0.235540 0.676776
O O3 0.026997 0.152656 0.705389
O O4 0.948143 0.226401 0.588206
O O5 0.875000 0.375000 0.503316
O O6 0.839133 0.569469 0.435247
O O7 0.375000 0.375000 0.208410
O O8 0.338204 0.233726 0.315931
#
# Coordination Sequence:
#
# PCOD9515127 Si02
#       5
#    16  16  32  32  16
#     4   9  22  40  63  92 142 182 225 296 372 409
#     4  11  23  42  75 108 130 196 252 292 364 437
#     4  10  22  43  61  96 140 190 234 302 359 425
#     4  11  20  43  70 106 144 185 238 307 352 437
#     4  10  20  40  68  94 148 184 232 292 374 416
#
# _framework density 25.464324000000001
#
# number of rings (size 3 to 8) (size 9 to 14) (size 15 to 20)
#    0.000    1.714    2.857    1.286    0.000    1.143 
#   15.429    2.857    0.000    0.000    0.000    0.000 
#    0.000    0.000    0.000    0.000    0.000    0.000 
#
# Total GULP energy -156145.541180 kJ/mol
# GULP energy per Si atom -5576.626471 kJ/mol
# Density = 2.540637 g / cm^3
# Si number density = 25.464324 Si / 1000 Ang^3
#
#
#
# Elastic Constant Matrix: (Units=GPa)
#
#
# Indices 1 2 3 4 5 6 
#
# 1 86.2677 36.6254 34.5822 0.0000 0.0000 0.0000
# 2 36.6254 138.9894 53.6171 0.0000 0.0000 0.0000
# 3 34.5822 53.6171 121.2777 0.0000 0.0000 0.0000
# 4 0.0000 0.0000 0.0000 56.8522 0.0000 0.0000
# 5 0.0000 0.0000 0.0000 0.0000 6.8871 0.0000
# 6 0.0000 0.0000 0.0000 0.0000 0.0000 11.9545
#
#
#
# Elastic Compliance Matrix: (Units=1/GPa)
#
#
# Indices 1 2 3 4 5 6 
#
# 1 0.013801 -0.002554 -0.002806 0.000000 0.000000 0.000000
# 2 -0.002554 0.009147 -0.003316 0.000000 0.000000 0.000000
# 3 -0.002806 -0.003316 0.010511 0.000000 0.000000 0.000000
# 4 0.000000 0.000000 0.000000 0.017589 0.000000 0.000000
# 5 0.000000 0.000000 0.000000 0.000000 0.145200 0.000000
# 6 0.000000 0.000000 0.000000 0.000000 0.000000 0.083651
#
#
# Mechanical properties :
#
#
# Convention : Reuss Voigt Hill
#
# Bulk Modulus (GPa) = 62.08209 66.24270 64.16239
# Shear Modulus (GPa) = 16.52234 29.91941 23.22087
#
# Velocity S-wave (km/s) = 2.55000 3.43148 3.02304
# Velocity P-wave (km/s) = 5.75352 6.46301 6.11855
#
# Compressibility (1/GPa) = 0.01610770
#
# Stress axis : x y z
#
# Youngs Moduli (GPa) = 72.45768 109.32691 95.13393
#
# Poissons Ratio (x) = 0.27925 0.26696
# Poissons Ratio (y) = 0.18508 0.31542
# Poissons Ratio (z) = 0.20333 0.36247
#
# Static dielectric constant tensor:
#      x y z
#    x 2.103090 0.000000 0.000000 
#    y 0.000000 1.863620 0.000000 
#    z 0.000000 0.000000 2.076720 
# 
# From -- ./inp_files/16330.got.cif
#   From: 2010.05.17/outbox.cif.g08.bks.cpg/sg70_9_cif.got.tgz:16330.got - 2010.06.03 15:57:51.
