data_PCOD9515242
_publ_section_title
;
Structure prediction by ZEFSAII (Michael W. Deem and Ramdas Pophale) SiO2 
 PCOD9515242
Probable space group: F D D D
;
_chemical_formula_sum "Si O2"
_cell_formula_units_Z 152
_cell_length_a 20.662707
_cell_length_b 13.179768
_cell_length_c 26.613709
_cell_angle_alpha 90.000000
_cell_angle_beta 90.000000
_cell_angle_gamma 90.000000
_cell_volume 7247.702976
_symmetry_space_group_name_H-M "F D D D"
_symmetry_group_IT_number 70
_space_group.IT_coordinate_system_code '2'
_symmetry_cell_setting 'orthorhombic'
loop_
_space_group_symop_operation_xyz
x,y,z
1/4-x,1/4-y,z
x,1/4-y,1/4-z
1/4-x,y,1/4-z
-x,-y,-z
3/4+x,3/4+y,-z
-x,3/4+y,3/4+z
3/4+x,-y,3/4+z
x,1/2+y,1/2+z
1/4-x,3/4-y,1/2+z
x,3/4-y,3/4-z
1/4-x,1/2+y,3/4-z
-x,1/2-y,1/2-z
3/4+x,1/4+y,1/2-z
-x,1/4+y,1/4+z
3/4+x,1/2-y,1/4+z
1/2+x,y,1/2+z
3/4-x,1/4-y,1/2+z
1/2+x,1/4-y,3/4-z
3/4-x,y,3/4-z
1/2-x,-y,1/2-z
1/4+x,3/4+y,1/2-z
1/2-x,3/4+y,1/4+z
1/4+x,-y,1/4+z
1/2+x,1/2+y,z
3/4-x,3/4-y,z
1/2+x,3/4-y,1/4-z
3/4-x,1/2+y,1/4-z
1/2-x,1/2-y,-z
1/4+x,1/4+y,-z
1/2-x,1/4+y,3/4+z
1/4+x,1/2-y,3/4+z
loop_
_atom_site_type_symbol
_atom_site_label
_atom_site_fract_x
_atom_site_fract_y
_atom_site_fract_z
Si Si1 0.125000 0.772975 0.125000
Si Si2 0.246032 0.020340 0.828189
Si Si3 0.050658 0.098453 0.315774
Si Si4 0.875000 0.875000 0.875000
Si Si5 0.693270 0.349305 0.758352
Si Si6 0.071600 0.449710 0.554271
O O1 0.184395 0.721567 0.095245
O O2 0.088781 0.850188 0.087723
O O3 0.210274 0.066059 0.876315
O O4 0.267683 0.109607 0.790044
O O5 0.202355 0.938717 0.799079
O O6 0.125000 0.125000 0.308196
O O7 0.004843 0.189955 0.298699
O O8 0.029547 0.002709 0.282240
O O9 0.837550 0.799095 0.912779
O O10 0.620968 0.318730 0.741306
#
# Coordination Sequence:
#
# PCOD9515242 Si02
#       6
#    16  32  32   8  32  32
#     4   7  14  35  62  88 118 156 201 255 311 391
#     4   9  19  40  66  93 132 169 213 263 331 397
#     4  11  24  41  59  95 133 166 217 274 331 396
#     4  10  20  44  70  88 122 180 230 278 332 394
#     4  10  21  40  65  94 127 170 218 270 324 405
#     4   9  20  39  62  89 120 166 221 265 322 391
#
# _framework density 20.972162000000001
#
# number of rings (size 3 to 8) (size 9 to 14) (size 15 to 20)
#    0.000    2.526    0.000    1.895    1.474    2.526 
#    3.789   23.158    0.000    0.000    0.000    0.000 
#    0.000    0.000    0.000    0.000    0.000    0.000 
#
# Total GULP energy -211858.056156 kJ/mol
# GULP energy per Si atom -5575.212004 kJ/mol
# Density = 2.092443 g / cm^3
# Si number density = 20.972162 Si / 1000 Ang^3
#
#
#
# Elastic Constant Matrix: (Units=GPa)
#
#
# Indices 1 2 3 4 5 6 
#
# 1 137.9214 71.0681 48.5451 0.0000 0.0000 0.0000
# 2 71.0681 114.0788 62.6889 0.0000 0.0000 0.0000
# 3 48.5451 62.6889 101.4980 0.0000 0.0000 0.0000
# 4 0.0000 0.0000 0.0000 -19.2455 0.0000 0.0000
# 5 0.0000 0.0000 0.0000 0.0000 21.1021 0.0000
# 6 0.0000 0.0000 0.0000 0.0000 0.0000 18.0608
#
#
#
# Elastic Compliance Matrix: (Units=1/GPa)
#
#
# Indices 1 2 3 4 5 6 
#
# 1 0.010834 -0.005906 -0.001534 0.000000 0.000000 0.000000
# 2 -0.005906 0.016490 -0.007360 0.000000 0.000000 0.000000
# 3 -0.001534 -0.007360 0.015132 0.000000 0.000000 0.000000
# 4 0.000000 0.000000 0.000000 -0.051960 0.000000 0.000000
# 5 0.000000 0.000000 0.000000 0.000000 0.047389 0.000000
# 6 0.000000 0.000000 0.000000 0.000000 0.000000 0.055368
#
#
# Mechanical properties :
#
#
# Convention : Reuss Voigt Hill
#
# Bulk Modulus (GPa) = 77.78730 79.78914 78.78822
# Shear Modulus (GPa) = 39.32776 15.39655 27.36216
#
# Velocity S-wave (km/s) = 4.33510 2.71245 3.61597
# Velocity P-wave (km/s) = 7.88852 6.92370 7.42180
#
# Compressibility (1/GPa) = 0.01285557
#
# Stress axis : x y z
#
# Youngs Moduli (GPa) = 92.30425 60.64389 66.08700
#
# Poissons Ratio (x) = 0.35818 0.10135
# Poissons Ratio (y) = 0.54518 0.48638
# Poissons Ratio (z) = 0.14156 0.44632
#
# Static dielectric constant tensor:
#      x y z
#    x 1.828360 0.000000 0.000000 
#    y 0.000000 1.761340 0.000000 
#    z 0.000000 0.000000 1.818350 
# 
# From -- ./inp_files/67180.got.cif
#   From: 2010.05.17/outbox.cif.g08.bks.cpg/sg70_34_cif.got.tgz:67180.got - 2010.06.03 15:57:51.
