data_PCOD9515711
_publ_section_title
;
Structure prediction by ZEFSAII (Michael W. Deem and Ramdas Pophale) SiO2 
 PCOD9515711
Probable space group: F D D D
;
_chemical_formula_sum "Si O2"
_cell_formula_units_Z 168
_cell_length_a 24.646155
_cell_length_b 26.244880
_cell_length_c 14.224720
_cell_angle_alpha 90.000000
_cell_angle_beta 90.000000
_cell_angle_gamma 90.000000
_cell_volume 9201.052173
_symmetry_space_group_name_H-M "F D D D"
_symmetry_group_IT_number 70
_space_group.IT_coordinate_system_code '2'
_symmetry_cell_setting 'orthorhombic'
loop_
_space_group_symop_operation_xyz
x,y,z
1/4-x,1/4-y,z
x,1/4-y,1/4-z
1/4-x,y,1/4-z
-x,-y,-z
3/4+x,3/4+y,-z
-x,3/4+y,3/4+z
3/4+x,-y,3/4+z
x,1/2+y,1/2+z
1/4-x,3/4-y,1/2+z
x,3/4-y,3/4-z
1/4-x,1/2+y,3/4-z
-x,1/2-y,1/2-z
3/4+x,1/4+y,1/2-z
-x,1/4+y,1/4+z
3/4+x,1/2-y,1/4+z
1/2+x,y,1/2+z
3/4-x,1/4-y,1/2+z
1/2+x,1/4-y,3/4-z
3/4-x,y,3/4-z
1/2-x,-y,1/2-z
1/4+x,3/4+y,1/2-z
1/2-x,3/4+y,1/4+z
1/4+x,-y,1/4+z
1/2+x,1/2+y,z
3/4-x,3/4-y,z
1/2+x,3/4-y,1/4-z
3/4-x,1/2+y,1/4-z
1/2-x,1/2-y,-z
1/4+x,1/4+y,-z
1/2-x,1/4+y,3/4+z
1/4+x,1/2-y,3/4+z
loop_
_atom_site_type_symbol
_atom_site_label
_atom_site_fract_x
_atom_site_fract_y
_atom_site_fract_z
Si Si1 0.579372 0.986259 0.417764
Si Si2 0.560763 0.614203 0.324383
Si Si3 0.125000 0.125000 0.625000
Si Si4 0.054918 0.003992 0.269802
Si Si5 0.718847 0.188830 0.577261
Si Si6 0.048985 0.688591 0.986089
O O1 0.533869 0.942860 0.411079
O O2 0.639299 0.975804 0.454787
O O3 0.553167 0.025717 0.492066
O O4 0.580888 0.016859 0.319822
O O5 0.625000 0.625000 0.333545
O O6 0.549877 0.554448 0.334105
O O7 0.544936 0.634187 0.219847
O O8 0.533081 0.647129 0.406031
O O9 0.086655 0.160264 0.560494
O O10 0.056269 0.031344 0.166899
O O11 0.004478 0.966141 0.274851
#
# Coordination Sequence:
#
# PCOD9515711 Si02
#       6
#    32  32   8  32  32  32
#     4   9  17  33  49  83 118 137 179 234 269 343
#     4  11  19  35  54  85 118 142 186 238 269 347
#     4  12  20  44  64  72  98 152 204 244 278 340
#     4  11  19  32  59  84 111 149 185 224 285 347
#     4   9  18  27  51  84 113 149 172 209 288 340
#     4  10  22  37  60  83 106 148 194 243 289 324
#
# _framework density 18.258780999999999
#
# number of rings (size 3 to 8) (size 9 to 14) (size 15 to 20)
#    0.000    1.905    4.762    2.286    0.000    0.762 
#    0.000    3.810   12.571    0.000    0.000    0.000 
#    0.000    0.000    0.000    0.000    0.000    0.000 
#
# Total GULP energy -233866.929195 kJ/mol
# GULP energy per Si atom -5568.260219 kJ/mol
# Density = 1.821722 g / cm^3
# Si number density = 18.258781 Si / 1000 Ang^3
#
#
#
# Elastic Constant Matrix: (Units=GPa)
#
#
# Indices 1 2 3 4 5 6 
#
# 1 144.8086 49.7057 41.6092 0.0000 0.0000 0.0000
# 2 49.7057 57.9104 13.0535 0.0000 0.0000 0.0000
# 3 41.6092 13.0535 60.3113 0.0000 0.0000 0.0000
# 4 0.0000 0.0000 0.0000 18.3507 0.0000 0.0000
# 5 0.0000 0.0000 0.0000 0.0000 18.6660 0.0000
# 6 0.0000 0.0000 0.0000 0.0000 0.0000 25.3696
#
#
#
# Elastic Compliance Matrix: (Units=1/GPa)
#
#
# Indices 1 2 3 4 5 6 
#
# 1 0.011624 -0.008588 -0.006160 0.000000 0.000000 0.000000
# 2 -0.008588 0.024499 0.000623 0.000000 0.000000 0.000000
# 3 -0.006160 0.000623 0.020696 0.000000 0.000000 0.000000
# 4 0.000000 0.000000 0.000000 0.054494 0.000000 0.000000
# 5 0.000000 0.000000 0.000000 0.000000 0.053573 0.000000
# 6 0.000000 0.000000 0.000000 0.000000 0.000000 0.039417
#
#
# Mechanical properties :
#
#
# Convention : Reuss Voigt Hill
#
# Bulk Modulus (GPa) = 35.00581 52.41856 43.71218
# Shear Modulus (GPa) = 20.65450 23.05472 21.85461
#
# Velocity S-wave (km/s) = 3.36699 3.55725 3.46343
# Velocity P-wave (km/s) = 5.85911 6.75597 6.32346
#
# Compressibility (1/GPa) = 0.02856669
#
# Stress axis : x y z
#
# Youngs Moduli (GPa) = 86.03070 40.81763 48.31842
#
# Poissons Ratio (x) = 0.35055 0.29767
# Poissons Ratio (y) = 0.73886 -0.03008
# Poissons Ratio (z) = 0.52999 -0.02541
#
# Static dielectric constant tensor:
#      x y z
#    x 1.641890 0.000000 0.000000 
#    y 0.000000 1.692000 0.000000 
#    z 0.000000 0.000000 1.692970 
# 
# From -- ./inp_files/27802.got.cif
#   From: 2010.05.17/outbox.cif.g08.bks.cpg/sg70_14_cif.got.tgz:27802.got - 2010.06.03 15:57:51.
