data_PCOD9515120
_publ_section_title
;
Structure prediction by ZEFSAII (Michael W. Deem and Ramdas Pophale) SiO2 
 PCOD9515120
Probable space group: F D D D
;
_chemical_formula_sum "Si O2"
_cell_formula_units_Z 168
_cell_length_a 23.670911
_cell_length_b 30.487660
_cell_length_c 11.263113
_cell_angle_alpha 90.000000
_cell_angle_beta 90.000000
_cell_angle_gamma 90.000000
_cell_volume 8128.258490
_symmetry_space_group_name_H-M "F D D D"
_symmetry_group_IT_number 70
_space_group.IT_coordinate_system_code '2'
_symmetry_cell_setting 'orthorhombic'
loop_
_space_group_symop_operation_xyz
x,y,z
1/4-x,1/4-y,z
x,1/4-y,1/4-z
1/4-x,y,1/4-z
-x,-y,-z
3/4+x,3/4+y,-z
-x,3/4+y,3/4+z
3/4+x,-y,3/4+z
x,1/2+y,1/2+z
1/4-x,3/4-y,1/2+z
x,3/4-y,3/4-z
1/4-x,1/2+y,3/4-z
-x,1/2-y,1/2-z
3/4+x,1/4+y,1/2-z
-x,1/4+y,1/4+z
3/4+x,1/2-y,1/4+z
1/2+x,y,1/2+z
3/4-x,1/4-y,1/2+z
1/2+x,1/4-y,3/4-z
3/4-x,y,3/4-z
1/2-x,-y,1/2-z
1/4+x,3/4+y,1/2-z
1/2-x,3/4+y,1/4+z
1/4+x,-y,1/4+z
1/2+x,1/2+y,z
3/4-x,3/4-y,z
1/2+x,3/4-y,1/4-z
3/4-x,1/2+y,1/4-z
1/2-x,1/2-y,-z
1/4+x,1/4+y,-z
1/2-x,1/4+y,3/4+z
1/4+x,1/2-y,3/4+z
loop_
_atom_site_type_symbol
_atom_site_label
_atom_site_fract_x
_atom_site_fract_y
_atom_site_fract_z
Si Si1 0.875000 0.375000 0.875000
Si Si2 0.677873 0.973006 0.877149
Si Si3 0.695134 0.322349 0.874442
Si Si4 0.517045 0.351251 0.749479
Si Si5 0.298687 0.818967 0.699140
Si Si6 0.689387 0.932189 0.114052
O O1 0.912153 0.406393 0.792252
O O2 0.615034 0.952173 0.865823
O O3 0.711936 0.948108 0.773564
O O4 0.676591 0.024764 0.892431
O O5 0.709817 0.958029 0.999038
O O6 0.685028 0.375000 0.875000
O O7 0.739921 0.311205 0.772059
O O8 0.717872 0.312352 0.008335
O O9 0.508095 0.375000 0.875000
O O10 0.464454 0.350166 0.662138
O O11 0.561180 0.381682 0.678395
O O12 0.625000 0.947523 0.125000
#
# Coordination Sequence:
#
# PCOD9515120 Si02
#       6
#     8  32  32  32  32  32
#     4  12  28  48  66  92 128 176 228 286 312 398
#     4  10  23  37  64 101 133 159 216 279 316 395
#     4  11  20  40  68  98 123 173 215 270 336 385
#     4  10  20  40  66  94 133 170 211 263 327 399
#     4  12  25  44  65  93 130 177 221 269 335 385
#     4   9  17  33  61  96 126 159 207 267 323 376
#
# _framework density 20.668633
#
# number of rings (size 3 to 8) (size 9 to 14) (size 15 to 20)
#    0.000    1.524    2.857    3.429    4.000    0.762 
#    6.857    0.476    0.000    0.000    0.000    0.000 
#    0.000    0.000    0.000    0.000    0.000    0.000 
#
# Total GULP energy -234054.160888 kJ/mol
# GULP energy per Si atom -5572.718116 kJ/mol
# Density = 2.062159 g / cm^3
# Si number density = 20.668633 Si / 1000 Ang^3
#
#
#
# Elastic Constant Matrix: (Units=GPa)
#
#
# Indices 1 2 3 4 5 6 
#
# 1 61.1279 23.7281 26.0985 0.0000 0.0000 0.0000
# 2 23.7281 56.2733 -11.7562 0.0000 0.0000 0.0000
# 3 26.0985 -11.7562 81.9625 0.0001 -0.0001 0.0000
# 4 0.0000 0.0000 0.0001 17.2137 0.0000 0.0000
# 5 0.0000 0.0000 -0.0001 0.0000 18.4496 0.0000
# 6 0.0000 0.0000 0.0000 0.0000 0.0000 -9.4578
#
#
#
# Elastic Compliance Matrix: (Units=1/GPa)
#
#
# Indices 1 2 3 4 5 6 
#
# 1 0.025646 -0.012907 -0.010018 0.000000 0.000000 0.000000
# 2 -0.012907 0.024815 0.007669 0.000000 0.000000 0.000000
# 3 -0.010018 0.007669 0.016490 0.000000 0.000000 0.000000
# 4 0.000000 0.000000 0.000000 0.058093 0.000000 0.000000
# 5 0.000000 0.000000 0.000000 0.000000 0.054202 0.000000
# 6 0.000000 0.000000 0.000000 0.000000 0.000000 -0.105732
#
#
# Mechanical properties :
#
#
# Convention : Reuss Voigt Hill
#
# Bulk Modulus (GPa) = 27.44154 30.61161 29.02658
# Shear Modulus (GPa) = 43.03995 15.99399 29.51697
#
# Velocity S-wave (km/s) = 4.56826 2.78480 3.78313
# Velocity P-wave (km/s) = 6.41335 5.01826 5.75821
#
# Compressibility (1/GPa) = 0.03644110
#
# Stress axis : x y z
#
# Youngs Moduli (GPa) = 38.99227 40.29852 60.64102
#
# Poissons Ratio (x) = 0.52012 0.60747
# Poissons Ratio (y) = 0.50326 -0.46506
# Poissons Ratio (z) = 0.39061 -0.30905
#
# Static dielectric constant tensor:
#      x y z
#    x 1.730700 0.000000 0.000000 
#    y 0.000000 1.796320 0.000000 
#    z 0.000000 0.000000 1.792260 
# 
# From -- ./inp_files/19662.got.cif
#   From: 2010.05.17/outbox.cif.g08.bks.cpg/sg70_10_cif.got.tgz:19662.got - 2010.06.03 15:57:51.
