data_PCOD9515843
_publ_section_title
;
Structure prediction by ZEFSAII (Michael W. Deem and Ramdas Pophale) SiO2 
 PCOD9515843
Probable space group: F D D D
;
_chemical_formula_sum "Si O2"
_cell_formula_units_Z 104
_cell_length_a 21.872531
_cell_length_b 25.188558
_cell_length_c 8.178662
_cell_angle_alpha 90.000000
_cell_angle_beta 90.000000
_cell_angle_gamma 90.000000
_cell_volume 4505.931724
_symmetry_space_group_name_H-M "F D D D"
_symmetry_group_IT_number 70
_space_group.IT_coordinate_system_code '2'
_symmetry_cell_setting 'orthorhombic'
loop_
_space_group_symop_operation_xyz
x,y,z
1/4-x,1/4-y,z
x,1/4-y,1/4-z
1/4-x,y,1/4-z
-x,-y,-z
3/4+x,3/4+y,-z
-x,3/4+y,3/4+z
3/4+x,-y,3/4+z
x,1/2+y,1/2+z
1/4-x,3/4-y,1/2+z
x,3/4-y,3/4-z
1/4-x,1/2+y,3/4-z
-x,1/2-y,1/2-z
3/4+x,1/4+y,1/2-z
-x,1/4+y,1/4+z
3/4+x,1/2-y,1/4+z
1/2+x,y,1/2+z
3/4-x,1/4-y,1/2+z
1/2+x,1/4-y,3/4-z
3/4-x,y,3/4-z
1/2-x,-y,1/2-z
1/4+x,3/4+y,1/2-z
1/2-x,3/4+y,1/4+z
1/4+x,-y,1/4+z
1/2+x,1/2+y,z
3/4-x,3/4-y,z
1/2+x,3/4-y,1/4-z
3/4-x,1/2+y,1/4-z
1/2-x,1/2-y,-z
1/4+x,1/4+y,-z
1/2-x,1/4+y,3/4+z
1/4+x,1/2-y,3/4+z
loop_
_atom_site_type_symbol
_atom_site_label
_atom_site_fract_x
_atom_site_fract_y
_atom_site_fract_z
Si Si1 0.273277 0.930407 0.414487
Si Si2 0.758453 0.313205 0.985556
Si Si3 0.557509 0.298894 0.595951
Si Si4 0.625000 0.125000 0.125000
O O1 0.306092 0.875000 0.375000
O O2 0.236885 0.919803 0.583891
O O3 0.230070 0.942659 0.261334
O O4 0.310337 0.984930 0.436437
O O5 0.725892 0.323958 0.811637
O O6 0.827760 0.336310 0.970804
O O7 0.750000 0.250000 0.000000
O O8 0.625000 0.319664 0.625000
#
# Coordination Sequence:
#
# PCOD9515843 Si02
#       4
#    32  32  32   8
#     4  10  22  41  64  96 132 179 234 279 359 423
#     4  10  24  42  69 105 140 187 243 300 369 432
#     4  10  23  43  65  99 141 175 230 297 353 432
#     4  12  24  48  78 100 148 194 244 294 370 458
#
# _framework density 23.080687000000001
#
# number of rings (size 3 to 8) (size 9 to 14) (size 15 to 20)
#    0.000    1.846    0.000    1.846    0.000   21.538 
#    8.308    1.538    3.385    0.000    0.000    0.000 
#    0.000    0.000    0.000    0.000    0.000    0.000 
#
# Total GULP energy -144870.720664 kJ/mol
# GULP energy per Si atom -5571.950795 kJ/mol
# Density = 2.302815 g / cm^3
# Si number density = 23.080687 Si / 1000 Ang^3
#
#
#
# Elastic Constant Matrix: (Units=GPa)
#
#
# Indices 1 2 3 4 5 6 
#
# 1 109.5356 31.6378 60.7407 0.0001 0.0000 0.0000
# 2 31.6378 130.0779 37.3719 0.0004 -0.0002 -0.0002
# 3 60.7407 37.3719 238.5217 0.0009 -0.0001 -0.0003
# 4 0.0001 0.0004 0.0009 47.9029 -0.0005 -0.0005
# 5 0.0000 -0.0002 -0.0001 -0.0005 -6.3394 0.0002
# 6 0.0000 -0.0002 -0.0003 -0.0005 0.0002 26.4031
#
#
#
# Elastic Compliance Matrix: (Units=1/GPa)
#
#
# Indices 1 2 3 4 5 6 
#
# 1 0.011095 -0.001976 -0.002516 0.000000 0.000000 0.000000
# 2 -0.001976 0.008402 -0.000813 0.000000 0.000000 0.000000
# 3 -0.002516 -0.000813 0.004961 0.000000 0.000000 0.000000
# 4 0.000000 0.000000 0.000000 0.020876 -0.000002 0.000000
# 5 0.000000 0.000000 0.000000 -0.000002 -0.157743 0.000001
# 6 0.000000 0.000000 0.000000 0.000000 0.000001 0.037874
#
#
# Mechanical properties :
#
#
# Convention : Reuss Voigt Hill
#
# Bulk Modulus (GPa) = 72.21332 81.95957 77.08644
# Shear Modulus (GPa) = -84.30420 36.81896 -23.74262
#
# Velocity S-wave (km/s) = -6.05022 3.99836 -3.21078
# Velocity P-wave (km/s) = 4.17751 7.54341 4.44136
#
# Compressibility (1/GPa) = 0.01384786
#
# Stress axis : x y z
#
# Youngs Moduli (GPa) = 90.12848 119.02053 201.58848
#
# Poissons Ratio (x) = 0.23516 0.50718
# Poissons Ratio (y) = 0.17807 0.16395
# Poissons Ratio (z) = 0.22675 0.09680
#
# Static dielectric constant tensor:
#      x y z
#    x 1.878460 0.000000 0.000000 
#    y 0.000000 2.273450 0.000000 
#    z 0.000000 0.000000 1.881810 
# 
# From -- ./inp_files/9389.got.cif
#   From: 2010.05.17/outbox.cif.g08.bks.cpg/sg70_5_cif.got.tgz:9389.got - 2010.06.03 15:57:51.
