data_PCOD9515936
_publ_section_title
;
Structure prediction by ZEFSAII (Michael W. Deem and Ramdas Pophale) SiO2 
 PCOD9515936
Probable space group: F D D D
;
_chemical_formula_sum "Si O2"
_cell_formula_units_Z 144
_cell_length_a 14.846649
_cell_length_b 16.349685
_cell_length_c 25.770084
_cell_angle_alpha 90.000000
_cell_angle_beta 90.000000
_cell_angle_gamma 90.000000
_cell_volume 6255.379538
_symmetry_space_group_name_H-M "F D D D"
_symmetry_group_IT_number 70
_space_group.IT_coordinate_system_code '2'
_symmetry_cell_setting 'orthorhombic'
loop_
_space_group_symop_operation_xyz
x,y,z
1/4-x,1/4-y,z
x,1/4-y,1/4-z
1/4-x,y,1/4-z
-x,-y,-z
3/4+x,3/4+y,-z
-x,3/4+y,3/4+z
3/4+x,-y,3/4+z
x,1/2+y,1/2+z
1/4-x,3/4-y,1/2+z
x,3/4-y,3/4-z
1/4-x,1/2+y,3/4-z
-x,1/2-y,1/2-z
3/4+x,1/4+y,1/2-z
-x,1/4+y,1/4+z
3/4+x,1/2-y,1/4+z
1/2+x,y,1/2+z
3/4-x,1/4-y,1/2+z
1/2+x,1/4-y,3/4-z
3/4-x,y,3/4-z
1/2-x,-y,1/2-z
1/4+x,3/4+y,1/2-z
1/2-x,3/4+y,1/4+z
1/4+x,-y,1/4+z
1/2+x,1/2+y,z
3/4-x,3/4-y,z
1/2+x,3/4-y,1/4-z
3/4-x,1/2+y,1/4-z
1/2-x,1/2-y,-z
1/4+x,1/4+y,-z
1/2-x,1/4+y,3/4+z
1/4+x,1/2-y,3/4+z
loop_
_atom_site_type_symbol
_atom_site_label
_atom_site_fract_x
_atom_site_fract_y
_atom_site_fract_z
Si Si1 0.770943 0.391079 0.812656
Si Si2 0.198787 0.561059 0.340191
Si Si3 0.626678 0.766711 0.303472
Si Si4 0.625000 0.841356 0.125000
Si Si5 0.063334 0.052748 0.052541
O O1 0.764623 0.375000 0.875000
O O2 0.875000 0.375000 0.799640
O O3 0.726878 0.480923 0.807227
O O4 0.709596 0.322523 0.785914
O O5 0.125000 0.625000 0.318410
O O6 0.155313 0.530055 0.394635
O O7 0.292934 0.605105 0.353446
O O8 0.540171 0.823660 0.313280
O O9 0.588865 0.710134 0.257748
O O10 0.664175 0.781778 0.080991
O O11 0.125000 0.125000 0.071418
#
# Coordination Sequence:
#
# PCOD9515936 Si02
#       5
#    32  32  32  16  32
#     4   9  19  38  66  93 121 174 217 257 320 397
#     4  11  21  38  64  94 131 166 215 271 322 383
#     4  10  22  43  66  90 130 174 215 266 333 388
#     4  12  25  40  63 100 130 168 220 266 325 402
#     4  11  25  40  65  95 128 173 217 269 328 394
#
# _framework density 23.020185999999999
#
# number of rings (size 3 to 8) (size 9 to 14) (size 15 to 20)
#    0.000    1.556    2.222    3.667    6.222    1.778 
#    0.000    2.222    0.000    0.000    0.000    0.000 
#    0.000    0.000    0.000    0.000    0.000    0.000 
#
# Total GULP energy -201276.252524 kJ/mol
# GULP energy per Si atom -5591.007015 kJ/mol
# Density = 2.296779 g / cm^3
# Si number density = 23.020186 Si / 1000 Ang^3
#
#
#
# Elastic Constant Matrix: (Units=GPa)
#
#
# Indices 1 2 3 4 5 6 
#
# 1 187.6563 46.7221 -1.8795 0.0000 0.0000 0.0000
# 2 46.7221 91.6688 -4.0781 0.0000 0.0000 0.0000
# 3 -1.8795 -4.0781 83.2421 0.0000 0.0000 0.0000
# 4 0.0000 0.0000 0.0000 13.7830 0.0000 0.0000
# 5 0.0000 0.0000 0.0000 0.0000 85.8186 0.0000
# 6 0.0000 0.0000 0.0000 0.0000 0.0000 52.4106
#
#
#
# Elastic Compliance Matrix: (Units=1/GPa)
#
#
# Indices 1 2 3 4 5 6 
#
# 1 0.006103 -0.003111 -0.000015 0.000000 0.000000 0.000000
# 2 -0.003111 0.012519 0.000543 0.000000 0.000000 0.000000
# 3 -0.000015 0.000543 0.012039 0.000000 0.000000 0.000000
# 4 0.000000 0.000000 0.000000 0.072553 0.000000 0.000000
# 5 0.000000 0.000000 0.000000 0.000000 0.011652 0.000000
# 6 0.000000 0.000000 0.000000 0.000000 0.000000 0.019080
#
#
# Mechanical properties :
#
#
# Convention : Reuss Voigt Hill
#
# Bulk Modulus (GPa) = 39.22240 49.34403 44.28321
# Shear Modulus (GPa) = 33.87255 51.85593 42.86424
#
# Velocity S-wave (km/s) = 3.84008 4.75134 4.31980
# Velocity P-wave (km/s) = 6.06110 7.18205 6.64525
#
# Compressibility (1/GPa) = 0.02549564
#
# Stress axis : x y z
#
# Youngs Moduli (GPa) = 163.84224 79.87941 83.06043
#
# Poissons Ratio (x) = 0.24854 0.00121
# Poissons Ratio (y) = 0.50979 -0.04511
# Poissons Ratio (z) = 0.00240 -0.04338
#
# Static dielectric constant tensor:
#      x y z
#    x 1.820610 0.000000 0.000000 
#    y 0.000000 1.868520 0.000000 
#    z 0.000000 0.000000 1.904450 
# 
# From -- ./inp_files/65631.got.cif
#   From: 2010.05.17/outbox.cif.g08.bks.cpg/sg70_33_cif.got.tgz:65631.got - 2010.06.03 15:57:51.
