data_PCOD9515856
_publ_section_title
;
Structure prediction by ZEFSAII (Michael W. Deem and Ramdas Pophale) SiO2 
 PCOD9515856
Probable space group: F D D D
;
_chemical_formula_sum "Si O2"
_cell_formula_units_Z 192
_cell_length_a 19.732363
_cell_length_b 29.122831
_cell_length_c 16.674918
_cell_angle_alpha 90.000000
_cell_angle_beta 90.000000
_cell_angle_gamma 90.000000
_cell_volume 9582.446278
_symmetry_space_group_name_H-M "F D D D"
_symmetry_group_IT_number 70
_space_group.IT_coordinate_system_code '2'
_symmetry_cell_setting 'orthorhombic'
loop_
_space_group_symop_operation_xyz
x,y,z
1/4-x,1/4-y,z
x,1/4-y,1/4-z
1/4-x,y,1/4-z
-x,-y,-z
3/4+x,3/4+y,-z
-x,3/4+y,3/4+z
3/4+x,-y,3/4+z
x,1/2+y,1/2+z
1/4-x,3/4-y,1/2+z
x,3/4-y,3/4-z
1/4-x,1/2+y,3/4-z
-x,1/2-y,1/2-z
3/4+x,1/4+y,1/2-z
-x,1/4+y,1/4+z
3/4+x,1/2-y,1/4+z
1/2+x,y,1/2+z
3/4-x,1/4-y,1/2+z
1/2+x,1/4-y,3/4-z
3/4-x,y,3/4-z
1/2-x,-y,1/2-z
1/4+x,3/4+y,1/2-z
1/2-x,3/4+y,1/4+z
1/4+x,-y,1/4+z
1/2+x,1/2+y,z
3/4-x,3/4-y,z
1/2+x,3/4-y,1/4-z
3/4-x,1/2+y,1/4-z
1/2-x,1/2-y,-z
1/4+x,1/4+y,-z
1/2-x,1/4+y,3/4+z
1/4+x,1/2-y,3/4+z
loop_
_atom_site_type_symbol
_atom_site_label
_atom_site_fract_x
_atom_site_fract_y
_atom_site_fract_z
Si Si1 0.679055 0.411652 0.699227
Si Si2 0.900119 0.667304 0.729096
Si Si3 0.830862 0.828622 0.616429
Si Si4 0.959068 0.958776 0.788224
Si Si5 0.375000 0.217010 0.875000
Si Si6 0.990713 0.375000 0.375000
Si Si7 0.386908 0.230062 0.570164
O O1 0.625000 0.413206 0.625000
O O2 0.663291 0.364732 0.748234
O O3 0.755985 0.413964 0.670041
O O4 0.662605 0.453200 0.759929
O O5 0.921534 0.688860 0.813914
O O6 0.887813 0.703269 0.656717
O O7 0.959284 0.633803 0.699242
O O8 0.875000 0.875000 0.609377
O O9 0.818560 0.814486 0.708694
O O10 0.866616 0.783159 0.579482
O O11 0.951903 0.921223 0.858504
O O12 0.037645 0.973176 0.784987
O O13 0.918348 0.002964 0.814784
#
# Coordination Sequence:
#
# PCOD9515856 Si02
#       7
#    32  32  32  32  16  16  32
#     4  12  22  45  74  98 133 188 231 278 351 419
#     4  11  21  40  68  99 130 179 228 272 330 423
#     4  12  28  43  69 106 137 175 236 301 339 407
#     4  11  25  43  65  99 142 183 221 284 346 413
#     4  12  26  37  64 104 140 182 219 278 342 420
#     4  10  22  41  66  94 129 184 224 274 338 402
#     4  11  24  47  69  98 139 182 228 282 351 413
#
# _framework density 20.036636999999999
#
# number of rings (size 3 to 8) (size 9 to 14) (size 15 to 20)
#    0.000    0.667    7.500    0.500    4.667    2.667 
#    0.000    0.000    0.000    0.000    0.000    0.000 
#    0.000    0.000    0.000    0.000    0.000    0.000 
#
# Total GULP energy -268108.890313 kJ/mol
# GULP energy per Si atom -5585.601882 kJ/mol
# Density = 1.999103 g / cm^3
# Si number density = 20.036637 Si / 1000 Ang^3
#
#
#
# Elastic Constant Matrix: (Units=GPa)
#
#
# Indices 1 2 3 4 5 6 
#
# 1 107.2311 50.1840 30.6126 0.0000 0.0000 0.0000
# 2 50.1840 128.4698 36.1621 0.0000 0.0000 0.0000
# 3 30.6126 36.1621 86.3927 0.0000 0.0000 0.0000
# 4 0.0000 0.0000 0.0000 39.6087 0.0000 0.0000
# 5 0.0000 0.0000 0.0000 0.0000 26.6659 0.0000
# 6 0.0000 0.0000 0.0000 0.0000 0.0000 -7.0573
#
#
#
# Elastic Compliance Matrix: (Units=1/GPa)
#
#
# Indices 1 2 3 4 5 6 
#
# 1 0.011896 -0.003923 -0.002573 0.000000 0.000000 0.000000
# 2 -0.003923 0.010117 -0.002845 0.000000 0.000000 0.000000
# 3 -0.002573 -0.002845 0.013678 0.000000 0.000000 0.000000
# 4 0.000000 0.000000 0.000000 0.025247 0.000000 0.000000
# 5 0.000000 0.000000 0.000000 0.000000 0.037501 0.000000
# 6 0.000000 0.000000 0.000000 0.000000 0.000000 -0.141698
#
#
# Mechanical properties :
#
#
# Convention : Reuss Voigt Hill
#
# Bulk Modulus (GPa) = 58.79175 61.77902 60.28538
# Shear Modulus (GPa) = -264.43632 25.51913 -119.45859
#
# Velocity S-wave (km/s) = -11.50056 3.57266 -7.72978
# Velocity P-wave (km/s) = 12.12208 6.92232 7.03656
#
# Compressibility (1/GPa) = 0.01700919
#
# Stress axis : x y z
#
# Youngs Moduli (GPa) = 84.06134 98.84375 73.11182
#
# Poissons Ratio (x) = 0.38772 0.18814
# Poissons Ratio (y) = 0.32974 0.20799
# Poissons Ratio (z) = 0.21632 0.28119
#
# Static dielectric constant tensor:
#      x y z
#    x 1.687880 0.000000 0.000000 
#    y 0.000000 1.736620 0.000000 
#    z 0.000000 0.000000 1.716810 
# 
# From -- ./inp_files/35505.got.cif
#   From: 2010.05.17/outbox.cif.g08.bks.cpg/sg70_18_cif.got.tgz:35505.got - 2010.06.03 15:57:51.
