data_PCOD9515057
_publ_section_title
;
Structure prediction by ZEFSAII (Michael W. Deem and Ramdas Pophale) SiO2 
 PCOD9515057
Probable space group: F D D D
;
_chemical_formula_sum "Si O2"
_cell_formula_units_Z 208
_cell_length_a 18.955004
_cell_length_b 27.617642
_cell_length_c 18.377999
_cell_angle_alpha 90.000000
_cell_angle_beta 90.000000
_cell_angle_gamma 90.000000
_cell_volume 9620.744909
_symmetry_space_group_name_H-M "F D D D"
_symmetry_group_IT_number 70
_space_group.IT_coordinate_system_code '2'
_symmetry_cell_setting 'orthorhombic'
loop_
_space_group_symop_operation_xyz
x,y,z
1/4-x,1/4-y,z
x,1/4-y,1/4-z
1/4-x,y,1/4-z
-x,-y,-z
3/4+x,3/4+y,-z
-x,3/4+y,3/4+z
3/4+x,-y,3/4+z
x,1/2+y,1/2+z
1/4-x,3/4-y,1/2+z
x,3/4-y,3/4-z
1/4-x,1/2+y,3/4-z
-x,1/2-y,1/2-z
3/4+x,1/4+y,1/2-z
-x,1/4+y,1/4+z
3/4+x,1/2-y,1/4+z
1/2+x,y,1/2+z
3/4-x,1/4-y,1/2+z
1/2+x,1/4-y,3/4-z
3/4-x,y,3/4-z
1/2-x,-y,1/2-z
1/4+x,3/4+y,1/2-z
1/2-x,3/4+y,1/4+z
1/4+x,-y,1/4+z
1/2+x,1/2+y,z
3/4-x,3/4-y,z
1/2+x,3/4-y,1/4-z
3/4-x,1/2+y,1/4-z
1/2-x,1/2-y,-z
1/4+x,1/4+y,-z
1/2-x,1/4+y,3/4+z
1/4+x,1/2-y,3/4+z
loop_
_atom_site_type_symbol
_atom_site_label
_atom_site_fract_x
_atom_site_fract_y
_atom_site_fract_z
Si Si1 0.863456 0.245772 0.531319
Si Si2 0.812710 0.412838 0.493251
Si Si3 0.625000 0.495296 0.625000
Si Si4 0.873465 0.321144 0.003042
Si Si5 0.994576 0.083884 0.381951
Si Si6 0.774044 0.478930 0.359222
Si Si7 0.213149 0.429394 0.547133
O O1 0.916320 0.290097 0.541941
O O2 0.817219 0.270593 0.465863
O O3 0.808176 0.232417 0.592458
O O4 0.909444 0.198608 0.513510
O O5 0.875000 0.375000 0.481199
O O6 0.760623 0.390316 0.553504
O O7 0.788453 0.435882 0.416647
O O8 0.611364 0.529474 0.555508
O O9 0.693610 0.461308 0.617978
O O10 0.875000 0.375000 0.969066
O O11 0.813639 0.323326 0.066501
O O12 0.953762 0.314803 0.030135
O O13 0.952522 0.124926 0.427699
O O14 0.798120 0.529613 0.392677
#
# Coordination Sequence:
#
# PCOD9515057 Si02
#       7
#    32  32  16  32  32  32  32
#     4  10  21  37  61  90 125 171 204 262 319 384
#     4  11  21  38  62  92 128 167 215 260 318 384
#     4  12  23  38  66  94 124 164 215 282 322 382
#     4  10  22  42  63  91 124 168 212 261 324 395
#     4  11  24  38  63  95 127 168 215 268 323 388
#     4  10  21  36  61  91 125 168 212 257 316 384
#     4  10  20  39  64  87 125 166 212 250 322 394
#
# _framework density 21.619948000000001
#
# number of rings (size 3 to 8) (size 9 to 14) (size 15 to 20)
#    0.000    1.538    0.000    7.615    2.154    1.231 
#    0.000    1.538    6.769    0.000    4.000    0.000 
#    0.000    0.000    0.000    0.000    0.000    0.000 
#
# Total GULP energy -289993.463834 kJ/mol
# GULP energy per Si atom -5576.797381 kJ/mol
# Density = 2.157074 g / cm^3
# Si number density = 21.619948 Si / 1000 Ang^3
#
#
#
# Elastic Constant Matrix: (Units=GPa)
#
#
# Indices 1 2 3 4 5 6 
#
# 1 103.7185 24.9615 26.7974 0.0000 0.0000 0.0000
# 2 24.9615 90.0184 36.5378 0.0000 0.0000 0.0000
# 3 26.7974 36.5378 80.5069 0.0000 0.0000 0.0000
# 4 0.0000 0.0000 0.0000 7.1665 0.0000 0.0000
# 5 0.0000 0.0000 0.0000 0.0000 32.8705 0.0000
# 6 0.0000 0.0000 0.0000 0.0000 0.0000 41.9416
#
#
#
# Elastic Compliance Matrix: (Units=1/GPa)
#
#
# Indices 1 2 3 4 5 6 
#
# 1 0.010803 -0.001883 -0.002741 0.000000 0.000000 0.000000
# 2 -0.001883 0.013946 -0.005702 0.000000 0.000000 0.000000
# 3 -0.002741 -0.005702 0.015922 0.000000 0.000000 0.000000
# 4 0.000000 0.000000 0.000000 0.139538 0.000000 0.000000
# 5 0.000000 0.000000 0.000000 0.000000 0.030422 0.000000
# 6 0.000000 0.000000 0.000000 0.000000 0.000000 0.023843
#
#
# Mechanical properties :
#
#
# Convention : Reuss Voigt Hill
#
# Bulk Modulus (GPa) = 49.95750 50.09304 50.02527
# Shear Modulus (GPa) = 19.09860 28.79219 23.94540
#
# Velocity S-wave (km/s) = 2.97539 3.65326 3.33161
# Velocity P-wave (km/s) = 5.91280 6.40431 6.16346
#
# Compressibility (1/GPa) = 0.02001702
#
# Stress axis : x y z
#
# Youngs Moduli (GPa) = 92.56783 71.70770 62.80709
#
# Poissons Ratio (x) = 0.13502 0.17217
# Poissons Ratio (y) = 0.17430 0.35815
# Poissons Ratio (z) = 0.25376 0.40890
#
# Static dielectric constant tensor:
#      x y z
#    x 1.892780 0.000000 0.000000 
#    y 0.000000 1.800190 0.000000 
#    z 0.000000 0.000000 1.853880 
# 
# From -- ./inp_files/36731.got.cif
#   From: 2010.05.17/outbox.cif.g08.bks.cpg/sg70_19_cif.got.tgz:36731.got - 2010.06.03 15:57:51.
