data_PCOD9515475
_publ_section_title
;
Structure prediction by ZEFSAII (Michael W. Deem and Ramdas Pophale) SiO2 
 PCOD9515475
Probable space group: F D D D
;
_chemical_formula_sum "Si O2"
_cell_formula_units_Z 144
_cell_length_a 22.361465
_cell_length_b 12.484602
_cell_length_c 27.938709
_cell_angle_alpha 90.000000
_cell_angle_beta 90.000000
_cell_angle_gamma 90.000000
_cell_volume 7799.760885
_symmetry_space_group_name_H-M "F D D D"
_symmetry_group_IT_number 70
_space_group.IT_coordinate_system_code '2'
_symmetry_cell_setting 'orthorhombic'
loop_
_space_group_symop_operation_xyz
x,y,z
1/4-x,1/4-y,z
x,1/4-y,1/4-z
1/4-x,y,1/4-z
-x,-y,-z
3/4+x,3/4+y,-z
-x,3/4+y,3/4+z
3/4+x,-y,3/4+z
x,1/2+y,1/2+z
1/4-x,3/4-y,1/2+z
x,3/4-y,3/4-z
1/4-x,1/2+y,3/4-z
-x,1/2-y,1/2-z
3/4+x,1/4+y,1/2-z
-x,1/4+y,1/4+z
3/4+x,1/2-y,1/4+z
1/2+x,y,1/2+z
3/4-x,1/4-y,1/2+z
1/2+x,1/4-y,3/4-z
3/4-x,y,3/4-z
1/2-x,-y,1/2-z
1/4+x,3/4+y,1/2-z
1/2-x,3/4+y,1/4+z
1/4+x,-y,1/4+z
1/2+x,1/2+y,z
3/4-x,3/4-y,z
1/2+x,3/4-y,1/4-z
3/4-x,1/2+y,1/4-z
1/2-x,1/2-y,-z
1/4+x,1/4+y,-z
1/2-x,1/4+y,3/4+z
1/4+x,1/2-y,3/4+z
loop_
_atom_site_type_symbol
_atom_site_label
_atom_site_fract_x
_atom_site_fract_y
_atom_site_fract_z
Si Si1 0.819549 0.125000 0.125000
Si Si2 0.937600 0.702285 0.584608
Si Si3 0.625000 0.625000 0.046830
Si Si4 0.244140 0.126750 0.255789
Si Si5 0.001563 0.654133 0.381166
Si Si6 0.625000 0.305796 0.625000
O O1 0.869537 0.158214 0.085017
O O2 0.777250 0.227574 0.124825
O O3 0.968801 0.625000 0.625000
O O4 0.962512 0.685150 0.531760
O O5 0.952814 0.819194 0.606012
O O6 0.639511 0.725414 0.081102
O O7 0.678996 0.592449 0.013010
O O8 0.251032 0.145408 0.311513
O O9 0.250000 0.000000 0.250000
O O10 0.934480 0.624435 0.363921
#
# Coordination Sequence:
#
# PCOD9515475 Si02
#       6
#    16  32  16  32  32  16
#     4  10  26  41  66  83 132 180 210 248 318 392
#     4  10  21  40  62  95 126 153 209 271 322 364
#     4  11  22  36  60 102 126 156 206 278 326 365
#     4  12  22  35  67 100 125 156 215 270 332 376
#     4  12  24  43  65  95 125 174 211 264 324 384
#     4  11  22  39  64  88 138 163 203 268 324 368
#
# _framework density 18.462105000000001
#
# number of rings (size 3 to 8) (size 9 to 14) (size 15 to 20)
#    0.667    0.222    6.667    0.667    6.222    0.444 
#    0.000    1.111    4.889    0.000    0.000    0.000 
#    0.000    0.000    0.000    0.000    0.000    0.000 
#
# Total GULP energy -200420.329478 kJ/mol
# GULP energy per Si atom -5567.231374 kJ/mol
# Density = 1.842008 g / cm^3
# Si number density = 18.462105 Si / 1000 Ang^3
#
#
#
# Elastic Constant Matrix: (Units=GPa)
#
#
# Indices 1 2 3 4 5 6 
#
# 1 94.6522 31.5616 4.9039 0.0000 0.0000 0.0000
# 2 31.5616 137.0954 19.3520 0.0000 0.0000 0.0000
# 3 4.9039 19.3520 78.8686 0.0000 0.0000 0.0000
# 4 0.0000 0.0000 0.0000 12.5671 0.0000 0.0000
# 5 0.0000 0.0000 0.0000 0.0000 11.3672 0.0000
# 6 0.0000 0.0000 0.0000 0.0000 0.0000 28.1252
#
#
#
# Elastic Compliance Matrix: (Units=1/GPa)
#
#
# Indices 1 2 3 4 5 6 
#
# 1 0.011444 -0.002625 -0.000067 0.000000 0.000000 0.000000
# 2 -0.002625 0.008158 -0.001839 0.000000 0.000000 0.000000
# 3 -0.000067 -0.001839 0.013135 0.000000 0.000000 0.000000
# 4 0.000000 0.000000 0.000000 0.079573 0.000000 0.000000
# 5 0.000000 0.000000 0.000000 0.000000 0.087972 0.000000
# 6 0.000000 0.000000 0.000000 0.000000 0.000000 0.035555
#
#
# Mechanical properties :
#
#
# Convention : Reuss Voigt Hill
#
# Bulk Modulus (GPa) = 42.23960 46.91681 44.57820
# Shear Modulus (GPa) = 19.77920 27.39847 23.58884
#
# Velocity S-wave (km/s) = 3.27668 3.85650 3.57836
# Velocity P-wave (km/s) = 6.10281 6.73036 6.42425
#
# Compressibility (1/GPa) = 0.02367447
#
# Stress axis : x y z
#
# Youngs Moduli (GPa) = 87.38356 122.57851 76.13460
#
# Poissons Ratio (x) = 0.32177 0.00514
# Poissons Ratio (y) = 0.22938 0.13998
# Poissons Ratio (z) = 0.00589 0.22536
#
# Static dielectric constant tensor:
#      x y z
#    x 1.792230 0.000000 0.000000 
#    y 0.000000 1.629380 0.000000 
#    z 0.000000 0.000000 1.622380 
# 
# From -- ./inp_files/19268.got.cif
#   From: 2010.05.17/outbox.cif.g08.bks.cpg/sg70_10_cif.got.tgz:19268.got - 2010.06.03 15:57:51.
