data_PCOD9515757
_publ_section_title
;
Structure prediction by ZEFSAII (Michael W. Deem and Ramdas Pophale) SiO2 
 PCOD9515757
Probable space group: F D D D
;
_chemical_formula_sum "Si O2"
_cell_formula_units_Z 168
_cell_length_a 10.180949
_cell_length_b 23.821733
_cell_length_c 29.239817
_cell_angle_alpha 90.000000
_cell_angle_beta 90.000000
_cell_angle_gamma 90.000000
_cell_volume 7091.469915
_symmetry_space_group_name_H-M "F D D D"
_symmetry_group_IT_number 70
_space_group.IT_coordinate_system_code '2'
_symmetry_cell_setting 'orthorhombic'
loop_
_space_group_symop_operation_xyz
x,y,z
1/4-x,1/4-y,z
x,1/4-y,1/4-z
1/4-x,y,1/4-z
-x,-y,-z
3/4+x,3/4+y,-z
-x,3/4+y,3/4+z
3/4+x,-y,3/4+z
x,1/2+y,1/2+z
1/4-x,3/4-y,1/2+z
x,3/4-y,3/4-z
1/4-x,1/2+y,3/4-z
-x,1/2-y,1/2-z
3/4+x,1/4+y,1/2-z
-x,1/4+y,1/4+z
3/4+x,1/2-y,1/4+z
1/2+x,y,1/2+z
3/4-x,1/4-y,1/2+z
1/2+x,1/4-y,3/4-z
3/4-x,y,3/4-z
1/2-x,-y,1/2-z
1/4+x,3/4+y,1/2-z
1/2-x,3/4+y,1/4+z
1/4+x,-y,1/4+z
1/2+x,1/2+y,z
3/4-x,3/4-y,z
1/2+x,3/4-y,1/4-z
3/4-x,1/2+y,1/4-z
1/2-x,1/2-y,-z
1/4+x,1/4+y,-z
1/2-x,1/4+y,3/4+z
1/4+x,1/2-y,3/4+z
loop_
_atom_site_type_symbol
_atom_site_label
_atom_site_fract_x
_atom_site_fract_y
_atom_site_fract_z
Si Si1 0.875000 0.375000 0.139796
Si Si2 0.237683 0.539395 0.695935
Si Si3 0.875000 0.375000 0.375000
Si Si4 0.625000 0.125000 0.238866
Si Si5 0.827448 0.540593 0.716093
Si Si6 0.751795 0.953136 0.568136
Si Si7 0.676187 0.049030 0.469938
O O1 0.775027 0.409905 0.108806
O O2 0.801783 0.334537 0.174959
O O3 0.212887 0.585522 0.657535
O O4 0.380250 0.512158 0.702075
O O5 0.193324 0.563659 0.745285
O O6 0.134725 0.487385 0.685417
O O7 0.730676 0.091797 0.208625
O O8 0.544658 0.082655 0.273047
O O9 0.750000 0.500000 0.750000
O O10 0.888552 0.502632 0.676310
O O11 0.952119 0.556024 0.746821
#
# Coordination Sequence:
#
# PCOD9515757 Si02
#       7
#    16  32   8  16  32  32  32
#     4  11  21  36  64 105 131 173 215 282 328 397
#     4  10  22  41  62  93 136 174 219 275 331 401
#     4  12  22  40  62  92 138 184 212 266 340 410
#     4   9  18  36  67  90 118 179 216 262 328 404
#     4   9  19  40  61  92 124 170 219 269 322 397
#     4   9  20  39  59  97 135 166 217 277 329 382
#     4  10  22  39  63  96 129 171 219 277 331 393
#
# _framework density 23.690434
#
# number of rings (size 3 to 8) (size 9 to 14) (size 15 to 20)
#    0.000    2.286    0.000    1.714    2.667    0.000 
#   24.000    0.000    0.000    0.000    0.000    2.667 
#    0.000    0.000    0.000    0.000    0.000    0.000 
#
# Total GULP energy -234552.371100 kJ/mol
# GULP energy per Si atom -5584.580264 kJ/mol
# Density = 2.363651 g / cm^3
# Si number density = 23.690434 Si / 1000 Ang^3
#
#
#
# Elastic Constant Matrix: (Units=GPa)
#
#
# Indices 1 2 3 4 5 6 
#
# 1 88.2971 51.4732 10.7515 0.0000 0.0000 0.0000
# 2 51.4732 127.7413 50.0267 0.0000 0.0000 0.0000
# 3 10.7515 50.0267 103.2727 0.0000 0.0000 0.0000
# 4 0.0000 0.0000 0.0000 43.5774 0.0000 0.0000
# 5 0.0000 0.0000 0.0000 0.0000 11.4476 0.0000
# 6 0.0000 0.0000 0.0000 0.0000 0.0000 13.7799
#
#
#
# Elastic Compliance Matrix: (Units=1/GPa)
#
#
# Indices 1 2 3 4 5 6 
#
# 1 0.015038 -0.006722 0.001690 0.000000 0.000000 0.000000
# 2 -0.006722 0.012665 -0.005436 0.000000 0.000000 0.000000
# 3 0.001690 -0.005436 0.012140 0.000000 0.000000 0.000000
# 4 0.000000 0.000000 0.000000 0.022948 0.000000 0.000000
# 5 0.000000 0.000000 0.000000 0.000000 0.087355 0.000000
# 6 0.000000 0.000000 0.000000 0.000000 0.000000 0.072569
#
#
# Mechanical properties :
#
#
# Convention : Reuss Voigt Hill
#
# Bulk Modulus (GPa) = 52.88141 60.42377 56.65259
# Shear Modulus (GPa) = 20.00386 27.56498 23.78442
#
# Velocity S-wave (km/s) = 2.90898 3.41478 3.17198
# Velocity P-wave (km/s) = 5.80114 6.41160 6.11399
#
# Compressibility (1/GPa) = 0.01891024
#
# Stress axis : x y z
#
# Youngs Moduli (GPa) = 66.49864 78.95500 82.37124
#
# Poissons Ratio (x) = 0.53070 -0.13924
# Poissons Ratio (y) = 0.44697 0.44773
# Poissons Ratio (z) = -0.11241 0.42916
#
# Static dielectric constant tensor:
#      x y z
#    x 1.892380 0.000000 0.000000 
#    y 0.000000 2.020610 0.000000 
#    z 0.000000 0.000000 1.900820 
# 
# From -- ./inp_files/64781.got.cif
#   From: 2010.05.17/outbox.cif.g08.bks.cpg/sg70_33_cif.got.tgz:64781.got - 2010.06.03 15:57:51.
