data_PCOD9515389
_publ_section_title
;
Structure prediction by ZEFSAII (Michael W. Deem and Ramdas Pophale) SiO2 
 PCOD9515389
Probable space group: F D D D
;
_chemical_formula_sum "Si O2"
_cell_formula_units_Z 176
_cell_length_a 11.649201
_cell_length_b 33.345022
_cell_length_c 21.864544
_cell_angle_alpha 90.000000
_cell_angle_beta 90.000000
_cell_angle_gamma 90.000000
_cell_volume 8493.126083
_symmetry_space_group_name_H-M "F D D D"
_symmetry_group_IT_number 70
_space_group.IT_coordinate_system_code '2'
_symmetry_cell_setting 'orthorhombic'
loop_
_space_group_symop_operation_xyz
x,y,z
1/4-x,1/4-y,z
x,1/4-y,1/4-z
1/4-x,y,1/4-z
-x,-y,-z
3/4+x,3/4+y,-z
-x,3/4+y,3/4+z
3/4+x,-y,3/4+z
x,1/2+y,1/2+z
1/4-x,3/4-y,1/2+z
x,3/4-y,3/4-z
1/4-x,1/2+y,3/4-z
-x,1/2-y,1/2-z
3/4+x,1/4+y,1/2-z
-x,1/4+y,1/4+z
3/4+x,1/2-y,1/4+z
1/2+x,y,1/2+z
3/4-x,1/4-y,1/2+z
1/2+x,1/4-y,3/4-z
3/4-x,y,3/4-z
1/2-x,-y,1/2-z
1/4+x,3/4+y,1/2-z
1/2-x,3/4+y,1/4+z
1/4+x,-y,1/4+z
1/2+x,1/2+y,z
3/4-x,3/4-y,z
1/2+x,3/4-y,1/4-z
3/4-x,1/2+y,1/4-z
1/2-x,1/2-y,-z
1/4+x,1/4+y,-z
1/2-x,1/4+y,3/4+z
1/4+x,1/2-y,3/4+z
loop_
_atom_site_type_symbol
_atom_site_label
_atom_site_fract_x
_atom_site_fract_y
_atom_site_fract_z
Si Si1 0.259356 0.437826 0.609689
Si Si2 0.375000 0.875000 0.546308
Si Si3 0.364286 0.731531 0.687158
Si Si4 0.017292 0.096170 0.721210
Si Si5 0.460818 0.644742 0.064027
Si Si6 0.866620 0.765007 0.311975
O O1 0.316135 0.408407 0.659981
O O2 0.330100 0.479654 0.602752
O O3 0.263543 0.416936 0.542623
O O4 0.125000 0.445301 0.625000
O O5 0.466573 0.856783 0.498383
O O6 0.311922 0.690261 0.666634
O O7 0.318770 0.741161 0.755126
O O8 0.499936 0.724420 0.698062
O O9 0.125000 0.125000 0.712079
O O10 0.041976 0.055370 0.683584
O O11 0.905084 0.120030 0.701302
O O12 0.509503 0.625000 0.125000
O O13 0.875000 0.741251 0.375000
#
# Coordination Sequence:
#
# PCOD9515389 Si02
#       6
#    32  16  32  32  32  32
#     4  11  24  46  69 100 137 181 241 298 357 418
#     4  12  27  46  74 104 135 196 240 292 356 426
#     4  10  24  42  65 102 134 180 232 290 354 415
#     4  11  21  39  69 100 137 176 233 292 353 411
#     4  12  26  46  68 102 145 189 234 284 354 440
#     4  10  21  38  63 101 135 172 222 286 353 406
#
# _framework density 20.722639999999998
#
# number of rings (size 3 to 8) (size 9 to 14) (size 15 to 20)
#    0.000    1.091    4.545    1.364    2.545    1.455 
#    0.000    1.818    0.000    0.000    0.000    0.000 
#    0.000    0.000    0.000    0.000    0.000    0.000 
#
# Total GULP energy -245574.092747 kJ/mol
# GULP energy per Si atom -5581.229381 kJ/mol
# Density = 2.067547 g / cm^3
# Si number density = 20.722640 Si / 1000 Ang^3
#
#
#
# Elastic Constant Matrix: (Units=GPa)
#
#
# Indices 1 2 3 4 5 6 
#
# 1 101.7428 38.2224 13.9446 0.0000 0.0000 0.0000
# 2 38.2224 127.3049 38.3046 0.0000 0.0000 0.0000
# 3 13.9446 38.3046 117.3724 0.0000 0.0000 0.0000
# 4 0.0000 0.0000 0.0000 12.5679 0.0000 0.0000
# 5 0.0000 0.0000 0.0000 0.0000 50.6204 0.0000
# 6 0.0000 0.0000 0.0000 0.0000 0.0000 18.9729
#
#
#
# Elastic Compliance Matrix: (Units=1/GPa)
#
#
# Indices 1 2 3 4 5 6 
#
# 1 0.011085 -0.003251 -0.000256 0.000000 0.000000 0.000000
# 2 -0.003251 0.009664 -0.002768 0.000000 0.000000 0.000000
# 3 -0.000256 -0.002768 0.009454 0.000000 0.000000 0.000000
# 4 0.000000 0.000000 0.000000 0.079568 0.000000 0.000000
# 5 0.000000 0.000000 0.000000 0.000000 0.019755 0.000000
# 6 0.000000 0.000000 0.000000 0.000000 0.000000 0.052707
#
#
# Mechanical properties :
#
#
# Convention : Reuss Voigt Hill
#
# Bulk Modulus (GPa) = 56.64701 58.59590 57.62145
# Shear Modulus (GPa) = 24.91700 33.49548 29.20624
#
# Velocity S-wave (km/s) = 3.47133 4.02477 3.75825
# Velocity P-wave (km/s) = 6.59257 7.06654 6.83367
#
# Compressibility (1/GPa) = 0.01765318
#
# Stress axis : x y z
#
# Youngs Moduli (GPa) = 90.21043 103.47616 105.78083
#
# Poissons Ratio (x) = 0.33643 0.02707
# Poissons Ratio (y) = 0.29330 0.29276
# Poissons Ratio (z) = 0.02309 0.28638
#
# Static dielectric constant tensor:
#      x y z
#    x 1.755600 0.000000 0.000000 
#    y 0.000000 1.766190 0.000000 
#    z 0.000000 0.000000 1.773720 
# 
# From -- ./inp_files/22285.got.cif
#   From: 2010.05.17/outbox.cif.g08.bks.cpg/sg70_12_cif.got.tgz:22285.got - 2010.06.03 15:57:51.
