data_PCOD9515638
_publ_section_title
;
Structure prediction by ZEFSAII (Michael W. Deem and Ramdas Pophale) SiO2 
 PCOD9515638
Probable space group: F D D D
;
_chemical_formula_sum "Si O2"
_cell_formula_units_Z 160
_cell_length_a 31.736672
_cell_length_b 7.264221
_cell_length_c 28.855790
_cell_angle_alpha 90.000000
_cell_angle_beta 90.000000
_cell_angle_gamma 90.000000
_cell_volume 6652.477287
_symmetry_space_group_name_H-M "F D D D"
_symmetry_group_IT_number 70
_space_group.IT_coordinate_system_code '2'
_symmetry_cell_setting 'orthorhombic'
loop_
_space_group_symop_operation_xyz
x,y,z
1/4-x,1/4-y,z
x,1/4-y,1/4-z
1/4-x,y,1/4-z
-x,-y,-z
3/4+x,3/4+y,-z
-x,3/4+y,3/4+z
3/4+x,-y,3/4+z
x,1/2+y,1/2+z
1/4-x,3/4-y,1/2+z
x,3/4-y,3/4-z
1/4-x,1/2+y,3/4-z
-x,1/2-y,1/2-z
3/4+x,1/4+y,1/2-z
-x,1/4+y,1/4+z
3/4+x,1/2-y,1/4+z
1/2+x,y,1/2+z
3/4-x,1/4-y,1/2+z
1/2+x,1/4-y,3/4-z
3/4-x,y,3/4-z
1/2-x,-y,1/2-z
1/4+x,3/4+y,1/2-z
1/2-x,3/4+y,1/4+z
1/4+x,-y,1/4+z
1/2+x,1/2+y,z
3/4-x,3/4-y,z
1/2+x,3/4-y,1/4-z
3/4-x,1/2+y,1/4-z
1/2-x,1/2-y,-z
1/4+x,1/4+y,-z
1/2-x,1/4+y,3/4+z
1/4+x,1/2-y,3/4+z
loop_
_atom_site_type_symbol
_atom_site_label
_atom_site_fract_x
_atom_site_fract_y
_atom_site_fract_z
Si Si1 0.705806 0.899718 0.055976
Si Si2 0.399596 0.056635 0.225381
Si Si3 0.625000 0.125000 0.044411
Si Si4 0.407549 0.625000 0.625000
Si Si5 0.518381 0.011489 0.728078
Si Si6 0.231417 0.156158 0.863715
O O1 0.706989 0.677479 0.048709
O O2 0.738485 0.926425 0.097192
O O3 0.663662 0.013693 0.067693
O O4 0.724831 0.951304 0.005391
O O5 0.392752 0.219122 0.260908
O O6 0.384282 0.098236 0.173494
O O7 0.375000 0.875000 0.240529
O O8 0.449589 0.030720 0.230296
O O9 0.437392 0.801398 0.633499
O O10 0.504356 0.882398 0.685977
O O11 0.225920 0.375000 0.875000
#
# Coordination Sequence:
#
# PCOD9515638 Si02
#       6
#    32  32  16  16  32  32
#     4  10  21  43  71 106 134 184 241 291 356 434
#     4  12  27  46  66 102 144 186 235 296 366 428
#     4  12  26  42  71 102 142 188 232 300 367 418
#     4  12  26  42  70 101 136 186 240 290 355 454
#     4  10  21  45  73  95 144 184 231 293 359 426
#     4  10  23  42  72 104 134 182 243 297 356 426
#
# _framework density 24.051189000000001
#
# number of rings (size 3 to 8) (size 9 to 14) (size 15 to 20)
#    0.000    1.200    4.000    1.200    4.200    3.200 
#    0.000    2.000    0.000    0.000    0.000    0.000 
#    0.000    0.000    0.000    0.000    0.000    0.000 
#
# Total GULP energy -223364.169894 kJ/mol
# GULP energy per Si atom -5584.104247 kJ/mol
# Density = 2.399645 g / cm^3
# Si number density = 24.051189 Si / 1000 Ang^3
#
#
#
# Elastic Constant Matrix: (Units=GPa)
#
#
# Indices 1 2 3 4 5 6 
#
# 1 50.7878 25.9066 -18.5752 -0.0007 -0.0006 0.0011
# 2 25.9066 96.6013 -5.7201 -0.0006 -0.0008 -0.0009
# 3 -18.5752 -5.7201 60.0408 -0.0001 -0.0001 0.0010
# 4 -0.0007 -0.0006 -0.0001 29.0516 -0.0002 0.0005
# 5 -0.0006 -0.0008 -0.0001 -0.0002 41.0960 0.0006
# 6 0.0011 -0.0009 0.0010 0.0005 0.0006 33.1845
#
#
#
# Elastic Compliance Matrix: (Units=1/GPa)
#
#
# Indices 1 2 3 4 5 6 
#
# 1 0.025657 -0.006447 0.007323 0.000000 0.000000 -0.000001
# 2 -0.006447 0.012031 -0.000848 0.000000 0.000000 0.000001
# 3 0.007323 -0.000848 0.018840 0.000000 0.000000 -0.000001
# 4 0.000000 0.000000 0.000000 0.034422 0.000000 -0.000001
# 5 0.000000 0.000000 0.000000 0.000000 0.024333 0.000000
# 6 -0.000001 0.000001 -0.000001 -0.000001 0.000000 0.030135
#
#
# Mechanical properties :
#
#
# Convention : Reuss Voigt Hill
#
# Bulk Modulus (GPa) = 17.67298 23.40583 20.53941
# Shear Modulus (GPa) = 30.44656 34.38765 32.41711
#
# Velocity S-wave (km/s) = 3.56182 3.78533 3.67527
# Velocity P-wave (km/s) = 4.92741 5.37194 5.15447
#
# Compressibility (1/GPa) = 0.05658356
#
# Stress axis : x y z
#
# Youngs Moduli (GPa) = 38.97599 83.12168 53.07797
#
# Poissons Ratio (x) = 0.53589 -0.38871
# Poissons Ratio (y) = 0.25128 0.04503
# Poissons Ratio (z) = -0.28544 0.07052
#
# Static dielectric constant tensor:
#      x y z
#    x 2.456510 0.000000 0.000000 
#    y 0.000000 1.984900 0.000000 
#    z 0.000000 0.000000 1.909160 
# 
# From -- ./inp_files/68845.got.cif
#   From: 2010.05.17/outbox.cif.g08.bks.cpg/sg70_35_cif.got.tgz:68845.got - 2010.06.03 15:57:51.
