data_PCOD9515101
_publ_section_title
;
Structure prediction by ZEFSAII (Michael W. Deem and Ramdas Pophale) SiO2 
 PCOD9515101
Probable space group: F D D D
;
_chemical_formula_sum "Si O2"
_cell_formula_units_Z 208
_cell_length_a 20.006771
_cell_length_b 19.812217
_cell_length_c 23.788044
_cell_angle_alpha 90.000000
_cell_angle_beta 90.000000
_cell_angle_gamma 90.000000
_cell_volume 9429.068926
_symmetry_space_group_name_H-M "F D D D"
_symmetry_group_IT_number 70
_space_group.IT_coordinate_system_code '2'
_symmetry_cell_setting 'orthorhombic'
loop_
_space_group_symop_operation_xyz
x,y,z
1/4-x,1/4-y,z
x,1/4-y,1/4-z
1/4-x,y,1/4-z
-x,-y,-z
3/4+x,3/4+y,-z
-x,3/4+y,3/4+z
3/4+x,-y,3/4+z
x,1/2+y,1/2+z
1/4-x,3/4-y,1/2+z
x,3/4-y,3/4-z
1/4-x,1/2+y,3/4-z
-x,1/2-y,1/2-z
3/4+x,1/4+y,1/2-z
-x,1/4+y,1/4+z
3/4+x,1/2-y,1/4+z
1/2+x,y,1/2+z
3/4-x,1/4-y,1/2+z
1/2+x,1/4-y,3/4-z
3/4-x,y,3/4-z
1/2-x,-y,1/2-z
1/4+x,3/4+y,1/2-z
1/2-x,3/4+y,1/4+z
1/4+x,-y,1/4+z
1/2+x,1/2+y,z
3/4-x,3/4-y,z
1/2+x,3/4-y,1/4-z
3/4-x,1/2+y,1/4-z
1/2-x,1/2-y,-z
1/4+x,1/4+y,-z
1/2-x,1/4+y,3/4+z
1/4+x,1/2-y,3/4+z
loop_
_atom_site_type_symbol
_atom_site_label
_atom_site_fract_x
_atom_site_fract_y
_atom_site_fract_z
Si Si1 0.395543 0.304067 0.091816
Si Si2 0.749273 0.802252 0.372712
Si Si3 0.548236 0.206261 0.996537
Si Si4 0.299926 0.940095 0.758739
Si Si5 0.211771 0.580640 0.531658
Si Si6 0.625000 0.017725 0.625000
Si Si7 0.993196 0.729430 0.685750
O O1 0.375000 0.375000 0.118748
O O2 0.447779 0.259449 0.126750
O O3 0.329226 0.258016 0.082643
O O4 0.431600 0.327294 0.032204
O O5 0.711800 0.875000 0.375000
O O6 0.783282 0.788849 0.313032
O O7 0.801315 0.812484 0.423053
O O8 0.626686 0.205342 0.987824
O O9 0.523243 0.130447 0.983768
O O10 0.513978 0.268840 0.966864
O O11 0.250000 0.000000 0.750000
O O12 0.151890 0.559090 0.572103
O O13 0.245033 0.648171 0.557805
O O14 0.694873 0.987926 0.650110
O O15 0.000000 0.750000 0.750000
#
# Coordination Sequence:
#
# PCOD9515101 Si02
#       7
#    32  32  32  32  32  16  32
#     4  11  22  41  65  94 132 170 210 267 330 384
#     4   9  20  39  64  88 117 165 213 252 313 388
#     4   9  21  39  64  89 121 163 209 260 313 383
#     4  10  20  40  62  88 124 160 207 264 320 375
#     4  11  22  41  66  96 128 170 220 264 325 392
#     4  12  25  44  70  98 128 176 227 262 323 402
#     4  12  23  41  66  93 133 172 212 271 325 386
#
# _framework density 22.059441
#
# number of rings (size 3 to 8) (size 9 to 14) (size 15 to 20)
#    0.000    1.538    3.077    1.846    0.000    8.000 
#    5.538    0.000    0.000    0.000    0.000    0.000 
#    0.000    0.000    0.000    0.000    0.000    0.000 
#
# Total GULP energy -289928.019108 kJ/mol
# GULP energy per Si atom -5575.538829 kJ/mol
# Density = 2.200923 g / cm^3
# Si number density = 22.059441 Si / 1000 Ang^3
#
#
#
# Elastic Constant Matrix: (Units=GPa)
#
#
# Indices 1 2 3 4 5 6 
#
# 1 96.8485 65.4449 5.1652 0.0000 0.0000 0.0000
# 2 65.4449 141.2801 1.2534 0.0000 0.0000 0.0000
# 3 5.1652 1.2534 67.1442 0.0000 0.0000 0.0000
# 4 0.0000 0.0000 0.0000 16.4057 0.0000 0.0000
# 5 0.0000 0.0000 0.0000 0.0000 31.3300 0.0000
# 6 0.0000 0.0000 0.0000 0.0000 0.0000 40.5206
#
#
#
# Elastic Compliance Matrix: (Units=1/GPa)
#
#
# Indices 1 2 3 4 5 6 
#
# 1 0.015101 -0.006986 -0.001031 0.000000 0.000000 0.000000
# 2 -0.006986 0.010311 0.000345 0.000000 0.000000 0.000000
# 3 -0.001031 0.000345 0.014966 0.000000 0.000000 0.000000
# 4 0.000000 0.000000 0.000000 0.060954 0.000000 0.000000
# 5 0.000000 0.000000 0.000000 0.000000 0.031918 0.000000
# 6 0.000000 0.000000 0.000000 0.000000 0.000000 0.024679
#
#
# Mechanical properties :
#
#
# Convention : Reuss Voigt Hill
#
# Bulk Modulus (GPa) = 39.94613 49.88885 44.91749
# Shear Modulus (GPa) = 27.53005 33.21190 30.37098
#
# Velocity S-wave (km/s) = 3.53653 3.88437 3.71452
# Velocity P-wave (km/s) = 5.90117 6.54083 6.22922
#
# Compressibility (1/GPa) = 0.02503372
#
# Stress axis : x y z
#
# Youngs Moduli (GPa) = 66.21958 96.98126 66.81718
#
# Poissons Ratio (x) = 0.67753 0.06891
# Poissons Ratio (y) = 0.46262 -0.02305
# Poissons Ratio (z) = 0.06829 -0.03345
#
# Static dielectric constant tensor:
#      x y z
#    x 1.834160 0.000000 0.000000 
#    y 0.000000 1.928230 0.000000 
#    z 0.000000 0.000000 1.905120 
# 
# From -- ./inp_files/60424.got.cif
#   From: 2010.05.17/outbox.cif.g08.bks.cpg/sg70_31_cif.got.tgz:60424.got - 2010.06.03 15:57:51.
