data_PCOD9515499
_publ_section_title
;
Structure prediction by ZEFSAII (Michael W. Deem and Ramdas Pophale) SiO2 
 PCOD9515499
Probable space group: F D D D
;
_chemical_formula_sum "Si O2"
_cell_formula_units_Z 160
_cell_length_a 23.655864
_cell_length_b 24.954285
_cell_length_c 11.194203
_cell_angle_alpha 90.000000
_cell_angle_beta 90.000000
_cell_angle_gamma 90.000000
_cell_volume 6608.107871
_symmetry_space_group_name_H-M "F D D D"
_symmetry_group_IT_number 70
_space_group.IT_coordinate_system_code '2'
_symmetry_cell_setting 'orthorhombic'
loop_
_space_group_symop_operation_xyz
x,y,z
1/4-x,1/4-y,z
x,1/4-y,1/4-z
1/4-x,y,1/4-z
-x,-y,-z
3/4+x,3/4+y,-z
-x,3/4+y,3/4+z
3/4+x,-y,3/4+z
x,1/2+y,1/2+z
1/4-x,3/4-y,1/2+z
x,3/4-y,3/4-z
1/4-x,1/2+y,3/4-z
-x,1/2-y,1/2-z
3/4+x,1/4+y,1/2-z
-x,1/4+y,1/4+z
3/4+x,1/2-y,1/4+z
1/2+x,y,1/2+z
3/4-x,1/4-y,1/2+z
1/2+x,1/4-y,3/4-z
3/4-x,y,3/4-z
1/2-x,-y,1/2-z
1/4+x,3/4+y,1/2-z
1/2-x,3/4+y,1/4+z
1/4+x,-y,1/4+z
1/2+x,1/2+y,z
3/4-x,3/4-y,z
1/2+x,3/4-y,1/4-z
3/4-x,1/2+y,1/4-z
1/2-x,1/2-y,-z
1/4+x,1/4+y,-z
1/2-x,1/4+y,3/4+z
1/4+x,1/2-y,3/4+z
loop_
_atom_site_type_symbol
_atom_site_label
_atom_site_fract_x
_atom_site_fract_y
_atom_site_fract_z
Si Si1 0.677758 0.261017 0.569942
Si Si2 0.458287 0.936451 0.613054
Si Si3 0.222993 0.664701 0.732126
Si Si4 0.063363 0.953007 0.576712
Si Si5 0.220769 0.183167 0.611635
O O1 0.625000 0.291354 0.625000
O O2 0.730807 0.299337 0.554597
O O3 0.667679 0.230757 0.444761
O O4 0.690589 0.212706 0.664559
O O5 0.441695 0.876698 0.573189
O O6 0.472687 0.946653 0.749128
O O7 0.240573 0.625000 0.625000
O O8 0.271745 0.688921 0.813777
O O9 0.125000 0.937260 0.625000
O O10 0.030375 0.928726 0.460766
O O11 0.062125 0.017318 0.552754
O O12 0.193347 0.125000 0.625000
#
# Coordination Sequence:
#
# PCOD9515499 Si02
#       5
#    32  32  32  32  32
#     4  10  22  41  67  97 129 168 216 277 332 381
#     4  10  21  40  65  95 129 168 215 268 329 392
#     4  10  21  41  64  93 131 162 211 275 327 389
#     4  11  25  43  65  94 129 175 222 268 327 393
#     4  11  23  45  66  91 135 175 215 273 327 393
#
# _framework density 24.212679999999999
#
# number of rings (size 3 to 8) (size 9 to 14) (size 15 to 20)
#    0.000    1.600    4.000    0.000    0.000    7.200 
#    0.000    2.000    0.000    0.000    0.000    0.000 
#    0.000    0.000    0.000    0.000    0.000    0.000 
#
# Total GULP energy -223003.474389 kJ/mol
# GULP energy per Si atom -5575.086860 kJ/mol
# Density = 2.415757 g / cm^3
# Si number density = 24.212680 Si / 1000 Ang^3
#
#
#
# Elastic Constant Matrix: (Units=GPa)
#
#
# Indices 1 2 3 4 5 6 
#
# 1 83.9458 4.4111 39.0770 0.0000 0.0000 0.0000
# 2 4.4111 81.1255 5.8412 0.0000 0.0000 0.0000
# 3 39.0770 5.8412 142.6338 0.0002 -0.0002 0.0000
# 4 0.0000 0.0000 0.0002 13.0564 -0.0001 0.0000
# 5 0.0000 0.0000 -0.0002 -0.0001 35.2738 0.0000
# 6 0.0000 0.0000 0.0000 0.0000 0.0000 15.1838
#
#
#
# Elastic Compliance Matrix: (Units=1/GPa)
#
#
# Indices 1 2 3 4 5 6 
#
# 1 0.013672 -0.000475 -0.003726 0.000000 0.000000 0.000000
# 2 -0.000475 0.012380 -0.000377 0.000000 0.000000 0.000000
# 3 -0.003726 -0.000377 0.008047 0.000000 0.000000 0.000000
# 4 0.000000 0.000000 0.000000 0.076591 0.000000 0.000000
# 5 0.000000 0.000000 0.000000 0.000000 0.028350 0.000000
# 6 0.000000 0.000000 0.000000 0.000000 0.000000 0.065860
#
#
# Mechanical properties :
#
#
# Convention : Reuss Voigt Hill
#
# Bulk Modulus (GPa) = 40.09218 45.15152 42.62185
# Shear Modulus (GPa) = 22.48513 29.92785 26.20649
#
# Velocity S-wave (km/s) = 3.05068 3.51955 3.29347
# Velocity P-wave (km/s) = 5.38546 5.93335 5.66603
#
# Compressibility (1/GPa) = 0.02494252
#
# Stress axis : x y z
#
# Youngs Moduli (GPa) = 73.14234 80.77841 124.26598
#
# Poissons Ratio (x) = 0.03838 0.46304
# Poissons Ratio (y) = 0.03475 0.04682
# Poissons Ratio (z) = 0.27254 0.03044
#
# Static dielectric constant tensor:
#      x y z
#    x 1.960630 0.000000 0.000000 
#    y 0.000000 2.789720 -0.000010 
#    z 0.000000 -0.000010 2.241900 
# 
# From -- ./inp_files/20810.got.cif
#   From: 2010.05.17/outbox.cif.g08.bks.cpg/sg70_11_cif.got.tgz:20810.got - 2010.06.03 15:57:51.
