data_PCOD9515600
_publ_section_title
;
Structure prediction by ZEFSAII (Michael W. Deem and Ramdas Pophale) SiO2 
 PCOD9515600
Probable space group: F D D D
;
_chemical_formula_sum "Si O2"
_cell_formula_units_Z 208
_cell_length_a 17.388826
_cell_length_b 21.559145
_cell_length_c 25.386039
_cell_angle_alpha 90.000000
_cell_angle_beta 90.000000
_cell_angle_gamma 90.000000
_cell_volume 9516.927002
_symmetry_space_group_name_H-M "F D D D"
_symmetry_group_IT_number 70
_space_group.IT_coordinate_system_code '2'
_symmetry_cell_setting 'orthorhombic'
loop_
_space_group_symop_operation_xyz
x,y,z
1/4-x,1/4-y,z
x,1/4-y,1/4-z
1/4-x,y,1/4-z
-x,-y,-z
3/4+x,3/4+y,-z
-x,3/4+y,3/4+z
3/4+x,-y,3/4+z
x,1/2+y,1/2+z
1/4-x,3/4-y,1/2+z
x,3/4-y,3/4-z
1/4-x,1/2+y,3/4-z
-x,1/2-y,1/2-z
3/4+x,1/4+y,1/2-z
-x,1/4+y,1/4+z
3/4+x,1/2-y,1/4+z
1/2+x,y,1/2+z
3/4-x,1/4-y,1/2+z
1/2+x,1/4-y,3/4-z
3/4-x,y,3/4-z
1/2-x,-y,1/2-z
1/4+x,3/4+y,1/2-z
1/2-x,3/4+y,1/4+z
1/4+x,-y,1/4+z
1/2+x,1/2+y,z
3/4-x,3/4-y,z
1/2+x,3/4-y,1/4-z
3/4-x,1/2+y,1/4-z
1/2-x,1/2-y,-z
1/4+x,1/4+y,-z
1/2-x,1/4+y,3/4+z
1/4+x,1/2-y,3/4+z
loop_
_atom_site_type_symbol
_atom_site_label
_atom_site_fract_x
_atom_site_fract_y
_atom_site_fract_z
Si Si1 0.730822 0.943077 0.037803
Si Si2 0.307953 0.206985 0.577975
Si Si3 0.041600 0.094644 0.401929
Si Si4 0.986151 0.175564 0.078488
Si Si5 0.222517 0.423519 0.448831
Si Si6 0.875000 0.744588 0.875000
Si Si7 0.643979 0.899320 0.546588
O O1 0.777351 0.921332 0.089856
O O2 0.646571 0.916398 0.048170
O O3 0.727669 0.017831 0.032464
O O4 0.759162 0.912879 0.982696
O O5 0.284536 0.277700 0.569444
O O6 0.399999 0.202259 0.570782
O O7 0.295363 0.190680 0.639311
O O8 0.261175 0.150734 0.549576
O O9 0.125000 0.125000 0.408490
O O10 0.977244 0.139724 0.426882
O O11 0.978029 0.125000 0.125000
O O12 0.054760 0.217673 0.100909
O O13 0.150411 0.424996 0.487922
O O14 0.846257 0.698623 0.920443
#
# Coordination Sequence:
#
# PCOD9515600 Si02
#       7
#    32  32  32  32  32  16  32
#     4  11  23  41  68  96 136 183 227 277 344 411
#     4  10  21  43  66  95 131 176 222 280 341 405
#     4  11  25  40  66 100 136 179 230 283 346 415
#     4  12  23  43  67  96 134 175 223 278 337 413
#     4  10  21  42  68  92 131 179 220 277 345 398
#     4  12  25  38  64  96 133 172 216 280 332 410
#     4  12  22  44  66  96 135 176 224 287 340 403
#
# _framework density 21.855793999999999
#
# number of rings (size 3 to 8) (size 9 to 14) (size 15 to 20)
#    0.000    0.923    6.154    1.154    0.000    1.846 
#    0.000    2.308    0.000    3.692    0.000    0.000 
#    0.000    0.000    0.000    0.000    0.000    0.000 
#
# Total GULP energy -289665.781308 kJ/mol
# GULP energy per Si atom -5570.495794 kJ/mol
# Density = 2.180605 g / cm^3
# Si number density = 21.855794 Si / 1000 Ang^3
#
#
#
# Elastic Constant Matrix: (Units=GPa)
#
#
# Indices 1 2 3 4 5 6 
#
# 1 74.1395 40.8082 -7.8489 0.0000 0.0000 0.0000
# 2 40.8082 65.5648 7.2428 0.0000 0.0000 0.0000
# 3 -7.8489 7.2428 73.4871 0.0000 0.0000 0.0000
# 4 0.0000 0.0000 0.0000 18.5192 0.0000 0.0000
# 5 0.0000 0.0000 0.0000 0.0000 7.6894 0.0000
# 6 0.0000 0.0000 0.0000 0.0000 0.0000 40.4275
#
#
#
# Elastic Compliance Matrix: (Units=1/GPa)
#
#
# Indices 1 2 3 4 5 6 
#
# 1 0.021441 -0.013748 0.003645 0.000000 0.000000 0.000000
# 2 -0.013748 0.024235 -0.003857 0.000000 0.000000 0.000000
# 3 0.003645 -0.003857 0.014377 0.000000 0.000000 0.000000
# 4 0.000000 0.000000 0.000000 0.053998 0.000000 0.000000
# 5 0.000000 0.000000 0.000000 0.000000 0.130049 0.000000
# 6 0.000000 0.000000 0.000000 0.000000 0.000000 0.024736
#
#
# Mechanical properties :
#
#
# Convention : Reuss Voigt Hill
#
# Bulk Modulus (GPa) = 31.11984 32.62175 31.87080
# Shear Modulus (GPa) = 16.26189 24.85984 20.56086
#
# Velocity S-wave (km/s) = 2.73069 3.37627 3.07049
# Velocity P-wave (km/s) = 4.92056 5.49156 5.21388
#
# Compressibility (1/GPa) = 0.03213384
#
# Stress axis : x y z
#
# Youngs Moduli (GPa) = 46.63932 41.26271 69.55424
#
# Poissons Ratio (x) = 0.56727 -0.25353
# Poissons Ratio (y) = 0.64119 0.26827
# Poissons Ratio (z) = -0.17000 0.15915
#
# Static dielectric constant tensor:
#      x y z
#    x 1.769420 0.000000 0.000000 
#    y 0.000000 1.850660 0.000000 
#    z 0.000000 0.000000 1.857370 
# 
# From -- ./inp_files/59609.got.cif
#   From: 2010.05.17/outbox.cif.g08.bks.cpg/sg70_30_cif.got.tgz:59609.got - 2010.06.03 15:57:51.
