data_PCOD9515393
_publ_section_title
;
Structure prediction by ZEFSAII (Michael W. Deem and Ramdas Pophale) SiO2 
 PCOD9515393
Probable space group: F D D D
;
_chemical_formula_sum "Si O2"
_cell_formula_units_Z 80
_cell_length_a 21.741441
_cell_length_b 11.462071
_cell_length_c 11.787647
_cell_angle_alpha 90.000000
_cell_angle_beta 90.000000
_cell_angle_gamma 90.000000
_cell_volume 2937.504505
_symmetry_space_group_name_H-M "F D D D"
_symmetry_group_IT_number 70
_space_group.IT_coordinate_system_code '2'
_symmetry_cell_setting 'orthorhombic'
loop_
_space_group_symop_operation_xyz
x,y,z
1/4-x,1/4-y,z
x,1/4-y,1/4-z
1/4-x,y,1/4-z
-x,-y,-z
3/4+x,3/4+y,-z
-x,3/4+y,3/4+z
3/4+x,-y,3/4+z
x,1/2+y,1/2+z
1/4-x,3/4-y,1/2+z
x,3/4-y,3/4-z
1/4-x,1/2+y,3/4-z
-x,1/2-y,1/2-z
3/4+x,1/4+y,1/2-z
-x,1/4+y,1/4+z
3/4+x,1/2-y,1/4+z
1/2+x,y,1/2+z
3/4-x,1/4-y,1/2+z
1/2+x,1/4-y,3/4-z
3/4-x,y,3/4-z
1/2-x,-y,1/2-z
1/4+x,3/4+y,1/2-z
1/2-x,3/4+y,1/4+z
1/4+x,-y,1/4+z
1/2+x,1/2+y,z
3/4-x,3/4-y,z
1/2+x,3/4-y,1/4-z
3/4-x,1/2+y,1/4-z
1/2-x,1/2-y,-z
1/4+x,1/4+y,-z
1/2-x,1/4+y,3/4+z
1/4+x,1/2-y,3/4+z
loop_
_atom_site_type_symbol
_atom_site_label
_atom_site_fract_x
_atom_site_fract_y
_atom_site_fract_z
Si Si1 0.712006 0.875000 0.875000
Si Si2 0.349972 0.039133 0.753157
Si Si3 0.314057 0.804060 0.211904
O O1 0.661164 0.785302 0.827145
O O2 0.758470 0.873213 0.769422
O O3 0.375000 0.003583 0.875000
O O4 0.323942 0.171686 0.759236
O O5 0.305022 0.964843 0.673285
O O6 0.375000 0.875000 0.241774
#
# Coordination Sequence:
#
# PCOD9515393 Si02
#       3
#    16  32  32
#     4  10  21  40  66  84 120 166 201 250 304 354
#     4  10  24  40  58  94 127 152 205 259 297 358
#     4  10  21  38  63  89 118 164 210 241 296 371
#
# _framework density 27.234000000000002
#
# number of rings (size 3 to 8) (size 9 to 14) (size 15 to 20)
#    0.000    2.400    0.000    3.000    0.000   16.800 
#    0.000    8.000    0.000    0.000    0.000    0.000 
#    0.000    0.000    0.000    0.000    0.000    0.000 
#
# Total GULP energy -111605.248352 kJ/mol
# GULP energy per Si atom -5580.262418 kJ/mol
# Density = 2.717201 g / cm^3
# Si number density = 27.234000 Si / 1000 Ang^3
#
#
#
# Elastic Constant Matrix: (Units=GPa)
#
#
# Indices 1 2 3 4 5 6 
#
# 1 111.0473 24.0402 32.9595 0.0000 0.0000 0.0000
# 2 24.0402 182.2781 42.4334 0.0000 0.0000 0.0000
# 3 32.9595 42.4334 254.4166 0.0000 0.0000 0.0000
# 4 0.0000 0.0000 0.0000 11.2113 0.0000 0.0000
# 5 0.0000 0.0000 0.0000 0.0000 5.8823 0.0000
# 6 0.0000 0.0000 0.0000 0.0000 0.0000 56.2309
#
#
#
# Elastic Compliance Matrix: (Units=1/GPa)
#
#
# Indices 1 2 3 4 5 6 
#
# 1 0.009541 -0.001010 -0.001068 0.000000 0.000000 0.000000
# 2 -0.001010 0.005815 -0.000839 0.000000 0.000000 0.000000
# 3 -0.001068 -0.000839 0.004209 0.000000 0.000000 0.000000
# 4 0.000000 0.000000 0.000000 0.089196 0.000000 0.000000
# 5 0.000000 0.000000 0.000000 0.000000 0.170001 0.000000
# 6 0.000000 0.000000 0.000000 0.000000 0.000000 0.017784
#
#
# Mechanical properties :
#
#
# Convention : Reuss Voigt Hill
#
# Bulk Modulus (GPa) = 72.82579 82.95647 77.89113
# Shear Modulus (GPa) = 16.28905 44.55216 30.42061
#
# Velocity S-wave (km/s) = 2.44829 4.04902 3.34579
# Velocity P-wave (km/s) = 5.89839 7.23783 6.60216
#
# Compressibility (1/GPa) = 0.01373140
#
# Stress axis : x y z
#
# Youngs Moduli (GPa) = 104.81481 171.98055 237.59769
#
# Poissons Ratio (x) = 0.17366 0.25365
# Poissons Ratio (y) = 0.10584 0.19934
# Poissons Ratio (z) = 0.11190 0.14429
#
# Static dielectric constant tensor:
#      x y z
#    x 2.331650 0.000000 0.000000 
#    y 0.000000 2.161420 0.000000 
#    z 0.000000 0.000000 2.234240 
# 
# From -- ./inp_files/26893.got.cif
#   From: 2010.05.17/outbox.cif.g08.bks.cpg/sg70_14_cif.got.tgz:26893.got - 2010.06.03 15:57:51.
