data_PCOD9515020
_publ_section_title
;
Structure prediction by ZEFSAII (Michael W. Deem and Ramdas Pophale) SiO2 
 PCOD9515020
Probable space group: F D D D
;
_chemical_formula_sum "Si O2"
_cell_formula_units_Z 104
_cell_length_a 23.568229
_cell_length_b 10.961709
_cell_length_c 14.479872
_cell_angle_alpha 90.000000
_cell_angle_beta 90.000000
_cell_angle_gamma 90.000000
_cell_volume 3740.846955
_symmetry_space_group_name_H-M "F D D D"
_symmetry_group_IT_number 70
_space_group.IT_coordinate_system_code '2'
_symmetry_cell_setting 'orthorhombic'
loop_
_space_group_symop_operation_xyz
x,y,z
1/4-x,1/4-y,z
x,1/4-y,1/4-z
1/4-x,y,1/4-z
-x,-y,-z
3/4+x,3/4+y,-z
-x,3/4+y,3/4+z
3/4+x,-y,3/4+z
x,1/2+y,1/2+z
1/4-x,3/4-y,1/2+z
x,3/4-y,3/4-z
1/4-x,1/2+y,3/4-z
-x,1/2-y,1/2-z
3/4+x,1/4+y,1/2-z
-x,1/4+y,1/4+z
3/4+x,1/2-y,1/4+z
1/2+x,y,1/2+z
3/4-x,1/4-y,1/2+z
1/2+x,1/4-y,3/4-z
3/4-x,y,3/4-z
1/2-x,-y,1/2-z
1/4+x,3/4+y,1/2-z
1/2-x,3/4+y,1/4+z
1/4+x,-y,1/4+z
1/2+x,1/2+y,z
3/4-x,3/4-y,z
1/2+x,3/4-y,1/4-z
3/4-x,1/2+y,1/4-z
1/2-x,1/2-y,-z
1/4+x,1/4+y,-z
1/2-x,1/4+y,3/4+z
1/4+x,1/2-y,3/4+z
loop_
_atom_site_type_symbol
_atom_site_label
_atom_site_fract_x
_atom_site_fract_y
_atom_site_fract_z
Si Si1 0.219651 0.444611 0.071412
Si Si2 0.944032 0.125000 0.625000
Si Si3 0.522995 0.875000 0.375000
Si Si4 0.875000 0.875000 0.375000
Si Si5 0.105383 0.490384 0.501920
O O1 0.265456 0.507043 0.136950
O O2 0.167782 0.540925 0.066643
O O3 0.184332 0.318428 0.081554
O O4 0.249509 0.424790 0.971757
O O5 0.905107 0.152997 0.536520
O O6 0.562899 0.765340 0.336535
O O7 0.125000 0.625000 0.520674
#
# Coordination Sequence:
#
# PCOD9515020 Si02
#       5
#    32  16  16   8  32
#     4   9  20  37  64 100 136 183 238 280 346 426
#     4  10  20  39  68 103 132 191 233 290 352 410
#     4   7  18  35  60  87 145 172 220 283 337 412
#     4  10  20  38  66  96 140 170 248 296 298 432
#     4   9  19  38  65  92 146 182 224 293 351 404
#
# _framework density 27.801190999999999
#
# number of rings (size 3 to 8) (size 9 to 14) (size 15 to 20)
#    1.846    1.231    0.000    0.000    2.154    1.231 
#    0.000   14.615    0.000    0.000    0.000    0.000 
#    0.000    0.000    0.000    0.000    0.000    0.308 
#
# Total GULP energy -145073.314735 kJ/mol
# GULP energy per Si atom -5579.742874 kJ/mol
# Density = 2.773791 g / cm^3
# Si number density = 27.801191 Si / 1000 Ang^3
#
#
#
# Elastic Constant Matrix: (Units=GPa)
#
#
# Indices 1 2 3 4 5 6 
#
# 1 162.4967 75.3911 52.9575 0.0000 0.0000 0.0000
# 2 75.3911 193.6820 63.3184 0.0000 0.0000 0.0000
# 3 52.9575 63.3184 134.9723 0.0000 0.0000 0.0000
# 4 0.0000 0.0000 0.0000 44.8952 0.0000 0.0000
# 5 0.0000 0.0000 0.0000 0.0000 21.8895 0.0000
# 6 0.0000 0.0000 0.0000 0.0000 0.0000 53.4401
#
#
#
# Elastic Compliance Matrix: (Units=1/GPa)
#
#
# Indices 1 2 3 4 5 6 
#
# 1 0.007928 -0.002444 -0.001964 0.000000 0.000000 0.000000
# 2 -0.002444 0.006852 -0.002255 0.000000 0.000000 0.000000
# 3 -0.001964 -0.002255 0.009238 0.000000 0.000000 0.000000
# 4 0.000000 0.000000 0.000000 0.022274 0.000000 0.000000
# 5 0.000000 0.000000 0.000000 0.000000 0.045684 0.000000
# 6 0.000000 0.000000 0.000000 0.000000 0.000000 0.018713
#
#
# Mechanical properties :
#
#
# Convention : Reuss Voigt Hill
#
# Bulk Modulus (GPa) = 93.54117 97.16500 95.35308
# Shear Modulus (GPa) = 39.19167 44.01055 41.60111
#
# Velocity S-wave (km/s) = 3.75869 3.98307 3.87250
# Velocity P-wave (km/s) = 7.24958 7.49526 7.37344
#
# Compressibility (1/GPa) = 0.01069048
#
# Stress axis : x y z
#
# Youngs Moduli (GPa) = 126.13659 145.94876 108.25276
#
# Poissons Ratio (x) = 0.35668 0.21262
# Poissons Ratio (y) = 0.30826 0.24416
# Poissons Ratio (z) = 0.24775 0.32918
#
# Static dielectric constant tensor:
#      x y z
#    x 2.273790 0.000000 0.000000 
#    y 0.000000 2.189490 0.000000 
#    z 0.000000 0.000000 2.063200 
# 
# From -- ./inp_files/30561.got.cif
#   From: 2010.05.17/outbox.cif.g08.bks.cpg/sg70_16_cif.got.tgz:30561.got - 2010.06.03 15:57:51.
