data_PCOD9515588
_publ_section_title
;
Structure prediction by ZEFSAII (Michael W. Deem and Ramdas Pophale) SiO2 
 PCOD9515588
Probable space group: F D D D
;
_chemical_formula_sum "Si O2"
_cell_formula_units_Z 192
_cell_length_a 26.755492
_cell_length_b 10.943927
_cell_length_c 32.711292
_cell_angle_alpha 90.000000
_cell_angle_beta 90.000000
_cell_angle_gamma 90.000000
_cell_volume 9578.198360
_symmetry_space_group_name_H-M "F D D D"
_symmetry_group_IT_number 70
_space_group.IT_coordinate_system_code '2'
_symmetry_cell_setting 'orthorhombic'
loop_
_space_group_symop_operation_xyz
x,y,z
1/4-x,1/4-y,z
x,1/4-y,1/4-z
1/4-x,y,1/4-z
-x,-y,-z
3/4+x,3/4+y,-z
-x,3/4+y,3/4+z
3/4+x,-y,3/4+z
x,1/2+y,1/2+z
1/4-x,3/4-y,1/2+z
x,3/4-y,3/4-z
1/4-x,1/2+y,3/4-z
-x,1/2-y,1/2-z
3/4+x,1/4+y,1/2-z
-x,1/4+y,1/4+z
3/4+x,1/2-y,1/4+z
1/2+x,y,1/2+z
3/4-x,1/4-y,1/2+z
1/2+x,1/4-y,3/4-z
3/4-x,y,3/4-z
1/2-x,-y,1/2-z
1/4+x,3/4+y,1/2-z
1/2-x,3/4+y,1/4+z
1/4+x,-y,1/4+z
1/2+x,1/2+y,z
3/4-x,3/4-y,z
1/2+x,3/4-y,1/4-z
3/4-x,1/2+y,1/4-z
1/2-x,1/2-y,-z
1/4+x,1/4+y,-z
1/2-x,1/4+y,3/4+z
1/4+x,1/2-y,3/4+z
loop_
_atom_site_type_symbol
_atom_site_label
_atom_site_fract_x
_atom_site_fract_y
_atom_site_fract_z
Si Si1 0.125000 0.625000 0.052515
Si Si2 0.052620 0.307289 0.292547
Si Si3 0.230217 0.570922 0.084777
Si Si4 0.425611 0.074704 0.398829
Si Si5 0.120930 0.401042 0.730013
Si Si6 0.999162 0.875000 0.875000
Si Si7 0.721791 0.208563 0.759568
O O1 0.176639 0.634845 0.077410
O O2 0.124131 0.494235 0.029388
O O3 0.107311 0.334451 0.275485
O O4 0.047253 0.162633 0.283326
O O5 0.034734 0.340375 0.337521
O O6 0.017040 0.396537 0.265440
O O7 0.255872 0.625000 0.125000
O O8 0.212612 0.435364 0.094676
O O9 0.259863 0.558704 0.042585
O O10 0.375000 0.106749 0.375000
O O11 0.406805 0.038366 0.444772
O O12 0.458625 0.983260 0.372402
O O13 0.068681 0.473374 0.731070
#
# Coordination Sequence:
#
# PCOD9515588 Si02
#       7
#    16  32  32  32  32  16  32
#     4  10  21  42  64  98 130 166 220 276 328 392
#     4  11  22  43  63  96 134 165 226 276 330 401
#     4  11  21  40  62  93 136 169 211 261 334 412
#     4  11  21  38  63 102 127 162 215 277 335 384
#     4  11  23  43  67  95 133 176 218 272 341 407
#     4  12  23  38  66  94 132 168 214 291 330 384
#     4  11  22  42  69  93 131 176 213 275 342 402
#
# _framework density 20.045524
#
# number of rings (size 3 to 8) (size 9 to 14) (size 15 to 20)
#    0.000    1.000    5.000    5.000    0.000    2.000 
#    4.500    0.000    0.000    0.000    0.000    0.000 
#    0.000    0.000    0.000    0.000    0.000    0.000 
#
# Total GULP energy -267376.493477 kJ/mol
# GULP energy per Si atom -5570.343614 kJ/mol
# Density = 1.999990 g / cm^3
# Si number density = 20.045524 Si / 1000 Ang^3
#
#
#
# Elastic Constant Matrix: (Units=GPa)
#
#
# Indices 1 2 3 4 5 6 
#
# 1 39.1098 15.5435 6.7010 0.0000 0.0000 0.0000
# 2 15.5435 39.3929 16.7152 0.0000 0.0000 0.0000
# 3 6.7010 16.7152 77.8232 0.0000 0.0000 0.0000
# 4 0.0000 0.0000 0.0000 29.6132 0.0000 0.0000
# 5 0.0000 0.0000 0.0000 0.0000 8.6109 0.0000
# 6 0.0000 0.0000 0.0000 0.0000 0.0000 -12.4820
#
#
#
# Elastic Compliance Matrix: (Units=1/GPa)
#
#
# Indices 1 2 3 4 5 6 
#
# 1 0.030325 -0.011946 -0.000045 0.000000 0.000000 0.000000
# 2 -0.011946 0.032637 -0.005981 0.000000 0.000000 0.000000
# 3 -0.000045 -0.005981 0.014138 0.000000 0.000000 0.000000
# 4 0.000000 0.000000 0.000000 0.033769 0.000000 0.000000
# 5 0.000000 0.000000 0.000000 0.000000 0.116132 0.000000
# 6 0.000000 0.000000 0.000000 0.000000 0.000000 -0.080116
#
#
# Mechanical properties :
#
#
# Convention : Reuss Voigt Hill
#
# Bulk Modulus (GPa) = 24.29877 26.02725 25.16301
# Shear Modulus (GPa) = 25.43905 12.97284 19.20595
#
# Velocity S-wave (km/s) = 3.56626 2.54671 3.09870
# Velocity P-wave (km/s) = 5.39497 4.65402 5.03813
#
# Compressibility (1/GPa) = 0.04115435
#
# Stress axis : x y z
#
# Youngs Moduli (GPa) = 32.97658 30.64012 70.73028
#
# Poissons Ratio (x) = 0.36603 0.00320
# Poissons Ratio (y) = 0.39394 0.42306
# Poissons Ratio (z) = 0.00149 0.18327
#
# Static dielectric constant tensor:
#      x y z
#    x 1.713240 0.000000 0.000000 
#    y 0.000000 1.876180 0.000000 
#    z 0.000000 0.000000 1.789760 
# 
# From -- ./inp_files/68980.got.cif
#   From: 2010.05.17/outbox.cif.g08.bks.cpg/sg70_35_cif.got.tgz:68980.got - 2010.06.03 15:57:51.
