data_PCOD9515627
_publ_section_title
;
Structure prediction by ZEFSAII (Michael W. Deem and Ramdas Pophale) SiO2 
 PCOD9515627
Probable space group: F D D D
;
_chemical_formula_sum "Si O2"
_cell_formula_units_Z 160
_cell_length_a 10.911704
_cell_length_b 24.706922
_cell_length_c 23.532913
_cell_angle_alpha 90.000000
_cell_angle_beta 90.000000
_cell_angle_gamma 90.000000
_cell_volume 6344.346729
_symmetry_space_group_name_H-M "F D D D"
_symmetry_group_IT_number 70
_space_group.IT_coordinate_system_code '2'
_symmetry_cell_setting 'orthorhombic'
loop_
_space_group_symop_operation_xyz
x,y,z
1/4-x,1/4-y,z
x,1/4-y,1/4-z
1/4-x,y,1/4-z
-x,-y,-z
3/4+x,3/4+y,-z
-x,3/4+y,3/4+z
3/4+x,-y,3/4+z
x,1/2+y,1/2+z
1/4-x,3/4-y,1/2+z
x,3/4-y,3/4-z
1/4-x,1/2+y,3/4-z
-x,1/2-y,1/2-z
3/4+x,1/4+y,1/2-z
-x,1/4+y,1/4+z
3/4+x,1/2-y,1/4+z
1/2+x,y,1/2+z
3/4-x,1/4-y,1/2+z
1/2+x,1/4-y,3/4-z
3/4-x,y,3/4-z
1/2-x,-y,1/2-z
1/4+x,3/4+y,1/2-z
1/2-x,3/4+y,1/4+z
1/4+x,-y,1/4+z
1/2+x,1/2+y,z
3/4-x,3/4-y,z
1/2+x,3/4-y,1/4-z
3/4-x,1/2+y,1/4-z
1/2-x,1/2-y,-z
1/4+x,1/4+y,-z
1/2-x,1/4+y,3/4+z
1/4+x,1/2-y,3/4+z
loop_
_atom_site_type_symbol
_atom_site_label
_atom_site_fract_x
_atom_site_fract_y
_atom_site_fract_z
Si Si1 0.647778 0.942431 0.700495
Si Si2 0.547939 0.952652 0.934736
Si Si3 0.369714 0.934762 0.716995
Si Si4 0.754642 0.911146 0.021053
Si Si5 0.141622 0.485869 0.821224
O O1 0.505941 0.954863 0.705701
O O2 0.678172 0.880024 0.689043
O O3 0.733379 0.981615 0.663931
O O4 0.681749 0.951225 0.766937
O O5 0.428932 0.930715 0.967940
O O6 0.580255 0.948275 0.868629
O O7 0.662815 0.929067 0.970759
O O8 0.537079 0.018166 0.941105
O O9 0.375000 0.875000 0.692018
O O10 0.875000 0.875000 0.005562
O O11 0.802092 0.965298 0.051890
#
# Coordination Sequence:
#
# PCOD9515627 Si02
#       5
#    32  32  32  32  32
#     4  10  21  43  65  95 137 179 228 290 340 416
#     4  11  24  43  69 101 138 183 232 286 357 421
#     4  11  23  43  66  98 146 182 223 288 351 423
#     4  10  21  43  71  95 136 176 229 290 349 420
#     4  10  23  43  68  96 135 181 237 289 345 417
#
# _framework density 25.219303
#
# number of rings (size 3 to 8) (size 9 to 14) (size 15 to 20)
#    0.000    1.600    4.000    0.000    0.000    4.800 
#    0.000    6.000    0.000    0.000    0.000    0.000 
#    0.000    0.000    0.000    0.000    0.000    0.000 
#
# Total GULP energy -223282.427924 kJ/mol
# GULP energy per Si atom -5582.060698 kJ/mol
# Density = 2.516190 g / cm^3
# Si number density = 25.219303 Si / 1000 Ang^3
#
#
#
# Elastic Constant Matrix: (Units=GPa)
#
#
# Indices 1 2 3 4 5 6 
#
# 1 121.7953 15.1283 54.9908 0.0000 0.0000 0.0000
# 2 15.1283 93.7544 5.4796 0.0000 0.0000 0.0000
# 3 54.9908 5.4796 118.6775 0.0000 0.0000 0.0000
# 4 0.0000 0.0000 0.0000 -3.6066 0.0000 0.0000
# 5 0.0000 0.0000 0.0000 0.0000 26.2136 0.0000
# 6 0.0000 0.0000 0.0000 0.0000 0.0000 39.2064
#
#
#
# Elastic Compliance Matrix: (Units=1/GPa)
#
#
# Indices 1 2 3 4 5 6 
#
# 1 0.010569 -0.001423 -0.004831 0.000000 0.000000 0.000000
# 2 -0.001423 0.010887 0.000157 0.000000 0.000000 0.000000
# 3 -0.004831 0.000157 0.010658 0.000000 0.000000 0.000000
# 4 0.000000 0.000000 0.000000 -0.277272 0.000000 0.000000
# 5 0.000000 0.000000 0.000000 0.000000 0.038148 0.000000
# 6 0.000000 0.000000 0.000000 0.000000 0.000000 0.025506
#
#
# Mechanical properties :
#
#
# Convention : Reuss Voigt Hill
#
# Bulk Modulus (GPa) = 50.20708 53.93608 52.07158
# Shear Modulus (GPa) = -30.73709 29.60459 -0.56625
#
# Velocity S-wave (km/s) = -3.49491 3.42992 -0.47436
# Velocity P-wave (km/s) = 1.91457 6.09254 4.51578
#
# Compressibility (1/GPa) = 0.01991751
#
# Stress axis : x y z
#
# Youngs Moduli (GPa) = 94.61957 91.85586 93.82919
#
# Poissons Ratio (x) = 0.13071 0.45333
# Poissons Ratio (y) = 0.13464 -0.01470
# Poissons Ratio (z) = 0.45715 -0.01439
#
# Static dielectric constant tensor:
#      x y z
#    x 2.050660 0.000000 0.000000 
#    y 0.000000 2.012700 0.000000 
#    z 0.000000 0.000000 2.106400 
# 
# From -- ./inp_files/20824.got.cif
#   From: 2010.05.17/outbox.cif.g08.bks.cpg/sg70_11_cif.got.tgz:20824.got - 2010.06.03 15:57:51.
