data_PCOD9515137
_publ_section_title
;
Structure prediction by ZEFSAII (Michael W. Deem and Ramdas Pophale) SiO2 
 PCOD9515137
Probable space group: F D D D
;
_chemical_formula_sum "Si O2"
_cell_formula_units_Z 176
_cell_length_a 30.773489
_cell_length_b 11.607295
_cell_length_c 22.335822
_cell_angle_alpha 90.000000
_cell_angle_beta 90.000000
_cell_angle_gamma 90.000000
_cell_volume 7978.287829
_symmetry_space_group_name_H-M "F D D D"
_symmetry_group_IT_number 70
_space_group.IT_coordinate_system_code '2'
_symmetry_cell_setting 'orthorhombic'
loop_
_space_group_symop_operation_xyz
x,y,z
1/4-x,1/4-y,z
x,1/4-y,1/4-z
1/4-x,y,1/4-z
-x,-y,-z
3/4+x,3/4+y,-z
-x,3/4+y,3/4+z
3/4+x,-y,3/4+z
x,1/2+y,1/2+z
1/4-x,3/4-y,1/2+z
x,3/4-y,3/4-z
1/4-x,1/2+y,3/4-z
-x,1/2-y,1/2-z
3/4+x,1/4+y,1/2-z
-x,1/4+y,1/4+z
3/4+x,1/2-y,1/4+z
1/2+x,y,1/2+z
3/4-x,1/4-y,1/2+z
1/2+x,1/4-y,3/4-z
3/4-x,y,3/4-z
1/2-x,-y,1/2-z
1/4+x,3/4+y,1/2-z
1/2-x,3/4+y,1/4+z
1/4+x,-y,1/4+z
1/2+x,1/2+y,z
3/4-x,3/4-y,z
1/2+x,3/4-y,1/4-z
3/4-x,1/2+y,1/4-z
1/2-x,1/2-y,-z
1/4+x,1/4+y,-z
1/2-x,1/4+y,3/4+z
1/4+x,1/2-y,3/4+z
loop_
_atom_site_type_symbol
_atom_site_label
_atom_site_fract_x
_atom_site_fract_y
_atom_site_fract_z
Si Si1 0.922327 0.859723 0.273947
Si Si2 0.648978 0.375000 0.875000
Si Si3 0.670316 0.051677 0.675345
Si Si4 0.561135 0.445301 0.627214
Si Si5 0.461259 0.408208 0.598217
Si Si6 0.338781 0.774601 0.557562
O O1 0.875000 0.875000 0.244888
O O2 0.922521 0.743667 0.313497
O O3 0.958043 0.864036 0.222467
O O4 0.929189 0.960195 0.322222
O O5 0.680048 0.268235 0.890352
O O6 0.616873 0.410550 0.929342
O O7 0.625000 0.125000 0.681699
O O8 0.696105 0.125000 0.625000
O O9 0.684965 0.033832 0.743720
O O10 0.668815 0.925062 0.647425
O O11 0.509542 0.433670 0.619573
O O12 0.442618 0.303350 0.637448
O O13 0.375000 0.875000 0.558489
#
# Coordination Sequence:
#
# PCOD9515137 Si02
#       6
#    32  16  32  32  32  32
#     4  11  25  43  72 102 134 182 230 283 349 415
#     4  10  20  40  70  94 135 176 229 288 332 418
#     4  10  24  40  65  92 133 183 231 276 345 415
#     4  11  25  43  65 102 140 171 232 292 347 413
#     4  11  24  42  67 101 136 180 227 290 351 399
#     4   9  21  39  61  97 124 177 236 268 330 411
#
# _framework density 22.059871000000001
#
# number of rings (size 3 to 8) (size 9 to 14) (size 15 to 20)
#    0.000    1.636    0.000    4.364   10.182    5.091 
#    1.636    0.000    0.000    0.000    0.000    0.000 
#    0.000    0.000    0.000    0.000    0.000    0.000 
#
# Total GULP energy -245668.143936 kJ/mol
# GULP energy per Si atom -5583.366908 kJ/mol
# Density = 2.200966 g / cm^3
# Si number density = 22.059871 Si / 1000 Ang^3
#
#
#
# Elastic Constant Matrix: (Units=GPa)
#
#
# Indices 1 2 3 4 5 6 
#
# 1 84.4450 20.7219 14.9215 0.0000 0.0000 0.0000
# 2 20.7219 109.4771 32.8581 0.0000 0.0000 0.0000
# 3 14.9215 32.8581 125.4478 0.0000 0.0000 0.0000
# 4 0.0000 0.0000 0.0000 19.6691 0.0000 0.0000
# 5 0.0000 0.0000 0.0000 0.0000 6.0862 0.0000
# 6 0.0000 0.0000 0.0000 0.0000 0.0000 -20.1678
#
#
#
# Elastic Compliance Matrix: (Units=1/GPa)
#
#
# Indices 1 2 3 4 5 6 
#
# 1 0.012521 -0.002087 -0.000943 0.000000 0.000000 0.000000
# 2 -0.002087 0.010262 -0.002440 0.000000 0.000000 0.000000
# 3 -0.000943 -0.002440 0.008723 0.000000 0.000000 0.000000
# 4 0.000000 0.000000 0.000000 0.050841 0.000000 0.000000
# 5 0.000000 0.000000 0.000000 0.000000 0.164307 0.000000
# 6 0.000000 0.000000 0.000000 0.000000 0.000000 -0.049584
#
#
# Mechanical properties :
#
#
# Convention : Reuss Voigt Hill
#
# Bulk Modulus (GPa) = 48.62288 50.70810 49.66549
# Shear Modulus (GPa) = 23.27069 17.84206 20.55637
#
# Velocity S-wave (km/s) = 3.25143 2.84703 3.05592
# Velocity P-wave (km/s) = 6.01539 5.81755 5.91730
#
# Compressibility (1/GPa) = 0.02056645
#
# Stress axis : x y z
#
# Youngs Moduli (GPa) = 79.86761 97.45114 114.64538
#
# Poissons Ratio (x) = 0.20338 0.10807
# Poissons Ratio (y) = 0.16668 0.27968
# Poissons Ratio (z) = 0.07529 0.23774
#
# Static dielectric constant tensor:
#      x y z
#    x 1.805690 0.000000 0.000000 
#    y 0.000000 1.816530 0.000000 
#    z 0.000000 0.000000 1.835800 
# 
# From -- ./inp_files/54981.got.cif
#   From: 2010.05.17/outbox.cif.g08.bks.cpg/sg70_28_cif.got.tgz:54981.got - 2010.06.03 15:57:51.
