data_PCOD9515449
_publ_section_title
;
Structure prediction by ZEFSAII (Michael W. Deem and Ramdas Pophale) SiO2 
 PCOD9515449
Probable space group: F D D D
;
_chemical_formula_sum "Si O2"
_cell_formula_units_Z 176
_cell_length_a 10.086141
_cell_length_b 29.803274
_cell_length_c 25.459049
_cell_angle_alpha 90.000000
_cell_angle_beta 90.000000
_cell_angle_gamma 90.000000
_cell_volume 7652.990736
_symmetry_space_group_name_H-M "F D D D"
_symmetry_group_IT_number 70
_space_group.IT_coordinate_system_code '2'
_symmetry_cell_setting 'orthorhombic'
loop_
_space_group_symop_operation_xyz
x,y,z
1/4-x,1/4-y,z
x,1/4-y,1/4-z
1/4-x,y,1/4-z
-x,-y,-z
3/4+x,3/4+y,-z
-x,3/4+y,3/4+z
3/4+x,-y,3/4+z
x,1/2+y,1/2+z
1/4-x,3/4-y,1/2+z
x,3/4-y,3/4-z
1/4-x,1/2+y,3/4-z
-x,1/2-y,1/2-z
3/4+x,1/4+y,1/2-z
-x,1/4+y,1/4+z
3/4+x,1/2-y,1/4+z
1/2+x,y,1/2+z
3/4-x,1/4-y,1/2+z
1/2+x,1/4-y,3/4-z
3/4-x,y,3/4-z
1/2-x,-y,1/2-z
1/4+x,3/4+y,1/2-z
1/2-x,3/4+y,1/4+z
1/4+x,-y,1/4+z
1/2+x,1/2+y,z
3/4-x,3/4-y,z
1/2+x,3/4-y,1/4-z
3/4-x,1/2+y,1/4-z
1/2-x,1/2-y,-z
1/4+x,1/4+y,-z
1/2-x,1/4+y,3/4+z
1/4+x,1/2-y,3/4+z
loop_
_atom_site_type_symbol
_atom_site_label
_atom_site_fract_x
_atom_site_fract_y
_atom_site_fract_z
Si Si1 0.469841 0.128503 0.989764
Si Si2 0.125000 0.216847 0.625000
Si Si3 0.535942 0.050647 0.343516
Si Si4 0.189249 0.967102 0.707245
Si Si5 0.701158 0.498126 0.190768
Si Si6 0.638844 0.919200 0.845587
O O1 0.625000 0.125000 0.006148
O O2 0.480199 0.154879 0.934536
O O3 0.400275 0.080315 0.982244
O O4 0.403481 0.156025 0.036386
O O5 0.152875 0.250304 0.673670
O O6 0.257855 0.187014 0.622850
O O7 0.689656 0.046819 0.330992
O O8 0.455523 0.010967 0.313337
O O9 0.508697 0.042568 0.404725
O O10 0.250000 0.000000 0.750000
O O11 0.750000 0.500000 0.250000
O O12 0.754287 0.542015 0.161559
O O13 0.687450 0.875000 0.875000
#
# Coordination Sequence:
#
# PCOD9515449 Si02
#       6
#    32  16  32  32  32  32
#     4  10  21  39  66  99 136 172 220 280 346 402
#     4  12  23  40  68  96 134 166 224 282 345 396
#     4  10  22  43  67  93 136 177 224 279 343 406
#     4  11  23  39  67 101 133 170 219 279 341 410
#     4  11  23  42  70  93 130 188 233 271 338 415
#     4  12  23  42  69 101 133 177 228 287 343 410
#
# _framework density 22.997546
#
# number of rings (size 3 to 8) (size 9 to 14) (size 15 to 20)
#    0.000    1.091    3.636    4.636    0.000    1.455 
#    0.000    1.818    0.000    2.182    0.000    0.000 
#    0.000    0.000    0.000    0.000    0.000    0.000 
#
# Total GULP energy -245828.296216 kJ/mol
# GULP energy per Si atom -5587.006732 kJ/mol
# Density = 2.294520 g / cm^3
# Si number density = 22.997546 Si / 1000 Ang^3
#
#
#
# Elastic Constant Matrix: (Units=GPa)
#
#
# Indices 1 2 3 4 5 6 
#
# 1 37.5088 7.9483 -16.8080 0.0000 0.0000 0.0000
# 2 7.9483 135.5926 23.2573 0.0000 0.0000 0.0000
# 3 -16.8080 23.2573 111.8255 0.0000 0.0000 0.0000
# 4 0.0000 0.0000 0.0000 42.0842 0.0000 0.0000
# 5 0.0000 0.0000 0.0000 0.0000 28.1606 0.0000
# 6 0.0000 0.0000 0.0000 0.0000 0.0000 38.5392
#
#
#
# Elastic Compliance Matrix: (Units=1/GPa)
#
#
# Indices 1 2 3 4 5 6 
#
# 1 0.029428 -0.002576 0.004959 0.000000 0.000000 0.000000
# 2 -0.002576 0.007873 -0.002025 0.000000 0.000000 0.000000
# 3 0.004959 -0.002025 0.010109 0.000000 0.000000 0.000000
# 4 0.000000 0.000000 0.000000 0.023762 0.000000 0.000000
# 5 0.000000 0.000000 0.000000 0.000000 0.035511 0.000000
# 6 0.000000 0.000000 0.000000 0.000000 0.000000 0.025948
#
#
# Mechanical properties :
#
#
# Convention : Reuss Voigt Hill
#
# Bulk Modulus (GPa) = 20.77797 34.85800 27.81798
# Shear Modulus (GPa) = 33.79386 39.79209 36.79298
#
# Velocity S-wave (km/s) = 3.83751 4.16417 4.00417
# Velocity P-wave (km/s) = 5.35628 6.18956 5.78793
#
# Compressibility (1/GPa) = 0.04812791
#
# Stress axis : x y z
#
# Youngs Moduli (GPa) = 33.98089 127.01183 98.92242
#
# Poissons Ratio (x) = 0.32713 -0.49055
# Poissons Ratio (y) = 0.08752 0.20028
# Poissons Ratio (z) = -0.16851 0.25715
#
# Static dielectric constant tensor:
#      x y z
#    x 1.925770 0.000000 0.000000 
#    y 0.000000 1.884020 0.000000 
#    z 0.000000 0.000000 1.893470 
# 
# From -- ./inp_files/20962.got.cif
#   From: 2010.05.17/outbox.cif.g08.bks.cpg/sg70_11_cif.got.tgz:20962.got - 2010.06.03 15:57:51.
