data_PCOD9515330
_publ_section_title
;
Structure prediction by ZEFSAII (Michael W. Deem and Ramdas Pophale) SiO2 
 PCOD9515330
Probable space group: F D D D
;
_chemical_formula_sum "Si O2"
_cell_formula_units_Z 216
_cell_length_a 32.119755
_cell_length_b 13.750279
_cell_length_c 24.542130
_cell_angle_alpha 90.000000
_cell_angle_beta 90.000000
_cell_angle_gamma 90.000000
_cell_volume 10839.168970
_symmetry_space_group_name_H-M "F D D D"
_symmetry_group_IT_number 70
_space_group.IT_coordinate_system_code '2'
_symmetry_cell_setting 'orthorhombic'
loop_
_space_group_symop_operation_xyz
x,y,z
1/4-x,1/4-y,z
x,1/4-y,1/4-z
1/4-x,y,1/4-z
-x,-y,-z
3/4+x,3/4+y,-z
-x,3/4+y,3/4+z
3/4+x,-y,3/4+z
x,1/2+y,1/2+z
1/4-x,3/4-y,1/2+z
x,3/4-y,3/4-z
1/4-x,1/2+y,3/4-z
-x,1/2-y,1/2-z
3/4+x,1/4+y,1/2-z
-x,1/4+y,1/4+z
3/4+x,1/2-y,1/4+z
1/2+x,y,1/2+z
3/4-x,1/4-y,1/2+z
1/2+x,1/4-y,3/4-z
3/4-x,y,3/4-z
1/2-x,-y,1/2-z
1/4+x,3/4+y,1/2-z
1/2-x,3/4+y,1/4+z
1/4+x,-y,1/4+z
1/2+x,1/2+y,z
3/4-x,3/4-y,z
1/2+x,3/4-y,1/4-z
3/4-x,1/2+y,1/4-z
1/2-x,1/2-y,-z
1/4+x,1/4+y,-z
1/2-x,1/4+y,3/4+z
1/4+x,1/2-y,3/4+z
loop_
_atom_site_type_symbol
_atom_site_label
_atom_site_fract_x
_atom_site_fract_y
_atom_site_fract_z
Si Si1 0.125000 0.125000 0.311948
Si Si2 0.160499 0.496999 0.531078
Si Si3 0.954357 0.976982 0.317872
Si Si4 0.467643 0.999874 0.939091
Si Si5 0.875000 0.375000 0.375000
Si Si6 0.832178 0.516263 0.102294
Si Si7 0.872620 0.039262 0.263144
Si Si8 0.994171 0.941680 0.211779
O O1 0.155110 0.185100 0.271685
O O2 0.101502 0.199425 0.351108
O O3 0.150266 0.556788 0.584706
O O4 0.129430 0.405437 0.523066
O O5 0.207183 0.461815 0.539543
O O6 0.971725 0.866221 0.318308
O O7 0.977593 0.006879 0.262646
O O8 0.961954 0.029542 0.374922
O O9 0.905549 0.986944 0.303230
O O10 0.424304 0.008696 0.972178
O O11 0.503595 0.072262 0.961371
O O12 0.828827 0.625000 0.125000
O O13 0.787332 0.473948 0.085076
O O14 0.861833 0.516218 0.048133
#
# Coordination Sequence:
#
# PCOD9515330 Si02
#       8
#    16  32  32  32   8  32  32  32
#     4  11  24  45  70  94 133 178 227 274 336 400
#     4  10  23  44  63  97 127 171 223 272 330 395
#     4  10  21  37  59  93 128 170 215 269 324 397
#     4  10  21  38  60  91 128 172 215 270 326 395
#     4  10  24  40  68  88 122 172 218 272 318 392
#     4  11  24  44  66  98 128 177 222 278 334 404
#     4  10  21  38  63  91 127 167 222 272 324 393
#     4  10  24  39  63  92 136 166 221 269 338 389
#
# _framework density 19.927727000000001
#
# number of rings (size 3 to 8) (size 9 to 14) (size 15 to 20)
#    0.000    1.778    1.481    1.333   11.407    1.185 
#    0.000    0.741    0.000    0.000    0.000    0.000 
#    0.000    0.000    0.000    0.000    0.000    0.000 
#
# Total GULP energy -300783.736454 kJ/mol
# GULP energy per Si atom -5570.069194 kJ/mol
# Density = 1.988237 g / cm^3
# Si number density = 19.927727 Si / 1000 Ang^3
#
#
#
# Elastic Constant Matrix: (Units=GPa)
#
#
# Indices 1 2 3 4 5 6 
#
# 1 84.6867 28.6878 39.5447 0.0000 0.0000 0.0000
# 2 28.6878 97.9295 33.5704 0.0000 0.0000 0.0000
# 3 39.5447 33.5704 111.7295 0.0000 0.0000 0.0000
# 4 0.0000 0.0000 0.0000 48.2126 0.0000 0.0000
# 5 0.0000 0.0000 0.0000 0.0000 109.6072 0.0000
# 6 0.0000 0.0000 0.0000 0.0000 0.0000 15.5337
#
#
#
# Elastic Compliance Matrix: (Units=1/GPa)
#
#
# Indices 1 2 3 4 5 6 
#
# 1 0.014820 -0.002835 -0.004393 0.000000 0.000000 0.000000
# 2 -0.002835 0.011926 -0.002580 0.000000 0.000000 0.000000
# 3 -0.004393 -0.002580 0.011280 0.000000 0.000000 0.000000
# 4 0.000000 0.000000 0.000000 0.020741 0.000000 0.000000
# 5 0.000000 0.000000 0.000000 0.000000 0.009123 0.000000
# 6 0.000000 0.000000 0.000000 0.000000 0.000000 0.064376
#
#
# Mechanical properties :
#
#
# Convention : Reuss Voigt Hill
#
# Bulk Modulus (GPa) = 54.31967 55.32793 54.82380
# Shear Modulus (GPa) = 31.64114 47.50688 39.57401
#
# Velocity S-wave (km/s) = 3.98904 4.88788 4.46115
# Velocity P-wave (km/s) = 6.96664 7.72526 7.35574
#
# Compressibility (1/GPa) = 0.01840954
#
# Stress axis : x y z
#
# Youngs Moduli (GPa) = 67.47516 83.84736 88.64996
#
# Poissons Ratio (x) = 0.23774 0.38948
# Poissons Ratio (y) = 0.19132 0.22871
# Poissons Ratio (z) = 0.29645 0.21632
#
# Static dielectric constant tensor:
#      x y z
#    x 1.696210 0.000000 0.000000 
#    y 0.000000 1.775390 0.000000 
#    z 0.000000 0.000000 1.781530 
# 
# From -- ./inp_files/55157.got.cif
#   From: 2010.05.17/outbox.cif.g08.bks.cpg/sg70_28_cif.got.tgz:55157.got - 2010.06.03 15:57:51.
