data_PCOD9515867
_publ_section_title
;
Structure prediction by ZEFSAII (Michael W. Deem and Ramdas Pophale) SiO2 
 PCOD9515867
Probable space group: F D D D
;
_chemical_formula_sum "Si O2"
_cell_formula_units_Z 160
_cell_length_a 10.762399
_cell_length_b 26.529687
_cell_length_c 25.232451
_cell_angle_alpha 90.000000
_cell_angle_beta 90.000000
_cell_angle_gamma 90.000000
_cell_volume 7204.447046
_symmetry_space_group_name_H-M "F D D D"
_symmetry_group_IT_number 70
_space_group.IT_coordinate_system_code '2'
_symmetry_cell_setting 'orthorhombic'
loop_
_space_group_symop_operation_xyz
x,y,z
1/4-x,1/4-y,z
x,1/4-y,1/4-z
1/4-x,y,1/4-z
-x,-y,-z
3/4+x,3/4+y,-z
-x,3/4+y,3/4+z
3/4+x,-y,3/4+z
x,1/2+y,1/2+z
1/4-x,3/4-y,1/2+z
x,3/4-y,3/4-z
1/4-x,1/2+y,3/4-z
-x,1/2-y,1/2-z
3/4+x,1/4+y,1/2-z
-x,1/4+y,1/4+z
3/4+x,1/2-y,1/4+z
1/2+x,y,1/2+z
3/4-x,1/4-y,1/2+z
1/2+x,1/4-y,3/4-z
3/4-x,y,3/4-z
1/2-x,-y,1/2-z
1/4+x,3/4+y,1/2-z
1/2-x,3/4+y,1/4+z
1/4+x,-y,1/4+z
1/2+x,1/2+y,z
3/4-x,3/4-y,z
1/2+x,3/4-y,1/4-z
3/4-x,1/2+y,1/4-z
1/2-x,1/2-y,-z
1/4+x,1/4+y,-z
1/2-x,1/4+y,3/4+z
1/4+x,1/2-y,3/4+z
loop_
_atom_site_type_symbol
_atom_site_label
_atom_site_fract_x
_atom_site_fract_y
_atom_site_fract_z
Si Si1 0.952278 0.689676 0.692982
Si Si2 0.240107 0.664056 0.854507
Si Si3 0.690998 0.220054 0.748802
Si Si4 0.864825 0.510825 0.664170
Si Si5 0.503258 0.390956 0.436874
O O1 0.883962 0.735395 0.722772
O O2 0.935831 0.706986 0.631937
O O3 0.875021 0.639064 0.705275
O O4 0.092208 0.688820 0.713676
O O5 0.125000 0.625000 0.856170
O O6 0.375000 0.645278 0.875000
O O7 0.249458 0.685599 0.794707
O O8 0.197811 0.711672 0.890232
O O9 0.788104 0.246907 0.710569
O O10 0.764083 0.549379 0.687381
O O11 0.496063 0.375000 0.375000
O O12 0.375000 0.375000 0.463716
#
# Coordination Sequence:
#
# PCOD9515867 Si02
#       5
#    32  32  32  32  32
#     4   9  20  38  63 102 137 175 220 290 349 409
#     4  11  28  49  71  98 143 188 237 294 355 422
#     4  10  22  41  68  98 137 181 232 279 349 424
#     4  10  22  41  70  99 136 178 229 288 348 418
#     4   9  19  35  62  94 133 170 220 288 349 404
#
# _framework density 22.208504999999999
#
# number of rings (size 3 to 8) (size 9 to 14) (size 15 to 20)
#    0.000    2.200    0.000    0.600   11.200    5.600 
#    0.000    3.000    0.000    0.000    0.000    0.000 
#    0.000    0.000    0.000    0.000    0.000    0.000 
#
# Total GULP energy -223453.269689 kJ/mol
# GULP energy per Si atom -5586.331742 kJ/mol
# Density = 2.215796 g / cm^3
# Si number density = 22.208505 Si / 1000 Ang^3
#
#
#
# Elastic Constant Matrix: (Units=GPa)
#
#
# Indices 1 2 3 4 5 6 
#
# 1 90.3676 7.0650 50.3408 0.0000 0.0000 0.0000
# 2 7.0650 68.4776 9.7488 0.0000 0.0000 0.0000
# 3 50.3408 9.7488 65.0022 0.0000 0.0000 0.0000
# 4 0.0000 0.0000 0.0000 8.2843 0.0000 0.0000
# 5 0.0000 0.0000 0.0000 0.0000 12.7021 0.0000
# 6 0.0000 0.0000 0.0000 0.0000 0.0000 23.2606
#
#
#
# Elastic Compliance Matrix: (Units=1/GPa)
#
#
# Indices 1 2 3 4 5 6 
#
# 1 0.019464 0.000141 -0.015095 0.000000 0.000000 0.000000
# 2 0.000141 0.014923 -0.002347 0.000000 0.000000 0.000000
# 3 -0.015095 -0.002347 0.027426 0.000000 0.000000 0.000000
# 4 0.000000 0.000000 0.000000 0.120710 0.000000 0.000000
# 5 0.000000 0.000000 0.000000 0.000000 0.078727 0.000000
# 6 0.000000 0.000000 0.000000 0.000000 0.000000 0.042991
#
#
# Mechanical properties :
#
#
# Convention : Reuss Voigt Hill
#
# Bulk Modulus (GPa) = 36.75022 39.79517 38.27269
# Shear Modulus (GPa) = 14.37139 19.29558 16.83349
#
# Velocity S-wave (km/s) = 2.54660 2.95080 2.75612
# Velocity P-wave (km/s) = 5.02301 5.43759 5.23441
#
# Compressibility (1/GPa) = 0.02721072
#
# Stress axis : x y z
#
# Youngs Moduli (GPa) = 51.37773 67.01097 36.46149
#
# Poissons Ratio (x) = -0.00944 0.55038
# Poissons Ratio (y) = -0.00724 0.08558
# Poissons Ratio (z) = 0.77553 0.15728
#
# Static dielectric constant tensor:
#      x y z
#    x 1.875180 0.000000 0.000000 
#    y 0.000000 1.795880 0.000000 
#    z 0.000000 0.000000 1.820220 
# 
# From -- ./inp_files/50313.got.cif
#   From: 2010.05.17/outbox.cif.g08.bks.cpg/sg70_26_cif.got.tgz:50313.got - 2010.06.03 15:57:51.
