data_PCOD9515473
_publ_section_title
;
Structure prediction by ZEFSAII (Michael W. Deem and Ramdas Pophale) SiO2 
 PCOD9515473
Probable space group: F D D D
;
_chemical_formula_sum "Si O2"
_cell_formula_units_Z 192
_cell_length_a 22.307867
_cell_length_b 13.908983
_cell_length_c 32.855413
_cell_angle_alpha 90.000000
_cell_angle_beta 90.000000
_cell_angle_gamma 90.000000
_cell_volume 10194.369098
_symmetry_space_group_name_H-M "F D D D"
_symmetry_group_IT_number 70
_space_group.IT_coordinate_system_code '2'
_symmetry_cell_setting 'orthorhombic'
loop_
_space_group_symop_operation_xyz
x,y,z
1/4-x,1/4-y,z
x,1/4-y,1/4-z
1/4-x,y,1/4-z
-x,-y,-z
3/4+x,3/4+y,-z
-x,3/4+y,3/4+z
3/4+x,-y,3/4+z
x,1/2+y,1/2+z
1/4-x,3/4-y,1/2+z
x,3/4-y,3/4-z
1/4-x,1/2+y,3/4-z
-x,1/2-y,1/2-z
3/4+x,1/4+y,1/2-z
-x,1/4+y,1/4+z
3/4+x,1/2-y,1/4+z
1/2+x,y,1/2+z
3/4-x,1/4-y,1/2+z
1/2+x,1/4-y,3/4-z
3/4-x,y,3/4-z
1/2-x,-y,1/2-z
1/4+x,3/4+y,1/2-z
1/2-x,3/4+y,1/4+z
1/4+x,-y,1/4+z
1/2+x,1/2+y,z
3/4-x,3/4-y,z
1/2+x,3/4-y,1/4-z
3/4-x,1/2+y,1/4-z
1/2-x,1/2-y,-z
1/4+x,1/4+y,-z
1/2-x,1/4+y,3/4+z
1/4+x,1/2-y,3/4+z
loop_
_atom_site_type_symbol
_atom_site_label
_atom_site_fract_x
_atom_site_fract_y
_atom_site_fract_z
Si Si1 0.875000 0.875000 0.665078
Si Si2 0.253490 0.160498 0.883926
Si Si3 0.561844 0.336841 0.034906
Si Si4 0.699334 0.298159 0.056904
Si Si5 0.242911 0.887142 0.974751
Si Si6 0.357640 0.670692 0.546700
Si Si7 0.968023 0.625000 0.625000
O O1 0.815212 0.873637 0.637821
O O2 0.883877 0.782550 0.693299
O O3 0.282911 0.144389 0.927914
O O4 0.285810 0.097411 0.849684
O O5 0.253544 0.274392 0.874586
O O6 0.629164 0.307400 0.047439
O O7 0.521543 0.242433 0.027579
O O8 0.570079 0.397946 0.993753
O O9 0.718529 0.187712 0.051542
O O10 0.737329 0.352983 0.021616
O O11 0.174952 0.882424 0.958569
O O12 0.323803 0.626362 0.585202
#
# Coordination Sequence:
#
# PCOD9515473 Si02
#       7
#    16  32  32  32  32  32  16
#     4  10  22  40  62  90 119 164 212 259 316 364
#     4  11  23  42  61  91 124 164 211 262 314 375
#     4  11  22  41  63  91 131 160 209 254 313 379
#     4  10  23  39  63  93 127 165 207 253 314 374
#     4  10  21  40  62  93 126 167 204 254 312 371
#     4  10  22  40  63  95 124 162 212 257 308 380
#     4  10  24  40  63  90 121 164 210 260 318 362
#
# _framework density 18.833926999999999
#
# number of rings (size 3 to 8) (size 9 to 14) (size 15 to 20)
#    0.000    1.667    1.667    2.000    4.667    3.333 
#    9.000    2.500    0.000    0.000    0.000    0.000 
#    0.000    0.000    0.000    0.000    0.000    0.000 
#
# Total GULP energy -268036.419591 kJ/mol
# GULP energy per Si atom -5584.092075 kJ/mol
# Density = 1.879106 g / cm^3
# Si number density = 18.833927 Si / 1000 Ang^3
#
#
#
# Elastic Constant Matrix: (Units=GPa)
#
#
# Indices 1 2 3 4 5 6 
#
# 1 43.7571 -2.7936 8.4125 0.0000 0.0000 0.0000
# 2 -2.7936 96.4845 20.1283 0.0000 0.0000 0.0000
# 3 8.4125 20.1283 90.7358 0.0000 0.0000 0.0000
# 4 0.0000 0.0000 0.0000 14.6139 0.0000 0.0000
# 5 0.0000 0.0000 0.0000 0.0000 27.7702 0.0000
# 6 0.0000 0.0000 0.0000 0.0000 0.0000 22.1114
#
#
#
# Elastic Compliance Matrix: (Units=1/GPa)
#
#
# Indices 1 2 3 4 5 6 
#
# 1 0.023397 0.001185 -0.002432 0.000000 0.000000 0.000000
# 2 0.001185 0.010927 -0.002534 0.000000 0.000000 0.000000
# 3 -0.002432 -0.002534 0.011809 0.000000 0.000000 0.000000
# 4 0.000000 0.000000 0.000000 0.068428 0.000000 0.000000
# 5 0.000000 0.000000 0.000000 0.000000 0.036010 0.000000
# 6 0.000000 0.000000 0.000000 0.000000 0.000000 0.045226
#
#
# Mechanical properties :
#
#
# Convention : Reuss Voigt Hill
#
# Bulk Modulus (GPa) = 25.92675 31.38577 28.65626
# Shear Modulus (GPa) = 23.12515 26.58111 24.85313
#
# Velocity S-wave (km/s) = 3.50786 3.76086 3.63656
# Velocity P-wave (km/s) = 5.49570 5.96317 5.73420
#
# Compressibility (1/GPa) = 0.03857021
#
# Stress axis : x y z
#
# Youngs Moduli (GPa) = 42.74123 91.51416 84.68407
#
# Poissons Ratio (x) = -0.10842 0.20595
# Poissons Ratio (y) = -0.05064 0.21458
# Poissons Ratio (z) = 0.10395 0.23189
#
# Static dielectric constant tensor:
#      x y z
#    x 1.651590 0.000000 0.000000 
#    y 0.000000 1.652130 0.000000 
#    z 0.000000 0.000000 1.639220 
# 
# From -- ./inp_files/61152.got.cif
#   From: 2010.05.17/outbox.cif.g08.bks.cpg/sg70_31_cif.got.tgz:61152.got - 2010.06.03 15:57:51.
