data_PCOD9515432
_publ_section_title
;
Structure prediction by ZEFSAII (Michael W. Deem and Ramdas Pophale) SiO2 
 PCOD9515432
Probable space group: F D D D
;
_chemical_formula_sum "Si O2"
_cell_formula_units_Z 208
_cell_length_a 27.505900
_cell_length_b 23.649000
_cell_length_c 13.572479
_cell_angle_alpha 90.000000
_cell_angle_beta 90.000000
_cell_angle_gamma 90.000000
_cell_volume 8828.721542
_symmetry_space_group_name_H-M "F D D D"
_symmetry_group_IT_number 70
_space_group.IT_coordinate_system_code '2'
_symmetry_cell_setting 'orthorhombic'
loop_
_space_group_symop_operation_xyz
x,y,z
1/4-x,1/4-y,z
x,1/4-y,1/4-z
1/4-x,y,1/4-z
-x,-y,-z
3/4+x,3/4+y,-z
-x,3/4+y,3/4+z
3/4+x,-y,3/4+z
x,1/2+y,1/2+z
1/4-x,3/4-y,1/2+z
x,3/4-y,3/4-z
1/4-x,1/2+y,3/4-z
-x,1/2-y,1/2-z
3/4+x,1/4+y,1/2-z
-x,1/4+y,1/4+z
3/4+x,1/2-y,1/4+z
1/2+x,y,1/2+z
3/4-x,1/4-y,1/2+z
1/2+x,1/4-y,3/4-z
3/4-x,y,3/4-z
1/2-x,-y,1/2-z
1/4+x,3/4+y,1/2-z
1/2-x,3/4+y,1/4+z
1/4+x,-y,1/4+z
1/2+x,1/2+y,z
3/4-x,3/4-y,z
1/2+x,3/4-y,1/4-z
3/4-x,1/2+y,1/4-z
1/2-x,1/2-y,-z
1/4+x,1/4+y,-z
1/2-x,1/4+y,3/4+z
1/4+x,1/2-y,3/4+z
loop_
_atom_site_type_symbol
_atom_site_label
_atom_site_fract_x
_atom_site_fract_y
_atom_site_fract_z
Si Si1 0.649193 0.968180 0.520024
Si Si2 0.738186 0.682286 0.778579
Si Si3 0.473428 0.051882 0.760366
Si Si4 0.127780 0.844935 0.004660
Si Si5 0.484082 0.185853 0.266359
Si Si6 0.154393 0.177691 0.937241
Si Si7 0.543961 0.125000 0.625000
O O1 0.625000 0.979874 0.625000
O O2 0.704891 0.949712 0.542052
O O3 0.626319 0.910663 0.478465
O O4 0.633902 0.021266 0.453214
O O5 0.723071 0.735620 0.713384
O O6 0.736003 0.619593 0.733581
O O7 0.702316 0.689075 0.872044
O O8 0.420440 0.065088 0.720015
O O9 0.482438 0.079190 0.866648
O O10 0.511704 0.078308 0.683609
O O11 0.125000 0.841788 0.125000
O O12 0.179457 0.819560 0.974846
O O13 0.500000 0.250000 0.250000
O O14 0.125000 0.125000 0.892179
O O15 0.174265 0.156853 0.043214
#
# Coordination Sequence:
#
# PCOD9515432 Si02
#       7
#    32  32  32  32  32  32  16
#     4  10  21  39  62  93 134 189 233 281 360 438
#     4  11  25  43  68 103 140 188 243 300 365 445
#     4  11  23  41  66 103 136 183 238 286 370 432
#     4   8  19  40  63  92 127 171 228 289 348 427
#     4  10  22  46  73  92 136 183 236 307 363 425
#     4  12  25  42  65 101 147 193 237 299 369 448
#     4  12  25  40  66 100 150 186 232 290 371 450
#
# _framework density 23.559467999999999
#
# number of rings (size 3 to 8) (size 9 to 14) (size 15 to 20)
#    0.000    1.538    1.538    3.923    2.154    3.077 
#    0.000    0.000    0.000    2.769    0.000    0.000 
#    0.000    0.000    0.000    0.000    0.000    0.000 
#
# Total GULP energy -290468.860955 kJ/mol
# GULP energy per Si atom -5585.939634 kJ/mol
# Density = 2.350585 g / cm^3
# Si number density = 23.559468 Si / 1000 Ang^3
#
#
#
# Elastic Constant Matrix: (Units=GPa)
#
#
# Indices 1 2 3 4 5 6 
#
# 1 105.5828 59.4261 23.1978 0.0000 0.0000 0.0000
# 2 59.4261 191.7332 0.5035 0.0000 0.0000 0.0000
# 3 23.1978 0.5035 82.4122 0.0000 0.0000 0.0000
# 4 0.0000 0.0000 0.0000 27.1512 0.0000 0.0000
# 5 0.0000 0.0000 0.0000 0.0000 31.0884 0.0000
# 6 0.0000 0.0000 0.0000 0.0000 0.0000 29.5711
#
#
#
# Elastic Compliance Matrix: (Units=1/GPa)
#
#
# Indices 1 2 3 4 5 6 
#
# 1 0.012388 -0.003831 -0.003464 0.000000 0.000000 0.000000
# 2 -0.003831 0.006400 0.001039 0.000000 0.000000 0.000000
# 3 -0.003464 0.001039 0.013103 0.000000 0.000000 0.000000
# 4 0.000000 0.000000 0.000000 0.036831 0.000000 0.000000
# 5 0.000000 0.000000 0.000000 0.000000 0.032166 0.000000
# 6 0.000000 0.000000 0.000000 0.000000 0.000000 0.033817
#
#
# Mechanical properties :
#
#
# Convention : Reuss Voigt Hill
#
# Bulk Modulus (GPa) = 51.59722 60.66478 56.13100
# Shear Modulus (GPa) = 32.53610 37.33552 34.93581
#
# Velocity S-wave (km/s) = 3.72024 3.98519 3.85499
# Velocity P-wave (km/s) = 6.35625 6.85428 6.60996
#
# Compressibility (1/GPa) = 0.01938089
#
# Stress axis : x y z
#
# Youngs Moduli (GPa) = 80.72175 156.24769 76.31975
#
# Poissons Ratio (x) = 0.59851 0.26435
# Poissons Ratio (y) = 0.30921 -0.07931
# Poissons Ratio (z) = 0.27960 -0.16236
#
# Static dielectric constant tensor:
#      x y z
#    x 1.883330 0.000000 0.000000 
#    y 0.000000 1.918150 0.000000 
#    z 0.000000 0.000000 2.522960 
# 
# From -- ./inp_files/38868.got.cif
#   From: 2010.05.17/outbox.cif.g08.bks.cpg/sg70_20_cif.got.tgz:38868.got - 2010.06.03 15:57:51.
