data_PCOD9515426
_publ_section_title
;
Structure prediction by ZEFSAII (Michael W. Deem and Ramdas Pophale) SiO2 
 PCOD9515426
Probable space group: F D D D
;
_chemical_formula_sum "Si O2"
_cell_formula_units_Z 96
_cell_length_a 22.485738
_cell_length_b 7.955575
_cell_length_c 20.382342
_cell_angle_alpha 90.000000
_cell_angle_beta 90.000000
_cell_angle_gamma 90.000000
_cell_volume 3646.135506
_symmetry_space_group_name_H-M "F D D D"
_symmetry_group_IT_number 70
_space_group.IT_coordinate_system_code '2'
_symmetry_cell_setting 'orthorhombic'
loop_
_space_group_symop_operation_xyz
x,y,z
1/4-x,1/4-y,z
x,1/4-y,1/4-z
1/4-x,y,1/4-z
-x,-y,-z
3/4+x,3/4+y,-z
-x,3/4+y,3/4+z
3/4+x,-y,3/4+z
x,1/2+y,1/2+z
1/4-x,3/4-y,1/2+z
x,3/4-y,3/4-z
1/4-x,1/2+y,3/4-z
-x,1/2-y,1/2-z
3/4+x,1/4+y,1/2-z
-x,1/4+y,1/4+z
3/4+x,1/2-y,1/4+z
1/2+x,y,1/2+z
3/4-x,1/4-y,1/2+z
1/2+x,1/4-y,3/4-z
3/4-x,y,3/4-z
1/2-x,-y,1/2-z
1/4+x,3/4+y,1/2-z
1/2-x,3/4+y,1/4+z
1/4+x,-y,1/4+z
1/2+x,1/2+y,z
3/4-x,3/4-y,z
1/2+x,3/4-y,1/4-z
3/4-x,1/2+y,1/4-z
1/2-x,1/2-y,-z
1/4+x,1/4+y,-z
1/2-x,1/4+y,3/4+z
1/4+x,1/2-y,3/4+z
loop_
_atom_site_type_symbol
_atom_site_label
_atom_site_fract_x
_atom_site_fract_y
_atom_site_fract_z
Si Si1 0.714951 0.633311 0.909857
Si Si2 0.813369 0.018669 0.217878
Si Si3 0.660063 0.952552 0.714972
O O1 0.688131 0.629151 0.836872
O O2 0.693558 0.452378 0.935149
O O3 0.786247 0.657471 0.915489
O O4 0.689380 0.760907 0.963463
O O5 0.864478 0.051738 0.271264
O O6 0.750000 0.000000 0.250000
O O7 0.625000 0.125000 0.697601
#
# Coordination Sequence:
#
# PCOD9515426 Si02
#       3
#    32  32  32
#     4   9  20  42  62  91 129 162 217 268 320 397
#     4  10  21  39  61  96 124 167 211 262 332 385
#     4   9  19  41  65  91 128 169 218 266 329 390
#
# _framework density 26.329246999999999
#
# number of rings (size 3 to 8) (size 9 to 14) (size 15 to 20)
#    0.000    2.667    0.000    0.000    0.000    2.667 
#   36.000   21.667    0.000    0.000    0.000    0.000 
#    0.000    0.000    0.000    0.000    0.000    0.000 
#
# Total GULP energy -134131.133092 kJ/mol
# GULP energy per Si atom -5588.797212 kJ/mol
# Density = 2.626932 g / cm^3
# Si number density = 26.329247 Si / 1000 Ang^3
#
#
#
# Elastic Constant Matrix: (Units=GPa)
#
#
# Indices 1 2 3 4 5 6 
#
# 1 227.9135 26.3042 56.2300 0.0000 0.0000 0.0000
# 2 26.3042 128.6471 19.3927 0.0000 0.0000 0.0000
# 3 56.2300 19.3927 90.4871 0.0000 0.0000 0.0000
# 4 0.0000 0.0000 0.0000 18.8409 0.0000 0.0000
# 5 0.0000 0.0000 0.0000 0.0000 20.9600 0.0000
# 6 0.0000 0.0000 0.0000 0.0000 0.0000 49.9267
#
#
#
# Elastic Compliance Matrix: (Units=1/GPa)
#
#
# Indices 1 2 3 4 5 6 
#
# 1 0.005226 -0.000598 -0.003119 0.000000 0.000000 0.000000
# 2 -0.000598 0.008101 -0.001364 0.000000 0.000000 0.000000
# 3 -0.003119 -0.001364 0.013282 0.000000 0.000000 0.000000
# 4 0.000000 0.000000 0.000000 0.053076 0.000000 0.000000
# 5 0.000000 0.000000 0.000000 0.000000 0.047710 0.000000
# 6 0.000000 0.000000 0.000000 0.000000 0.000000 0.020029
#
#
# Mechanical properties :
#
#
# Convention : Reuss Voigt Hill
#
# Bulk Modulus (GPa) = 60.80767 72.32239 66.56503
# Shear Modulus (GPa) = 30.66147 40.95359 35.80753
#
# Velocity S-wave (km/s) = 3.41624 3.94819 3.69181
# Velocity P-wave (km/s) = 6.22143 6.95071 6.59615
#
# Compressibility (1/GPa) = 0.01644529
#
# Stress axis : x y z
#
# Youngs Moduli (GPa) = 191.33955 123.43818 75.28881
#
# Poissons Ratio (x) = 0.07386 0.23486
# Poissons Ratio (y) = 0.11449 0.10272
# Poissons Ratio (z) = 0.59688 0.16842
#
# Static dielectric constant tensor:
#      x y z
#    x 1.913120 0.000000 0.000000 
#    y 0.000000 2.067540 0.000000 
#    z 0.000000 0.000000 2.093040 
# 
# From -- ./inp_files/51824.got.cif
#   From: 2010.05.17/outbox.cif.g08.bks.cpg/sg70_26_cif.got.tgz:51824.got - 2010.06.03 15:57:51.
