data_PCOD9515089
_publ_section_title
;
Structure prediction by ZEFSAII (Michael W. Deem and Ramdas Pophale) SiO2 
 PCOD9515089
Probable space group: F D D D
;
_chemical_formula_sum "Si O2"
_cell_formula_units_Z 176
_cell_length_a 15.109588
_cell_length_b 20.949260
_cell_length_c 28.212597
_cell_angle_alpha 90.000000
_cell_angle_beta 90.000000
_cell_angle_gamma 90.000000
_cell_volume 8930.265575
_symmetry_space_group_name_H-M "F D D D"
_symmetry_group_IT_number 70
_space_group.IT_coordinate_system_code '2'
_symmetry_cell_setting 'orthorhombic'
loop_
_space_group_symop_operation_xyz
x,y,z
1/4-x,1/4-y,z
x,1/4-y,1/4-z
1/4-x,y,1/4-z
-x,-y,-z
3/4+x,3/4+y,-z
-x,3/4+y,3/4+z
3/4+x,-y,3/4+z
x,1/2+y,1/2+z
1/4-x,3/4-y,1/2+z
x,3/4-y,3/4-z
1/4-x,1/2+y,3/4-z
-x,1/2-y,1/2-z
3/4+x,1/4+y,1/2-z
-x,1/4+y,1/4+z
3/4+x,1/2-y,1/4+z
1/2+x,y,1/2+z
3/4-x,1/4-y,1/2+z
1/2+x,1/4-y,3/4-z
3/4-x,y,3/4-z
1/2-x,-y,1/2-z
1/4+x,3/4+y,1/2-z
1/2-x,3/4+y,1/4+z
1/4+x,-y,1/4+z
1/2+x,1/2+y,z
3/4-x,3/4-y,z
1/2+x,3/4-y,1/4-z
3/4-x,1/2+y,1/4-z
1/2-x,1/2-y,-z
1/4+x,1/4+y,-z
1/2-x,1/4+y,3/4+z
1/4+x,1/2-y,3/4+z
loop_
_atom_site_type_symbol
_atom_site_label
_atom_site_fract_x
_atom_site_fract_y
_atom_site_fract_z
Si Si1 0.167137 0.399078 0.734259
Si Si2 0.020732 0.137787 0.072306
Si Si3 0.252926 0.465331 0.545885
Si Si4 0.625000 0.978750 0.125000
Si Si5 0.651823 0.252125 0.020808
Si Si6 0.519717 0.131074 0.859862
O O1 0.223232 0.403346 0.781975
O O2 0.083308 0.444784 0.733094
O O3 0.131132 0.326037 0.731040
O O4 0.226026 0.410480 0.687416
O O5 0.125000 0.125000 0.071222
O O6 0.986514 0.125000 0.125000
O O7 0.005348 0.211546 0.060849
O O8 0.338840 0.460593 0.512914
O O9 0.256252 0.422898 0.593068
O O10 0.608288 0.016027 0.076080
O O11 0.537819 0.933463 0.131532
O O12 0.750000 0.250000 0.000000
O O13 0.625000 0.125000 0.852758
#
# Coordination Sequence:
#
# PCOD9515089 Si02
#       6
#    32  32  32  16  32  32
#     4  10  22  41  59  93 123 159 219 257 306 400
#     4  10  24  42  58  88 130 167 206 260 327 381
#     4  11  22  39  65  92 124 167 207 266 323 369
#     4  10  20  40  58  93 131 156 224 268 294 416
#     4  10  21  39  63  92 129 161 209 269 325 376
#     4  11  20  36  67  93 121 160 215 264 317 367
#
# _framework density 19.708259999999999
#
# number of rings (size 3 to 8) (size 9 to 14) (size 15 to 20)
#    0.000    1.636    3.636    1.636    5.091    0.727 
#   16.364    0.000    0.000    1.091    0.000    0.000 
#    0.000    0.000    0.000    0.000    0.000    0.000 
#
# Total GULP energy -245778.623480 kJ/mol
# GULP energy per Si atom -5585.877806 kJ/mol
# Density = 1.966340 g / cm^3
# Si number density = 19.708260 Si / 1000 Ang^3
#
#
#
# Elastic Constant Matrix: (Units=GPa)
#
#
# Indices 1 2 3 4 5 6 
#
# 1 146.7359 13.9914 79.6408 0.0000 0.0000 0.0000
# 2 13.9914 26.3295 28.7308 0.0000 0.0000 0.0000
# 3 79.6408 28.7308 203.3159 0.0000 0.0000 0.0000
# 4 0.0000 0.0000 0.0000 27.8961 0.0000 0.0000
# 5 0.0000 0.0000 0.0000 0.0000 40.8313 0.0000
# 6 0.0000 0.0000 0.0000 0.0000 0.0000 7.4249
#
#
#
# Elastic Compliance Matrix: (Units=1/GPa)
#
#
# Indices 1 2 3 4 5 6 
#
# 1 0.008680 -0.001067 -0.003249 0.000000 0.000000 0.000000
# 2 -0.001067 0.045036 -0.005946 0.000000 0.000000 0.000000
# 3 -0.003249 -0.005946 0.007032 0.000000 0.000000 0.000000
# 4 0.000000 0.000000 0.000000 0.035847 0.000000 0.000000
# 5 0.000000 0.000000 0.000000 0.000000 0.024491 0.000000
# 6 0.000000 0.000000 0.000000 0.000000 0.000000 0.134682
#
#
# Mechanical properties :
#
#
# Convention : Reuss Voigt Hill
#
# Bulk Modulus (GPa) = 24.86168 69.01190 46.93679
# Shear Modulus (GPa) = 17.25924 32.16503 24.71213
#
# Velocity S-wave (km/s) = 2.96249 4.04426 3.54488
# Velocity P-wave (km/s) = 4.93397 7.54326 6.37357
#
# Compressibility (1/GPa) = 0.04022254
#
# Stress axis : x y z
#
# Youngs Moduli (GPa) = 115.20335 22.20469 142.21681
#
# Poissons Ratio (x) = 0.02369 0.46212
# Poissons Ratio (y) = 0.12291 0.84563
# Poissons Ratio (z) = 0.37434 0.13203
#
# Static dielectric constant tensor:
#      x y z
#    x 1.677350 0.000000 0.000000 
#    y 0.000000 1.694000 0.000000 
#    z 0.000000 0.000000 1.710350 
# 
# From -- ./inp_files/58585.got.cif
#   From: 2010.05.17/outbox.cif.g08.bks.cpg/sg70_30_cif.got.tgz:58585.got - 2010.06.03 15:57:51.
