data_PCOD9515529
_publ_section_title
;
Structure prediction by ZEFSAII (Michael W. Deem and Ramdas Pophale) SiO2 
 PCOD9515529
Probable space group: F D D D
;
_chemical_formula_sum "Si O2"
_cell_formula_units_Z 240
_cell_length_a 20.508287
_cell_length_b 18.194589
_cell_length_c 29.266204
_cell_angle_alpha 90.000000
_cell_angle_beta 90.000000
_cell_angle_gamma 90.000000
_cell_volume 10920.387060
_symmetry_space_group_name_H-M "F D D D"
_symmetry_group_IT_number 70
_space_group.IT_coordinate_system_code '2'
_symmetry_cell_setting 'orthorhombic'
loop_
_space_group_symop_operation_xyz
x,y,z
1/4-x,1/4-y,z
x,1/4-y,1/4-z
1/4-x,y,1/4-z
-x,-y,-z
3/4+x,3/4+y,-z
-x,3/4+y,3/4+z
3/4+x,-y,3/4+z
x,1/2+y,1/2+z
1/4-x,3/4-y,1/2+z
x,3/4-y,3/4-z
1/4-x,1/2+y,3/4-z
-x,1/2-y,1/2-z
3/4+x,1/4+y,1/2-z
-x,1/4+y,1/4+z
3/4+x,1/2-y,1/4+z
1/2+x,y,1/2+z
3/4-x,1/4-y,1/2+z
1/2+x,1/4-y,3/4-z
3/4-x,y,3/4-z
1/2-x,-y,1/2-z
1/4+x,3/4+y,1/2-z
1/2-x,3/4+y,1/4+z
1/4+x,-y,1/4+z
1/2+x,1/2+y,z
3/4-x,3/4-y,z
1/2+x,3/4-y,1/4-z
3/4-x,1/2+y,1/4-z
1/2-x,1/2-y,-z
1/4+x,1/4+y,-z
1/2-x,1/4+y,3/4+z
1/4+x,1/2-y,3/4+z
loop_
_atom_site_type_symbol
_atom_site_label
_atom_site_fract_x
_atom_site_fract_y
_atom_site_fract_z
Si Si1 0.079213 0.041175 0.434193
Si Si2 0.795594 0.289180 0.920281
Si Si3 0.810819 0.995209 0.713816
Si Si4 0.408830 0.483136 0.790523
Si Si5 0.537137 0.661130 0.173640
Si Si6 0.438599 0.964246 0.817479
Si Si7 0.125000 0.125000 0.903449
Si Si8 0.284144 0.447215 0.531554
O O1 0.088107 0.070908 0.382214
O O2 0.055016 0.112020 0.463653
O O3 0.151187 0.015012 0.448267
O O4 0.022952 0.982694 0.440802
O O5 0.793332 0.259252 0.867990
O O6 0.804977 0.376451 0.924317
O O7 0.863710 0.261344 0.940957
O O8 0.876116 0.007147 0.742898
O O9 0.825530 0.921570 0.685019
O O10 0.750000 0.000000 0.750000
O O11 0.784802 0.056995 0.679642
O O12 0.443725 0.402727 0.790070
O O13 0.344725 0.471219 0.821565
O O14 0.466174 0.536825 0.806334
O O15 0.543261 0.625000 0.125000
O O16 0.475175 0.975946 0.770098
#
# Coordination Sequence:
#
# PCOD9515529 Si02
#       8
#    32  32  32  32  32  32  16  32
#     4  10  23  39  59  92 128 168 207 255 327 376
#     4   9  18  39  61  87 117 165 209 258 321 371
#     4  10  21  41  66  93 123 166 208 256 328 378
#     4  10  21  41  61  92 127 159 212 264 316 370
#     4  10  22  41  70  92 123 168 215 264 318 379
#     4   9  19  36  62  85 120 160 211 265 311 378
#     4  10  22  40  64  86 135 159 192 274 306 380
#     4  10  22  39  59  88 127 169 208 259 320 380
#
# _framework density 21.977243000000001
#
# number of rings (size 3 to 8) (size 9 to 14) (size 15 to 20)
#    0.000    2.400    0.000    4.800    5.600    2.133 
#    4.800    4.000    0.000    0.000    0.000    0.000 
#    0.000    0.000    0.000    0.000    0.000    0.000 
#
# Total GULP energy -334024.246731 kJ/mol
# GULP energy per Si atom -5567.070779 kJ/mol
# Density = 2.192722 g / cm^3
# Si number density = 21.977243 Si / 1000 Ang^3
#
#
#
# Elastic Constant Matrix: (Units=GPa)
#
#
# Indices 1 2 3 4 5 6 
#
# 1 162.6589 50.8221 41.0562 0.0000 0.0000 0.0000
# 2 50.8221 27.8634 14.3710 0.0000 0.0000 0.0000
# 3 41.0562 14.3710 87.4794 0.0000 0.0000 0.0000
# 4 0.0000 0.0000 0.0000 10.4084 0.0000 0.0000
# 5 0.0000 0.0000 0.0000 0.0000 16.2373 0.0000
# 6 0.0000 0.0000 0.0000 0.0000 0.0000 48.8455
#
#
#
# Elastic Compliance Matrix: (Units=1/GPa)
#
#
# Indices 1 2 3 4 5 6 
#
# 1 0.014879 -0.025716 -0.002758 0.000000 0.000000 0.000000
# 2 -0.025716 0.083658 -0.001674 0.000000 0.000000 0.000000
# 3 -0.002758 -0.001674 0.013001 0.000000 0.000000 0.000000
# 4 0.000000 0.000000 0.000000 0.096076 0.000000 0.000000
# 5 0.000000 0.000000 0.000000 0.000000 0.061587 0.000000
# 6 0.000000 0.000000 0.000000 0.000000 0.000000 0.020473
#
#
# Mechanical properties :
#
#
# Convention : Reuss Voigt Hill
#
# Bulk Modulus (GPa) = 19.51566 54.50004 37.00785
# Shear Modulus (GPa) = 13.62208 26.54840 20.08524
#
# Velocity S-wave (km/s) = 2.49233 3.47939 3.02638
# Velocity P-wave (km/s) = 4.14506 6.40264 5.39330
#
# Compressibility (1/GPa) = 0.05124090
#
# Stress axis : x y z
#
# Youngs Moduli (GPa) = 67.20877 11.95337 76.91781
#
# Poissons Ratio (x) = 0.30740 0.21218
# Poissons Ratio (y) = 1.72835 0.12876
# Poissons Ratio (z) = 0.18539 0.02001
#
# Static dielectric constant tensor:
#      x y z
#    x 1.840180 0.000000 0.000000 
#    y 0.000000 1.865350 0.000000 
#    z 0.000000 0.000000 1.924090 
# 
# From -- ./inp_files/67395.got.cif
#   From: 2010.05.17/outbox.cif.g08.bks.cpg/sg70_34_cif.got.tgz:67395.got - 2010.06.03 15:57:51.
