data_PCOD9515492
_publ_section_title
;
Structure prediction by ZEFSAII (Michael W. Deem and Ramdas Pophale) SiO2 
 PCOD9515492
Probable space group: F D D D
;
_chemical_formula_sum "Si O2"
_cell_formula_units_Z 144
_cell_length_a 30.395671
_cell_length_b 17.719830
_cell_length_c 12.637843
_cell_angle_alpha 90.000000
_cell_angle_beta 90.000000
_cell_angle_gamma 90.000000
_cell_volume 6806.819619
_symmetry_space_group_name_H-M "F D D D"
_symmetry_group_IT_number 70
_space_group.IT_coordinate_system_code '2'
_symmetry_cell_setting 'orthorhombic'
loop_
_space_group_symop_operation_xyz
x,y,z
1/4-x,1/4-y,z
x,1/4-y,1/4-z
1/4-x,y,1/4-z
-x,-y,-z
3/4+x,3/4+y,-z
-x,3/4+y,3/4+z
3/4+x,-y,3/4+z
x,1/2+y,1/2+z
1/4-x,3/4-y,1/2+z
x,3/4-y,3/4-z
1/4-x,1/2+y,3/4-z
-x,1/2-y,1/2-z
3/4+x,1/4+y,1/2-z
-x,1/4+y,1/4+z
3/4+x,1/2-y,1/4+z
1/2+x,y,1/2+z
3/4-x,1/4-y,1/2+z
1/2+x,1/4-y,3/4-z
3/4-x,y,3/4-z
1/2-x,-y,1/2-z
1/4+x,3/4+y,1/2-z
1/2-x,3/4+y,1/4+z
1/4+x,-y,1/4+z
1/2+x,1/2+y,z
3/4-x,3/4-y,z
1/2+x,3/4-y,1/4-z
3/4-x,1/2+y,1/4-z
1/2-x,1/2-y,-z
1/4+x,1/4+y,-z
1/2-x,1/4+y,3/4+z
1/4+x,1/2-y,3/4+z
loop_
_atom_site_type_symbol
_atom_site_label
_atom_site_fract_x
_atom_site_fract_y
_atom_site_fract_z
Si Si1 0.306338 0.946253 0.308559
Si Si2 0.729219 0.538129 0.412425
Si Si3 0.301424 0.149611 0.503557
Si Si4 0.822181 0.964254 0.378591
Si Si5 0.625000 0.931685 0.625000
O O1 0.322244 0.875000 0.375000
O O2 0.298829 0.930632 0.185490
O O3 0.260732 0.973209 0.363944
O O4 0.340367 0.014543 0.316882
O O5 0.761713 0.604190 0.449800
O O6 0.699764 0.509956 0.510509
O O7 0.299889 0.125000 0.625000
O O8 0.301788 0.236878 0.467254
O O9 0.346782 0.117815 0.455046
O O10 0.812766 0.875000 0.375000
O O11 0.875000 0.972259 0.375000
#
# Coordination Sequence:
#
# PCOD9515492 Si02
#       5
#    32  32  32  32  16
#     4  10  21  40  64  98 129 176 222 284 347 415
#     4  10  23  41  67  94 135 175 226 283 349 418
#     4  11  24  43  69  97 133 182 230 285 347 427
#     4  11  25  44  66 101 136 183 232 286 354 418
#     4  10  23  38  61  96 128 168 224 282 347 406
#
# _framework density 21.155253999999999
#
# number of rings (size 3 to 8) (size 9 to 14) (size 15 to 20)
#    0.000    1.556    1.111    2.333    3.111    7.111 
#    4.000    0.000    0.000    0.000    0.000    0.000 
#    0.000    0.000    0.000    0.000    0.000    0.000 
#
# Total GULP energy -201193.476964 kJ/mol
# GULP energy per Si atom -5588.707693 kJ/mol
# Density = 2.110710 g / cm^3
# Si number density = 21.155254 Si / 1000 Ang^3
#
#
#
# Elastic Constant Matrix: (Units=GPa)
#
#
# Indices 1 2 3 4 5 6 
#
# 1 89.0057 14.9303 47.6498 0.0000 0.0000 0.0000
# 2 14.9303 114.1913 55.5525 0.0000 0.0000 0.0000
# 3 47.6498 55.5525 158.9655 0.0000 0.0000 0.0000
# 4 0.0000 0.0000 0.0000 28.1777 0.0000 0.0000
# 5 0.0000 0.0000 0.0000 0.0000 20.0160 0.0000
# 6 0.0000 0.0000 0.0000 0.0000 0.0000 -9.4061
#
#
#
# Elastic Compliance Matrix: (Units=1/GPa)
#
#
# Indices 1 2 3 4 5 6 
#
# 1 0.013388 0.000243 -0.004098 0.000000 0.000000 0.000000
# 2 0.000243 0.010555 -0.003762 0.000000 0.000000 0.000000
# 3 -0.004098 -0.003762 0.008834 0.000000 0.000000 0.000000
# 4 0.000000 0.000000 0.000000 0.035489 0.000000 0.000000
# 5 0.000000 0.000000 0.000000 0.000000 0.049960 0.000000
# 6 0.000000 0.000000 0.000000 0.000000 0.000000 -0.106314
#
#
# Mechanical properties :
#
#
# Convention : Reuss Voigt Hill
#
# Bulk Modulus (GPa) = 56.99858 66.49197 61.74528
# Shear Modulus (GPa) = 151.54380 24.02619 87.78499
#
# Velocity S-wave (km/s) = 8.47288 3.37368 6.44870
# Velocity P-wave (km/s) = 11.07795 6.83186 9.20313
#
# Compressibility (1/GPa) = 0.01754430
#
# Stress axis : x y z
#
# Youngs Moduli (GPa) = 74.69145 94.73814 113.20368
#
# Poissons Ratio (x) = -0.02304 0.46393
# Poissons Ratio (y) = -0.01816 0.42583
# Poissons Ratio (z) = 0.30610 0.35637
#
# Static dielectric constant tensor:
#      x y z
#    x 1.772200 0.000000 0.000000 
#    y 0.000000 1.777600 0.000000 
#    z 0.000000 0.000000 1.731500 
# 
# From -- ./inp_files/30837.got.cif
#   From: 2010.05.17/outbox.cif.g08.bks.cpg/sg70_16_cif.got.tgz:30837.got - 2010.06.03 15:57:51.
