data_PCOD9515493
_publ_section_title
;
Structure prediction by ZEFSAII (Michael W. Deem and Ramdas Pophale) SiO2 
 PCOD9515493
Probable space group: F D D D
;
_chemical_formula_sum "Si O2"
_cell_formula_units_Z 184
_cell_length_a 18.520701
_cell_length_b 19.886052
_cell_length_c 22.531999
_cell_angle_alpha 90.000000
_cell_angle_beta 90.000000
_cell_angle_gamma 90.000000
_cell_volume 8298.616869
_symmetry_space_group_name_H-M "F D D D"
_symmetry_group_IT_number 70
_space_group.IT_coordinate_system_code '2'
_symmetry_cell_setting 'orthorhombic'
loop_
_space_group_symop_operation_xyz
x,y,z
1/4-x,1/4-y,z
x,1/4-y,1/4-z
1/4-x,y,1/4-z
-x,-y,-z
3/4+x,3/4+y,-z
-x,3/4+y,3/4+z
3/4+x,-y,3/4+z
x,1/2+y,1/2+z
1/4-x,3/4-y,1/2+z
x,3/4-y,3/4-z
1/4-x,1/2+y,3/4-z
-x,1/2-y,1/2-z
3/4+x,1/4+y,1/2-z
-x,1/4+y,1/4+z
3/4+x,1/2-y,1/4+z
1/2+x,y,1/2+z
3/4-x,1/4-y,1/2+z
1/2+x,1/4-y,3/4-z
3/4-x,y,3/4-z
1/2-x,-y,1/2-z
1/4+x,3/4+y,1/2-z
1/2-x,3/4+y,1/4+z
1/4+x,-y,1/4+z
1/2+x,1/2+y,z
3/4-x,3/4-y,z
1/2+x,3/4-y,1/4-z
3/4-x,1/2+y,1/4-z
1/2-x,1/2-y,-z
1/4+x,1/4+y,-z
1/2-x,1/4+y,3/4+z
1/4+x,1/2-y,3/4+z
loop_
_atom_site_type_symbol
_atom_site_label
_atom_site_fract_x
_atom_site_fract_y
_atom_site_fract_z
Si Si1 0.875000 0.188753 0.875000
Si Si2 0.611144 0.509558 0.837399
Si Si3 0.716410 0.353496 0.530980
Si Si4 0.251888 0.209017 0.084067
Si Si5 0.761566 0.463604 0.813131
Si Si6 0.375000 0.375000 0.875000
Si Si7 0.625000 0.625000 0.739282
Si Si8 0.875000 0.875000 0.064361
O O1 0.909047 0.145681 0.929915
O O2 0.810930 0.236260 0.898490
O O3 0.540273 0.467205 0.852495
O O4 0.680527 0.461648 0.836611
O O5 0.607521 0.559939 0.780740
O O6 0.619454 0.560560 0.892501
O O7 0.698597 0.329460 0.464202
O O8 0.729408 0.282791 0.563459
O O9 0.797767 0.384331 0.532183
O O10 0.177597 0.170403 0.087442
O O11 0.750000 0.500000 0.750000
O O12 0.806587 0.396341 0.800201
#
# Coordination Sequence:
#
# PCOD9515493 Si02
#       8
#    16  32  32  32  32   8  16  16
#     4  12  23  41  70  97 135 178 220 276 330 392
#     4   9  18  39  67  93 128 178 210 272 328 394
#     4  10  21  40  65 100 124 178 221 268 323 405
#     4  10  23  39  66  94 133 169 226 265 338 379
#     4  10  22  41  66 100 130 177 222 267 337 402
#     4  12  24  44  62  96 134 168 212 300 312 398
#     4   9  20  39  67  99 134 169 220 272 329 398
#     4   9  15  34  68  88 132 166 210 265 323 374
#
# _framework density 22.172369
#
# number of rings (size 3 to 8) (size 9 to 14) (size 15 to 20)
#    0.000    2.087    1.739    1.043    2.435    3.130 
#    0.000    6.957    0.000    0.000    0.000    0.000 
#    0.000    0.000    0.000    0.000    0.000    0.000 
#
# Total GULP energy -256576.061741 kJ/mol
# GULP energy per Si atom -5577.740473 kJ/mol
# Density = 2.212190 g / cm^3
# Si number density = 22.172369 Si / 1000 Ang^3
#
#
#
# Elastic Constant Matrix: (Units=GPa)
#
#
# Indices 1 2 3 4 5 6 
#
# 1 114.9372 50.7440 24.2804 0.0000 0.0000 0.0000
# 2 50.7440 82.2163 28.6959 0.0000 0.0000 0.0000
# 3 24.2804 28.6959 48.2878 0.0000 0.0000 0.0000
# 4 0.0000 0.0000 0.0000 24.0774 0.0000 0.0000
# 5 0.0000 0.0000 0.0000 0.0000 21.9362 0.0000
# 6 0.0000 0.0000 0.0000 0.0000 0.0000 46.3367
#
#
#
# Elastic Compliance Matrix: (Units=1/GPa)
#
#
# Indices 1 2 3 4 5 6 
#
# 1 0.012123 -0.006756 -0.002081 0.000000 0.000000 0.000000
# 2 -0.006756 0.019111 -0.007960 0.000000 0.000000 0.000000
# 3 -0.002081 -0.007960 0.026486 0.000000 0.000000 0.000000
# 4 0.000000 0.000000 0.000000 0.041533 0.000000 0.000000
# 5 0.000000 0.000000 0.000000 0.000000 0.045587 0.000000
# 6 0.000000 0.000000 0.000000 0.000000 0.000000 0.021581
#
#
# Mechanical properties :
#
#
# Convention : Reuss Voigt Hill
#
# Bulk Modulus (GPa) = 41.44886 50.32022 45.88454
# Shear Modulus (GPa) = 24.03201 27.91811 25.97506
#
# Velocity S-wave (km/s) = 3.29579 3.55229 3.42644
# Velocity P-wave (km/s) = 5.76346 6.29041 6.03269
#
# Compressibility (1/GPa) = 0.02412611
#
# Stress axis : x y z
#
# Youngs Moduli (GPa) = 82.49040 52.32572 37.75594
#
# Poissons Ratio (x) = 0.35350 0.07856
# Poissons Ratio (y) = 0.55729 0.30054
# Poissons Ratio (z) = 0.17165 0.41652
#
# Static dielectric constant tensor:
#      x y z
#    x 1.837200 0.000000 0.000000 
#    y 0.000000 1.857440 0.000000 
#    z 0.000000 0.000000 1.845890 
# 
# From -- ./inp_files/52297.got.cif
#   From: 2010.05.17/outbox.cif.g08.bks.cpg/sg70_27_cif.got.tgz:52297.got - 2010.06.03 15:57:51.
