data_PCOD9515755
_publ_section_title
;
Structure prediction by ZEFSAII (Michael W. Deem and Ramdas Pophale) SiO2 
 PCOD9515755
Probable space group: F D D D
;
_chemical_formula_sum "Si O2"
_cell_formula_units_Z 168
_cell_length_a 19.239316
_cell_length_b 22.156941
_cell_length_c 18.484646
_cell_angle_alpha 90.000000
_cell_angle_beta 90.000000
_cell_angle_gamma 90.000000
_cell_volume 7879.716035
_symmetry_space_group_name_H-M "F D D D"
_symmetry_group_IT_number 70
_space_group.IT_coordinate_system_code '2'
_symmetry_cell_setting 'orthorhombic'
loop_
_space_group_symop_operation_xyz
x,y,z
1/4-x,1/4-y,z
x,1/4-y,1/4-z
1/4-x,y,1/4-z
-x,-y,-z
3/4+x,3/4+y,-z
-x,3/4+y,3/4+z
3/4+x,-y,3/4+z
x,1/2+y,1/2+z
1/4-x,3/4-y,1/2+z
x,3/4-y,3/4-z
1/4-x,1/2+y,3/4-z
-x,1/2-y,1/2-z
3/4+x,1/4+y,1/2-z
-x,1/4+y,1/4+z
3/4+x,1/2-y,1/4+z
1/2+x,y,1/2+z
3/4-x,1/4-y,1/2+z
1/2+x,1/4-y,3/4-z
3/4-x,y,3/4-z
1/2-x,-y,1/2-z
1/4+x,3/4+y,1/2-z
1/2-x,3/4+y,1/4+z
1/4+x,-y,1/4+z
1/2+x,1/2+y,z
3/4-x,3/4-y,z
1/2+x,3/4-y,1/4-z
3/4-x,1/2+y,1/4-z
1/2-x,1/2-y,-z
1/4+x,1/4+y,-z
1/2-x,1/4+y,3/4+z
1/4+x,1/2-y,3/4+z
loop_
_atom_site_type_symbol
_atom_site_label
_atom_site_fract_x
_atom_site_fract_y
_atom_site_fract_z
Si Si1 0.260470 0.875000 0.875000
Si Si2 0.459269 0.928734 0.246288
Si Si3 0.951516 0.983697 0.177822
Si Si4 0.782393 0.694354 0.954722
Si Si5 0.625000 0.125000 0.243958
Si Si6 0.856628 0.036290 0.065863
Si Si7 0.625000 0.625000 0.125000
O O1 0.311762 0.894572 0.809552
O O2 0.209264 0.926124 0.907142
O O3 0.490265 0.866603 0.219571
O O4 0.422021 0.914971 0.322324
O O5 0.518033 0.978733 0.256184
O O6 0.406066 0.964583 0.196049
O O7 0.904076 0.929665 0.207303
O O8 0.015375 0.959568 0.128341
O O9 0.912122 0.034237 0.130297
O O10 0.750000 0.750000 0.000000
O O11 0.858248 0.689103 0.991845
#
# Coordination Sequence:
#
# PCOD9515755 Si02
#       7
#    16  32  32  32  16  32   8
#     4  11  24  45  66  91 136 185 240 294 332 383
#     4  12  22  38  62  99 125 183 207 259 359 388
#     4  11  22  41  67  96 134 174 225 280 340 416
#     4  10  22  39  63 100 137 168 215 277 345 422
#     4  11  24  45  66  91 136 185 240 294 332 383
#     4  11  22  41  67  96 134 174 225 280 340 416
#     4  12  20  32  60  96 144 156 212 268 336 454
#
# _framework density 21.320564999999998
#
# number of rings (size 3 to 8) (size 9 to 14) (size 15 to 20)
#    0.000    0.952    1.905    8.000    0.000    0.762 
#    0.000    0.000    4.190    0.000    0.000    0.000 
#    0.000    0.000    0.000    0.000    0.000    0.000 
#
# Total GULP energy -234461.666771 kJ/mol
# GULP energy per Si atom -5582.420637 kJ/mol
# Density = 2.127204 g / cm^3
# Si number density = 21.320565 Si / 1000 Ang^3
#
#
#
# Elastic Constant Matrix: (Units=GPa)
#
#
# Indices 1 2 3 4 5 6 
#
# 1 100.4977 34.8443 40.6642 0.0000 0.0000 0.0000
# 2 34.8443 115.3418 18.0754 0.0000 0.0000 0.0000
# 3 40.6642 18.0754 55.1411 0.0000 0.0000 0.0000
# 4 0.0000 0.0000 0.0000 33.2302 0.0000 0.0000
# 5 0.0000 0.0000 0.0000 0.0000 32.8045 0.0000
# 6 0.0000 0.0000 0.0000 0.0000 0.0000 41.4811
#
#
#
# Elastic Compliance Matrix: (Units=1/GPa)
#
#
# Indices 1 2 3 4 5 6 
#
# 1 0.015088 -0.002967 -0.010154 0.000000 0.000000 0.000000
# 2 -0.002967 0.009723 -0.000999 0.000000 0.000000 0.000000
# 3 -0.010154 -0.000999 0.025951 0.000000 0.000000 0.000000
# 4 0.000000 0.000000 0.000000 0.030093 0.000000 0.000000
# 5 0.000000 0.000000 0.000000 0.000000 0.030484 0.000000
# 6 0.000000 0.000000 0.000000 0.000000 0.000000 0.024107
#
#
# Mechanical properties :
#
#
# Convention : Reuss Voigt Hill
#
# Bulk Modulus (GPa) = 44.40231 50.90536 47.65384
# Shear Modulus (GPa) = 29.20684 33.32959 31.26822
#
# Velocity S-wave (km/s) = 3.70522 3.95810 3.83374
# Velocity P-wave (km/s) = 6.25908 6.69453 6.48046
#
# Compressibility (1/GPa) = 0.02252135
#
# Stress axis : x y z
#
# Youngs Moduli (GPa) = 66.27926 102.85195 38.53408
#
# Poissons Ratio (x) = 0.30513 0.39128
# Poissons Ratio (y) = 0.19663 0.03851
# Poissons Ratio (z) = 0.67300 0.10278
#
# Static dielectric constant tensor:
#      x y z
#    x 1.856480 0.000000 0.000000 
#    y 0.000000 1.786660 0.000000 
#    z 0.000000 0.000000 1.762350 
# 
# From -- ./inp_files/44852.got.cif
#   From: 2010.05.17/outbox.cif.g08.bks.cpg/sg70_23_cif.got.tgz:44852.got - 2010.06.03 15:57:51.
