data_PCOD9515650
_publ_section_title
;
Structure prediction by ZEFSAII (Michael W. Deem and Ramdas Pophale) SiO2 
 PCOD9515650
Probable space group: F D D D
;
_chemical_formula_sum "Si O2"
_cell_formula_units_Z 240
_cell_length_a 21.726992
_cell_length_b 16.561895
_cell_length_c 28.843707
_cell_angle_alpha 90.000000
_cell_angle_beta 90.000000
_cell_angle_gamma 90.000000
_cell_volume 10379.124147
_symmetry_space_group_name_H-M "F D D D"
_symmetry_group_IT_number 70
_space_group.IT_coordinate_system_code '2'
_symmetry_cell_setting 'orthorhombic'
loop_
_space_group_symop_operation_xyz
x,y,z
1/4-x,1/4-y,z
x,1/4-y,1/4-z
1/4-x,y,1/4-z
-x,-y,-z
3/4+x,3/4+y,-z
-x,3/4+y,3/4+z
3/4+x,-y,3/4+z
x,1/2+y,1/2+z
1/4-x,3/4-y,1/2+z
x,3/4-y,3/4-z
1/4-x,1/2+y,3/4-z
-x,1/2-y,1/2-z
3/4+x,1/4+y,1/2-z
-x,1/4+y,1/4+z
3/4+x,1/2-y,1/4+z
1/2+x,y,1/2+z
3/4-x,1/4-y,1/2+z
1/2+x,1/4-y,3/4-z
3/4-x,y,3/4-z
1/2-x,-y,1/2-z
1/4+x,3/4+y,1/2-z
1/2-x,3/4+y,1/4+z
1/4+x,-y,1/4+z
1/2+x,1/2+y,z
3/4-x,3/4-y,z
1/2+x,3/4-y,1/4-z
3/4-x,1/2+y,1/4-z
1/2-x,1/2-y,-z
1/4+x,1/4+y,-z
1/2-x,1/4+y,3/4+z
1/4+x,1/2-y,3/4+z
loop_
_atom_site_type_symbol
_atom_site_label
_atom_site_fract_x
_atom_site_fract_y
_atom_site_fract_z
Si Si1 0.418203 0.951101 0.971781
Si Si2 0.281593 0.225217 0.383992
Si Si3 0.203688 0.539018 0.714170
Si Si4 0.986571 0.080055 0.694995
Si Si5 0.059363 0.729435 0.527585
Si Si6 0.142759 0.030297 0.826784
Si Si7 0.380370 0.125000 0.125000
Si Si8 0.302549 0.544655 0.876003
O O1 0.375000 0.875000 0.962258
O O2 0.484727 0.906156 0.972081
O O3 0.423464 0.009220 0.927523
O O4 0.396063 0.984775 0.021203
O O5 0.280997 0.294587 0.345137
O O6 0.212055 0.225018 0.403453
O O7 0.293898 0.137628 0.363430
O O8 0.250000 0.500000 0.750000
O O9 0.133555 0.509642 0.724051
O O10 0.202532 0.635138 0.716314
O O11 0.224713 0.511738 0.663253
O O12 0.924166 0.101619 0.668319
O O13 0.972260 0.011353 0.731658
O O14 0.032839 0.777733 0.571607
O O15 0.125000 0.125000 0.833072
O O16 0.104592 0.960998 0.855000
O O17 0.375000 0.524802 0.875000
#
# Coordination Sequence:
#
# PCOD9515650 Si02
#       8
#    32  32  32  32  32  32  16  32
#     4  11  23  38  67  97 136 171 220 279 344 414
#     4  11  22  39  63  92 137 168 219 275 332 410
#     4  10  21  44  65  98 128 164 222 282 332 398
#     4  11  21  40  62  96 128 176 216 266 341 413
#     4  10  22  40  70  90 129 176 215 276 339 393
#     4  10  22  42  64  93 129 185 228 278 343 410
#     4  10  22  42  63  90 134 174 227 280 334 412
#     4  10  22  38  63  95 125 171 216 267 331 395
#
# _framework density 23.123339000000001
#
# number of rings (size 3 to 8) (size 9 to 14) (size 15 to 20)
#    0.000    1.600    2.667    2.400    3.733    2.133 
#   14.400    1.333    0.000    0.000    0.000    0.000 
#    0.000    0.000    0.000    0.000    0.000    0.000 
#
# Total GULP energy -335314.556606 kJ/mol
# GULP energy per Si atom -5588.575943 kJ/mol
# Density = 2.307071 g / cm^3
# Si number density = 23.123339 Si / 1000 Ang^3
#
#
#
# Elastic Constant Matrix: (Units=GPa)
#
#
# Indices 1 2 3 4 5 6 
#
# 1 39.5350 15.9047 19.2551 0.0000 0.0000 0.0000
# 2 15.9047 114.4378 59.1133 0.0000 0.0000 0.0000
# 3 19.2551 59.1133 128.2027 0.0000 0.0000 0.0000
# 4 0.0000 0.0000 0.0000 53.8219 0.0000 0.0000
# 5 0.0000 0.0000 0.0000 0.0000 -17.9989 0.0000
# 6 0.0000 0.0000 0.0000 0.0000 0.0000 36.9045
#
#
#
# Elastic Compliance Matrix: (Units=1/GPa)
#
#
# Indices 1 2 3 4 5 6 
#
# 1 0.027719 -0.002234 -0.003133 0.000000 0.000000 0.000000
# 2 -0.002234 0.011650 -0.005036 0.000000 0.000000 0.000000
# 3 -0.003133 -0.005036 0.010593 0.000000 0.000000 0.000000
# 4 0.000000 0.000000 0.000000 0.018580 0.000000 0.000000
# 5 0.000000 0.000000 0.000000 0.000000 -0.055559 0.000000
# 6 0.000000 0.000000 0.000000 0.000000 0.000000 0.027097
#
#
# Mechanical properties :
#
#
# Convention : Reuss Voigt Hill
#
# Bulk Modulus (GPa) = 34.29923 52.30240 43.30082
# Shear Modulus (GPa) = 70.81632 27.07233 48.94433
#
# Velocity S-wave (km/s) = 5.54003 3.42538 4.60571
# Velocity P-wave (km/s) = 7.46914 6.18969 6.85931
#
# Compressibility (1/GPa) = 0.02915517
#
# Stress axis : x y z
#
# Youngs Moduli (GPa) = 36.07675 85.83384 94.40240
#
# Poissons Ratio (x) = 0.19175 0.29577
# Poissons Ratio (y) = 0.08060 0.47545
# Poissons Ratio (z) = 0.11303 0.43229
#
# Static dielectric constant tensor:
#      x y z
#    x 1.938670 0.000000 0.000000 
#    y 0.000000 1.878830 0.000000 
#    z 0.000000 0.000000 1.903980 
# 
# From -- ./inp_files/61868.got.cif
#   From: 2010.05.17/outbox.cif.g08.bks.cpg/sg70_31_cif.got.tgz:61868.got - 2010.06.03 15:57:51.
