data_PCOD9515814
_publ_section_title
;
Structure prediction by ZEFSAII (Michael W. Deem and Ramdas Pophale) SiO2 
 PCOD9515814
Probable space group: F D D D
;
_chemical_formula_sum "Si O2"
_cell_formula_units_Z 160
_cell_length_a 29.512749
_cell_length_b 14.563147
_cell_length_c 15.263466
_cell_angle_alpha 90.000000
_cell_angle_beta 90.000000
_cell_angle_gamma 90.000000
_cell_volume 6560.214823
_symmetry_space_group_name_H-M "F D D D"
_symmetry_group_IT_number 70
_space_group.IT_coordinate_system_code '2'
_symmetry_cell_setting 'orthorhombic'
loop_
_space_group_symop_operation_xyz
x,y,z
1/4-x,1/4-y,z
x,1/4-y,1/4-z
1/4-x,y,1/4-z
-x,-y,-z
3/4+x,3/4+y,-z
-x,3/4+y,3/4+z
3/4+x,-y,3/4+z
x,1/2+y,1/2+z
1/4-x,3/4-y,1/2+z
x,3/4-y,3/4-z
1/4-x,1/2+y,3/4-z
-x,1/2-y,1/2-z
3/4+x,1/4+y,1/2-z
-x,1/4+y,1/4+z
3/4+x,1/2-y,1/4+z
1/2+x,y,1/2+z
3/4-x,1/4-y,1/2+z
1/2+x,1/4-y,3/4-z
3/4-x,y,3/4-z
1/2-x,-y,1/2-z
1/4+x,3/4+y,1/2-z
1/2-x,3/4+y,1/4+z
1/4+x,-y,1/4+z
1/2+x,1/2+y,z
3/4-x,3/4-y,z
1/2+x,3/4-y,1/4-z
3/4-x,1/2+y,1/4-z
1/2-x,1/2-y,-z
1/4+x,1/4+y,-z
1/2-x,1/4+y,3/4+z
1/4+x,1/2-y,3/4+z
loop_
_atom_site_type_symbol
_atom_site_label
_atom_site_fract_x
_atom_site_fract_y
_atom_site_fract_z
Si Si1 0.006370 0.003338 0.633469
Si Si2 0.494126 0.292207 0.586179
Si Si3 0.395129 0.014242 0.620308
Si Si4 0.159621 0.490000 0.549685
Si Si5 0.674350 0.471948 0.751400
O O1 0.002640 0.892064 0.628947
O O2 0.011965 0.041720 0.730463
O O3 0.049817 0.024584 0.574582
O O4 0.961249 0.034311 0.580848
O O5 0.448112 0.257547 0.630559
O O6 0.540732 0.233898 0.586006
O O7 0.391439 0.125000 0.625000
O O8 0.363857 0.978329 0.540681
O O9 0.370403 0.983721 0.709207
O O10 0.125000 0.511317 0.625000
O O11 0.163774 0.379803 0.534036
#
# Coordination Sequence:
#
# PCOD9515814 Si02
#       5
#    32  32  32  32  32
#     4  10  22  40  67  97 136 177 218 288 352 419
#     4  11  24  41  67 100 133 175 234 284 351 414
#     4  10  22  40  67  95 129 175 229 281 345 427
#     4  10  22  41  66  92 130 183 225 276 348 417
#     4   9  20  37  66  93 129 170 223 269 350 414
#
# _framework density 24.389446
#
# number of rings (size 3 to 8) (size 9 to 14) (size 15 to 20)
#    0.000    2.000    2.000    0.000   14.000    4.000 
#    0.000    0.000    4.400    0.000    0.000    0.000 
#    0.000    0.000    0.000    0.000    0.000    0.000 
#
# Total GULP energy -223376.176994 kJ/mol
# GULP energy per Si atom -5584.404425 kJ/mol
# Density = 2.433393 g / cm^3
# Si number density = 24.389446 Si / 1000 Ang^3
#
#
#
# Elastic Constant Matrix: (Units=GPa)
#
#
# Indices 1 2 3 4 5 6 
#
# 1 169.1031 8.4099 8.3817 0.0000 0.0000 0.0000
# 2 8.4099 82.6334 -2.0391 0.0000 0.0000 0.0000
# 3 8.3817 -2.0391 30.2618 0.0000 0.0000 0.0000
# 4 0.0000 0.0000 0.0000 7.2856 0.0000 0.0000
# 5 0.0000 0.0000 0.0000 0.0000 -43.1405 0.0000
# 6 0.0000 0.0000 0.0000 0.0000 0.0000 24.6563
#
#
#
# Elastic Compliance Matrix: (Units=1/GPa)
#
#
# Indices 1 2 3 4 5 6 
#
# 1 0.006031 -0.000656 -0.001715 0.000000 0.000000 0.000000
# 2 -0.000656 0.012193 0.001003 0.000000 0.000000 0.000000
# 3 -0.001715 0.001003 0.033587 0.000000 0.000000 0.000000
# 4 0.000000 0.000000 0.000000 0.137258 0.000000 0.000000
# 5 0.000000 0.000000 0.000000 0.000000 -0.023180 0.000000
# 6 0.000000 0.000000 0.000000 0.000000 0.000000 0.040558
#
#
# Mechanical properties :
#
#
# Convention : Reuss Voigt Hill
#
# Bulk Modulus (GPa) = 20.37620 34.61149 27.49384
# Shear Modulus (GPa) = 22.16894 15.57666 18.87280
#
# Velocity S-wave (km/s) = 3.01816 2.52992 2.78476
# Velocity P-wave (km/s) = 4.52972 4.77032 4.65158
#
# Compressibility (1/GPa) = 0.04907686
#
# Stress axis : x y z
#
# Youngs Moduli (GPa) = 165.80519 82.01308 29.77299
#
# Poissons Ratio (x) = 0.05381 0.05105
# Poissons Ratio (y) = 0.10879 -0.02987
# Poissons Ratio (z) = 0.28430 -0.08229
#
# Static dielectric constant tensor:
#      x y z
#    x 1.990980 0.000000 0.000000 
#    y 0.000000 1.970340 0.000000 
#    z 0.000000 0.000000 1.880780 
# 
# From -- ./inp_files/38453.got.cif
#   From: 2010.05.17/outbox.cif.g08.bks.cpg/sg70_20_cif.got.tgz:38453.got - 2010.06.03 15:57:51.
