data_PCOD9515454
_publ_section_title
;
Structure prediction by ZEFSAII (Michael W. Deem and Ramdas Pophale) SiO2 
 PCOD9515454
Probable space group: F D D D
;
_chemical_formula_sum "Si O2"
_cell_formula_units_Z 168
_cell_length_a 16.435585
_cell_length_b 16.781486
_cell_length_c 26.458351
_cell_angle_alpha 90.000000
_cell_angle_beta 90.000000
_cell_angle_gamma 90.000000
_cell_volume 7297.571441
_symmetry_space_group_name_H-M "F D D D"
_symmetry_group_IT_number 70
_space_group.IT_coordinate_system_code '2'
_symmetry_cell_setting 'orthorhombic'
loop_
_space_group_symop_operation_xyz
x,y,z
1/4-x,1/4-y,z
x,1/4-y,1/4-z
1/4-x,y,1/4-z
-x,-y,-z
3/4+x,3/4+y,-z
-x,3/4+y,3/4+z
3/4+x,-y,3/4+z
x,1/2+y,1/2+z
1/4-x,3/4-y,1/2+z
x,3/4-y,3/4-z
1/4-x,1/2+y,3/4-z
-x,1/2-y,1/2-z
3/4+x,1/4+y,1/2-z
-x,1/4+y,1/4+z
3/4+x,1/2-y,1/4+z
1/2+x,y,1/2+z
3/4-x,1/4-y,1/2+z
1/2+x,1/4-y,3/4-z
3/4-x,y,3/4-z
1/2-x,-y,1/2-z
1/4+x,3/4+y,1/2-z
1/2-x,3/4+y,1/4+z
1/4+x,-y,1/4+z
1/2+x,1/2+y,z
3/4-x,3/4-y,z
1/2+x,3/4-y,1/4-z
3/4-x,1/2+y,1/4-z
1/2-x,1/2-y,-z
1/4+x,1/4+y,-z
1/2-x,1/4+y,3/4+z
1/4+x,1/2-y,3/4+z
loop_
_atom_site_type_symbol
_atom_site_label
_atom_site_fract_x
_atom_site_fract_y
_atom_site_fract_z
Si Si1 0.487611 0.506740 0.830322
Si Si2 0.625000 0.125000 0.625000
Si Si3 0.861219 0.627563 0.755812
Si Si4 0.536683 0.858734 0.596738
Si Si5 0.479431 0.692496 0.583448
Si Si6 0.387368 0.285607 0.504121
O O1 0.432978 0.431475 0.842431
O O2 0.440207 0.563858 0.791483
O O3 0.498083 0.560515 0.879832
O O4 0.568763 0.489048 0.800124
O O5 0.945719 0.621157 0.786918
O O6 0.846911 0.666378 0.701129
O O7 0.827254 0.536608 0.760603
O O8 0.625000 0.844914 0.625000
O O9 0.480336 0.781888 0.605183
O O10 0.492476 0.625000 0.625000
O O11 0.556472 0.696630 0.544922
O O12 0.375000 0.375000 0.523767
#
# Coordination Sequence:
#
# PCOD9515454 Si02
#       6
#    32   8  32  32  32  32
#     4  10  21  39  68  89 118 167 218 260 315 379
#     4  12  20  44  72  88 110 176 232 262 308 388
#     4   9  19  40  56  90 127 158 202 258 309 378
#     4   9  18  36  59  86 124 151 207 252 299 376
#     4  10  22  31  60  91 126 167 197 249 320 377
#     4  10  23  37  60  93 134 166 204 256 321 383
#
# _framework density 23.021357999999999
#
# number of rings (size 3 to 8) (size 9 to 14) (size 15 to 20)
#    0.000    2.286    2.857    0.000   10.667    1.524 
#    1.714    0.952    0.000    0.000    0.000    0.000 
#    0.000    0.000    0.000    0.000    0.000    0.000 
#
# Total GULP energy -233976.722170 kJ/mol
# GULP energy per Si atom -5570.874337 kJ/mol
# Density = 2.296896 g / cm^3
# Si number density = 23.021358 Si / 1000 Ang^3
#
#
#
# Elastic Constant Matrix: (Units=GPa)
#
#
# Indices 1 2 3 4 5 6 
#
# 1 10.0580 34.3711 22.9568 0.0000 0.0000 0.0000
# 2 34.3711 157.5508 47.7226 0.0000 0.0000 0.0000
# 3 22.9568 47.7226 97.9391 0.0000 0.0000 0.0000
# 4 0.0000 0.0000 0.0000 103.6496 0.0000 0.0000
# 5 0.0000 0.0000 0.0000 0.0000 3.5286 0.0000
# 6 0.0000 0.0000 0.0000 0.0000 0.0000 6.6956
#
#
#
# Elastic Compliance Matrix: (Units=1/GPa)
#
#
# Indices 1 2 3 4 5 6 
#
# 1 1.482886 -0.256005 -0.222843 0.000000 0.000000 0.000000
# 2 -0.256005 0.051643 0.034843 0.000000 0.000000 0.000000
# 3 -0.222843 0.034843 0.045466 0.000000 0.000000 0.000000
# 4 0.000000 0.000000 0.000000 0.009648 0.000000 0.000000
# 5 0.000000 0.000000 0.000000 0.000000 0.283398 0.000000
# 6 0.000000 0.000000 0.000000 0.000000 0.000000 0.149352
#
#
# Mechanical properties :
#
#
# Convention : Reuss Voigt Hill
#
# Bulk Modulus (GPa) = 1.44512 52.84987 27.14749
# Shear Modulus (GPa) = 1.59182 33.47459 17.53320
#
# Velocity S-wave (km/s) = 0.83244 3.81736 2.76271
# Velocity P-wave (km/s) = 1.24621 6.51432 4.68985
#
# Compressibility (1/GPa) = 0.69198616
#
# Stress axis : x y z
#
# Youngs Moduli (GPa) = 0.67436 19.36383 21.99422
#
# Poissons Ratio (x) = 4.95723 4.90126
# Poissons Ratio (y) = 0.17264 -0.76635
# Poissons Ratio (z) = 0.15028 -0.67470
#
# Static dielectric constant tensor:
#      x y z
#    x 1.997840 0.000000 0.000000 
#    y 0.000000 1.974310 0.000000 
#    z 0.000000 0.000000 1.959280 
# 
# From -- ./inp_files/60291.got.cif
#   From: 2010.05.17/outbox.cif.g08.bks.cpg/sg70_31_cif.got.tgz:60291.got - 2010.06.03 15:57:51.
