data_PCOD9515216
_publ_section_title
;
Structure prediction by ZEFSAII (Michael W. Deem and Ramdas Pophale) SiO2 
 PCOD9515216
Probable space group: F D D D
;
_chemical_formula_sum "Si O2"
_cell_formula_units_Z 152
_cell_length_a 26.507434
_cell_length_b 17.641512
_cell_length_c 13.843440
_cell_angle_alpha 90.000000
_cell_angle_beta 90.000000
_cell_angle_gamma 90.000000
_cell_volume 6473.624667
_symmetry_space_group_name_H-M "F D D D"
_symmetry_group_IT_number 70
_space_group.IT_coordinate_system_code '2'
_symmetry_cell_setting 'orthorhombic'
loop_
_space_group_symop_operation_xyz
x,y,z
1/4-x,1/4-y,z
x,1/4-y,1/4-z
1/4-x,y,1/4-z
-x,-y,-z
3/4+x,3/4+y,-z
-x,3/4+y,3/4+z
3/4+x,-y,3/4+z
x,1/2+y,1/2+z
1/4-x,3/4-y,1/2+z
x,3/4-y,3/4-z
1/4-x,1/2+y,3/4-z
-x,1/2-y,1/2-z
3/4+x,1/4+y,1/2-z
-x,1/4+y,1/4+z
3/4+x,1/2-y,1/4+z
1/2+x,y,1/2+z
3/4-x,1/4-y,1/2+z
1/2+x,1/4-y,3/4-z
3/4-x,y,3/4-z
1/2-x,-y,1/2-z
1/4+x,3/4+y,1/2-z
1/2-x,3/4+y,1/4+z
1/4+x,-y,1/4+z
1/2+x,1/2+y,z
3/4-x,3/4-y,z
1/2+x,3/4-y,1/4-z
3/4-x,1/2+y,1/4-z
1/2-x,1/2-y,-z
1/4+x,1/4+y,-z
1/2-x,1/4+y,3/4+z
1/4+x,1/2-y,3/4+z
loop_
_atom_site_type_symbol
_atom_site_label
_atom_site_fract_x
_atom_site_fract_y
_atom_site_fract_z
Si Si1 0.523789 0.875000 0.375000
Si Si2 0.561739 0.375000 0.375000
Si Si3 0.875000 0.875000 0.875000
Si Si4 0.197352 0.119515 0.279952
Si Si5 0.125000 0.258026 0.625000
Si Si6 0.020010 0.927463 0.557164
Si Si7 0.853837 0.249177 0.667020
O O1 0.489711 0.836929 0.292366
O O2 0.558617 0.938525 0.327255
O O3 0.528526 0.383437 0.278387
O O4 0.598008 0.302015 0.362366
O O5 0.837141 0.835281 0.798750
O O6 0.228891 0.160373 0.362372
O O7 0.163507 0.059435 0.337923
O O8 0.175059 0.307197 0.603043
O O9 0.135826 0.216840 0.726641
O O10 0.000000 0.000000 0.500000
#
# Coordination Sequence:
#
# PCOD9515216 Si02
#       7
#    16  16   8  32  16  32  32
#     4  10  20  43  66  99 128 175 240 281 344 422
#     4   9  24  43  66 108 142 180 241 290 363 434
#     4  10  28  46  62 110 144 182 246 304 344 420
#     4  11  24  44  70  98 141 184 235 294 357 423
#     4  10  22  44  68  98 148 172 236 296 352 430
#     4  11  25  45  74 103 143 189 238 301 363 441
#     4  10  21  43  69  99 138 184 225 297 356 421
#
# _framework density 23.479890000000001
#
# number of rings (size 3 to 8) (size 9 to 14) (size 15 to 20)
#    0.000    1.684    2.105    0.632    8.842    0.000 
#    7.579    1.053    0.000    0.000    0.000    0.000 
#    0.000    0.000    0.000    0.000    0.000    0.000 
#
# Total GULP energy -211973.722825 kJ/mol
# GULP energy per Si atom -5578.255864 kJ/mol
# Density = 2.342645 g / cm^3
# Si number density = 23.479890 Si / 1000 Ang^3
#
#
#
# Elastic Constant Matrix: (Units=GPa)
#
#
# Indices 1 2 3 4 5 6 
#
# 1 129.7569 38.3767 92.0658 0.0000 0.0000 0.0000
# 2 38.3767 51.9144 56.5788 0.0000 0.0000 0.0000
# 3 92.0658 56.5788 225.1650 0.0000 0.0000 0.0000
# 4 0.0000 0.0000 0.0000 22.0838 0.0000 0.0000
# 5 0.0000 0.0000 0.0000 0.0000 76.4028 0.0000
# 6 0.0000 0.0000 0.0000 0.0000 0.0000 -25.3975
#
#
#
# Elastic Compliance Matrix: (Units=1/GPa)
#
#
# Indices 1 2 3 4 5 6 
#
# 1 0.011635 -0.004704 -0.003575 0.000000 0.000000 0.000000
# 2 -0.004704 0.028429 -0.005220 0.000000 0.000000 0.000000
# 3 -0.003575 -0.005220 0.007215 0.000000 0.000000 0.000000
# 4 0.000000 0.000000 0.000000 0.045282 0.000000 0.000000
# 5 0.000000 0.000000 0.000000 0.000000 0.013089 0.000000
# 6 0.000000 0.000000 0.000000 0.000000 0.000000 -0.039374
#
#
# Mechanical properties :
#
#
# Convention : Reuss Voigt Hill
#
# Bulk Modulus (GPa) = 49.31109 86.76433 68.03771
# Shear Modulus (GPa) = 49.98299 29.27217 39.62758
#
# Velocity S-wave (km/s) = 4.61885 3.53468 4.11265
# Velocity P-wave (km/s) = 7.03506 7.32745 7.18274
#
# Compressibility (1/GPa) = 0.02027941
#
# Stress axis : x y z
#
# Youngs Moduli (GPa) = 85.94966 35.17513 138.60662
#
# Poissons Ratio (x) = 0.16548 0.49553
# Poissons Ratio (y) = 0.40434 0.72353
# Poissons Ratio (z) = 0.30728 0.18362
#
# Static dielectric constant tensor:
#      x y z
#    x 1.951610 0.000000 0.000000 
#    y 0.000000 1.889010 0.000000 
#    z 0.000000 0.000000 2.046600 
# 
# From -- ./inp_files/29819.got.cif
#   From: 2010.05.17/outbox.cif.g08.bks.cpg/sg70_15_cif.got.tgz:29819.got - 2010.06.03 15:57:51.
