data_PCOD9515353
_publ_section_title
;
Structure prediction by ZEFSAII (Michael W. Deem and Ramdas Pophale) SiO2 
 PCOD9515353
Probable space group: F D D D
;
_chemical_formula_sum "Si O2"
_cell_formula_units_Z 120
_cell_length_a 22.959712
_cell_length_b 21.973333
_cell_length_c 11.798127
_cell_angle_alpha 90.000000
_cell_angle_beta 90.000000
_cell_angle_gamma 90.000000
_cell_volume 5952.171558
_symmetry_space_group_name_H-M "F D D D"
_symmetry_group_IT_number 70
_space_group.IT_coordinate_system_code '2'
_symmetry_cell_setting 'orthorhombic'
loop_
_space_group_symop_operation_xyz
x,y,z
1/4-x,1/4-y,z
x,1/4-y,1/4-z
1/4-x,y,1/4-z
-x,-y,-z
3/4+x,3/4+y,-z
-x,3/4+y,3/4+z
3/4+x,-y,3/4+z
x,1/2+y,1/2+z
1/4-x,3/4-y,1/2+z
x,3/4-y,3/4-z
1/4-x,1/2+y,3/4-z
-x,1/2-y,1/2-z
3/4+x,1/4+y,1/2-z
-x,1/4+y,1/4+z
3/4+x,1/2-y,1/4+z
1/2+x,y,1/2+z
3/4-x,1/4-y,1/2+z
1/2+x,1/4-y,3/4-z
3/4-x,y,3/4-z
1/2-x,-y,1/2-z
1/4+x,3/4+y,1/2-z
1/2-x,3/4+y,1/4+z
1/4+x,-y,1/4+z
1/2+x,1/2+y,z
3/4-x,3/4-y,z
1/2+x,3/4-y,1/4-z
3/4-x,1/2+y,1/4-z
1/2-x,1/2-y,-z
1/4+x,1/4+y,-z
1/2-x,1/4+y,3/4+z
1/4+x,1/2-y,3/4+z
loop_
_atom_site_type_symbol
_atom_site_label
_atom_site_fract_x
_atom_site_fract_y
_atom_site_fract_z
Si Si1 0.875000 0.875000 0.875000
Si Si2 0.572181 0.222813 0.043089
Si Si3 0.438291 0.641821 0.865992
Si Si4 0.290034 0.305012 0.045993
Si Si5 0.980156 0.125000 0.625000
O O1 0.916663 0.833221 0.796722
O O2 0.625000 0.203193 0.125000
O O3 0.562978 0.293540 0.071204
O O4 0.518776 0.180763 0.080485
O O5 0.576975 0.213676 0.908056
O O6 0.375000 0.610605 0.875000
O O7 0.492423 0.604755 0.914574
O O8 0.445553 0.650304 0.731773
O O9 0.250000 0.250000 0.000000
#
# Coordination Sequence:
#
# PCOD9515353 Si02
#       5
#     8  32  32  32  16
#     4  12  28  46  74 104 146 188 244 298 360 448
#     4  10  22  40  68  96 130 170 225 287 341 416
#     4  10  23  42  64  98 133 177 226 286 350 420
#     4  11  26  46  69 101 139 187 235 290 361 433
#     4  10  21  37  64  94 131 169 218 274 344 410
#
# _framework density 20.160708
#
# number of rings (size 3 to 8) (size 9 to 14) (size 15 to 20)
#    0.000    1.600    0.000    2.800    9.333    5.333 
#    9.600    0.000    0.000    0.000    0.000    0.000 
#    0.000    0.000    0.000    0.000    0.000    0.000 
#
# Total GULP energy -167508.133469 kJ/mol
# GULP energy per Si atom -5583.604449 kJ/mol
# Density = 2.011482 g / cm^3
# Si number density = 20.160708 Si / 1000 Ang^3
#
#
#
# Elastic Constant Matrix: (Units=GPa)
#
#
# Indices 1 2 3 4 5 6 
#
# 1 105.7904 36.1085 80.8211 0.0000 0.0000 0.0000
# 2 36.1085 78.7369 56.4888 0.0000 0.0000 0.0000
# 3 80.8211 56.4888 201.5705 0.0000 0.0000 0.0000
# 4 0.0000 0.0000 0.0000 31.6796 0.0000 0.0000
# 5 0.0000 0.0000 0.0000 0.0000 35.5424 0.0000
# 6 0.0000 0.0000 0.0000 0.0000 0.0000 34.0711
#
#
#
# Elastic Compliance Matrix: (Units=1/GPa)
#
#
# Indices 1 2 3 4 5 6 
#
# 1 0.014183 -0.003035 -0.004837 0.000000 0.000000 0.000000
# 2 -0.003035 0.016546 -0.003420 0.000000 0.000000 0.000000
# 3 -0.004837 -0.003420 0.007859 0.000000 0.000000 0.000000
# 4 0.000000 0.000000 0.000000 0.031566 0.000000 0.000000
# 5 0.000000 0.000000 0.000000 0.000000 0.028135 0.000000
# 6 0.000000 0.000000 0.000000 0.000000 0.000000 0.029350
#
#
# Mechanical properties :
#
#
# Convention : Reuss Voigt Hill
#
# Bulk Modulus (GPa) = 62.47814 81.43717 71.95765
# Shear Modulus (GPa) = 32.14245 34.43725 33.28985
#
# Velocity S-wave (km/s) = 3.99721 4.13745 4.06793
# Velocity P-wave (km/s) = 7.23609 7.95653 7.60484
#
# Compressibility (1/GPa) = 0.01600560
#
# Stress axis : x y z
#
# Youngs Moduli (GPa) = 70.50510 60.43790 127.24677
#
# Poissons Ratio (x) = 0.18340 0.61543
# Poissons Ratio (y) = 0.21395 0.43520
# Poissons Ratio (z) = 0.34100 0.20671
#
# Static dielectric constant tensor:
#      x y z
#    x 2.068080 0.000000 0.000000 
#    y 0.000000 1.691940 0.000000 
#    z 0.000000 0.000000 1.739910 
# 
# From -- ./inp_files/17375.got.cif
#   From: 2010.05.17/outbox.cif.g08.bks.cpg/sg70_9_cif.got.tgz:17375.got - 2010.06.03 15:57:51.
