data_PCOD9515903
_publ_section_title
;
Structure prediction by ZEFSAII (Michael W. Deem and Ramdas Pophale) SiO2 
 PCOD9515903
Probable space group: F D D D
;
_chemical_formula_sum "Si O2"
_cell_formula_units_Z 88
_cell_length_a 31.665557
_cell_length_b 4.972395
_cell_length_c 25.868470
_cell_angle_alpha 90.000000
_cell_angle_beta 90.000000
_cell_angle_gamma 90.000000
_cell_volume 4073.085210
_symmetry_space_group_name_H-M "F D D D"
_symmetry_group_IT_number 70
_space_group.IT_coordinate_system_code '2'
_symmetry_cell_setting 'orthorhombic'
loop_
_space_group_symop_operation_xyz
x,y,z
1/4-x,1/4-y,z
x,1/4-y,1/4-z
1/4-x,y,1/4-z
-x,-y,-z
3/4+x,3/4+y,-z
-x,3/4+y,3/4+z
3/4+x,-y,3/4+z
x,1/2+y,1/2+z
1/4-x,3/4-y,1/2+z
x,3/4-y,3/4-z
1/4-x,1/2+y,3/4-z
-x,1/2-y,1/2-z
3/4+x,1/4+y,1/2-z
-x,1/4+y,1/4+z
3/4+x,1/2-y,1/4+z
1/2+x,y,1/2+z
3/4-x,1/4-y,1/2+z
1/2+x,1/4-y,3/4-z
3/4-x,y,3/4-z
1/2-x,-y,1/2-z
1/4+x,3/4+y,1/2-z
1/2-x,3/4+y,1/4+z
1/4+x,-y,1/4+z
1/2+x,1/2+y,z
3/4-x,3/4-y,z
1/2+x,3/4-y,1/4-z
3/4-x,1/2+y,1/4-z
1/2-x,1/2-y,-z
1/4+x,1/4+y,-z
1/2-x,1/4+y,3/4+z
1/4+x,1/2-y,3/4+z
loop_
_atom_site_type_symbol
_atom_site_label
_atom_site_fract_x
_atom_site_fract_y
_atom_site_fract_z
Si Si1 0.407687 0.625000 0.125000
Si Si2 0.125000 0.625000 0.125000
Si Si3 0.796374 0.095977 0.734450
Si Si4 0.161989 0.324215 0.526286
O O1 0.375000 0.375000 0.125208
O O2 0.438432 0.634204 0.174999
O O3 0.152737 0.806523 0.086988
O O4 0.799389 0.388580 0.760160
O O5 0.750000 0.000000 0.750000
O O6 0.828850 0.874388 0.758630
O O7 0.125000 0.125000 0.503338
#
# Coordination Sequence:
#
# PCOD9515903 Si02
#       4
#    16   8  32  32
#     4  12  26  46  73 100 137 198 235 278 350 441
#     4   8  24  38  74  94 128 170 236 290 328 402
#     4  12  25  42  68 102 144 178 230 298 352 410
#     4  10  22  42  66  99 132 181 230 286 337 425
#
# _framework density 21.605243999999999
#
# number of rings (size 3 to 8) (size 9 to 14) (size 15 to 20)
#    1.091    0.000    0.000    7.636    0.000    5.818 
#    0.000    0.000    0.000    0.000    0.000    0.000 
#    0.000    0.000    0.000    0.000    0.000    0.000 
#
# Total GULP energy -122593.236010 kJ/mol
# GULP energy per Si atom -5572.419819 kJ/mol
# Density = 2.155607 g / cm^3
# Si number density = 21.605244 Si / 1000 Ang^3
#
#
#
# Elastic Constant Matrix: (Units=GPa)
#
#
# Indices 1 2 3 4 5 6 
#
# 1 111.3143 11.3205 45.9872 0.0040 -0.1145 0.0199
# 2 11.3205 149.1570 44.1807 0.0222 -0.1466 0.0550
# 3 45.9872 44.1807 206.0539 0.0063 -0.0671 0.0035
# 4 0.0040 0.0222 0.0063 34.0571 -0.0639 0.0144
# 5 -0.1145 -0.1466 -0.0671 -0.0639 -52.0966 0.0008
# 6 0.0199 0.0550 0.0035 0.0144 0.0008 25.2797
#
#
#
# Elastic Compliance Matrix: (Units=1/GPa)
#
#
# Indices 1 2 3 4 5 6 
#
# 1 0.009897 -0.000103 -0.002187 -0.000001 -0.000019 -0.000007
# 2 -0.000103 0.007160 -0.001512 -0.000004 -0.000018 -0.000015
# 3 -0.002187 -0.001512 0.005665 0.000000 0.000002 0.000004
# 4 -0.000001 -0.000004 0.000000 0.029362 -0.000036 -0.000017
# 5 -0.000019 -0.000018 0.000002 -0.000036 -0.019195 0.000001
# 6 -0.000007 -0.000015 0.000004 -0.000017 0.000001 0.039557
#
#
# Mechanical properties :
#
#
# Convention : Reuss Voigt Hill
#
# Bulk Modulus (GPa) = 66.14530 74.38908 70.26719
# Shear Modulus (GPa) = 58.75996 25.78383 42.27190
#
# Velocity S-wave (km/s) = 5.22074 3.45832 4.42810
# Velocity P-wave (km/s) = 8.18678 7.10299 7.66406
#
# Compressibility (1/GPa) = 0.01511823
#
# Stress axis : x y z
#
# Youngs Moduli (GPa) = 101.03575 139.66316 176.51139
#
# Poissons Ratio (x) = 0.01445 0.38598
# Poissons Ratio (y) = 0.01046 0.26691
# Poissons Ratio (z) = 0.22094 0.21119
#
# Static dielectric constant tensor:
#      x y z
#    x 1.848130 -0.000030 0.000000 
#    y -0.000030 1.804520 -0.000010 
#    z 0.000000 -0.000010 1.778330 
# 
# From -- ./inp_files/3797.got.cif
#   From: 2010.05.17/outbox.cif.g08.bks.cpg/sg70_2_cif.got.tgz:3797.got - 2010.06.03 15:57:51.
