data_PCOD9515162
_publ_section_title
;
Structure prediction by ZEFSAII (Michael W. Deem and Ramdas Pophale) SiO2 
 PCOD9515162
Probable space group: F D D D
;
_chemical_formula_sum "Si O2"
_cell_formula_units_Z 176
_cell_length_a 15.035735
_cell_length_b 25.030561
_cell_length_c 17.997246
_cell_angle_alpha 90.000000
_cell_angle_beta 90.000000
_cell_angle_gamma 90.000000
_cell_volume 6773.315402
_symmetry_space_group_name_H-M "F D D D"
_symmetry_group_IT_number 70
_space_group.IT_coordinate_system_code '2'
_symmetry_cell_setting 'orthorhombic'
loop_
_space_group_symop_operation_xyz
x,y,z
1/4-x,1/4-y,z
x,1/4-y,1/4-z
1/4-x,y,1/4-z
-x,-y,-z
3/4+x,3/4+y,-z
-x,3/4+y,3/4+z
3/4+x,-y,3/4+z
x,1/2+y,1/2+z
1/4-x,3/4-y,1/2+z
x,3/4-y,3/4-z
1/4-x,1/2+y,3/4-z
-x,1/2-y,1/2-z
3/4+x,1/4+y,1/2-z
-x,1/4+y,1/4+z
3/4+x,1/2-y,1/4+z
1/2+x,y,1/2+z
3/4-x,1/4-y,1/2+z
1/2+x,1/4-y,3/4-z
3/4-x,y,3/4-z
1/2-x,-y,1/2-z
1/4+x,3/4+y,1/2-z
1/2-x,3/4+y,1/4+z
1/4+x,-y,1/4+z
1/2+x,1/2+y,z
3/4-x,3/4-y,z
1/2+x,3/4-y,1/4-z
3/4-x,1/2+y,1/4-z
1/2-x,1/2-y,-z
1/4+x,1/4+y,-z
1/2-x,1/4+y,3/4+z
1/4+x,1/2-y,3/4+z
loop_
_atom_site_type_symbol
_atom_site_label
_atom_site_fract_x
_atom_site_fract_y
_atom_site_fract_z
Si Si1 0.768933 0.523666 0.670681
Si Si2 0.961627 0.734559 0.623137
Si Si3 0.256852 0.824582 0.510486
Si Si4 0.013356 0.125000 0.625000
Si Si5 0.769376 0.163259 0.859070
Si Si6 0.545556 0.823412 0.027416
O O1 0.750000 0.500000 0.750000
O O2 0.872582 0.539876 0.663185
O O3 0.701551 0.573442 0.666985
O O4 0.758897 0.474005 0.616267
O O5 0.011946 0.690963 0.674102
O O6 0.945607 0.780769 0.687001
O O7 0.009425 0.767407 0.557992
O O8 0.270440 0.885668 0.535336
O O9 0.152041 0.820187 0.534981
O O10 0.969462 0.158295 0.556981
O O11 0.875000 0.166814 0.875000
O O12 0.747518 0.119517 0.923294
#
# Coordination Sequence:
#
# PCOD9515162 Si02
#       6
#    32  32  32  16  32  32
#     4  12  25  43  65 100 140 184 234 281 351 431
#     4  10  21  39  70 101 133 178 229 294 349 415
#     4   9  19  41  71 101 128 180 230 291 362 408
#     4  12  24  44  63  94 141 184 228 282 346 432
#     4   9  20  40  68  93 136 180 230 282 350 428
#     4  10  20  41  67  99 139 180 227 286 352 424
#
# _framework density 25.984318999999999
#
# number of rings (size 3 to 8) (size 9 to 14) (size 15 to 20)
#    0.000    1.818    3.636    1.636    0.000    4.364 
#    0.000    3.182    0.000    2.182    0.000    0.000 
#    0.000    0.000    0.000    0.000    0.000    0.000 
#
# Total GULP energy -245276.526338 kJ/mol
# GULP energy per Si atom -5574.466508 kJ/mol
# Density = 2.592518 g / cm^3
# Si number density = 25.984319 Si / 1000 Ang^3
#
#
#
# Elastic Constant Matrix: (Units=GPa)
#
#
# Indices 1 2 3 4 5 6 
#
# 1 52.0271 -9.6937 15.7727 0.0000 0.0000 0.0000
# 2 -9.6937 155.8560 40.8098 0.0000 0.0000 0.0000
# 3 15.7727 40.8098 120.5489 0.0000 0.0000 0.0000
# 4 0.0000 0.0000 0.0000 59.1594 0.0000 0.0000
# 5 0.0000 0.0000 0.0000 0.0000 17.2240 0.0000
# 6 0.0000 0.0000 0.0000 0.0000 0.0000 12.9444
#
#
#
# Elastic Compliance Matrix: (Units=1/GPa)
#
#
# Indices 1 2 3 4 5 6 
#
# 1 0.020673 0.002188 -0.003446 0.000000 0.000000 0.000000
# 2 0.002188 0.007272 -0.002748 0.000000 0.000000 0.000000
# 3 -0.003446 -0.002748 0.009677 0.000000 0.000000 0.000000
# 4 0.000000 0.000000 0.000000 0.016903 0.000000 0.000000
# 5 0.000000 0.000000 0.000000 0.000000 0.058059 0.000000
# 6 0.000000 0.000000 0.000000 0.000000 0.000000 0.077254
#
#
# Mechanical properties :
#
#
# Convention : Reuss Voigt Hill
#
# Bulk Modulus (GPa) = 33.77231 46.91220 40.34226
# Shear Modulus (GPa) = 24.07105 36.63509 30.35307
#
# Velocity S-wave (km/s) = 3.04693 3.75893 3.42150
# Velocity P-wave (km/s) = 5.04022 6.07722 5.58285
#
# Compressibility (1/GPa) = 0.02961006
#
# Stress axis : x y z
#
# Youngs Moduli (GPa) = 48.37233 137.51725 103.34308
#
# Poissons Ratio (x) = -0.30089 0.35608
# Poissons Ratio (y) = -0.10584 0.28399
# Poissons Ratio (z) = 0.16667 0.37790
#
# Static dielectric constant tensor:
#      x y z
#    x 1.149880 0.000000 0.000000 
#    y 0.000000 2.025430 0.000000 
#    z 0.000000 0.000000 2.191430 
# 
# From -- ./inp_files/35277.got.cif
#   From: 2010.05.17/outbox.cif.g08.bks.cpg/sg70_18_cif.got.tgz:35277.got - 2010.06.03 15:57:51.
