data_PCOD9515614
_publ_section_title
;
Structure prediction by ZEFSAII (Michael W. Deem and Ramdas Pophale) SiO2 
 PCOD9515614
Probable space group: F D D D
;
_chemical_formula_sum "Si O2"
_cell_formula_units_Z 104
_cell_length_a 11.741124
_cell_length_b 24.422160
_cell_length_c 14.173682
_cell_angle_alpha 90.000000
_cell_angle_beta 90.000000
_cell_angle_gamma 90.000000
_cell_volume 4064.212728
_symmetry_space_group_name_H-M "F D D D"
_symmetry_group_IT_number 70
_space_group.IT_coordinate_system_code '2'
_symmetry_cell_setting 'orthorhombic'
loop_
_space_group_symop_operation_xyz
x,y,z
1/4-x,1/4-y,z
x,1/4-y,1/4-z
1/4-x,y,1/4-z
-x,-y,-z
3/4+x,3/4+y,-z
-x,3/4+y,3/4+z
3/4+x,-y,3/4+z
x,1/2+y,1/2+z
1/4-x,3/4-y,1/2+z
x,3/4-y,3/4-z
1/4-x,1/2+y,3/4-z
-x,1/2-y,1/2-z
3/4+x,1/4+y,1/2-z
-x,1/4+y,1/4+z
3/4+x,1/2-y,1/4+z
1/2+x,y,1/2+z
3/4-x,1/4-y,1/2+z
1/2+x,1/4-y,3/4-z
3/4-x,y,3/4-z
1/2-x,-y,1/2-z
1/4+x,3/4+y,1/2-z
1/2-x,3/4+y,1/4+z
1/4+x,-y,1/4+z
1/2+x,1/2+y,z
3/4-x,3/4-y,z
1/2+x,3/4-y,1/4-z
3/4-x,1/2+y,1/4-z
1/2-x,1/2-y,-z
1/4+x,1/4+y,-z
1/2-x,1/4+y,3/4+z
1/4+x,1/2-y,3/4+z
loop_
_atom_site_type_symbol
_atom_site_label
_atom_site_fract_x
_atom_site_fract_y
_atom_site_fract_z
Si Si1 0.046291 0.956689 0.853915
Si Si2 0.125000 0.125000 0.125000
Si Si3 0.202564 0.569486 0.201681
Si Si4 0.156936 0.189323 0.337704
O O1 0.171740 0.931469 0.841996
O O2 0.966790 0.917612 0.917205
O O3 0.985424 0.954923 0.751449
O O4 0.055434 0.016848 0.897539
O O5 0.125000 0.625000 0.213058
O O6 0.125000 0.538255 0.125000
O O7 0.215957 0.551761 0.309588
O O8 0.125000 0.125000 0.331831
#
# Coordination Sequence:
#
# PCOD9515614 Si02
#       4
#    32   8  32  32
#     4  12  25  48  75 115 158 201 265 320 398 470
#     4  12  28  48  74 112 154 204 252 320 396 480
#     4  10  21  42  74 110 148 200 253 321 384 462
#     4  11  25  48  75 112 155 206 259 326 392 470
#
# _framework density 25.589210999999999
#
# number of rings (size 3 to 8) (size 9 to 14) (size 15 to 20)
#    0.000    0.923    1.538    5.538    0.000    3.692 
#   11.077    0.000    0.000    0.000    0.000    0.000 
#    0.000    0.000    0.000    0.000    0.000    0.000 
#
# Total GULP energy -144960.018220 kJ/mol
# GULP energy per Si atom -5575.385316 kJ/mol
# Density = 2.553097 g / cm^3
# Si number density = 25.589211 Si / 1000 Ang^3
#
#
#
# Elastic Constant Matrix: (Units=GPa)
#
#
# Indices 1 2 3 4 5 6 
#
# 1 200.1143 82.0261 61.9851 0.0000 0.0000 0.0000
# 2 82.0261 229.1402 64.2321 0.0000 0.0000 0.0000
# 3 61.9851 64.2321 197.1261 0.0000 0.0000 0.0000
# 4 0.0000 0.0000 0.0000 45.4900 0.0000 0.0000
# 5 0.0000 0.0000 0.0000 0.0000 54.6759 0.0000
# 6 0.0000 0.0000 0.0000 0.0000 0.0000 53.6481
#
#
#
# Elastic Compliance Matrix: (Units=1/GPa)
#
#
# Indices 1 2 3 4 5 6 
#
# 1 0.006163 -0.001830 -0.001342 0.000000 0.000000 0.000000
# 2 -0.001830 0.005346 -0.001167 0.000000 0.000000 0.000000
# 3 -0.001342 -0.001167 0.005875 0.000000 0.000000 0.000000
# 4 0.000000 0.000000 0.000000 0.021983 0.000000 0.000000
# 5 0.000000 0.000000 0.000000 0.000000 0.018290 0.000000
# 6 0.000000 0.000000 0.000000 0.000000 0.000000 0.018640
#
#
# Mechanical properties :
#
#
# Convention : Reuss Voigt Hill
#
# Bulk Modulus (GPa) = 114.84292 115.87413 115.35853
# Shear Modulus (GPa) = 56.89878 58.63861 57.76870
#
# Velocity S-wave (km/s) = 4.72056 4.79219 4.75651
# Velocity P-wave (km/s) = 8.64225 8.71785 8.68013
#
# Compressibility (1/GPa) = 0.00870755
#
# Stress axis : x y z
#
# Youngs Moduli (GPa) = 162.26330 187.04621 170.21674
#
# Poissons Ratio (x) = 0.34231 0.22835
# Poissons Ratio (y) = 0.29695 0.19857
# Poissons Ratio (z) = 0.21768 0.21821
#
# Static dielectric constant tensor:
#      x y z
#    x 1.962970 0.000000 0.000000 
#    y 0.000000 2.215460 0.000000 
#    z 0.000000 0.000000 2.318390 
# 
# From -- ./inp_files/32998.got.cif
#   From: 2010.05.17/outbox.cif.g08.bks.cpg/sg70_17_cif.got.tgz:32998.got - 2010.06.03 15:57:51.
