data_PCOD9515845
_publ_section_title
;
Structure prediction by ZEFSAII (Michael W. Deem and Ramdas Pophale) SiO2 
 PCOD9515845
Probable space group: F D D D
;
_chemical_formula_sum "Si O2"
_cell_formula_units_Z 128
_cell_length_a 24.819568
_cell_length_b 13.182192
_cell_length_c 17.685864
_cell_angle_alpha 90.000000
_cell_angle_beta 90.000000
_cell_angle_gamma 90.000000
_cell_volume 5786.395736
_symmetry_space_group_name_H-M "F D D D"
_symmetry_group_IT_number 70
_space_group.IT_coordinate_system_code '2'
_symmetry_cell_setting 'orthorhombic'
loop_
_space_group_symop_operation_xyz
x,y,z
1/4-x,1/4-y,z
x,1/4-y,1/4-z
1/4-x,y,1/4-z
-x,-y,-z
3/4+x,3/4+y,-z
-x,3/4+y,3/4+z
3/4+x,-y,3/4+z
x,1/2+y,1/2+z
1/4-x,3/4-y,1/2+z
x,3/4-y,3/4-z
1/4-x,1/2+y,3/4-z
-x,1/2-y,1/2-z
3/4+x,1/4+y,1/2-z
-x,1/4+y,1/4+z
3/4+x,1/2-y,1/4+z
1/2+x,y,1/2+z
3/4-x,1/4-y,1/2+z
1/2+x,1/4-y,3/4-z
3/4-x,y,3/4-z
1/2-x,-y,1/2-z
1/4+x,3/4+y,1/2-z
1/2-x,3/4+y,1/4+z
1/4+x,-y,1/4+z
1/2+x,1/2+y,z
3/4-x,3/4-y,z
1/2+x,3/4-y,1/4-z
3/4-x,1/2+y,1/4-z
1/2-x,1/2-y,-z
1/4+x,1/4+y,-z
1/2-x,1/4+y,3/4+z
1/4+x,1/2-y,3/4+z
loop_
_atom_site_type_symbol
_atom_site_label
_atom_site_fract_x
_atom_site_fract_y
_atom_site_fract_z
Si Si1 0.257127 0.375000 0.875000
Si Si2 0.824492 0.625000 0.625000
Si Si3 0.499708 0.879876 0.010594
Si Si4 0.431415 0.689673 0.345800
Si Si5 0.584755 0.978111 0.279972
O O1 0.288745 0.455906 0.823132
O O2 0.217902 0.310314 0.823879
O O3 0.785505 0.584248 0.558578
O O4 0.864279 0.707007 0.584555
O O5 0.531870 0.858231 0.088164
O O6 0.438131 0.838312 0.007490
O O7 0.500000 0.000000 0.000000
O O8 0.375000 0.730364 0.375000
O O9 0.413927 0.601212 0.288721
#
# Coordination Sequence:
#
# PCOD9515845 Si02
#       5
#    16  16  32  32  32
#     4   9  21  36  63  90 122 163 208 275 329 396
#     4  11  22  44  65  95 137 177 226 272 341 410
#     4  11  24  42  65  96 132 174 227 281 334 410
#     4  11  20  39  60  90 125 162 213 270 333 395
#     4  10  22  41  65  92 131 172 220 274 338 408
#
# _framework density 22.120850999999998
#
# number of rings (size 3 to 8) (size 9 to 14) (size 15 to 20)
#    0.000    1.500    2.500    2.625    0.000    1.000 
#    0.000    8.750    0.000    0.000    0.000    0.000 
#    0.000    0.000    0.000    0.000    0.000    0.000 
#
# Total GULP energy -178247.914007 kJ/mol
# GULP energy per Si atom -5570.247313 kJ/mol
# Density = 2.207050 g / cm^3
# Si number density = 22.120851 Si / 1000 Ang^3
#
#
#
# Elastic Constant Matrix: (Units=GPa)
#
#
# Indices 1 2 3 4 5 6 
#
# 1 103.4295 21.0486 15.0884 0.0000 0.0000 0.0000
# 2 21.0486 81.2002 9.8060 0.0000 0.0000 0.0000
# 3 15.0884 9.8060 65.7613 0.0000 0.0000 0.0000
# 4 0.0000 0.0000 0.0000 11.5926 0.0000 0.0000
# 5 0.0000 0.0000 0.0000 0.0000 56.7895 0.0000
# 6 0.0000 0.0000 0.0000 0.0000 0.0000 26.2392
#
#
#
# Elastic Compliance Matrix: (Units=1/GPa)
#
#
# Indices 1 2 3 4 5 6 
#
# 1 0.010467 -0.002468 -0.002034 0.000000 0.000000 0.000000
# 2 -0.002468 0.013123 -0.001391 0.000000 0.000000 0.000000
# 3 -0.002034 -0.001391 0.015880 0.000000 0.000000 0.000000
# 4 0.000000 0.000000 0.000000 0.086262 0.000000 0.000000
# 5 0.000000 0.000000 0.000000 0.000000 0.017609 0.000000
# 6 0.000000 0.000000 0.000000 0.000000 0.000000 0.038111
#
#
# Mechanical properties :
#
#
# Convention : Reuss Voigt Hill
#
# Bulk Modulus (GPa) = 36.11855 38.03080 37.07467
# Shear Modulus (GPa) = 24.69558 32.55410 28.62484
#
# Velocity S-wave (km/s) = 3.34487 3.84037 3.60115
# Velocity P-wave (km/s) = 5.59293 6.07406 5.83845
#
# Compressibility (1/GPa) = 0.02768661
#
# Stress axis : x y z
#
# Youngs Moduli (GPa) = 95.53565 76.20290 62.97042
#
# Poissons Ratio (x) = 0.18805 0.12806
# Poissons Ratio (y) = 0.23576 0.08757
# Poissons Ratio (z) = 0.19429 0.10597
#
# Static dielectric constant tensor:
#      x y z
#    x 1.843460 0.000000 0.000000 
#    y 0.000000 2.111320 0.000000 
#    z 0.000000 0.000000 1.719370 
# 
# From -- ./inp_files/38336.got.cif
#   From: 2010.05.17/outbox.cif.g08.bks.cpg/sg70_20_cif.got.tgz:38336.got - 2010.06.03 15:57:51.
