data_PCOD9515548
_publ_section_title
;
Structure prediction by ZEFSAII (Michael W. Deem and Ramdas Pophale) SiO2 
 PCOD9515548
Probable space group: F D D D
;
_chemical_formula_sum "Si O2"
_cell_formula_units_Z 96
_cell_length_a 25.896905
_cell_length_b 15.791102
_cell_length_c 10.755948
_cell_angle_alpha 90.000000
_cell_angle_beta 90.000000
_cell_angle_gamma 90.000000
_cell_volume 4398.544564
_symmetry_space_group_name_H-M "F D D D"
_symmetry_group_IT_number 70
_space_group.IT_coordinate_system_code '2'
_symmetry_cell_setting 'orthorhombic'
loop_
_space_group_symop_operation_xyz
x,y,z
1/4-x,1/4-y,z
x,1/4-y,1/4-z
1/4-x,y,1/4-z
-x,-y,-z
3/4+x,3/4+y,-z
-x,3/4+y,3/4+z
3/4+x,-y,3/4+z
x,1/2+y,1/2+z
1/4-x,3/4-y,1/2+z
x,3/4-y,3/4-z
1/4-x,1/2+y,3/4-z
-x,1/2-y,1/2-z
3/4+x,1/4+y,1/2-z
-x,1/4+y,1/4+z
3/4+x,1/2-y,1/4+z
1/2+x,y,1/2+z
3/4-x,1/4-y,1/2+z
1/2+x,1/4-y,3/4-z
3/4-x,y,3/4-z
1/2-x,-y,1/2-z
1/4+x,3/4+y,1/2-z
1/2-x,3/4+y,1/4+z
1/4+x,-y,1/4+z
1/2+x,1/2+y,z
3/4-x,3/4-y,z
1/2+x,3/4-y,1/4-z
3/4-x,1/2+y,1/4-z
1/2-x,1/2-y,-z
1/4+x,1/4+y,-z
1/2-x,1/4+y,3/4+z
1/4+x,1/2-y,3/4+z
loop_
_atom_site_type_symbol
_atom_site_label
_atom_site_fract_x
_atom_site_fract_y
_atom_site_fract_z
Si Si1 0.125000 0.920798 0.125000
Si Si2 0.783959 0.192899 0.869037
Si Si3 0.422139 0.827396 0.507027
Si Si4 0.753933 0.375000 0.875000
O O1 0.169047 0.861600 0.183773
O O2 0.152682 0.983843 0.027602
O O3 0.727222 0.169210 0.820098
O O4 0.788256 0.292824 0.841656
O O5 0.780295 0.165446 0.014170
O O6 0.428484 0.875000 0.375000
O O7 0.375000 0.875000 0.574640
#
# Coordination Sequence:
#
# PCOD9515548 Si02
#       4
#    16  32  32  16
#     4  10  21  41  66  92 130 176 216 279 329 398
#     4  11  21  46  62  97 132 175 224 270 343 396
#     4   9  21  41  65  97 128 165 229 281 323 396
#     4  10  24  41  64  88 138 172 217 280 316 424
#
# _framework density 21.825402
#
# number of rings (size 3 to 8) (size 9 to 14) (size 15 to 20)
#    0.000    2.333    3.333    0.000    0.000    6.000 
#   15.000    0.000    0.000    0.000    0.000    0.000 
#    0.000    0.000    0.000    0.000    0.000    0.000 
#
# Total GULP energy -133800.041771 kJ/mol
# GULP energy per Si atom -5575.001740 kJ/mol
# Density = 2.177573 g / cm^3
# Si number density = 21.825402 Si / 1000 Ang^3
#
#
#
# Elastic Constant Matrix: (Units=GPa)
#
#
# Indices 1 2 3 4 5 6 
#
# 1 163.2524 66.3123 12.5147 0.0000 0.0000 0.0000
# 2 66.3123 169.6833 1.9536 0.0000 0.0000 0.0000
# 3 12.5147 1.9536 44.2704 0.0000 0.0000 0.0000
# 4 0.0000 0.0000 0.0000 14.2820 0.0000 0.0000
# 5 0.0000 0.0000 0.0000 0.0000 19.2116 0.0000
# 6 0.0000 0.0000 0.0000 0.0000 0.0000 18.6354
#
#
#
# Elastic Compliance Matrix: (Units=1/GPa)
#
#
# Indices 1 2 3 4 5 6 
#
# 1 0.007451 -0.002889 -0.001979 0.000000 0.000000 0.000000
# 2 -0.002889 0.007016 0.000507 0.000000 0.000000 0.000000
# 3 -0.001979 0.000507 0.023125 0.000000 0.000000 0.000000
# 4 0.000000 0.000000 0.000000 0.070018 0.000000 0.000000
# 5 0.000000 0.000000 0.000000 0.000000 0.052052 0.000000
# 6 0.000000 0.000000 0.000000 0.000000 0.000000 0.053661
#
#
# Mechanical properties :
#
#
# Convention : Reuss Voigt Hill
#
# Bulk Modulus (GPa) = 34.63643 59.86304 47.24973
# Shear Modulus (GPa) = 21.58254 30.18751 25.88503
#
# Velocity S-wave (km/s) = 3.14805 3.72309 3.44758
# Velocity P-wave (km/s) = 5.39609 6.78008 6.12729
#
# Compressibility (1/GPa) = 0.02887134
#
# Stress axis : x y z
#
# Youngs Moduli (GPa) = 134.21669 142.52140 43.24240
#
# Poissons Ratio (x) = 0.41173 0.08556
# Poissons Ratio (y) = 0.38774 -0.02193
# Poissons Ratio (z) = 0.26558 -0.07226
#
# Static dielectric constant tensor:
#      x y z
#    x 1.828750 0.000000 0.000000 
#    y 0.000000 1.844490 0.000000 
#    z 0.000000 0.000000 1.865240 
# 
# From -- ./inp_files/14920.got.cif
#   From: 2010.05.17/outbox.cif.g08.bks.cpg/sg70_8_cif.got.tgz:14920.got - 2010.06.03 15:57:51.
