data_PCOD9515688
_publ_section_title
;
Structure prediction by ZEFSAII (Michael W. Deem and Ramdas Pophale) SiO2 
 PCOD9515688
Probable space group: F D D D
;
_chemical_formula_sum "Si O2"
_cell_formula_units_Z 168
_cell_length_a 12.737800
_cell_length_b 27.222509
_cell_length_c 16.680327
_cell_angle_alpha 90.000000
_cell_angle_beta 90.000000
_cell_angle_gamma 90.000000
_cell_volume 5783.984706
_symmetry_space_group_name_H-M "F D D D"
_symmetry_group_IT_number 70
_space_group.IT_coordinate_system_code '2'
_symmetry_cell_setting 'orthorhombic'
loop_
_space_group_symop_operation_xyz
x,y,z
1/4-x,1/4-y,z
x,1/4-y,1/4-z
1/4-x,y,1/4-z
-x,-y,-z
3/4+x,3/4+y,-z
-x,3/4+y,3/4+z
3/4+x,-y,3/4+z
x,1/2+y,1/2+z
1/4-x,3/4-y,1/2+z
x,3/4-y,3/4-z
1/4-x,1/2+y,3/4-z
-x,1/2-y,1/2-z
3/4+x,1/4+y,1/2-z
-x,1/4+y,1/4+z
3/4+x,1/2-y,1/4+z
1/2+x,y,1/2+z
3/4-x,1/4-y,1/2+z
1/2+x,1/4-y,3/4-z
3/4-x,y,3/4-z
1/2-x,-y,1/2-z
1/4+x,3/4+y,1/2-z
1/2-x,3/4+y,1/4+z
1/4+x,-y,1/4+z
1/2+x,1/2+y,z
3/4-x,3/4-y,z
1/2+x,3/4-y,1/4-z
3/4-x,1/2+y,1/4-z
1/2-x,1/2-y,-z
1/4+x,1/4+y,-z
1/2-x,1/4+y,3/4+z
1/4+x,1/2-y,3/4+z
loop_
_atom_site_type_symbol
_atom_site_label
_atom_site_fract_x
_atom_site_fract_y
_atom_site_fract_z
Si Si1 0.180581 0.814460 0.441653
Si Si2 0.125000 0.625000 0.625000
Si Si3 0.023438 0.308574 0.745255
Si Si4 0.955842 0.451737 0.593350
Si Si5 0.798276 0.935606 0.470151
Si Si6 0.981431 0.697462 0.443646
O O1 0.285896 0.840802 0.415204
O O2 0.195108 0.808128 0.538062
O O3 0.188585 0.760271 0.402660
O O4 0.061061 0.833418 0.433391
O O5 0.921630 0.329171 0.791528
O O6 0.025009 0.318462 0.649570
O O7 0.146111 0.321876 0.757883
O O8 0.000000 0.250000 0.750000
O O9 0.851988 0.434969 0.544513
O O10 0.959351 0.431386 0.682861
O O11 0.788212 0.993804 0.447810
#
# Coordination Sequence:
#
# PCOD9515688 Si02
#       6
#    32   8  32  32  32  32
#     4  10  22  35  53  83 121 157 203 254 328 383
#     4  12  28  40  52  84 134 176 208 274 352 394
#     4   8  13  23  40  72 122 151 179 233 314 365
#     4   9  18  32  59  89 115 148 204 260 303 374
#     4   9  16  29  52  85 112 149 195 255 304 362
#     4   8  14  23  42  82 123 144 182 245 317 354
#
# _framework density 29.045722000000001
#
# number of rings (size 3 to 8) (size 9 to 14) (size 15 to 20)
#    0.000    3.048    0.000    0.571    8.000    0.000 
#    0.000    0.000    0.000    0.000   19.810    1.333 
#    0.000    0.000    0.000    0.000    0.000    0.000 
#
# Total GULP energy -234562.557028 kJ/mol
# GULP energy per Si atom -5584.822786 kJ/mol
# Density = 2.897961 g / cm^3
# Si number density = 29.045722 Si / 1000 Ang^3
#
#
#
# Elastic Constant Matrix: (Units=GPa)
#
#
# Indices 1 2 3 4 5 6 
#
# 1 331.6900 72.4648 85.5906 0.0000 0.0000 0.0000
# 2 72.4648 86.6629 20.2876 0.0000 0.0000 0.0000
# 3 85.5906 20.2876 91.2338 0.0000 0.0000 0.0000
# 4 0.0000 0.0000 0.0000 29.5152 0.0000 0.0000
# 5 0.0000 0.0000 0.0000 0.0000 64.6548 0.0000
# 6 0.0000 0.0000 0.0000 0.0000 0.0000 39.6047
#
#
#
# Elastic Compliance Matrix: (Units=1/GPa)
#
#
# Indices 1 2 3 4 5 6 
#
# 1 0.004616 -0.003002 -0.003663 0.000000 0.000000 0.000000
# 2 -0.003002 0.014125 -0.000324 0.000000 0.000000 0.000000
# 3 -0.003663 -0.000324 0.014469 0.000000 0.000000 0.000000
# 4 0.000000 0.000000 0.000000 0.033881 0.000000 0.000000
# 5 0.000000 0.000000 0.000000 0.000000 0.015467 0.000000
# 6 0.000000 0.000000 0.000000 0.000000 0.000000 0.025250
#
#
# Mechanical properties :
#
#
# Convention : Reuss Voigt Hill
#
# Bulk Modulus (GPa) = 51.99831 96.25254 74.12543
# Shear Modulus (GPa) = 39.00241 48.83785 43.92013
#
# Velocity S-wave (km/s) = 3.66839 4.10495 3.89280
# Velocity P-wave (km/s) = 5.99032 7.46175 6.76615
#
# Compressibility (1/GPa) = 0.01923139
#
# Stress axis : x y z
#
# Youngs Moduli (GPa) = 216.64083 70.79491 69.11208
#
# Poissons Ratio (x) = 0.21254 0.25314
# Poissons Ratio (y) = 0.65041 0.02243
# Poissons Ratio (z) = 0.79351 0.02297
#
# Static dielectric constant tensor:
#      x y z
#    x 2.335430 0.000000 0.000000 
#    y 0.000000 2.347020 0.000000 
#    z 0.000000 0.000000 2.264510 
# 
# From -- ./inp_files/42847.got.cif
#   From: 2010.05.17/outbox.cif.g08.bks.cpg/sg70_22_cif.got.tgz:42847.got - 2010.06.03 15:57:51.
