data_PCOD9515789
_publ_section_title
;
Structure prediction by ZEFSAII (Michael W. Deem and Ramdas Pophale) SiO2 
 PCOD9515789
Probable space group: F D D D
;
_chemical_formula_sum "Si O2"
_cell_formula_units_Z 176
_cell_length_a 25.461334
_cell_length_b 18.039368
_cell_length_c 18.864816
_cell_angle_alpha 90.000000
_cell_angle_beta 90.000000
_cell_angle_gamma 90.000000
_cell_volume 8664.730229
_symmetry_space_group_name_H-M "F D D D"
_symmetry_group_IT_number 70
_space_group.IT_coordinate_system_code '2'
_symmetry_cell_setting 'orthorhombic'
loop_
_space_group_symop_operation_xyz
x,y,z
1/4-x,1/4-y,z
x,1/4-y,1/4-z
1/4-x,y,1/4-z
-x,-y,-z
3/4+x,3/4+y,-z
-x,3/4+y,3/4+z
3/4+x,-y,3/4+z
x,1/2+y,1/2+z
1/4-x,3/4-y,1/2+z
x,3/4-y,3/4-z
1/4-x,1/2+y,3/4-z
-x,1/2-y,1/2-z
3/4+x,1/4+y,1/2-z
-x,1/4+y,1/4+z
3/4+x,1/2-y,1/4+z
1/2+x,y,1/2+z
3/4-x,1/4-y,1/2+z
1/2+x,1/4-y,3/4-z
3/4-x,y,3/4-z
1/2-x,-y,1/2-z
1/4+x,3/4+y,1/2-z
1/2-x,3/4+y,1/4+z
1/4+x,-y,1/4+z
1/2+x,1/2+y,z
3/4-x,3/4-y,z
1/2+x,3/4-y,1/4-z
3/4-x,1/2+y,1/4-z
1/2-x,1/2-y,-z
1/4+x,1/4+y,-z
1/2-x,1/4+y,3/4+z
1/4+x,1/2-y,3/4+z
loop_
_atom_site_type_symbol
_atom_site_label
_atom_site_fract_x
_atom_site_fract_y
_atom_site_fract_z
Si Si1 0.319006 0.181391 0.982780
Si Si2 0.183348 0.096881 0.898400
Si Si3 0.170716 0.932370 0.935916
Si Si4 0.965319 0.839686 0.801276
Si Si5 0.976460 0.070331 0.458059
Si Si6 0.375000 0.677830 0.875000
O O1 0.293531 0.251612 0.944289
O O2 0.342002 0.122130 0.929381
O O3 0.369170 0.209879 0.024200
O O4 0.276989 0.147931 0.036874
O O5 0.125000 0.125000 0.874597
O O6 0.231169 0.111368 0.843577
O O7 0.191825 0.008272 0.904576
O O8 0.190819 0.130232 0.977647
O O9 0.155661 0.875000 0.875000
O O10 0.206938 0.885176 0.988776
O O11 0.947261 0.875000 0.875000
O O12 0.923499 0.038300 0.419323
O O13 0.000000 0.000000 0.500000
#
# Coordination Sequence:
#
# PCOD9515789 Si02
#       6
#    32  32  32  32  32  16
#     4  10  22  40  62  97 131 175 222 274 347 411
#     4  12  25  46  66 102 141 180 229 293 352 420
#     4  11  23  43  71  94 134 182 230 283 345 410
#     4  11  24  38  64  98 136 173 224 275 342 419
#     4  11  24  47  71 100 138 188 239 296 354 423
#     4  10  22  42  71  95 134 180 230 296 356 412
#
# _framework density 20.31223
#
# number of rings (size 3 to 8) (size 9 to 14) (size 15 to 20)
#    0.000    1.091    5.455    0.545    5.091    0.364 
#    6.545    0.000    0.000    0.000    0.000    0.000 
#    0.000    0.000    0.000    0.000    0.000    0.000 
#
# Total GULP energy -245198.175155 kJ/mol
# GULP energy per Si atom -5572.685799 kJ/mol
# Density = 2.026600 g / cm^3
# Si number density = 20.312230 Si / 1000 Ang^3
#
#
#
# Elastic Constant Matrix: (Units=GPa)
#
#
# Indices 1 2 3 4 5 6 
#
# 1 129.1668 23.6620 47.9611 0.0000 0.0000 0.0000
# 2 23.6620 65.4179 20.0391 0.0000 0.0000 0.0000
# 3 47.9611 20.0391 86.1748 0.0000 0.0000 0.0000
# 4 0.0000 0.0000 0.0000 30.1315 0.0000 0.0000
# 5 0.0000 0.0000 0.0000 0.0000 22.5404 0.0000
# 6 0.0000 0.0000 0.0000 0.0000 0.0000 23.6808
#
#
#
# Elastic Compliance Matrix: (Units=1/GPa)
#
#
# Indices 1 2 3 4 5 6 
#
# 1 0.010010 -0.002061 -0.005092 0.000000 0.000000 0.000000
# 2 -0.002061 0.016883 -0.002779 0.000000 0.000000 0.000000
# 3 -0.005092 -0.002779 0.015085 0.000000 0.000000 0.000000
# 4 0.000000 0.000000 0.000000 0.033188 0.000000 0.000000
# 5 0.000000 0.000000 0.000000 0.000000 0.044365 0.000000
# 6 0.000000 0.000000 0.000000 0.000000 0.000000 0.042228
#
#
# Mechanical properties :
#
#
# Convention : Reuss Voigt Hill
#
# Bulk Modulus (GPa) = 45.22022 51.56487 48.39255
# Shear Modulus (GPa) = 26.45592 27.87704 27.16648
#
# Velocity S-wave (km/s) = 3.61288 3.70865 3.66108
# Velocity P-wave (km/s) = 6.30196 6.61664 6.46122
#
# Compressibility (1/GPa) = 0.02211400
#
# Stress axis : x y z
#
# Youngs Moduli (GPa) = 99.89830 59.23101 66.29317
#
# Poissons Ratio (x) = 0.12207 0.33756
# Poissons Ratio (y) = 0.20588 0.18423
# Poissons Ratio (z) = 0.50868 0.16460
#
# Static dielectric constant tensor:
#      x y z
#    x 1.775920 0.000000 0.000000 
#    y 0.000000 1.710280 0.000000 
#    z 0.000000 0.000000 1.775730 
# 
# From -- ./inp_files/38551.got.cif
#   From: 2010.05.17/outbox.cif.g08.bks.cpg/sg70_20_cif.got.tgz:38551.got - 2010.06.03 15:57:51.
