data_PCOD9515972
_publ_section_title
;
Structure prediction by ZEFSAII (Michael W. Deem and Ramdas Pophale) SiO2 
 PCOD9515972
Probable space group: F D D D
;
_chemical_formula_sum "Si O2"
_cell_formula_units_Z 176
_cell_length_a 27.740388
_cell_length_b 21.656603
_cell_length_c 12.022648
_cell_angle_alpha 90.000000
_cell_angle_beta 90.000000
_cell_angle_gamma 90.000000
_cell_volume 7222.756910
_symmetry_space_group_name_H-M "F D D D"
_symmetry_group_IT_number 70
_space_group.IT_coordinate_system_code '2'
_symmetry_cell_setting 'orthorhombic'
loop_
_space_group_symop_operation_xyz
x,y,z
1/4-x,1/4-y,z
x,1/4-y,1/4-z
1/4-x,y,1/4-z
-x,-y,-z
3/4+x,3/4+y,-z
-x,3/4+y,3/4+z
3/4+x,-y,3/4+z
x,1/2+y,1/2+z
1/4-x,3/4-y,1/2+z
x,3/4-y,3/4-z
1/4-x,1/2+y,3/4-z
-x,1/2-y,1/2-z
3/4+x,1/4+y,1/2-z
-x,1/4+y,1/4+z
3/4+x,1/2-y,1/4+z
1/2+x,y,1/2+z
3/4-x,1/4-y,1/2+z
1/2+x,1/4-y,3/4-z
3/4-x,y,3/4-z
1/2-x,-y,1/2-z
1/4+x,3/4+y,1/2-z
1/2-x,3/4+y,1/4+z
1/4+x,-y,1/4+z
1/2+x,1/2+y,z
3/4-x,3/4-y,z
1/2+x,3/4-y,1/4-z
3/4-x,1/2+y,1/4-z
1/2-x,1/2-y,-z
1/4+x,1/4+y,-z
1/2-x,1/4+y,3/4+z
1/4+x,1/2-y,3/4+z
loop_
_atom_site_type_symbol
_atom_site_label
_atom_site_fract_x
_atom_site_fract_y
_atom_site_fract_z
Si Si1 0.619936 0.551624 0.504219
Si Si2 0.033273 0.242795 0.888475
Si Si3 0.039627 0.555326 0.386513
Si Si4 0.948373 0.980197 0.891519
Si Si5 0.125000 0.415248 0.625000
Si Si6 0.716179 0.904660 0.217813
O O1 0.625000 0.625000 0.512132
O O2 0.625000 0.523528 0.625000
O O3 0.569870 0.536722 0.449025
O O4 0.663673 0.533942 0.426872
O O5 0.029672 0.312411 0.839167
O O6 0.982453 0.208673 0.869514
O O7 0.057441 0.229111 0.007860
O O8 0.055277 0.572511 0.513508
O O9 0.004360 0.497607 0.394074
O O10 0.006461 0.603281 0.317115
O O11 0.912901 0.036029 0.930744
O O12 0.087251 0.373253 0.695655
#
# Coordination Sequence:
#
# PCOD9515972 Si02
#       6
#    32  32  32  32  16  32
#     4  11  24  40  66  96 134 186 240 297 364 441
#     4  11  24  42  67 107 138 190 242 310 369 458
#     4  10  22  44  65  99 136 190 238 303 371 452
#     4  10  23  42  71  96 143 189 241 304 384 446
#     4  10  22  44  66 101 143 194 240 310 374 450
#     4  10  24  42  67 100 145 183 250 304 381 444
#
# _framework density 24.367425999999998
#
# number of rings (size 3 to 8) (size 9 to 14) (size 15 to 20)
#    0.000    1.636    1.818    1.091    6.364    3.636 
#    0.000    6.364    0.000    0.000    0.000    0.000 
#    0.000    0.000    0.000    0.000    0.000    0.000 
#
# Total GULP energy -245150.391777 kJ/mol
# GULP energy per Si atom -5571.599813 kJ/mol
# Density = 2.431196 g / cm^3
# Si number density = 24.367426 Si / 1000 Ang^3
#
#
#
# Elastic Constant Matrix: (Units=GPa)
#
#
# Indices 1 2 3 4 5 6 
#
# 1 136.7993 20.6642 43.9227 0.0000 0.0000 0.0000
# 2 20.6642 63.1789 32.0721 0.0000 0.0000 0.0000
# 3 43.9227 32.0721 194.3964 0.0000 0.0000 0.0000
# 4 0.0000 0.0000 0.0000 23.2670 0.0000 0.0000
# 5 0.0000 0.0000 0.0000 0.0000 31.9695 0.0000
# 6 0.0000 0.0000 0.0000 0.0000 0.0000 46.4160
#
#
#
# Elastic Compliance Matrix: (Units=1/GPa)
#
#
# Indices 1 2 3 4 5 6 
#
# 1 0.008080 -0.001873 -0.001517 0.000000 0.000000 0.000000
# 2 -0.001873 0.017709 -0.002499 0.000000 0.000000 0.000000
# 3 -0.001517 -0.002499 0.005899 0.000000 0.000000 0.000000
# 4 0.000000 0.000000 0.000000 0.042979 0.000000 0.000000
# 5 0.000000 0.000000 0.000000 0.000000 0.031280 0.000000
# 6 0.000000 0.000000 0.000000 0.000000 0.000000 0.021544
#
#
# Mechanical properties :
#
#
# Convention : Reuss Voigt Hill
#
# Bulk Modulus (GPa) = 50.22119 65.29918 57.76018
# Shear Modulus (GPa) = 34.26901 40.17821 37.22361
#
# Velocity S-wave (km/s) = 3.75420 4.06501 3.91269
# Velocity P-wave (km/s) = 6.28066 6.99202 6.64586
#
# Compressibility (1/GPa) = 0.01991191
#
# Stress axis : x y z
#
# Youngs Moduli (GPa) = 123.76517 56.46852 169.51995
#
# Poissons Ratio (x) = 0.10576 0.25709
# Poissons Ratio (y) = 0.23179 0.42355
# Poissons Ratio (z) = 0.18770 0.14109
#
# Static dielectric constant tensor:
#      x y z
#    x 1.909290 0.000000 0.000000 
#    y 0.000000 2.086590 0.000000 
#    z 0.000000 0.000000 2.178280 
# 
# From -- ./inp_files/22273.got.cif
#   From: 2010.05.17/outbox.cif.g08.bks.cpg/sg70_12_cif.got.tgz:22273.got - 2010.06.03 15:57:51.
