data_PCOD9515369
_publ_section_title
;
Structure prediction by ZEFSAII (Michael W. Deem and Ramdas Pophale) SiO2 
 PCOD9515369
Probable space group: F D D D
;
_chemical_formula_sum "Si O2"
_cell_formula_units_Z 176
_cell_length_a 29.689698
_cell_length_b 14.194479
_cell_length_c 19.358123
_cell_angle_alpha 90.000000
_cell_angle_beta 90.000000
_cell_angle_gamma 90.000000
_cell_volume 8158.089803
_symmetry_space_group_name_H-M "F D D D"
_symmetry_group_IT_number 70
_space_group.IT_coordinate_system_code '2'
_symmetry_cell_setting 'orthorhombic'
loop_
_space_group_symop_operation_xyz
x,y,z
1/4-x,1/4-y,z
x,1/4-y,1/4-z
1/4-x,y,1/4-z
-x,-y,-z
3/4+x,3/4+y,-z
-x,3/4+y,3/4+z
3/4+x,-y,3/4+z
x,1/2+y,1/2+z
1/4-x,3/4-y,1/2+z
x,3/4-y,3/4-z
1/4-x,1/2+y,3/4-z
-x,1/2-y,1/2-z
3/4+x,1/4+y,1/2-z
-x,1/4+y,1/4+z
3/4+x,1/2-y,1/4+z
1/2+x,y,1/2+z
3/4-x,1/4-y,1/2+z
1/2+x,1/4-y,3/4-z
3/4-x,y,3/4-z
1/2-x,-y,1/2-z
1/4+x,3/4+y,1/2-z
1/2-x,3/4+y,1/4+z
1/4+x,-y,1/4+z
1/2+x,1/2+y,z
3/4-x,3/4-y,z
1/2+x,3/4-y,1/4-z
3/4-x,1/2+y,1/4-z
1/2-x,1/2-y,-z
1/4+x,1/4+y,-z
1/2-x,1/4+y,3/4+z
1/4+x,1/2-y,3/4+z
loop_
_atom_site_type_symbol
_atom_site_label
_atom_site_fract_x
_atom_site_fract_y
_atom_site_fract_z
Si Si1 0.274609 0.268430 0.250204
Si Si2 0.974435 0.625000 0.125000
Si Si3 0.875569 0.520078 0.957526
Si Si4 0.371809 0.234219 0.958465
Si Si5 0.450512 0.375048 0.958548
Si Si6 0.542633 0.206052 0.289937
O O1 0.254574 0.325128 0.315870
O O2 0.325644 0.244204 0.265557
O O3 0.245520 0.175244 0.235687
O O4 0.277097 0.350279 0.190885
O O5 0.947211 0.714936 0.153111
O O6 0.875000 0.509223 0.875000
O O7 0.885304 0.628815 0.976607
O O8 0.913985 0.455548 0.990583
O O9 0.375000 0.238946 0.875000
O O10 0.411019 0.303731 0.982274
O O11 0.322071 0.273819 0.977818
O O12 0.454033 0.375000 0.875000
O O13 0.500000 0.250000 0.250000
#
# Coordination Sequence:
#
# PCOD9515369 Si02
#       6
#    32  16  32  32  32  32
#     4  11  22  36  61  91 120 159 203 265 313 370
#     4  10  22  40  61  84 120 168 204 239 318 396
#     4  11  21  36  61  92 120 154 211 266 308 362
#     4   8  16  32  57  83 114 155 196 247 299 370
#     4   9  18  35  58  87 121 157 202 249 309 375
#     4  10  21  38  59  83 117 159 204 251 309 376
#
# _framework density 21.573678000000001
#
# number of rings (size 3 to 8) (size 9 to 14) (size 15 to 20)
#    0.000    2.182    0.000    6.000    0.000    4.364 
#    1.636    0.000   12.000    0.000    0.000    0.000 
#    0.000    0.000    0.000    0.000    0.000    0.000 
#
# Total GULP energy -245108.615022 kJ/mol
# GULP energy per Si atom -5570.650341 kJ/mol
# Density = 2.152458 g / cm^3
# Si number density = 21.573678 Si / 1000 Ang^3
#
#
#
# Elastic Constant Matrix: (Units=GPa)
#
#
# Indices 1 2 3 4 5 6 
#
# 1 128.0009 21.3256 14.0204 0.0000 0.0000 0.0000
# 2 21.3256 65.6969 7.8438 0.0000 0.0000 0.0000
# 3 14.0204 7.8438 26.1200 0.0000 0.0000 0.0000
# 4 0.0000 0.0000 0.0000 -79.4897 0.0000 0.0000
# 5 0.0000 0.0000 0.0000 0.0000 18.8679 0.0000
# 6 0.0000 0.0000 0.0000 0.0000 0.0000 38.9841
#
#
#
# Elastic Compliance Matrix: (Units=1/GPa)
#
#
# Indices 1 2 3 4 5 6 
#
# 1 0.008632 -0.002332 -0.003933 0.000000 0.000000 0.000000
# 2 -0.002332 0.016418 -0.003678 0.000000 0.000000 0.000000
# 3 -0.003933 -0.003678 0.041501 0.000000 0.000000 0.000000
# 4 0.000000 0.000000 0.000000 -0.012580 0.000000 0.000000
# 5 0.000000 0.000000 0.000000 0.000000 0.053000 0.000000
# 6 0.000000 0.000000 0.000000 0.000000 0.000000 0.025651
#
#
# Mechanical properties :
#
#
# Convention : Reuss Voigt Hill
#
# Bulk Modulus (GPa) = 21.43028 34.02195 27.72611
# Shear Modulus (GPa) = 29.75078 7.44764 18.59921
#
# Velocity S-wave (km/s) = 3.71756 1.86002 2.93938
# Velocity P-wave (km/s) = 5.32748 4.51855 4.93960
#
# Compressibility (1/GPa) = 0.04666295
#
# Stress axis : x y z
#
# Youngs Moduli (GPa) = 115.85043 60.90990 24.09606
#
# Poissons Ratio (x) = 0.14206 0.09477
# Poissons Ratio (y) = 0.27021 0.08863
# Poissons Ratio (z) = 0.45563 0.22404
#
# Static dielectric constant tensor:
#      x y z
#    x 1.767650 0.000000 0.000000 
#    y 0.000000 1.873920 0.000000 
#    z 0.000000 0.000000 1.865750 
# 
# From -- ./inp_files/54333.got.cif
#   From: 2010.05.17/outbox.cif.g08.bks.cpg/sg70_28_cif.got.tgz:54333.got - 2010.06.03 15:57:51.
