data_PCOD9515661
_publ_section_title
;
Structure prediction by ZEFSAII (Michael W. Deem and Ramdas Pophale) SiO2 
 PCOD9515661
Probable space group: F D D D
;
_chemical_formula_sum "Si O2"
_cell_formula_units_Z 128
_cell_length_a 26.879483
_cell_length_b 25.512904
_cell_length_c 8.104027
_cell_angle_alpha 90.000000
_cell_angle_beta 90.000000
_cell_angle_gamma 90.000000
_cell_volume 5557.528332
_symmetry_space_group_name_H-M "F D D D"
_symmetry_group_IT_number 70
_space_group.IT_coordinate_system_code '2'
_symmetry_cell_setting 'orthorhombic'
loop_
_space_group_symop_operation_xyz
x,y,z
1/4-x,1/4-y,z
x,1/4-y,1/4-z
1/4-x,y,1/4-z
-x,-y,-z
3/4+x,3/4+y,-z
-x,3/4+y,3/4+z
3/4+x,-y,3/4+z
x,1/2+y,1/2+z
1/4-x,3/4-y,1/2+z
x,3/4-y,3/4-z
1/4-x,1/2+y,3/4-z
-x,1/2-y,1/2-z
3/4+x,1/4+y,1/2-z
-x,1/4+y,1/4+z
3/4+x,1/2-y,1/4+z
1/2+x,y,1/2+z
3/4-x,1/4-y,1/2+z
1/2+x,1/4-y,3/4-z
3/4-x,y,3/4-z
1/2-x,-y,1/2-z
1/4+x,3/4+y,1/2-z
1/2-x,3/4+y,1/4+z
1/4+x,-y,1/4+z
1/2+x,1/2+y,z
3/4-x,3/4-y,z
1/2+x,3/4-y,1/4-z
3/4-x,1/2+y,1/4-z
1/2-x,1/2-y,-z
1/4+x,1/4+y,-z
1/2-x,1/4+y,3/4+z
1/4+x,1/2-y,3/4+z
loop_
_atom_site_type_symbol
_atom_site_label
_atom_site_fract_x
_atom_site_fract_y
_atom_site_fract_z
Si Si1 0.375000 0.251684 0.375000
Si Si2 0.731730 0.533280 0.523367
Si Si3 0.882745 0.693008 0.712638
Si Si4 0.499965 0.683457 0.153517
Si Si5 0.949233 0.625000 0.125000
O O1 0.426430 0.281368 0.406403
O O2 0.383618 0.217969 0.209742
O O3 0.728535 0.549078 0.329740
O O4 0.755652 0.475095 0.496374
O O5 0.764363 0.574880 0.625129
O O6 0.940173 0.680812 0.681475
O O7 0.842350 0.647053 0.751860
O O8 0.875000 0.728648 0.875000
O O9 0.518329 0.625000 0.125000
#
# Coordination Sequence:
#
# PCOD9515661 Si02
#       5
#    16  32  32  32  16
#     4  10  26  47  68 100 152 206 245 316 380 464
#     4  10  24  42  68 108 148 197 253 307 384 463
#     4  11  23  41  72 108 142 185 257 325 378 436
#     4  10  21  44  72 105 148 192 251 323 381 450
#     4  12  24  39  70 110 148 190 247 320 378 448
#
# _framework density 23.031821999999998
#
# number of rings (size 3 to 8) (size 9 to 14) (size 15 to 20)
#    0.000    1.500    3.750    0.000    8.750    1.500 
#    0.000    0.000    0.000    0.000    0.000    0.000 
#    0.000    0.000    0.000    0.000    0.000    0.000 
#
# Total GULP energy -178218.831991 kJ/mol
# GULP energy per Si atom -5569.338500 kJ/mol
# Density = 2.297940 g / cm^3
# Si number density = 23.031822 Si / 1000 Ang^3
#
#
#
# Elastic Constant Matrix: (Units=GPa)
#
#
# Indices 1 2 3 4 5 6 
#
# 1 127.1307 43.3051 53.9971 -0.0021 -0.0020 -0.0112
# 2 43.3051 121.8488 39.3276 -0.0028 0.0017 -0.0170
# 3 53.9971 39.3276 120.4259 0.0020 -0.0006 -0.0148
# 4 -0.0021 -0.0028 0.0020 16.3019 0.0001 -0.0272
# 5 -0.0020 0.0017 -0.0006 0.0001 44.2223 0.0164
# 6 -0.0112 -0.0170 -0.0148 -0.0272 0.0164 -72.5846
#
#
#
# Elastic Compliance Matrix: (Units=1/GPa)
#
#
# Indices 1 2 3 4 5 6 
#
# 1 0.010323 -0.002431 -0.003835 0.000001 0.000001 0.000000
# 2 -0.002431 0.009746 -0.002093 0.000002 -0.000001 -0.000001
# 3 -0.003835 -0.002093 0.010707 -0.000002 0.000000 -0.000001
# 4 0.000001 0.000002 -0.000002 0.061342 0.000000 -0.000023
# 5 0.000001 -0.000001 0.000000 0.000000 0.022613 0.000005
# 6 0.000000 -0.000001 -0.000001 -0.000023 0.000005 -0.013777
#
#
# Mechanical properties :
#
#
# Convention : Reuss Voigt Hill
#
# Bulk Modulus (GPa) = 71.13002 71.40723 71.26862
# Shear Modulus (GPa) = 40.86386 13.10630 26.98508
#
# Velocity S-wave (km/s) = 4.21674 2.38807 3.42664
# Velocity P-wave (km/s) = 7.39312 6.21891 6.83129
#
# Compressibility (1/GPa) = 0.01405876
#
# Stress axis : x y z
#
# Youngs Moduli (GPa) = 96.87353 102.60234 93.39930
#
# Poissons Ratio (x) = 0.24943 0.35815
# Poissons Ratio (y) = 0.23550 0.19547
# Poissons Ratio (z) = 0.37148 0.21473
#
# Static dielectric constant tensor:
#      x y z
#    x 1.840280 -0.000010 0.000020 
#    y -0.000010 2.058490 0.000020 
#    z 0.000020 0.000020 2.197160 
# 
# From -- ./inp_files/12065.got.cif
#   From: 2010.05.17/outbox.cif.g08.bks.cpg/sg70_7_cif.got.tgz:12065.got - 2010.06.03 15:57:51.
