data_PCOD9515460
_publ_section_title
;
Structure prediction by ZEFSAII (Michael W. Deem and Ramdas Pophale) SiO2 
 PCOD9515460
Probable space group: F D D D
;
_chemical_formula_sum "Si O2"
_cell_formula_units_Z 144
_cell_length_a 24.377525
_cell_length_b 26.890343
_cell_length_c 10.613286
_cell_angle_alpha 90.000000
_cell_angle_beta 90.000000
_cell_angle_gamma 90.000000
_cell_volume 6957.221331
_symmetry_space_group_name_H-M "F D D D"
_symmetry_group_IT_number 70
_space_group.IT_coordinate_system_code '2'
_symmetry_cell_setting 'orthorhombic'
loop_
_space_group_symop_operation_xyz
x,y,z
1/4-x,1/4-y,z
x,1/4-y,1/4-z
1/4-x,y,1/4-z
-x,-y,-z
3/4+x,3/4+y,-z
-x,3/4+y,3/4+z
3/4+x,-y,3/4+z
x,1/2+y,1/2+z
1/4-x,3/4-y,1/2+z
x,3/4-y,3/4-z
1/4-x,1/2+y,3/4-z
-x,1/2-y,1/2-z
3/4+x,1/4+y,1/2-z
-x,1/4+y,1/4+z
3/4+x,1/2-y,1/4+z
1/2+x,y,1/2+z
3/4-x,1/4-y,1/2+z
1/2+x,1/4-y,3/4-z
3/4-x,y,3/4-z
1/2-x,-y,1/2-z
1/4+x,3/4+y,1/2-z
1/2-x,3/4+y,1/4+z
1/4+x,-y,1/4+z
1/2+x,1/2+y,z
3/4-x,3/4-y,z
1/2+x,3/4-y,1/4-z
3/4-x,1/2+y,1/4-z
1/2-x,1/2-y,-z
1/4+x,1/4+y,-z
1/2-x,1/4+y,3/4+z
1/4+x,1/2-y,3/4+z
loop_
_atom_site_type_symbol
_atom_site_label
_atom_site_fract_x
_atom_site_fract_y
_atom_site_fract_z
Si Si1 0.688218 0.828986 0.099400
Si Si2 0.217001 0.487312 0.429802
Si Si3 0.686532 0.943926 0.173252
Si Si4 0.092687 0.079695 0.256115
Si Si5 0.510282 0.875000 0.375000
O O1 0.625000 0.816052 0.125000
O O2 0.721252 0.790132 0.185613
O O3 0.695709 0.885902 0.143667
O O4 0.704778 0.834488 0.952524
O O5 0.271982 0.516805 0.391588
O O6 0.199069 0.449486 0.321266
O O7 0.168042 0.528082 0.428099
O O8 0.625000 0.954740 0.125000
O O9 0.125000 0.125000 0.321827
O O10 0.125000 0.071105 0.125000
O O11 0.032550 0.098907 0.218739
#
# Coordination Sequence:
#
# PCOD9515460 Si02
#       5
#    32  32  32  32  16
#     4  11  24  38  65  93 123 166 216 267 320 388
#     4  11  22  41  65  93 125 174 211 260 328 382
#     4  10  24  42  62  92 133 166 216 267 313 389
#     4   9  20  38  60  88 126 156 203 264 315 374
#     4  10  21  40  58  92 122 162 207 270 312 372
#
# _framework density 20.69792
#
# number of rings (size 3 to 8) (size 9 to 14) (size 15 to 20)
#    0.000    2.000    2.222    1.333    6.222    4.444 
#    0.000    0.000    0.000    0.000    0.000    0.000 
#    0.000    0.000    0.000    0.000    0.000    0.000 
#
# Total GULP energy -200665.607913 kJ/mol
# GULP energy per Si atom -5574.044664 kJ/mol
# Density = 2.065081 g / cm^3
# Si number density = 20.697920 Si / 1000 Ang^3
#
#
#
# Elastic Constant Matrix: (Units=GPa)
#
#
# Indices 1 2 3 4 5 6 
#
# 1 75.0607 25.1927 29.1332 0.0001 -0.0002 -0.0001
# 2 25.1927 70.8203 13.3668 0.0000 0.0000 0.0000
# 3 29.1332 13.3668 51.3559 0.0000 -0.0003 -0.0001
# 4 0.0001 0.0000 0.0000 9.6521 -0.0001 0.0000
# 5 -0.0002 0.0000 -0.0003 -0.0001 14.5491 0.0001
# 6 -0.0001 0.0000 -0.0001 0.0000 0.0001 18.9100
#
#
#
# Elastic Compliance Matrix: (Units=1/GPa)
#
#
# Indices 1 2 3 4 5 6 
#
# 1 0.018543 -0.004849 -0.009257 0.000000 0.000000 0.000000
# 2 -0.004849 0.016118 -0.001444 0.000000 0.000000 0.000000
# 3 -0.009257 -0.001444 0.025099 0.000000 0.000000 0.000000
# 4 0.000000 0.000000 0.000000 0.103604 0.000000 0.000000
# 5 0.000000 0.000000 0.000000 0.000000 0.068733 0.000000
# 6 0.000000 0.000000 0.000000 0.000000 0.000000 0.052882
#
#
# Mechanical properties :
#
#
# Convention : Reuss Voigt Hill
#
# Bulk Modulus (GPa) = 34.89274 36.95801 35.92538
# Shear Modulus (GPa) = 15.35472 17.25852 16.30662
#
# Velocity S-wave (km/s) = 2.72664 2.89074 2.80989
# Velocity P-wave (km/s) = 5.17759 5.38855 5.28413
#
# Compressibility (1/GPa) = 0.02865926
#
# Stress axis : x y z
#
# Youngs Moduli (GPa) = 53.92890 62.04323 39.84195
#
# Poissons Ratio (x) = 0.30085 0.36881
# Poissons Ratio (y) = 0.26150 0.05754
# Poissons Ratio (z) = 0.49922 0.08961
#
# Static dielectric constant tensor:
#      x y z
#    x 1.775260 0.000000 0.000000 
#    y 0.000000 1.775530 0.000000 
#    z 0.000000 0.000000 1.833800 
# 
# From -- ./inp_files/19226.got.cif
#   From: 2010.05.17/outbox.cif.g08.bks.cpg/sg70_10_cif.got.tgz:19226.got - 2010.06.03 15:57:51.
