data_PCOD9515233
_publ_section_title
;
Structure prediction by ZEFSAII (Michael W. Deem and Ramdas Pophale) SiO2 
 PCOD9515233
Probable space group: F D D D
;
_chemical_formula_sum "Si O2"
_cell_formula_units_Z 192
_cell_length_a 21.447207
_cell_length_b 26.264390
_cell_length_c 15.018952
_cell_angle_alpha 90.000000
_cell_angle_beta 90.000000
_cell_angle_gamma 90.000000
_cell_volume 8460.142756
_symmetry_space_group_name_H-M "F D D D"
_symmetry_group_IT_number 70
_space_group.IT_coordinate_system_code '2'
_symmetry_cell_setting 'orthorhombic'
loop_
_space_group_symop_operation_xyz
x,y,z
1/4-x,1/4-y,z
x,1/4-y,1/4-z
1/4-x,y,1/4-z
-x,-y,-z
3/4+x,3/4+y,-z
-x,3/4+y,3/4+z
3/4+x,-y,3/4+z
x,1/2+y,1/2+z
1/4-x,3/4-y,1/2+z
x,3/4-y,3/4-z
1/4-x,1/2+y,3/4-z
-x,1/2-y,1/2-z
3/4+x,1/4+y,1/2-z
-x,1/4+y,1/4+z
3/4+x,1/2-y,1/4+z
1/2+x,y,1/2+z
3/4-x,1/4-y,1/2+z
1/2+x,1/4-y,3/4-z
3/4-x,y,3/4-z
1/2-x,-y,1/2-z
1/4+x,3/4+y,1/2-z
1/2-x,3/4+y,1/4+z
1/4+x,-y,1/4+z
1/2+x,1/2+y,z
3/4-x,3/4-y,z
1/2+x,3/4-y,1/4-z
3/4-x,1/2+y,1/4-z
1/2-x,1/2-y,-z
1/4+x,1/4+y,-z
1/2-x,1/4+y,3/4+z
1/4+x,1/2-y,3/4+z
loop_
_atom_site_type_symbol
_atom_site_label
_atom_site_fract_x
_atom_site_fract_y
_atom_site_fract_z
Si Si1 0.625000 0.863225 0.125000
Si Si2 0.637008 0.823785 0.928416
Si Si3 0.055437 0.041166 0.514540
Si Si4 0.125000 0.125000 0.302521
Si Si5 0.006119 0.167304 0.903752
Si Si6 0.999810 0.712648 0.061706
Si Si7 0.422792 0.776456 0.093582
O O1 0.617653 0.831445 0.215782
O O2 0.687306 0.897240 0.116375
O O3 0.654243 0.875000 0.875000
O O4 0.565560 0.809538 0.906213
O O5 0.678377 0.775956 0.897211
O O6 0.049634 0.057056 0.616281
O O7 0.120708 0.017666 0.483689
O O8 0.039909 0.084982 0.443385
O O9 0.000000 0.000000 0.500000
O O10 0.196755 0.140962 0.275281
O O11 0.145188 0.070913 0.345904
O O12 0.002258 0.226131 0.931460
O O13 0.017384 0.703522 0.959447
#
# Coordination Sequence:
#
# PCOD9515233 Si02
#       7
#    16  32  32  16  32  32  32
#     4  12  26  40  70 105 131 188 232 292 342 424
#     4  12  25  44  64 101 143 171 231 292 349 408
#     4   9  17  33  58  91 126 167 207 262 335 412
#     4  10  20  44  63  89 130 176 222 276 342 404
#     4  10  21  38  65  93 130 174 226 272 352 401
#     4  11  21  37  65  92 136 179 219 274 344 417
#     4  11  22  39  63  95 131 178 221 280 339 419
#
# _framework density 22.694652999999999
#
# number of rings (size 3 to 8) (size 9 to 14) (size 15 to 20)
#    0.000    1.333    5.000    3.500    7.000    1.333 
#    0.000    6.667    0.000    0.500    0.000    0.000 
#    0.000    0.000    0.000    0.000    0.000    0.000 
#
# Total GULP energy -267325.992720 kJ/mol
# GULP energy per Si atom -5569.291515 kJ/mol
# Density = 2.264300 g / cm^3
# Si number density = 22.694653 Si / 1000 Ang^3
#
#
#
# Elastic Constant Matrix: (Units=GPa)
#
#
# Indices 1 2 3 4 5 6 
#
# 1 59.3759 -1.1605 -20.8995 0.0000 0.0000 0.0000
# 2 -1.1605 111.6296 15.6198 0.0000 0.0000 0.0000
# 3 -20.8995 15.6198 65.6659 0.0000 0.0000 0.0000
# 4 0.0000 0.0000 0.0000 17.1723 0.0000 0.0000
# 5 0.0000 0.0000 0.0000 0.0000 19.2786 0.0000
# 6 0.0000 0.0000 0.0000 0.0000 0.0000 27.8536
#
#
#
# Elastic Compliance Matrix: (Units=1/GPa)
#
#
# Indices 1 2 3 4 5 6 
#
# 1 0.019015 -0.000671 0.006212 0.000000 0.000000 0.000000
# 2 -0.000671 0.009290 -0.002424 0.000000 0.000000 0.000000
# 3 0.006212 -0.002424 0.017782 0.000000 0.000000 0.000000
# 4 0.000000 0.000000 0.000000 0.058233 0.000000 0.000000
# 5 0.000000 0.000000 0.000000 0.000000 0.051871 0.000000
# 6 0.000000 0.000000 0.000000 0.000000 0.000000 0.035902
#
#
# Mechanical properties :
#
#
# Convention : Reuss Voigt Hill
#
# Bulk Modulus (GPa) = 19.11285 24.86565 21.98925
# Shear Modulus (GPa) = 24.59408 29.06834 26.83121
#
# Velocity S-wave (km/s) = 3.29552 3.58277 3.44215
# Velocity P-wave (km/s) = 4.78755 5.30051 5.05055
#
# Compressibility (1/GPa) = 0.05232081
#
# Stress axis : x y z
#
# Youngs Moduli (GPa) = 52.58966 107.63873 56.23637
#
# Poissons Ratio (x) = 0.07228 -0.34932
# Poissons Ratio (y) = 0.03531 0.13629
# Poissons Ratio (z) = -0.32667 0.26087
#
# Static dielectric constant tensor:
#      x y z
#    x 1.990540 0.000000 0.000000 
#    y 0.000000 1.847930 0.000000 
#    z 0.000000 0.000000 1.983920 
# 
# From -- ./inp_files/29004.got.cif
#   From: 2010.05.17/outbox.cif.g08.bks.cpg/sg70_15_cif.got.tgz:29004.got - 2010.06.03 15:57:51.
