data_PCOD9515875
_publ_section_title
;
Structure prediction by ZEFSAII (Michael W. Deem and Ramdas Pophale) SiO2 
 PCOD9515875
Probable space group: F D D D
;
_chemical_formula_sum "Si O2"
_cell_formula_units_Z 168
_cell_length_a 24.933720
_cell_length_b 15.912690
_cell_length_c 15.465050
_cell_angle_alpha 90.000000
_cell_angle_beta 90.000000
_cell_angle_gamma 90.000000
_cell_volume 6135.952781
_symmetry_space_group_name_H-M "F D D D"
_symmetry_group_IT_number 70
_space_group.IT_coordinate_system_code '2'
_symmetry_cell_setting 'orthorhombic'
loop_
_space_group_symop_operation_xyz
x,y,z
1/4-x,1/4-y,z
x,1/4-y,1/4-z
1/4-x,y,1/4-z
-x,-y,-z
3/4+x,3/4+y,-z
-x,3/4+y,3/4+z
3/4+x,-y,3/4+z
x,1/2+y,1/2+z
1/4-x,3/4-y,1/2+z
x,3/4-y,3/4-z
1/4-x,1/2+y,3/4-z
-x,1/2-y,1/2-z
3/4+x,1/4+y,1/2-z
-x,1/4+y,1/4+z
3/4+x,1/2-y,1/4+z
1/2+x,y,1/2+z
3/4-x,1/4-y,1/2+z
1/2+x,1/4-y,3/4-z
3/4-x,y,3/4-z
1/2-x,-y,1/2-z
1/4+x,3/4+y,1/2-z
1/2-x,3/4+y,1/4+z
1/4+x,-y,1/4+z
1/2+x,1/2+y,z
3/4-x,3/4-y,z
1/2+x,3/4-y,1/4-z
3/4-x,1/2+y,1/4-z
1/2-x,1/2-y,-z
1/4+x,1/4+y,-z
1/2-x,1/4+y,3/4+z
1/4+x,1/2-y,3/4+z
loop_
_atom_site_type_symbol
_atom_site_label
_atom_site_fract_x
_atom_site_fract_y
_atom_site_fract_z
Si Si1 0.283068 0.862469 0.749751
Si Si2 0.372276 0.276604 0.723416
Si Si3 0.325869 0.045699 0.702310
Si Si4 0.731094 0.707224 0.181947
Si Si5 0.181288 0.868997 0.481506
Si Si6 0.875000 0.875000 0.375000
O O1 0.225907 0.894522 0.787523
O O2 0.268351 0.791959 0.677489
O O3 0.330193 0.828607 0.814121
O O4 0.308569 0.951740 0.725793
O O5 0.375000 0.375000 0.704008
O O6 0.350447 0.223443 0.642127
O O7 0.327388 0.263031 0.794341
O O8 0.426293 0.229025 0.751643
O O9 0.376030 0.085209 0.754234
O O10 0.718281 0.625000 0.125000
O O11 0.764790 0.663845 0.261971
O O12 0.187372 0.875000 0.375000
#
# Coordination Sequence:
#
# PCOD9515875 Si02
#       6
#    32  32  32  32  32   8
#     4  11  23  41  67 107 144 182 236 310 370 439
#     4  11  24  41  68  96 139 191 245 306 362 437
#     4  10  22  41  70  99 139 187 244 306 371 432
#     4  11  24  43  70 100 145 195 245 294 367 454
#     4   9  20  39  64  96 130 182 237 294 353 431
#     4  12  24  36  76 108 152 176 232 316 374 428
#
# _framework density 27.37961
#
# number of rings (size 3 to 8) (size 9 to 14) (size 15 to 20)
#    0.000    1.524    1.905    2.286   10.667    1.143 
#    0.000    0.000    0.000    0.000    0.000    0.000 
#    0.000    0.000    0.000    0.000    0.000    0.000 
#
# Total GULP energy -233903.677696 kJ/mol
# GULP energy per Si atom -5569.135183 kJ/mol
# Density = 2.731729 g / cm^3
# Si number density = 27.379610 Si / 1000 Ang^3
#
#
#
# Elastic Constant Matrix: (Units=GPa)
#
#
# Indices 1 2 3 4 5 6 
#
# 1 53.7452 4.9275 -7.7245 0.0000 0.0000 0.0000
# 2 4.9275 175.8851 19.7031 0.0000 0.0000 0.0000
# 3 -7.7245 19.7031 36.9545 0.0000 0.0000 0.0000
# 4 0.0000 0.0000 0.0000 37.5160 0.0000 0.0000
# 5 0.0000 0.0000 0.0000 0.0000 12.8381 0.0000
# 6 0.0000 0.0000 0.0000 0.0000 0.0000 23.4939
#
#
#
# Elastic Compliance Matrix: (Units=1/GPa)
#
#
# Indices 1 2 3 4 5 6 
#
# 1 0.019366 -0.001059 0.004613 0.000000 0.000000 0.000000
# 2 -0.001059 0.006105 -0.003476 0.000000 0.000000 0.000000
# 3 0.004613 -0.003476 0.029878 0.000000 0.000000 0.000000
# 4 0.000000 0.000000 0.000000 0.026655 0.000000 0.000000
# 5 0.000000 0.000000 0.000000 0.000000 0.077893 0.000000
# 6 0.000000 0.000000 0.000000 0.000000 0.000000 0.042564
#
#
# Mechanical properties :
#
#
# Convention : Reuss Voigt Hill
#
# Bulk Modulus (GPa) = 18.01680 33.37743 25.69712
# Shear Modulus (GPa) = 22.64407 31.41485 27.02946
#
# Velocity S-wave (km/s) = 2.87895 3.39098 3.14540
# Velocity P-wave (km/s) = 4.20069 5.24869 4.75366
#
# Compressibility (1/GPa) = 0.05550375
#
# Stress axis : x y z
#
# Youngs Moduli (GPa) = 51.63580 163.81033 33.46948
#
# Poissons Ratio (x) = 0.17352 -0.15439
# Poissons Ratio (y) = 0.05470 0.11635
# Poissons Ratio (z) = -0.23819 0.56944
#
# Static dielectric constant tensor:
#      x y z
#    x 2.271540 0.000000 0.000000 
#    y 0.000000 2.333990 0.000000 
#    z 0.000000 0.000000 2.337430 
# 
# From -- ./inp_files/46778.got.cif
#   From: 2010.05.17/outbox.cif.g08.bks.cpg/sg70_24_cif.got.tgz:46778.got - 2010.06.03 15:57:51.
