data_PCOD9515780
_publ_section_title
;
Structure prediction by ZEFSAII (Michael W. Deem and Ramdas Pophale) SiO2 
 PCOD9515780
Probable space group: F D D D
;
_chemical_formula_sum "Si O2"
_cell_formula_units_Z 168
_cell_length_a 16.048783
_cell_length_b 19.677245
_cell_length_c 25.615904
_cell_angle_alpha 90.000000
_cell_angle_beta 90.000000
_cell_angle_gamma 90.000000
_cell_volume 8089.395794
_symmetry_space_group_name_H-M "F D D D"
_symmetry_group_IT_number 70
_space_group.IT_coordinate_system_code '2'
_symmetry_cell_setting 'orthorhombic'
loop_
_space_group_symop_operation_xyz
x,y,z
1/4-x,1/4-y,z
x,1/4-y,1/4-z
1/4-x,y,1/4-z
-x,-y,-z
3/4+x,3/4+y,-z
-x,3/4+y,3/4+z
3/4+x,-y,3/4+z
x,1/2+y,1/2+z
1/4-x,3/4-y,1/2+z
x,3/4-y,3/4-z
1/4-x,1/2+y,3/4-z
-x,1/2-y,1/2-z
3/4+x,1/4+y,1/2-z
-x,1/4+y,1/4+z
3/4+x,1/2-y,1/4+z
1/2+x,y,1/2+z
3/4-x,1/4-y,1/2+z
1/2+x,1/4-y,3/4-z
3/4-x,y,3/4-z
1/2-x,-y,1/2-z
1/4+x,3/4+y,1/2-z
1/2-x,3/4+y,1/4+z
1/4+x,-y,1/4+z
1/2+x,1/2+y,z
3/4-x,3/4-y,z
1/2+x,3/4-y,1/4-z
3/4-x,1/2+y,1/4-z
1/2-x,1/2-y,-z
1/4+x,1/4+y,-z
1/2-x,1/4+y,3/4+z
1/4+x,1/2-y,3/4+z
loop_
_atom_site_type_symbol
_atom_site_label
_atom_site_fract_x
_atom_site_fract_y
_atom_site_fract_z
Si Si1 0.863587 0.639018 0.290976
Si Si2 0.212486 0.662349 0.312804
Si Si3 0.375000 0.875000 0.875000
Si Si4 0.730014 0.024989 0.052197
Si Si5 0.901444 0.086801 0.070073
Si Si6 0.043459 0.495000 0.596010
O O1 0.808983 0.701255 0.310510
O O2 0.862183 0.637219 0.228321
O O3 0.826417 0.567555 0.311270
O O4 0.959098 0.639735 0.310218
O O5 0.125000 0.625000 0.318909
O O6 0.215844 0.702023 0.257722
O O7 0.233192 0.713397 0.359775
O O8 0.317678 0.921729 0.911290
O O9 0.827635 0.031702 0.064600
O O10 0.895862 0.125000 0.125000
O O11 0.990708 0.050746 0.065889
O O12 0.125000 0.523776 0.625000
#
# Coordination Sequence:
#
# PCOD9515780 Si02
#       6
#    32  32   8  32  32  32
#     4  10  24  42  64  96 133 173 216 275 328 394
#     4  10  22  40  61  95 129 173 218 268 325 390
#     4  12  24  40  64  96 138 176 210 268 330 388
#     4  11  24  42  62  97 134 168 221 267 333 392
#     4  11  23  43  67  96 128 171 219 271 328 393
#     4  10  23  42  64  96 129 169 223 268 326 396
#
# _framework density 20.76793
#
# number of rings (size 3 to 8) (size 9 to 14) (size 15 to 20)
#    0.000    1.524    1.905    1.714    6.667    1.143 
#    0.000    1.905    0.000    0.000    0.000    0.000 
#    0.000    0.000    0.000    0.000    0.000    0.000 
#
# Total GULP energy -234911.298774 kJ/mol
# GULP energy per Si atom -5593.126161 kJ/mol
# Density = 2.072066 g / cm^3
# Si number density = 20.767930 Si / 1000 Ang^3
#
#
#
# Elastic Constant Matrix: (Units=GPa)
#
#
# Indices 1 2 3 4 5 6 
#
# 1 130.1861 36.7596 -0.1422 0.0000 0.0000 0.0000
# 2 36.7596 50.0552 -8.7871 0.0000 0.0000 0.0000
# 3 -0.1422 -8.7871 81.0897 0.0000 0.0000 0.0000
# 4 0.0000 0.0000 0.0000 13.5742 0.0000 0.0000
# 5 0.0000 0.0000 0.0000 0.0000 27.4303 0.0000
# 6 0.0000 0.0000 0.0000 0.0000 0.0000 32.8978
#
#
#
# Elastic Compliance Matrix: (Units=1/GPa)
#
#
# Indices 1 2 3 4 5 6 
#
# 1 0.009738 -0.007287 -0.000773 0.000000 0.000000 0.000000
# 2 -0.007287 0.025818 0.002785 0.000000 0.000000 0.000000
# 3 -0.000773 0.002785 0.012632 0.000000 0.000000 0.000000
# 4 0.000000 0.000000 0.000000 0.073669 0.000000 0.000000
# 5 0.000000 0.000000 0.000000 0.000000 0.036456 0.000000
# 6 0.000000 0.000000 0.000000 0.000000 0.000000 0.030397
#
#
# Mechanical properties :
#
#
# Convention : Reuss Voigt Hill
#
# Bulk Modulus (GPa) = 26.56784 35.22129 30.89456
# Shear Modulus (GPa) = 23.60638 30.34719 26.97678
#
# Velocity S-wave (km/s) = 3.37512 3.82678 3.60802
# Velocity P-wave (km/s) = 5.29236 6.04334 5.68027
#
# Compressibility (1/GPa) = 0.03763949
#
# Stress axis : x y z
#
# Youngs Moduli (GPa) = 102.68986 38.73213 79.16119
#
# Poissons Ratio (x) = 0.28224 0.06116
# Poissons Ratio (y) = 0.74831 -0.22046
# Poissons Ratio (z) = 0.07933 -0.10787
#
# Static dielectric constant tensor:
#      x y z
#    x 1.732620 0.000000 0.000000 
#    y 0.000000 1.733210 0.000000 
#    z 0.000000 0.000000 1.742160 
# 
# From -- ./inp_files/29856.got.cif
#   From: 2010.05.17/outbox.cif.g08.bks.cpg/sg70_15_cif.got.tgz:29856.got - 2010.06.03 15:57:51.
