data_PCOD9515727
_publ_section_title
;
Structure prediction by ZEFSAII (Michael W. Deem and Ramdas Pophale) SiO2 
 PCOD9515727
Probable space group: F D D D
;
_chemical_formula_sum "Si O2"
_cell_formula_units_Z 176
_cell_length_a 31.692925
_cell_length_b 21.839347
_cell_length_c 12.690483
_cell_angle_alpha 90.000000
_cell_angle_beta 90.000000
_cell_angle_gamma 90.000000
_cell_volume 8783.753171
_symmetry_space_group_name_H-M "F D D D"
_symmetry_group_IT_number 70
_space_group.IT_coordinate_system_code '2'
_symmetry_cell_setting 'orthorhombic'
loop_
_space_group_symop_operation_xyz
x,y,z
1/4-x,1/4-y,z
x,1/4-y,1/4-z
1/4-x,y,1/4-z
-x,-y,-z
3/4+x,3/4+y,-z
-x,3/4+y,3/4+z
3/4+x,-y,3/4+z
x,1/2+y,1/2+z
1/4-x,3/4-y,1/2+z
x,3/4-y,3/4-z
1/4-x,1/2+y,3/4-z
-x,1/2-y,1/2-z
3/4+x,1/4+y,1/2-z
-x,1/4+y,1/4+z
3/4+x,1/2-y,1/4+z
1/2+x,y,1/2+z
3/4-x,1/4-y,1/2+z
1/2+x,1/4-y,3/4-z
3/4-x,y,3/4-z
1/2-x,-y,1/2-z
1/4+x,3/4+y,1/2-z
1/2-x,3/4+y,1/4+z
1/4+x,-y,1/4+z
1/2+x,1/2+y,z
3/4-x,3/4-y,z
1/2+x,3/4-y,1/4-z
3/4-x,1/2+y,1/4-z
1/2-x,1/2-y,-z
1/4+x,1/4+y,-z
1/2-x,1/4+y,3/4+z
1/4+x,1/2-y,3/4+z
loop_
_atom_site_type_symbol
_atom_site_label
_atom_site_fract_x
_atom_site_fract_y
_atom_site_fract_z
Si Si1 0.471238 0.502577 0.239871
Si Si2 0.608267 0.192203 0.905081
Si Si3 0.552603 0.875000 0.375000
Si Si4 0.878311 0.696339 0.752722
Si Si5 0.793355 0.064287 0.098120
Si Si6 0.162302 0.269169 0.560618
O O1 0.441569 0.453584 0.177744
O O2 0.471078 0.567103 0.177136
O O3 0.517066 0.479801 0.272970
O O4 0.446743 0.509099 0.350210
O O5 0.625000 0.125000 0.879904
O O6 0.618659 0.240663 0.813243
O O7 0.634007 0.214977 0.008788
O O8 0.583142 0.845473 0.286474
O O9 0.875000 0.708094 0.875000
O O10 0.834762 0.665796 0.716206
O O11 0.766834 0.125000 0.125000
O O12 0.810854 0.038837 0.208205
O O13 0.125000 0.306194 0.625000
#
# Coordination Sequence:
#
# PCOD9515727 Si02
#       6
#    32  32  16  32  32  32
#     4  10  22  38  60  90 127 164 201 265 320 373
#     4   9  20  38  59  88 123 164 209 249 323 389
#     4  10  22  42  64  86 123 176 215 250 324 394
#     4  10  22  40  64  87 116 168 216 258 304 384
#     4  11  23  36  59  98 124 152 210 262 316 372
#     4   9  20  37  61  89 120 163 201 247 313 370
#
# _framework density 20.036992999999999
#
# number of rings (size 3 to 8) (size 9 to 14) (size 15 to 20)
#    0.000    2.182    0.909    1.636    5.091    2.909 
#    0.000    7.273    0.000    0.000    0.000    0.000 
#    0.000    0.000    0.000    0.000    0.000    0.000 
#
# Total GULP energy -245019.874593 kJ/mol
# GULP energy per Si atom -5568.633513 kJ/mol
# Density = 1.999139 g / cm^3
# Si number density = 20.036993 Si / 1000 Ang^3
#
#
#
# Elastic Constant Matrix: (Units=GPa)
#
#
# Indices 1 2 3 4 5 6 
#
# 1 72.4741 33.6548 16.2173 0.0000 0.0000 0.0000
# 2 33.6548 113.3769 26.6794 0.0000 0.0000 0.0000
# 3 16.2173 26.6794 112.6473 0.0000 0.0000 0.0000
# 4 0.0000 0.0000 0.0000 14.3455 0.0000 0.0000
# 5 0.0000 0.0000 0.0000 0.0000 3.4232 0.0000
# 6 0.0000 0.0000 0.0000 0.0000 0.0000 -1.6021
#
#
#
# Elastic Compliance Matrix: (Units=1/GPa)
#
#
# Indices 1 2 3 4 5 6 
#
# 1 0.016172 -0.004504 -0.001262 0.000000 0.000000 0.000000
# 2 -0.004504 0.010595 -0.001861 0.000000 0.000000 0.000000
# 3 -0.001262 -0.001861 0.009500 0.000000 0.000000 0.000000
# 4 0.000000 0.000000 0.000000 0.069708 0.000000 0.000000
# 5 0.000000 0.000000 0.000000 0.000000 0.292120 0.000000
# 6 0.000000 0.000000 0.000000 0.000000 0.000000 -0.624181
#
#
# Mechanical properties :
#
#
# Convention : Reuss Voigt Hill
#
# Bulk Modulus (GPa) = 47.58703 50.17791 48.88247
# Shear Modulus (GPa) = -24.53029 18.02979 -3.25025
#
# Velocity S-wave (km/s) = -3.50272 3.00296 -1.27501
# Velocity P-wave (km/s) = 2.72807 6.09268 4.72033
#
# Compressibility (1/GPa) = 0.02101413
#
# Stress axis : x y z
#
# Youngs Moduli (GPa) = 61.83665 94.38520 105.26734
#
# Poissons Ratio (x) = 0.42507 0.13280
# Poissons Ratio (y) = 0.27848 0.19590
# Poissons Ratio (z) = 0.07801 0.17564
#
# Static dielectric constant tensor:
#      x y z
#    x 1.746420 0.000000 0.000000 
#    y 0.000000 1.771720 0.000000 
#    z 0.000000 0.000000 1.731690 
# 
# From -- ./inp_files/19655.got.cif
#   From: 2010.05.17/outbox.cif.g08.bks.cpg/sg70_10_cif.got.tgz:19655.got - 2010.06.03 15:57:51.
