data_PCOD9515566
_publ_section_title
;
Structure prediction by ZEFSAII (Michael W. Deem and Ramdas Pophale) SiO2 
 PCOD9515566
Probable space group: F D D D
;
_chemical_formula_sum "Si O2"
_cell_formula_units_Z 240
_cell_length_a 25.083361
_cell_length_b 20.029020
_cell_length_c 20.916875
_cell_angle_alpha 90.000000
_cell_angle_beta 90.000000
_cell_angle_gamma 90.000000
_cell_volume 10508.536326
_symmetry_space_group_name_H-M "F D D D"
_symmetry_group_IT_number 70
_space_group.IT_coordinate_system_code '2'
_symmetry_cell_setting 'orthorhombic'
loop_
_space_group_symop_operation_xyz
x,y,z
1/4-x,1/4-y,z
x,1/4-y,1/4-z
1/4-x,y,1/4-z
-x,-y,-z
3/4+x,3/4+y,-z
-x,3/4+y,3/4+z
3/4+x,-y,3/4+z
x,1/2+y,1/2+z
1/4-x,3/4-y,1/2+z
x,3/4-y,3/4-z
1/4-x,1/2+y,3/4-z
-x,1/2-y,1/2-z
3/4+x,1/4+y,1/2-z
-x,1/4+y,1/4+z
3/4+x,1/2-y,1/4+z
1/2+x,y,1/2+z
3/4-x,1/4-y,1/2+z
1/2+x,1/4-y,3/4-z
3/4-x,y,3/4-z
1/2-x,-y,1/2-z
1/4+x,3/4+y,1/2-z
1/2-x,3/4+y,1/4+z
1/4+x,-y,1/4+z
1/2+x,1/2+y,z
3/4-x,3/4-y,z
1/2+x,3/4-y,1/4-z
3/4-x,1/2+y,1/4-z
1/2-x,1/2-y,-z
1/4+x,1/4+y,-z
1/2-x,1/4+y,3/4+z
1/4+x,1/2-y,3/4+z
loop_
_atom_site_type_symbol
_atom_site_label
_atom_site_fract_x
_atom_site_fract_y
_atom_site_fract_z
Si Si1 0.563801 0.112610 0.268602
Si Si2 0.473456 0.486964 0.590680
Si Si3 0.105297 0.913053 0.052976
Si Si4 0.804112 0.762546 0.036675
Si Si5 0.764502 0.848939 0.711964
Si Si6 0.394956 0.158974 0.192708
Si Si7 0.212786 0.125000 0.625000
Si Si8 0.283912 0.218057 0.178235
O O1 0.625000 0.125000 0.291007
O O2 0.523734 0.170964 0.294986
O O3 0.565234 0.107378 0.191598
O O4 0.542903 0.041326 0.292832
O O5 0.470518 0.456847 0.661032
O O6 0.420733 0.519323 0.561280
O O7 0.509486 0.554022 0.601593
O O8 0.125000 0.924931 0.125000
O O9 0.045954 0.876929 0.056396
O O10 0.150914 0.873793 0.012233
O O11 0.097744 0.977445 0.007184
O O12 0.806495 0.841425 0.044810
O O13 0.790944 0.728104 0.103494
O O14 0.750000 0.750000 0.000000
O O15 0.763174 0.817711 0.783042
O O16 0.410644 0.125000 0.125000
O O17 0.332311 0.168438 0.192115
#
# Coordination Sequence:
#
# PCOD9515566 Si02
#       8
#    32  32  32  32  32  32  16  32
#     4  12  25  44  67  93 136 179 220 273 335 406
#     4  12  24  43  65  98 133 171 223 278 333 386
#     4  10  23  42  69 103 133 172 223 278 337 401
#     4  10  21  41  71  98 130 170 225 278 330 401
#     4  10  23  42  70 100 130 178 223 275 334 395
#     4  11  22  41  68  93 130 179 219 265 331 405
#     4  12  27  44  60 100 140 174 222 278 336 400
#     4  11  21  43  69  94 129 177 225 267 330 407
#
# _framework density 22.838574999999999
#
# number of rings (size 3 to 8) (size 9 to 14) (size 15 to 20)
#    0.000    1.067    6.000    0.600    0.000    2.133 
#    4.800    0.000    0.000    0.000    0.000    0.000 
#    0.000    0.000    0.000    0.000    0.000    0.000 
#
# Total GULP energy -334003.061040 kJ/mol
# GULP energy per Si atom -5566.717684 kJ/mol
# Density = 2.278659 g / cm^3
# Si number density = 22.838575 Si / 1000 Ang^3
#
#
#
# Elastic Constant Matrix: (Units=GPa)
#
#
# Indices 1 2 3 4 5 6 
#
# 1 31.7457 18.2709 24.5764 0.0000 0.0000 0.0000
# 2 18.2709 94.7134 38.2892 0.0000 0.0000 0.0000
# 3 24.5764 38.2892 189.9909 0.0000 0.0000 0.0000
# 4 0.0000 0.0000 0.0000 -18.0786 0.0000 0.0000
# 5 0.0000 0.0000 0.0000 0.0000 19.6758 0.0000
# 6 0.0000 0.0000 0.0000 0.0000 0.0000 9.8113
#
#
#
# Elastic Compliance Matrix: (Units=1/GPa)
#
#
# Indices 1 2 3 4 5 6 
#
# 1 0.037696 -0.005771 -0.003713 0.000000 0.000000 0.000000
# 2 -0.005771 0.012378 -0.001748 0.000000 0.000000 0.000000
# 3 -0.003713 -0.001748 0.006096 0.000000 0.000000 0.000000
# 4 0.000000 0.000000 0.000000 -0.055314 0.000000 0.000000
# 5 0.000000 0.000000 0.000000 0.000000 0.050824 0.000000
# 6 0.000000 0.000000 0.000000 0.000000 0.000000 0.101924
#
#
# Mechanical properties :
#
#
# Convention : Reuss Voigt Hill
#
# Bulk Modulus (GPa) = 29.66808 53.19142 41.42975
# Shear Modulus (GPa) = 26.69468 17.96928 22.33198
#
# Velocity S-wave (km/s) = 3.42254 2.80803 3.13040
# Velocity P-wave (km/s) = 5.35135 5.81843 5.58977
#
# Compressibility (1/GPa) = 0.03370626
#
# Stress axis : x y z
#
# Youngs Moduli (GPa) = 26.52779 80.78798 164.04104
#
# Poissons Ratio (x) = 0.46621 0.60912
# Poissons Ratio (y) = 0.15309 0.28676
# Poissons Ratio (z) = 0.09850 0.14123
#
# Static dielectric constant tensor:
#      x y z
#    x 1.944330 0.000000 0.000000 
#    y 0.000000 1.961420 0.000000 
#    z 0.000000 0.000000 1.742550 
# 
# From -- ./inp_files/47150.got.cif
#   From: 2010.05.17/outbox.cif.g08.bks.cpg/sg70_24_cif.got.tgz:47150.got - 2010.06.03 15:57:51.
