data_PCOD9515594
_publ_section_title
;
Structure prediction by ZEFSAII (Michael W. Deem and Ramdas Pophale) SiO2 
 PCOD9515594
Probable space group: F D D D
;
_chemical_formula_sum "Si O2"
_cell_formula_units_Z 144
_cell_length_a 15.098884
_cell_length_b 25.646643
_cell_length_c 17.048978
_cell_angle_alpha 90.000000
_cell_angle_beta 90.000000
_cell_angle_gamma 90.000000
_cell_volume 6601.972719
_symmetry_space_group_name_H-M "F D D D"
_symmetry_group_IT_number 70
_space_group.IT_coordinate_system_code '2'
_symmetry_cell_setting 'orthorhombic'
loop_
_space_group_symop_operation_xyz
x,y,z
1/4-x,1/4-y,z
x,1/4-y,1/4-z
1/4-x,y,1/4-z
-x,-y,-z
3/4+x,3/4+y,-z
-x,3/4+y,3/4+z
3/4+x,-y,3/4+z
x,1/2+y,1/2+z
1/4-x,3/4-y,1/2+z
x,3/4-y,3/4-z
1/4-x,1/2+y,3/4-z
-x,1/2-y,1/2-z
3/4+x,1/4+y,1/2-z
-x,1/4+y,1/4+z
3/4+x,1/2-y,1/4+z
1/2+x,y,1/2+z
3/4-x,1/4-y,1/2+z
1/2+x,1/4-y,3/4-z
3/4-x,y,3/4-z
1/2-x,-y,1/2-z
1/4+x,3/4+y,1/2-z
1/2-x,3/4+y,1/4+z
1/4+x,-y,1/4+z
1/2+x,1/2+y,z
3/4-x,3/4-y,z
1/2+x,3/4-y,1/4-z
3/4-x,1/2+y,1/4-z
1/2-x,1/2-y,-z
1/4+x,1/4+y,-z
1/2-x,1/4+y,3/4+z
1/4+x,1/2-y,3/4+z
loop_
_atom_site_type_symbol
_atom_site_label
_atom_site_fract_x
_atom_site_fract_y
_atom_site_fract_z
Si Si1 0.480791 0.382501 0.200324
Si Si2 0.706143 0.740480 0.721260
Si Si3 0.974893 0.394353 0.220687
Si Si4 0.798079 0.042141 0.183946
Si Si5 0.924919 0.625000 0.625000
O O1 0.375000 0.375000 0.198534
O O2 0.493702 0.440664 0.232269
O O3 0.515622 0.372314 0.112862
O O4 0.515716 0.338084 0.258530
O O5 0.761376 0.793759 0.729979
O O6 0.609189 0.753101 0.762713
O O7 0.723956 0.727619 0.628329
O O8 0.875000 0.375000 0.219659
O O9 0.020153 0.370346 0.296083
O O10 0.867581 0.072904 0.130405
#
# Coordination Sequence:
#
# PCOD9515594 Si02
#       5
#    32  32  32  32  16
#     4  11  24  43  69 102 143 179 240 297 362 445
#     4  11  24  44  73 102 145 195 239 302 384 435
#     4  10  23  43  67 100 139 179 237 297 358 442
#     4  11  23  44  68 104 144 185 243 299 364 445
#     4  10  21  42  67  90 140 176 228 302 347 422
#
# _framework density 21.811662999999999
#
# number of rings (size 3 to 8) (size 9 to 14) (size 15 to 20)
#    0.000    1.333    2.222    3.000    0.000   10.667 
#    0.000   14.444    0.000    0.000    0.000    0.000 
#    0.000    0.000    0.000    0.000    0.000    0.000 
#
# Total GULP energy -200938.569375 kJ/mol
# GULP energy per Si atom -5581.626927 kJ/mol
# Density = 2.176202 g / cm^3
# Si number density = 21.811663 Si / 1000 Ang^3
#
#
#
# Elastic Constant Matrix: (Units=GPa)
#
#
# Indices 1 2 3 4 5 6 
#
# 1 86.5890 45.7154 79.4812 0.0000 0.0000 0.0000
# 2 45.7154 158.9337 99.1775 0.0000 0.0000 0.0000
# 3 79.4812 99.1775 209.8737 0.0000 0.0000 0.0000
# 4 0.0000 0.0000 0.0000 30.9171 0.0000 0.0000
# 5 0.0000 0.0000 0.0000 0.0000 -40.9725 0.0000
# 6 0.0000 0.0000 0.0000 0.0000 0.0000 114.0416
#
#
#
# Elastic Compliance Matrix: (Units=1/GPa)
#
#
# Indices 1 2 3 4 5 6 
#
# 1 0.017891 -0.001302 -0.006160 0.000000 0.000000 0.000000
# 2 -0.001302 0.009018 -0.003768 0.000000 0.000000 0.000000
# 3 -0.006160 -0.003768 0.008878 0.000000 0.000000 0.000000
# 4 0.000000 0.000000 0.000000 0.032345 0.000000 0.000000
# 5 0.000000 0.000000 0.000000 0.000000 -0.024407 0.000000
# 6 0.000000 0.000000 0.000000 0.000000 0.000000 0.008769
#
#
# Mechanical properties :
#
#
# Convention : Reuss Voigt Hill
#
# Bulk Modulus (GPa) = 75.04118 100.46051 87.75085
# Shear Modulus (GPa) = 62.97472 36.19872 49.58672
#
# Velocity S-wave (km/s) = 5.37910 4.07824 4.77320
# Velocity P-wave (km/s) = 8.54742 8.26645 8.40811
#
# Compressibility (1/GPa) = 0.01332602
#
# Stress axis : x y z
#
# Youngs Moduli (GPa) = 55.89514 110.88903 112.63212
#
# Poissons Ratio (x) = 0.14438 0.69382
# Poissons Ratio (y) = 0.07278 0.42445
# Poissons Ratio (z) = 0.34432 0.41788
#
# Static dielectric constant tensor:
#      x y z
#    x 1.886770 0.000000 0.000000 
#    y 0.000000 1.757940 0.000000 
#    z 0.000000 0.000000 1.829580 
# 
# From -- ./inp_files/34888.got.cif
#   From: 2010.05.17/outbox.cif.g08.bks.cpg/sg70_18_cif.got.tgz:34888.got - 2010.06.03 15:57:51.
