data_PCOD9515931
_publ_section_title
;
Structure prediction by ZEFSAII (Michael W. Deem and Ramdas Pophale) SiO2 
 PCOD9515931
Probable space group: F D D D
;
_chemical_formula_sum "Si O2"
_cell_formula_units_Z 216
_cell_length_a 14.234142
_cell_length_b 28.136501
_cell_length_c 23.140294
_cell_angle_alpha 90.000000
_cell_angle_beta 90.000000
_cell_angle_gamma 90.000000
_cell_volume 9267.663464
_symmetry_space_group_name_H-M "F D D D"
_symmetry_group_IT_number 70
_space_group.IT_coordinate_system_code '2'
_symmetry_cell_setting 'orthorhombic'
loop_
_space_group_symop_operation_xyz
x,y,z
1/4-x,1/4-y,z
x,1/4-y,1/4-z
1/4-x,y,1/4-z
-x,-y,-z
3/4+x,3/4+y,-z
-x,3/4+y,3/4+z
3/4+x,-y,3/4+z
x,1/2+y,1/2+z
1/4-x,3/4-y,1/2+z
x,3/4-y,3/4-z
1/4-x,1/2+y,3/4-z
-x,1/2-y,1/2-z
3/4+x,1/4+y,1/2-z
-x,1/4+y,1/4+z
3/4+x,1/2-y,1/4+z
1/2+x,y,1/2+z
3/4-x,1/4-y,1/2+z
1/2+x,1/4-y,3/4-z
3/4-x,y,3/4-z
1/2-x,-y,1/2-z
1/4+x,3/4+y,1/2-z
1/2-x,3/4+y,1/4+z
1/4+x,-y,1/4+z
1/2+x,1/2+y,z
3/4-x,3/4-y,z
1/2+x,3/4-y,1/4-z
3/4-x,1/2+y,1/4-z
1/2-x,1/2-y,-z
1/4+x,1/4+y,-z
1/2-x,1/4+y,3/4+z
1/4+x,1/2-y,3/4+z
loop_
_atom_site_type_symbol
_atom_site_label
_atom_site_fract_x
_atom_site_fract_y
_atom_site_fract_z
Si Si1 0.527436 0.598840 0.344269
Si Si2 0.845841 0.771382 0.578371
Si Si3 0.375000 0.662574 0.375000
Si Si4 0.675049 0.368950 0.275864
Si Si5 0.155229 0.778412 0.509236
Si Si6 0.231099 0.183121 0.529892
Si Si7 0.535629 0.535757 0.169615
Si Si8 0.875000 0.875000 0.375000
O O1 0.625000 0.625000 0.342108
O O2 0.548071 0.546712 0.367285
O O3 0.461399 0.627986 0.387944
O O4 0.479587 0.606531 0.283016
O O5 0.839975 0.807695 0.523600
O O6 0.777230 0.730831 0.555127
O O7 0.948236 0.750241 0.594061
O O8 0.349942 0.694846 0.429150
O O9 0.660649 0.425941 0.284081
O O10 0.571906 0.348214 0.265972
O O11 0.734975 0.336930 0.321102
O O12 0.250000 0.750000 0.500000
O O13 0.076329 0.737715 0.520375
O O14 0.182875 0.158003 0.582936
O O15 0.625000 0.539216 0.125000
#
# Coordination Sequence:
#
# PCOD9515931 Si02
#       8
#    32  32  16  32  32  32  32   8
#     4  11  23  40  77 107 140 183 245 313 369 436
#     4  10  23  45  77 105 138 190 248 298 375 455
#     4  10  22  43  64 103 144 177 248 309 360 426
#     4  10  26  48  69 108 150 193 249 312 378 450
#     4  11  24  43  70  98 142 195 244 297 367 448
#     4  10  25  49  69 105 141 190 249 301 377 454
#     4  11  25  46  71 109 157 197 245 310 380 461
#     4  12  28  46  72 104 150 196 240 318 402 440
#
# _framework density 23.306846
#
# number of rings (size 3 to 8) (size 9 to 14) (size 15 to 20)
#    0.000    1.481    0.741    2.667    9.333    4.148 
#    6.667    0.000    0.000    0.000    0.000    0.000 
#    0.000    0.000    0.000    0.000    0.000    0.000 
#
# Total GULP energy -301490.961415 kJ/mol
# GULP energy per Si atom -5583.165952 kJ/mol
# Density = 2.325380 g / cm^3
# Si number density = 23.306846 Si / 1000 Ang^3
#
#
#
# Elastic Constant Matrix: (Units=GPa)
#
#
# Indices 1 2 3 4 5 6 
#
# 1 131.2772 37.7589 55.7332 0.0000 0.0000 0.0000
# 2 37.7589 100.8207 24.1745 0.0000 0.0000 0.0000
# 3 55.7332 24.1745 69.0442 0.0000 0.0000 0.0000
# 4 0.0000 0.0000 0.0000 47.9083 0.0000 0.0000
# 5 0.0000 0.0000 0.0000 0.0000 61.5480 0.0000
# 6 0.0000 0.0000 0.0000 0.0000 0.0000 19.1104
#
#
#
# Elastic Compliance Matrix: (Units=1/GPa)
#
#
# Indices 1 2 3 4 5 6 
#
# 1 0.012094 -0.002389 -0.008926 0.000000 0.000000 0.000000
# 2 -0.002389 0.011300 -0.002028 0.000000 0.000000 0.000000
# 3 -0.008926 -0.002028 0.022399 0.000000 0.000000 0.000000
# 4 0.000000 0.000000 0.000000 0.020873 0.000000 0.000000
# 5 0.000000 0.000000 0.000000 0.000000 0.016247 0.000000
# 6 0.000000 0.000000 0.000000 0.000000 0.000000 0.052328
#
#
# Mechanical properties :
#
#
# Convention : Reuss Voigt Hill
#
# Bulk Modulus (GPa) = 52.33828 59.60836 55.97332
# Shear Modulus (GPa) = 29.70969 37.94505 33.82737
#
# Velocity S-wave (km/s) = 3.57419 4.03931 3.81385
# Velocity P-wave (km/s) = 6.28793 6.88372 6.59256
#
# Compressibility (1/GPa) = 0.01910647
#
# Stress axis : x y z
#
# Youngs Moduli (GPa) = 82.68450 88.49876 44.64564
#
# Poissons Ratio (x) = 0.21144 0.39851
# Poissons Ratio (y) = 0.19755 0.09053
# Poissons Ratio (z) = 0.73804 0.17945
#
# Static dielectric constant tensor:
#      x y z
#    x 1.868650 0.000000 0.000000 
#    y 0.000000 1.978250 0.000000 
#    z 0.000000 0.000000 1.927770 
# 
# From -- ./inp_files/51633.got.cif
#   From: 2010.05.17/outbox.cif.g08.bks.cpg/sg70_26_cif.got.tgz:51633.got - 2010.06.03 15:57:51.
