data_PCOD9515720
_publ_section_title
;
Structure prediction by ZEFSAII (Michael W. Deem and Ramdas Pophale) SiO2 
 PCOD9515720
Probable space group: F D D D
;
_chemical_formula_sum "Si O2"
_cell_formula_units_Z 176
_cell_length_a 25.988354
_cell_length_b 29.576915
_cell_length_c 12.806584
_cell_angle_alpha 90.000000
_cell_angle_beta 90.000000
_cell_angle_gamma 90.000000
_cell_volume 9843.849144
_symmetry_space_group_name_H-M "F D D D"
_symmetry_group_IT_number 70
_space_group.IT_coordinate_system_code '2'
_symmetry_cell_setting 'orthorhombic'
loop_
_space_group_symop_operation_xyz
x,y,z
1/4-x,1/4-y,z
x,1/4-y,1/4-z
1/4-x,y,1/4-z
-x,-y,-z
3/4+x,3/4+y,-z
-x,3/4+y,3/4+z
3/4+x,-y,3/4+z
x,1/2+y,1/2+z
1/4-x,3/4-y,1/2+z
x,3/4-y,3/4-z
1/4-x,1/2+y,3/4-z
-x,1/2-y,1/2-z
3/4+x,1/4+y,1/2-z
-x,1/4+y,1/4+z
3/4+x,1/2-y,1/4+z
1/2+x,y,1/2+z
3/4-x,1/4-y,1/2+z
1/2+x,1/4-y,3/4-z
3/4-x,y,3/4-z
1/2-x,-y,1/2-z
1/4+x,3/4+y,1/2-z
1/2-x,3/4+y,1/4+z
1/4+x,-y,1/4+z
1/2+x,1/2+y,z
3/4-x,3/4-y,z
1/2+x,3/4-y,1/4-z
3/4-x,1/2+y,1/4-z
1/2-x,1/2-y,-z
1/4+x,1/4+y,-z
1/2-x,1/4+y,3/4+z
1/4+x,1/2-y,3/4+z
loop_
_atom_site_type_symbol
_atom_site_label
_atom_site_fract_x
_atom_site_fract_y
_atom_site_fract_z
Si Si1 0.446286 0.475535 0.484217
Si Si2 0.775776 0.284797 0.749971
Si Si3 0.576029 0.334672 0.455237
Si Si4 0.149569 0.787073 0.304407
Si Si5 0.685814 0.122878 0.248791
Si Si6 0.875000 0.143865 0.875000
O O1 0.500000 0.500000 0.500000
O O2 0.442640 0.469386 0.359181
O O3 0.397488 0.502953 0.525462
O O4 0.451885 0.426363 0.535944
O O5 0.716542 0.295282 0.780063
O O6 0.797892 0.241838 0.687761
O O7 0.791591 0.332585 0.699150
O O8 0.559526 0.375000 0.375000
O O9 0.627872 0.313372 0.405708
O O10 0.586891 0.361364 0.561481
O O11 0.151704 0.823484 0.210267
O O12 0.625000 0.125000 0.256743
O O13 0.698640 0.125000 0.125000
#
# Coordination Sequence:
#
# PCOD9515720 Si02
#       6
#    32  32  32  32  32  16
#     4  11  18  28  47  75 110 139 166 206 264 327
#     4  11  19  30  49  76 109 141 171 212 266 321
#     4  10  22  38  53  78 108 143 181 222 267 324
#     4  11  20  33  54  80 106 141 180 214 264 329
#     4   9  17  25  37  65 105 138 156 192 255 314
#     4  10  22  38  54  71 110 147 176 224 272 312
#
# _framework density 17.879183999999999
#
# number of rings (size 3 to 8) (size 9 to 14) (size 15 to 20)
#    0.000    1.636    5.455    1.636    2.545    0.000 
#    0.000    0.909    0.000    0.000    0.000    0.000 
#    0.000    0.000    0.000    0.000    0.000    0.000 
#
# Total GULP energy -245038.613397 kJ/mol
# GULP energy per Si atom -5569.059395 kJ/mol
# Density = 1.783849 g / cm^3
# Si number density = 17.879184 Si / 1000 Ang^3
#
#
#
# Elastic Constant Matrix: (Units=GPa)
#
#
# Indices 1 2 3 4 5 6 
#
# 1 73.8662 42.0302 21.2419 0.0000 0.0000 0.0000
# 2 42.0302 111.8722 24.9864 0.0000 0.0000 0.0000
# 3 21.2419 24.9864 30.3087 -0.0001 0.0001 0.0000
# 4 0.0000 0.0000 -0.0001 10.0905 0.0000 0.0000
# 5 0.0000 0.0000 0.0001 0.0000 6.0459 0.0000
# 6 0.0000 0.0000 0.0000 0.0000 0.0000 42.3933
#
#
#
# Elastic Compliance Matrix: (Units=1/GPa)
#
#
# Indices 1 2 3 4 5 6 
#
# 1 0.019087 -0.005127 -0.009150 0.000000 0.000000 0.000000
# 2 -0.005127 0.012333 -0.006574 0.000000 0.000000 0.000000
# 3 -0.009150 -0.006574 0.044826 0.000000 -0.000001 0.000000
# 4 0.000000 0.000000 0.000000 0.099104 -0.000001 0.000000
# 5 0.000000 0.000000 -0.000001 -0.000001 0.165402 0.000000
# 6 0.000000 0.000000 0.000000 0.000000 0.000000 0.023589
#
#
# Mechanical properties :
#
#
# Convention : Reuss Voigt Hill
#
# Bulk Modulus (GPa) = 28.94901 43.61823 36.28362
# Shear Modulus (GPa) = 11.97437 20.22517 16.09977
#
# Velocity S-wave (km/s) = 2.59074 3.36700 3.00405
# Velocity P-wave (km/s) = 5.01755 6.29004 5.68949
#
# Compressibility (1/GPa) = 0.03454350
#
# Stress axis : x y z
#
# Youngs Moduli (GPa) = 52.39254 81.08077 22.30830
#
# Poissons Ratio (x) = 0.41572 0.20412
# Poissons Ratio (y) = 0.26863 0.14666
# Poissons Ratio (z) = 0.47940 0.53304
#
# Static dielectric constant tensor:
#      x y z
#    x 1.643410 0.000000 0.000000 
#    y 0.000000 1.693090 0.000000 
#    z 0.000000 0.000000 1.630010 
# 
# From -- ./inp_files/22450.got.cif
#   From: 2010.05.17/outbox.cif.g08.bks.cpg/sg70_12_cif.got.tgz:22450.got - 2010.06.03 15:57:51.
