data_PCOD9515511
_publ_section_title
;
Structure prediction by ZEFSAII (Michael W. Deem and Ramdas Pophale) SiO2 
 PCOD9515511
Probable space group: F D D D
;
_chemical_formula_sum "Si O2"
_cell_formula_units_Z 160
_cell_length_a 21.379129
_cell_length_b 20.815738
_cell_length_c 17.373688
_cell_angle_alpha 90.000000
_cell_angle_beta 90.000000
_cell_angle_gamma 90.000000
_cell_volume 7731.679426
_symmetry_space_group_name_H-M "F D D D"
_symmetry_group_IT_number 70
_space_group.IT_coordinate_system_code '2'
_symmetry_cell_setting 'orthorhombic'
loop_
_space_group_symop_operation_xyz
x,y,z
1/4-x,1/4-y,z
x,1/4-y,1/4-z
1/4-x,y,1/4-z
-x,-y,-z
3/4+x,3/4+y,-z
-x,3/4+y,3/4+z
3/4+x,-y,3/4+z
x,1/2+y,1/2+z
1/4-x,3/4-y,1/2+z
x,3/4-y,3/4-z
1/4-x,1/2+y,3/4-z
-x,1/2-y,1/2-z
3/4+x,1/4+y,1/2-z
-x,1/4+y,1/4+z
3/4+x,1/2-y,1/4+z
1/2+x,y,1/2+z
3/4-x,1/4-y,1/2+z
1/2+x,1/4-y,3/4-z
3/4-x,y,3/4-z
1/2-x,-y,1/2-z
1/4+x,3/4+y,1/2-z
1/2-x,3/4+y,1/4+z
1/4+x,-y,1/4+z
1/2+x,1/2+y,z
3/4-x,3/4-y,z
1/2+x,3/4-y,1/4-z
3/4-x,1/2+y,1/4-z
1/2-x,1/2-y,-z
1/4+x,1/4+y,-z
1/2-x,1/4+y,3/4+z
1/4+x,1/2-y,3/4+z
loop_
_atom_site_type_symbol
_atom_site_label
_atom_site_fract_x
_atom_site_fract_y
_atom_site_fract_z
Si Si1 0.176283 0.346242 0.720776
Si Si2 0.125000 0.625000 0.823480
Si Si3 0.804466 0.929235 0.939821
Si Si4 0.764911 0.823133 0.588061
Si Si5 0.625000 0.791885 0.125000
Si Si6 0.192833 0.818086 0.936686
O O1 0.238009 0.338385 0.772942
O O2 0.201755 0.323068 0.638240
O O3 0.148131 0.415455 0.697018
O O4 0.121405 0.311667 0.766090
O O5 0.145173 0.678228 0.760196
O O6 0.186001 0.625054 0.877865
O O7 0.813389 0.875000 0.875000
O O8 0.816993 0.997131 0.900013
O O9 0.792963 0.751943 0.597006
O O10 0.746394 0.833868 0.499759
O O11 0.188100 0.875000 0.875000
#
# Coordination Sequence:
#
# PCOD9515511 Si02
#       6
#    32  16  32  32  16  32
#     4  11  25  42  67 101 131 182 222 270 352 397
#     4  10  21  40  67  94 134 178 216 276 347 404
#     4  11  23  43  65 102 138 173 224 276 338 414
#     4  10  24  43  64  95 137 170 226 281 330 411
#     4  12  23  44  70  96 143 170 226 284 330 408
#     4  11  24  43  67  95 132 176 228 279 331 403
#
# _framework density 20.694081000000001
#
# number of rings (size 3 to 8) (size 9 to 14) (size 15 to 20)
#    0.000    1.200    4.000    0.600    5.600    5.600 
#    0.000    2.500    0.000    0.000    0.000    0.000 
#    0.000    0.000    0.000    0.000    0.000    0.000 
#
# Total GULP energy -222819.460673 kJ/mol
# GULP energy per Si atom -5570.486517 kJ/mol
# Density = 2.064698 g / cm^3
# Si number density = 20.694081 Si / 1000 Ang^3
#
#
#
# Elastic Constant Matrix: (Units=GPa)
#
#
# Indices 1 2 3 4 5 6 
#
# 1 96.2854 45.7490 31.5640 0.0000 0.0000 0.0000
# 2 45.7490 70.4151 20.0191 0.0000 0.0000 0.0000
# 3 31.5640 20.0191 78.3859 0.0000 0.0000 0.0000
# 4 0.0000 0.0000 0.0000 36.7397 0.0000 0.0000
# 5 0.0000 0.0000 0.0000 0.0000 47.0786 0.0000
# 6 0.0000 0.0000 0.0000 0.0000 0.0000 -33.5023
#
#
#
# Elastic Compliance Matrix: (Units=1/GPa)
#
#
# Indices 1 2 3 4 5 6 
#
# 1 0.016175 -0.009335 -0.004129 0.000000 0.000000 0.000000
# 2 -0.009335 0.020701 -0.001528 0.000000 0.000000 0.000000
# 3 -0.004129 -0.001528 0.014810 0.000000 0.000000 0.000000
# 4 0.000000 0.000000 0.000000 0.027219 0.000000 0.000000
# 5 0.000000 0.000000 0.000000 0.000000 0.021241 0.000000
# 6 0.000000 0.000000 0.000000 0.000000 0.000000 -0.029849
#
#
# Mechanical properties :
#
#
# Convention : Reuss Voigt Hill
#
# Bulk Modulus (GPa) = 46.07853 48.86116 47.46985
# Shear Modulus (GPa) = 46.50533 19.91349 33.20941
#
# Velocity S-wave (km/s) = 4.74569 3.10543 4.01031
# Velocity P-wave (km/s) = 7.23489 6.04323 6.66574
#
# Compressibility (1/GPa) = 0.02170208
#
# Stress axis : x y z
#
# Youngs Moduli (GPa) = 61.82475 48.30732 67.52065
#
# Poissons Ratio (x) = 0.45094 0.27880
# Poissons Ratio (y) = 0.57713 0.10316
# Poissons Ratio (z) = 0.25528 0.07381
#
# Static dielectric constant tensor:
#      x y z
#    x 1.781510 0.000000 0.000000 
#    y 0.000000 1.729350 0.000000 
#    z 0.000000 0.000000 1.844250 
# 
# From -- ./inp_files/36330.got.cif
#   From: 2010.05.17/outbox.cif.g08.bks.cpg/sg70_19_cif.got.tgz:36330.got - 2010.06.03 15:57:51.
