data_PCOD9515853
_publ_section_title
;
Structure prediction by ZEFSAII (Michael W. Deem and Ramdas Pophale) SiO2 
 PCOD9515853
Probable space group: F D D D
;
_chemical_formula_sum "Si O2"
_cell_formula_units_Z 144
_cell_length_a 24.033541
_cell_length_b 10.100364
_cell_length_c 26.635686
_cell_angle_alpha 90.000000
_cell_angle_beta 90.000000
_cell_angle_gamma 90.000000
_cell_volume 6465.746515
_symmetry_space_group_name_H-M "F D D D"
_symmetry_group_IT_number 70
_space_group.IT_coordinate_system_code '2'
_symmetry_cell_setting 'orthorhombic'
loop_
_space_group_symop_operation_xyz
x,y,z
1/4-x,1/4-y,z
x,1/4-y,1/4-z
1/4-x,y,1/4-z
-x,-y,-z
3/4+x,3/4+y,-z
-x,3/4+y,3/4+z
3/4+x,-y,3/4+z
x,1/2+y,1/2+z
1/4-x,3/4-y,1/2+z
x,3/4-y,3/4-z
1/4-x,1/2+y,3/4-z
-x,1/2-y,1/2-z
3/4+x,1/4+y,1/2-z
-x,1/4+y,1/4+z
3/4+x,1/2-y,1/4+z
1/2+x,y,1/2+z
3/4-x,1/4-y,1/2+z
1/2+x,1/4-y,3/4-z
3/4-x,y,3/4-z
1/2-x,-y,1/2-z
1/4+x,3/4+y,1/2-z
1/2-x,3/4+y,1/4+z
1/4+x,-y,1/4+z
1/2+x,1/2+y,z
3/4-x,3/4-y,z
1/2+x,3/4-y,1/4-z
3/4-x,1/2+y,1/4-z
1/2-x,1/2-y,-z
1/4+x,1/4+y,-z
1/2-x,1/4+y,3/4+z
1/4+x,1/2-y,3/4+z
loop_
_atom_site_type_symbol
_atom_site_label
_atom_site_fract_x
_atom_site_fract_y
_atom_site_fract_z
Si Si1 0.739639 0.938212 0.011524
Si Si2 0.569783 0.771962 0.312007
Si Si3 0.375000 0.875000 0.096195
Si Si4 0.377975 0.716540 0.930176
Si Si5 0.430412 0.591821 0.526209
O O1 0.788172 0.841214 0.030545
O O2 0.684476 0.918927 0.044131
O O3 0.761187 0.083734 0.026975
O O4 0.719516 0.897760 0.955135
O O5 0.585573 0.715064 0.367310
O O6 0.631010 0.809227 0.292824
O O7 0.335188 0.785048 0.060513
O O8 0.375000 0.659476 0.875000
O O9 0.375000 0.875000 0.927508
O O10 0.329134 0.680377 0.967592
#
# Coordination Sequence:
#
# PCOD9515853 Si02
#       5
#    32  32  16  32  32
#     4  10  22  43  71  93 138 193 223 284 366 428
#     4  10  22  41  66 103 140 172 234 287 351 427
#     4  12  22  38  69 108 145 174 232 310 350 408
#     4  10  23  44  61  93 137 178 231 284 341 423
#     4  11  22  43  68 103 139 180 232 296 352 433
#
# _framework density 22.271211999999998
#
# number of rings (size 3 to 8) (size 9 to 14) (size 15 to 20)
#    0.000    1.556    3.333    0.667    0.000    4.444 
#   12.000    0.000    0.000   12.000    0.000    0.000 
#    0.000    0.000    0.000    0.000    0.000    0.000 
#
# Total GULP energy -200551.302560 kJ/mol
# GULP energy per Si atom -5570.869516 kJ/mol
# Density = 2.222052 g / cm^3
# Si number density = 22.271212 Si / 1000 Ang^3
#
#
#
# Elastic Constant Matrix: (Units=GPa)
#
#
# Indices 1 2 3 4 5 6 
#
# 1 75.7750 39.5326 28.2867 0.0000 0.0000 0.0000
# 2 39.5326 82.8323 47.0122 0.0000 0.0000 0.0000
# 3 28.2867 47.0122 156.4886 0.0000 0.0000 0.0000
# 4 0.0000 0.0000 0.0000 26.4375 0.0000 0.0000
# 5 0.0000 0.0000 0.0000 0.0000 14.0961 0.0000
# 6 0.0000 0.0000 0.0000 0.0000 0.0000 34.1919
#
#
#
# Elastic Compliance Matrix: (Units=1/GPa)
#
#
# Indices 1 2 3 4 5 6 
#
# 1 0.017654 -0.007974 -0.000796 0.000000 0.000000 0.000000
# 2 -0.007974 0.018156 -0.004013 0.000000 0.000000 0.000000
# 3 -0.000796 -0.004013 0.007740 0.000000 0.000000 0.000000
# 4 0.000000 0.000000 0.000000 0.037825 0.000000 0.000000
# 5 0.000000 0.000000 0.000000 0.000000 0.070942 0.000000
# 6 0.000000 0.000000 0.000000 0.000000 0.000000 0.029247
#
#
# Mechanical properties :
#
#
# Convention : Reuss Voigt Hill
#
# Bulk Modulus (GPa) = 55.60388 60.52876 58.06632
# Shear Modulus (GPa) = 23.46061 28.29604 25.87832
#
# Velocity S-wave (km/s) = 3.24914 3.56830 3.41246
# Velocity P-wave (km/s) = 6.25274 6.64937 6.45410
#
# Compressibility (1/GPa) = 0.01798436
#
# Stress axis : x y z
#
# Youngs Moduli (GPa) = 56.64397 55.07843 129.20510
#
# Poissons Ratio (x) = 0.43920 0.10279
# Poissons Ratio (y) = 0.45168 0.51850
# Poissons Ratio (z) = 0.04506 0.22103
#
# Static dielectric constant tensor:
#      x y z
#    x 1.798630 0.000000 0.000000 
#    y 0.000000 1.651310 0.000000 
#    z 0.000000 0.000000 1.876330 
# 
# From -- ./inp_files/60985.got.cif
#   From: 2010.05.17/outbox.cif.g08.bks.cpg/sg70_31_cif.got.tgz:60985.got - 2010.06.03 15:57:51.
