data_PCOD9515417
_publ_section_title
;
Structure prediction by ZEFSAII (Michael W. Deem and Ramdas Pophale) SiO2 
 PCOD9515417
Probable space group: F D D D
;
_chemical_formula_sum "Si O2"
_cell_formula_units_Z 136
_cell_length_a 17.672474
_cell_length_b 23.817247
_cell_length_c 13.176960
_cell_angle_alpha 90.000000
_cell_angle_beta 90.000000
_cell_angle_gamma 90.000000
_cell_volume 5546.309995
_symmetry_space_group_name_H-M "F D D D"
_symmetry_group_IT_number 70
_space_group.IT_coordinate_system_code '2'
_symmetry_cell_setting 'orthorhombic'
loop_
_space_group_symop_operation_xyz
x,y,z
1/4-x,1/4-y,z
x,1/4-y,1/4-z
1/4-x,y,1/4-z
-x,-y,-z
3/4+x,3/4+y,-z
-x,3/4+y,3/4+z
3/4+x,-y,3/4+z
x,1/2+y,1/2+z
1/4-x,3/4-y,1/2+z
x,3/4-y,3/4-z
1/4-x,1/2+y,3/4-z
-x,1/2-y,1/2-z
3/4+x,1/4+y,1/2-z
-x,1/4+y,1/4+z
3/4+x,1/2-y,1/4+z
1/2+x,y,1/2+z
3/4-x,1/4-y,1/2+z
1/2+x,1/4-y,3/4-z
3/4-x,y,3/4-z
1/2-x,-y,1/2-z
1/4+x,3/4+y,1/2-z
1/2-x,3/4+y,1/4+z
1/4+x,-y,1/4+z
1/2+x,1/2+y,z
3/4-x,3/4-y,z
1/2+x,3/4-y,1/4-z
3/4-x,1/2+y,1/4-z
1/2-x,1/2-y,-z
1/4+x,1/4+y,-z
1/2-x,1/4+y,3/4+z
1/4+x,1/2-y,3/4+z
loop_
_atom_site_type_symbol
_atom_site_label
_atom_site_fract_x
_atom_site_fract_y
_atom_site_fract_z
Si Si1 0.614526 0.335295 0.006287
Si Si2 0.193450 0.010360 0.844368
Si Si3 0.706011 0.625694 0.946173
Si Si4 0.875000 0.375000 0.875000
Si Si5 0.003563 0.929524 0.243232
O O1 0.625000 0.319291 0.125000
O O2 0.531163 0.360218 0.993576
O O3 0.625718 0.280212 0.939108
O O4 0.679771 0.382611 0.990640
O O5 0.218918 0.985910 0.953138
O O6 0.250000 0.000000 0.750000
O O7 0.190585 0.076284 0.862584
O O8 0.625000 0.625000 0.000709
O O9 0.730955 0.677933 0.874973
O O10 0.819594 0.337530 0.807989
#
# Coordination Sequence:
#
# PCOD9515417 Si02
#       5
#    32  32  32   8  32
#     4  10  21  39  54  88 133 169 203 260 332 394
#     4  12  22  37  63  96 127 173 208 268 346 390
#     4  11  25  39  61  95 131 168 223 271 317 403
#     4  12  16  32  60  96 126 156 206 252 332 388
#     4  11  22  36  58  91 130 167 202 273 329 391
#
# _framework density 24.520807999999999
#
# number of rings (size 3 to 8) (size 9 to 14) (size 15 to 20)
#    0.000    0.941    8.235    0.000    3.294    0.000 
#    2.118    1.176    0.000    2.824    0.000    0.000 
#    0.000    0.000    0.000    0.000    0.000    0.000 
#
# Total GULP energy -190097.927751 kJ/mol
# GULP energy per Si atom -5591.115522 kJ/mol
# Density = 2.446500 g / cm^3
# Si number density = 24.520808 Si / 1000 Ang^3
#
#
#
# Elastic Constant Matrix: (Units=GPa)
#
#
# Indices 1 2 3 4 5 6 
#
# 1 200.8220 6.5409 18.9918 0.0000 0.0000 0.0000
# 2 6.5409 70.0251 17.8510 0.0000 0.0000 0.0000
# 3 18.9918 17.8510 72.2216 0.0000 0.0000 0.0000
# 4 0.0000 0.0000 0.0000 22.3696 0.0000 0.0000
# 5 0.0000 0.0000 0.0000 0.0000 29.7059 0.0000
# 6 0.0000 0.0000 0.0000 0.0000 0.0000 24.1625
#
#
#
# Elastic Compliance Matrix: (Units=1/GPa)
#
#
# Indices 1 2 3 4 5 6 
#
# 1 0.005108 -0.000144 -0.001308 0.000000 0.000000 0.000000
# 2 -0.000144 0.015245 -0.003730 0.000000 0.000000 0.000000
# 3 -0.001308 -0.003730 0.015112 0.000000 0.000000 0.000000
# 4 0.000000 0.000000 0.000000 0.044704 0.000000 0.000000
# 5 0.000000 0.000000 0.000000 0.000000 0.033663 0.000000
# 6 0.000000 0.000000 0.000000 0.000000 0.000000 0.041386
#
#
# Mechanical properties :
#
#
# Convention : Reuss Voigt Hill
#
# Bulk Modulus (GPa) = 39.83814 47.75956 43.79885
# Shear Modulus (GPa) = 28.74409 35.22662 31.98536
#
# Velocity S-wave (km/s) = 3.42750 3.79436 3.61559
# Velocity P-wave (km/s) = 5.65205 6.22219 5.94396
#
# Compressibility (1/GPa) = 0.02510158
#
# Stress axis : x y z
#
# Youngs Moduli (GPa) = 195.77587 65.59550 66.17191
#
# Poissons Ratio (x) = 0.00943 0.08653
# Poissons Ratio (y) = 0.02815 0.24684
# Poissons Ratio (z) = 0.25601 0.24469
#
# Static dielectric constant tensor:
#      x y z
#    x 2.069930 0.000000 0.000000 
#    y 0.000000 1.958000 0.000000 
#    z 0.000000 0.000000 1.981100 
# 
# From -- ./inp_files/33826.got.cif
#   From: 2010.05.17/outbox.cif.g08.bks.cpg/sg70_17_cif.got.tgz:33826.got - 2010.06.03 15:57:51.
