data_PCOD9515438
_publ_section_title
;
Structure prediction by ZEFSAII (Michael W. Deem and Ramdas Pophale) SiO2 
 PCOD9515438
Probable space group: F D D D
;
_chemical_formula_sum "Si O2"
_cell_formula_units_Z 160
_cell_length_a 29.875560
_cell_length_b 8.775159
_cell_length_c 28.922776
_cell_angle_alpha 90.000000
_cell_angle_beta 90.000000
_cell_angle_gamma 90.000000
_cell_volume 7582.475628
_symmetry_space_group_name_H-M "F D D D"
_symmetry_group_IT_number 70
_space_group.IT_coordinate_system_code '2'
_symmetry_cell_setting 'orthorhombic'
loop_
_space_group_symop_operation_xyz
x,y,z
1/4-x,1/4-y,z
x,1/4-y,1/4-z
1/4-x,y,1/4-z
-x,-y,-z
3/4+x,3/4+y,-z
-x,3/4+y,3/4+z
3/4+x,-y,3/4+z
x,1/2+y,1/2+z
1/4-x,3/4-y,1/2+z
x,3/4-y,3/4-z
1/4-x,1/2+y,3/4-z
-x,1/2-y,1/2-z
3/4+x,1/4+y,1/2-z
-x,1/4+y,1/4+z
3/4+x,1/2-y,1/4+z
1/2+x,y,1/2+z
3/4-x,1/4-y,1/2+z
1/2+x,1/4-y,3/4-z
3/4-x,y,3/4-z
1/2-x,-y,1/2-z
1/4+x,3/4+y,1/2-z
1/2-x,3/4+y,1/4+z
1/4+x,-y,1/4+z
1/2+x,1/2+y,z
3/4-x,3/4-y,z
1/2+x,3/4-y,1/4-z
3/4-x,1/2+y,1/4-z
1/2-x,1/2-y,-z
1/4+x,1/4+y,-z
1/2-x,1/4+y,3/4+z
1/4+x,1/2-y,3/4+z
loop_
_atom_site_type_symbol
_atom_site_label
_atom_site_fract_x
_atom_site_fract_y
_atom_site_fract_z
Si Si1 0.082776 0.858850 0.654911
Si Si2 0.017918 0.625000 0.625000
Si Si3 0.362605 0.553674 0.506847
Si Si4 0.292971 0.635665 0.214372
Si Si5 0.478421 0.277465 0.540615
Si Si6 0.981271 0.375000 0.875000
O O1 0.125000 0.811496 0.625000
O O2 0.049076 0.718970 0.659990
O O3 0.102854 0.917392 0.702944
O O4 0.054043 0.985082 0.626631
O O5 0.990987 0.741620 0.593101
O O6 0.375000 0.375000 0.511825
O O7 0.403438 0.648705 0.529269
O O8 0.314310 0.576093 0.529854
O O9 0.269302 0.733904 0.254577
O O10 0.285227 0.452936 0.218544
O O11 0.264685 0.662388 0.167568
#
# Coordination Sequence:
#
# PCOD9515438 Si02
#       6
#    32  16  32  32  32  16
#     4  12  24  39  64  98 126 167 218 274 330 397
#     4  12  25  41  64  92 138 170 208 279 345 400
#     4  10  21  39  64  93 127 169 220 269 324 398
#     4  10  21  39  65  93 126 171 221 270 331 393
#     4  10  21  40  63  91 129 172 212 273 336 395
#     4  12  21  41  68  96 122 170 230 279 317 404
#
# _framework density 21.101286999999999
#
# number of rings (size 3 to 8) (size 9 to 14) (size 15 to 20)
#    0.000    1.200    4.000    3.000    2.800    1.600 
#    0.000    0.000    0.000    0.000    0.000    0.000 
#    0.000    0.000    0.000    0.000    0.000    0.000 
#
# Total GULP energy -222835.220295 kJ/mol
# GULP energy per Si atom -5570.880507 kJ/mol
# Density = 2.105326 g / cm^3
# Si number density = 21.101287 Si / 1000 Ang^3
#
#
#
# Elastic Constant Matrix: (Units=GPa)
#
#
# Indices 1 2 3 4 5 6 
#
# 1 149.1286 20.0683 49.4856 0.0001 -0.0001 0.0001
# 2 20.0683 22.5679 -6.5512 0.0001 -0.0001 0.0001
# 3 49.4856 -6.5512 86.2488 0.0000 0.0000 0.0000
# 4 0.0001 0.0001 0.0000 7.5635 0.0001 -0.0001
# 5 -0.0001 -0.0001 0.0000 0.0001 25.8052 0.0001
# 6 0.0001 0.0001 0.0000 -0.0001 0.0001 -10.3420
#
#
#
# Elastic Compliance Matrix: (Units=1/GPa)
#
#
# Indices 1 2 3 4 5 6 
#
# 1 0.010525 -0.011363 -0.006902 0.000000 0.000000 0.000000
# 2 -0.011363 0.057577 0.010893 -0.000001 0.000000 0.000000
# 3 -0.006902 0.010893 0.016382 0.000000 0.000000 0.000000
# 4 0.000000 -0.000001 0.000000 0.132213 0.000000 -0.000001
# 5 0.000000 0.000000 0.000000 0.000000 0.038752 0.000000
# 6 0.000000 0.000000 0.000000 -0.000001 0.000000 -0.096693
#
#
# Mechanical properties :
#
#
# Convention : Reuss Voigt Hill
#
# Bulk Modulus (GPa) = 14.33895 42.66119 28.50007
# Shear Modulus (GPa) = 25.41346 17.60152 21.50749
#
# Velocity S-wave (km/s) = 3.47415 2.89129 3.19603
# Velocity P-wave (km/s) = 4.78571 5.60422 5.21106
#
# Compressibility (1/GPa) = 0.06974013
#
# Stress axis : x y z
#
# Youngs Moduli (GPa) = 95.01229 17.36804 61.04378
#
# Poissons Ratio (x) = 0.19735 0.42131
# Poissons Ratio (y) = 1.07960 -0.66494
# Poissons Ratio (z) = 0.65576 -0.18919
#
# Static dielectric constant tensor:
#      x y z
#    x 1.791820 0.000000 0.000000 
#    y 0.000000 1.785620 0.000000 
#    z 0.000000 0.000000 1.771060 
# 
# From -- ./inp_files/12352.got.cif
#   From: 2010.05.17/outbox.cif.g08.bks.cpg/sg70_7_cif.got.tgz:12352.got - 2010.06.03 15:57:51.
