data_PCOD9515812
_publ_section_title
;
Structure prediction by ZEFSAII (Michael W. Deem and Ramdas Pophale) SiO2 
 PCOD9515812
Probable space group: F D D D
;
_chemical_formula_sum "Si O2"
_cell_formula_units_Z 96
_cell_length_a 6.964897
_cell_length_b 20.952796
_cell_length_c 31.948240
_cell_angle_alpha 90.000000
_cell_angle_beta 90.000000
_cell_angle_gamma 90.000000
_cell_volume 4662.336565
_symmetry_space_group_name_H-M "F D D D"
_symmetry_group_IT_number 70
_space_group.IT_coordinate_system_code '2'
_symmetry_cell_setting 'orthorhombic'
loop_
_space_group_symop_operation_xyz
x,y,z
1/4-x,1/4-y,z
x,1/4-y,1/4-z
1/4-x,y,1/4-z
-x,-y,-z
3/4+x,3/4+y,-z
-x,3/4+y,3/4+z
3/4+x,-y,3/4+z
x,1/2+y,1/2+z
1/4-x,3/4-y,1/2+z
x,3/4-y,3/4-z
1/4-x,1/2+y,3/4-z
-x,1/2-y,1/2-z
3/4+x,1/4+y,1/2-z
-x,1/4+y,1/4+z
3/4+x,1/2-y,1/4+z
1/2+x,y,1/2+z
3/4-x,1/4-y,1/2+z
1/2+x,1/4-y,3/4-z
3/4-x,y,3/4-z
1/2-x,-y,1/2-z
1/4+x,3/4+y,1/2-z
1/2-x,3/4+y,1/4+z
1/4+x,-y,1/4+z
1/2+x,1/2+y,z
3/4-x,3/4-y,z
1/2+x,3/4-y,1/4-z
3/4-x,1/2+y,1/4-z
1/2-x,1/2-y,-z
1/4+x,1/4+y,-z
1/2-x,1/4+y,3/4+z
1/4+x,1/2-y,3/4+z
loop_
_atom_site_type_symbol
_atom_site_label
_atom_site_fract_x
_atom_site_fract_y
_atom_site_fract_z
Si Si1 0.875000 0.535443 0.375000
Si Si2 0.649865 0.390185 0.556408
Si Si3 0.875000 0.375000 0.769098
Si Si4 0.003384 0.723840 0.088084
O O1 0.819532 0.584253 0.412985
O O2 0.707029 0.491792 0.355598
O O3 0.540672 0.396552 0.512841
O O4 0.646974 0.458472 0.578237
O O5 0.875000 0.375000 0.549931
O O6 0.778792 0.320723 0.797879
O O7 0.125000 0.693554 0.125000
#
# Coordination Sequence:
#
# PCOD9515812 Si02
#       4
#    16  32  16  32
#     4  10  22  42  71  93 120 178 232 262 304 394
#     4  10  22  40  67  94 125 173 225 268 317 385
#     4  12  25  38  60 100 142 166 206 278 335 382
#     4  11  23  41  65  94 130 176 218 264 326 386
#
# _framework density 20.590533000000001
#
# number of rings (size 3 to 8) (size 9 to 14) (size 15 to 20)
#    0.000    1.333    1.667    3.500    2.333    8.000 
#    0.000    1.667    0.000    0.000    0.000    0.000 
#    0.000    0.000    0.000    0.000    0.000    0.000 
#
# Total GULP energy -133990.155235 kJ/mol
# GULP energy per Si atom -5582.923135 kJ/mol
# Density = 2.054367 g / cm^3
# Si number density = 20.590533 Si / 1000 Ang^3
#
#
#
# Elastic Constant Matrix: (Units=GPa)
#
#
# Indices 1 2 3 4 5 6 
#
# 1 104.7351 61.9219 74.4620 0.0000 0.0000 0.0000
# 2 61.9219 116.1168 68.1533 0.0000 0.0000 0.0000
# 3 74.4620 68.1533 168.9931 0.0000 0.0000 0.0000
# 4 0.0000 0.0000 0.0000 14.6074 0.0000 0.0000
# 5 0.0000 0.0000 0.0000 0.0000 52.5997 0.0000
# 6 0.0000 0.0000 0.0000 0.0000 0.0000 -65.7949
#
#
#
# Elastic Compliance Matrix: (Units=1/GPa)
#
#
# Indices 1 2 3 4 5 6 
#
# 1 0.016543 -0.005953 -0.004888 0.000000 0.000000 0.000000
# 2 -0.005953 0.013425 -0.002791 0.000000 0.000000 0.000000
# 3 -0.004888 -0.002791 0.009197 0.000000 0.000000 0.000000
# 4 0.000000 0.000000 0.000000 0.068459 0.000000 0.000000
# 5 0.000000 0.000000 0.000000 0.000000 0.019012 0.000000
# 6 0.000000 0.000000 0.000000 0.000000 0.000000 -0.015199
#
#
# Mechanical properties :
#
#
# Convention : Reuss Voigt Hill
#
# Bulk Modulus (GPa) = 84.03420 88.76880 86.40150
# Shear Modulus (GPa) = 35.04675 12.63628 23.84152
#
# Velocity S-wave (km/s) = 4.13010 2.47997 3.40647
# Velocity P-wave (km/s) = 7.97774 7.16976 7.58452
#
# Compressibility (1/GPa) = 0.01189992
#
# Stress axis : x y z
#
# Youngs Moduli (GPa) = 60.44986 74.49019 108.73082
#
# Poissons Ratio (x) = 0.44340 0.53153
# Poissons Ratio (y) = 0.35983 0.30349
# Poissons Ratio (z) = 0.29551 0.20792
#
# Static dielectric constant tensor:
#      x y z
#    x 1.770970 0.000000 0.000000 
#    y 0.000000 1.719610 0.000000 
#    z 0.000000 0.000000 1.723950 
# 
# From -- ./inp_files/8118.got.cif
#   From: 2010.05.17/outbox.cif.g08.bks.cpg/sg70_5_cif.got.tgz:8118.got - 2010.06.03 15:57:51.
