data_PCOD9515860
_publ_section_title
;
Structure prediction by ZEFSAII (Michael W. Deem and Ramdas Pophale) SiO2 
 PCOD9515860
Probable space group: F D D D
;
_chemical_formula_sum "Si O2"
_cell_formula_units_Z 200
_cell_length_a 24.784375
_cell_length_b 17.331873
_cell_length_c 19.945946
_cell_angle_alpha 90.000000
_cell_angle_beta 90.000000
_cell_angle_gamma 90.000000
_cell_volume 8567.973381
_symmetry_space_group_name_H-M "F D D D"
_symmetry_group_IT_number 70
_space_group.IT_coordinate_system_code '2'
_symmetry_cell_setting 'orthorhombic'
loop_
_space_group_symop_operation_xyz
x,y,z
1/4-x,1/4-y,z
x,1/4-y,1/4-z
1/4-x,y,1/4-z
-x,-y,-z
3/4+x,3/4+y,-z
-x,3/4+y,3/4+z
3/4+x,-y,3/4+z
x,1/2+y,1/2+z
1/4-x,3/4-y,1/2+z
x,3/4-y,3/4-z
1/4-x,1/2+y,3/4-z
-x,1/2-y,1/2-z
3/4+x,1/4+y,1/2-z
-x,1/4+y,1/4+z
3/4+x,1/2-y,1/4+z
1/2+x,y,1/2+z
3/4-x,1/4-y,1/2+z
1/2+x,1/4-y,3/4-z
3/4-x,y,3/4-z
1/2-x,-y,1/2-z
1/4+x,3/4+y,1/2-z
1/2-x,3/4+y,1/4+z
1/4+x,-y,1/4+z
1/2+x,1/2+y,z
3/4-x,3/4-y,z
1/2+x,3/4-y,1/4-z
3/4-x,1/2+y,1/4-z
1/2-x,1/2-y,-z
1/4+x,1/4+y,-z
1/2-x,1/4+y,3/4+z
1/4+x,1/2-y,3/4+z
loop_
_atom_site_type_symbol
_atom_site_label
_atom_site_fract_x
_atom_site_fract_y
_atom_site_fract_z
Si Si1 0.748640 0.691928 0.802042
Si Si2 0.875000 0.875000 0.375000
Si Si3 0.946830 0.515296 0.819333
Si Si4 0.829268 0.635871 0.553262
Si Si5 0.070890 0.329331 0.244623
Si Si6 0.533920 0.032929 0.937280
Si Si7 0.535561 0.552131 0.080374
O O1 0.724610 0.752708 0.751504
O O2 0.796530 0.649269 0.759590
O O3 0.706169 0.623051 0.811668
O O4 0.764303 0.735128 0.869398
O O5 0.911880 0.811710 0.414538
O O6 0.920284 0.599942 0.808371
O O7 0.993380 0.522099 0.874976
O O8 0.799946 0.625000 0.625000
O O9 0.885675 0.593690 0.552024
O O10 0.835474 0.728244 0.554656
O O11 0.079702 0.245549 0.211395
O O12 0.011924 0.326979 0.278980
O O13 0.500000 0.000000 0.000000
O O14 0.552159 0.625000 0.125000
#
# Coordination Sequence:
#
# PCOD9515860 Si02
#       7
#    32   8  32  32  32  32  32
#     4  11  23  42  70  95 135 187 225 282 356 419
#     4  12  28  36  64 104 154 164 228 292 354 452
#     4  12  24  43  63 105 138 181 226 284 358 432
#     4  11  23  42  68  99 134 176 230 286 344 417
#     4  11  26  42  73 100 135 184 236 295 347 416
#     4  10  22  41  67  93 134 179 222 270 355 423
#     4  11  23  47  71  97 137 185 242 289 355 411
#
# _framework density 23.342742000000001
#
# number of rings (size 3 to 8) (size 9 to 14) (size 15 to 20)
#    0.000    0.960    4.800    2.400    6.720    0.640 
#    0.000    1.600    0.000    0.000    0.000    0.000 
#    0.000    0.000    0.000    0.000    0.000    0.000 
#
# Total GULP energy -278816.547935 kJ/mol
# GULP energy per Si atom -5576.330959 kJ/mol
# Density = 2.328961 g / cm^3
# Si number density = 23.342742 Si / 1000 Ang^3
#
#
#
# Elastic Constant Matrix: (Units=GPa)
#
#
# Indices 1 2 3 4 5 6 
#
# 1 30.9843 20.4368 6.1756 0.0000 0.0000 0.0000
# 2 20.4368 176.1977 36.1271 0.0000 0.0000 0.0000
# 3 6.1756 36.1271 84.2283 0.0000 0.0000 0.0000
# 4 0.0000 0.0000 0.0000 46.7943 0.0000 0.0000
# 5 0.0000 0.0000 0.0000 0.0000 14.8751 0.0000
# 6 0.0000 0.0000 0.0000 0.0000 0.0000 25.5069
#
#
#
# Elastic Compliance Matrix: (Units=1/GPa)
#
#
# Indices 1 2 3 4 5 6 
#
# 1 0.035011 -0.003875 -0.000905 0.000000 0.000000 0.000000
# 2 -0.003875 0.006652 -0.002569 0.000000 0.000000 0.000000
# 3 -0.000905 -0.002569 0.013041 0.000000 0.000000 0.000000
# 4 0.000000 0.000000 0.000000 0.021370 0.000000 0.000000
# 5 0.000000 0.000000 0.000000 0.000000 0.067226 0.000000
# 6 0.000000 0.000000 0.000000 0.000000 0.000000 0.039205
#
#
# Mechanical properties :
#
#
# Convention : Reuss Voigt Hill
#
# Bulk Modulus (GPa) = 24.99675 46.32103 35.65889
# Shear Modulus (GPa) = 23.74871 32.67997 28.21434
#
# Velocity S-wave (km/s) = 3.19312 3.74572 3.48041
# Velocity P-wave (km/s) = 4.93219 6.21242 5.60895
#
# Compressibility (1/GPa) = 0.04000520
#
# Stress axis : x y z
#
# Youngs Moduli (GPa) = 28.56258 150.33865 76.68313
#
# Poissons Ratio (x) = 0.58261 0.06938
# Poissons Ratio (y) = 0.11069 0.19699
# Poissons Ratio (z) = 0.02584 0.38620
#
# Static dielectric constant tensor:
#      x y z
#    x 1.875550 0.000000 0.000000 
#    y 0.000000 2.030290 0.000000 
#    z 0.000000 0.000000 1.867340 
# 
# From -- ./inp_files/46937.got.cif
#   From: 2010.05.17/outbox.cif.g08.bks.cpg/sg70_24_cif.got.tgz:46937.got - 2010.06.03 15:57:51.
