data_PCOD9515654
_publ_section_title
;
Structure prediction by ZEFSAII (Michael W. Deem and Ramdas Pophale) SiO2 
 PCOD9515654
Probable space group: F D D D
;
_chemical_formula_sum "Si O2"
_cell_formula_units_Z 160
_cell_length_a 18.785888
_cell_length_b 20.963119
_cell_length_c 20.374351
_cell_angle_alpha 90.000000
_cell_angle_beta 90.000000
_cell_angle_gamma 90.000000
_cell_volume 8023.639582
_symmetry_space_group_name_H-M "F D D D"
_symmetry_group_IT_number 70
_space_group.IT_coordinate_system_code '2'
_symmetry_cell_setting 'orthorhombic'
loop_
_space_group_symop_operation_xyz
x,y,z
1/4-x,1/4-y,z
x,1/4-y,1/4-z
1/4-x,y,1/4-z
-x,-y,-z
3/4+x,3/4+y,-z
-x,3/4+y,3/4+z
3/4+x,-y,3/4+z
x,1/2+y,1/2+z
1/4-x,3/4-y,1/2+z
x,3/4-y,3/4-z
1/4-x,1/2+y,3/4-z
-x,1/2-y,1/2-z
3/4+x,1/4+y,1/2-z
-x,1/4+y,1/4+z
3/4+x,1/2-y,1/4+z
1/2+x,y,1/2+z
3/4-x,1/4-y,1/2+z
1/2+x,1/4-y,3/4-z
3/4-x,y,3/4-z
1/2-x,-y,1/2-z
1/4+x,3/4+y,1/2-z
1/2-x,3/4+y,1/4+z
1/4+x,-y,1/4+z
1/2+x,1/2+y,z
3/4-x,3/4-y,z
1/2+x,3/4-y,1/4-z
3/4-x,1/2+y,1/4-z
1/2-x,1/2-y,-z
1/4+x,1/4+y,-z
1/2-x,1/4+y,3/4+z
1/4+x,1/2-y,3/4+z
loop_
_atom_site_type_symbol
_atom_site_label
_atom_site_fract_x
_atom_site_fract_y
_atom_site_fract_z
Si Si1 0.192771 0.560254 0.445221
Si Si2 0.471353 0.125000 0.625000
Si Si3 0.516544 0.625000 0.625000
Si Si4 0.339121 0.988823 0.942567
Si Si5 0.350058 0.027157 0.673098
Si Si6 0.799878 0.438965 0.255153
O O1 0.267658 0.527436 0.457958
O O2 0.163258 0.529557 0.378482
O O3 0.205203 0.636158 0.447128
O O4 0.133330 0.544161 0.500644
O O5 0.418926 0.069060 0.651391
O O6 0.521698 0.152209 0.681498
O O7 0.562375 0.667849 0.575368
O O8 0.466038 0.674159 0.664384
O O9 0.375000 0.012624 0.875000
O O10 0.389787 0.999308 0.004435
O O11 0.750000 0.500000 0.250000
#
# Coordination Sequence:
#
# PCOD9515654 Si02
#       6
#    32  16  16  32  32  32
#     4  10  23  40  67 101 136 177 236 286 343 436
#     4  11  20  41  72  94 139 189 210 294 365 417
#     4   9  23  42  68 102 131 179 238 288 345 423
#     4  11  23  45  66  98 138 183 232 291 347 417
#     4  10  21  44  68  96 138 182 230 292 353 407
#     4  11  22  42  69 103 141 177 231 286 351 430
#
# _framework density 19.941075999999999
#
# number of rings (size 3 to 8) (size 9 to 14) (size 15 to 20)
#    0.000    1.600    4.000    0.300    0.000    4.800 
#   14.400    0.000    8.800    0.000    0.000    0.000 
#    0.000    0.000    0.000    0.000    0.000    0.000 
#
# Total GULP energy -223210.218556 kJ/mol
# GULP energy per Si atom -5580.255464 kJ/mol
# Density = 1.989569 g / cm^3
# Si number density = 19.941076 Si / 1000 Ang^3
#
#
#
# Elastic Constant Matrix: (Units=GPa)
#
#
# Indices 1 2 3 4 5 6 
#
# 1 111.8719 63.8526 43.5260 0.0000 0.0000 0.0000
# 2 63.8526 140.0611 67.3133 0.0000 0.0000 0.0000
# 3 43.5260 67.3133 132.9821 0.0000 0.0000 0.0000
# 4 0.0000 0.0000 0.0000 38.2310 0.0000 0.0000
# 5 0.0000 0.0000 0.0000 0.0000 32.7372 0.0000
# 6 0.0000 0.0000 0.0000 0.0000 0.0000 41.5980
#
#
#
# Elastic Compliance Matrix: (Units=1/GPa)
#
#
# Indices 1 2 3 4 5 6 
#
# 1 0.012327 -0.004864 -0.001573 0.000000 0.000000 0.000000
# 2 -0.004864 0.011354 -0.004155 0.000000 0.000000 0.000000
# 3 -0.001573 -0.004155 0.010138 0.000000 0.000000 0.000000
# 4 0.000000 0.000000 0.000000 0.026157 0.000000 0.000000
# 5 0.000000 0.000000 0.000000 0.000000 0.030546 0.000000
# 6 0.000000 0.000000 0.000000 0.000000 0.000000 0.024040
#
#
# Mechanical properties :
#
#
# Convention : Reuss Voigt Hill
#
# Bulk Modulus (GPa) = 79.14384 81.58876 80.36630
# Shear Modulus (GPa) = 35.72528 36.52812 36.12670
#
# Velocity S-wave (km/s) = 4.23725 4.28460 4.26099
# Velocity P-wave (km/s) = 7.98211 8.09202 8.03725
#
# Compressibility (1/GPa) = 0.01263522
#
# Stress axis : x y z
#
# Youngs Moduli (GPa) = 81.12416 88.07333 98.63983
#
# Poissons Ratio (x) = 0.42838 0.15513
# Poissons Ratio (y) = 0.39458 0.40988
# Poissons Ratio (z) = 0.12758 0.36597
#
# Static dielectric constant tensor:
#      x y z
#    x 1.747330 0.000000 0.000000 
#    y 0.000000 1.723680 0.000000 
#    z 0.000000 0.000000 1.692330 
# 
# From -- ./inp_files/36340.got.cif
#   From: 2010.05.17/outbox.cif.g08.bks.cpg/sg70_19_cif.got.tgz:36340.got - 2010.06.03 15:57:51.
