data_PCOD9515054
_publ_section_title
;
Structure prediction by ZEFSAII (Michael W. Deem and Ramdas Pophale) SiO2 
 PCOD9515054
Probable space group: F D D D
;
_chemical_formula_sum "Si O2"
_cell_formula_units_Z 240
_cell_length_a 25.622426
_cell_length_b 24.321676
_cell_length_c 18.185043
_cell_angle_alpha 90.000000
_cell_angle_beta 90.000000
_cell_angle_gamma 90.000000
_cell_volume 11332.561343
_symmetry_space_group_name_H-M "F D D D"
_symmetry_group_IT_number 70
_space_group.IT_coordinate_system_code '2'
_symmetry_cell_setting 'orthorhombic'
loop_
_space_group_symop_operation_xyz
x,y,z
1/4-x,1/4-y,z
x,1/4-y,1/4-z
1/4-x,y,1/4-z
-x,-y,-z
3/4+x,3/4+y,-z
-x,3/4+y,3/4+z
3/4+x,-y,3/4+z
x,1/2+y,1/2+z
1/4-x,3/4-y,1/2+z
x,3/4-y,3/4-z
1/4-x,1/2+y,3/4-z
-x,1/2-y,1/2-z
3/4+x,1/4+y,1/2-z
-x,1/4+y,1/4+z
3/4+x,1/2-y,1/4+z
1/2+x,y,1/2+z
3/4-x,1/4-y,1/2+z
1/2+x,1/4-y,3/4-z
3/4-x,y,3/4-z
1/2-x,-y,1/2-z
1/4+x,3/4+y,1/2-z
1/2-x,3/4+y,1/4+z
1/4+x,-y,1/4+z
1/2+x,1/2+y,z
3/4-x,3/4-y,z
1/2+x,3/4-y,1/4-z
3/4-x,1/2+y,1/4-z
1/2-x,1/2-y,-z
1/4+x,1/4+y,-z
1/2-x,1/4+y,3/4+z
1/4+x,1/2-y,3/4+z
loop_
_atom_site_type_symbol
_atom_site_label
_atom_site_fract_x
_atom_site_fract_y
_atom_site_fract_z
Si Si1 0.347615 0.182681 0.667071
Si Si2 0.216238 0.815673 0.415053
Si Si3 0.933189 0.401856 0.950475
Si Si4 0.897412 0.261833 0.705099
Si Si5 0.987562 0.583122 0.281944
Si Si6 0.510662 0.612818 0.943619
Si Si7 0.625000 0.125000 0.382971
Si Si8 0.285685 0.527781 0.513120
O O1 0.348268 0.125000 0.625000
O O2 0.407006 0.201425 0.683083
O O3 0.324222 0.226924 0.608766
O O4 0.317533 0.171529 0.742241
O O5 0.212324 0.875000 0.375000
O O6 0.249831 0.822954 0.487509
O O7 0.236741 0.780813 0.346801
O O8 0.953552 0.375000 0.875000
O O9 0.875000 0.375000 0.955175
O O10 0.924569 0.465947 0.970525
O O11 0.975953 0.384157 0.009882
O O12 0.878537 0.318341 0.664441
O O13 0.848091 0.224500 0.728563
O O14 0.986093 0.587946 0.369590
O O15 0.018273 0.532807 0.242616
O O16 0.571996 0.620999 0.929284
O O17 0.484883 0.671515 0.965852
#
# Coordination Sequence:
#
# PCOD9515054 Si02
#       8
#    32  32  32  32  32  32  16  32
#     4  10  23  42  62  89 130 177 217 266 333 405
#     4   8  19  40  62  83 121 169 213 260 326 399
#     4  11  21  38  60  94 130 164 219 280 327 385
#     4  11  19  43  70  88 130 182 220 267 342 401
#     4  12  22  38  61  94 131 160 223 277 321 399
#     4  11  22  38  68  92 130 168 218 277 328 398
#     4  12  20  40  66 102 122 170 224 268 338 394
#     4  10  20  39  63  93 125 171 219 264 338 400
#
# _framework density 21.177913
#
# number of rings (size 3 to 8) (size 9 to 14) (size 15 to 20)
#    0.000    1.467    4.667    2.000    0.000    1.067 
#    2.400    4.333    2.933    0.000    0.000    0.000 
#    0.000    0.000    0.000    0.000    0.000    0.000 
#
# Total GULP energy -334287.031535 kJ/mol
# GULP energy per Si atom -5571.450526 kJ/mol
# Density = 2.112971 g / cm^3
# Si number density = 21.177913 Si / 1000 Ang^3
#
#
#
# Elastic Constant Matrix: (Units=GPa)
#
#
# Indices 1 2 3 4 5 6 
#
# 1 51.7815 7.0985 25.5401 0.0000 0.0000 0.0000
# 2 7.0985 84.8926 29.3578 0.0000 0.0000 0.0000
# 3 25.5401 29.3578 114.7939 0.0000 0.0000 0.0000
# 4 0.0000 0.0000 0.0000 34.7359 0.0000 0.0000
# 5 0.0000 0.0000 0.0000 0.0000 15.6497 0.0000
# 6 0.0000 0.0000 0.0000 0.0000 0.0000 23.9570
#
#
#
# Elastic Compliance Matrix: (Units=1/GPa)
#
#
# Indices 1 2 3 4 5 6 
#
# 1 0.021694 -0.000159 -0.004786 0.000000 0.000000 0.000000
# 2 -0.000159 0.012924 -0.003270 0.000000 0.000000 0.000000
# 3 -0.004786 -0.003270 0.010612 0.000000 0.000000 0.000000
# 4 0.000000 0.000000 0.000000 0.028789 0.000000 0.000000
# 5 0.000000 0.000000 0.000000 0.000000 0.063899 0.000000
# 6 0.000000 0.000000 0.000000 0.000000 0.000000 0.041741
#
#
# Mechanical properties :
#
#
# Convention : Reuss Voigt Hill
#
# Bulk Modulus (GPa) = 34.72124 41.71787 38.21956
# Shear Modulus (GPa) = 24.30854 27.49996 25.90425
#
# Velocity S-wave (km/s) = 3.39163 3.60741 3.50118
# Velocity P-wave (km/s) = 5.63633 6.09038 5.86775
#
# Compressibility (1/GPa) = 0.02880081
#
# Stress axis : x y z
#
# Youngs Moduli (GPa) = 46.09498 77.37753 94.22999
#
# Poissons Ratio (x) = 0.01229 0.45099
# Poissons Ratio (y) = 0.00732 0.30811
# Poissons Ratio (z) = 0.22061 0.25301
#
# Static dielectric constant tensor:
#      x y z
#    x 1.807710 0.000000 0.000000 
#    y 0.000000 1.848790 0.000000 
#    z 0.000000 0.000000 1.851190 
# 
# From -- ./inp_files/38998.got.cif
#   From: 2010.05.17/outbox.cif.g08.bks.cpg/sg70_20_cif.got.tgz:38998.got - 2010.06.03 15:57:51.
