data_PCOD9515912
_publ_section_title
;
Structure prediction by ZEFSAII (Michael W. Deem and Ramdas Pophale) SiO2 
 PCOD9515912
Probable space group: F D D D
;
_chemical_formula_sum "Si O2"
_cell_formula_units_Z 136
_cell_length_a 19.833029
_cell_length_b 10.967141
_cell_length_c 23.396390
_cell_angle_alpha 90.000000
_cell_angle_beta 90.000000
_cell_angle_gamma 90.000000
_cell_volume 5088.986820
_symmetry_space_group_name_H-M "F D D D"
_symmetry_group_IT_number 70
_space_group.IT_coordinate_system_code '2'
_symmetry_cell_setting 'orthorhombic'
loop_
_space_group_symop_operation_xyz
x,y,z
1/4-x,1/4-y,z
x,1/4-y,1/4-z
1/4-x,y,1/4-z
-x,-y,-z
3/4+x,3/4+y,-z
-x,3/4+y,3/4+z
3/4+x,-y,3/4+z
x,1/2+y,1/2+z
1/4-x,3/4-y,1/2+z
x,3/4-y,3/4-z
1/4-x,1/2+y,3/4-z
-x,1/2-y,1/2-z
3/4+x,1/4+y,1/2-z
-x,1/4+y,1/4+z
3/4+x,1/2-y,1/4+z
1/2+x,y,1/2+z
3/4-x,1/4-y,1/2+z
1/2+x,1/4-y,3/4-z
3/4-x,y,3/4-z
1/2-x,-y,1/2-z
1/4+x,3/4+y,1/2-z
1/2-x,3/4+y,1/4+z
1/4+x,-y,1/4+z
1/2+x,1/2+y,z
3/4-x,3/4-y,z
1/2+x,3/4-y,1/4-z
3/4-x,1/2+y,1/4-z
1/2-x,1/2-y,-z
1/4+x,1/4+y,-z
1/2-x,1/4+y,3/4+z
1/4+x,1/2-y,3/4+z
loop_
_atom_site_type_symbol
_atom_site_label
_atom_site_fract_x
_atom_site_fract_y
_atom_site_fract_z
Si Si1 0.183232 0.207973 0.772353
Si Si2 0.125000 0.625000 0.625000
Si Si3 0.363775 0.564842 0.693269
Si Si4 0.185903 0.846459 0.683329
Si Si5 0.011060 0.656244 0.425205
O O1 0.125000 0.125000 0.746350
O O2 0.158981 0.298384 0.822641
O O3 0.239184 0.117964 0.796794
O O4 0.227290 0.290596 0.731428
O O5 0.171707 0.707834 0.664335
O O6 0.390303 0.599579 0.759056
O O7 0.428435 0.501819 0.664511
O O8 0.301218 0.469731 0.689294
O O9 0.197300 0.901735 0.618755
#
# Coordination Sequence:
#
# PCOD9515912 Si02
#       5
#    32   8  32  32  32
#     4  11  24  42  65  98 142 180 231 293 358 431
#     4  12  20  36  68 100 134 172 248 294 324 414
#     4  10  22  43  67  96 140 176 234 299 340 424
#     4  11  23  40  68 104 132 188 239 286 360 418
#     4  10  22  42  69 100 137 183 236 292 357 417
#
# _framework density 26.724378000000002
#
# number of rings (size 3 to 8) (size 9 to 14) (size 15 to 20)
#    0.000    1.412    0.000    6.353    3.294    3.765 
#    0.000    4.706    0.000    0.000    0.000    0.000 
#    0.000    0.000    0.000    0.000    0.000    0.000 
#
# Total GULP energy -189313.963757 kJ/mol
# GULP energy per Si atom -5568.057758 kJ/mol
# Density = 2.666355 g / cm^3
# Si number density = 26.724378 Si / 1000 Ang^3
#
#
#
# Elastic Constant Matrix: (Units=GPa)
#
#
# Indices 1 2 3 4 5 6 
#
# 1 119.7353 34.9947 23.0630 0.0000 0.0000 0.0000
# 2 34.9947 81.0116 21.2973 0.0000 0.0000 0.0000
# 3 23.0630 21.2973 93.9212 0.0000 0.0000 0.0000
# 4 0.0000 0.0000 0.0000 78.0412 0.0000 0.0000
# 5 0.0000 0.0000 0.0000 0.0000 47.2183 0.0000
# 6 0.0000 0.0000 0.0000 0.0000 0.0000 45.9116
#
#
#
# Elastic Compliance Matrix: (Units=1/GPa)
#
#
# Indices 1 2 3 4 5 6 
#
# 1 0.009762 -0.003814 -0.001532 0.000000 0.000000 0.000000
# 2 -0.003814 0.014617 -0.002378 0.000000 0.000000 0.000000
# 3 -0.001532 -0.002378 0.011563 0.000000 0.000000 0.000000
# 4 0.000000 0.000000 0.000000 0.012814 0.000000 0.000000
# 5 0.000000 0.000000 0.000000 0.000000 0.021178 0.000000
# 6 0.000000 0.000000 0.000000 0.000000 0.000000 0.021781
#
#
# Mechanical properties :
#
#
# Convention : Reuss Voigt Hill
#
# Bulk Modulus (GPa) = 48.79758 50.37534 49.58646
# Shear Modulus (GPa) = 43.86251 48.58844 46.22548
#
# Velocity S-wave (km/s) = 4.05568 4.26858 4.16349
# Velocity P-wave (km/s) = 6.34276 6.57155 6.45817
#
# Compressibility (1/GPa) = 0.02049282
#
# Stress axis : x y z
#
# Youngs Moduli (GPa) = 102.44266 68.41569 86.48525
#
# Poissons Ratio (x) = 0.26093 0.13251
# Poissons Ratio (y) = 0.39071 0.20565
# Poissons Ratio (z) = 0.15696 0.16268
#
# Static dielectric constant tensor:
#      x y z
#    x 2.716560 0.000000 0.000000 
#    y 0.000000 2.273760 0.000000 
#    z 0.000000 0.000000 2.361290 
# 
# From -- ./inp_files/20452.got.cif
#   From: 2010.05.17/outbox.cif.g08.bks.cpg/sg70_11_cif.got.tgz:20452.got - 2010.06.03 15:57:51.
