data_PCOD9515815
_publ_section_title
;
Structure prediction by ZEFSAII (Michael W. Deem and Ramdas Pophale) SiO2 
 PCOD9515815
Probable space group: F D D D
;
_chemical_formula_sum "Si O2"
_cell_formula_units_Z 216
_cell_length_a 22.623996
_cell_length_b 32.248317
_cell_length_c 15.074552
_cell_angle_alpha 90.000000
_cell_angle_beta 90.000000
_cell_angle_gamma 90.000000
_cell_volume 10998.179002
_symmetry_space_group_name_H-M "F D D D"
_symmetry_group_IT_number 70
_space_group.IT_coordinate_system_code '2'
_symmetry_cell_setting 'orthorhombic'
loop_
_space_group_symop_operation_xyz
x,y,z
1/4-x,1/4-y,z
x,1/4-y,1/4-z
1/4-x,y,1/4-z
-x,-y,-z
3/4+x,3/4+y,-z
-x,3/4+y,3/4+z
3/4+x,-y,3/4+z
x,1/2+y,1/2+z
1/4-x,3/4-y,1/2+z
x,3/4-y,3/4-z
1/4-x,1/2+y,3/4-z
-x,1/2-y,1/2-z
3/4+x,1/4+y,1/2-z
-x,1/4+y,1/4+z
3/4+x,1/2-y,1/4+z
1/2+x,y,1/2+z
3/4-x,1/4-y,1/2+z
1/2+x,1/4-y,3/4-z
3/4-x,y,3/4-z
1/2-x,-y,1/2-z
1/4+x,3/4+y,1/2-z
1/2-x,3/4+y,1/4+z
1/4+x,-y,1/4+z
1/2+x,1/2+y,z
3/4-x,3/4-y,z
1/2+x,3/4-y,1/4-z
3/4-x,1/2+y,1/4-z
1/2-x,1/2-y,-z
1/4+x,1/4+y,-z
1/2-x,1/4+y,3/4+z
1/4+x,1/2-y,3/4+z
loop_
_atom_site_type_symbol
_atom_site_label
_atom_site_fract_x
_atom_site_fract_y
_atom_site_fract_z
Si Si1 0.997355 0.171117 0.502748
Si Si2 0.566518 0.152426 0.332918
Si Si3 0.384593 0.776426 0.978792
Si Si4 0.352319 0.727310 0.279084
Si Si5 0.585266 0.375000 0.375000
Si Si6 0.911361 0.551670 0.652662
Si Si7 0.625000 0.125000 0.625000
Si Si8 0.460005 0.312906 0.983504
O O1 0.024213 0.128712 0.468314
O O2 0.050960 0.202382 0.514664
O O3 0.946734 0.192879 0.445866
O O4 0.959637 0.159196 0.588038
O O5 0.625000 0.125000 0.357355
O O6 0.589382 0.190003 0.271065
O O7 0.532179 0.167401 0.419607
O O8 0.375000 0.768444 0.875000
O O9 0.385276 0.735221 0.037532
O O10 0.375000 0.740352 0.375000
O O11 0.395830 0.709990 0.201138
O O12 0.320388 0.768753 0.245257
O O13 0.630258 0.345296 0.321926
O O14 0.980650 0.555728 0.676467
O O15 0.583500 0.094380 0.682224
#
# Coordination Sequence:
#
# PCOD9515815 Si02
#       8
#    32  32  32  32  16  32   8  32
#     4  10  22  42  65  95 130 178 218 266 331 396
#     4  10  22  40  67  97 136 171 226 276 326 400
#     4  11  22  40  69 102 133 176 225 274 334 399
#     4  11  24  44  68  94 130 176 221 266 339 403
#     4  10  23  44  61  93 140 173 218 270 332 398
#     4  11  25  43  66  99 135 172 222 278 326 398
#     4  12  26  40  68  96 122 174 224 276 346 380
#     4  12  23  43  65  98 132 169 220 282 331 391
#
# _framework density 19.639614999999999
#
# number of rings (size 3 to 8) (size 9 to 14) (size 15 to 20)
#    0.000    1.185    4.444    1.333    0.000    7.407 
#    0.000    3.704    0.000    0.000    0.000    0.000 
#    0.000    0.000    0.000    0.000    0.000    0.000 
#
# Total GULP energy -300851.448555 kJ/mol
# GULP energy per Si atom -5571.323121 kJ/mol
# Density = 1.959491 g / cm^3
# Si number density = 19.639615 Si / 1000 Ang^3
#
#
#
# Elastic Constant Matrix: (Units=GPa)
#
#
# Indices 1 2 3 4 5 6 
#
# 1 77.0736 27.2928 32.2555 0.0000 0.0000 0.0000
# 2 27.2928 99.5553 16.6217 0.0000 0.0000 0.0000
# 3 32.2555 16.6217 93.6963 0.0000 0.0000 0.0000
# 4 0.0000 0.0000 0.0000 29.6409 0.0000 0.0000
# 5 0.0000 0.0000 0.0000 0.0000 19.2397 0.0000
# 6 0.0000 0.0000 0.0000 0.0000 0.0000 23.5862
#
#
#
# Elastic Compliance Matrix: (Units=1/GPa)
#
#
# Indices 1 2 3 4 5 6 
#
# 1 0.016352 -0.003651 -0.004982 0.000000 0.000000 0.000000
# 2 -0.003651 0.011167 -0.000724 0.000000 0.000000 0.000000
# 3 -0.004982 -0.000724 0.012516 0.000000 0.000000 0.000000
# 4 0.000000 0.000000 0.000000 0.033737 0.000000 0.000000
# 5 0.000000 0.000000 0.000000 0.000000 0.051976 0.000000
# 6 0.000000 0.000000 0.000000 0.000000 0.000000 0.042398
#
#
# Mechanical properties :
#
#
# Convention : Reuss Voigt Hill
#
# Bulk Modulus (GPa) = 46.90139 46.96280 46.93210
# Shear Modulus (GPa) = 25.77762 27.43704 26.60733
#
# Velocity S-wave (km/s) = 3.62682 3.74173 3.68472
# Velocity P-wave (km/s) = 6.43982 6.52929 6.48471
#
# Compressibility (1/GPa) = 0.02132133
#
# Stress axis : x y z
#
# Youngs Moduli (GPa) = 61.15310 89.55343 79.89650
#
# Poissons Ratio (x) = 0.32698 0.39802
# Poissons Ratio (y) = 0.22328 0.05784
# Poissons Ratio (z) = 0.30465 0.06483
#
# Static dielectric constant tensor:
#      x y z
#    x 1.694060 0.000000 0.000000 
#    y 0.000000 1.741600 0.000000 
#    z 0.000000 0.000000 1.649690 
# 
# From -- ./inp_files/29137.got.cif
#   From: 2010.05.17/outbox.cif.g08.bks.cpg/sg70_15_cif.got.tgz:29137.got - 2010.06.03 15:57:51.
