data_PCOD9515046
_publ_section_title
;
Structure prediction by ZEFSAII (Michael W. Deem and Ramdas Pophale) SiO2 
 PCOD9515046
Probable space group: F D D D
;
_chemical_formula_sum "Si O2"
_cell_formula_units_Z 128
_cell_length_a 22.074583
_cell_length_b 21.393412
_cell_length_c 13.588375
_cell_angle_alpha 90.000000
_cell_angle_beta 90.000000
_cell_angle_gamma 90.000000
_cell_volume 6417.118911
_symmetry_space_group_name_H-M "F D D D"
_symmetry_group_IT_number 70
_space_group.IT_coordinate_system_code '2'
_symmetry_cell_setting 'orthorhombic'
loop_
_space_group_symop_operation_xyz
x,y,z
1/4-x,1/4-y,z
x,1/4-y,1/4-z
1/4-x,y,1/4-z
-x,-y,-z
3/4+x,3/4+y,-z
-x,3/4+y,3/4+z
3/4+x,-y,3/4+z
x,1/2+y,1/2+z
1/4-x,3/4-y,1/2+z
x,3/4-y,3/4-z
1/4-x,1/2+y,3/4-z
-x,1/2-y,1/2-z
3/4+x,1/4+y,1/2-z
-x,1/4+y,1/4+z
3/4+x,1/2-y,1/4+z
1/2+x,y,1/2+z
3/4-x,1/4-y,1/2+z
1/2+x,1/4-y,3/4-z
3/4-x,y,3/4-z
1/2-x,-y,1/2-z
1/4+x,3/4+y,1/2-z
1/2-x,3/4+y,1/4+z
1/4+x,-y,1/4+z
1/2+x,1/2+y,z
3/4-x,3/4-y,z
1/2+x,3/4-y,1/4-z
3/4-x,1/2+y,1/4-z
1/2-x,1/2-y,-z
1/4+x,1/4+y,-z
1/2-x,1/4+y,3/4+z
1/4+x,1/2-y,3/4+z
loop_
_atom_site_type_symbol
_atom_site_label
_atom_site_fract_x
_atom_site_fract_y
_atom_site_fract_z
Si Si1 0.375000 0.875000 0.699712
Si Si2 0.125000 0.517435 0.625000
Si Si3 0.187559 0.350829 0.093969
Si Si4 0.461867 0.937350 0.209291
Si Si5 0.738729 0.176612 0.206889
O O1 0.418739 0.835494 0.628621
O O2 0.331583 0.831532 0.764794
O O3 0.085648 0.467707 0.559619
O O4 0.169857 0.554753 0.555142
O O5 0.125000 0.384780 0.125000
O O6 0.233442 0.388331 0.026310
O O7 0.223478 0.338647 0.194827
O O8 0.491951 0.003407 0.180547
O O9 0.753124 0.125000 0.125000
#
# Coordination Sequence:
#
# PCOD9515046 Si02
#       5
#    16  16  32  32  32
#     4  10  23  39  56  94 124 152 210 245 305 364
#     4   8  18  39  58  88 127 150 212 248 294 378
#     4   8  18  36  60  86 119 150 202 250 293 361
#     4  10  20  39  62  84 126 161 191 262 300 357
#     4  10  21  37  60  86 120 155 199 251 302 356
#
# _framework density 19.946646000000001
#
# number of rings (size 3 to 8) (size 9 to 14) (size 15 to 20)
#    0.750    2.000    0.000    0.375    0.000    8.500 
#    0.000   13.750   11.000    0.000    0.000    0.000 
#    0.000    0.000    0.000    0.000    0.000    0.000 
#
# Total GULP energy -178279.615625 kJ/mol
# GULP energy per Si atom -5571.237988 kJ/mol
# Density = 1.990125 g / cm^3
# Si number density = 19.946646 Si / 1000 Ang^3
#
#
#
# Elastic Constant Matrix: (Units=GPa)
#
#
# Indices 1 2 3 4 5 6 
#
# 1 138.9925 53.9613 29.5530 0.0000 0.0000 0.0000
# 2 53.9613 92.0725 33.2693 0.0000 0.0000 0.0000
# 3 29.5530 33.2693 29.4283 0.0000 0.0000 0.0000
# 4 0.0000 0.0000 0.0000 9.4448 0.0000 0.0000
# 5 0.0000 0.0000 0.0000 0.0000 25.3141 0.0000
# 6 0.0000 0.0000 0.0000 0.0000 0.0000 19.1717
#
#
#
# Elastic Compliance Matrix: (Units=1/GPa)
#
#
# Indices 1 2 3 4 5 6 
#
# 1 0.009846 -0.003716 -0.005688 0.000000 0.000000 0.000000
# 2 -0.003716 0.019764 -0.018612 0.000000 0.000000 0.000000
# 3 -0.005688 -0.018612 0.060734 0.000000 0.000000 0.000000
# 4 0.000000 0.000000 0.000000 0.105878 0.000000 0.000000
# 5 0.000000 0.000000 0.000000 0.000000 0.039504 0.000000
# 6 0.000000 0.000000 0.000000 0.000000 0.000000 0.052160
#
#
# Mechanical properties :
#
#
# Convention : Reuss Voigt Hill
#
# Bulk Modulus (GPa) = 29.14293 54.89562 42.01928
# Shear Modulus (GPa) = 14.07042 20.36676 17.21859
#
# Velocity S-wave (km/s) = 2.65882 3.19887 2.94127
# Velocity P-wave (km/s) = 4.90591 6.42065 5.71370
#
# Compressibility (1/GPa) = 0.03431364
#
# Stress axis : x y z
#
# Youngs Moduli (GPa) = 101.55930 50.59721 16.46521
#
# Poissons Ratio (x) = 0.18800 0.09365
# Poissons Ratio (y) = 0.37735 0.30645
# Poissons Ratio (z) = 0.57763 0.94173
#
# Static dielectric constant tensor:
#      x y z
#    x 1.737830 0.000000 0.000000 
#    y 0.000000 1.740640 0.000000 
#    z 0.000000 0.000000 1.696110 
# 
# From -- ./inp_files/20594.got.cif
#   From: 2010.05.17/outbox.cif.g08.bks.cpg/sg70_11_cif.got.tgz:20594.got - 2010.06.03 15:57:51.
