data_PCOD9515543
_publ_section_title
;
Structure prediction by ZEFSAII (Michael W. Deem and Ramdas Pophale) SiO2 
 PCOD9515543
Probable space group: F D D D
;
_chemical_formula_sum "Si O2"
_cell_formula_units_Z 104
_cell_length_a 13.797243
_cell_length_b 11.822594
_cell_length_c 23.299359
_cell_angle_alpha 90.000000
_cell_angle_beta 90.000000
_cell_angle_gamma 90.000000
_cell_volume 3800.572854
_symmetry_space_group_name_H-M "F D D D"
_symmetry_group_IT_number 70
_space_group.IT_coordinate_system_code '2'
_symmetry_cell_setting 'orthorhombic'
loop_
_space_group_symop_operation_xyz
x,y,z
1/4-x,1/4-y,z
x,1/4-y,1/4-z
1/4-x,y,1/4-z
-x,-y,-z
3/4+x,3/4+y,-z
-x,3/4+y,3/4+z
3/4+x,-y,3/4+z
x,1/2+y,1/2+z
1/4-x,3/4-y,1/2+z
x,3/4-y,3/4-z
1/4-x,1/2+y,3/4-z
-x,1/2-y,1/2-z
3/4+x,1/4+y,1/2-z
-x,1/4+y,1/4+z
3/4+x,1/2-y,1/4+z
1/2+x,y,1/2+z
3/4-x,1/4-y,1/2+z
1/2+x,1/4-y,3/4-z
3/4-x,y,3/4-z
1/2-x,-y,1/2-z
1/4+x,3/4+y,1/2-z
1/2-x,3/4+y,1/4+z
1/4+x,-y,1/4+z
1/2+x,1/2+y,z
3/4-x,3/4-y,z
1/2+x,3/4-y,1/4-z
3/4-x,1/2+y,1/4-z
1/2-x,1/2-y,-z
1/4+x,1/4+y,-z
1/2-x,1/4+y,3/4+z
1/4+x,1/2-y,3/4+z
loop_
_atom_site_type_symbol
_atom_site_label
_atom_site_fract_x
_atom_site_fract_y
_atom_site_fract_z
Si Si1 0.518948 0.469045 0.435118
Si Si2 0.763057 0.959984 0.068181
Si Si3 0.550991 0.406770 0.953387
Si Si4 0.375000 0.875000 0.375000
O O1 0.500000 0.500000 0.500000
O O2 0.476065 0.341538 0.432174
O O3 0.494487 0.560524 0.386041
O O4 0.634418 0.445314 0.426991
O O5 0.875302 0.988619 0.052401
O O6 0.715950 0.886885 0.018137
O O7 0.452441 0.428061 0.919384
#
# Coordination Sequence:
#
# PCOD9515543 Si02
#       4
#    32  32  32   8
#     4   9  19  41  64  93 138 172 228 283 340 413
#     4   9  20  42  63  97 132 171 230 273 348 401
#     4  10  21  41  65  94 130 184 218 286 345 407
#     4  12  20  44  68  80 150 176 226 286 356 400
#
# _framework density 27.364296
#
# number of rings (size 3 to 8) (size 9 to 14) (size 15 to 20)
#    1.846    0.615    3.077    0.000    0.000    3.692 
#    5.538    3.077    0.000    0.000    0.000    0.000 
#    0.000    0.000    0.000    0.000    0.000    0.000 
#
# Total GULP energy -144901.130127 kJ/mol
# GULP energy per Si atom -5573.120390 kJ/mol
# Density = 2.730201 g / cm^3
# Si number density = 27.364296 Si / 1000 Ang^3
#
#
#
# Elastic Constant Matrix: (Units=GPa)
#
#
# Indices 1 2 3 4 5 6 
#
# 1 165.9597 31.5276 45.3374 0.0000 0.0000 0.0000
# 2 31.5276 83.4206 83.4725 0.0000 0.0000 0.0000
# 3 45.3374 83.4725 289.0718 0.0000 0.0000 0.0000
# 4 0.0000 0.0000 0.0000 26.7666 0.0000 0.0000
# 5 0.0000 0.0000 0.0000 0.0000 47.5755 0.0000
# 6 0.0000 0.0000 0.0000 0.0000 0.0000 28.5201
#
#
#
# Elastic Compliance Matrix: (Units=1/GPa)
#
#
# Indices 1 2 3 4 5 6 
#
# 1 0.006531 -0.002030 -0.000438 0.000000 0.000000 0.000000
# 2 -0.002030 0.017489 -0.004732 0.000000 0.000000 0.000000
# 3 -0.000438 -0.004732 0.004894 0.000000 0.000000 0.000000
# 4 0.000000 0.000000 0.000000 0.037360 0.000000 0.000000
# 5 0.000000 0.000000 0.000000 0.000000 0.021019 0.000000
# 6 0.000000 0.000000 0.000000 0.000000 0.000000 0.035063
#
#
# Mechanical properties :
#
#
# Convention : Reuss Voigt Hill
#
# Bulk Modulus (GPa) = 68.89429 95.45859 82.17644
# Shear Modulus (GPa) = 35.31196 45.78007 40.54601
#
# Velocity S-wave (km/s) = 3.59617 4.09465 3.85348
# Velocity P-wave (km/s) = 6.51725 7.57067 7.06362
#
# Compressibility (1/GPa) = 0.01451499
#
# Stress axis : x y z
#
# Youngs Moduli (GPa) = 153.11910 57.17738 204.31286
#
# Poissons Ratio (x) = 0.11606 0.08952
# Poissons Ratio (y) = 0.31080 0.96679
# Poissons Ratio (z) = 0.06709 0.27056
#
# Static dielectric constant tensor:
#      x y z
#    x 2.264800 0.000000 0.000000 
#    y 0.000000 2.288130 0.000000 
#    z 0.000000 0.000000 2.238370 
# 
# From -- ./inp_files/27109.got.cif
#   From: 2010.05.17/outbox.cif.g08.bks.cpg/sg70_14_cif.got.tgz:27109.got - 2010.06.03 15:57:51.
