data_PCOD9515243
_publ_section_title
;
Structure prediction by ZEFSAII (Michael W. Deem and Ramdas Pophale) SiO2 
 PCOD9515243
Probable space group: F D D D
;
_chemical_formula_sum "Si O2"
_cell_formula_units_Z 176
_cell_length_a 23.763011
_cell_length_b 12.450478
_cell_length_c 26.920486
_cell_angle_alpha 90.000000
_cell_angle_beta 90.000000
_cell_angle_gamma 90.000000
_cell_volume 7964.717754
_symmetry_space_group_name_H-M "F D D D"
_symmetry_group_IT_number 70
_space_group.IT_coordinate_system_code '2'
_symmetry_cell_setting 'orthorhombic'
loop_
_space_group_symop_operation_xyz
x,y,z
1/4-x,1/4-y,z
x,1/4-y,1/4-z
1/4-x,y,1/4-z
-x,-y,-z
3/4+x,3/4+y,-z
-x,3/4+y,3/4+z
3/4+x,-y,3/4+z
x,1/2+y,1/2+z
1/4-x,3/4-y,1/2+z
x,3/4-y,3/4-z
1/4-x,1/2+y,3/4-z
-x,1/2-y,1/2-z
3/4+x,1/4+y,1/2-z
-x,1/4+y,1/4+z
3/4+x,1/2-y,1/4+z
1/2+x,y,1/2+z
3/4-x,1/4-y,1/2+z
1/2+x,1/4-y,3/4-z
3/4-x,y,3/4-z
1/2-x,-y,1/2-z
1/4+x,3/4+y,1/2-z
1/2-x,3/4+y,1/4+z
1/4+x,-y,1/4+z
1/2+x,1/2+y,z
3/4-x,3/4-y,z
1/2+x,3/4-y,1/4-z
3/4-x,1/2+y,1/4-z
1/2-x,1/2-y,-z
1/4+x,1/4+y,-z
1/2-x,1/4+y,3/4+z
1/4+x,1/2-y,3/4+z
loop_
_atom_site_type_symbol
_atom_site_label
_atom_site_fract_x
_atom_site_fract_y
_atom_site_fract_z
Si Si1 0.062809 0.649400 0.566082
Si Si2 0.441337 0.664012 0.183335
Si Si3 0.033173 0.492964 0.897179
Si Si4 0.858368 0.751090 0.513006
Si Si5 0.375000 0.875000 0.586093
Si Si6 0.673267 0.363587 0.085452
O O1 0.125000 0.625000 0.545173
O O2 0.065646 0.625000 0.625000
O O3 0.054557 0.776681 0.560978
O O4 0.006480 0.588529 0.549358
O O5 0.440367 0.625000 0.125000
O O6 0.405259 0.575175 0.212242
O O7 0.411587 0.779997 0.189392
O O8 0.030722 0.375000 0.875000
O O9 0.051806 0.486382 0.954518
O O10 0.081463 0.559644 0.869857
O O11 0.975153 0.554160 0.889463
O O12 0.850287 0.712816 0.457085
O O13 0.875000 0.875000 0.515288
O O14 0.625000 0.391012 0.125000
#
# Coordination Sequence:
#
# PCOD9515243 Si02
#       6
#    32  32  32  32  16  32
#     4  10  20  44  73  95 135 193 230 279 371 428
#     4  11  21  41  76 105 137 183 239 302 357 434
#     4  12  24  44  75 103 141 185 241 303 365 431
#     4  12  24  46  70 104 143 193 239 296 371 432
#     4  12  20  42  76 112 138 176 240 306 368 420
#     4  12  28  45  68 101 143 193 243 292 362 447
#
# _framework density 22.097455
#
# number of rings (size 3 to 8) (size 9 to 14) (size 15 to 20)
#    0.000    0.545    6.364    3.818    2.545    0.000 
#    1.636    0.909    0.000    0.000    0.000    0.000 
#    0.000    0.000    0.000    0.000    0.000    0.000 
#
# Total GULP energy -246220.407816 kJ/mol
# GULP energy per Si atom -5595.918359 kJ/mol
# Density = 2.204716 g / cm^3
# Si number density = 22.097455 Si / 1000 Ang^3
#
#
#
# Elastic Constant Matrix: (Units=GPa)
#
#
# Indices 1 2 3 4 5 6 
#
# 1 173.5208 70.4837 31.5824 0.0000 0.0000 0.0000
# 2 70.4837 185.2843 24.8089 0.0000 0.0000 0.0000
# 3 31.5824 24.8089 21.2566 0.0000 0.0000 0.0000
# 4 0.0000 0.0000 0.0000 29.3040 0.0000 0.0000
# 5 0.0000 0.0000 0.0000 0.0000 10.3689 0.0000
# 6 0.0000 0.0000 0.0000 0.0000 0.0000 56.9941
#
#
#
# Elastic Compliance Matrix: (Units=1/GPa)
#
#
# Indices 1 2 3 4 5 6 
#
# 1 0.008378 -0.001802 -0.010344 0.000000 0.000000 0.000000
# 2 -0.001802 0.006784 -0.005241 0.000000 0.000000 0.000000
# 3 -0.010344 -0.005241 0.068530 0.000000 0.000000 0.000000
# 4 0.000000 0.000000 0.000000 0.034125 0.000000 0.000000
# 5 0.000000 0.000000 0.000000 0.000000 0.096442 0.000000
# 6 0.000000 0.000000 0.000000 0.000000 0.000000 0.017546
#
#
# Mechanical properties :
#
#
# Convention : Reuss Voigt Hill
#
# Bulk Modulus (GPa) = 20.44234 70.42354 45.43294
# Shear Modulus (GPa) = 17.67501 36.21251 26.94376
#
# Velocity S-wave (km/s) = 2.83126 4.05256 3.49566
# Velocity P-wave (km/s) = 4.46756 7.33732 6.07435
#
# Compressibility (1/GPa) = 0.04891807
#
# Stress axis : x y z
#
# Youngs Moduli (GPa) = 119.36482 147.39933 14.59210
#
# Poissons Ratio (x) = 0.26560 0.15095
# Poissons Ratio (y) = 0.21508 0.07648
# Poissons Ratio (z) = 1.23475 0.77250
#
# Static dielectric constant tensor:
#      x y z
#    x 1.815790 0.000000 0.000000 
#    y 0.000000 1.781390 0.000000 
#    z 0.000000 0.000000 1.824220 
# 
# From -- ./inp_files/67785.got.cif
#   From: 2010.05.17/outbox.cif.g08.bks.cpg/sg70_34_cif.got.tgz:67785.got - 2010.06.03 15:57:51.
