data_PCOD9515598
_publ_section_title
;
Structure prediction by ZEFSAII (Michael W. Deem and Ramdas Pophale) SiO2 
 PCOD9515598
Probable space group: F D D D
;
_chemical_formula_sum "Si O2"
_cell_formula_units_Z 240
_cell_length_a 17.840872
_cell_length_b 25.235088
_cell_length_c 22.994219
_cell_angle_alpha 90.000000
_cell_angle_beta 90.000000
_cell_angle_gamma 90.000000
_cell_volume 10352.364725
_symmetry_space_group_name_H-M "F D D D"
_symmetry_group_IT_number 70
_space_group.IT_coordinate_system_code '2'
_symmetry_cell_setting 'orthorhombic'
loop_
_space_group_symop_operation_xyz
x,y,z
1/4-x,1/4-y,z
x,1/4-y,1/4-z
1/4-x,y,1/4-z
-x,-y,-z
3/4+x,3/4+y,-z
-x,3/4+y,3/4+z
3/4+x,-y,3/4+z
x,1/2+y,1/2+z
1/4-x,3/4-y,1/2+z
x,3/4-y,3/4-z
1/4-x,1/2+y,3/4-z
-x,1/2-y,1/2-z
3/4+x,1/4+y,1/2-z
-x,1/4+y,1/4+z
3/4+x,1/2-y,1/4+z
1/2+x,y,1/2+z
3/4-x,1/4-y,1/2+z
1/2+x,1/4-y,3/4-z
3/4-x,y,3/4-z
1/2-x,-y,1/2-z
1/4+x,3/4+y,1/2-z
1/2-x,3/4+y,1/4+z
1/4+x,-y,1/4+z
1/2+x,1/2+y,z
3/4-x,3/4-y,z
1/2+x,3/4-y,1/4-z
3/4-x,1/2+y,1/4-z
1/2-x,1/2-y,-z
1/4+x,1/4+y,-z
1/2-x,1/4+y,3/4+z
1/4+x,1/2-y,3/4+z
loop_
_atom_site_type_symbol
_atom_site_label
_atom_site_fract_x
_atom_site_fract_y
_atom_site_fract_z
Si Si1 0.080232 0.515890 0.571913
Si Si2 0.029339 0.857307 0.997940
Si Si3 0.429857 0.798489 0.199853
Si Si4 0.926576 0.923639 0.495626
Si Si5 0.917851 0.149868 0.688118
Si Si6 0.072251 0.257180 0.573689
Si Si7 0.218107 0.625000 0.625000
Si Si8 0.318972 0.760923 0.104761
O O1 0.125000 0.489610 0.625000
O O2 0.110869 0.522700 0.506485
O O3 0.999884 0.488907 0.565596
O O4 0.068307 0.576169 0.591656
O O5 0.042280 0.804510 0.034018
O O6 0.970411 0.896509 0.030185
O O7 0.113913 0.878988 0.985057
O O8 0.005363 0.847727 0.931185
O O9 0.374008 0.794748 0.145781
O O10 0.875000 0.875000 0.514162
O O11 0.959596 0.952717 0.552224
O O12 0.996557 0.902479 0.458797
O O13 0.872526 0.963713 0.459650
O O14 0.909639 0.125000 0.625000
O O15 0.894237 0.211220 0.678050
O O16 0.125000 0.279272 0.625000
O O17 0.997760 0.236726 0.606315
#
# Coordination Sequence:
#
# PCOD9515598 Si02
#       8
#    32  32  32  32  32  32  16  32
#     4  10  22  42  66  92 139 180 240 300 348 427
#     4  11  24  44  71 105 146 188 250 302 378 457
#     4  10  26  43  64 106 144 183 243 301 368 453
#     4  12  28  49  72 114 150 193 261 321 390 478
#     4  12  24  46  81 106 142 202 257 316 384 458
#     4  12  26  47  77 107 146 193 249 322 383 459
#     4  10  21  42  68 104 133 188 248 290 353 450
#     4  12  26  47  74 105 154 196 246 319 398 460
#
# _framework density 23.183108000000001
#
# number of rings (size 3 to 8) (size 9 to 14) (size 15 to 20)
#    0.000    0.800    3.333    3.000    7.467    0.533 
#    2.400    0.000    0.000    0.000    0.000    0.000 
#    0.000    0.000    0.000    0.000    0.000    0.000 
#
# Total GULP energy -334997.903574 kJ/mol
# GULP energy per Si atom -5583.298393 kJ/mol
# Density = 2.313034 g / cm^3
# Si number density = 23.183108 Si / 1000 Ang^3
#
#
#
# Elastic Constant Matrix: (Units=GPa)
#
#
# Indices 1 2 3 4 5 6 
#
# 1 71.1669 -3.8455 12.6976 0.0000 0.0000 0.0000
# 2 -3.8455 31.4812 2.0621 0.0000 0.0000 0.0000
# 3 12.6976 2.0621 75.0359 0.0000 0.0000 0.0000
# 4 0.0000 0.0000 0.0000 -724.2905 0.0000 0.0000
# 5 0.0000 0.0000 0.0000 0.0000 52.6876 0.0000
# 6 0.0000 0.0000 0.0000 0.0000 0.0000 35.9623
#
#
#
# Elastic Compliance Matrix: (Units=1/GPa)
#
#
# Indices 1 2 3 4 5 6 
#
# 1 0.014607 0.001950 -0.002525 0.000000 0.000000 0.000000
# 2 0.001950 0.032082 -0.001212 0.000000 0.000000 0.000000
# 3 -0.002525 -0.001212 0.013788 0.000000 0.000000 0.000000
# 4 0.000000 0.000000 0.000000 -0.001381 0.000000 0.000000
# 5 0.000000 0.000000 0.000000 0.000000 0.018980 0.000000
# 6 0.000000 0.000000 0.000000 0.000000 0.000000 0.027807
#
#
# Mechanical properties :
#
#
# Convention : Reuss Voigt Hill
#
# Bulk Modulus (GPa) = 17.57380 22.16805 19.87092
# Shear Modulus (GPa) = 38.93298 -116.01013 -38.53857
#
# Velocity S-wave (km/s) = 4.10246 -7.08163 -4.08162
# Velocity P-wave (km/s) = 5.48061 7.56855 3.69093
#
# Compressibility (1/GPa) = 0.05690290
#
# Stress axis : x y z
#
# Youngs Moduli (GPa) = 68.45830 31.16964 72.52886
#
# Poissons Ratio (x) = -0.06077 0.18317
# Poissons Ratio (y) = -0.13348 0.08788
# Poissons Ratio (z) = 0.17289 0.03777
#
# Static dielectric constant tensor:
#      x y z
#    x 2.082230 0.000000 0.000000 
#    y 0.000000 1.867790 0.000000 
#    z 0.000000 0.000000 2.077300 
# 
# From -- ./inp_files/45215.got.cif
#   From: 2010.05.17/outbox.cif.g08.bks.cpg/sg70_23_cif.got.tgz:45215.got - 2010.06.03 15:57:51.
