data_PCOD9515025
_publ_section_title
;
Structure prediction by ZEFSAII (Michael W. Deem and Ramdas Pophale) SiO2 
 PCOD9515025
Probable space group: F D D D
;
_chemical_formula_sum "Si O2"
_cell_formula_units_Z 240
_cell_length_a 24.099061
_cell_length_b 19.358721
_cell_length_c 19.896812
_cell_angle_alpha 90.000000
_cell_angle_beta 90.000000
_cell_angle_gamma 90.000000
_cell_volume 9282.399977
_symmetry_space_group_name_H-M "F D D D"
_symmetry_group_IT_number 70
_space_group.IT_coordinate_system_code '2'
_symmetry_cell_setting 'orthorhombic'
loop_
_space_group_symop_operation_xyz
x,y,z
1/4-x,1/4-y,z
x,1/4-y,1/4-z
1/4-x,y,1/4-z
-x,-y,-z
3/4+x,3/4+y,-z
-x,3/4+y,3/4+z
3/4+x,-y,3/4+z
x,1/2+y,1/2+z
1/4-x,3/4-y,1/2+z
x,3/4-y,3/4-z
1/4-x,1/2+y,3/4-z
-x,1/2-y,1/2-z
3/4+x,1/4+y,1/2-z
-x,1/4+y,1/4+z
3/4+x,1/2-y,1/4+z
1/2+x,y,1/2+z
3/4-x,1/4-y,1/2+z
1/2+x,1/4-y,3/4-z
3/4-x,y,3/4-z
1/2-x,-y,1/2-z
1/4+x,3/4+y,1/2-z
1/2-x,3/4+y,1/4+z
1/4+x,-y,1/4+z
1/2+x,1/2+y,z
3/4-x,3/4-y,z
1/2+x,3/4-y,1/4-z
3/4-x,1/2+y,1/4-z
1/2-x,1/2-y,-z
1/4+x,1/4+y,-z
1/2-x,1/4+y,3/4+z
1/4+x,1/2-y,3/4+z
loop_
_atom_site_type_symbol
_atom_site_label
_atom_site_fract_x
_atom_site_fract_y
_atom_site_fract_z
Si Si1 0.256718 0.163717 0.285579
Si Si2 0.284700 0.114936 0.774252
Si Si3 0.564767 0.506360 0.623792
Si Si4 0.850175 0.542112 0.135926
Si Si5 0.176056 0.073656 0.837823
Si Si6 0.439148 0.229539 0.775500
Si Si7 0.477001 0.125000 0.125000
Si Si8 0.974521 0.264702 0.409951
O O1 0.296618 0.227402 0.303395
O O2 0.211972 0.159498 0.345269
O O3 0.299571 0.101042 0.287849
O O4 0.224301 0.176583 0.216734
O O5 0.315391 0.056580 0.819352
O O6 0.220871 0.087120 0.779661
O O7 0.301783 0.130662 0.697684
O O8 0.287481 0.189420 0.809570
O O9 0.625000 0.538363 0.625000
O O10 0.516158 0.559664 0.612363
O O11 0.848680 0.625000 0.125000
O O12 0.898463 0.501642 0.096504
O O13 0.852769 0.516303 0.213766
O O14 0.789204 0.516670 0.112653
O O15 0.125000 0.125000 0.831030
O O16 0.500000 0.250000 0.750000
O O17 0.434772 0.269949 0.845214
#
# Coordination Sequence:
#
# PCOD9515025 Si02
#       8
#    32  32  32  32  32  32  16  32
#     4  11  22  43  68  96 140 181 228 287 354 422
#     4  11  24  46  73 101 142 194 232 295 353 422
#     4  11  25  46  70 104 139 184 239 297 355 423
#     4  11  22  39  68 105 135 177 239 293 342 429
#     4  11  22  43  68 103 140 184 233 290 359 422
#     4  10  20  38  68  99 129 177 226 274 345 421
#     4  12  25  46  72 104 142 192 244 286 357 432
#     4  11  20  42  70  93 137 186 224 277 359 426
#
# _framework density 25.855381000000001
#
# number of rings (size 3 to 8) (size 9 to 14) (size 15 to 20)
#    0.000    1.067    6.667    1.400    0.000    2.133 
#    7.200    0.667    0.000    0.800    0.000    0.000 
#    0.000    0.000    0.000    0.000    0.000    0.000 
#
# Total GULP energy -335700.342787 kJ/mol
# GULP energy per Si atom -5595.005713 kJ/mol
# Density = 2.579653 g / cm^3
# Si number density = 25.855381 Si / 1000 Ang^3
#
#
#
# Elastic Constant Matrix: (Units=GPa)
#
#
# Indices 1 2 3 4 5 6 
#
# 1 88.8160 -1.6205 11.0804 0.0000 0.0000 0.0000
# 2 -1.6205 61.6160 16.2199 0.0000 0.0000 0.0000
# 3 11.0804 16.2199 173.5641 0.0000 0.0000 0.0000
# 4 0.0000 0.0000 0.0000 37.1425 0.0000 0.0000
# 5 0.0000 0.0000 0.0000 0.0000 23.9049 0.0000
# 6 0.0000 0.0000 0.0000 0.0000 0.0000 -8.0149
#
#
#
# Elastic Compliance Matrix: (Units=1/GPa)
#
#
# Indices 1 2 3 4 5 6 
#
# 1 0.011365 0.000502 -0.000772 0.000000 0.000000 0.000000
# 2 0.000502 0.016661 -0.001589 0.000000 0.000000 0.000000
# 3 -0.000772 -0.001589 0.005959 0.000000 0.000000 0.000000
# 4 0.000000 0.000000 0.000000 0.026923 0.000000 0.000000
# 5 0.000000 0.000000 0.000000 0.000000 0.041832 0.000000
# 6 0.000000 0.000000 0.000000 0.000000 0.000000 -0.124767
#
#
# Mechanical properties :
#
#
# Convention : Reuss Voigt Hill
#
# Bulk Modulus (GPa) = 33.03969 41.70618 37.37294
# Shear Modulus (GPa) = -608.37453 30.49425 -288.94014
#
# Velocity S-wave (km/s) = -15.35610 3.43799 -10.58277
# Velocity P-wave (km/s) = 17.36683 5.65024 11.61209
#
# Compressibility (1/GPa) = 0.03026662
#
# Stress axis : x y z
#
# Youngs Moduli (GPa) = 87.99123 60.02012 167.80279
#
# Poissons Ratio (x) = -0.03014 0.12962
# Poissons Ratio (y) = -0.04419 0.26665
# Poissons Ratio (z) = 0.06797 0.09538
#
# Static dielectric constant tensor:
#      x y z
#    x 2.012380 0.000000 0.000000 
#    y 0.000000 1.792220 0.000000 
#    z 0.000000 0.000000 2.069060 
# 
# From -- ./inp_files/47136.got.cif
#   From: 2010.05.17/outbox.cif.g08.bks.cpg/sg70_24_cif.got.tgz:47136.got - 2010.06.03 15:57:51.
