data_PCOD9515456
_publ_section_title
;
Structure prediction by ZEFSAII (Michael W. Deem and Ramdas Pophale) SiO2 
 PCOD9515456
Probable space group: F D D D
;
_chemical_formula_sum "Si O2"
_cell_formula_units_Z 240
_cell_length_a 27.469768
_cell_length_b 29.311553
_cell_length_c 13.326683
_cell_angle_alpha 90.000000
_cell_angle_beta 90.000000
_cell_angle_gamma 90.000000
_cell_volume 10730.399416
_symmetry_space_group_name_H-M "F D D D"
_symmetry_group_IT_number 70
_space_group.IT_coordinate_system_code '2'
_symmetry_cell_setting 'orthorhombic'
loop_
_space_group_symop_operation_xyz
x,y,z
1/4-x,1/4-y,z
x,1/4-y,1/4-z
1/4-x,y,1/4-z
-x,-y,-z
3/4+x,3/4+y,-z
-x,3/4+y,3/4+z
3/4+x,-y,3/4+z
x,1/2+y,1/2+z
1/4-x,3/4-y,1/2+z
x,3/4-y,3/4-z
1/4-x,1/2+y,3/4-z
-x,1/2-y,1/2-z
3/4+x,1/4+y,1/2-z
-x,1/4+y,1/4+z
3/4+x,1/2-y,1/4+z
1/2+x,y,1/2+z
3/4-x,1/4-y,1/2+z
1/2+x,1/4-y,3/4-z
3/4-x,y,3/4-z
1/2-x,-y,1/2-z
1/4+x,3/4+y,1/2-z
1/2-x,3/4+y,1/4+z
1/4+x,-y,1/4+z
1/2+x,1/2+y,z
3/4-x,3/4-y,z
1/2+x,3/4-y,1/4-z
3/4-x,1/2+y,1/4-z
1/2-x,1/2-y,-z
1/4+x,1/4+y,-z
1/2-x,1/4+y,3/4+z
1/4+x,1/2-y,3/4+z
loop_
_atom_site_type_symbol
_atom_site_label
_atom_site_fract_x
_atom_site_fract_y
_atom_site_fract_z
Si Si1 0.471664 0.711271 0.668444
Si Si2 0.435979 0.073590 0.658423
Si Si3 0.204765 0.678996 0.641178
Si Si4 0.670900 0.673925 0.572023
Si Si5 0.192176 0.410346 0.140168
Si Si6 0.550032 0.566053 0.366357
Si Si7 0.875000 0.990291 0.875000
Si Si8 0.844313 0.571621 0.508028
O O1 0.528582 0.700437 0.670805
O O2 0.444108 0.698003 0.771595
O O3 0.463082 0.763232 0.638286
O O4 0.449964 0.678667 0.584297
O O5 0.445960 0.125000 0.625000
O O6 0.489596 0.051686 0.641714
O O7 0.424384 0.073977 0.778758
O O8 0.391403 0.064317 0.581919
O O9 0.204087 0.625000 0.625000
O O10 0.183380 0.682957 0.753300
O O11 0.166904 0.708427 0.576703
O O12 0.676720 0.625000 0.625000
O O13 0.625000 0.697082 0.625000
O O14 0.663566 0.668753 0.453011
O O15 0.250537 0.403477 0.123016
O O16 0.165660 0.365861 0.187425
O O17 0.845292 0.026367 0.942198
#
# Coordination Sequence:
#
# PCOD9515456 Si02
#       8
#    32  32  32  32  32  32  16  32
#     4  11  21  41  67  98 137 180 232 275 344 415
#     4  10  22  41  65 102 138 177 236 281 336 422
#     4  10  23  48  75  92 132 182 236 289 346 413
#     4  10  21  40  64  96 132 170 220 279 333 406
#     4  10  21  39  69  93 141 187 218 276 351 410
#     4  10  21  45  68  99 130 175 233 283 339 417
#     4  12  25  46  66 100 136 186 232 292 345 410
#     4  12  24  39  67 104 142 177 228 284 348 416
#
# _framework density 22.366361999999999
#
# number of rings (size 3 to 8) (size 9 to 14) (size 15 to 20)
#    0.000    1.467    1.333    5.400    0.000    2.133 
#   12.000    0.000    4.400    0.000    0.000    0.000 
#    0.000    0.000    0.000    0.000    0.000    0.000 
#
# Total GULP energy -334274.732968 kJ/mol
# GULP energy per Si atom -5571.245549 kJ/mol
# Density = 2.231546 g / cm^3
# Si number density = 22.366362 Si / 1000 Ang^3
#
#
#
# Elastic Constant Matrix: (Units=GPa)
#
#
# Indices 1 2 3 4 5 6 
#
# 1 108.7003 27.4605 17.2858 0.0000 0.0000 0.0000
# 2 27.4605 102.0457 23.5395 0.0000 0.0000 0.0000
# 3 17.2858 23.5395 55.3696 0.0000 0.0000 0.0000
# 4 0.0000 0.0000 0.0000 27.3644 0.0000 0.0000
# 5 0.0000 0.0000 0.0000 0.0000 28.0183 0.0000
# 6 0.0000 0.0000 0.0000 0.0000 0.0000 7.2962
#
#
#
# Elastic Compliance Matrix: (Units=1/GPa)
#
#
# Indices 1 2 3 4 5 6 
#
# 1 0.010110 -0.002209 -0.002217 0.000000 0.000000 0.000000
# 2 -0.002209 0.011348 -0.004135 0.000000 0.000000 0.000000
# 3 -0.002217 -0.004135 0.020510 0.000000 0.000000 0.000000
# 4 0.000000 0.000000 0.000000 0.036544 0.000000 0.000000
# 5 0.000000 0.000000 0.000000 0.000000 0.035691 0.000000
# 6 0.000000 0.000000 0.000000 0.000000 0.000000 0.137058
#
#
# Mechanical properties :
#
#
# Convention : Reuss Voigt Hill
#
# Bulk Modulus (GPa) = 40.24709 44.74302 42.49506
# Shear Modulus (GPa) = 18.07238 25.72443 21.89841
#
# Velocity S-wave (km/s) = 2.84565 3.39505 3.13242
# Velocity P-wave (km/s) = 5.36940 5.95118 5.66776
#
# Compressibility (1/GPa) = 0.02484652
#
# Stress axis : x y z
#
# Youngs Moduli (GPa) = 98.90910 88.12283 48.75577
#
# Poissons Ratio (x) = 0.19468 0.10810
# Poissons Ratio (y) = 0.21851 0.20159
# Poissons Ratio (z) = 0.21929 0.36436
#
# Static dielectric constant tensor:
#      x y z
#    x 1.957520 0.000000 0.000000 
#    y 0.000000 1.843540 0.000000 
#    z 0.000000 0.000000 1.933630 
# 
# From -- ./inp_files/31355.got.cif
#   From: 2010.05.17/outbox.cif.g08.bks.cpg/sg70_16_cif.got.tgz:31355.got - 2010.06.03 15:57:51.
