data_PCOD9515294
_publ_section_title
;
Structure prediction by ZEFSAII (Michael W. Deem and Ramdas Pophale) SiO2 
 PCOD9515294
Probable space group: F D D D
;
_chemical_formula_sum "Si O2"
_cell_formula_units_Z 168
_cell_length_a 21.582634
_cell_length_b 18.764092
_cell_length_c 17.133454
_cell_angle_alpha 90.000000
_cell_angle_beta 90.000000
_cell_angle_gamma 90.000000
_cell_volume 6938.681014
_symmetry_space_group_name_H-M "F D D D"
_symmetry_group_IT_number 70
_space_group.IT_coordinate_system_code '2'
_symmetry_cell_setting 'orthorhombic'
loop_
_space_group_symop_operation_xyz
x,y,z
1/4-x,1/4-y,z
x,1/4-y,1/4-z
1/4-x,y,1/4-z
-x,-y,-z
3/4+x,3/4+y,-z
-x,3/4+y,3/4+z
3/4+x,-y,3/4+z
x,1/2+y,1/2+z
1/4-x,3/4-y,1/2+z
x,3/4-y,3/4-z
1/4-x,1/2+y,3/4-z
-x,1/2-y,1/2-z
3/4+x,1/4+y,1/2-z
-x,1/4+y,1/4+z
3/4+x,1/2-y,1/4+z
1/2+x,y,1/2+z
3/4-x,1/4-y,1/2+z
1/2+x,1/4-y,3/4-z
3/4-x,y,3/4-z
1/2-x,-y,1/2-z
1/4+x,3/4+y,1/2-z
1/2-x,3/4+y,1/4+z
1/4+x,-y,1/4+z
1/2+x,1/2+y,z
3/4-x,3/4-y,z
1/2+x,3/4-y,1/4-z
3/4-x,1/2+y,1/4-z
1/2-x,1/2-y,-z
1/4+x,1/4+y,-z
1/2-x,1/4+y,3/4+z
1/4+x,1/2-y,3/4+z
loop_
_atom_site_type_symbol
_atom_site_label
_atom_site_fract_x
_atom_site_fract_y
_atom_site_fract_z
Si Si1 0.839540 0.224832 0.292936
Si Si2 0.424091 0.940315 0.564748
Si Si3 0.875000 0.375000 0.875000
Si Si4 0.846582 0.091236 0.211669
Si Si5 0.009412 0.899902 0.785888
Si Si6 0.395430 0.796139 0.020515
O O1 0.875000 0.230852 0.375000
O O2 0.891500 0.243853 0.228253
O O3 0.816574 0.145513 0.272440
O O4 0.787024 0.283549 0.279642
O O5 0.375000 0.875000 0.555520
O O6 0.483610 0.911789 0.520075
O O7 0.437194 0.966216 0.652283
O O8 0.837492 0.318834 0.818844
O O9 0.839110 0.125000 0.125000
O O10 0.919750 0.084568 0.235829
O O11 0.835930 0.006862 0.220419
O O12 0.006865 0.875000 0.875000
O O13 0.375000 0.875000 0.043690
#
# Coordination Sequence:
#
# PCOD9515294 Si02
#       6
#    32  32   8  32  32  32
#     4  11  21  34  58  89 125 161 199 255 315 379
#     4   9  17  32  55  82 114 158 188 234 312 363
#     4   8  20  36  64  80 106 164 218 240 296 372
#     4  11  23  37  60  93 123 161 213 263 310 377
#     4  10  21  36  58  92 130 160 197 249 320 394
#     4   9  19  38  61  81 112 160 209 250 305 370
#
# _framework density 24.212092999999999
#
# number of rings (size 3 to 8) (size 9 to 14) (size 15 to 20)
#    0.571    1.524    3.810    0.000    1.333    2.286 
#    0.000    0.000    2.095    2.286    0.000    0.000 
#    0.000    0.000    0.000    0.000    0.000    0.000 
#
# Total GULP energy -233828.879022 kJ/mol
# GULP energy per Si atom -5567.354262 kJ/mol
# Density = 2.415699 g / cm^3
# Si number density = 24.212093 Si / 1000 Ang^3
#
#
#
# Elastic Constant Matrix: (Units=GPa)
#
#
# Indices 1 2 3 4 5 6 
#
# 1 38.5144 -10.0164 7.3963 0.0000 0.0000 0.0000
# 2 -10.0164 120.9624 4.4969 0.0000 0.0000 0.0000
# 3 7.3963 4.4969 138.7798 0.0000 0.0000 0.0000
# 4 0.0000 0.0000 0.0000 48.4254 0.0000 0.0000
# 5 0.0000 0.0000 0.0000 0.0000 11.9590 0.0000
# 6 0.0000 0.0000 0.0000 0.0000 0.0000 17.7150
#
#
#
# Elastic Compliance Matrix: (Units=1/GPa)
#
#
# Indices 1 2 3 4 5 6 
#
# 1 0.026846 0.002279 -0.001505 0.000000 0.000000 0.000000
# 2 0.002279 0.008470 -0.000396 0.000000 0.000000 0.000000
# 3 -0.001505 -0.000396 0.007299 0.000000 0.000000 0.000000
# 4 0.000000 0.000000 0.000000 0.020650 0.000000 0.000000
# 5 0.000000 0.000000 0.000000 0.000000 0.083619 0.000000
# 6 0.000000 0.000000 0.000000 0.000000 0.000000 0.056449
#
#
# Mechanical properties :
#
#
# Convention : Reuss Voigt Hill
#
# Bulk Modulus (GPa) = 23.05643 33.55671 28.30657
# Shear Modulus (GPa) = 23.03783 35.37853 29.20818
#
# Velocity S-wave (km/s) = 3.08799 3.82670 3.47702
# Velocity P-wave (km/s) = 4.71779 5.78052 5.27598
#
# Compressibility (1/GPa) = 0.04337185
#
# Stress axis : x y z
#
# Youngs Moduli (GPa) = 37.24959 118.05731 137.01117
#
# Poissons Ratio (x) = -0.26904 0.20615
# Poissons Ratio (y) = -0.08489 0.05425
# Poissons Ratio (z) = 0.05605 0.04674
#
# Static dielectric constant tensor:
#      x y z
#    x 1.953210 0.000000 0.000000 
#    y 0.000000 2.648700 0.000000 
#    z 0.000000 0.000000 2.041430 
# 
# From -- ./inp_files/38633.got.cif
#   From: 2010.05.17/outbox.cif.g08.bks.cpg/sg70_20_cif.got.tgz:38633.got - 2010.06.03 15:57:51.
