data_PCOD9515310
_publ_section_title
;
Structure prediction by ZEFSAII (Michael W. Deem and Ramdas Pophale) SiO2 
 PCOD9515310
Probable space group: F D D D
;
_chemical_formula_sum "Si O2"
_cell_formula_units_Z 184
_cell_length_a 25.961113
_cell_length_b 16.884738
_cell_length_c 19.561332
_cell_angle_alpha 90.000000
_cell_angle_beta 90.000000
_cell_angle_gamma 90.000000
_cell_volume 8574.643201
_symmetry_space_group_name_H-M "F D D D"
_symmetry_group_IT_number 70
_space_group.IT_coordinate_system_code '2'
_symmetry_cell_setting 'orthorhombic'
loop_
_space_group_symop_operation_xyz
x,y,z
1/4-x,1/4-y,z
x,1/4-y,1/4-z
1/4-x,y,1/4-z
-x,-y,-z
3/4+x,3/4+y,-z
-x,3/4+y,3/4+z
3/4+x,-y,3/4+z
x,1/2+y,1/2+z
1/4-x,3/4-y,1/2+z
x,3/4-y,3/4-z
1/4-x,1/2+y,3/4-z
-x,1/2-y,1/2-z
3/4+x,1/4+y,1/2-z
-x,1/4+y,1/4+z
3/4+x,1/2-y,1/4+z
1/2+x,y,1/2+z
3/4-x,1/4-y,1/2+z
1/2+x,1/4-y,3/4-z
3/4-x,y,3/4-z
1/2-x,-y,1/2-z
1/4+x,3/4+y,1/2-z
1/2-x,3/4+y,1/4+z
1/4+x,-y,1/4+z
1/2+x,1/2+y,z
3/4-x,3/4-y,z
1/2+x,3/4-y,1/4-z
3/4-x,1/2+y,1/4-z
1/2-x,1/2-y,-z
1/4+x,1/4+y,-z
1/2-x,1/4+y,3/4+z
1/4+x,1/2-y,3/4+z
loop_
_atom_site_type_symbol
_atom_site_label
_atom_site_fract_x
_atom_site_fract_y
_atom_site_fract_z
Si Si1 0.042963 0.750167 0.087856
Si Si2 0.384428 0.189159 0.025114
Si Si3 0.452849 0.911918 0.225043
Si Si4 0.625000 0.625000 0.625000
Si Si5 0.711337 0.875000 0.375000
Si Si6 0.780672 0.501103 0.178398
Si Si7 0.538757 0.625000 0.125000
Si Si8 0.375000 0.623350 0.875000
O O1 0.087726 0.682517 0.079655
O O2 0.074591 0.820670 0.123214
O O3 0.008918 0.794000 0.029187
O O4 0.998609 0.701236 0.127187
O O5 0.410686 0.272922 0.040132
O O6 0.423806 0.127847 0.059567
O O7 0.329529 0.192921 0.060966
O O8 0.376894 0.175941 0.944678
O O9 0.454721 0.840387 0.170737
O O10 0.437482 0.877776 0.299747
O O11 0.750000 0.500000 0.250000
O O12 0.743858 0.543663 0.125443
#
# Coordination Sequence:
#
# PCOD9515310 Si02
#       8
#    32  32  32   8  16  32  16  16
#     4   9  19  38  61  90 120 162 203 263 322 379
#     4  11  23  37  60  89 121 165 204 263 314 380
#     4  10  22  36  58  86 123 160 204 257 313 379
#     4   8  16  36  66  84 122 148 204 262 314 378
#     4   9  21  43  62  83 127 168 207 257 335 380
#     4  10  21  38  55  81 119 159 203 250 307 373
#     4  10  21  36  62  77 115 167 200 250 308 368
#     4  11  22  33  63  94 123 152 224 263 312 391
#
# _framework density 21.45862
#
# number of rings (size 3 to 8) (size 9 to 14) (size 15 to 20)
#    0.000    2.087    0.000    3.130    7.304    0.696 
#    0.000    0.000    3.826    0.000    0.000    0.000 
#    0.000    0.000    0.000    0.000    0.000    0.000 
#
# Total GULP energy -256139.566528 kJ/mol
# GULP energy per Si atom -5568.251446 kJ/mol
# Density = 2.140978 g / cm^3
# Si number density = 21.458620 Si / 1000 Ang^3
#
#
#
# Elastic Constant Matrix: (Units=GPa)
#
#
# Indices 1 2 3 4 5 6 
#
# 1 103.3434 18.4045 11.1299 0.0000 0.0000 0.0000
# 2 18.4045 88.1664 11.1929 0.0000 0.0000 0.0000
# 3 11.1299 11.1929 41.8543 0.0000 0.0000 0.0000
# 4 0.0000 0.0000 0.0000 24.8752 0.0000 0.0000
# 5 0.0000 0.0000 0.0000 0.0000 11.5434 0.0000
# 6 0.0000 0.0000 0.0000 0.0000 0.0000 16.0126
#
#
#
# Elastic Compliance Matrix: (Units=1/GPa)
#
#
# Indices 1 2 3 4 5 6 
#
# 1 0.010247 -0.001856 -0.002229 0.000000 0.000000 0.000000
# 2 -0.001856 0.012077 -0.002736 0.000000 0.000000 0.000000
# 3 -0.002229 -0.002736 0.025217 0.000000 0.000000 0.000000
# 4 0.000000 0.000000 0.000000 0.040201 0.000000 0.000000
# 5 0.000000 0.000000 0.000000 0.000000 0.086630 0.000000
# 6 0.000000 0.000000 0.000000 0.000000 0.000000 0.062451
#
#
# Mechanical properties :
#
#
# Convention : Reuss Voigt Hill
#
# Bulk Modulus (GPa) = 29.49918 34.97985 32.23952
# Shear Modulus (GPa) = 19.10124 23.32870 21.21497
#
# Velocity S-wave (km/s) = 2.98676 3.30077 3.14768
# Velocity P-wave (km/s) = 5.06667 5.55547 5.31669
#
# Compressibility (1/GPa) = 0.03389924
#
# Stress axis : x y z
#
# Youngs Moduli (GPa) = 97.58910 82.80197 39.65623
#
# Poissons Ratio (x) = 0.15369 0.08837
# Poissons Ratio (y) = 0.18114 0.10850
# Poissons Ratio (z) = 0.21748 0.22656
#
# Static dielectric constant tensor:
#      x y z
#    x 1.838640 0.000000 0.000000 
#    y 0.000000 1.879190 0.000000 
#    z 0.000000 0.000000 1.739370 
# 
# From -- ./inp_files/38703.got.cif
#   From: 2010.05.17/outbox.cif.g08.bks.cpg/sg70_20_cif.got.tgz:38703.got - 2010.06.03 15:57:51.
