data_PCOD9515360
_publ_section_title
;
Structure prediction by ZEFSAII (Michael W. Deem and Ramdas Pophale) SiO2 
 PCOD9515360
Probable space group: F D D D
;
_chemical_formula_sum "Si O2"
_cell_formula_units_Z 216
_cell_length_a 18.640059
_cell_length_b 25.018487
_cell_length_c 25.125460
_cell_angle_alpha 90.000000
_cell_angle_beta 90.000000
_cell_angle_gamma 90.000000
_cell_volume 11717.159623
_symmetry_space_group_name_H-M "F D D D"
_symmetry_group_IT_number 70
_space_group.IT_coordinate_system_code '2'
_symmetry_cell_setting 'orthorhombic'
loop_
_space_group_symop_operation_xyz
x,y,z
1/4-x,1/4-y,z
x,1/4-y,1/4-z
1/4-x,y,1/4-z
-x,-y,-z
3/4+x,3/4+y,-z
-x,3/4+y,3/4+z
3/4+x,-y,3/4+z
x,1/2+y,1/2+z
1/4-x,3/4-y,1/2+z
x,3/4-y,3/4-z
1/4-x,1/2+y,3/4-z
-x,1/2-y,1/2-z
3/4+x,1/4+y,1/2-z
-x,1/4+y,1/4+z
3/4+x,1/2-y,1/4+z
1/2+x,y,1/2+z
3/4-x,1/4-y,1/2+z
1/2+x,1/4-y,3/4-z
3/4-x,y,3/4-z
1/2-x,-y,1/2-z
1/4+x,3/4+y,1/2-z
1/2-x,3/4+y,1/4+z
1/4+x,-y,1/4+z
1/2+x,1/2+y,z
3/4-x,3/4-y,z
1/2+x,3/4-y,1/4-z
3/4-x,1/2+y,1/4-z
1/2-x,1/2-y,-z
1/4+x,1/4+y,-z
1/2-x,1/4+y,3/4+z
1/4+x,1/2-y,3/4+z
loop_
_atom_site_type_symbol
_atom_site_label
_atom_site_fract_x
_atom_site_fract_y
_atom_site_fract_z
Si Si1 0.231950 0.036308 0.381197
Si Si2 0.440281 0.287192 0.803103
Si Si3 0.940878 0.105856 0.010795
Si Si4 0.867556 0.625000 0.625000
Si Si5 0.205354 0.104557 0.925904
Si Si6 0.423438 0.011738 0.145574
Si Si7 0.125000 0.125000 0.125000
Si Si8 0.068670 0.966748 0.234480
O O1 0.226948 0.097345 0.363252
O O2 0.255332 0.032291 0.442292
O O3 0.291936 0.008143 0.345668
O O4 0.159885 0.004328 0.365395
O O5 0.506987 0.304212 0.766918
O O6 0.423086 0.339059 0.837408
O O7 0.369459 0.268403 0.773470
O O8 0.915146 0.120037 0.070733
O O9 0.870369 0.085194 0.979740
O O10 0.989587 0.145608 0.975855
O O11 0.822657 0.680239 0.616674
O O12 0.125000 0.125000 0.943621
O O13 0.206173 0.048431 0.894051
O O14 0.449164 0.029821 0.203947
#
# Coordination Sequence:
#
# PCOD9515360 Si02
#       8
#    32  32  32  16  32  32   8  32
#     4  11  20  36  52  76 115 152 192 235 271 330
#     4  12  20  31  42  76 115 151 187 223 255 324
#     4  11  22  34  52  75 109 151 189 226 276 332
#     4  10  21  38  51  76 112 139 186 239 270 332
#     4  10  22  36  51  75 108 148 186 233 275 333
#     4  10  23  37  53  77 110 150 185 231 293 336
#     4  12  26  24  44  76 116 168 180 204 266 316
#     4  11  21  34  53  76 112 149 189 230 276 332
#
# _framework density 18.434501000000001
#
# number of rings (size 3 to 8) (size 9 to 14) (size 15 to 20)
#    0.000    1.185    5.926    2.667    5.185    0.000 
#    0.000    0.000    0.000    3.556    0.000    0.000 
#    0.000    0.000    0.000    0.000    0.000    0.000 
#
# Total GULP energy -300671.892043 kJ/mol
# GULP energy per Si atom -5567.998001 kJ/mol
# Density = 1.839254 g / cm^3
# Si number density = 18.434501 Si / 1000 Ang^3
#
#
#
# Elastic Constant Matrix: (Units=GPa)
#
#
# Indices 1 2 3 4 5 6 
#
# 1 23.2125 13.0325 15.2129 0.0000 0.0000 0.0000
# 2 13.0325 132.1262 10.8807 0.0000 0.0000 0.0000
# 3 15.2129 10.8807 68.3910 0.0000 0.0000 0.0000
# 4 0.0000 0.0000 0.0000 59.3505 0.0000 0.0000
# 5 0.0000 0.0000 0.0000 0.0000 12.8837 0.0000
# 6 0.0000 0.0000 0.0000 0.0000 0.0000 26.0073
#
#
#
# Elastic Compliance Matrix: (Units=1/GPa)
#
#
# Indices 1 2 3 4 5 6 
#
# 1 0.052729 -0.004291 -0.011046 0.000000 0.000000 0.000000
# 2 -0.004291 0.008018 -0.000321 0.000000 0.000000 0.000000
# 3 -0.011046 -0.000321 0.017130 0.000000 0.000000 0.000000
# 4 0.000000 0.000000 0.000000 0.016849 0.000000 0.000000
# 5 0.000000 0.000000 0.000000 0.000000 0.077618 0.000000
# 6 0.000000 0.000000 0.000000 0.000000 0.000000 0.038451
#
#
# Mechanical properties :
#
#
# Convention : Reuss Voigt Hill
#
# Bulk Modulus (GPa) = 21.47778 33.55356 27.51567
# Shear Modulus (GPa) = 19.40752 31.95520 25.68136
#
# Velocity S-wave (km/s) = 3.24818 4.16798 3.73649
# Velocity P-wave (km/s) = 5.07383 6.43458 5.79429
#
# Compressibility (1/GPa) = 0.04655976
#
# Stress axis : x y z
#
# Youngs Moduli (GPa) = 18.96491 124.71557 58.37704
#
# Poissons Ratio (x) = 0.53520 0.64485
# Poissons Ratio (y) = 0.08138 0.01875
# Poissons Ratio (z) = 0.20949 0.04005
#
# Static dielectric constant tensor:
#      x y z
#    x 1.963320 0.000000 0.000000 
#    y 0.000000 1.710460 0.000000 
#    z 0.000000 0.000000 1.669360 
# 
# From -- ./inp_files/46149.got.cif
#   From: 2010.05.17/outbox.cif.g08.bks.cpg/sg70_24_cif.got.tgz:46149.got - 2010.06.03 15:57:51.
