data_PCOD9515833
_publ_section_title
;
Structure prediction by ZEFSAII (Michael W. Deem and Ramdas Pophale) SiO2 
 PCOD9515833
Probable space group: F D D D
;
_chemical_formula_sum "Si O2"
_cell_formula_units_Z 176
_cell_length_a 20.918446
_cell_length_b 14.798315
_cell_length_c 24.915364
_cell_angle_alpha 90.000000
_cell_angle_beta 90.000000
_cell_angle_gamma 90.000000
_cell_volume 7712.744100
_symmetry_space_group_name_H-M "F D D D"
_symmetry_group_IT_number 70
_space_group.IT_coordinate_system_code '2'
_symmetry_cell_setting 'orthorhombic'
loop_
_space_group_symop_operation_xyz
x,y,z
1/4-x,1/4-y,z
x,1/4-y,1/4-z
1/4-x,y,1/4-z
-x,-y,-z
3/4+x,3/4+y,-z
-x,3/4+y,3/4+z
3/4+x,-y,3/4+z
x,1/2+y,1/2+z
1/4-x,3/4-y,1/2+z
x,3/4-y,3/4-z
1/4-x,1/2+y,3/4-z
-x,1/2-y,1/2-z
3/4+x,1/4+y,1/2-z
-x,1/4+y,1/4+z
3/4+x,1/2-y,1/4+z
1/2+x,y,1/2+z
3/4-x,1/4-y,1/2+z
1/2+x,1/4-y,3/4-z
3/4-x,y,3/4-z
1/2-x,-y,1/2-z
1/4+x,3/4+y,1/2-z
1/2-x,3/4+y,1/4+z
1/4+x,-y,1/4+z
1/2+x,1/2+y,z
3/4-x,3/4-y,z
1/2+x,3/4-y,1/4-z
3/4-x,1/2+y,1/4-z
1/2-x,1/2-y,-z
1/4+x,1/4+y,-z
1/2-x,1/4+y,3/4+z
1/4+x,1/2-y,3/4+z
loop_
_atom_site_type_symbol
_atom_site_label
_atom_site_fract_x
_atom_site_fract_y
_atom_site_fract_z
Si Si1 0.053964 0.145259 0.702040
Si Si2 0.764498 0.375000 0.375000
Si Si3 0.788333 0.771576 0.681541
Si Si4 0.484871 0.330705 0.178713
Si Si5 0.268639 0.532952 0.808153
Si Si6 0.916514 0.506715 0.299443
O O1 0.125000 0.125000 0.684068
O O2 0.028831 0.242456 0.684903
O O3 0.052870 0.149952 0.766856
O O4 0.006127 0.067107 0.682187
O O5 0.732177 0.463613 0.348791
O O6 0.805713 0.416791 0.423379
O O7 0.810278 0.800298 0.621407
O O8 0.747361 0.861840 0.691288
O O9 0.831799 0.755731 0.734411
O O10 0.535884 0.413975 0.179311
O O11 0.250000 0.500000 0.750000
O O12 0.344384 0.524106 0.817003
#
# Coordination Sequence:
#
# PCOD9515833 Si02
#       6
#    32  16  32  32  32  32
#     4  10  22  41  63  90 122 160 208 256 304 366
#     4  12  23  40  62  86 122 160 200 254 305 364
#     4  11  23  39  63  92 121 160 208 252 311 372
#     4  10  22  41  63  89 126 159 205 256 309 365
#     4  12  24  39  62  91 124 161 206 255 310 369
#     4  11  23  40  62  92 125 160 205 258 306 371
#
# _framework density 22.819375999999998
#
# number of rings (size 3 to 8) (size 9 to 14) (size 15 to 20)
#    0.000    1.091    3.636    3.273    0.000    2.909 
#    3.273    0.000    8.000    0.000    0.000    0.000 
#    0.000    0.000    0.000    0.000    0.000    0.000 
#
# Total GULP energy -245437.136076 kJ/mol
# GULP energy per Si atom -5578.116729 kJ/mol
# Density = 2.276744 g / cm^3
# Si number density = 22.819376 Si / 1000 Ang^3
#
#
#
# Elastic Constant Matrix: (Units=GPa)
#
#
# Indices 1 2 3 4 5 6 
#
# 1 29.3222 12.6319 -1.5051 0.0000 0.0000 0.0000
# 2 12.6319 170.2223 14.3722 0.0000 0.0000 0.0000
# 3 -1.5051 14.3722 154.2874 0.0000 0.0000 0.0000
# 4 0.0000 0.0000 0.0000 84.3072 0.0000 0.0000
# 5 0.0000 0.0000 0.0000 0.0000 4.6913 0.0000
# 6 0.0000 0.0000 0.0000 0.0000 0.0000 33.1673
#
#
#
# Elastic Compliance Matrix: (Units=1/GPa)
#
#
# Indices 1 2 3 4 5 6 
#
# 1 0.035284 -0.002668 0.000593 0.000000 0.000000 0.000000
# 2 -0.002668 0.006123 -0.000596 0.000000 0.000000 0.000000
# 3 0.000593 -0.000596 0.006543 0.000000 0.000000 0.000000
# 4 0.000000 0.000000 0.000000 0.011861 0.000000 0.000000
# 5 0.000000 0.000000 0.000000 0.000000 0.213162 0.000000
# 6 0.000000 0.000000 0.000000 0.000000 0.000000 0.030150
#
#
# Mechanical properties :
#
#
# Convention : Reuss Voigt Hill
#
# Bulk Modulus (GPa) = 23.47116 44.98111 34.22613
# Shear Modulus (GPa) = 15.49573 46.32201 30.90887
#
# Velocity S-wave (km/s) = 2.60871 4.51038 3.68435
# Velocity P-wave (km/s) = 4.40247 6.84684 5.75591
#
# Compressibility (1/GPa) = 0.04260549
#
# Stress axis : x y z
#
# Youngs Moduli (GPa) = 28.34165 163.31749 152.84094
#
# Poissons Ratio (x) = 0.43579 -0.09060
# Poissons Ratio (y) = 0.07563 0.09116
# Poissons Ratio (z) = -0.01680 0.09740
#
# Static dielectric constant tensor:
#      x y z
#    x 1.804690 0.000000 0.000000 
#    y 0.000000 1.822450 0.000000 
#    z 0.000000 0.000000 2.033660 
# 
# From -- ./inp_files/29996.got.cif
#   From: 2010.05.17/outbox.cif.g08.bks.cpg/sg70_15_cif.got.tgz:29996.got - 2010.06.03 15:57:51.
