data_PCOD9515235
_publ_section_title
;
Structure prediction by ZEFSAII (Michael W. Deem and Ramdas Pophale) SiO2 
 PCOD9515235
Probable space group: F D D D
;
_chemical_formula_sum "Si O2"
_cell_formula_units_Z 184
_cell_length_a 17.968722
_cell_length_b 19.186547
_cell_length_c 24.730678
_cell_angle_alpha 90.000000
_cell_angle_beta 90.000000
_cell_angle_gamma 90.000000
_cell_volume 8526.092388
_symmetry_space_group_name_H-M "F D D D"
_symmetry_group_IT_number 70
_space_group.IT_coordinate_system_code '2'
_symmetry_cell_setting 'orthorhombic'
loop_
_space_group_symop_operation_xyz
x,y,z
1/4-x,1/4-y,z
x,1/4-y,1/4-z
1/4-x,y,1/4-z
-x,-y,-z
3/4+x,3/4+y,-z
-x,3/4+y,3/4+z
3/4+x,-y,3/4+z
x,1/2+y,1/2+z
1/4-x,3/4-y,1/2+z
x,3/4-y,3/4-z
1/4-x,1/2+y,3/4-z
-x,1/2-y,1/2-z
3/4+x,1/4+y,1/2-z
-x,1/4+y,1/4+z
3/4+x,1/2-y,1/4+z
1/2+x,y,1/2+z
3/4-x,1/4-y,1/2+z
1/2+x,1/4-y,3/4-z
3/4-x,y,3/4-z
1/2-x,-y,1/2-z
1/4+x,3/4+y,1/2-z
1/2-x,3/4+y,1/4+z
1/4+x,-y,1/4+z
1/2+x,1/2+y,z
3/4-x,3/4-y,z
1/2+x,3/4-y,1/4-z
3/4-x,1/2+y,1/4-z
1/2-x,1/2-y,-z
1/4+x,1/4+y,-z
1/2-x,1/4+y,3/4+z
1/4+x,1/2-y,3/4+z
loop_
_atom_site_type_symbol
_atom_site_label
_atom_site_fract_x
_atom_site_fract_y
_atom_site_fract_z
Si Si1 0.363404 0.242164 0.461207
Si Si2 0.548473 0.453329 0.434110
Si Si3 0.528682 0.743084 0.160707
Si Si4 0.875000 0.620463 0.375000
Si Si5 0.523288 0.791486 0.933971
Si Si6 0.125000 0.125000 0.125000
Si Si7 0.892582 0.794257 0.726355
O O1 0.361881 0.228692 0.525274
O O2 0.285668 0.280898 0.452882
O O3 0.360330 0.171232 0.425969
O O4 0.435086 0.283988 0.441029
O O5 0.548326 0.485829 0.374759
O O6 0.550875 0.370138 0.434659
O O7 0.559116 0.818166 0.141760
O O8 0.559090 0.686090 0.117921
O O9 0.444894 0.757468 0.181191
O O10 0.567806 0.714332 0.215804
O O11 0.565031 0.746388 0.978129
O O12 0.875000 0.875000 0.715635
#
# Coordination Sequence:
#
# PCOD9515235 Si02
#       7
#    32  32  32  16  32   8  32
#     4  11  21  40  66  94 130 173 218 270 332 410
#     4  10  23  40  63  96 128 170 221 264 332 405
#     4  10  23  41  64  92 127 172 224 270 334 401
#     4  11  20  39  67  94 123 172 218 278 333 394
#     4  11  22  42  63  94 132 174 210 279 333 395
#     4  10  20  44  64  92 126 176 232 280 330 402
#     4  11  23  41  64  93 131 170 215 277 335 402
#
# _framework density 21.580812000000002
#
# number of rings (size 3 to 8) (size 9 to 14) (size 15 to 20)
#    0.000    1.391    2.609    2.609    0.000    4.174 
#    9.391    0.000    0.000    0.000    0.000    0.000 
#    0.000    0.000    0.000    0.000    0.000    0.000 
#
# Total GULP energy -256097.677470 kJ/mol
# GULP energy per Si atom -5567.340815 kJ/mol
# Density = 2.153169 g / cm^3
# Si number density = 21.580812 Si / 1000 Ang^3
#
#
#
# Elastic Constant Matrix: (Units=GPa)
#
#
# Indices 1 2 3 4 5 6 
#
# 1 51.2772 -8.0206 23.8493 0.0000 0.0000 0.0000
# 2 -8.0206 53.6305 -10.0086 0.0000 0.0000 0.0000
# 3 23.8493 -10.0086 60.7884 0.0000 0.0000 0.0000
# 4 0.0000 0.0000 0.0000 54.0503 0.0000 0.0000
# 5 0.0000 0.0000 0.0000 0.0000 32.2790 0.0000
# 6 0.0000 0.0000 0.0000 0.0000 0.0000 20.0270
#
#
#
# Elastic Compliance Matrix: (Units=1/GPa)
#
#
# Indices 1 2 3 4 5 6 
#
# 1 0.024040 0.001893 -0.009120 0.000000 0.000000 0.000000
# 2 0.001893 0.019386 0.002449 0.000000 0.000000 0.000000
# 3 -0.009120 0.002449 0.020432 0.000000 0.000000 0.000000
# 4 0.000000 0.000000 0.000000 0.018501 0.000000 0.000000
# 5 0.000000 0.000000 0.000000 0.000000 0.030980 0.000000
# 6 0.000000 0.000000 0.000000 0.000000 0.000000 0.049933
#
#
# Mechanical properties :
#
#
# Convention : Reuss Voigt Hill
#
# Bulk Modulus (GPa) = 18.41528 19.70404 19.05966
# Shear Modulus (GPa) = 26.18793 31.92964 29.05879
#
# Velocity S-wave (km/s) = 3.48729 3.85065 3.67346
# Velocity P-wave (km/s) = 4.97660 5.37775 5.18106
#
# Compressibility (1/GPa) = 0.05430274
#
# Stress axis : x y z
#
# Youngs Moduli (GPa) = 41.59785 51.58280 48.94340
#
# Poissons Ratio (x) = -0.09766 0.44636
# Poissons Ratio (y) = -0.07876 -0.11987
# Poissons Ratio (z) = 0.37937 -0.12633
#
# Static dielectric constant tensor:
#      x y z
#    x 1.827640 0.000000 0.000000 
#    y 0.000000 1.752730 0.000000 
#    z 0.000000 0.000000 1.907580 
# 
# From -- ./inp_files/59572.got.cif
#   From: 2010.05.17/outbox.cif.g08.bks.cpg/sg70_30_cif.got.tgz:59572.got - 2010.06.03 15:57:51.
