data_PCOD9515013
_publ_section_title
;
Structure prediction by ZEFSAII (Michael W. Deem and Ramdas Pophale) SiO2 
 PCOD9515013
Probable space group: F D D D
;
_chemical_formula_sum "Si O2"
_cell_formula_units_Z 136
_cell_length_a 8.983402
_cell_length_b 24.716695
_cell_length_c 24.248029
_cell_angle_alpha 90.000000
_cell_angle_beta 90.000000
_cell_angle_gamma 90.000000
_cell_volume 5384.032536
_symmetry_space_group_name_H-M "F D D D"
_symmetry_group_IT_number 70
_space_group.IT_coordinate_system_code '2'
_symmetry_cell_setting 'orthorhombic'
loop_
_space_group_symop_operation_xyz
x,y,z
1/4-x,1/4-y,z
x,1/4-y,1/4-z
1/4-x,y,1/4-z
-x,-y,-z
3/4+x,3/4+y,-z
-x,3/4+y,3/4+z
3/4+x,-y,3/4+z
x,1/2+y,1/2+z
1/4-x,3/4-y,1/2+z
x,3/4-y,3/4-z
1/4-x,1/2+y,3/4-z
-x,1/2-y,1/2-z
3/4+x,1/4+y,1/2-z
-x,1/4+y,1/4+z
3/4+x,1/2-y,1/4+z
1/2+x,y,1/2+z
3/4-x,1/4-y,1/2+z
1/2+x,1/4-y,3/4-z
3/4-x,y,3/4-z
1/2-x,-y,1/2-z
1/4+x,3/4+y,1/2-z
1/2-x,3/4+y,1/4+z
1/4+x,-y,1/4+z
1/2+x,1/2+y,z
3/4-x,3/4-y,z
1/2+x,3/4-y,1/4-z
3/4-x,1/2+y,1/4-z
1/2-x,1/2-y,-z
1/4+x,1/4+y,-z
1/2-x,1/4+y,3/4+z
1/4+x,1/2-y,3/4+z
loop_
_atom_site_type_symbol
_atom_site_label
_atom_site_fract_x
_atom_site_fract_y
_atom_site_fract_z
Si Si1 0.875000 0.375000 0.375000
Si Si2 0.625000 0.937611 0.625000
Si Si3 0.125000 0.125000 0.943899
Si Si4 0.842852 0.219160 0.640173
Si Si5 0.964091 0.723632 0.452525
Si Si6 0.041254 0.069451 0.506752
O O1 0.750426 0.328311 0.391251
O O2 0.738705 0.899068 0.658191
O O3 0.519588 0.981761 0.655564
O O4 0.177966 0.072336 0.976842
O O5 0.959934 0.249525 0.600191
O O6 0.932787 0.190517 0.690258
O O7 0.916305 0.774458 0.487564
O O8 0.807357 0.691143 0.452507
O O9 0.125000 0.125000 0.507084
#
# Coordination Sequence:
#
# PCOD9515013 Si02
#       6
#     8  16  16  32  32  32
#     4  10  20  38  66 100 132 188 246 290 370 454
#     4   9  22  37  64 100 133 186 241 296 372 446
#     4  10  22  41  66 102 140 191 236 307 364 447
#     4  10  21  41  65  97 140 186 242 306 366 439
#     4  10  24  42  65 101 139 181 243 301 364 441
#     4  11  24  43  69 103 141 197 246 307 372 454
#
# _framework density 25.259875999999998
#
# number of rings (size 3 to 8) (size 9 to 14) (size 15 to 20)
#    0.000    1.882    0.000    2.118    6.588    5.647 
#    0.000   11.765    0.000    0.000    0.000    0.000 
#    0.000    0.000    0.000    0.000    0.000    0.000 
#
# Total GULP energy -189310.057651 kJ/mol
# GULP energy per Si atom -5567.942872 kJ/mol
# Density = 2.520238 g / cm^3
# Si number density = 25.259876 Si / 1000 Ang^3
#
#
#
# Elastic Constant Matrix: (Units=GPa)
#
#
# Indices 1 2 3 4 5 6 
#
# 1 172.7976 108.4363 81.8875 0.0000 0.0000 0.0000
# 2 108.4363 236.9958 35.8465 0.0000 0.0000 0.0000
# 3 81.8875 35.8465 67.0392 0.0000 0.0000 0.0000
# 4 0.0000 0.0000 0.0000 16.7530 0.0000 0.0000
# 5 0.0000 0.0000 0.0000 0.0000 30.3742 0.0000
# 6 0.0000 0.0000 0.0000 0.0000 0.0000 92.1132
#
#
#
# Elastic Compliance Matrix: (Units=1/GPa)
#
#
# Indices 1 2 3 4 5 6 
#
# 1 0.018662 -0.005539 -0.019834 0.000000 0.000000 0.000000
# 2 -0.005539 0.006235 0.003432 0.000000 0.000000 0.000000
# 3 -0.019834 0.003432 0.037308 0.000000 0.000000 0.000000
# 4 0.000000 0.000000 0.000000 0.059691 0.000000 0.000000
# 5 0.000000 0.000000 0.000000 0.000000 0.032923 0.000000
# 6 0.000000 0.000000 0.000000 0.000000 0.000000 0.010856
#
#
# Mechanical properties :
#
#
# Convention : Reuss Voigt Hill
#
# Bulk Modulus (GPa) = 54.57475 103.24145 78.90810
# Shear Modulus (GPa) = 23.18432 44.55891 33.87161
#
# Velocity S-wave (km/s) = 3.03286 4.20458 3.66584
# Velocity P-wave (km/s) = 5.82379 8.03317 7.01599
#
# Compressibility (1/GPa) = 0.01832349
#
# Stress axis : x y z
#
# Youngs Moduli (GPa) = 53.58530 160.39425 26.80384
#
# Poissons Ratio (x) = 0.88838 0.53162
# Poissons Ratio (y) = 0.29679 -0.09198
# Poissons Ratio (z) = 1.06279 -0.55044
#
# Static dielectric constant tensor:
#      x y z
#    x 2.087340 0.000000 0.000000 
#    y 0.000000 1.969730 0.000000 
#    z 0.000000 0.000000 2.041420 
# 
# From -- ./inp_files/63702.got.cif
#   From: 2010.05.17/outbox.cif.g08.bks.cpg/sg70_32_cif.got.tgz:63702.got - 2010.06.03 15:57:51.
