data_PCOD9515096
_publ_section_title
;
Structure prediction by ZEFSAII (Michael W. Deem and Ramdas Pophale) SiO2 
 PCOD9515096
Probable space group: F D D D
;
_chemical_formula_sum "Si O2"
_cell_formula_units_Z 160
_cell_length_a 14.551321
_cell_length_b 22.517926
_cell_length_c 26.708754
_cell_angle_alpha 90.000000
_cell_angle_beta 90.000000
_cell_angle_gamma 90.000000
_cell_volume 8751.539090
_symmetry_space_group_name_H-M "F D D D"
_symmetry_group_IT_number 70
_space_group.IT_coordinate_system_code '2'
_symmetry_cell_setting 'orthorhombic'
loop_
_space_group_symop_operation_xyz
x,y,z
1/4-x,1/4-y,z
x,1/4-y,1/4-z
1/4-x,y,1/4-z
-x,-y,-z
3/4+x,3/4+y,-z
-x,3/4+y,3/4+z
3/4+x,-y,3/4+z
x,1/2+y,1/2+z
1/4-x,3/4-y,1/2+z
x,3/4-y,3/4-z
1/4-x,1/2+y,3/4-z
-x,1/2-y,1/2-z
3/4+x,1/4+y,1/2-z
-x,1/4+y,1/4+z
3/4+x,1/2-y,1/4+z
1/2+x,y,1/2+z
3/4-x,1/4-y,1/2+z
1/2+x,1/4-y,3/4-z
3/4-x,y,3/4-z
1/2-x,-y,1/2-z
1/4+x,3/4+y,1/2-z
1/2-x,3/4+y,1/4+z
1/4+x,-y,1/4+z
1/2+x,1/2+y,z
3/4-x,3/4-y,z
1/2+x,3/4-y,1/4-z
3/4-x,1/2+y,1/4-z
1/2-x,1/2-y,-z
1/4+x,1/4+y,-z
1/2-x,1/4+y,3/4+z
1/4+x,1/2-y,3/4+z
loop_
_atom_site_type_symbol
_atom_site_label
_atom_site_fract_x
_atom_site_fract_y
_atom_site_fract_z
Si Si1 0.383464 0.061282 0.597798
Si Si2 0.527200 0.100934 0.998517
Si Si3 0.789067 0.524752 0.498884
Si Si4 0.590340 0.690875 0.182061
Si Si5 0.606211 0.489559 0.450480
O O1 0.367795 0.125000 0.625000
O O2 0.310524 0.038489 0.557020
O O3 0.480687 0.062516 0.569699
O O4 0.390403 0.017062 0.644388
O O5 0.625000 0.125000 0.020047
O O6 0.475897 0.158618 0.977738
O O7 0.554419 0.051585 0.958086
O O8 0.462544 0.064155 0.036023
O O9 0.867566 0.488431 0.470217
O O10 0.693534 0.490675 0.487725
O O11 0.625000 0.625000 0.195489
O O12 0.625000 0.702715 0.125000
#
# Coordination Sequence:
#
# PCOD9515096 Si02
#       5
#    32  32  32  32  32
#     4  12  21  38  65  94 121 167 216 258 318 396
#     4   9  20  38  63  86 121 166 198 257 322 369
#     4  11  22  38  64  93 121 169 212 258 327 380
#     4  11  21  39  63  91 129 168 211 268 326 379
#     4  10  20  40  61  89 130 159 206 269 310 378
#
# _framework density 18.282498
#
# number of rings (size 3 to 8) (size 9 to 14) (size 15 to 20)
#    0.000    1.400    6.000    0.600    0.000    0.000 
#    0.000   17.000    0.000    0.000    0.000    0.000 
#    0.000    0.000    0.000    0.000    0.000    0.000 
#
# Total GULP energy -222907.417012 kJ/mol
# GULP energy per Si atom -5572.685425 kJ/mol
# Density = 1.824089 g / cm^3
# Si number density = 18.282498 Si / 1000 Ang^3
#
#
#
# Elastic Constant Matrix: (Units=GPa)
#
#
# Indices 1 2 3 4 5 6 
#
# 1 87.8862 60.6596 53.8785 0.0000 0.0000 0.0000
# 2 60.6596 107.2942 52.1816 0.0000 0.0000 0.0000
# 3 53.8785 52.1816 74.8832 0.0000 0.0000 0.0000
# 4 0.0000 0.0000 0.0000 25.4534 0.0000 0.0000
# 5 0.0000 0.0000 0.0000 0.0000 3.2768 0.0000
# 6 0.0000 0.0000 0.0000 0.0000 0.0000 29.1924
#
#
#
# Elastic Compliance Matrix: (Units=1/GPa)
#
#
# Indices 1 2 3 4 5 6 
#
# 1 0.024045 -0.007836 -0.011840 0.000000 0.000000 0.000000
# 2 -0.007836 0.016651 -0.005966 0.000000 0.000000 0.000000
# 3 -0.011840 -0.005966 0.026030 0.000000 0.000000 0.000000
# 4 0.000000 0.000000 0.000000 0.039287 0.000000 0.000000
# 5 0.000000 0.000000 0.000000 0.000000 0.305175 0.000000
# 6 0.000000 0.000000 0.000000 0.000000 0.000000 0.034255
#
#
# Mechanical properties :
#
#
# Convention : Reuss Voigt Hill
#
# Bulk Modulus (GPa) = 64.75111 67.05587 65.90349
# Shear Modulus (GPa) = 9.96261 18.47413 14.21837
#
# Velocity S-wave (km/s) = 2.33690 3.18226 2.79176
# Velocity P-wave (km/s) = 6.54029 7.08940 6.82037
#
# Compressibility (1/GPa) = 0.01544375
#
# Stress axis : x y z
#
# Youngs Moduli (GPa) = 41.58811 60.05477 38.41672
#
# Poissons Ratio (x) = 0.47057 0.45487
# Poissons Ratio (y) = 0.32587 0.22918
# Poissons Ratio (z) = 0.49242 0.35826
#
# Static dielectric constant tensor:
#      x y z
#    x 1.683370 0.000000 0.000000 
#    y 0.000000 1.643550 0.000000 
#    z 0.000000 0.000000 1.618660 
# 
# From -- ./inp_files/28621.got.cif
#   From: 2010.05.17/outbox.cif.g08.bks.cpg/sg70_15_cif.got.tgz:28621.got - 2010.06.03 15:57:51.
