data_PCOD9515592
_publ_section_title
;
Structure prediction by ZEFSAII (Michael W. Deem and Ramdas Pophale) SiO2 
 PCOD9515592
Probable space group: F D D D
;
_chemical_formula_sum "Si O2"
_cell_formula_units_Z 240
_cell_length_a 26.670659
_cell_length_b 19.608551
_cell_length_c 22.473560
_cell_angle_alpha 90.000000
_cell_angle_beta 90.000000
_cell_angle_gamma 90.000000
_cell_volume 11753.064582
_symmetry_space_group_name_H-M "F D D D"
_symmetry_group_IT_number 70
_space_group.IT_coordinate_system_code '2'
_symmetry_cell_setting 'orthorhombic'
loop_
_space_group_symop_operation_xyz
x,y,z
1/4-x,1/4-y,z
x,1/4-y,1/4-z
1/4-x,y,1/4-z
-x,-y,-z
3/4+x,3/4+y,-z
-x,3/4+y,3/4+z
3/4+x,-y,3/4+z
x,1/2+y,1/2+z
1/4-x,3/4-y,1/2+z
x,3/4-y,3/4-z
1/4-x,1/2+y,3/4-z
-x,1/2-y,1/2-z
3/4+x,1/4+y,1/2-z
-x,1/4+y,1/4+z
3/4+x,1/2-y,1/4+z
1/2+x,y,1/2+z
3/4-x,1/4-y,1/2+z
1/2+x,1/4-y,3/4-z
3/4-x,y,3/4-z
1/2-x,-y,1/2-z
1/4+x,3/4+y,1/2-z
1/2-x,3/4+y,1/4+z
1/4+x,-y,1/4+z
1/2+x,1/2+y,z
3/4-x,3/4-y,z
1/2+x,3/4-y,1/4-z
3/4-x,1/2+y,1/4-z
1/2-x,1/2-y,-z
1/4+x,1/4+y,-z
1/2-x,1/4+y,3/4+z
1/4+x,1/2-y,3/4+z
loop_
_atom_site_type_symbol
_atom_site_label
_atom_site_fract_x
_atom_site_fract_y
_atom_site_fract_z
Si Si1 0.815152 0.867741 0.996223
Si Si2 0.309596 0.989870 0.157663
Si Si3 0.428514 0.682499 0.858522
Si Si4 0.838449 0.704266 0.617090
Si Si5 0.441459 0.771404 0.751541
Si Si6 0.755337 0.489010 0.553493
Si Si7 0.004270 0.625000 0.625000
Si Si8 0.482109 0.845752 0.049703
O O1 0.875000 0.875000 0.992934
O O2 0.789673 0.879638 0.932516
O O3 0.801283 0.796109 0.028562
O O4 0.791345 0.927165 0.036035
O O5 0.294249 0.936068 0.106999
O O6 0.368173 0.006050 0.151380
O O7 0.279820 0.058883 0.140256
O O8 0.375000 0.651056 0.875000
O O9 0.420994 0.747628 0.815012
O O10 0.455615 0.707548 0.918159
O O11 0.467178 0.632874 0.823652
O O12 0.848591 0.625000 0.625000
O O13 0.837127 0.729062 0.549256
O O14 0.784386 0.720111 0.645086
O O15 0.500000 0.750000 0.750000
O O16 0.445352 0.849861 0.732114
O O17 0.745549 0.537719 0.497799
#
# Coordination Sequence:
#
# PCOD9515592 Si02
#       8
#    32  32  32  32  32  32  16  32
#     4  12  25  48  73 102 138 184 236 291 361 423
#     4  12  25  45  72 101 137 186 237 290 349 416
#     4  11  25  46  67 104 144 183 229 288 358 424
#     4  12  23  41  73 102 134 187 237 283 347 428
#     4  10  21  42  66  98 139 174 224 285 342 414
#     4  12  24  44  71  99 140 181 231 287 353 424
#     4  12  27  50  66 102 144 176 237 302 352 416
#     4  11  24  46  69 100 140 183 227 287 348 417
#
# _framework density 20.420207000000001
#
# number of rings (size 3 to 8) (size 9 to 14) (size 15 to 20)
#    0.000    0.533    7.333    2.200    1.867    0.000 
#    4.800    0.667    0.000    0.000    0.000    0.000 
#    0.000    0.000    0.000    0.000    0.000    0.000 
#
# Total GULP energy -335263.067161 kJ/mol
# GULP energy per Si atom -5587.717786 kJ/mol
# Density = 2.037373 g / cm^3
# Si number density = 20.420207 Si / 1000 Ang^3
#
#
#
# Elastic Constant Matrix: (Units=GPa)
#
#
# Indices 1 2 3 4 5 6 
#
# 1 77.1278 32.9188 28.1316 0.0000 0.0000 0.0000
# 2 32.9188 99.5566 33.2195 0.0000 0.0000 0.0000
# 3 28.1316 33.2195 78.0795 0.0000 0.0000 0.0000
# 4 0.0000 0.0000 0.0000 42.6303 0.0000 0.0000
# 5 0.0000 0.0000 0.0000 0.0000 -3.0012 0.0000
# 6 0.0000 0.0000 0.0000 0.0000 0.0000 31.8226
#
#
#
# Elastic Compliance Matrix: (Units=1/GPa)
#
#
# Indices 1 2 3 4 5 6 
#
# 1 0.016167 -0.003965 -0.004138 0.000000 0.000000 0.000000
# 2 -0.003965 0.012679 -0.003966 0.000000 0.000000 0.000000
# 3 -0.004138 -0.003966 0.015986 0.000000 0.000000 0.000000
# 4 0.000000 0.000000 0.000000 0.023458 0.000000 0.000000
# 5 0.000000 0.000000 0.000000 0.000000 -0.333205 0.000000
# 6 0.000000 0.000000 0.000000 0.000000 0.000000 0.031424
#
#
# Mechanical properties :
#
#
# Convention : Reuss Voigt Hill
#
# Bulk Modulus (GPa) = 48.32290 49.25596 48.78943
# Shear Modulus (GPa) = -24.69665 24.98995 0.14665
#
# Velocity S-wave (km/s) = -3.48145 3.50206 0.26827
# Velocity P-wave (km/s) = 2.74863 6.36601 4.90312
#
# Compressibility (1/GPa) = 0.02069412
#
# Stress axis : x y z
#
# Youngs Moduli (GPa) = 61.85418 78.87163 62.55630
#
# Poissons Ratio (x) = 0.31272 0.25886
# Poissons Ratio (y) = 0.24525 0.24808
# Poissons Ratio (z) = 0.25595 0.31278
#
# Static dielectric constant tensor:
#      x y z
#    x 1.726670 0.000000 0.000000 
#    y 0.000000 1.725790 0.000000 
#    z 0.000000 0.000000 1.733820 
# 
# From -- ./inp_files/47122.got.cif
#   From: 2010.05.17/outbox.cif.g08.bks.cpg/sg70_24_cif.got.tgz:47122.got - 2010.06.03 15:57:51.
