data_PCOD9515210
_publ_section_title
;
Structure prediction by ZEFSAII (Michael W. Deem and Ramdas Pophale) SiO2 
 PCOD9515210
Probable space group: F D D D
;
_chemical_formula_sum "Si O2"
_cell_formula_units_Z 192
_cell_length_a 24.809038
_cell_length_b 15.996873
_cell_length_c 25.111600
_cell_angle_alpha 90.000000
_cell_angle_beta 90.000000
_cell_angle_gamma 90.000000
_cell_volume 9965.966114
_symmetry_space_group_name_H-M "F D D D"
_symmetry_group_IT_number 70
_space_group.IT_coordinate_system_code '2'
_symmetry_cell_setting 'orthorhombic'
loop_
_space_group_symop_operation_xyz
x,y,z
1/4-x,1/4-y,z
x,1/4-y,1/4-z
1/4-x,y,1/4-z
-x,-y,-z
3/4+x,3/4+y,-z
-x,3/4+y,3/4+z
3/4+x,-y,3/4+z
x,1/2+y,1/2+z
1/4-x,3/4-y,1/2+z
x,3/4-y,3/4-z
1/4-x,1/2+y,3/4-z
-x,1/2-y,1/2-z
3/4+x,1/4+y,1/2-z
-x,1/4+y,1/4+z
3/4+x,1/2-y,1/4+z
1/2+x,y,1/2+z
3/4-x,1/4-y,1/2+z
1/2+x,1/4-y,3/4-z
3/4-x,y,3/4-z
1/2-x,-y,1/2-z
1/4+x,3/4+y,1/2-z
1/2-x,3/4+y,1/4+z
1/4+x,-y,1/4+z
1/2+x,1/2+y,z
3/4-x,3/4-y,z
1/2+x,3/4-y,1/4-z
3/4-x,1/2+y,1/4-z
1/2-x,1/2-y,-z
1/4+x,1/4+y,-z
1/2-x,1/4+y,3/4+z
1/4+x,1/2-y,3/4+z
loop_
_atom_site_type_symbol
_atom_site_label
_atom_site_fract_x
_atom_site_fract_y
_atom_site_fract_z
Si Si1 0.135122 0.487974 0.824727
Si Si2 0.125000 0.125000 0.835197
Si Si3 0.435705 0.081948 0.360220
Si Si4 0.254694 0.295046 0.944151
Si Si5 0.949513 0.125000 0.625000
Si Si6 0.084267 0.562389 0.718070
Si Si7 0.766115 0.466459 0.691358
O O1 0.140162 0.549963 0.874774
O O2 0.193065 0.445258 0.822592
O O3 0.089419 0.419667 0.832946
O O4 0.114559 0.540308 0.773394
O O5 0.177308 0.086447 0.805428
O O6 0.375000 0.111344 0.375000
O O7 0.474974 0.155480 0.340462
O O8 0.462563 0.018180 0.404369
O O9 0.425572 0.024063 0.309606
O O10 0.280606 0.383487 0.960313
O O11 0.250000 0.250000 0.000000
O O12 0.978973 0.200669 0.654620
O O13 0.125000 0.625000 0.688375
O O14 0.750000 0.500000 0.750000
#
# Coordination Sequence:
#
# PCOD9515210 Si02
#       7
#    32  16  32  32  16  32  32
#     4  11  21  42  64 101 130 176 223 280 344 416
#     4  10  20  42  74  93 133 176 230 294 336 408
#     4  12  25  43  65 102 145 182 222 289 356 423
#     4  12  23  37  66 101 136 182 216 271 356 426
#     4  10  26  44  71  92 133 180 238 298 332 392
#     4  12  23  38  65  99 146 167 216 279 355 421
#     4  11  25  48  70 101 137 186 242 290 342 411
#
# _framework density 19.265568999999999
#
# number of rings (size 3 to 8) (size 9 to 14) (size 15 to 20)
#    0.000    0.667    5.833    1.500    4.667    0.000 
#    3.000    0.000    0.000    0.000    0.000    0.000 
#    0.000    0.000    0.000    0.000    0.000    0.000 
#
# Total GULP energy -267305.647940 kJ/mol
# GULP energy per Si atom -5568.867665 kJ/mol
# Density = 1.922172 g / cm^3
# Si number density = 19.265569 Si / 1000 Ang^3
#
#
#
# Elastic Constant Matrix: (Units=GPa)
#
#
# Indices 1 2 3 4 5 6 
#
# 1 140.0128 66.6060 52.2543 0.0000 0.0000 0.0000
# 2 66.6060 119.0252 23.7643 0.0000 0.0000 0.0000
# 3 52.2543 23.7643 80.6014 0.0000 0.0000 0.0000
# 4 0.0000 0.0000 0.0000 28.6079 0.0000 0.0000
# 5 0.0000 0.0000 0.0000 0.0000 23.6522 0.0000
# 6 0.0000 0.0000 0.0000 0.0000 0.0000 15.8939
#
#
#
# Elastic Compliance Matrix: (Units=1/GPa)
#
#
# Indices 1 2 3 4 5 6 
#
# 1 0.012087 -0.005524 -0.006207 0.000000 0.000000 0.000000
# 2 -0.005524 0.011452 0.000205 0.000000 0.000000 0.000000
# 3 -0.006207 0.000205 0.016370 0.000000 0.000000 0.000000
# 4 0.000000 0.000000 0.000000 0.034955 0.000000 0.000000
# 5 0.000000 0.000000 0.000000 0.000000 0.042279 0.000000
# 6 0.000000 0.000000 0.000000 0.000000 0.000000 0.062917
#
#
# Mechanical properties :
#
#
# Convention : Reuss Voigt Hill
#
# Bulk Modulus (GPa) = 59.32533 69.43205 64.37869
# Shear Modulus (GPa) = 23.95403 26.76513 25.35958
#
# Velocity S-wave (km/s) = 3.52996 3.73134 3.63204
# Velocity P-wave (km/s) = 6.89017 7.39470 7.14689
#
# Compressibility (1/GPa) = 0.01685621
#
# Stress axis : x y z
#
# Youngs Moduli (GPa) = 82.73474 87.32032 61.08587
#
# Poissons Ratio (x) = 0.48239 0.37917
# Poissons Ratio (y) = 0.45706 -0.01252
# Poissons Ratio (z) = 0.51355 -0.01790
#
# Static dielectric constant tensor:
#      x y z
#    x 1.639580 0.000000 0.000000 
#    y 0.000000 2.326940 0.000000 
#    z 0.000000 0.000000 1.690100 
# 
# From -- ./inp_files/54358.got.cif
#   From: 2010.05.17/outbox.cif.g08.bks.cpg/sg70_28_cif.got.tgz:54358.got - 2010.06.03 15:57:51.
