data_PCOD9515920
_publ_section_title
;
Structure prediction by ZEFSAII (Michael W. Deem and Ramdas Pophale) SiO2 
 PCOD9515920
Probable space group: F D D D
;
_chemical_formula_sum "Si O2"
_cell_formula_units_Z 112
_cell_length_a 10.591254
_cell_length_b 26.203215
_cell_length_c 20.594881
_cell_angle_alpha 90.000000
_cell_angle_beta 90.000000
_cell_angle_gamma 90.000000
_cell_volume 5715.592407
_symmetry_space_group_name_H-M "F D D D"
_symmetry_group_IT_number 70
_space_group.IT_coordinate_system_code '2'
_symmetry_cell_setting 'orthorhombic'
loop_
_space_group_symop_operation_xyz
x,y,z
1/4-x,1/4-y,z
x,1/4-y,1/4-z
1/4-x,y,1/4-z
-x,-y,-z
3/4+x,3/4+y,-z
-x,3/4+y,3/4+z
3/4+x,-y,3/4+z
x,1/2+y,1/2+z
1/4-x,3/4-y,1/2+z
x,3/4-y,3/4-z
1/4-x,1/2+y,3/4-z
-x,1/2-y,1/2-z
3/4+x,1/4+y,1/2-z
-x,1/4+y,1/4+z
3/4+x,1/2-y,1/4+z
1/2+x,y,1/2+z
3/4-x,1/4-y,1/2+z
1/2+x,1/4-y,3/4-z
3/4-x,y,3/4-z
1/2-x,-y,1/2-z
1/4+x,3/4+y,1/2-z
1/2-x,3/4+y,1/4+z
1/4+x,-y,1/4+z
1/2+x,1/2+y,z
3/4-x,3/4-y,z
1/2+x,3/4-y,1/4-z
3/4-x,1/2+y,1/4-z
1/2-x,1/2-y,-z
1/4+x,1/4+y,-z
1/2-x,1/4+y,3/4+z
1/4+x,1/2-y,3/4+z
loop_
_atom_site_type_symbol
_atom_site_label
_atom_site_fract_x
_atom_site_fract_y
_atom_site_fract_z
Si Si1 0.375000 0.649390 0.375000
Si Si2 0.261245 0.414632 0.228540
Si Si3 0.743570 0.752662 0.078628
Si Si4 0.267060 0.229856 0.597321
O O1 0.340122 0.614012 0.315133
O O2 0.265477 0.687813 0.399329
O O3 0.375000 0.375000 0.233550
O O4 0.292907 0.467823 0.192474
O O5 0.219656 0.432433 0.299151
O O6 0.625000 0.732204 0.125000
O O7 0.874291 0.727699 0.099828
O O8 0.750000 0.750000 0.000000
O O9 0.125000 0.231581 0.625000
#
# Coordination Sequence:
#
# PCOD9515920 Si02
#       4
#    16  32  32  32
#     4  10  22  42  70  90 138 188 226 280 350 434
#     4  11  22  42  64 100 133 179 232 279 344 416
#     4  10  24  44  68  97 137 185 230 289 363 423
#     4  11  25  40  71 102 136 177 233 294 341 411
#
# _framework density 19.595518999999999
#
# number of rings (size 3 to 8) (size 9 to 14) (size 15 to 20)
#    0.857    0.571    4.286    0.000   12.000    0.571 
#    0.000    0.000    0.000    1.714    0.000    0.000 
#    0.000    0.000    0.000    0.000    0.000    0.000 
#
# Total GULP energy -155874.775787 kJ/mol
# GULP energy per Si atom -5566.956278 kJ/mol
# Density = 1.955092 g / cm^3
# Si number density = 19.595519 Si / 1000 Ang^3
#
#
#
# Elastic Constant Matrix: (Units=GPa)
#
#
# Indices 1 2 3 4 5 6 
#
# 1 132.2402 34.6140 90.4531 0.0000 0.0000 0.0000
# 2 34.6140 75.5577 45.1987 0.0000 0.0000 0.0000
# 3 90.4531 45.1987 177.9258 0.0000 0.0000 0.0000
# 4 0.0000 0.0000 0.0000 44.1521 0.0000 0.0000
# 5 0.0000 0.0000 0.0000 0.0000 38.2414 0.0000
# 6 0.0000 0.0000 0.0000 0.0000 0.0000 112.5124
#
#
#
# Elastic Compliance Matrix: (Units=1/GPa)
#
#
# Indices 1 2 3 4 5 6 
#
# 1 0.011885 -0.002158 -0.005494 0.000000 0.000000 0.000000
# 2 -0.002158 0.015998 -0.002967 0.000000 0.000000 0.000000
# 3 -0.005494 -0.002967 0.009167 0.000000 0.000000 0.000000
# 4 0.000000 0.000000 0.000000 0.022649 0.000000 0.000000
# 5 0.000000 0.000000 0.000000 0.000000 0.026150 0.000000
# 6 0.000000 0.000000 0.000000 0.000000 0.000000 0.008888
#
#
# Mechanical properties :
#
#
# Convention : Reuss Voigt Hill
#
# Bulk Modulus (GPa) = 63.24151 80.69503 71.96827
# Shear Modulus (GPa) = 41.23899 53.34505 47.29202
#
# Velocity S-wave (km/s) = 4.59247 5.22324 4.91798
# Velocity P-wave (km/s) = 7.77590 8.81170 8.30995
#
# Compressibility (1/GPa) = 0.01581240
#
# Stress axis : x y z
#
# Youngs Moduli (GPa) = 84.14301 62.50605 109.08940
#
# Poissons Ratio (x) = 0.13490 0.59929
# Poissons Ratio (y) = 0.18160 0.32366
# Poissons Ratio (z) = 0.46224 0.18545
#
# Static dielectric constant tensor:
#      x y z
#    x 1.737890 0.000000 0.000000 
#    y 0.000000 1.674860 0.000000 
#    z 0.000000 0.000000 1.589660 
# 
# From -- ./inp_files/16276.got.cif
#   From: 2010.05.17/outbox.cif.g08.bks.cpg/sg70_9_cif.got.tgz:16276.got - 2010.06.03 15:57:51.
