data_PCOD9515166
_publ_section_title
;
Structure prediction by ZEFSAII (Michael W. Deem and Ramdas Pophale) SiO2 
 PCOD9515166
Probable space group: F D D D
;
_chemical_formula_sum "Si O2"
_cell_formula_units_Z 168
_cell_length_a 25.037590
_cell_length_b 26.978271
_cell_length_c 9.617870
_cell_angle_alpha 90.000000
_cell_angle_beta 90.000000
_cell_angle_gamma 90.000000
_cell_volume 6496.591192
_symmetry_space_group_name_H-M "F D D D"
_symmetry_group_IT_number 70
_space_group.IT_coordinate_system_code '2'
_symmetry_cell_setting 'orthorhombic'
loop_
_space_group_symop_operation_xyz
x,y,z
1/4-x,1/4-y,z
x,1/4-y,1/4-z
1/4-x,y,1/4-z
-x,-y,-z
3/4+x,3/4+y,-z
-x,3/4+y,3/4+z
3/4+x,-y,3/4+z
x,1/2+y,1/2+z
1/4-x,3/4-y,1/2+z
x,3/4-y,3/4-z
1/4-x,1/2+y,3/4-z
-x,1/2-y,1/2-z
3/4+x,1/4+y,1/2-z
-x,1/4+y,1/4+z
3/4+x,1/2-y,1/4+z
1/2+x,y,1/2+z
3/4-x,1/4-y,1/2+z
1/2+x,1/4-y,3/4-z
3/4-x,y,3/4-z
1/2-x,-y,1/2-z
1/4+x,3/4+y,1/2-z
1/2-x,3/4+y,1/4+z
1/4+x,-y,1/4+z
1/2+x,1/2+y,z
3/4-x,3/4-y,z
1/2+x,3/4-y,1/4-z
3/4-x,1/2+y,1/4-z
1/2-x,1/2-y,-z
1/4+x,1/4+y,-z
1/2-x,1/4+y,3/4+z
1/4+x,1/2-y,3/4+z
loop_
_atom_site_type_symbol
_atom_site_label
_atom_site_fract_x
_atom_site_fract_y
_atom_site_fract_z
Si Si1 0.475193 0.032404 0.368961
Si Si2 0.937426 0.307303 0.580873
Si Si3 0.913994 0.761901 0.558306
Si Si4 0.962942 0.205024 0.804877
Si Si5 0.375000 0.375000 0.875000
Si Si6 0.137464 0.326045 0.305250
O O1 0.427460 0.073420 0.331623
O O2 0.500000 0.000000 0.500000
O O3 0.535081 0.048321 0.317837
O O4 0.597852 0.971958 0.434419
O O5 0.891749 0.291480 0.690935
O O6 0.910538 0.342509 0.472921
O O7 0.991075 0.330800 0.640260
O O8 0.955122 0.260661 0.485744
O O9 0.927919 0.725997 0.430522
O O10 0.820957 0.683285 0.568013
O O11 0.000000 0.250000 0.750000
O O12 0.109940 0.375000 0.375000
#
# Coordination Sequence:
#
# PCOD9515166 Si02
#       6
#    32  32  32  32   8  32
#     4  10  21  41  65  90 132 184 223 265 345 425
#     4  10  23  38  67  92 127 178 217 272 343 401
#     4  10  20  41  69  87 126 180 219 267 345 416
#     4  11  20  42  68  92 126 174 222 272 333 412
#     4  12  24  44  60 102 140 160 236 286 316 408
#     4  11  24  40  63 103 133 167 230 297 333 401
#
# _framework density 25.859715000000001
#
# number of rings (size 3 to 8) (size 9 to 14) (size 15 to 20)
#    0.000    1.524    5.714    1.714    0.000    5.333 
#   13.714    0.000    0.000    0.000    0.000    0.000 
#    0.000    0.000    0.000    0.000    0.000    0.000 
#
# Total GULP energy -233809.122426 kJ/mol
# GULP energy per Si atom -5566.883867 kJ/mol
# Density = 2.580086 g / cm^3
# Si number density = 25.859715 Si / 1000 Ang^3
#
#
#
# Elastic Constant Matrix: (Units=GPa)
#
#
# Indices 1 2 3 4 5 6 
#
# 1 176.4617 30.9978 3.4946 -0.0009 0.0008 0.0007
# 2 30.9978 45.1448 -3.4242 -0.0005 0.0003 0.0005
# 3 3.4946 -3.4242 96.3977 -0.0014 0.0006 0.0021
# 4 -0.0009 -0.0005 -0.0014 31.9113 0.0015 0.0015
# 5 0.0008 0.0003 0.0006 0.0015 20.4127 -0.0016
# 6 0.0007 0.0005 0.0021 0.0015 -0.0016 27.1792
#
#
#
# Elastic Compliance Matrix: (Units=1/GPa)
#
#
# Indices 1 2 3 4 5 6 
#
# 1 0.006459 -0.004465 -0.000393 0.000000 0.000000 0.000000
# 2 -0.004465 0.025297 0.001060 0.000000 0.000000 0.000000
# 3 -0.000393 0.001060 0.010426 0.000000 0.000000 -0.000001
# 4 0.000000 0.000000 0.000000 0.031337 -0.000002 -0.000002
# 5 0.000000 0.000000 0.000000 -0.000002 0.048989 0.000003
# 6 0.000000 0.000000 -0.000001 -0.000002 0.000003 0.036793
#
#
# Mechanical properties :
#
#
# Convention : Reuss Voigt Hill
#
# Bulk Modulus (GPa) = 28.91217 42.23785 35.57501
# Shear Modulus (GPa) = 28.02318 35.02971 31.52644
#
# Velocity S-wave (km/s) = 3.29547 3.68449 3.49540
# Velocity P-wave (km/s) = 5.06802 5.87108 5.48427
#
# Compressibility (1/GPa) = 0.03458751
#
# Stress axis : x y z
#
# Youngs Moduli (GPa) = 154.82225 39.53036 95.91780
#
# Poissons Ratio (x) = 0.17649 0.03767
# Poissons Ratio (y) = 0.69124 -0.10171
# Poissons Ratio (z) = 0.06081 -0.04192
#
# Static dielectric constant tensor:
#      x y z
#    x 2.287720 0.000000 0.000000 
#    y 0.000000 2.249180 0.000000 
#    z 0.000000 0.000000 2.518910 
# 
# From -- ./inp_files/22589.got.cif
#   From: 2010.05.17/outbox.cif.g08.bks.cpg/sg70_12_cif.got.tgz:22589.got - 2010.06.03 15:57:51.
