data_PCOD9515391
_publ_section_title
;
Structure prediction by ZEFSAII (Michael W. Deem and Ramdas Pophale) SiO2 
 PCOD9515391
Probable space group: F D D D
;
_chemical_formula_sum "Si O2"
_cell_formula_units_Z 160
_cell_length_a 14.194017
_cell_length_b 24.518807
_cell_length_c 24.183050
_cell_angle_alpha 90.000000
_cell_angle_beta 90.000000
_cell_angle_gamma 90.000000
_cell_volume 8416.193849
_symmetry_space_group_name_H-M "F D D D"
_symmetry_group_IT_number 70
_space_group.IT_coordinate_system_code '2'
_symmetry_cell_setting 'orthorhombic'
loop_
_space_group_symop_operation_xyz
x,y,z
1/4-x,1/4-y,z
x,1/4-y,1/4-z
1/4-x,y,1/4-z
-x,-y,-z
3/4+x,3/4+y,-z
-x,3/4+y,3/4+z
3/4+x,-y,3/4+z
x,1/2+y,1/2+z
1/4-x,3/4-y,1/2+z
x,3/4-y,3/4-z
1/4-x,1/2+y,3/4-z
-x,1/2-y,1/2-z
3/4+x,1/4+y,1/2-z
-x,1/4+y,1/4+z
3/4+x,1/2-y,1/4+z
1/2+x,y,1/2+z
3/4-x,1/4-y,1/2+z
1/2+x,1/4-y,3/4-z
3/4-x,y,3/4-z
1/2-x,-y,1/2-z
1/4+x,3/4+y,1/2-z
1/2-x,3/4+y,1/4+z
1/4+x,-y,1/4+z
1/2+x,1/2+y,z
3/4-x,3/4-y,z
1/2+x,3/4-y,1/4-z
3/4-x,1/2+y,1/4-z
1/2-x,1/2-y,-z
1/4+x,1/4+y,-z
1/2-x,1/4+y,3/4+z
1/4+x,1/2-y,3/4+z
loop_
_atom_site_type_symbol
_atom_site_label
_atom_site_fract_x
_atom_site_fract_y
_atom_site_fract_z
Si Si1 0.761454 0.766936 0.234200
Si Si2 0.284186 0.845820 0.216967
Si Si3 0.277064 0.436010 0.398571
Si Si4 0.678313 0.452075 0.182637
Si Si5 0.385520 0.770169 0.130795
O O1 0.767560 0.703530 0.251886
O O2 0.783698 0.806467 0.285367
O O3 0.650253 0.772587 0.221498
O O4 0.823803 0.780238 0.180461
O O5 0.375000 0.875000 0.245417
O O6 0.213218 0.894227 0.204380
O O7 0.327595 0.818686 0.160894
O O8 0.269915 0.375000 0.375000
O O9 0.375000 0.459771 0.375000
O O10 0.185712 0.469903 0.380511
O O11 0.625000 0.443563 0.125000
O O12 0.771378 0.487301 0.169017
#
# Coordination Sequence:
#
# PCOD9515391 Si02
#       5
#    32  32  32  32  32
#     4  10  21  38  63  87 121 159 192 253 305 352
#     4   9  19  34  55  87 116 150 197 241 288 356
#     4  10  23  41  54  85 124 155 200 244 291 362
#     4   9  19  38  60  90 118 149 203 252 296 357
#     4   9  20  39  60  86 118 151 200 246 293 357
#
# _framework density 19.010968999999999
#
# number of rings (size 3 to 8) (size 9 to 14) (size 15 to 20)
#    0.000    2.600    0.000    0.000    2.800   11.200 
#   18.000    0.000    0.000    0.000    0.000    0.000 
#    0.000    0.000    0.000    0.000    0.000    0.000 
#
# Total GULP energy -222901.158346 kJ/mol
# GULP energy per Si atom -5572.528959 kJ/mol
# Density = 1.896770 g / cm^3
# Si number density = 19.010969 Si / 1000 Ang^3
#
#
#
# Elastic Constant Matrix: (Units=GPa)
#
#
# Indices 1 2 3 4 5 6 
#
# 1 98.9378 21.0075 22.3968 0.0000 0.0000 0.0000
# 2 21.0075 47.3195 -11.4010 0.0000 0.0000 0.0000
# 3 22.3968 -11.4010 78.4533 0.0000 0.0000 0.0000
# 4 0.0000 0.0000 0.0000 7.2927 0.0000 0.0000
# 5 0.0000 0.0000 0.0000 0.0000 14.8303 0.0000
# 6 0.0000 0.0000 0.0000 0.0000 0.0000 -0.6971
#
#
#
# Elastic Compliance Matrix: (Units=1/GPa)
#
#
# Indices 1 2 3 4 5 6 
#
# 1 0.012555 -0.006671 -0.004553 0.000000 0.000000 0.000000
# 2 -0.006671 0.025444 0.005602 0.000000 0.000000 0.000000
# 3 -0.004553 0.005602 0.014860 0.000000 0.000000 0.000000
# 4 0.000000 0.000000 0.000000 0.137124 0.000000 0.000000
# 5 0.000000 0.000000 0.000000 0.000000 0.067430 0.000000
# 6 0.000000 0.000000 0.000000 0.000000 0.000000 -1.434428
#
#
# Mechanical properties :
#
#
# Convention : Reuss Voigt Hill
#
# Bulk Modulus (GPa) = 24.03000 32.07969 28.05484
# Shear Modulus (GPa) = -4.34066 17.13231 6.39583
#
# Velocity S-wave (km/s) = -1.51268 3.00522 1.83619
# Velocity P-wave (km/s) = 3.10106 5.38078 4.39143
#
# Compressibility (1/GPa) = 0.04161465
#
# Stress axis : x y z
#
# Youngs Moduli (GPa) = 79.65259 39.30189 67.29272
#
# Poissons Ratio (x) = 0.26217 0.30641
# Poissons Ratio (y) = 0.53134 -0.37697
# Poissons Ratio (z) = 0.36269 -0.22017
#
# Static dielectric constant tensor:
#      x y z
#    x 1.675640 0.000000 0.000000 
#    y 0.000000 1.647080 0.000000 
#    z 0.000000 0.000000 1.679190 
# 
# From -- ./inp_files/28623.got.cif
#   From: 2010.05.17/outbox.cif.g08.bks.cpg/sg70_15_cif.got.tgz:28623.got - 2010.06.03 15:57:51.
