data_PCOD9515412
_publ_section_title
;
Structure prediction by ZEFSAII (Michael W. Deem and Ramdas Pophale) SiO2 
 PCOD9515412
Probable space group: F D D D
;
_chemical_formula_sum "Si O2"
_cell_formula_units_Z 144
_cell_length_a 21.800778
_cell_length_b 11.387171
_cell_length_c 27.530279
_cell_angle_alpha 90.000000
_cell_angle_beta 90.000000
_cell_angle_gamma 90.000000
_cell_volume 6834.369380
_symmetry_space_group_name_H-M "F D D D"
_symmetry_group_IT_number 70
_space_group.IT_coordinate_system_code '2'
_symmetry_cell_setting 'orthorhombic'
loop_
_space_group_symop_operation_xyz
x,y,z
1/4-x,1/4-y,z
x,1/4-y,1/4-z
1/4-x,y,1/4-z
-x,-y,-z
3/4+x,3/4+y,-z
-x,3/4+y,3/4+z
3/4+x,-y,3/4+z
x,1/2+y,1/2+z
1/4-x,3/4-y,1/2+z
x,3/4-y,3/4-z
1/4-x,1/2+y,3/4-z
-x,1/2-y,1/2-z
3/4+x,1/4+y,1/2-z
-x,1/4+y,1/4+z
3/4+x,1/2-y,1/4+z
1/2+x,y,1/2+z
3/4-x,1/4-y,1/2+z
1/2+x,1/4-y,3/4-z
3/4-x,y,3/4-z
1/2-x,-y,1/2-z
1/4+x,3/4+y,1/2-z
1/2-x,3/4+y,1/4+z
1/4+x,-y,1/4+z
1/2+x,1/2+y,z
3/4-x,3/4-y,z
1/2+x,3/4-y,1/4-z
3/4-x,1/2+y,1/4-z
1/2-x,1/2-y,-z
1/4+x,1/4+y,-z
1/2-x,1/4+y,3/4+z
1/4+x,1/2-y,3/4+z
loop_
_atom_site_type_symbol
_atom_site_label
_atom_site_fract_x
_atom_site_fract_y
_atom_site_fract_z
Si Si1 0.764476 0.875000 0.375000
Si Si2 0.300466 0.603398 0.748993
Si Si3 0.559881 0.377655 0.636889
Si Si4 0.480431 0.901649 0.698579
Si Si5 0.069686 0.406159 0.966314
O O1 0.805764 0.761427 0.381832
O O2 0.721483 0.893727 0.422206
O O3 0.250000 0.500000 0.750000
O O4 0.307103 0.629633 0.805751
O O5 0.282128 0.723785 0.722627
O O6 0.367098 0.585373 0.723837
O O7 0.625000 0.320530 0.625000
O O8 0.503322 0.325401 0.606339
O O9 0.536142 0.852768 0.731822
O O10 0.430329 0.796353 0.702998
#
# Coordination Sequence:
#
# PCOD9515412 Si02
#       5
#    16  32  32  32  32
#     4  10  21  38  68  98 124 167 222 278 338 386
#     4  12  26  42  63  95 138 179 215 265 338 413
#     4  11  22  40  66  98 126 172 223 272 329 393
#     4  10  22  41  65  96 127 163 221 277 329 382
#     4  10  21  40  65  95 130 162 215 282 328 386
#
# _framework density 21.069977999999999
#
# number of rings (size 3 to 8) (size 9 to 14) (size 15 to 20)
#    0.000    1.333    4.444    1.000    0.000    5.333 
#    0.000    3.333    0.000    0.000    0.000    0.000 
#    0.000    0.000    0.000    0.000    0.000    0.000 
#
# Total GULP energy -200484.550365 kJ/mol
# GULP energy per Si atom -5569.015288 kJ/mol
# Density = 2.102202 g / cm^3
# Si number density = 21.069978 Si / 1000 Ang^3
#
#
#
# Elastic Constant Matrix: (Units=GPa)
#
#
# Indices 1 2 3 4 5 6 
#
# 1 85.8159 13.3975 14.2601 0.0000 0.0000 0.0000
# 2 13.3975 40.1950 -11.7744 0.0000 0.0000 0.0000
# 3 14.2601 -11.7744 93.5615 0.0000 0.0000 0.0000
# 4 0.0000 0.0000 0.0000 15.3468 0.0000 0.0000
# 5 0.0000 0.0000 0.0000 0.0000 36.0507 0.0000
# 6 0.0000 0.0000 0.0000 0.0000 0.0000 25.2586
#
#
#
# Elastic Compliance Matrix: (Units=1/GPa)
#
#
# Indices 1 2 3 4 5 6 
#
# 1 0.012873 -0.005052 -0.002598 0.000000 0.000000 0.000000
# 2 -0.005052 0.027813 0.004270 0.000000 0.000000 0.000000
# 3 -0.002598 0.004270 0.011621 0.000000 0.000000 0.000000
# 4 0.000000 0.000000 0.000000 0.065160 0.000000 0.000000
# 5 0.000000 0.000000 0.000000 0.000000 0.027739 0.000000
# 6 0.000000 0.000000 0.000000 0.000000 0.000000 0.039590
#
#
# Mechanical properties :
#
#
# Convention : Reuss Voigt Hill
#
# Bulk Modulus (GPa) = 21.95426 27.92657 24.94041
# Shear Modulus (GPa) = 24.18504 28.91050 26.54777
#
# Velocity S-wave (km/s) = 3.39166 3.70823 3.55347
# Velocity P-wave (km/s) = 5.07741 5.62295 5.35713
#
# Compressibility (1/GPa) = 0.04554925
#
# Stress axis : x y z
#
# Youngs Moduli (GPa) = 77.68068 35.95387 86.04752
#
# Poissons Ratio (x) = 0.18163 0.22354
# Poissons Ratio (y) = 0.39243 -0.36744
# Poissons Ratio (z) = 0.20180 -0.15353
#
# Static dielectric constant tensor:
#      x y z
#    x 1.845930 0.000000 0.000000 
#    y 0.000000 1.768340 0.000000 
#    z 0.000000 0.000000 1.742320 
# 
# From -- ./inp_files/20672.got.cif
#   From: 2010.05.17/outbox.cif.g08.bks.cpg/sg70_11_cif.got.tgz:20672.got - 2010.06.03 15:57:51.
