data_PCOD9515047
_publ_section_title
;
Structure prediction by ZEFSAII (Michael W. Deem and Ramdas Pophale) SiO2 
 PCOD9515047
Probable space group: F D D D
;
_chemical_formula_sum "Si O2"
_cell_formula_units_Z 176
_cell_length_a 12.905667
_cell_length_b 28.266792
_cell_length_c 20.157111
_cell_angle_alpha 90.000000
_cell_angle_beta 90.000000
_cell_angle_gamma 90.000000
_cell_volume 7353.350471
_symmetry_space_group_name_H-M "F D D D"
_symmetry_group_IT_number 70
_space_group.IT_coordinate_system_code '2'
_symmetry_cell_setting 'orthorhombic'
loop_
_space_group_symop_operation_xyz
x,y,z
1/4-x,1/4-y,z
x,1/4-y,1/4-z
1/4-x,y,1/4-z
-x,-y,-z
3/4+x,3/4+y,-z
-x,3/4+y,3/4+z
3/4+x,-y,3/4+z
x,1/2+y,1/2+z
1/4-x,3/4-y,1/2+z
x,3/4-y,3/4-z
1/4-x,1/2+y,3/4-z
-x,1/2-y,1/2-z
3/4+x,1/4+y,1/2-z
-x,1/4+y,1/4+z
3/4+x,1/2-y,1/4+z
1/2+x,y,1/2+z
3/4-x,1/4-y,1/2+z
1/2+x,1/4-y,3/4-z
3/4-x,y,3/4-z
1/2-x,-y,1/2-z
1/4+x,3/4+y,1/2-z
1/2-x,3/4+y,1/4+z
1/4+x,-y,1/4+z
1/2+x,1/2+y,z
3/4-x,3/4-y,z
1/2+x,3/4-y,1/4-z
3/4-x,1/2+y,1/4-z
1/2-x,1/2-y,-z
1/4+x,1/4+y,-z
1/2-x,1/4+y,3/4+z
1/4+x,1/2-y,3/4+z
loop_
_atom_site_type_symbol
_atom_site_label
_atom_site_fract_x
_atom_site_fract_y
_atom_site_fract_z
Si Si1 0.894898 0.484445 0.576550
Si Si2 0.539628 0.960966 0.949554
Si Si3 0.235362 0.145696 0.847074
Si Si4 0.268141 0.166464 0.278003
Si Si5 0.651721 0.919190 0.767132
Si Si6 0.503848 0.375000 0.375000
O O1 0.835320 0.508571 0.638754
O O2 0.963419 0.442636 0.608627
O O3 0.813854 0.458014 0.528702
O O4 0.938315 0.529057 0.536335
O O5 0.463051 0.918836 0.921579
O O6 0.628540 0.935339 0.992963
O O7 0.500000 0.000000 0.000000
O O8 0.125000 0.125000 0.819146
O O9 0.268226 0.102816 0.896155
O O10 0.323730 0.161344 0.795429
O O11 0.253316 0.117235 0.239168
O O12 0.577833 0.903423 0.826405
#
# Coordination Sequence:
#
# PCOD9515047 Si02
#       6
#    32  32  32  32  32  16
#     4  10  22  39  58  92 122 162 213 255 317 382
#     4  10  21  35  63  87 127 163 208 259 315 379
#     4  10  22  36  61  88 124 160 207 261 309 375
#     4  10  22  38  61  88 121 163 204 255 315 372
#     4  10  20  39  62  85 125 160 204 258 315 373
#     4   8  20  36  53  92 121 160 204 252 310 372
#
# _framework density 23.934667999999999
#
# number of rings (size 3 to 8) (size 9 to 14) (size 15 to 20)
#    0.000    2.182    0.000    1.636   12.727    0.727 
#    0.000    0.455    0.000    0.000    0.000  151.455 
#    0.000    0.000    0.000    0.000    0.000    0.000 
#
# Total GULP energy -245138.845302 kJ/mol
# GULP energy per Si atom -5571.337393 kJ/mol
# Density = 2.388019 g / cm^3
# Si number density = 23.934668 Si / 1000 Ang^3
#
#
#
# Elastic Constant Matrix: (Units=GPa)
#
#
# Indices 1 2 3 4 5 6 
#
# 1 56.3085 36.5976 25.7258 0.0000 0.0000 0.0000
# 2 36.5976 197.7533 53.7495 0.0000 0.0000 0.0000
# 3 25.7258 53.7495 61.9596 0.0000 0.0000 0.0000
# 4 0.0000 0.0000 0.0000 47.5463 0.0000 0.0000
# 5 0.0000 0.0000 0.0000 0.0000 35.9045 0.0000
# 6 0.0000 0.0000 0.0000 0.0000 0.0000 35.7533
#
#
#
# Elastic Compliance Matrix: (Units=1/GPa)
#
#
# Indices 1 2 3 4 5 6 
#
# 1 0.022585 -0.002134 -0.007526 0.000000 0.000000 0.000000
# 2 -0.002134 0.006819 -0.005029 0.000000 0.000000 0.000000
# 3 -0.007526 -0.005029 0.023627 0.000000 0.000000 0.000000
# 4 0.000000 0.000000 0.000000 0.021032 0.000000 0.000000
# 5 0.000000 0.000000 0.000000 0.000000 0.027852 0.000000
# 6 0.000000 0.000000 0.000000 0.000000 0.000000 0.027969
#
#
# Mechanical properties :
#
#
# Convention : Reuss Voigt Hill
#
# Bulk Modulus (GPa) = 42.27932 60.90748 51.59340
# Shear Modulus (GPa) = 29.91399 37.17072 33.54236
#
# Velocity S-wave (km/s) = 3.53911 3.94510 3.74761
# Velocity P-wave (km/s) = 5.86543 6.80106 6.35050
#
# Compressibility (1/GPa) = 0.02365222
#
# Stress axis : x y z
#
# Youngs Moduli (GPa) = 44.27765 146.65634 42.32451
#
# Poissons Ratio (x) = 0.31299 0.31853
# Poissons Ratio (y) = 0.09450 0.21285
# Poissons Ratio (z) = 0.33323 0.73754
#
# Static dielectric constant tensor:
#      x y z
#    x 2.127330 0.000000 0.000000 
#    y 0.000000 2.173640 0.000000 
#    z 0.000000 0.000000 2.112330 
# 
# From -- ./inp_files/35250.got.cif
#   From: 2010.05.17/outbox.cif.g08.bks.cpg/sg70_18_cif.got.tgz:35250.got - 2010.06.03 15:57:51.
