data_PCOD9515962
_publ_section_title
;
Structure prediction by ZEFSAII (Michael W. Deem and Ramdas Pophale) SiO2 
 PCOD9515962
Probable space group: F D D D
;
_chemical_formula_sum "Si O2"
_cell_formula_units_Z 176
_cell_length_a 12.048948
_cell_length_b 25.764459
_cell_length_c 27.116712
_cell_angle_alpha 90.000000
_cell_angle_beta 90.000000
_cell_angle_gamma 90.000000
_cell_volume 8417.966368
_symmetry_space_group_name_H-M "F D D D"
_symmetry_group_IT_number 70
_space_group.IT_coordinate_system_code '2'
_symmetry_cell_setting 'orthorhombic'
loop_
_space_group_symop_operation_xyz
x,y,z
1/4-x,1/4-y,z
x,1/4-y,1/4-z
1/4-x,y,1/4-z
-x,-y,-z
3/4+x,3/4+y,-z
-x,3/4+y,3/4+z
3/4+x,-y,3/4+z
x,1/2+y,1/2+z
1/4-x,3/4-y,1/2+z
x,3/4-y,3/4-z
1/4-x,1/2+y,3/4-z
-x,1/2-y,1/2-z
3/4+x,1/4+y,1/2-z
-x,1/4+y,1/4+z
3/4+x,1/2-y,1/4+z
1/2+x,y,1/2+z
3/4-x,1/4-y,1/2+z
1/2+x,1/4-y,3/4-z
3/4-x,y,3/4-z
1/2-x,-y,1/2-z
1/4+x,3/4+y,1/2-z
1/2-x,3/4+y,1/4+z
1/4+x,-y,1/4+z
1/2+x,1/2+y,z
3/4-x,3/4-y,z
1/2+x,3/4-y,1/4-z
3/4-x,1/2+y,1/4-z
1/2-x,1/2-y,-z
1/4+x,1/4+y,-z
1/2-x,1/4+y,3/4+z
1/4+x,1/2-y,3/4+z
loop_
_atom_site_type_symbol
_atom_site_label
_atom_site_fract_x
_atom_site_fract_y
_atom_site_fract_z
Si Si1 0.625000 0.125000 0.625000
Si Si2 0.916804 0.683521 0.430937
Si Si3 0.875000 0.375000 0.875000
Si Si4 0.625000 0.781438 0.125000
Si Si5 0.510995 0.646169 0.445575
Si Si6 0.753648 0.451280 0.952110
Si Si7 0.625000 0.125000 0.471451
Si Si8 0.012335 0.199580 0.197873
O O1 0.541436 0.156652 0.658046
O O2 0.875000 0.683719 0.375000
O O3 0.821606 0.651123 0.459000
O O4 0.940800 0.742379 0.446235
O O5 0.027785 0.650805 0.440207
O O6 0.799210 0.412327 0.909738
O O7 0.540365 0.817570 0.096067
O O8 0.569058 0.748618 0.170009
O O9 0.625000 0.625000 0.425715
O O10 0.534086 0.677883 0.495061
O O11 0.619210 0.456752 0.952732
O O12 0.570921 0.077270 0.504227
#
# Coordination Sequence:
#
# PCOD9515962 Si02
#       8
#     8  32   8  16  32  32  16  32
#     4   8  18  40  64 104 134 176 234 298 360 402
#     4  12  28  45  75 111 145 196 242 310 375 445
#     4  12  26  50  70 108 150 210 256 304 358 460
#     4  11  26  42  72 110 144 188 244 307 376 432
#     4  12  28  48  70 106 153 191 242 306 372 448
#     4  12  26  49  75 105 146 199 252 304 370 441
#     4  11  24  47  77 106 150 188 251 307 376 441
#     4  10  22  43  73 104 140 188 243 305 357 436
#
# _framework density 20.907664
#
# number of rings (size 3 to 8) (size 9 to 14) (size 15 to 20)
#    0.000    0.727    4.545    1.636    6.364    2.182 
#    3.273    0.000    0.000    0.000    0.000    0.000 
#    0.000    0.000    0.000    0.000    0.000    0.000 
#
# Total GULP energy -245827.124678 kJ/mol
# GULP energy per Si atom -5586.980106 kJ/mol
# Density = 2.086008 g / cm^3
# Si number density = 20.907664 Si / 1000 Ang^3
#
#
#
# Elastic Constant Matrix: (Units=GPa)
#
#
# Indices 1 2 3 4 5 6 
#
# 1 146.7698 82.7086 53.3805 0.0000 0.0000 0.0000
# 2 82.7086 170.7978 76.4734 0.0000 0.0000 0.0000
# 3 53.3805 76.4734 132.9567 0.0000 0.0000 0.0000
# 4 0.0000 0.0000 0.0000 36.2502 0.0000 0.0000
# 5 0.0000 0.0000 0.0000 0.0000 -23.5113 0.0000
# 6 0.0000 0.0000 0.0000 0.0000 0.0000 35.4219
#
#
#
# Elastic Compliance Matrix: (Units=1/GPa)
#
#
# Indices 1 2 3 4 5 6 
#
# 1 0.009614 -0.003943 -0.001592 0.000000 0.000000 0.000000
# 2 -0.003943 0.009503 -0.003883 0.000000 0.000000 0.000000
# 3 -0.001592 -0.003883 0.010394 0.000000 0.000000 0.000000
# 4 0.000000 0.000000 0.000000 0.027586 0.000000 0.000000
# 5 0.000000 0.000000 0.000000 0.000000 -0.042533 0.000000
# 6 0.000000 0.000000 0.000000 0.000000 0.000000 0.028231
#
#
# Mechanical properties :
#
#
# Convention : Reuss Voigt Hill
#
# Bulk Modulus (GPa) = 93.67468 97.29434 95.48451
# Shear Modulus (GPa) = 76.70001 25.49630 51.09816
#
# Velocity S-wave (km/s) = 6.06340 3.49588 4.94904
# Velocity P-wave (km/s) = 9.69128 7.93292 8.85585
#
# Compressibility (1/GPa) = 0.01067524
#
# Stress axis : x y z
#
# Youngs Moduli (GPa) = 104.01086 105.23411 96.21191
#
# Poissons Ratio (x) = 0.41492 0.15319
# Poissons Ratio (y) = 0.41010 0.37356
# Poissons Ratio (z) = 0.16561 0.40859
#
# Static dielectric constant tensor:
#      x y z
#    x 1.616920 0.000000 0.000000 
#    y 0.000000 1.781070 0.000000 
#    z 0.000000 0.000000 1.739930 
# 
# From -- ./inp_files/64819.got.cif
#   From: 2010.05.17/outbox.cif.g08.bks.cpg/sg70_33_cif.got.tgz:64819.got - 2010.06.03 15:57:51.
