data_PCOD9515978
_publ_section_title
;
Structure prediction by ZEFSAII (Michael W. Deem and Ramdas Pophale) SiO2 
 PCOD9515978
Probable space group: F D D D
;
_chemical_formula_sum "Si O2"
_cell_formula_units_Z 160
_cell_length_a 18.973662
_cell_length_b 16.913930
_cell_length_c 21.671665
_cell_angle_alpha 90.000000
_cell_angle_beta 90.000000
_cell_angle_gamma 90.000000
_cell_volume 6954.853198
_symmetry_space_group_name_H-M "F D D D"
_symmetry_group_IT_number 70
_space_group.IT_coordinate_system_code '2'
_symmetry_cell_setting 'orthorhombic'
loop_
_space_group_symop_operation_xyz
x,y,z
1/4-x,1/4-y,z
x,1/4-y,1/4-z
1/4-x,y,1/4-z
-x,-y,-z
3/4+x,3/4+y,-z
-x,3/4+y,3/4+z
3/4+x,-y,3/4+z
x,1/2+y,1/2+z
1/4-x,3/4-y,1/2+z
x,3/4-y,3/4-z
1/4-x,1/2+y,3/4-z
-x,1/2-y,1/2-z
3/4+x,1/4+y,1/2-z
-x,1/4+y,1/4+z
3/4+x,1/2-y,1/4+z
1/2+x,y,1/2+z
3/4-x,1/4-y,1/2+z
1/2+x,1/4-y,3/4-z
3/4-x,y,3/4-z
1/2-x,-y,1/2-z
1/4+x,3/4+y,1/2-z
1/2-x,3/4+y,1/4+z
1/4+x,-y,1/4+z
1/2+x,1/2+y,z
3/4-x,3/4-y,z
1/2+x,3/4-y,1/4-z
3/4-x,1/2+y,1/4-z
1/2-x,1/2-y,-z
1/4+x,1/4+y,-z
1/2-x,1/4+y,3/4+z
1/4+x,1/2-y,3/4+z
loop_
_atom_site_type_symbol
_atom_site_label
_atom_site_fract_x
_atom_site_fract_y
_atom_site_fract_z
Si Si1 0.238298 0.847196 0.581849
Si Si2 0.672265 0.284625 0.363576
Si Si3 0.832999 0.626872 0.462800
Si Si4 0.217967 0.984666 0.927926
Si Si5 0.395855 0.785260 0.984058
O O1 0.285827 0.769628 0.587643
O O2 0.212434 0.863644 0.651815
O O3 0.163882 0.847153 0.546505
O O4 0.283415 0.921623 0.558388
O O5 0.692815 0.375000 0.375000
O O6 0.588019 0.277793 0.374053
O O7 0.684121 0.251787 0.294719
O O8 0.805461 0.576120 0.519396
O O9 0.835453 0.720944 0.473103
O O10 0.301462 0.967834 0.925328
O O11 0.375000 0.875000 0.996446
#
# Coordination Sequence:
#
# PCOD9515978 Si02
#       5
#    32  32  32  32  32
#     4  10  23  44  68  95 140 176 223 284 340 404
#     4  12  24  43  67 100 133 177 229 280 335 416
#     4  10  22  44  67  97 136 176 227 284 334 411
#     4  11  23  42  68  99 129 176 228 274 344 401
#     4  11  24  44  68  97 136 179 219 283 347 398
#
# _framework density 23.005517999999999
#
# number of rings (size 3 to 8) (size 9 to 14) (size 15 to 20)
#    0.000    1.200    4.000    1.800    0.000    3.200 
#    3.600    9.000    0.000    0.000    0.000    0.000 
#    0.000    0.000    0.000    0.000    0.000    0.000 
#
# Total GULP energy -223448.869492 kJ/mol
# GULP energy per Si atom -5586.221737 kJ/mol
# Density = 2.295316 g / cm^3
# Si number density = 23.005518 Si / 1000 Ang^3
#
#
#
# Elastic Constant Matrix: (Units=GPa)
#
#
# Indices 1 2 3 4 5 6 
#
# 1 68.1150 56.5984 25.3805 0.0000 0.0000 0.0000
# 2 56.5984 212.1346 26.0227 0.0000 0.0000 0.0000
# 3 25.3805 26.0227 48.5280 0.0000 0.0000 0.0000
# 4 0.0000 0.0000 0.0000 33.5041 0.0000 0.0000
# 5 0.0000 0.0000 0.0000 0.0000 29.1677 0.0000
# 6 0.0000 0.0000 0.0000 0.0000 0.0000 30.3453
#
#
#
# Elastic Compliance Matrix: (Units=1/GPa)
#
#
# Indices 1 2 3 4 5 6 
#
# 1 0.021970 -0.004766 -0.008935 0.000000 0.000000 0.000000
# 2 -0.004766 0.006080 -0.000768 0.000000 0.000000 0.000000
# 3 -0.008935 -0.000768 0.025691 0.000000 0.000000 0.000000
# 4 0.000000 0.000000 0.000000 0.029847 0.000000 0.000000
# 5 0.000000 0.000000 0.000000 0.000000 0.034285 0.000000
# 6 0.000000 0.000000 0.000000 0.000000 0.000000 0.032954
#
#
# Mechanical properties :
#
#
# Convention : Reuss Voigt Hill
#
# Bulk Modulus (GPa) = 40.31523 60.53120 50.42321
# Shear Modulus (GPa) = 26.59123 33.32183 29.95653
#
# Velocity S-wave (km/s) = 3.40349 3.80995 3.61244
# Velocity P-wave (km/s) = 5.74519 6.76188 6.27416
#
# Compressibility (1/GPa) = 0.02480452
#
# Stress axis : x y z
#
# Youngs Moduli (GPa) = 45.51608 164.48280 38.92354
#
# Poissons Ratio (x) = 0.78387 0.34778
# Poissons Ratio (y) = 0.21692 0.02988
# Poissons Ratio (z) = 0.40669 0.12627
#
# Static dielectric constant tensor:
#      x y z
#    x 1.909750 0.000000 0.000000 
#    y 0.000000 1.842380 0.000000 
#    z 0.000000 0.000000 1.855500 
# 
# From -- ./inp_files/59410.got.cif
#   From: 2010.05.17/outbox.cif.g08.bks.cpg/sg70_30_cif.got.tgz:59410.got - 2010.06.03 15:57:51.
