data_PCOD9515705
_publ_section_title
;
Structure prediction by ZEFSAII (Michael W. Deem and Ramdas Pophale) SiO2 
 PCOD9515705
Probable space group: F D D D
;
_chemical_formula_sum "Si O2"
_cell_formula_units_Z 160
_cell_length_a 17.759750
_cell_length_b 26.144972
_cell_length_c 15.674257
_cell_angle_alpha 90.000000
_cell_angle_beta 90.000000
_cell_angle_gamma 90.000000
_cell_volume 7277.999014
_symmetry_space_group_name_H-M "F D D D"
_symmetry_group_IT_number 70
_space_group.IT_coordinate_system_code '2'
_symmetry_cell_setting 'orthorhombic'
loop_
_space_group_symop_operation_xyz
x,y,z
1/4-x,1/4-y,z
x,1/4-y,1/4-z
1/4-x,y,1/4-z
-x,-y,-z
3/4+x,3/4+y,-z
-x,3/4+y,3/4+z
3/4+x,-y,3/4+z
x,1/2+y,1/2+z
1/4-x,3/4-y,1/2+z
x,3/4-y,3/4-z
1/4-x,1/2+y,3/4-z
-x,1/2-y,1/2-z
3/4+x,1/4+y,1/2-z
-x,1/4+y,1/4+z
3/4+x,1/2-y,1/4+z
1/2+x,y,1/2+z
3/4-x,1/4-y,1/2+z
1/2+x,1/4-y,3/4-z
3/4-x,y,3/4-z
1/2-x,-y,1/2-z
1/4+x,3/4+y,1/2-z
1/2-x,3/4+y,1/4+z
1/4+x,-y,1/4+z
1/2+x,1/2+y,z
3/4-x,3/4-y,z
1/2+x,3/4-y,1/4-z
3/4-x,1/2+y,1/4-z
1/2-x,1/2-y,-z
1/4+x,1/4+y,-z
1/2-x,1/4+y,3/4+z
1/4+x,1/2-y,3/4+z
loop_
_atom_site_type_symbol
_atom_site_label
_atom_site_fract_x
_atom_site_fract_y
_atom_site_fract_z
Si Si1 0.035262 0.875000 0.875000
Si Si2 0.531084 0.027326 0.363862
Si Si3 0.875000 0.529042 0.375000
Si Si4 0.143540 0.959551 0.932280
Si Si5 0.954947 0.007581 0.327146
Si Si6 0.464505 0.382541 0.691608
O O1 0.093120 0.922232 0.876868
O O2 0.987350 0.873814 0.789474
O O3 0.452922 0.997574 0.381634
O O4 0.507629 0.085597 0.382582
O O5 0.597648 0.012427 0.426810
O O6 0.557198 0.012293 0.269707
O O7 0.862299 0.555345 0.467934
O O8 0.226995 0.968867 0.896659
O O9 0.875000 0.006345 0.375000
O O10 0.994131 0.063809 0.331539
O O11 0.375000 0.375000 0.682167
#
# Coordination Sequence:
#
# PCOD9515705 Si02
#       6
#    16  32  16  32  32  32
#     4  12  25  42  71 110 148 192 248 310 391 455
#     4  11  23  43  68 107 146 194 242 311 371 449
#     4  10  22  36  68  97 146 188 228 301 374 440
#     4  11  23  44  67 107 146 192 252 304 381 448
#     4  11  27  48  74 104 145 203 252 310 373 450
#     4  12  25  44  71 113 146 192 247 312 382 454
#
# _framework density 21.984065000000001
#
# number of rings (size 3 to 8) (size 9 to 14) (size 15 to 20)
#    0.000    0.800    6.000    0.900    1.400    0.800 
#    0.000    0.500    0.000    0.000    0.000    0.000 
#    0.000    0.000    0.000    0.000    0.000    0.000 
#
# Total GULP energy -222874.547046 kJ/mol
# GULP energy per Si atom -5571.863676 kJ/mol
# Density = 2.193403 g / cm^3
# Si number density = 21.984065 Si / 1000 Ang^3
#
#
#
# Elastic Constant Matrix: (Units=GPa)
#
#
# Indices 1 2 3 4 5 6 
#
# 1 184.8690 7.1998 60.1688 0.0000 0.0000 0.0000
# 2 7.1998 71.0770 36.1013 0.0000 0.0000 0.0000
# 3 60.1688 36.1013 98.5957 0.0000 0.0000 0.0000
# 4 0.0000 0.0000 0.0000 22.5373 0.0000 0.0000
# 5 0.0000 0.0000 0.0000 0.0000 51.4296 0.0000
# 6 0.0000 0.0000 0.0000 0.0000 0.0000 13.7686
#
#
#
# Elastic Compliance Matrix: (Units=1/GPa)
#
#
# Indices 1 2 3 4 5 6 
#
# 1 0.006928 0.001776 -0.004878 0.000000 0.000000 0.000000
# 2 0.001776 0.017739 -0.007579 0.000000 0.000000 0.000000
# 3 -0.004878 -0.007579 0.015894 0.000000 0.000000 0.000000
# 4 0.000000 0.000000 0.000000 0.044371 0.000000 0.000000
# 5 0.000000 0.000000 0.000000 0.000000 0.019444 0.000000
# 6 0.000000 0.000000 0.000000 0.000000 0.000000 0.072629
#
#
# Mechanical properties :
#
#
# Convention : Reuss Voigt Hill
#
# Bulk Modulus (GPa) = 52.08641 62.38682 57.23661
# Shear Modulus (GPa) = 24.41810 34.28522 29.35166
#
# Velocity S-wave (km/s) = 3.33636 3.95340 3.65791
# Velocity P-wave (km/s) = 6.21176 7.01990 6.62816
#
# Compressibility (1/GPa) = 0.01919887
#
# Stress axis : x y z
#
# Youngs Moduli (GPa) = 144.34873 56.37357 62.91593
#
# Poissons Ratio (x) = -0.10011 0.30690
# Poissons Ratio (y) = -0.25634 0.47683
# Poissons Ratio (z) = 0.70412 0.42725
#
# Static dielectric constant tensor:
#      x y z
#    x 1.879600 0.000000 0.000000 
#    y 0.000000 1.997040 0.000000 
#    z 0.000000 0.000000 1.804090 
# 
# From -- ./inp_files/35171.got.cif
#   From: 2010.05.17/outbox.cif.g08.bks.cpg/sg70_18_cif.got.tgz:35171.got - 2010.06.03 15:57:51.
