data_PCOD9515869
_publ_section_title
;
Structure prediction by ZEFSAII (Michael W. Deem and Ramdas Pophale) SiO2 
 PCOD9515869
Probable space group: F D D D
;
_chemical_formula_sum "Si O2"
_cell_formula_units_Z 112
_cell_length_a 8.934757
_cell_length_b 27.365338
_cell_length_c 22.349538
_cell_angle_alpha 90.000000
_cell_angle_beta 90.000000
_cell_angle_gamma 90.000000
_cell_volume 5464.521161
_symmetry_space_group_name_H-M "F D D D"
_symmetry_group_IT_number 70
_space_group.IT_coordinate_system_code '2'
_symmetry_cell_setting 'orthorhombic'
loop_
_space_group_symop_operation_xyz
x,y,z
1/4-x,1/4-y,z
x,1/4-y,1/4-z
1/4-x,y,1/4-z
-x,-y,-z
3/4+x,3/4+y,-z
-x,3/4+y,3/4+z
3/4+x,-y,3/4+z
x,1/2+y,1/2+z
1/4-x,3/4-y,1/2+z
x,3/4-y,3/4-z
1/4-x,1/2+y,3/4-z
-x,1/2-y,1/2-z
3/4+x,1/4+y,1/2-z
-x,1/4+y,1/4+z
3/4+x,1/2-y,1/4+z
1/2+x,y,1/2+z
3/4-x,1/4-y,1/2+z
1/2+x,1/4-y,3/4-z
3/4-x,y,3/4-z
1/2-x,-y,1/2-z
1/4+x,3/4+y,1/2-z
1/2-x,3/4+y,1/4+z
1/4+x,-y,1/4+z
1/2+x,1/2+y,z
3/4-x,3/4-y,z
1/2+x,3/4-y,1/4-z
3/4-x,1/2+y,1/4-z
1/2-x,1/2-y,-z
1/4+x,1/4+y,-z
1/2-x,1/4+y,3/4+z
1/4+x,1/2-y,3/4+z
loop_
_atom_site_type_symbol
_atom_site_label
_atom_site_fract_x
_atom_site_fract_y
_atom_site_fract_z
Si Si1 0.965377 0.541150 0.601912
Si Si2 0.252608 0.698216 0.035031
Si Si3 0.066352 0.404881 0.750101
Si Si4 0.875000 0.696854 0.875000
O O1 0.831674 0.547515 0.650142
O O2 0.936259 0.565865 0.538817
O O3 0.125000 0.561254 0.625000
O O4 0.998353 0.483344 0.599182
O O5 0.250000 0.750000 0.000000
O O6 0.340843 0.652980 0.005302
O O7 0.085615 0.675975 0.030888
O O8 0.062222 0.417625 0.680651
#
# Coordination Sequence:
#
# PCOD9515869 Si02
#       4
#    32  32  32  16
#     4  10  22  41  69  92 129 165 213 263 320 382
#     4  11  22  43  64  93 129 169 214 260 317 381
#     4  11  23  42  67  95 129 169 212 264 321 381
#     4  10  22  42  65  94 132 155 214 268 320 372
#
# _framework density 20.495847999999999
#
# number of rings (size 3 to 8) (size 9 to 14) (size 15 to 20)
#    0.857    0.571    2.857    2.571    0.000    4.571 
#    5.143    5.714    0.000    0.000    0.000    0.000 
#    0.000    0.000    0.000    0.000    0.000    0.000 
#
# Total GULP energy -155870.310188 kJ/mol
# GULP energy per Si atom -5566.796792 kJ/mol
# Density = 2.044920 g / cm^3
# Si number density = 20.495848 Si / 1000 Ang^3
#
#
#
# Elastic Constant Matrix: (Units=GPa)
#
#
# Indices 1 2 3 4 5 6 
#
# 1 38.6975 -22.9601 21.9872 0.0000 0.0000 0.0000
# 2 -22.9601 128.9392 42.8506 0.0000 0.0000 0.0000
# 3 21.9872 42.8506 104.6928 0.0000 0.0000 0.0000
# 4 0.0000 0.0000 0.0000 -7.5163 0.0000 0.0000
# 5 0.0000 0.0000 0.0000 0.0000 26.3718 0.0000
# 6 0.0000 0.0000 0.0000 0.0000 0.0000 -19.3425
#
#
#
# Elastic Compliance Matrix: (Units=1/GPa)
#
#
# Indices 1 2 3 4 5 6 
#
# 1 0.040143 0.011516 -0.013144 0.000000 0.000000 0.000000
# 2 0.011516 0.012281 -0.007445 0.000000 0.000000 0.000000
# 3 -0.013144 -0.007445 0.015360 0.000000 0.000000 0.000000
# 4 0.000000 0.000000 0.000000 -0.133044 0.000000 0.000000
# 5 0.000000 0.000000 0.000000 0.000000 0.037919 0.000000
# 6 0.000000 0.000000 0.000000 0.000000 0.000000 -0.051700
#
#
# Mechanical properties :
#
#
# Convention : Reuss Voigt Hill
#
# Bulk Modulus (GPa) = 20.14623 39.56496 29.85560
# Shear Modulus (GPa) = -112.73825 15.26605 -48.73610
#
# Velocity S-wave (km/s) = -7.42461 2.73213 -4.88161
# Velocity P-wave (km/s) = 7.97803 5.41281 4.14430
#
# Compressibility (1/GPa) = 0.04963708
#
# Stress axis : x y z
#
# Youngs Moduli (GPa) = 24.91109 81.42960 65.10624
#
# Poissons Ratio (x) = -0.93778 0.85578
# Poissons Ratio (y) = -0.28689 0.48472
# Poissons Ratio (z) = 0.32744 0.60625
#
# Static dielectric constant tensor:
#      x y z
#    x 1.753500 0.000000 0.000000 
#    y 0.000000 1.755270 0.000000 
#    z 0.000000 0.000000 1.697920 
# 
# From -- ./inp_files/49091.got.cif
#   From: 2010.05.17/outbox.cif.g08.bks.cpg/sg70_25_cif.got.tgz:49091.got - 2010.06.03 15:57:51.
