data_PCOD9515050
_publ_section_title
;
Structure prediction by ZEFSAII (Michael W. Deem and Ramdas Pophale) SiO2 
 PCOD9515050
Probable space group: F D D D
;
_chemical_formula_sum "Si O2"
_cell_formula_units_Z 176
_cell_length_a 14.053666
_cell_length_b 21.609074
_cell_length_c 24.746754
_cell_angle_alpha 90.000000
_cell_angle_beta 90.000000
_cell_angle_gamma 90.000000
_cell_volume 7515.260270
_symmetry_space_group_name_H-M "F D D D"
_symmetry_group_IT_number 70
_space_group.IT_coordinate_system_code '2'
_symmetry_cell_setting 'orthorhombic'
loop_
_space_group_symop_operation_xyz
x,y,z
1/4-x,1/4-y,z
x,1/4-y,1/4-z
1/4-x,y,1/4-z
-x,-y,-z
3/4+x,3/4+y,-z
-x,3/4+y,3/4+z
3/4+x,-y,3/4+z
x,1/2+y,1/2+z
1/4-x,3/4-y,1/2+z
x,3/4-y,3/4-z
1/4-x,1/2+y,3/4-z
-x,1/2-y,1/2-z
3/4+x,1/4+y,1/2-z
-x,1/4+y,1/4+z
3/4+x,1/2-y,1/4+z
1/2+x,y,1/2+z
3/4-x,1/4-y,1/2+z
1/2+x,1/4-y,3/4-z
3/4-x,y,3/4-z
1/2-x,-y,1/2-z
1/4+x,3/4+y,1/2-z
1/2-x,3/4+y,1/4+z
1/4+x,-y,1/4+z
1/2+x,1/2+y,z
3/4-x,3/4-y,z
1/2+x,3/4-y,1/4-z
3/4-x,1/2+y,1/4-z
1/2-x,1/2-y,-z
1/4+x,1/4+y,-z
1/2-x,1/4+y,3/4+z
1/4+x,1/2-y,3/4+z
loop_
_atom_site_type_symbol
_atom_site_label
_atom_site_fract_x
_atom_site_fract_y
_atom_site_fract_z
Si Si1 0.145001 0.429755 0.005667
Si Si2 0.956731 0.927909 0.024001
Si Si3 0.721881 0.596192 0.390891
Si Si4 0.190860 0.980895 0.016053
Si Si5 0.875000 0.194736 0.875000
Si Si6 0.512734 0.630256 0.560795
O O1 0.225112 0.469286 0.976376
O O2 0.050205 0.419910 0.971156
O O3 0.197354 0.361422 0.010850
O O4 0.119543 0.465175 0.062230
O O5 0.875000 0.875000 0.020446
O O6 0.955724 0.945014 0.087792
O O7 0.909696 0.983535 0.989015
O O8 0.625000 0.625000 0.414018
O O9 0.789747 0.564332 0.433931
O O10 0.779441 0.655069 0.369999
O O11 0.219568 0.944426 0.961658
O O12 0.625000 0.625000 0.548897
O O13 0.501029 0.625000 0.625000
#
# Coordination Sequence:
#
# PCOD9515050 Si02
#       6
#    32  32  32  32  16  32
#     4  10  22  42  66  92 128 171 212 272 312 379
#     4   8  19  39  63  97 128 156 217 263 311 383
#     4  10  20  39  62  93 128 160 210 270 306 377
#     4  11  22  39  68  94 123 177 205 257 334 375
#     4  10  20  40  64  92 124 156 220 270 302 368
#     4  11  26  45  59  94 139 169 214 266 315 389
#
# _framework density 23.419017
#
# number of rings (size 3 to 8) (size 9 to 14) (size 15 to 20)
#    0.000    2.000    1.818    1.636    2.545    2.909 
#    0.000    0.000    0.000    3.818    0.000    0.000 
#    0.000    0.000    0.000    0.000    0.000    0.000 
#
# Total GULP energy -245362.402371 kJ/mol
# GULP energy per Si atom -5576.418236 kJ/mol
# Density = 2.336571 g / cm^3
# Si number density = 23.419017 Si / 1000 Ang^3
#
#
#
# Elastic Constant Matrix: (Units=GPa)
#
#
# Indices 1 2 3 4 5 6 
#
# 1 179.8247 18.9183 53.0587 0.0000 0.0000 0.0000
# 2 18.9183 48.0760 12.1800 0.0000 0.0000 0.0000
# 3 53.0587 12.1800 109.7677 0.0000 0.0000 0.0000
# 4 0.0000 0.0000 0.0000 -0.4014 0.0000 0.0000
# 5 0.0000 0.0000 0.0000 0.0000 34.9703 0.0000
# 6 0.0000 0.0000 0.0000 0.0000 0.0000 18.9474
#
#
#
# Elastic Compliance Matrix: (Units=1/GPa)
#
#
# Indices 1 2 3 4 5 6 
#
# 1 0.006643 -0.001853 -0.003005 0.000000 0.000000 0.000000
# 2 -0.001853 0.021919 -0.001537 0.000000 0.000000 0.000000
# 3 -0.003005 -0.001537 0.010733 0.000000 0.000000 0.000000
# 4 0.000000 0.000000 0.000000 -2.491250 0.000000 0.000000
# 5 0.000000 0.000000 0.000000 0.000000 0.028596 0.000000
# 6 0.000000 0.000000 0.000000 0.000000 0.000000 0.052778
#
#
# Mechanical properties :
#
#
# Convention : Reuss Voigt Hill
#
# Bulk Modulus (GPa) = 37.72779 56.22024 46.97402
# Shear Modulus (GPa) = -2.12860 27.60401 12.73770
#
# Velocity S-wave (km/s) = -0.95441 3.43695 2.33471
# Velocity P-wave (km/s) = 3.86398 6.30940 5.23158
#
# Compressibility (1/GPa) = 0.02650566
#
# Stress axis : x y z
#
# Youngs Moduli (GPa) = 150.54346 45.62312 93.16767
#
# Poissons Ratio (x) = 0.08452 0.28000
# Poissons Ratio (y) = 0.27889 0.14317
# Poissons Ratio (z) = 0.45243 0.07011
#
# Static dielectric constant tensor:
#      x y z
#    x 1.906090 0.000000 0.000000 
#    y 0.000000 2.029980 0.000000 
#    z 0.000000 0.000000 1.917800 
# 
# From -- ./inp_files/51371.got.cif
#   From: 2010.05.17/outbox.cif.g08.bks.cpg/sg70_26_cif.got.tgz:51371.got - 2010.06.03 15:57:51.
