data_PCOD9515273
_publ_section_title
;
Structure prediction by ZEFSAII (Michael W. Deem and Ramdas Pophale) SiO2 
 PCOD9515273
Probable space group: F D D D
;
_chemical_formula_sum "Si O2"
_cell_formula_units_Z 192
_cell_length_a 11.086432
_cell_length_b 27.786930
_cell_length_c 29.056419
_cell_angle_alpha 90.000000
_cell_angle_beta 90.000000
_cell_angle_gamma 90.000000
_cell_volume 8951.059707
_symmetry_space_group_name_H-M "F D D D"
_symmetry_group_IT_number 70
_space_group.IT_coordinate_system_code '2'
_symmetry_cell_setting 'orthorhombic'
loop_
_space_group_symop_operation_xyz
x,y,z
1/4-x,1/4-y,z
x,1/4-y,1/4-z
1/4-x,y,1/4-z
-x,-y,-z
3/4+x,3/4+y,-z
-x,3/4+y,3/4+z
3/4+x,-y,3/4+z
x,1/2+y,1/2+z
1/4-x,3/4-y,1/2+z
x,3/4-y,3/4-z
1/4-x,1/2+y,3/4-z
-x,1/2-y,1/2-z
3/4+x,1/4+y,1/2-z
-x,1/4+y,1/4+z
3/4+x,1/2-y,1/4+z
1/2+x,y,1/2+z
3/4-x,1/4-y,1/2+z
1/2+x,1/4-y,3/4-z
3/4-x,y,3/4-z
1/2-x,-y,1/2-z
1/4+x,3/4+y,1/2-z
1/2-x,3/4+y,1/4+z
1/4+x,-y,1/4+z
1/2+x,1/2+y,z
3/4-x,3/4-y,z
1/2+x,3/4-y,1/4-z
3/4-x,1/2+y,1/4-z
1/2-x,1/2-y,-z
1/4+x,1/4+y,-z
1/2-x,1/4+y,3/4+z
1/4+x,1/2-y,3/4+z
loop_
_atom_site_type_symbol
_atom_site_label
_atom_site_fract_x
_atom_site_fract_y
_atom_site_fract_z
Si Si1 0.875000 0.375000 0.295868
Si Si2 0.035769 0.700636 0.953435
Si Si3 0.858790 0.128102 0.176724
Si Si4 0.800908 0.230165 0.549252
Si Si5 0.125000 0.257699 0.125000
Si Si6 0.966136 0.092851 0.481041
Si Si7 0.534284 0.043719 0.766537
O O1 0.751659 0.364868 0.322818
O O2 0.877142 0.420390 0.261416
O O3 0.178121 0.689670 0.959800
O O4 0.973768 0.713400 0.904814
O O5 0.981130 0.648233 0.966022
O O6 0.004353 0.746960 0.985766
O O7 0.812903 0.125000 0.125000
O O8 0.871576 0.181735 0.197255
O O9 0.785079 0.095840 0.212850
O O10 0.750000 0.250000 0.500000
O O11 0.699457 0.227415 0.587889
O O12 0.894393 0.273055 0.559881
O O13 0.834445 0.072711 0.470230
#
# Coordination Sequence:
#
# PCOD9515273 Si02
#       7
#    16  32  32  32  16  32  32
#     4  10  21  34  66 104 132 178 238 298 356 422
#     4  11  23  48  70  98 139 184 239 294 356 438
#     4  11  22  36  66 107 141 178 242 300 358 430
#     4  12  23  44  69 103 148 185 233 305 374 427
#     4  12  26  40  75 104 132 188 242 295 358 426
#     4  10  24  45  72  97 141 195 233 290 368 426
#     4  11  22  43  71  98 140 188 231 287 372 433
#
# _framework density 21.449974000000001
#
# number of rings (size 3 to 8) (size 9 to 14) (size 15 to 20)
#    0.000    1.000    5.000    0.750    9.333    0.000 
#    6.000    1.667    0.000    0.000    0.000    0.000 
#    0.000    0.000    0.000    0.000    0.000    0.000 
#
# Total GULP energy -267407.358037 kJ/mol
# GULP energy per Si atom -5570.986626 kJ/mol
# Density = 2.140115 g / cm^3
# Si number density = 21.449974 Si / 1000 Ang^3
#
#
#
# Elastic Constant Matrix: (Units=GPa)
#
#
# Indices 1 2 3 4 5 6 
#
# 1 68.9827 14.9927 38.7544 0.0000 0.0000 0.0000
# 2 14.9927 73.2352 4.3175 0.0000 0.0000 0.0000
# 3 38.7544 4.3175 66.4547 0.0000 0.0000 0.0000
# 4 0.0000 0.0000 0.0000 12.6614 0.0000 0.0000
# 5 0.0000 0.0000 0.0000 0.0000 30.9581 0.0000
# 6 0.0000 0.0000 0.0000 0.0000 0.0000 41.5330
#
#
#
# Elastic Compliance Matrix: (Units=1/GPa)
#
#
# Indices 1 2 3 4 5 6 
#
# 1 0.022599 -0.003864 -0.012928 0.000000 0.000000 0.000000
# 2 -0.003864 0.014368 0.001320 0.000000 0.000000 0.000000
# 3 -0.012928 0.001320 0.022501 0.000000 0.000000 0.000000
# 4 0.000000 0.000000 0.000000 0.078980 0.000000 0.000000
# 5 0.000000 0.000000 0.000000 0.000000 0.032302 0.000000
# 6 0.000000 0.000000 0.000000 0.000000 0.000000 0.024077
#
#
# Mechanical properties :
#
#
# Convention : Reuss Voigt Hill
#
# Bulk Modulus (GPa) = 35.05848 36.08910 35.57379
# Shear Modulus (GPa) = 21.25121 27.07101 24.16111
#
# Velocity S-wave (km/s) = 3.15101 3.55639 3.35982
# Velocity P-wave (km/s) = 5.44226 5.80734 5.62776
#
# Compressibility (1/GPa) = 0.02852377
#
# Stress axis : x y z
#
# Youngs Moduli (GPa) = 44.24907 69.59942 44.44163
#
# Poissons Ratio (x) = 0.26896 0.57455
# Poissons Ratio (y) = 0.17100 -0.05867
# Poissons Ratio (z) = 0.57206 -0.09188
#
# Static dielectric constant tensor:
#      x y z
#    x 1.905780 0.000000 0.000000 
#    y 0.000000 1.825790 0.000000 
#    z 0.000000 0.000000 1.792830 
# 
# From -- ./inp_files/57836.got.cif
#   From: 2010.05.17/outbox.cif.g08.bks.cpg/sg70_29_cif.got.tgz:57836.got - 2010.06.03 15:57:51.
