data_PCOD9515849
_publ_section_title
;
Structure prediction by ZEFSAII (Michael W. Deem and Ramdas Pophale) SiO2 
 PCOD9515849
Probable space group: F D D D
;
_chemical_formula_sum "Si O2"
_cell_formula_units_Z 136
_cell_length_a 26.268053
_cell_length_b 25.033482
_cell_length_c 9.858510
_cell_angle_alpha 90.000000
_cell_angle_beta 90.000000
_cell_angle_gamma 90.000000
_cell_volume 6482.767208
_symmetry_space_group_name_H-M "F D D D"
_symmetry_group_IT_number 70
_space_group.IT_coordinate_system_code '2'
_symmetry_cell_setting 'orthorhombic'
loop_
_space_group_symop_operation_xyz
x,y,z
1/4-x,1/4-y,z
x,1/4-y,1/4-z
1/4-x,y,1/4-z
-x,-y,-z
3/4+x,3/4+y,-z
-x,3/4+y,3/4+z
3/4+x,-y,3/4+z
x,1/2+y,1/2+z
1/4-x,3/4-y,1/2+z
x,3/4-y,3/4-z
1/4-x,1/2+y,3/4-z
-x,1/2-y,1/2-z
3/4+x,1/4+y,1/2-z
-x,1/4+y,1/4+z
3/4+x,1/2-y,1/4+z
1/2+x,y,1/2+z
3/4-x,1/4-y,1/2+z
1/2+x,1/4-y,3/4-z
3/4-x,y,3/4-z
1/2-x,-y,1/2-z
1/4+x,3/4+y,1/2-z
1/2-x,3/4+y,1/4+z
1/4+x,-y,1/4+z
1/2+x,1/2+y,z
3/4-x,3/4-y,z
1/2+x,3/4-y,1/4-z
3/4-x,1/2+y,1/4-z
1/2-x,1/2-y,-z
1/4+x,1/4+y,-z
1/2-x,1/4+y,3/4+z
1/4+x,1/2-y,3/4+z
loop_
_atom_site_type_symbol
_atom_site_label
_atom_site_fract_x
_atom_site_fract_y
_atom_site_fract_z
Si Si1 0.443697 0.397213 0.140566
Si Si2 0.375000 0.375000 0.375000
Si Si3 0.375000 0.215541 0.375000
Si Si4 0.391221 0.283079 0.101169
Si Si5 0.200841 0.873545 0.528889
Si Si6 0.875000 0.039139 0.875000
O O1 0.415065 0.407014 0.283641
O O2 0.424071 0.337301 0.107233
O O3 0.415334 0.444360 0.059696
O O4 0.503395 0.394087 0.126997
O O5 0.391004 0.249978 0.242048
O O6 0.421909 0.177068 0.421762
O O7 0.407747 0.245672 0.978727
O O8 0.221178 0.875000 0.375000
O O9 0.158860 0.827407 0.532457
#
# Coordination Sequence:
#
# PCOD9515849 Si02
#       6
#    32   8  16  32  32  16
#     4  10  23  40  71  92 135 161 227 270 332 387
#     4   8  18  44  56 100 120 168 198 274 310 394
#     4  11  23  45  68  88 146 173 218 269 339 388
#     4  10  22  41  65  96 127 177 210 278 330 391
#     4  11  25  43  63  99 130 177 223 277 320 399
#     4  11  24  41  63  94 136 171 221 271 332 386
#
# _framework density 20.978697
#
# number of rings (size 3 to 8) (size 9 to 14) (size 15 to 20)
#    0.000    1.882    2.353    2.824    3.294    6.588 
#    0.000    0.000    0.000    0.000    0.000    0.000 
#    0.000    0.000    0.000    0.000    0.000    0.000 
#
# Total GULP energy -189274.424701 kJ/mol
# GULP energy per Si atom -5566.894844 kJ/mol
# Density = 2.093095 g / cm^3
# Si number density = 20.978697 Si / 1000 Ang^3
#
#
#
# Elastic Constant Matrix: (Units=GPa)
#
#
# Indices 1 2 3 4 5 6 
#
# 1 63.9301 -7.1971 -5.8182 -0.0006 0.0004 0.0002
# 2 -7.1971 90.4726 25.8685 -0.0011 0.0008 0.0004
# 3 -5.8182 25.8685 90.4523 -0.0040 0.0029 0.0018
# 4 -0.0006 -0.0011 -0.0040 19.1946 0.0018 0.0010
# 5 0.0004 0.0008 0.0029 0.0018 24.7733 -0.0008
# 6 0.0002 0.0004 0.0018 0.0010 -0.0008 10.2881
#
#
#
# Elastic Compliance Matrix: (Units=1/GPa)
#
#
# Indices 1 2 3 4 5 6 
#
# 1 0.015826 0.001054 0.000717 0.000001 0.000000 0.000000
# 2 0.001054 0.012108 -0.003395 0.000000 0.000000 0.000000
# 3 0.000717 -0.003395 0.012073 0.000002 -0.000001 -0.000002
# 4 0.000001 0.000000 0.000002 0.052098 -0.000004 -0.000005
# 5 0.000000 0.000000 -0.000001 -0.000004 0.040366 0.000003
# 6 0.000000 0.000000 -0.000002 -0.000005 0.000003 0.097199
#
#
# Mechanical properties :
#
#
# Convention : Reuss Voigt Hill
#
# Bulk Modulus (GPa) = 27.20528 30.06240 28.63384
# Shear Modulus (GPa) = 20.39396 26.31800 23.35598
#
# Velocity S-wave (km/s) = 3.12128 3.54575 3.34026
# Velocity P-wave (km/s) = 5.09765 5.57891 5.34370
#
# Compressibility (1/GPa) = 0.03675758
#
# Stress axis : x y z
#
# Youngs Moduli (GPa) = 63.18733 82.59277 82.83259
#
# Poissons Ratio (x) = -0.08706 -0.05935
# Poissons Ratio (y) = -0.06660 0.28121
# Poissons Ratio (z) = -0.04528 0.28039
#
# Static dielectric constant tensor:
#      x y z
#    x 1.724290 0.000000 0.000000 
#    y 0.000000 1.806240 0.000000 
#    z 0.000000 0.000000 1.859900 
# 
# From -- ./inp_files/18981.got.cif
#   From: 2010.05.17/outbox.cif.g08.bks.cpg/sg70_10_cif.got.tgz:18981.got - 2010.06.03 15:57:51.
