data_PCOD9515721
_publ_section_title
;
Structure prediction by ZEFSAII (Michael W. Deem and Ramdas Pophale) SiO2 
 PCOD9515721
Probable space group: F D D D
;
_chemical_formula_sum "Si O2"
_cell_formula_units_Z 128
_cell_length_a 26.263395
_cell_length_b 26.582075
_cell_length_c 10.288601
_cell_angle_alpha 90.000000
_cell_angle_beta 90.000000
_cell_angle_gamma 90.000000
_cell_volume 7182.837970
_symmetry_space_group_name_H-M "F D D D"
_symmetry_group_IT_number 70
_space_group.IT_coordinate_system_code '2'
_symmetry_cell_setting 'orthorhombic'
loop_
_space_group_symop_operation_xyz
x,y,z
1/4-x,1/4-y,z
x,1/4-y,1/4-z
1/4-x,y,1/4-z
-x,-y,-z
3/4+x,3/4+y,-z
-x,3/4+y,3/4+z
3/4+x,-y,3/4+z
x,1/2+y,1/2+z
1/4-x,3/4-y,1/2+z
x,3/4-y,3/4-z
1/4-x,1/2+y,3/4-z
-x,1/2-y,1/2-z
3/4+x,1/4+y,1/2-z
-x,1/4+y,1/4+z
3/4+x,1/2-y,1/4+z
1/2+x,y,1/2+z
3/4-x,1/4-y,1/2+z
1/2+x,1/4-y,3/4-z
3/4-x,y,3/4-z
1/2-x,-y,1/2-z
1/4+x,3/4+y,1/2-z
1/2-x,3/4+y,1/4+z
1/4+x,-y,1/4+z
1/2+x,1/2+y,z
3/4-x,3/4-y,z
1/2+x,3/4-y,1/4-z
3/4-x,1/2+y,1/4-z
1/2-x,1/2-y,-z
1/4+x,1/4+y,-z
1/2-x,1/4+y,3/4+z
1/4+x,1/2-y,3/4+z
loop_
_atom_site_type_symbol
_atom_site_label
_atom_site_fract_x
_atom_site_fract_y
_atom_site_fract_z
Si Si1 0.032685 0.253544 0.450554
Si Si2 0.318034 0.211324 0.917123
Si Si3 0.985937 0.137444 0.972807
Si Si4 0.317720 0.354846 0.238180
O O1 0.055476 0.267226 0.309481
O O2 0.063997 0.205475 0.497683
O O3 0.974577 0.235141 0.427052
O O4 0.030842 0.304605 0.532964
O O5 0.375000 0.222491 0.875000
O O6 0.307256 0.151709 0.927537
O O7 0.997429 0.125000 0.125000
O O8 0.033891 0.124122 0.882223
O O9 0.296685 0.375000 0.375000
O O10 0.375000 0.375000 0.224024
#
# Coordination Sequence:
#
# PCOD9515721 Si02
#       4
#    32  32  32  32
#     4   9  19  36  57  82 118 148 189 243 282 339
#     4   9  18  34  57  89 116 143 190 242 288 340
#     4   9  19  38  59  86 115 143 192 244 279 340
#     4  10  22  38  53  82 119 150 192 234 281 355
#
# _framework density 17.820253999999998
#
# number of rings (size 3 to 8) (size 9 to 14) (size 15 to 20)
#    0.000    2.750    0.000    1.500    3.500    1.500 
#    4.500   15.000    0.000    0.000    0.000    0.000 
#    0.000    0.000    0.000    0.000    0.000    0.000 
#
# Total GULP energy -178339.797112 kJ/mol
# GULP energy per Si atom -5573.118660 kJ/mol
# Density = 1.777969 g / cm^3
# Si number density = 17.820254 Si / 1000 Ang^3
#
#
#
# Elastic Constant Matrix: (Units=GPa)
#
#
# Indices 1 2 3 4 5 6 
#
# 1 108.0251 31.4393 18.9322 0.0004 -0.0006 -0.0004
# 2 31.4393 165.9444 11.7555 0.0003 -0.0003 -0.0001
# 3 18.9322 11.7555 29.5044 0.0010 -0.0014 -0.0005
# 4 0.0004 0.0003 0.0010 15.1672 -0.0008 -0.0004
# 5 -0.0006 -0.0003 -0.0014 -0.0008 15.7720 0.0008
# 6 -0.0004 -0.0001 -0.0005 -0.0004 0.0008 10.1262
#
#
#
# Elastic Compliance Matrix: (Units=1/GPa)
#
#
# Indices 1 2 3 4 5 6 
#
# 1 0.010830 -0.001605 -0.006310 0.000000 0.000000 0.000000
# 2 -0.001605 0.006439 -0.001536 0.000000 0.000000 0.000000
# 3 -0.006310 -0.001536 0.038554 -0.000002 0.000003 0.000002
# 4 0.000000 0.000000 -0.000002 0.065932 0.000003 0.000003
# 5 0.000000 0.000000 0.000003 0.000003 0.063404 -0.000005
# 6 0.000000 0.000000 0.000002 0.000003 -0.000005 0.098754
#
#
# Mechanical properties :
#
#
# Convention : Reuss Voigt Hill
#
# Bulk Modulus (GPa) = 27.08406 47.52531 37.30468
# Shear Modulus (GPa) = 15.86696 24.30288 20.08492
#
# Velocity S-wave (km/s) = 2.98718 3.69694 3.36085
# Velocity P-wave (km/s) = 5.20856 6.70450 6.00331
#
# Compressibility (1/GPa) = 0.03692209
#
# Stress axis : x y z
#
# Youngs Moduli (GPa) = 92.33581 155.30488 25.93763
#
# Poissons Ratio (x) = 0.24924 0.16366
# Poissons Ratio (y) = 0.14818 0.03983
# Poissons Ratio (z) = 0.58263 0.23850
#
# Static dielectric constant tensor:
#      x y z
#    x 1.577090 0.000000 0.000000 
#    y 0.000000 1.638800 0.000000 
#    z 0.000000 0.000000 1.598460 
# 
# From -- ./inp_files/18803.got.cif
#   From: 2010.05.17/outbox.cif.g08.bks.cpg/sg70_10_cif.got.tgz:18803.got - 2010.06.03 15:57:51.
