data_PCOD9515974
_publ_section_title
;
Structure prediction by ZEFSAII (Michael W. Deem and Ramdas Pophale) SiO2 
 PCOD9515974
Probable space group: F D D D
;
_chemical_formula_sum "Si O2"
_cell_formula_units_Z 144
_cell_length_a 9.038965
_cell_length_b 30.843689
_cell_length_c 25.543605
_cell_angle_alpha 90.000000
_cell_angle_beta 90.000000
_cell_angle_gamma 90.000000
_cell_volume 7121.430003
_symmetry_space_group_name_H-M "F D D D"
_symmetry_group_IT_number 70
_space_group.IT_coordinate_system_code '2'
_symmetry_cell_setting 'orthorhombic'
loop_
_space_group_symop_operation_xyz
x,y,z
1/4-x,1/4-y,z
x,1/4-y,1/4-z
1/4-x,y,1/4-z
-x,-y,-z
3/4+x,3/4+y,-z
-x,3/4+y,3/4+z
3/4+x,-y,3/4+z
x,1/2+y,1/2+z
1/4-x,3/4-y,1/2+z
x,3/4-y,3/4-z
1/4-x,1/2+y,3/4-z
-x,1/2-y,1/2-z
3/4+x,1/4+y,1/2-z
-x,1/4+y,1/4+z
3/4+x,1/2-y,1/4+z
1/2+x,y,1/2+z
3/4-x,1/4-y,1/2+z
1/2+x,1/4-y,3/4-z
3/4-x,y,3/4-z
1/2-x,-y,1/2-z
1/4+x,3/4+y,1/2-z
1/2-x,3/4+y,1/4+z
1/4+x,-y,1/4+z
1/2+x,1/2+y,z
3/4-x,3/4-y,z
1/2+x,3/4-y,1/4-z
3/4-x,1/2+y,1/4-z
1/2-x,1/2-y,-z
1/4+x,1/4+y,-z
1/2-x,1/4+y,3/4+z
1/4+x,1/2-y,3/4+z
loop_
_atom_site_type_symbol
_atom_site_label
_atom_site_fract_x
_atom_site_fract_y
_atom_site_fract_z
Si Si1 0.125000 0.816296 0.625000
Si Si2 0.840814 0.516807 0.481953
Si Si3 0.125000 0.625000 0.829462
Si Si4 0.643307 0.175852 0.034663
Si Si5 0.375000 0.261422 0.375000
Si Si6 0.170509 0.945863 0.531786
O O1 0.147866 0.786929 0.675250
O O2 0.267640 0.845958 0.614648
O O3 0.764605 0.553432 0.518414
O O4 0.735034 0.475362 0.485671
O O5 0.000000 0.500000 0.500000
O O6 0.231051 0.654315 0.793762
O O7 0.625000 0.125000 0.045600
O O8 0.699600 0.204301 0.084383
O O9 0.755328 0.183468 0.985856
O O10 0.438588 0.226811 0.417157
#
# Coordination Sequence:
#
# PCOD9515974 Si02
#       6
#    16  32  16  32  16  32
#     4  12  27  42  70 100 134 180 226 290 342 415
#     4  11  24  43  65  98 139 180 223 282 348 416
#     4  12  26  42  70 103 142 171 244 292 346 412
#     4  11  25  42  71 100 138 180 232 284 346 409
#     4  10  22  44  66  99 130 182 229 276 339 425
#     4  11  25  43  69 100 137 180 227 289 349 412
#
# _framework density 20.220658
#
# number of rings (size 3 to 8) (size 9 to 14) (size 15 to 20)
#    0.000    0.889    2.222    5.000   10.889    0.000 
#    0.000    0.000    0.000    0.000    0.000    0.000 
#    0.000    0.000    0.000    0.000    0.000    0.000 
#
# Total GULP energy -200835.494724 kJ/mol
# GULP energy per Si atom -5578.763742 kJ/mol
# Density = 2.017464 g / cm^3
# Si number density = 20.220658 Si / 1000 Ang^3
#
#
#
# Elastic Constant Matrix: (Units=GPa)
#
#
# Indices 1 2 3 4 5 6 
#
# 1 105.6212 59.8701 42.0844 0.0000 0.0000 0.0000
# 2 59.8701 153.8822 64.1257 0.0000 0.0000 0.0000
# 3 42.0844 64.1257 119.0445 0.0000 0.0000 0.0000
# 4 0.0000 0.0000 0.0000 25.2720 0.0000 0.0000
# 5 0.0000 0.0000 0.0000 0.0000 21.3195 0.0000
# 6 0.0000 0.0000 0.0000 0.0000 0.0000 39.4962
#
#
#
# Elastic Compliance Matrix: (Units=1/GPa)
#
#
# Indices 1 2 3 4 5 6 
#
# 1 0.012635 -0.003938 -0.002345 0.000000 0.000000 0.000000
# 2 -0.003938 0.009607 -0.003783 0.000000 0.000000 0.000000
# 3 -0.002345 -0.003783 0.011267 0.000000 0.000000 0.000000
# 4 0.000000 0.000000 0.000000 0.039569 0.000000 0.000000
# 5 0.000000 0.000000 0.000000 0.000000 0.046905 0.000000
# 6 0.000000 0.000000 0.000000 0.000000 0.000000 0.025319
#
#
# Mechanical properties :
#
#
# Convention : Reuss Voigt Hill
#
# Bulk Modulus (GPa) = 74.75995 78.96757 76.86376
# Shear Modulus (GPa) = 29.43019 31.38208 30.40613
#
# Velocity S-wave (km/s) = 3.81918 3.94379 3.88198
# Velocity P-wave (km/s) = 7.51668 7.73794 7.62811
#
# Compressibility (1/GPa) = 0.01337615
#
# Stress axis : x y z
#
# Youngs Moduli (GPa) = 79.14750 104.08929 88.75560
#
# Poissons Ratio (x) = 0.40995 0.20814
# Poissons Ratio (y) = 0.31172 0.33574
# Poissons Ratio (z) = 0.18560 0.39374
#
# Static dielectric constant tensor:
#      x y z
#    x 1.752500 0.000000 0.000000 
#    y 0.000000 1.717960 0.000000 
#    z 0.000000 0.000000 1.737510 
# 
# From -- ./inp_files/63889.got.cif
#   From: 2010.05.17/outbox.cif.g08.bks.cpg/sg70_32_cif.got.tgz:63889.got - 2010.06.03 15:57:51.
