data_PCOD9515677
_publ_section_title
;
Structure prediction by ZEFSAII (Michael W. Deem and Ramdas Pophale) SiO2 
 PCOD9515677
Probable space group: F D D D
;
_chemical_formula_sum "Si O2"
_cell_formula_units_Z 208
_cell_length_a 24.964398
_cell_length_b 17.776825
_cell_length_c 22.256298
_cell_angle_alpha 90.000000
_cell_angle_beta 90.000000
_cell_angle_gamma 90.000000
_cell_volume 9877.072067
_symmetry_space_group_name_H-M "F D D D"
_symmetry_group_IT_number 70
_space_group.IT_coordinate_system_code '2'
_symmetry_cell_setting 'orthorhombic'
loop_
_space_group_symop_operation_xyz
x,y,z
1/4-x,1/4-y,z
x,1/4-y,1/4-z
1/4-x,y,1/4-z
-x,-y,-z
3/4+x,3/4+y,-z
-x,3/4+y,3/4+z
3/4+x,-y,3/4+z
x,1/2+y,1/2+z
1/4-x,3/4-y,1/2+z
x,3/4-y,3/4-z
1/4-x,1/2+y,3/4-z
-x,1/2-y,1/2-z
3/4+x,1/4+y,1/2-z
-x,1/4+y,1/4+z
3/4+x,1/2-y,1/4+z
1/2+x,y,1/2+z
3/4-x,1/4-y,1/2+z
1/2+x,1/4-y,3/4-z
3/4-x,y,3/4-z
1/2-x,-y,1/2-z
1/4+x,3/4+y,1/2-z
1/2-x,3/4+y,1/4+z
1/4+x,-y,1/4+z
1/2+x,1/2+y,z
3/4-x,3/4-y,z
1/2+x,3/4-y,1/4-z
3/4-x,1/2+y,1/4-z
1/2-x,1/2-y,-z
1/4+x,1/4+y,-z
1/2-x,1/4+y,3/4+z
1/4+x,1/2-y,3/4+z
loop_
_atom_site_type_symbol
_atom_site_label
_atom_site_fract_x
_atom_site_fract_y
_atom_site_fract_z
Si Si1 0.431079 0.102612 0.841011
Si Si2 0.072960 0.960272 0.356200
Si Si3 0.875000 0.375000 0.875000
Si Si4 0.042092 0.522462 0.559284
Si Si5 0.290377 0.795008 0.787664
Si Si6 0.786642 0.898123 0.168388
Si Si7 0.625000 0.125000 0.625000
Si Si8 0.184575 0.524933 0.825071
O O1 0.375000 0.092962 0.875000
O O2 0.438508 0.186358 0.816070
O O3 0.476492 0.092862 0.892719
O O4 0.441476 0.042570 0.787439
O O5 0.082440 0.875000 0.375000
O O6 0.126253 0.989408 0.323270
O O7 0.019416 0.958402 0.315506
O O8 0.062041 0.018557 0.411691
O O9 0.915645 0.421425 0.833329
O O10 0.086701 0.572639 0.587908
O O11 0.043499 0.547462 0.490151
O O12 0.984581 0.528983 0.592465
O O13 0.289726 0.850369 0.729932
O O14 0.815230 0.845237 0.119267
#
# Coordination Sequence:
#
# PCOD9515677 Si02
#       8
#    32  32   8  32  32  32   8  32
#     4  10  21  46  69 104 137 182 240 290 344 430
#     4  11  25  44  67 108 138 174 234 291 350 427
#     4  12  24  46  64  96 144 182 236 276 360 410
#     4  10  24  44  68 101 139 185 231 290 351 429
#     4  11  25  46  72  96 141 190 227 294 350 426
#     4  10  25  46  71 102 142 186 233 283 374 416
#     4  12  24  38  76 100 136 186 228 284 376 414
#     4  10  24  46  66  97 143 179 230 287 344 425
#
# _framework density 21.058872999999998
#
# number of rings (size 3 to 8) (size 9 to 14) (size 15 to 20)
#    0.000    1.538    2.308    0.462    7.538    1.846 
#   13.846    0.000    0.000    0.000    0.000    0.000 
#    0.000    0.000    0.000    0.000    0.000    0.000 
#
# Total GULP energy -290059.616017 kJ/mol
# GULP energy per Si atom -5578.069539 kJ/mol
# Density = 2.101094 g / cm^3
# Si number density = 21.058873 Si / 1000 Ang^3
#
#
#
# Elastic Constant Matrix: (Units=GPa)
#
#
# Indices 1 2 3 4 5 6 
#
# 1 165.9408 51.1187 26.8573 0.0000 0.0000 0.0000
# 2 51.1187 139.4289 56.7560 0.0000 0.0000 0.0000
# 3 26.8573 56.7560 77.1369 0.0000 0.0000 0.0000
# 4 0.0000 0.0000 0.0000 27.8909 0.0000 0.0000
# 5 0.0000 0.0000 0.0000 0.0000 20.8668 0.0000
# 6 0.0000 0.0000 0.0000 0.0000 0.0000 36.5015
#
#
#
# Elastic Compliance Matrix: (Units=1/GPa)
#
#
# Indices 1 2 3 4 5 6 
#
# 1 0.006825 -0.002191 -0.000764 0.000000 0.000000 0.000000
# 2 -0.002191 0.010942 -0.007288 0.000000 0.000000 0.000000
# 3 -0.000764 -0.007288 0.018592 0.000000 0.000000 0.000000
# 4 0.000000 0.000000 0.000000 0.035854 0.000000 0.000000
# 5 0.000000 0.000000 0.000000 0.000000 0.047923 0.000000
# 6 0.000000 0.000000 0.000000 0.000000 0.000000 0.027396
#
#
# Mechanical properties :
#
#
# Convention : Reuss Voigt Hill
#
# Bulk Modulus (GPa) = 63.00079 72.44119 67.72099
# Shear Modulus (GPa) = 28.84996 33.57014 31.21005
#
# Velocity S-wave (km/s) = 3.70532 3.99696 3.85390
# Velocity P-wave (km/s) = 6.94891 7.46826 7.21326
#
# Compressibility (1/GPa) = 0.01587282
#
# Stress axis : x y z
#
# Youngs Moduli (GPa) = 146.52202 91.38941 53.78520
#
# Poissons Ratio (x) = 0.20025 0.04109
# Poissons Ratio (y) = 0.32106 0.39199
# Poissons Ratio (z) = 0.11195 0.66606
#
# Static dielectric constant tensor:
#      x y z
#    x 1.791190 0.000000 0.000000 
#    y 0.000000 1.737910 0.000000 
#    z 0.000000 0.000000 1.780690 
# 
# From -- ./inp_files/54426.got.cif
#   From: 2010.05.17/outbox.cif.g08.bks.cpg/sg70_28_cif.got.tgz:54426.got - 2010.06.03 15:57:51.
