data_PCOD9515514
_publ_section_title
;
Structure prediction by ZEFSAII (Michael W. Deem and Ramdas Pophale) SiO2 
 PCOD9515514
Probable space group: F D D D
;
_chemical_formula_sum "Si O2"
_cell_formula_units_Z 192
_cell_length_a 25.517185
_cell_length_b 13.775811
_cell_length_c 25.757312
_cell_angle_alpha 90.000000
_cell_angle_beta 90.000000
_cell_angle_gamma 90.000000
_cell_volume 9054.208197
_symmetry_space_group_name_H-M "F D D D"
_symmetry_group_IT_number 70
_space_group.IT_coordinate_system_code '2'
_symmetry_cell_setting 'orthorhombic'
loop_
_space_group_symop_operation_xyz
x,y,z
1/4-x,1/4-y,z
x,1/4-y,1/4-z
1/4-x,y,1/4-z
-x,-y,-z
3/4+x,3/4+y,-z
-x,3/4+y,3/4+z
3/4+x,-y,3/4+z
x,1/2+y,1/2+z
1/4-x,3/4-y,1/2+z
x,3/4-y,3/4-z
1/4-x,1/2+y,3/4-z
-x,1/2-y,1/2-z
3/4+x,1/4+y,1/2-z
-x,1/4+y,1/4+z
3/4+x,1/2-y,1/4+z
1/2+x,y,1/2+z
3/4-x,1/4-y,1/2+z
1/2+x,1/4-y,3/4-z
3/4-x,y,3/4-z
1/2-x,-y,1/2-z
1/4+x,3/4+y,1/2-z
1/2-x,3/4+y,1/4+z
1/4+x,-y,1/4+z
1/2+x,1/2+y,z
3/4-x,3/4-y,z
1/2+x,3/4-y,1/4-z
3/4-x,1/2+y,1/4-z
1/2-x,1/2-y,-z
1/4+x,1/4+y,-z
1/2-x,1/4+y,3/4+z
1/4+x,1/2-y,3/4+z
loop_
_atom_site_type_symbol
_atom_site_label
_atom_site_fract_x
_atom_site_fract_y
_atom_site_fract_z
Si Si1 0.680924 0.501143 0.361022
Si Si2 0.867233 0.173970 0.702822
Si Si3 0.298644 0.705549 0.238188
Si Si4 0.125000 0.625000 0.125000
Si Si5 0.875000 0.375000 0.534955
Si Si6 0.204726 0.794738 0.644990
Si Si7 0.625000 0.625000 0.125000
Si Si8 0.939807 0.217400 0.939211
O O1 0.667265 0.409359 0.325083
O O2 0.642359 0.507393 0.410640
O O3 0.670662 0.588434 0.322376
O O4 0.739762 0.501338 0.379050
O O5 0.925634 0.131969 0.705595
O O6 0.844755 0.192180 0.759838
O O7 0.346210 0.785199 0.242411
O O8 0.288778 0.667194 0.296329
O O9 0.246985 0.750636 0.211526
O O10 0.088243 0.693834 0.090036
O O11 0.164947 0.704534 0.648314
O O12 0.191021 0.876876 0.601776
#
# Coordination Sequence:
#
# PCOD9515514 Si02
#       8
#    32  32  32   8  16  32   8  32
#     4  10  21  40  67  97 136 169 232 281 341 401
#     4  10  22  42  66 102 139 177 225 287 341 412
#     4  11  23  42  68  99 136 183 230 277 349 411
#     4  12  30  50  68 104 134 190 238 292 348 402
#     4  10  21  41  66  99 132 178 224 280 339 410
#     4  12  24  44  66 106 136 187 227 283 347 422
#     4  12  24  36  68  96 146 176 214 276 346 416
#     4  12  26  48  72  97 146 182 233 292 341 419
#
# _framework density 21.205608999999999
#
# number of rings (size 3 to 8) (size 9 to 14) (size 15 to 20)
#    0.000    1.000    3.333    4.000    0.000    5.333 
#    0.000    1.667    0.000    0.000    0.000    0.000 
#    0.000    0.000    0.000    0.000    0.000    0.000 
#
# Total GULP energy -267568.637809 kJ/mol
# GULP energy per Si atom -5574.346621 kJ/mol
# Density = 2.115734 g / cm^3
# Si number density = 21.205609 Si / 1000 Ang^3
#
#
#
# Elastic Constant Matrix: (Units=GPa)
#
#
# Indices 1 2 3 4 5 6 
#
# 1 100.5031 23.2024 32.7051 0.0000 0.0000 0.0000
# 2 23.2024 73.7748 57.2620 0.0000 0.0000 0.0000
# 3 32.7051 57.2620 153.7348 0.0000 0.0000 0.0000
# 4 0.0000 0.0000 0.0000 4.5182 0.0000 0.0000
# 5 0.0000 0.0000 0.0000 0.0000 4008.5386 0.0000
# 6 0.0000 0.0000 0.0000 0.0000 0.0000 33.7188
#
#
#
# Elastic Compliance Matrix: (Units=1/GPa)
#
#
# Indices 1 2 3 4 5 6 
#
# 1 0.010961 -0.002303 -0.001474 0.000000 0.000000 0.000000
# 2 -0.002303 0.019551 -0.006792 0.000000 0.000000 0.000000
# 3 -0.001474 -0.006792 0.009348 0.000000 0.000000 0.000000
# 4 0.000000 0.000000 0.000000 0.221327 0.000000 0.000000
# 5 0.000000 0.000000 0.000000 0.000000 0.000249 0.000000
# 6 0.000000 0.000000 0.000000 0.000000 0.000000 0.029657
#
#
# Mechanical properties :
#
#
# Convention : Reuss Voigt Hill
#
# Bulk Modulus (GPa) = 53.41426 61.59464 57.50445
# Shear Modulus (GPa) = 15.69989 823.67800 419.68894
#
# Velocity S-wave (km/s) = 2.72392 19.72987 14.08346
# Velocity P-wave (km/s) = 5.92760 23.41224 17.07732
#
# Compressibility (1/GPa) = 0.01872159
#
# Stress axis : x y z
#
# Youngs Moduli (GPa) = 91.22975 51.14786 106.97235
#
# Poissons Ratio (x) = 0.11781 0.15767
# Poissons Ratio (y) = 0.21013 0.72659
# Poissons Ratio (z) = 0.13447 0.34741
#
# Static dielectric constant tensor:
#      x y z
#    x 1.762280 0.000000 0.000000 
#    y 0.000000 1.733840 0.000000 
#    z 0.000000 0.000000 1.783380 
# 
# From -- ./inp_files/30058.got.cif
#   From: 2010.05.17/outbox.cif.g08.bks.cpg/sg70_16_cif.got.tgz:30058.got - 2010.06.03 15:57:51.
