data_PCOD9515796
_publ_section_title
;
Structure prediction by ZEFSAII (Michael W. Deem and Ramdas Pophale) SiO2 
 PCOD9515796
Probable space group: F D D D
;
_chemical_formula_sum "Si O2"
_cell_formula_units_Z 192
_cell_length_a 23.874557
_cell_length_b 11.654847
_cell_length_c 30.368197
_cell_angle_alpha 90.000000
_cell_angle_beta 90.000000
_cell_angle_gamma 90.000000
_cell_volume 8450.081673
_symmetry_space_group_name_H-M "F D D D"
_symmetry_group_IT_number 70
_space_group.IT_coordinate_system_code '2'
_symmetry_cell_setting 'orthorhombic'
loop_
_space_group_symop_operation_xyz
x,y,z
1/4-x,1/4-y,z
x,1/4-y,1/4-z
1/4-x,y,1/4-z
-x,-y,-z
3/4+x,3/4+y,-z
-x,3/4+y,3/4+z
3/4+x,-y,3/4+z
x,1/2+y,1/2+z
1/4-x,3/4-y,1/2+z
x,3/4-y,3/4-z
1/4-x,1/2+y,3/4-z
-x,1/2-y,1/2-z
3/4+x,1/4+y,1/2-z
-x,1/4+y,1/4+z
3/4+x,1/2-y,1/4+z
1/2+x,y,1/2+z
3/4-x,1/4-y,1/2+z
1/2+x,1/4-y,3/4-z
3/4-x,y,3/4-z
1/2-x,-y,1/2-z
1/4+x,3/4+y,1/2-z
1/2-x,3/4+y,1/4+z
1/4+x,-y,1/4+z
1/2+x,1/2+y,z
3/4-x,3/4-y,z
1/2+x,3/4-y,1/4-z
3/4-x,1/2+y,1/4-z
1/2-x,1/2-y,-z
1/4+x,1/4+y,-z
1/2-x,1/4+y,3/4+z
1/4+x,1/2-y,3/4+z
loop_
_atom_site_type_symbol
_atom_site_label
_atom_site_fract_x
_atom_site_fract_y
_atom_site_fract_z
Si Si1 0.055735 0.940133 0.559080
Si Si2 0.875000 0.686036 0.875000
Si Si3 0.970637 0.875000 0.875000
Si Si4 0.705044 0.247656 0.886581
Si Si5 0.985833 0.537742 0.714881
Si Si6 0.180498 0.196913 0.290719
Si Si7 0.395591 0.215614 0.221235
O O1 0.110639 0.890186 0.582720
O O2 0.073247 0.007094 0.515478
O O3 0.018103 0.003932 0.594987
O O4 0.016514 0.832891 0.545500
O O5 0.928859 0.767132 0.868672
O O6 0.005910 0.892542 0.830680
O O7 0.686092 0.375000 0.875000
O O8 0.698568 0.177640 0.841631
O O9 0.667261 0.217603 0.928439
O O10 0.920739 0.529917 0.725358
O O11 0.021000 0.585086 0.756289
O O12 0.125000 0.125000 0.281209
O O13 0.164798 0.331753 0.284017
#
# Coordination Sequence:
#
# PCOD9515796 Si02
#       7
#    32  16  16  32  32  32  32
#     4  10  22  40  64  88 121 164 209 258 310 376
#     4   9  20  36  61  90 124 158 201 248 316 371
#     4   9  20  36  62  90 132 160 194 247 310 388
#     4  10  23  43  63  85 124 161 211 264 313 361
#     4  10  23  38  63  94 124 164 206 246 318 376
#     4  10  24  39  61  94 128 161 203 258 313 373
#     4  10  23  41  62  89 125 162 212 260 306 373
#
# _framework density 22.721674
#
# number of rings (size 3 to 8) (size 9 to 14) (size 15 to 20)
#    0.000    2.167    0.000    0.500   15.167    2.000 
#    0.000    0.417    0.000    0.000    0.000    0.000 
#    0.000    0.000    0.000    0.000    0.000    0.000 
#
# Total GULP energy -268266.514410 kJ/mol
# GULP energy per Si atom -5588.885717 kJ/mol
# Density = 2.266996 g / cm^3
# Si number density = 22.721674 Si / 1000 Ang^3
#
#
#
# Elastic Constant Matrix: (Units=GPa)
#
#
# Indices 1 2 3 4 5 6 
#
# 1 125.4480 -2.1868 83.2639 0.0000 0.0000 0.0000
# 2 -2.1868 23.7287 25.8557 0.0000 0.0000 0.0000
# 3 83.2639 25.8557 174.7429 0.0000 0.0000 0.0000
# 4 0.0000 0.0000 0.0000 10.5363 0.0000 0.0000
# 5 0.0000 0.0000 0.0000 0.0000 39.7202 0.0000
# 6 0.0000 0.0000 0.0000 0.0000 0.0000 15.5005
#
#
#
# Elastic Compliance Matrix: (Units=1/GPa)
#
#
# Indices 1 2 3 4 5 6 
#
# 1 0.013298 0.009693 -0.007771 0.000000 0.000000 0.000000
# 2 0.009693 0.057309 -0.013098 0.000000 0.000000 0.000000
# 3 -0.007771 -0.013098 0.011363 0.000000 0.000000 0.000000
# 4 0.000000 0.000000 0.000000 0.094910 0.000000 0.000000
# 5 0.000000 0.000000 0.000000 0.000000 0.025176 0.000000
# 6 0.000000 0.000000 0.000000 0.000000 0.000000 0.064514
#
#
# Mechanical properties :
#
#
# Convention : Reuss Voigt Hill
#
# Bulk Modulus (GPa) = 16.77350 59.75389 38.26369
# Shear Modulus (GPa) = 16.19199 27.61719 21.90459
#
# Velocity S-wave (km/s) = 2.67240 3.49012 3.10827
# Velocity P-wave (km/s) = 4.11345 6.52660 5.45513
#
# Compressibility (1/GPa) = 0.05961786
#
# Stress axis : x y z
#
# Youngs Moduli (GPa) = 75.19957 17.44940 88.00219
#
# Poissons Ratio (x) = -0.16913 0.68383
# Poissons Ratio (y) = -0.72888 1.15266
# Poissons Ratio (z) = 0.58434 0.22855
#
# Static dielectric constant tensor:
#      x y z
#    x 1.806970 0.000000 0.000000 
#    y 0.000000 1.900240 0.000000 
#    z 0.000000 0.000000 1.895440 
# 
# From -- ./inp_files/58666.got.cif
#   From: 2010.05.17/outbox.cif.g08.bks.cpg/sg70_30_cif.got.tgz:58666.got - 2010.06.03 15:57:51.
