data_PCOD9515773
_publ_section_title
;
Structure prediction by ZEFSAII (Michael W. Deem and Ramdas Pophale) SiO2 
 PCOD9515773
Probable space group: F D D D
;
_chemical_formula_sum "Si O2"
_cell_formula_units_Z 160
_cell_length_a 13.408925
_cell_length_b 21.512631
_cell_length_c 24.530410
_cell_angle_alpha 90.000000
_cell_angle_beta 90.000000
_cell_angle_gamma 90.000000
_cell_volume 7076.072870
_symmetry_space_group_name_H-M "F D D D"
_symmetry_group_IT_number 70
_space_group.IT_coordinate_system_code '2'
_symmetry_cell_setting 'orthorhombic'
loop_
_space_group_symop_operation_xyz
x,y,z
1/4-x,1/4-y,z
x,1/4-y,1/4-z
1/4-x,y,1/4-z
-x,-y,-z
3/4+x,3/4+y,-z
-x,3/4+y,3/4+z
3/4+x,-y,3/4+z
x,1/2+y,1/2+z
1/4-x,3/4-y,1/2+z
x,3/4-y,3/4-z
1/4-x,1/2+y,3/4-z
-x,1/2-y,1/2-z
3/4+x,1/4+y,1/2-z
-x,1/4+y,1/4+z
3/4+x,1/2-y,1/4+z
1/2+x,y,1/2+z
3/4-x,1/4-y,1/2+z
1/2+x,1/4-y,3/4-z
3/4-x,y,3/4-z
1/2-x,-y,1/2-z
1/4+x,3/4+y,1/2-z
1/2-x,3/4+y,1/4+z
1/4+x,-y,1/4+z
1/2+x,1/2+y,z
3/4-x,3/4-y,z
1/2+x,3/4-y,1/4-z
3/4-x,1/2+y,1/4-z
1/2-x,1/2-y,-z
1/4+x,1/4+y,-z
1/2-x,1/4+y,3/4+z
1/4+x,1/2-y,3/4+z
loop_
_atom_site_type_symbol
_atom_site_label
_atom_site_fract_x
_atom_site_fract_y
_atom_site_fract_z
Si Si1 0.395670 0.474569 0.165169
Si Si2 0.322899 0.569753 0.322502
Si Si3 0.536770 0.535967 0.713663
Si Si4 0.902729 0.612343 0.049614
Si Si5 0.315113 0.738475 0.553414
O O1 0.293450 0.436146 0.164823
O O2 0.447498 0.457491 0.221717
O O3 0.362318 0.546735 0.172684
O O4 0.457661 0.474760 0.109168
O O5 0.375000 0.598078 0.375000
O O6 0.372351 0.501325 0.312324
O O7 0.345794 0.602038 0.265396
O O8 0.506455 0.602185 0.688714
O O9 0.433184 0.497551 0.706791
O O10 0.818789 0.663680 0.062597
O O11 0.250000 0.750000 0.500000
#
# Coordination Sequence:
#
# PCOD9515773 Si02
#       5
#    32  32  32  32  32
#     4  11  21  38  64  87 124 154 193 249 301 353
#     4  11  20  36  60  90 120 152 189 246 307 356
#     4   9  21  38  59  88 117 153 196 243 296 355
#     4   9  21  38  59  88 118 151 198 243 292 355
#     4  10  22  40  59  83 118 163 200 240 288 351
#
# _framework density 22.611412000000001
#
# number of rings (size 3 to 8) (size 9 to 14) (size 15 to 20)
#    1.200    0.800    2.000    3.000    0.000    5.600 
#    0.000    5.000    0.000    4.800    0.000    0.000 
#    0.000    0.000    0.000    0.000    0.000    0.000 
#
# Total GULP energy -223114.136584 kJ/mol
# GULP energy per Si atom -5577.853415 kJ/mol
# Density = 2.255995 g / cm^3
# Si number density = 22.611412 Si / 1000 Ang^3
#
#
#
# Elastic Constant Matrix: (Units=GPa)
#
#
# Indices 1 2 3 4 5 6 
#
# 1 21.5055 6.4982 15.7817 0.0000 0.0000 0.0000
# 2 6.4982 48.3474 -2.2517 0.0000 0.0000 0.0000
# 3 15.7817 -2.2517 167.6835 0.0000 0.0000 0.0000
# 4 0.0000 0.0000 0.0000 13.4407 0.0000 0.0000
# 5 0.0000 0.0000 0.0000 0.0000 30.1893 0.0000
# 6 0.0000 0.0000 0.0000 0.0000 0.0000 24.8319
#
#
#
# Elastic Compliance Matrix: (Units=1/GPa)
#
#
# Indices 1 2 3 4 5 6 
#
# 1 0.052388 -0.007276 -0.005028 0.000000 0.000000 0.000000
# 2 -0.007276 0.021707 0.000976 0.000000 0.000000 0.000000
# 3 -0.005028 0.000976 0.006450 0.000000 0.000000 0.000000
# 4 0.000000 0.000000 0.000000 0.074401 0.000000 0.000000
# 5 0.000000 0.000000 0.000000 0.000000 0.033124 0.000000
# 6 0.000000 0.000000 0.000000 0.000000 0.000000 0.040271
#
#
# Mechanical properties :
#
#
# Convention : Reuss Voigt Hill
#
# Bulk Modulus (GPa) = 17.27413 30.84367 24.05890
# Shear Modulus (GPa) = 18.49842 28.19290 23.34566
#
# Velocity S-wave (km/s) = 2.86335 3.53490 3.21670
# Velocity P-wave (km/s) = 4.31136 5.50736 4.94565
#
# Compressibility (1/GPa) = 0.05789002
#
# Stress axis : x y z
#
# Youngs Moduli (GPa) = 19.08825 46.06812 155.03955
#
# Poissons Ratio (x) = 0.33517 0.77958
# Poissons Ratio (y) = 0.13888 -0.15135
# Poissons Ratio (z) = 0.09598 -0.04497
#
# Static dielectric constant tensor:
#      x y z
#    x 1.829950 0.000000 0.000000 
#    y 0.000000 1.898900 0.000000 
#    z 0.000000 0.000000 1.852930 
# 
# From -- ./inp_files/57498.got.cif
#   From: 2010.05.17/outbox.cif.g08.bks.cpg/sg70_29_cif.got.tgz:57498.got - 2010.06.03 15:57:51.
