data_PCOD9515256
_publ_section_title
;
Structure prediction by ZEFSAII (Michael W. Deem and Ramdas Pophale) SiO2 
 PCOD9515256
Probable space group: F D D D
;
_chemical_formula_sum "Si O2"
_cell_formula_units_Z 192
_cell_length_a 25.941052
_cell_length_b 27.748037
_cell_length_c 13.277945
_cell_angle_alpha 90.000000
_cell_angle_beta 90.000000
_cell_angle_gamma 90.000000
_cell_volume 9557.641019
_symmetry_space_group_name_H-M "F D D D"
_symmetry_group_IT_number 70
_space_group.IT_coordinate_system_code '2'
_symmetry_cell_setting 'orthorhombic'
loop_
_space_group_symop_operation_xyz
x,y,z
1/4-x,1/4-y,z
x,1/4-y,1/4-z
1/4-x,y,1/4-z
-x,-y,-z
3/4+x,3/4+y,-z
-x,3/4+y,3/4+z
3/4+x,-y,3/4+z
x,1/2+y,1/2+z
1/4-x,3/4-y,1/2+z
x,3/4-y,3/4-z
1/4-x,1/2+y,3/4-z
-x,1/2-y,1/2-z
3/4+x,1/4+y,1/2-z
-x,1/4+y,1/4+z
3/4+x,1/2-y,1/4+z
1/2+x,y,1/2+z
3/4-x,1/4-y,1/2+z
1/2+x,1/4-y,3/4-z
3/4-x,y,3/4-z
1/2-x,-y,1/2-z
1/4+x,3/4+y,1/2-z
1/2-x,3/4+y,1/4+z
1/4+x,-y,1/4+z
1/2+x,1/2+y,z
3/4-x,3/4-y,z
1/2+x,3/4-y,1/4-z
3/4-x,1/2+y,1/4-z
1/2-x,1/2-y,-z
1/4+x,1/4+y,-z
1/2-x,1/4+y,3/4+z
1/4+x,1/2-y,3/4+z
loop_
_atom_site_type_symbol
_atom_site_label
_atom_site_fract_x
_atom_site_fract_y
_atom_site_fract_z
Si Si1 0.242621 0.199821 0.772268
Si Si2 0.953565 0.125000 0.625000
Si Si3 0.263769 0.694058 0.696096
Si Si4 0.625000 0.625000 0.899171
Si Si5 0.129152 0.052189 0.740360
Si Si6 0.728316 0.591878 0.268142
Si Si7 0.868177 0.193004 0.992589
O O1 0.263612 0.163372 0.689188
O O2 0.257828 0.255719 0.760794
O O3 0.180754 0.200548 0.769862
O O4 0.254841 0.181120 0.884204
O O5 0.918406 0.093989 0.549200
O O6 0.245698 0.646920 0.754765
O O7 0.244565 0.686666 0.581762
O O8 0.325822 0.693739 0.704359
O O9 0.653450 0.588656 0.820728
O O10 0.666639 0.653682 0.964948
O O11 0.125000 0.068671 0.625000
O O12 0.152024 0.998409 0.744044
O O13 0.875000 0.180370 0.875000
#
# Coordination Sequence:
#
# PCOD9515256 Si02
#       7
#    32  16  32  16  32  32  32
#     4  10  23  38  58  95 120 159 206 259 311 371
#     4  12  24  36  63  92 130 149 218 262 304 366
#     4  10  21  41  64  80 123 167 198 253 316 364
#     4  10  21  33  60  90 120 152 208 250 298 368
#     4   9  20  38  60  82 122 162 200 249 314 365
#     4  10  21  38  63  86 121 160 207 246 306 372
#     4  10  22  42  59  86 118 162 207 248 310 373
#
# _framework density 20.088640000000002
#
# number of rings (size 3 to 8) (size 9 to 14) (size 15 to 20)
#    0.000    2.000    0.000    2.750    7.000    1.333 
#    0.000    3.333    7.333    0.000    0.000    0.000 
#    0.000    0.000    0.000    0.000    0.000    0.000 
#
# Total GULP energy -267833.039785 kJ/mol
# GULP energy per Si atom -5579.854996 kJ/mol
# Density = 2.004292 g / cm^3
# Si number density = 20.088640 Si / 1000 Ang^3
#
#
#
# Elastic Constant Matrix: (Units=GPa)
#
#
# Indices 1 2 3 4 5 6 
#
# 1 32.1159 12.4480 16.7828 0.0000 0.0000 0.0000
# 2 12.4480 130.1864 32.6098 0.0000 0.0000 0.0000
# 3 16.7828 32.6098 68.5406 0.0000 0.0000 0.0000
# 4 0.0000 0.0000 0.0000 13.5546 0.0000 0.0000
# 5 0.0000 0.0000 0.0000 0.0000 24.5127 0.0000
# 6 0.0000 0.0000 0.0000 0.0000 0.0000 27.9801
#
#
#
# Elastic Compliance Matrix: (Units=1/GPa)
#
#
# Indices 1 2 3 4 5 6 
#
# 1 0.035929 -0.001398 -0.008132 0.000000 0.000000 0.000000
# 2 -0.001398 0.008775 -0.003832 0.000000 0.000000 0.000000
# 3 -0.008132 -0.003832 0.018405 0.000000 0.000000 0.000000
# 4 0.000000 0.000000 0.000000 0.073776 0.000000 0.000000
# 5 0.000000 0.000000 0.000000 0.000000 0.040795 0.000000
# 6 0.000000 0.000000 0.000000 0.000000 0.000000 0.035740
#
#
# Mechanical properties :
#
#
# Convention : Reuss Voigt Hill
#
# Bulk Modulus (GPa) = 27.48594 39.39156 33.43875
# Shear Modulus (GPa) = 19.81983 24.47629 22.14806
#
# Velocity S-wave (km/s) = 3.14446 3.49437 3.32402
# Velocity P-wave (km/s) = 5.18609 5.99435 5.60481
#
# Compressibility (1/GPa) = 0.03638224
#
# Stress axis : x y z
#
# Youngs Moduli (GPa) = 27.83276 113.96021 54.33448
#
# Poissons Ratio (x) = 0.15936 0.44186
# Poissons Ratio (y) = 0.03892 0.20824
# Poissons Ratio (z) = 0.22634 0.43675
#
# Static dielectric constant tensor:
#      x y z
#    x 1.725370 0.000000 0.000000 
#    y 0.000000 1.751680 0.000000 
#    z 0.000000 0.000000 1.727860 
# 
# From -- ./inp_files/21245.got.cif
#   From: 2010.05.17/outbox.cif.g08.bks.cpg/sg70_11_cif.got.tgz:21245.got - 2010.06.03 15:57:51.
