data_PCOD9515088
_publ_section_title
;
Structure prediction by ZEFSAII (Michael W. Deem and Ramdas Pophale) SiO2 
 PCOD9515088
Probable space group: F D D D
;
_chemical_formula_sum "Si O2"
_cell_formula_units_Z 120
_cell_length_a 25.144713
_cell_length_b 14.211534
_cell_length_c 16.441140
_cell_angle_alpha 90.000000
_cell_angle_beta 90.000000
_cell_angle_gamma 90.000000
_cell_volume 5875.158248
_symmetry_space_group_name_H-M "F D D D"
_symmetry_group_IT_number 70
_space_group.IT_coordinate_system_code '2'
_symmetry_cell_setting 'orthorhombic'
loop_
_space_group_symop_operation_xyz
x,y,z
1/4-x,1/4-y,z
x,1/4-y,1/4-z
1/4-x,y,1/4-z
-x,-y,-z
3/4+x,3/4+y,-z
-x,3/4+y,3/4+z
3/4+x,-y,3/4+z
x,1/2+y,1/2+z
1/4-x,3/4-y,1/2+z
x,3/4-y,3/4-z
1/4-x,1/2+y,3/4-z
-x,1/2-y,1/2-z
3/4+x,1/4+y,1/2-z
-x,1/4+y,1/4+z
3/4+x,1/2-y,1/4+z
1/2+x,y,1/2+z
3/4-x,1/4-y,1/2+z
1/2+x,1/4-y,3/4-z
3/4-x,y,3/4-z
1/2-x,-y,1/2-z
1/4+x,3/4+y,1/2-z
1/2-x,3/4+y,1/4+z
1/4+x,-y,1/4+z
1/2+x,1/2+y,z
3/4-x,3/4-y,z
1/2+x,3/4-y,1/4-z
3/4-x,1/2+y,1/4-z
1/2-x,1/2-y,-z
1/4+x,1/4+y,-z
1/2-x,1/4+y,3/4+z
1/4+x,1/2-y,3/4+z
loop_
_atom_site_type_symbol
_atom_site_label
_atom_site_fract_x
_atom_site_fract_y
_atom_site_fract_z
Si Si1 0.047667 0.375000 0.875000
Si Si2 0.711520 0.538373 0.513851
Si Si3 0.026702 0.341025 0.285966
Si Si4 0.886812 0.272001 0.142376
Si Si5 0.875000 0.375000 0.875000
O O1 0.084608 0.467374 0.889742
O O2 0.009691 0.352837 0.953045
O O3 0.729322 0.430508 0.521011
O O4 0.683132 0.542853 0.424987
O O5 0.662603 0.561011 0.571396
O O6 0.006711 0.375000 0.375000
O O7 0.087202 0.305970 0.298774
O O8 0.000000 0.250000 0.250000
O O9 0.875000 0.375000 0.178219
#
# Coordination Sequence:
#
# PCOD9515088 Si02
#       5
#    16  32  32  32   8
#     4  11  22  39  66  94 124 181 216 263 340 386
#     4  10  21  39  62  91 127 169 214 270 327 391
#     4  10  21  42  63  92 132 173 222 273 333 400
#     4  11  21  40  64  93 133 170 220 270 327 404
#     4  10  20  40  56  92 130 148 222 274 312 386
#
# _framework density 20.424980999999999
#
# number of rings (size 3 to 8) (size 9 to 14) (size 15 to 20)
#    0.000    1.600    5.333    1.600    0.000    1.067 
#    9.600    0.000    0.000    4.800    0.000    0.000 
#    0.000    0.000    0.000    0.000    0.000    0.000 
#
# Total GULP energy -167019.180630 kJ/mol
# GULP energy per Si atom -5567.306021 kJ/mol
# Density = 2.037849 g / cm^3
# Si number density = 20.424981 Si / 1000 Ang^3
#
#
#
# Elastic Constant Matrix: (Units=GPa)
#
#
# Indices 1 2 3 4 5 6 
#
# 1 101.0108 38.8603 20.6260 0.0000 0.0000 0.0000
# 2 38.8603 124.7950 27.8508 0.0000 0.0000 0.0000
# 3 20.6260 27.8508 35.5333 0.0000 0.0000 0.0000
# 4 0.0000 0.0000 0.0000 38.0656 0.0000 0.0000
# 5 0.0000 0.0000 0.0000 0.0000 -56.9865 0.0000
# 6 0.0000 0.0000 0.0000 0.0000 0.0000 37.4492
#
#
#
# Elastic Compliance Matrix: (Units=1/GPa)
#
#
# Indices 1 2 3 4 5 6 
#
# 1 0.011900 -0.002623 -0.004852 0.000000 0.000000 0.000000
# 2 -0.002623 0.010290 -0.006543 0.000000 0.000000 0.000000
# 3 -0.004852 -0.006543 0.036087 0.000000 0.000000 0.000000
# 4 0.000000 0.000000 0.000000 0.026270 0.000000 0.000000
# 5 0.000000 0.000000 0.000000 0.000000 -0.017548 0.000000
# 6 0.000000 0.000000 0.000000 0.000000 0.000000 0.026703
#
#
# Mechanical properties :
#
#
# Convention : Reuss Voigt Hill
#
# Bulk Modulus (GPa) = 33.06630 48.44590 40.75610
# Shear Modulus (GPa) = 37.93128 15.30579 26.61854
#
# Velocity S-wave (km/s) = 4.31409 2.74043 3.61395
# Velocity P-wave (km/s) = 6.40620 5.81237 6.11650
#
# Compressibility (1/GPa) = 0.03024228
#
# Stress axis : x y z
#
# Youngs Moduli (GPa) = 84.03635 97.18161 27.71069
#
# Poissons Ratio (x) = 0.25488 0.13444
# Poissons Ratio (y) = 0.22040 0.18131
# Poissons Ratio (z) = 0.40772 0.63585
#
# Static dielectric constant tensor:
#      x y z
#    x 1.777000 0.000000 0.000000 
#    y 0.000000 1.765670 0.000000 
#    z 0.000000 0.000000 1.820350 
# 
# From -- ./inp_files/26259.got.cif
#   From: 2010.05.17/outbox.cif.g08.bks.cpg/sg70_14_cif.got.tgz:26259.got - 2010.06.03 15:57:51.
