data_PCOD9515665
_publ_section_title
;
Structure prediction by ZEFSAII (Michael W. Deem and Ramdas Pophale) SiO2 
 PCOD9515665
Probable space group: F D D D
;
_chemical_formula_sum "Si O2"
_cell_formula_units_Z 176
_cell_length_a 20.152223
_cell_length_b 24.078167
_cell_length_c 14.790332
_cell_angle_alpha 90.000000
_cell_angle_beta 90.000000
_cell_angle_gamma 90.000000
_cell_volume 7176.691954
_symmetry_space_group_name_H-M "F D D D"
_symmetry_group_IT_number 70
_space_group.IT_coordinate_system_code '2'
_symmetry_cell_setting 'orthorhombic'
loop_
_space_group_symop_operation_xyz
x,y,z
1/4-x,1/4-y,z
x,1/4-y,1/4-z
1/4-x,y,1/4-z
-x,-y,-z
3/4+x,3/4+y,-z
-x,3/4+y,3/4+z
3/4+x,-y,3/4+z
x,1/2+y,1/2+z
1/4-x,3/4-y,1/2+z
x,3/4-y,3/4-z
1/4-x,1/2+y,3/4-z
-x,1/2-y,1/2-z
3/4+x,1/4+y,1/2-z
-x,1/4+y,1/4+z
3/4+x,1/2-y,1/4+z
1/2+x,y,1/2+z
3/4-x,1/4-y,1/2+z
1/2+x,1/4-y,3/4-z
3/4-x,y,3/4-z
1/2-x,-y,1/2-z
1/4+x,3/4+y,1/2-z
1/2-x,3/4+y,1/4+z
1/4+x,-y,1/4+z
1/2+x,1/2+y,z
3/4-x,3/4-y,z
1/2+x,3/4-y,1/4-z
3/4-x,1/2+y,1/4-z
1/2-x,1/2-y,-z
1/4+x,1/4+y,-z
1/2-x,1/4+y,3/4+z
1/4+x,1/2-y,3/4+z
loop_
_atom_site_type_symbol
_atom_site_label
_atom_site_fract_x
_atom_site_fract_y
_atom_site_fract_z
Si Si1 0.481193 0.362343 0.183351
Si Si2 0.427418 0.182627 0.572313
Si Si3 0.229902 0.125000 0.625000
Si Si4 0.125000 0.125000 0.285667
Si Si5 0.801788 0.011332 0.126557
Si Si6 0.930955 0.772634 0.932349
Si Si7 0.125000 0.896582 0.625000
O O1 0.449205 0.385144 0.276496
O O2 0.438253 0.384041 0.099477
O O3 0.475055 0.294881 0.171276
O O4 0.558398 0.378479 0.170684
O O5 0.411796 0.125000 0.625000
O O6 0.378963 0.231590 0.603067
O O7 0.501587 0.199538 0.602948
O O8 0.410468 0.175344 0.464535
O O9 0.269962 0.069857 0.652290
O O10 0.112263 0.072518 0.224096
O O11 0.792837 0.008923 0.019674
O O12 0.875000 0.740952 0.875000
#
# Coordination Sequence:
#
# PCOD9515665 Si02
#       7
#    32  32  16  16  32  32  16
#     4  11  25  44  74 106 147 191 246 315 370 461
#     4  12  24  45  76 109 143 200 245 301 382 460
#     4  12  24  45  70 102 145 194 244 302 380 457
#     4  10  21  45  66 106 140 180 244 293 375 440
#     4  11  24  46  67 109 144 185 259 303 372 460
#     4  11  25  46  73 105 148 193 242 317 375 454
#     4  12  22  44  74 107 144 200 234 305 382 444
#
# _framework density 24.523833
#
# number of rings (size 3 to 8) (size 9 to 14) (size 15 to 20)
#    0.000    0.727    6.364    1.909    0.000    4.000 
#    6.545    0.000    0.000    0.000    0.000    0.000 
#    0.000    0.000    0.000    0.000    0.000    0.000 
#
# Total GULP energy -245449.830493 kJ/mol
# GULP energy per Si atom -5578.405238 kJ/mol
# Density = 2.446802 g / cm^3
# Si number density = 24.523833 Si / 1000 Ang^3
#
#
#
# Elastic Constant Matrix: (Units=GPa)
#
#
# Indices 1 2 3 4 5 6 
#
# 1 155.1417 29.8125 29.6927 0.0000 0.0000 0.0000
# 2 29.8125 96.7883 19.9476 0.0000 0.0000 0.0000
# 3 29.6927 19.9476 95.5928 0.0000 0.0000 0.0000
# 4 0.0000 0.0000 0.0000 27.6028 0.0000 0.0000
# 5 0.0000 0.0000 0.0000 0.0000 39.5202 0.0000
# 6 0.0000 0.0000 0.0000 0.0000 0.0000 29.8609
#
#
#
# Elastic Compliance Matrix: (Units=1/GPa)
#
#
# Indices 1 2 3 4 5 6 
#
# 1 0.007148 -0.001823 -0.001840 0.000000 0.000000 0.000000
# 2 -0.001823 0.011261 -0.001784 0.000000 0.000000 0.000000
# 3 -0.001840 -0.001784 0.011405 0.000000 0.000000 0.000000
# 4 0.000000 0.000000 0.000000 0.036228 0.000000 0.000000
# 5 0.000000 0.000000 0.000000 0.000000 0.025304 0.000000
# 6 0.000000 0.000000 0.000000 0.000000 0.000000 0.033489
#
#
# Mechanical properties :
#
#
# Convention : Reuss Voigt Hill
#
# Bulk Modulus (GPa) = 52.85075 56.26983 54.56029
# Shear Modulus (GPa) = 35.20293 37.26811 36.23552
#
# Velocity S-wave (km/s) = 3.79285 3.90252 3.84808
# Velocity P-wave (km/s) = 6.38581 6.58035 6.48381
#
# Compressibility (1/GPa) = 0.01892121
#
# Stress axis : x y z
#
# Youngs Moduli (GPa) = 139.89728 88.80352 87.68247
#
# Poissons Ratio (x) = 0.16185 0.16134
# Poissons Ratio (y) = 0.25497 0.15640
# Poissons Ratio (z) = 0.25741 0.15840
#
# Static dielectric constant tensor:
#      x y z
#    x 1.975670 0.000000 0.000000 
#    y 0.000000 1.951150 0.000000 
#    z 0.000000 0.000000 2.036600 
# 
# From -- ./inp_files/28986.got.cif
#   From: 2010.05.17/outbox.cif.g08.bks.cpg/sg70_15_cif.got.tgz:28986.got - 2010.06.03 15:57:51.
