data_PCOD9515447
_publ_section_title
;
Structure prediction by ZEFSAII (Michael W. Deem and Ramdas Pophale) SiO2 
 PCOD9515447
Probable space group: F D D D
;
_chemical_formula_sum "Si O2"
_cell_formula_units_Z 96
_cell_length_a 15.951278
_cell_length_b 8.736494
_cell_length_c 27.164324
_cell_angle_alpha 90.000000
_cell_angle_beta 90.000000
_cell_angle_gamma 90.000000
_cell_volume 3785.572507
_symmetry_space_group_name_H-M "F D D D"
_symmetry_group_IT_number 70
_space_group.IT_coordinate_system_code '2'
_symmetry_cell_setting 'orthorhombic'
loop_
_space_group_symop_operation_xyz
x,y,z
1/4-x,1/4-y,z
x,1/4-y,1/4-z
1/4-x,y,1/4-z
-x,-y,-z
3/4+x,3/4+y,-z
-x,3/4+y,3/4+z
3/4+x,-y,3/4+z
x,1/2+y,1/2+z
1/4-x,3/4-y,1/2+z
x,3/4-y,3/4-z
1/4-x,1/2+y,3/4-z
-x,1/2-y,1/2-z
3/4+x,1/4+y,1/2-z
-x,1/4+y,1/4+z
3/4+x,1/2-y,1/4+z
1/2+x,y,1/2+z
3/4-x,1/4-y,1/2+z
1/2+x,1/4-y,3/4-z
3/4-x,y,3/4-z
1/2-x,-y,1/2-z
1/4+x,3/4+y,1/2-z
1/2-x,3/4+y,1/4+z
1/4+x,-y,1/4+z
1/2+x,1/2+y,z
3/4-x,3/4-y,z
1/2+x,3/4-y,1/4-z
3/4-x,1/2+y,1/4-z
1/2-x,1/2-y,-z
1/4+x,1/4+y,-z
1/2-x,1/4+y,3/4+z
1/4+x,1/2-y,3/4+z
loop_
_atom_site_type_symbol
_atom_site_label
_atom_site_fract_x
_atom_site_fract_y
_atom_site_fract_z
Si Si1 0.544438 0.899619 0.270744
Si Si2 0.839923 0.625000 0.125000
Si Si3 0.125000 0.125000 0.693300
Si Si4 0.706768 0.904885 0.595719
O O1 0.500000 0.750000 0.250000
O O2 0.612295 0.882799 0.316346
O O3 0.582487 0.997923 0.227064
O O4 0.471795 0.002963 0.295837
O O5 0.784927 0.466637 0.126990
O O6 0.056659 0.226533 0.664196
O O7 0.625000 0.953874 0.625000
#
# Coordination Sequence:
#
# PCOD9515447 Si02
#       4
#    32  16  16  32
#     4  10  23  39  64  96 131 171 217 277 336 396
#     4   8  21  38  62  88 128 166 217 260 328 408
#     4  12  23  38  68 100 128 168 224 285 336 396
#     4  10  21  39  66  90 126 168 224 267 321 411
#
# _framework density 25.359441
#
# number of rings (size 3 to 8) (size 9 to 14) (size 15 to 20)
#    2.000    0.000    0.000    4.000    4.667    0.000 
#    0.000    3.333    7.333    0.000    0.000    0.000 
#    0.000    0.000    0.000    0.000    0.000    0.000 
#
# Total GULP energy -133618.995777 kJ/mol
# GULP energy per Si atom -5567.458157 kJ/mol
# Density = 2.530172 g / cm^3
# Si number density = 25.359441 Si / 1000 Ang^3
#
#
#
# Elastic Constant Matrix: (Units=GPa)
#
#
# Indices 1 2 3 4 5 6 
#
# 1 52.7058 37.3647 12.7700 0.0000 0.0000 0.0000
# 2 37.3647 192.8301 73.0352 0.0000 0.0000 0.0000
# 3 12.7700 73.0352 88.6783 0.0000 0.0000 0.0000
# 4 0.0000 0.0000 0.0000 48.0389 0.0000 0.0000
# 5 0.0000 0.0000 0.0000 0.0000 8.9904 0.0000
# 6 0.0000 0.0000 0.0000 0.0000 0.0000 21.2464
#
#
#
# Elastic Compliance Matrix: (Units=1/GPa)
#
#
# Indices 1 2 3 4 5 6 
#
# 1 0.022010 -0.004454 0.000499 0.000000 0.000000 0.000000
# 2 -0.004454 0.008438 -0.006308 0.000000 0.000000 0.000000
# 3 0.000499 -0.006308 0.016400 0.000000 0.000000 0.000000
# 4 0.000000 0.000000 0.000000 0.020816 0.000000 0.000000
# 5 0.000000 0.000000 0.000000 0.000000 0.111230 0.000000
# 6 0.000000 0.000000 0.000000 0.000000 0.000000 0.047067
#
#
# Mechanical properties :
#
#
# Convention : Reuss Voigt Hill
#
# Bulk Modulus (GPa) = 37.99171 64.50599 51.24885
# Shear Modulus (GPa) = 19.58768 29.72474 24.65621
#
# Velocity S-wave (km/s) = 2.78223 3.42736 3.12151
# Velocity P-wave (km/s) = 5.03337 6.41516 5.76581
#
# Compressibility (1/GPa) = 0.02632153
#
# Stress axis : x y z
#
# Youngs Moduli (GPa) = 45.43435 118.50843 60.97384
#
# Poissons Ratio (x) = 0.52780 -0.03040
# Poissons Ratio (y) = 0.20235 0.38464
# Poissons Ratio (z) = -0.02265 0.74759
#
# Static dielectric constant tensor:
#      x y z
#    x 2.173810 0.000000 0.000000 
#    y 0.000000 1.935760 0.000000 
#    z 0.000000 0.000000 2.084190 
# 
# From -- ./inp_files/41131.got.cif
#   From: 2010.05.17/outbox.cif.g08.bks.cpg/sg70_21_cif.got.tgz:41131.got - 2010.06.03 15:57:51.
