data_PCOD9515967
_publ_section_title
;
Structure prediction by ZEFSAII (Michael W. Deem and Ramdas Pophale) SiO2 
 PCOD9515967
Probable space group: F D D D
;
_chemical_formula_sum "Si O2"
_cell_formula_units_Z 208
_cell_length_a 19.950546
_cell_length_b 18.288712
_cell_length_c 28.243263
_cell_angle_alpha 90.000000
_cell_angle_beta 90.000000
_cell_angle_gamma 90.000000
_cell_volume 10305.113441
_symmetry_space_group_name_H-M "F D D D"
_symmetry_group_IT_number 70
_space_group.IT_coordinate_system_code '2'
_symmetry_cell_setting 'orthorhombic'
loop_
_space_group_symop_operation_xyz
x,y,z
1/4-x,1/4-y,z
x,1/4-y,1/4-z
1/4-x,y,1/4-z
-x,-y,-z
3/4+x,3/4+y,-z
-x,3/4+y,3/4+z
3/4+x,-y,3/4+z
x,1/2+y,1/2+z
1/4-x,3/4-y,1/2+z
x,3/4-y,3/4-z
1/4-x,1/2+y,3/4-z
-x,1/2-y,1/2-z
3/4+x,1/4+y,1/2-z
-x,1/4+y,1/4+z
3/4+x,1/2-y,1/4+z
1/2+x,y,1/2+z
3/4-x,1/4-y,1/2+z
1/2+x,1/4-y,3/4-z
3/4-x,y,3/4-z
1/2-x,-y,1/2-z
1/4+x,3/4+y,1/2-z
1/2-x,3/4+y,1/4+z
1/4+x,-y,1/4+z
1/2+x,1/2+y,z
3/4-x,3/4-y,z
1/2+x,3/4-y,1/4-z
3/4-x,1/2+y,1/4-z
1/2-x,1/2-y,-z
1/4+x,1/4+y,-z
1/2-x,1/4+y,3/4+z
1/4+x,1/2-y,3/4+z
loop_
_atom_site_type_symbol
_atom_site_label
_atom_site_fract_x
_atom_site_fract_y
_atom_site_fract_z
Si Si1 0.468067 0.154453 0.876145
Si Si2 0.375000 0.875000 0.875000
Si Si3 0.573540 0.061865 0.300801
Si Si4 0.729253 0.242103 0.140390
Si Si5 0.105767 0.757587 0.687289
Si Si6 0.552193 0.286714 0.481687
Si Si7 0.625000 0.125000 0.625000
Si Si8 0.594161 0.328972 0.329694
O O1 0.540171 0.163181 0.899573
O O2 0.456084 0.189207 0.824387
O O3 0.417767 0.200977 0.909961
O O4 0.451009 0.069270 0.876023
O O5 0.326666 0.818709 0.847380
O O6 0.625000 0.125000 0.285232
O O7 0.513204 0.050135 0.263981
O O8 0.609705 0.985438 0.310846
O O9 0.776495 0.255789 0.185509
O O10 0.775725 0.206986 0.099746
O O11 0.137029 0.750635 0.739025
O O12 0.089610 0.681200 0.661157
O O13 0.577880 0.364054 0.461525
O O14 0.621875 0.375000 0.375000
#
# Coordination Sequence:
#
# PCOD9515967 Si02
#       8
#    32   8  32  32  32  32   8  32
#     4   9  19  38  59  86 115 167 207 247 313 377
#     4  12  20  34  60  94 116 188 208 234 340 382
#     4  11  22  38  61  91 123 166 207 252 321 374
#     4  11  21  38  60  86 131 167 211 255 308 389
#     4   9  19  39  62  90 120 154 212 264 306 371
#     4  10  23  38  58  96 125 161 211 262 314 363
#     4   8  16  38  68  82 116 152 196 256 316 376
#     4  10  22  44  58  84 133 169 204 263 314 381
#
# _framework density 20.184153999999999
#
# number of rings (size 3 to 8) (size 9 to 14) (size 15 to 20)
#    0.000    2.154    3.846    0.923    3.231    0.615 
#   12.462    3.077    0.000    7.385    0.000    0.000 
#    0.000    0.000    0.000    0.000    0.000    0.000 
#
# Total GULP energy -289567.655675 kJ/mol
# GULP energy per Si atom -5568.608763 kJ/mol
# Density = 2.013821 g / cm^3
# Si number density = 20.184154 Si / 1000 Ang^3
#
#
#
# Elastic Constant Matrix: (Units=GPa)
#
#
# Indices 1 2 3 4 5 6 
#
# 1 44.3651 19.6282 25.1469 0.0000 0.0000 0.0000
# 2 19.6282 121.5594 25.6373 0.0000 0.0000 0.0000
# 3 25.1469 25.6373 52.3135 0.0000 0.0000 0.0000
# 4 0.0000 0.0000 0.0000 4.4107 0.0000 0.0000
# 5 0.0000 0.0000 0.0000 0.0000 28.1042 0.0000
# 6 0.0000 0.0000 0.0000 0.0000 0.0000 13.1402
#
#
#
# Elastic Compliance Matrix: (Units=1/GPa)
#
#
# Indices 1 2 3 4 5 6 
#
# 1 0.031459 -0.002108 -0.014089 0.000000 0.000000 0.000000
# 2 -0.002108 0.009316 -0.003552 0.000000 0.000000 0.000000
# 3 -0.014089 -0.003552 0.027629 0.000000 0.000000 0.000000
# 4 0.000000 0.000000 0.000000 0.226722 0.000000 0.000000
# 5 0.000000 0.000000 0.000000 0.000000 0.035582 0.000000
# 6 0.000000 0.000000 0.000000 0.000000 0.000000 0.076102
#
#
# Mechanical properties :
#
#
# Convention : Reuss Voigt Hill
#
# Bulk Modulus (GPa) = 34.59598 39.89587 37.24593
# Shear Modulus (GPa) = 10.96627 18.98607 14.97617
#
# Velocity S-wave (km/s) = 2.33343 3.07032 2.72688
# Velocity P-wave (km/s) = 4.94340 5.69016 5.32988
#
# Compressibility (1/GPa) = 0.02890509
#
# Stress axis : x y z
#
# Youngs Moduli (GPa) = 31.78762 107.34228 36.19422
#
# Poissons Ratio (x) = 0.22631 0.50994
# Poissons Ratio (y) = 0.06702 0.12856
# Poissons Ratio (z) = 0.44785 0.38129
#
# Static dielectric constant tensor:
#      x y z
#    x 1.771400 0.000000 0.000000 
#    y 0.000000 1.712220 0.000000 
#    z 0.000000 0.000000 1.788290 
# 
# From -- ./inp_files/61300.got.cif
#   From: 2010.05.17/outbox.cif.g08.bks.cpg/sg70_31_cif.got.tgz:61300.got - 2010.06.03 15:57:51.
