data_PCOD9515365
_publ_section_title
;
Structure prediction by ZEFSAII (Michael W. Deem and Ramdas Pophale) SiO2 
 PCOD9515365
Probable space group: F D D D
;
_chemical_formula_sum "Si O2"
_cell_formula_units_Z 168
_cell_length_a 19.474061
_cell_length_b 14.407176
_cell_length_c 28.892249
_cell_angle_alpha 90.000000
_cell_angle_beta 90.000000
_cell_angle_gamma 90.000000
_cell_volume 8106.189212
_symmetry_space_group_name_H-M "F D D D"
_symmetry_group_IT_number 70
_space_group.IT_coordinate_system_code '2'
_symmetry_cell_setting 'orthorhombic'
loop_
_space_group_symop_operation_xyz
x,y,z
1/4-x,1/4-y,z
x,1/4-y,1/4-z
1/4-x,y,1/4-z
-x,-y,-z
3/4+x,3/4+y,-z
-x,3/4+y,3/4+z
3/4+x,-y,3/4+z
x,1/2+y,1/2+z
1/4-x,3/4-y,1/2+z
x,3/4-y,3/4-z
1/4-x,1/2+y,3/4-z
-x,1/2-y,1/2-z
3/4+x,1/4+y,1/2-z
-x,1/4+y,1/4+z
3/4+x,1/2-y,1/4+z
1/2+x,y,1/2+z
3/4-x,1/4-y,1/2+z
1/2+x,1/4-y,3/4-z
3/4-x,y,3/4-z
1/2-x,-y,1/2-z
1/4+x,3/4+y,1/2-z
1/2-x,3/4+y,1/4+z
1/4+x,-y,1/4+z
1/2+x,1/2+y,z
3/4-x,3/4-y,z
1/2+x,3/4-y,1/4-z
3/4-x,1/2+y,1/4-z
1/2-x,1/2-y,-z
1/4+x,1/4+y,-z
1/2-x,1/4+y,3/4+z
1/4+x,1/2-y,3/4+z
loop_
_atom_site_type_symbol
_atom_site_label
_atom_site_fract_x
_atom_site_fract_y
_atom_site_fract_z
Si Si1 0.372903 0.086171 0.056525
Si Si2 0.125000 0.125000 0.125000
Si Si3 0.697158 0.812453 0.530167
Si Si4 0.753275 0.270489 0.884774
Si Si5 0.527905 0.526901 0.198906
Si Si6 0.821356 0.296798 0.197545
O O1 0.429359 0.031905 0.087697
O O2 0.295861 0.061787 0.068774
O O3 0.393233 0.194892 0.057246
O O4 0.381436 0.061207 0.002416
O O5 0.081013 0.059880 0.159735
O O6 0.750000 0.750000 0.500000
O O7 0.691899 0.769571 0.580202
O O8 0.722859 0.916870 0.539876
O O9 0.773223 0.375000 0.875000
O O10 0.740247 0.210954 0.839140
O O11 0.547952 0.566426 0.249813
O O12 0.875000 0.375000 0.183408
#
# Coordination Sequence:
#
# PCOD9515365 Si02
#       6
#    32   8  32  32  32  32
#     4   9  21  39  64  88 123 169 212 255 324 397
#     4  12  28  44  64  92 138 176 228 282 332 404
#     4   9  20  41  66  93 129 164 213 267 324 392
#     4   9  19  36  61  93 126 156 207 267 317 385
#     4  11  24  44  62  91 131 174 221 273 331 396
#     4  10  21  38  57  92 122 163 213 266 321 385
#
# _framework density 20.724905
#
# number of rings (size 3 to 8) (size 9 to 14) (size 15 to 20)
#    0.000    2.286    0.952    1.143    6.667    3.048 
#    6.857    0.000    0.000    3.429    0.000    0.000 
#    0.000    0.000    0.000    0.000    0.000    0.000 
#
# Total GULP energy -234198.599425 kJ/mol
# GULP energy per Si atom -5576.157129 kJ/mol
# Density = 2.067773 g / cm^3
# Si number density = 20.724905 Si / 1000 Ang^3
#
#
#
# Elastic Constant Matrix: (Units=GPa)
#
#
# Indices 1 2 3 4 5 6 
#
# 1 43.9321 7.9861 14.5223 0.0000 0.0000 0.0000
# 2 7.9861 39.6821 28.0463 0.0000 0.0000 0.0000
# 3 14.5223 28.0463 142.9136 0.0000 0.0000 0.0000
# 4 0.0000 0.0000 0.0000 33.9847 0.0000 0.0000
# 5 0.0000 0.0000 0.0000 0.0000 12.5217 0.0000
# 6 0.0000 0.0000 0.0000 0.0000 0.0000 9.2715
#
#
#
# Elastic Compliance Matrix: (Units=1/GPa)
#
#
# Indices 1 2 3 4 5 6 
#
# 1 0.023990 -0.003605 -0.001730 0.000000 0.000000 0.000000
# 2 -0.003605 0.029800 -0.005482 0.000000 0.000000 0.000000
# 3 -0.001730 -0.005482 0.008249 0.000000 0.000000 0.000000
# 4 0.000000 0.000000 0.000000 0.029425 0.000000 0.000000
# 5 0.000000 0.000000 0.000000 0.000000 0.079861 0.000000
# 6 0.000000 0.000000 0.000000 0.000000 0.000000 0.107857
#
#
# Mechanical properties :
#
#
# Convention : Reuss Voigt Hill
#
# Bulk Modulus (GPa) = 24.74978 36.40413 30.57695
# Shear Modulus (GPa) = 15.90913 22.88713 19.39813
#
# Velocity S-wave (km/s) = 2.77363 3.32675 3.06270
# Velocity P-wave (km/s) = 4.71437 5.68858 5.22423
#
# Compressibility (1/GPa) = 0.04040440
#
# Stress axis : x y z
#
# Youngs Moduli (GPa) = 41.68454 33.55681 121.22907
#
# Poissons Ratio (x) = 0.12098 0.20976
# Poissons Ratio (y) = 0.15028 0.66456
# Poissons Ratio (z) = 0.07212 0.18395
#
# Static dielectric constant tensor:
#      x y z
#    x 1.728310 0.000000 0.000000 
#    y 0.000000 1.693100 0.000000 
#    z 0.000000 0.000000 1.795570 
# 
# From -- ./inp_files/27814.got.cif
#   From: 2010.05.17/outbox.cif.g08.bks.cpg/sg70_14_cif.got.tgz:27814.got - 2010.06.03 15:57:51.
