data_PCOD9515416
_publ_section_title
;
Structure prediction by ZEFSAII (Michael W. Deem and Ramdas Pophale) SiO2 
 PCOD9515416
Probable space group: F D D D
;
_chemical_formula_sum "Si O2"
_cell_formula_units_Z 144
_cell_length_a 12.707666
_cell_length_b 23.512192
_cell_length_c 21.085622
_cell_angle_alpha 90.000000
_cell_angle_beta 90.000000
_cell_angle_gamma 90.000000
_cell_volume 6300.069317
_symmetry_space_group_name_H-M "F D D D"
_symmetry_group_IT_number 70
_space_group.IT_coordinate_system_code '2'
_symmetry_cell_setting 'orthorhombic'
loop_
_space_group_symop_operation_xyz
x,y,z
1/4-x,1/4-y,z
x,1/4-y,1/4-z
1/4-x,y,1/4-z
-x,-y,-z
3/4+x,3/4+y,-z
-x,3/4+y,3/4+z
3/4+x,-y,3/4+z
x,1/2+y,1/2+z
1/4-x,3/4-y,1/2+z
x,3/4-y,3/4-z
1/4-x,1/2+y,3/4-z
-x,1/2-y,1/2-z
3/4+x,1/4+y,1/2-z
-x,1/4+y,1/4+z
3/4+x,1/2-y,1/4+z
1/2+x,y,1/2+z
3/4-x,1/4-y,1/2+z
1/2+x,1/4-y,3/4-z
3/4-x,y,3/4-z
1/2-x,-y,1/2-z
1/4+x,3/4+y,1/2-z
1/2-x,3/4+y,1/4+z
1/4+x,-y,1/4+z
1/2+x,1/2+y,z
3/4-x,3/4-y,z
1/2+x,3/4-y,1/4-z
3/4-x,1/2+y,1/4-z
1/2-x,1/2-y,-z
1/4+x,1/4+y,-z
1/2-x,1/4+y,3/4+z
1/4+x,1/2-y,3/4+z
loop_
_atom_site_type_symbol
_atom_site_label
_atom_site_fract_x
_atom_site_fract_y
_atom_site_fract_z
Si Si1 0.903327 0.471582 0.633940
Si Si2 0.711687 0.348177 0.178802
Si Si3 0.305707 0.053840 0.718543
Si Si4 0.875000 0.972352 0.875000
Si Si5 0.125000 0.625000 0.520097
Si Si6 0.875000 0.375000 0.011428
O O1 0.804792 0.441722 0.598224
O O2 0.854830 0.532440 0.654012
O O3 0.914116 0.426278 0.692536
O O4 0.021366 0.488865 0.613601
O O5 0.625000 0.363723 0.125000
O O6 0.645516 0.316973 0.231730
O O7 0.778897 0.391208 0.222505
O O8 0.221225 0.103577 0.719317
O O9 0.250000 0.000000 0.750000
O O10 0.855974 0.929366 0.934530
#
# Coordination Sequence:
#
# PCOD9515416 Si02
#       6
#    32  32  32  16  16  16
#     4  11  24  45  71 106 140 193 232 304 356 431
#     4  12  23  42  73 103 141 180 240 300 358 428
#     4  10  21  43  66 103 142 178 237 298 357 422
#     4  11  26  54  70 102 160 188 248 289 370 434
#     4  11  27  48  71 112 141 201 229 304 358 431
#     4  10  21  38  73 103 141 187 241 292 360 428
#
# _framework density 22.85689
#
# number of rings (size 3 to 8) (size 9 to 14) (size 15 to 20)
#    0.000    1.111    6.667    0.667    0.000    4.444 
#    8.000    0.000    4.889    0.000    0.000    0.000 
#    0.000    0.000    0.000    0.000    0.000    0.000 
#
# Total GULP energy -200595.670522 kJ/mol
# GULP energy per Si atom -5572.101959 kJ/mol
# Density = 2.280487 g / cm^3
# Si number density = 22.856890 Si / 1000 Ang^3
#
#
#
# Elastic Constant Matrix: (Units=GPa)
#
#
# Indices 1 2 3 4 5 6 
#
# 1 197.3910 64.4630 61.5062 0.0000 0.0000 0.0000
# 2 64.4630 86.6639 34.4735 0.0000 0.0000 0.0000
# 3 61.5062 34.4735 73.1893 0.0000 0.0000 0.0000
# 4 0.0000 0.0000 0.0000 -47.3439 0.0000 0.0000
# 5 0.0000 0.0000 0.0000 0.0000 63.9526 0.0000
# 6 0.0000 0.0000 0.0000 0.0000 0.0000 255.6873
#
#
#
# Elastic Compliance Matrix: (Units=1/GPa)
#
#
# Indices 1 2 3 4 5 6 
#
# 1 0.007824 -0.003943 -0.004718 0.000000 0.000000 0.000000
# 2 -0.003943 0.016186 -0.004311 0.000000 0.000000 0.000000
# 3 -0.004718 -0.004311 0.019658 0.000000 0.000000 0.000000
# 4 0.000000 0.000000 0.000000 -0.021122 0.000000 0.000000
# 5 0.000000 0.000000 0.000000 0.000000 0.015637 0.000000
# 6 0.000000 0.000000 0.000000 0.000000 0.000000 0.003911
#
#
# Mechanical properties :
#
#
# Convention : Reuss Voigt Hill
#
# Bulk Modulus (GPa) = 56.41441 75.34772 65.88106
# Shear Modulus (GPa) = 67.61807 67.57931 67.59869
#
# Velocity S-wave (km/s) = 5.44495 5.44339 5.44417
# Velocity P-wave (km/s) = 8.01655 8.51727 8.27070
#
# Compressibility (1/GPa) = 0.01772597
#
# Stress axis : x y z
#
# Youngs Moduli (GPa) = 127.81588 61.78048 50.86949
#
# Poissons Ratio (x) = 0.24359 0.23999
# Poissons Ratio (y) = 0.50397 0.21928
# Poissons Ratio (z) = 0.60299 0.26631
#
# Static dielectric constant tensor:
#      x y z
#    x 1.880200 0.000000 0.000000 
#    y 0.000000 1.921750 0.000000 
#    z 0.000000 0.000000 1.905360 
# 
# From -- ./inp_files/50182.got.cif
#   From: 2010.05.17/outbox.cif.g08.bks.cpg/sg70_26_cif.got.tgz:50182.got - 2010.06.03 15:57:51.
