data_PCOD9515827
_publ_section_title
;
Structure prediction by ZEFSAII (Michael W. Deem and Ramdas Pophale) SiO2 
 PCOD9515827
Probable space group: F D D D
;
_chemical_formula_sum "Si O2"
_cell_formula_units_Z 96
_cell_length_a 15.566968
_cell_length_b 21.638746
_cell_length_c 10.783423
_cell_angle_alpha 90.000000
_cell_angle_beta 90.000000
_cell_angle_gamma 90.000000
_cell_volume 3632.392442
_symmetry_space_group_name_H-M "F D D D"
_symmetry_group_IT_number 70
_space_group.IT_coordinate_system_code '2'
_symmetry_cell_setting 'orthorhombic'
loop_
_space_group_symop_operation_xyz
x,y,z
1/4-x,1/4-y,z
x,1/4-y,1/4-z
1/4-x,y,1/4-z
-x,-y,-z
3/4+x,3/4+y,-z
-x,3/4+y,3/4+z
3/4+x,-y,3/4+z
x,1/2+y,1/2+z
1/4-x,3/4-y,1/2+z
x,3/4-y,3/4-z
1/4-x,1/2+y,3/4-z
-x,1/2-y,1/2-z
3/4+x,1/4+y,1/2-z
-x,1/4+y,1/4+z
3/4+x,1/2-y,1/4+z
1/2+x,y,1/2+z
3/4-x,1/4-y,1/2+z
1/2+x,1/4-y,3/4-z
3/4-x,y,3/4-z
1/2-x,-y,1/2-z
1/4+x,3/4+y,1/2-z
1/2-x,3/4+y,1/4+z
1/4+x,-y,1/4+z
1/2+x,1/2+y,z
3/4-x,3/4-y,z
1/2+x,3/4-y,1/4-z
3/4-x,1/2+y,1/4-z
1/2-x,1/2-y,-z
1/4+x,1/4+y,-z
1/2-x,1/4+y,3/4+z
1/4+x,1/2-y,3/4+z
loop_
_atom_site_type_symbol
_atom_site_label
_atom_site_fract_x
_atom_site_fract_y
_atom_site_fract_z
Si Si1 0.284638 0.125000 0.125000
Si Si2 0.625000 0.625000 0.942065
Si Si3 0.521631 0.701413 0.635510
Si Si4 0.200383 0.744578 0.367521
O O1 0.214639 0.127398 0.234842
O O2 0.338066 0.186882 0.143172
O O3 0.636315 0.688006 0.872349
O O4 0.507839 0.625000 0.625000
O O5 0.625000 0.708882 0.625000
O O6 0.500000 0.750000 0.750000
O O7 0.490577 0.729346 0.500935
O O8 0.250000 0.750000 0.500000
#
# Coordination Sequence:
#
# PCOD9515827 Si02
#       4
#    16  16  32  32
#     4   9  20  36  68 102 136 176 249 300 368 446
#     4   9  18  38  65 102 138 183 233 308 376 441
#     4  11  27  51  77 112 162 208 257 330 412 483
#     4  10  22  40  73 103 142 190 250 305 376 455
#
# _framework density 26.428861999999999
#
# number of rings (size 3 to 8) (size 9 to 14) (size 15 to 20)
#    0.000    2.000    0.000    2.000   14.000    0.000 
#    3.000    0.000    0.000    0.000    0.000    0.000 
#    0.000    0.000    0.000    0.000    0.000    0.000 
#
# Total GULP energy -133619.052100 kJ/mol
# GULP energy per Si atom -5567.460504 kJ/mol
# Density = 2.636871 g / cm^3
# Si number density = 26.428862 Si / 1000 Ang^3
#
#
#
# Elastic Constant Matrix: (Units=GPa)
#
#
# Indices 1 2 3 4 5 6 
#
# 1 68.1808 73.4671 39.1687 0.0000 0.0000 0.0000
# 2 73.4671 356.0498 102.4351 0.0000 0.0000 0.0000
# 3 39.1687 102.4351 221.2357 0.0000 0.0000 0.0000
# 4 0.0000 0.0000 0.0000 45.6806 0.0000 0.0000
# 5 0.0000 0.0000 0.0000 0.0000 47.6962 0.0000
# 6 0.0000 0.0000 0.0000 0.0000 0.0000 69.3340
#
#
#
# Elastic Compliance Matrix: (Units=1/GPa)
#
#
# Indices 1 2 3 4 5 6 
#
# 1 0.019483 -0.003493 -0.001832 0.000000 0.000000 0.000000
# 2 -0.003493 0.003866 -0.001172 0.000000 0.000000 0.000000
# 3 -0.001832 -0.001172 0.005387 0.000000 0.000000 0.000000
# 4 0.000000 0.000000 0.000000 0.021891 0.000000 0.000000
# 5 0.000000 0.000000 0.000000 0.000000 0.020966 0.000000
# 6 0.000000 0.000000 0.000000 0.000000 0.000000 0.014423
#
#
# Mechanical properties :
#
#
# Convention : Reuss Voigt Hill
#
# Bulk Modulus (GPa) = 63.52092 119.51201 91.51646
# Shear Modulus (GPa) = 47.95775 61.23519 54.59647
#
# Velocity S-wave (km/s) = 4.26443 4.81873 4.55003
# Velocity P-wave (km/s) = 6.95227 8.73376 7.89343
#
# Compressibility (1/GPa) = 0.01574285
#
# Stress axis : x y z
#
# Youngs Moduli (GPa) = 51.32597 258.63309 185.63254
#
# Poissons Ratio (x) = 0.90343 0.34009
# Poissons Ratio (y) = 0.17929 0.21752
# Poissons Ratio (z) = 0.09403 0.30307
#
# Static dielectric constant tensor:
#      x y z
#    x 2.238940 0.000000 0.000000 
#    y 0.000000 2.122640 0.000000 
#    z 0.000000 0.000000 2.341540 
# 
# From -- ./inp_files/18542.got.cif
#   From: 2010.05.17/outbox.cif.g08.bks.cpg/sg70_10_cif.got.tgz:18542.got - 2010.06.03 15:57:51.
