data_PCOD9515122
_publ_section_title
;
Structure prediction by ZEFSAII (Michael W. Deem and Ramdas Pophale) SiO2 
 PCOD9515122
Probable space group: F D D D
;
_chemical_formula_sum "Si O2"
_cell_formula_units_Z 128
_cell_length_a 18.789200
_cell_length_b 18.310453
_cell_length_c 19.173840
_cell_angle_alpha 90.000000
_cell_angle_beta 90.000000
_cell_angle_gamma 90.000000
_cell_volume 6596.544205
_symmetry_space_group_name_H-M "F D D D"
_symmetry_group_IT_number 70
_space_group.IT_coordinate_system_code '2'
_symmetry_cell_setting 'orthorhombic'
loop_
_space_group_symop_operation_xyz
x,y,z
1/4-x,1/4-y,z
x,1/4-y,1/4-z
1/4-x,y,1/4-z
-x,-y,-z
3/4+x,3/4+y,-z
-x,3/4+y,3/4+z
3/4+x,-y,3/4+z
x,1/2+y,1/2+z
1/4-x,3/4-y,1/2+z
x,3/4-y,3/4-z
1/4-x,1/2+y,3/4-z
-x,1/2-y,1/2-z
3/4+x,1/4+y,1/2-z
-x,1/4+y,1/4+z
3/4+x,1/2-y,1/4+z
1/2+x,y,1/2+z
3/4-x,1/4-y,1/2+z
1/2+x,1/4-y,3/4-z
3/4-x,y,3/4-z
1/2-x,-y,1/2-z
1/4+x,3/4+y,1/2-z
1/2-x,3/4+y,1/4+z
1/4+x,-y,1/4+z
1/2+x,1/2+y,z
3/4-x,3/4-y,z
1/2+x,3/4-y,1/4-z
3/4-x,1/2+y,1/4-z
1/2-x,1/2-y,-z
1/4+x,1/4+y,-z
1/2-x,1/4+y,3/4+z
1/4+x,1/2-y,3/4+z
loop_
_atom_site_type_symbol
_atom_site_label
_atom_site_fract_x
_atom_site_fract_y
_atom_site_fract_z
Si Si1 0.696306 0.183160 0.986256
Si Si2 0.842447 0.211874 0.799394
Si Si3 0.924392 0.308247 0.571525
Si Si4 0.427283 0.147294 0.045051
O O1 0.675097 0.185079 0.905601
O O2 0.750000 0.250000 0.000000
O O3 0.627808 0.208868 0.030969
O O4 0.747697 0.115641 0.005358
O O5 0.875000 0.192650 0.875000
O O6 0.872546 0.157213 0.741211
O O7 0.758117 0.198777 0.802316
O O8 0.875000 0.375000 0.545382
O O9 0.897529 0.229231 0.546355
O O10 0.440862 0.125000 0.125000
#
# Coordination Sequence:
#
# PCOD9515122 Si02
#       4
#    32  32  32  32
#     4  10  20  40  67 101 125 169 220 287 345 383
#     4  11  21  40  67  98 135 170 225 277 346 396
#     4  12  26  41  63 102 139 174 225 275 341 411
#     4  11  21  40  67  98 135 170 225 277 346 396
#
# _framework density 19.4041
#
# number of rings (size 3 to 8) (size 9 to 14) (size 15 to 20)
#    0.000    1.000   10.000    0.000    3.500    1.000 
#    0.000    2.500    0.000    0.000    0.000    0.000 
#    0.000    0.000    0.000    0.000    0.000    0.000 
#
# Total GULP energy -178280.962619 kJ/mol
# GULP energy per Si atom -5571.280082 kJ/mol
# Density = 1.935994 g / cm^3
# Si number density = 19.404100 Si / 1000 Ang^3
#
#
#
# Elastic Constant Matrix: (Units=GPa)
#
#
# Indices 1 2 3 4 5 6 
#
# 1 92.0758 23.5615 0.0975 0.0000 0.0000 0.0000
# 2 23.5615 117.1257 11.3827 0.0000 0.0000 0.0000
# 3 0.0975 11.3827 68.6233 0.0000 0.0000 0.0000
# 4 0.0000 0.0000 0.0000 24.3242 0.0000 0.0000
# 5 0.0000 0.0000 0.0000 0.0000 3.2774 0.0000
# 6 0.0000 0.0000 0.0000 0.0000 0.0000 42.1240
#
#
#
# Elastic Compliance Matrix: (Units=1/GPa)
#
#
# Indices 1 2 3 4 5 6 
#
# 1 0.011459 -0.002341 0.000372 0.000000 0.000000 0.000000
# 2 -0.002341 0.009156 -0.001515 0.000000 0.000000 0.000000
# 3 0.000372 -0.001515 0.014823 0.000000 0.000000 0.000000
# 4 0.000000 0.000000 0.000000 0.041111 0.000000 0.000000
# 5 0.000000 0.000000 0.000000 0.000000 0.305119 0.000000
# 6 0.000000 0.000000 0.000000 0.000000 0.000000 0.023739
#
#
# Mechanical properties :
#
#
# Convention : Reuss Voigt Hill
#
# Bulk Modulus (GPa) = 35.12564 38.65644 36.89104
# Shear Modulus (GPa) = 11.85206 30.13067 20.99137
#
# Velocity S-wave (km/s) = 2.47412 3.94483 3.29264
# Velocity P-wave (km/s) = 5.12866 6.38075 5.78866
#
# Compressibility (1/GPa) = 0.02846923
#
# Stress axis : x y z
#
# Youngs Moduli (GPa) = 87.26485 109.21665 67.46205
#
# Poissons Ratio (x) = 0.25572 -0.02510
# Poissons Ratio (y) = 0.20432 0.10223
# Poissons Ratio (z) = -0.03247 0.16551
#
# Static dielectric constant tensor:
#      x y z
#    x 1.744340 0.000000 0.000000 
#    y 0.000000 1.771880 0.000000 
#    z 0.000000 0.000000 1.677080 
# 
# From -- ./inp_files/45850.got.cif
#   From: 2010.05.17/outbox.cif.g08.bks.cpg/sg70_23_cif.got.tgz:45850.got - 2010.06.03 15:57:51.
