data_PCOD9515644
_publ_section_title
;
Structure prediction by ZEFSAII (Michael W. Deem and Ramdas Pophale) SiO2 
 PCOD9515644
Probable space group: F D D D
;
_chemical_formula_sum "Si O2"
_cell_formula_units_Z 176
_cell_length_a 13.962585
_cell_length_b 24.185923
_cell_length_c 27.017731
_cell_angle_alpha 90.000000
_cell_angle_beta 90.000000
_cell_angle_gamma 90.000000
_cell_volume 9123.833877
_symmetry_space_group_name_H-M "F D D D"
_symmetry_group_IT_number 70
_space_group.IT_coordinate_system_code '2'
_symmetry_cell_setting 'orthorhombic'
loop_
_space_group_symop_operation_xyz
x,y,z
1/4-x,1/4-y,z
x,1/4-y,1/4-z
1/4-x,y,1/4-z
-x,-y,-z
3/4+x,3/4+y,-z
-x,3/4+y,3/4+z
3/4+x,-y,3/4+z
x,1/2+y,1/2+z
1/4-x,3/4-y,1/2+z
x,3/4-y,3/4-z
1/4-x,1/2+y,3/4-z
-x,1/2-y,1/2-z
3/4+x,1/4+y,1/2-z
-x,1/4+y,1/4+z
3/4+x,1/2-y,1/4+z
1/2+x,y,1/2+z
3/4-x,1/4-y,1/2+z
1/2+x,1/4-y,3/4-z
3/4-x,y,3/4-z
1/2-x,-y,1/2-z
1/4+x,3/4+y,1/2-z
1/2-x,3/4+y,1/4+z
1/4+x,-y,1/4+z
1/2+x,1/2+y,z
3/4-x,3/4-y,z
1/2+x,3/4-y,1/4-z
3/4-x,1/2+y,1/4-z
1/2-x,1/2-y,-z
1/4+x,1/4+y,-z
1/2-x,1/4+y,3/4+z
1/4+x,1/2-y,3/4+z
loop_
_atom_site_type_symbol
_atom_site_label
_atom_site_fract_x
_atom_site_fract_y
_atom_site_fract_z
Si Si1 0.875000 0.780949 0.875000
Si Si2 0.522822 0.952301 0.701436
Si Si3 0.516084 0.615328 0.373047
Si Si4 0.875000 0.734573 0.375000
Si Si5 0.931721 0.132777 0.270463
Si Si6 0.875000 0.375000 0.294054
Si Si7 0.391275 0.007778 0.983835
O O1 0.801917 0.741462 0.844971
O O2 0.851902 0.823287 0.919783
O O3 0.494163 0.895273 0.675178
O O4 0.610420 0.934722 0.738195
O O5 0.435092 0.978780 0.730488
O O6 0.625000 0.625000 0.358271
O O7 0.470162 0.554518 0.376141
O O8 0.456814 0.641745 0.328197
O O9 0.874286 0.764031 0.427720
O O10 0.881126 0.073339 0.265896
O O11 0.029863 0.124377 0.239953
O O12 0.500000 0.000000 0.000000
#
# Coordination Sequence:
#
# PCOD9515644 Si02
#       7
#    16  32  32  16  32  16  32
#     4  11  23  42  61  92 138 171 210 272 338 406
#     4  12  22  41  65  99 127 171 226 271 335 399
#     4  11  19  34  64  92 123 159 210 273 320 372
#     4  10  21  44  59  95 132 162 222 277 306 394
#     4  11  22  40  63  95 127 167 220 274 317 398
#     4  11  24  44  60  90 142 172 210 269 344 402
#     4  11  24  43  67  95 133 171 220 274 339 389
#
# _framework density 19.290136
#
# number of rings (size 3 to 8) (size 9 to 14) (size 15 to 20)
#    0.000    0.909    8.182    1.091    0.000    0.727 
#    9.818    0.000    0.000    1.091    0.000    0.000 
#    0.000    0.000    0.000    0.000    0.000    0.000 
#
# Total GULP energy -244964.224048 kJ/mol
# GULP energy per Si atom -5567.368728 kJ/mol
# Density = 1.924623 g / cm^3
# Si number density = 19.290136 Si / 1000 Ang^3
#
#
#
# Elastic Constant Matrix: (Units=GPa)
#
#
# Indices 1 2 3 4 5 6 
#
# 1 157.0810 49.6682 65.2599 0.0000 0.0000 0.0000
# 2 49.6682 48.8172 36.1143 0.0000 0.0000 0.0000
# 3 65.2599 36.1143 136.3944 0.0000 0.0000 0.0000
# 4 0.0000 0.0000 0.0000 25.2851 0.0000 0.0000
# 5 0.0000 0.0000 0.0000 0.0000 35.1454 0.0000
# 6 0.0000 0.0000 0.0000 0.0000 0.0000 19.9446
#
#
#
# Elastic Compliance Matrix: (Units=1/GPa)
#
#
# Indices 1 2 3 4 5 6 
#
# 1 0.010087 -0.008323 -0.002623 0.000000 0.000000 0.000000
# 2 -0.008323 0.032342 -0.004581 0.000000 0.000000 0.000000
# 3 -0.002623 -0.004581 0.009800 0.000000 0.000000 0.000000
# 4 0.000000 0.000000 0.000000 0.039549 0.000000 0.000000
# 5 0.000000 0.000000 0.000000 0.000000 0.028453 0.000000
# 6 0.000000 0.000000 0.000000 0.000000 0.000000 0.050139
#
#
# Mechanical properties :
#
#
# Convention : Reuss Voigt Hill
#
# Bulk Modulus (GPa) = 47.22553 71.59747 59.41150
# Shear Modulus (GPa) = 23.98289 28.82503 26.40396
#
# Velocity S-wave (km/s) = 3.52983 3.86980 3.70372
# Velocity P-wave (km/s) = 6.41465 7.56067 7.01112
#
# Compressibility (1/GPa) = 0.02117499
#
# Stress axis : x y z
#
# Youngs Moduli (GPa) = 99.13288 30.91977 102.04554
#
# Poissons Ratio (x) = 0.25735 0.26764
# Poissons Ratio (y) = 0.82509 0.46748
# Poissons Ratio (z) = 0.26000 0.14165
#
# Static dielectric constant tensor:
#      x y z
#    x 1.739090 0.000000 0.000000 
#    y 0.000000 1.721210 0.000000 
#    z 0.000000 0.000000 1.692990 
# 
# From -- ./inp_files/51249.got.cif
#   From: 2010.05.17/outbox.cif.g08.bks.cpg/sg70_26_cif.got.tgz:51249.got - 2010.06.03 15:57:51.
