data_PCOD9515082
_publ_section_title
;
Structure prediction by ZEFSAII (Michael W. Deem and Ramdas Pophale) SiO2 
 PCOD9515082
Probable space group: F D D D
;
_chemical_formula_sum "Si O2"
_cell_formula_units_Z 216
_cell_length_a 28.831175
_cell_length_b 27.001578
_cell_length_c 13.627731
_cell_angle_alpha 90.000000
_cell_angle_beta 90.000000
_cell_angle_gamma 90.000000
_cell_volume 10609.014429
_symmetry_space_group_name_H-M "F D D D"
_symmetry_group_IT_number 70
_space_group.IT_coordinate_system_code '2'
_symmetry_cell_setting 'orthorhombic'
loop_
_space_group_symop_operation_xyz
x,y,z
1/4-x,1/4-y,z
x,1/4-y,1/4-z
1/4-x,y,1/4-z
-x,-y,-z
3/4+x,3/4+y,-z
-x,3/4+y,3/4+z
3/4+x,-y,3/4+z
x,1/2+y,1/2+z
1/4-x,3/4-y,1/2+z
x,3/4-y,3/4-z
1/4-x,1/2+y,3/4-z
-x,1/2-y,1/2-z
3/4+x,1/4+y,1/2-z
-x,1/4+y,1/4+z
3/4+x,1/2-y,1/4+z
1/2+x,y,1/2+z
3/4-x,1/4-y,1/2+z
1/2+x,1/4-y,3/4-z
3/4-x,y,3/4-z
1/2-x,-y,1/2-z
1/4+x,3/4+y,1/2-z
1/2-x,3/4+y,1/4+z
1/4+x,-y,1/4+z
1/2+x,1/2+y,z
3/4-x,3/4-y,z
1/2+x,3/4-y,1/4-z
3/4-x,1/2+y,1/4-z
1/2-x,1/2-y,-z
1/4+x,1/4+y,-z
1/2-x,1/4+y,3/4+z
1/4+x,1/2-y,3/4+z
loop_
_atom_site_type_symbol
_atom_site_label
_atom_site_fract_x
_atom_site_fract_y
_atom_site_fract_z
Si Si1 0.330102 0.126297 0.804918
Si Si2 0.910062 0.414843 0.054780
Si Si3 0.654946 0.768700 0.526477
Si Si4 0.723998 0.375000 0.375000
Si Si5 0.909423 0.952168 0.024837
Si Si6 0.239508 0.643901 0.417549
Si Si7 0.625000 0.125000 0.625000
Si Si8 0.390024 0.695203 0.173472
O O1 0.375000 0.122756 0.875000
O O2 0.315077 0.069142 0.785358
O O3 0.287665 0.151011 0.861391
O O4 0.350766 0.158191 0.715109
O O5 0.875000 0.375000 0.003927
O O6 0.878161 0.433515 0.145496
O O7 0.954681 0.388184 0.100278
O O8 0.924153 0.463833 0.994553
O O9 0.625000 0.764629 0.625000
O O10 0.624218 0.782846 0.431758
O O11 0.751350 0.382499 0.476959
O O12 0.688554 0.418523 0.345489
O O13 0.961269 0.944672 0.065030
O O14 0.897279 0.008652 0.003769
O O15 0.905086 0.912633 0.938740
#
# Coordination Sequence:
#
# PCOD9515082 Si02
#       8
#    32  32  32  16  32  32   8  32
#     4  11  21  40  63  91 131 170 217 266 321 393
#     4   9  20  41  62  94 130 164 214 273 329 400
#     4  10  20  39  70  90 121 173 216 265 336 389
#     4  12  21  38  65  90 140 180 221 266 329 398
#     4  10  23  39  64  94 134 166 218 271 336 394
#     4  11  22  39  63  98 133 173 220 274 327 398
#     4  12  18  40  68  96 134 180 212 280 340 392
#     4  11  22  43  64  93 130 181 219 271 333 403
#
# _framework density 20.360043999999998
#
# number of rings (size 3 to 8) (size 9 to 14) (size 15 to 20)
#    0.000    1.481    5.185    1.333    1.037    1.481 
#    5.333    0.000   16.296    0.000    0.000    0.000 
#    0.000    0.000    0.000    0.000    0.000    0.000 
#
# Total GULP energy -300887.199898 kJ/mol
# GULP energy per Si atom -5571.985183 kJ/mol
# Density = 2.031370 g / cm^3
# Si number density = 20.360044 Si / 1000 Ang^3
#
#
#
# Elastic Constant Matrix: (Units=GPa)
#
#
# Indices 1 2 3 4 5 6 
#
# 1 96.4600 15.3692 21.9824 0.0000 0.0000 0.0000
# 2 15.3692 111.6041 29.9325 0.0000 0.0000 0.0000
# 3 21.9824 29.9325 88.2930 -0.0001 0.0001 0.0000
# 4 0.0000 0.0000 -0.0001 32.6890 0.0000 0.0000
# 5 0.0000 0.0000 0.0001 0.0000 15.5757 0.0000
# 6 0.0000 0.0000 0.0000 0.0000 0.0000 13.7113
#
#
#
# Elastic Compliance Matrix: (Units=1/GPa)
#
#
# Indices 1 2 3 4 5 6 
#
# 1 0.011066 -0.000863 -0.002462 0.000000 0.000000 0.000000
# 2 -0.000863 0.009924 -0.003149 0.000000 0.000000 0.000000
# 3 -0.002462 -0.003149 0.013007 0.000000 0.000000 0.000000
# 4 0.000000 0.000000 0.000000 0.030591 0.000000 0.000000
# 5 0.000000 0.000000 0.000000 0.000000 0.064202 0.000000
# 6 0.000000 0.000000 0.000000 0.000000 0.000000 0.072933
#
#
# Mechanical properties :
#
#
# Convention : Reuss Voigt Hill
#
# Bulk Modulus (GPa) = 47.51511 47.88057 47.69784
# Shear Modulus (GPa) = 22.55421 27.66673 25.11047
#
# Velocity S-wave (km/s) = 3.33193 3.69029 3.51568
# Velocity P-wave (km/s) = 6.17984 6.45954 6.32124
#
# Compressibility (1/GPa) = 0.02104594
#
# Stress axis : x y z
#
# Youngs Moduli (GPa) = 90.36925 100.76773 76.88387
#
# Poissons Ratio (x) = 0.08701 0.18931
# Poissons Ratio (y) = 0.07803 0.24213
# Poissons Ratio (z) = 0.22252 0.31735
#
# Static dielectric constant tensor:
#      x y z
#    x 1.731340 0.000000 0.000000 
#    y 0.000000 1.801710 0.000000 
#    z 0.000000 0.000000 1.782340 
# 
# From -- ./inp_files/31345.got.cif
#   From: 2010.05.17/outbox.cif.g08.bks.cpg/sg70_16_cif.got.tgz:31345.got - 2010.06.03 15:57:51.
