data_PCOD9515840
_publ_section_title
;
Structure prediction by ZEFSAII (Michael W. Deem and Ramdas Pophale) SiO2 
 PCOD9515840
Probable space group: F D D D
;
_chemical_formula_sum "Si O2"
_cell_formula_units_Z 160
_cell_length_a 28.396317
_cell_length_b 11.454127
_cell_length_c 21.473875
_cell_angle_alpha 90.000000
_cell_angle_beta 90.000000
_cell_angle_gamma 90.000000
_cell_volume 6984.485669
_symmetry_space_group_name_H-M "F D D D"
_symmetry_group_IT_number 70
_space_group.IT_coordinate_system_code '2'
_symmetry_cell_setting 'orthorhombic'
loop_
_space_group_symop_operation_xyz
x,y,z
1/4-x,1/4-y,z
x,1/4-y,1/4-z
1/4-x,y,1/4-z
-x,-y,-z
3/4+x,3/4+y,-z
-x,3/4+y,3/4+z
3/4+x,-y,3/4+z
x,1/2+y,1/2+z
1/4-x,3/4-y,1/2+z
x,3/4-y,3/4-z
1/4-x,1/2+y,3/4-z
-x,1/2-y,1/2-z
3/4+x,1/4+y,1/2-z
-x,1/4+y,1/4+z
3/4+x,1/2-y,1/4+z
1/2+x,y,1/2+z
3/4-x,1/4-y,1/2+z
1/2+x,1/4-y,3/4-z
3/4-x,y,3/4-z
1/2-x,-y,1/2-z
1/4+x,3/4+y,1/2-z
1/2-x,3/4+y,1/4+z
1/4+x,-y,1/4+z
1/2+x,1/2+y,z
3/4-x,3/4-y,z
1/2+x,3/4-y,1/4-z
3/4-x,1/2+y,1/4-z
1/2-x,1/2-y,-z
1/4+x,1/4+y,-z
1/2-x,1/4+y,3/4+z
1/4+x,1/2-y,3/4+z
loop_
_atom_site_type_symbol
_atom_site_label
_atom_site_fract_x
_atom_site_fract_y
_atom_site_fract_z
Si Si1 0.021169 0.519832 0.797174
Si Si2 0.074571 0.657139 0.332438
Si Si3 0.375000 0.061184 0.875000
Si Si4 0.110819 0.362739 0.989736
Si Si5 0.291715 0.652498 0.694065
Si Si6 0.456981 0.875000 0.875000
O O1 0.036731 0.565228 0.864809
O O2 0.069197 0.479014 0.765496
O O3 0.993656 0.607826 0.752034
O O4 0.989364 0.408119 0.816527
O O5 0.125000 0.625000 0.361995
O O6 0.087803 0.766066 0.287507
O O7 0.056606 0.538991 0.301043
O O8 0.378155 0.127335 0.810297
O O9 0.421571 0.982624 0.883115
O O10 0.158338 0.336864 0.951131
O O11 0.272650 0.625000 0.625000
#
# Coordination Sequence:
#
# PCOD9515840 Si02
#       6
#    32  32  16  32  32  16
#     4  12  23  41  70  95 128 173 218 267 327 405
#     4  10  22  41  64  92 125 168 213 273 325 391
#     4  11  24  36  60  98 145 160 207 280 332 382
#     4  11  22  40  65  97 132 169 213 271 339 391
#     4  11  25  42  63  94 130 173 219 264 324 397
#     4  11  22  38  60 102 130 166 206 276 335 384
#
# _framework density 22.907914000000002
#
# number of rings (size 3 to 8) (size 9 to 14) (size 15 to 20)
#    0.000    1.000    4.000    3.600    8.400    2.400 
#    0.000    2.000    0.000    0.000    0.000    0.000 
#    0.000    0.000    0.000    0.000    0.000    0.000 
#
# Total GULP energy -223459.544290 kJ/mol
# GULP energy per Si atom -5586.488607 kJ/mol
# Density = 2.285577 g / cm^3
# Si number density = 22.907914 Si / 1000 Ang^3
#
#
#
# Elastic Constant Matrix: (Units=GPa)
#
#
# Indices 1 2 3 4 5 6 
#
# 1 111.2817 17.2914 46.2061 0.0000 0.0000 0.0000
# 2 17.2914 29.2719 3.6269 0.0000 0.0000 0.0000
# 3 46.2061 3.6269 130.8789 0.0000 0.0000 0.0000
# 4 0.0000 0.0000 0.0000 22.4683 0.0000 0.0000
# 5 0.0000 0.0000 0.0000 0.0000 -3.7044 0.0000
# 6 0.0000 0.0000 0.0000 0.0000 0.0000 4.7709
#
#
#
# Elastic Compliance Matrix: (Units=1/GPa)
#
#
# Indices 1 2 3 4 5 6 
#
# 1 0.011603 -0.006369 -0.003920 0.000000 0.000000 0.000000
# 2 -0.006369 0.037776 0.001202 0.000000 0.000000 0.000000
# 3 -0.003920 0.001202 0.008991 0.000000 0.000000 0.000000
# 4 0.000000 0.000000 0.000000 0.044507 0.000000 0.000000
# 5 0.000000 0.000000 0.000000 0.000000 -0.269948 0.000000
# 6 0.000000 0.000000 0.000000 0.000000 0.000000 0.209606
#
#
# Mechanical properties :
#
#
# Convention : Reuss Voigt Hill
#
# Bulk Modulus (GPa) = 24.87797 45.07569 34.97683
# Shear Modulus (GPa) = 67.46850 18.32748 42.89799
#
# Velocity S-wave (km/s) = 5.43286 2.83158 4.33208
# Velocity P-wave (km/s) = 7.08789 5.51454 6.35013
#
# Compressibility (1/GPa) = 0.04019621
#
# Stress axis : x y z
#
# Youngs Moduli (GPa) = 86.18110 26.47205 111.21850
#
# Poissons Ratio (x) = 0.16859 0.43598
# Poissons Ratio (y) = 0.54886 -0.13364
# Poissons Ratio (z) = 0.33783 -0.03181
#
# Static dielectric constant tensor:
#      x y z
#    x 1.882560 0.000000 0.000000 
#    y 0.000000 1.894120 0.000000 
#    z 0.000000 0.000000 1.868820 
# 
# From -- ./inp_files/39537.got.cif
#   From: 2010.05.17/outbox.cif.g08.bks.cpg/sg70_20_cif.got.tgz:39537.got - 2010.06.03 15:57:51.
