data_PCOD9515824
_publ_section_title
;
Structure prediction by ZEFSAII (Michael W. Deem and Ramdas Pophale) SiO2 
 PCOD9515824
Probable space group: F D D D
;
_chemical_formula_sum "Si O2"
_cell_formula_units_Z 160
_cell_length_a 27.605635
_cell_length_b 23.517947
_cell_length_c 10.218640
_cell_angle_alpha 90.000000
_cell_angle_beta 90.000000
_cell_angle_gamma 90.000000
_cell_volume 6634.225788
_symmetry_space_group_name_H-M "F D D D"
_symmetry_group_IT_number 70
_space_group.IT_coordinate_system_code '2'
_symmetry_cell_setting 'orthorhombic'
loop_
_space_group_symop_operation_xyz
x,y,z
1/4-x,1/4-y,z
x,1/4-y,1/4-z
1/4-x,y,1/4-z
-x,-y,-z
3/4+x,3/4+y,-z
-x,3/4+y,3/4+z
3/4+x,-y,3/4+z
x,1/2+y,1/2+z
1/4-x,3/4-y,1/2+z
x,3/4-y,3/4-z
1/4-x,1/2+y,3/4-z
-x,1/2-y,1/2-z
3/4+x,1/4+y,1/2-z
-x,1/4+y,1/4+z
3/4+x,1/2-y,1/4+z
1/2+x,y,1/2+z
3/4-x,1/4-y,1/2+z
1/2+x,1/4-y,3/4-z
3/4-x,y,3/4-z
1/2-x,-y,1/2-z
1/4+x,3/4+y,1/2-z
1/2-x,3/4+y,1/4+z
1/4+x,-y,1/4+z
1/2+x,1/2+y,z
3/4-x,3/4-y,z
1/2+x,3/4-y,1/4-z
3/4-x,1/2+y,1/4-z
1/2-x,1/2-y,-z
1/4+x,1/4+y,-z
1/2-x,1/4+y,3/4+z
1/4+x,1/2-y,3/4+z
loop_
_atom_site_type_symbol
_atom_site_label
_atom_site_fract_x
_atom_site_fract_y
_atom_site_fract_z
Si Si1 0.193380 0.250025 0.350390
Si Si2 0.706818 0.191781 0.591918
Si Si3 0.789077 0.721565 0.267416
Si Si4 0.625000 0.854986 0.625000
Si Si5 0.148630 0.687009 0.319721
Si Si6 0.570321 0.375000 0.375000
O O1 0.181819 0.233294 0.198503
O O2 0.243035 0.214969 0.362135
O O3 0.147215 0.229255 0.428894
O O4 0.205406 0.314723 0.383686
O O5 0.704401 0.125000 0.625000
O O6 0.763612 0.208602 0.624434
O O7 0.677907 0.192023 0.456420
O O8 0.831401 0.680349 0.309574
O O9 0.811609 0.784806 0.274789
O O10 0.647625 0.886721 0.502940
O O11 0.125000 0.625000 0.299643
#
# Coordination Sequence:
#
# PCOD9515824 Si02
#       6
#    32  32  32  16  32  16
#     4  10  25  42  69 106 141 198 239 312 368 452
#     4  10  22  40  72 108 147 187 246 319 372 442
#     4  10  26  44  68 103 143 193 253 299 374 449
#     4  12  28  50  71 108 143 202 238 318 358 448
#     4  12  21  43  70 109 150 194 245 313 381 449
#     4  12  28  48  78 101 154 193 258 300 384 448
#
# _framework density 24.117359
#
# number of rings (size 3 to 8) (size 9 to 14) (size 15 to 20)
#    1.200    0.000    4.000    1.200    4.200    4.000 
#    3.600    0.000    0.000    0.000    0.000    0.000 
#    0.000    0.000    0.000    0.000    0.000    0.000 
#
# Total GULP energy -222735.537945 kJ/mol
# GULP energy per Si atom -5568.388449 kJ/mol
# Density = 2.406247 g / cm^3
# Si number density = 24.117359 Si / 1000 Ang^3
#
#
#
# Elastic Constant Matrix: (Units=GPa)
#
#
# Indices 1 2 3 4 5 6 
#
# 1 137.9956 11.0971 20.3813 0.0001 -0.0004 -0.0005
# 2 11.0971 90.1222 0.4729 0.0001 -0.0025 -0.0009
# 3 20.3813 0.4729 80.9173 0.0005 -0.0085 -0.0053
# 4 0.0001 0.0001 0.0005 20.6493 -0.0040 -0.0033
# 5 -0.0004 -0.0025 -0.0085 -0.0040-1599.4647 0.0198
# 6 -0.0005 -0.0009 -0.0053 -0.0033 0.0198 -90.7231
#
#
#
# Elastic Compliance Matrix: (Units=1/GPa)
#
#
# Indices 1 2 3 4 5 6 
#
# 1 0.007603 -0.000926 -0.001910 0.000000 0.000000 0.000000
# 2 -0.000926 0.011209 0.000168 0.000000 0.000000 0.000000
# 3 -0.001910 0.000168 0.012838 0.000000 0.000000 -0.000001
# 4 0.000000 0.000000 0.000000 0.048428 0.000000 -0.000002
# 5 0.000000 0.000000 0.000000 0.000000 -0.000625 0.000000
# 6 0.000000 0.000000 -0.000001 -0.000002 0.000000 -0.011023
#
#
# Mechanical properties :
#
#
# Convention : Reuss Voigt Hill
#
# Bulk Modulus (GPa) = 38.00181 41.43753 39.71967
# Shear Modulus (GPa) = 60.57792 -315.43543 -127.42876
#
# Velocity S-wave (km/s) = 5.01722 -11.44883 -7.27679
# Velocity P-wave (km/s) = 7.02528 12.55185 7.35507
#
# Compressibility (1/GPa) = 0.02631454
#
# Stress axis : x y z
#
# Youngs Moduli (GPa) = 131.52467 89.21238 77.89184
#
# Poissons Ratio (x) = 0.08263 0.14875
# Poissons Ratio (y) = 0.12182 -0.01307
# Poissons Ratio (z) = 0.25117 -0.01497
#
# Static dielectric constant tensor:
#      x y z
#    x 1.887010 0.000000 0.000000 
#    y 0.000000 1.899410 0.000000 
#    z 0.000000 0.000000 2.061320 
# 
# From -- ./inp_files/22226.got.cif
#   From: 2010.05.17/outbox.cif.g08.bks.cpg/sg70_12_cif.got.tgz:22226.got - 2010.06.03 15:57:51.
