data_PCOD9515994
_publ_section_title
;
Structure prediction by ZEFSAII (Michael W. Deem and Ramdas Pophale) SiO2 
 PCOD9515994
Probable space group: F D D D
;
_chemical_formula_sum "Si O2"
_cell_formula_units_Z 144
_cell_length_a 22.032414
_cell_length_b 11.632439
_cell_length_c 22.750236
_cell_angle_alpha 90.000000
_cell_angle_beta 90.000000
_cell_angle_gamma 90.000000
_cell_volume 5830.674180
_symmetry_space_group_name_H-M "F D D D"
_symmetry_group_IT_number 70
_space_group.IT_coordinate_system_code '2'
_symmetry_cell_setting 'orthorhombic'
loop_
_space_group_symop_operation_xyz
x,y,z
1/4-x,1/4-y,z
x,1/4-y,1/4-z
1/4-x,y,1/4-z
-x,-y,-z
3/4+x,3/4+y,-z
-x,3/4+y,3/4+z
3/4+x,-y,3/4+z
x,1/2+y,1/2+z
1/4-x,3/4-y,1/2+z
x,3/4-y,3/4-z
1/4-x,1/2+y,3/4-z
-x,1/2-y,1/2-z
3/4+x,1/4+y,1/2-z
-x,1/4+y,1/4+z
3/4+x,1/2-y,1/4+z
1/2+x,y,1/2+z
3/4-x,1/4-y,1/2+z
1/2+x,1/4-y,3/4-z
3/4-x,y,3/4-z
1/2-x,-y,1/2-z
1/4+x,3/4+y,1/2-z
1/2-x,3/4+y,1/4+z
1/4+x,-y,1/4+z
1/2+x,1/2+y,z
3/4-x,3/4-y,z
1/2+x,3/4-y,1/4-z
3/4-x,1/2+y,1/4-z
1/2-x,1/2-y,-z
1/4+x,1/4+y,-z
1/2-x,1/4+y,3/4+z
1/4+x,1/2-y,3/4+z
loop_
_atom_site_type_symbol
_atom_site_label
_atom_site_fract_x
_atom_site_fract_y
_atom_site_fract_z
Si Si1 0.114092 0.994688 0.462911
Si Si2 0.584683 0.008298 0.757392
Si Si3 0.795049 0.125000 0.625000
Si Si4 0.494887 0.748882 0.624733
Si Si5 0.305308 0.725253 0.366852
O O1 0.115370 0.870579 0.496813
O O2 0.161858 0.960944 0.411267
O O3 0.125000 0.125000 0.487144
O O4 0.048399 0.005800 0.431719
O O5 0.625000 0.125000 0.754934
O O6 0.548940 0.010297 0.818455
O O7 0.541495 0.004979 0.700972
O O8 0.746280 0.211547 0.595151
O O9 0.523751 0.625000 0.625000
O O10 0.545487 0.843248 0.623281
O O11 0.375000 0.757144 0.375000
#
# Coordination Sequence:
#
# PCOD9515994 Si02
#       5
#    32  32  16  32  32
#     4  11  21  42  76 106 131 179 249 319 347 406
#     4  11  23  44  73 105 141 191 248 291 370 434
#     4  12  21  42  74  92 135 182 236 298 350 410
#     4  10  22  44  71 100 139 183 245 305 350 425
#     4  12  27  44  64 103 157 191 227 294 369 450
#
# _framework density 24.696971999999999
#
# number of rings (size 3 to 8) (size 9 to 14) (size 15 to 20)
#    0.000    0.889    5.556    3.667    0.000    5.778 
#    4.000    4.444    0.000    0.000    0.000    0.000 
#    0.000    0.000    0.000    0.000    0.000    0.000 
#
# Total GULP energy -200810.357171 kJ/mol
# GULP energy per Si atom -5578.065477 kJ/mol
# Density = 2.464076 g / cm^3
# Si number density = 24.696972 Si / 1000 Ang^3
#
#
#
# Elastic Constant Matrix: (Units=GPa)
#
#
# Indices 1 2 3 4 5 6 
#
# 1 85.5157 48.9190 -12.4699 0.0000 0.0000 0.0000
# 2 48.9190 281.3485 27.1994 0.0000 0.0000 0.0000
# 3 -12.4699 27.1994 41.9423 0.0000 0.0000 0.0000
# 4 0.0000 0.0000 0.0000 -16.3692 0.0000 0.0000
# 5 0.0000 0.0000 0.0000 0.0000 15.1147 0.0000
# 6 0.0000 0.0000 0.0000 0.0000 0.0000 40.2263
#
#
#
# Elastic Compliance Matrix: (Units=1/GPa)
#
#
# Indices 1 2 3 4 5 6 
#
# 1 0.014392 -0.003111 0.006296 0.000000 0.000000 0.000000
# 2 -0.003111 0.004465 -0.003820 0.000000 0.000000 0.000000
# 3 0.006296 -0.003820 0.028192 0.000000 0.000000 0.000000
# 4 0.000000 0.000000 0.000000 -0.061090 0.000000 0.000000
# 5 0.000000 0.000000 0.000000 0.000000 0.066161 0.000000
# 6 0.000000 0.000000 0.000000 0.000000 0.000000 0.024859
#
#
# Mechanical properties :
#
#
# Convention : Reuss Voigt Hill
#
# Bulk Modulus (GPa) = 21.84469 59.56705 40.70587
# Shear Modulus (GPa) = 53.47220 30.80490 42.13855
#
# Velocity S-wave (km/s) = 4.65815 3.53557 4.13513
# Velocity P-wave (km/s) = 6.14780 6.39050 6.27032
#
# Compressibility (1/GPa) = 0.04577772
#
# Stress axis : x y z
#
# Youngs Moduli (GPa) = 69.48544 223.98712 35.47162
#
# Poissons Ratio (x) = 0.69682 -0.22334
# Poissons Ratio (y) = 0.21617 0.13551
# Poissons Ratio (z) = -0.43749 0.85567
#
# Static dielectric constant tensor:
#      x y z
#    x 1.939710 0.000000 0.000000 
#    y 0.000000 2.068430 0.000000 
#    z 0.000000 0.000000 2.025840 
# 
# From -- ./inp_files/60994.got.cif
#   From: 2010.05.17/outbox.cif.g08.bks.cpg/sg70_31_cif.got.tgz:60994.got - 2010.06.03 15:57:51.
