data_PCOD9515765
_publ_section_title
;
Structure prediction by ZEFSAII (Michael W. Deem and Ramdas Pophale) SiO2 
 PCOD9515765
Probable space group: F D D D
;
_chemical_formula_sum "Si O2"
_cell_formula_units_Z 104
_cell_length_a 19.762385
_cell_length_b 27.346661
_cell_length_c 7.894855
_cell_angle_alpha 90.000000
_cell_angle_beta 90.000000
_cell_angle_gamma 90.000000
_cell_volume 4266.657882
_symmetry_space_group_name_H-M "F D D D"
_symmetry_group_IT_number 70
_space_group.IT_coordinate_system_code '2'
_symmetry_cell_setting 'orthorhombic'
loop_
_space_group_symop_operation_xyz
x,y,z
1/4-x,1/4-y,z
x,1/4-y,1/4-z
1/4-x,y,1/4-z
-x,-y,-z
3/4+x,3/4+y,-z
-x,3/4+y,3/4+z
3/4+x,-y,3/4+z
x,1/2+y,1/2+z
1/4-x,3/4-y,1/2+z
x,3/4-y,3/4-z
1/4-x,1/2+y,3/4-z
-x,1/2-y,1/2-z
3/4+x,1/4+y,1/2-z
-x,1/4+y,1/4+z
3/4+x,1/2-y,1/4+z
1/2+x,y,1/2+z
3/4-x,1/4-y,1/2+z
1/2+x,1/4-y,3/4-z
3/4-x,y,3/4-z
1/2-x,-y,1/2-z
1/4+x,3/4+y,1/2-z
1/2-x,3/4+y,1/4+z
1/4+x,-y,1/4+z
1/2+x,1/2+y,z
3/4-x,3/4-y,z
1/2+x,3/4-y,1/4-z
3/4-x,1/2+y,1/4-z
1/2-x,1/2-y,-z
1/4+x,1/4+y,-z
1/2-x,1/4+y,3/4+z
1/4+x,1/2-y,3/4+z
loop_
_atom_site_type_symbol
_atom_site_label
_atom_site_fract_x
_atom_site_fract_y
_atom_site_fract_z
Si Si1 0.197839 0.811052 0.672119
Si Si2 0.257477 0.808833 0.022191
Si Si3 0.047192 0.693422 0.632393
Si Si4 0.375000 0.875000 0.875000
O O1 0.125000 0.831427 0.625000
O O2 0.196855 0.752486 0.634857
O O3 0.261156 0.824459 0.552966
O O4 0.209879 0.823343 0.867122
O O5 0.249826 0.818928 0.221059
O O6 0.250000 0.750000 0.000000
O O7 0.327475 0.836834 0.977630
O O8 0.125000 0.676768 0.625000
#
# Coordination Sequence:
#
# PCOD9515765 Si02
#       4
#    32  32  32   8
#     4   9  18  33  58  90 134 178 230 293 363 434
#     4  10  22  39  65  98 141 188 234 306 367 426
#     4   9  17  32  57  94 129 180 234 287 365 440
#     4  12  24  44  74 108 148 190 262 296 362 470
#
# _framework density 24.375049000000001
#
# number of rings (size 3 to 8) (size 9 to 14) (size 15 to 20)
#    0.000    2.462    0.000    1.846    0.000    8.615 
#    0.000    6.923   10.154    0.000    0.000    0.000 
#    0.000    0.000    0.000    0.000    0.000    0.000 
#
# Total GULP energy -144872.344386 kJ/mol
# GULP energy per Si atom -5572.013246 kJ/mol
# Density = 2.431957 g / cm^3
# Si number density = 24.375049 Si / 1000 Ang^3
#
#
#
# Elastic Constant Matrix: (Units=GPa)
#
#
# Indices 1 2 3 4 5 6 
#
# 1 139.5477 4.5958 48.0248 0.0000 0.0004 0.0000
# 2 4.5958 180.5689 -32.0323 0.0000 0.0001 0.0000
# 3 48.0248 -32.0323 106.1091 -0.0003 0.0011 0.0000
# 4 0.0000 0.0000 -0.0003 -26.8261 0.0000 -0.0001
# 5 0.0004 0.0001 0.0011 0.0000 26.3052 0.0001
# 6 0.0000 0.0000 0.0000 -0.0001 0.0001 16.0600
#
#
#
# Elastic Compliance Matrix: (Units=1/GPa)
#
#
# Indices 1 2 3 4 5 6 
#
# 1 0.008645 -0.000966 -0.004204 0.000000 0.000000 0.000000
# 2 -0.000966 0.005959 0.002236 0.000000 0.000000 0.000000
# 3 -0.004204 0.002236 0.012002 0.000000 0.000000 0.000000
# 4 0.000000 0.000000 0.000000 -0.037277 0.000000 0.000000
# 5 0.000000 0.000000 0.000000 0.000000 0.038015 0.000000
# 6 0.000000 0.000000 0.000000 0.000000 0.000000 0.062267
#
#
# Mechanical properties :
#
#
# Convention : Reuss Voigt Hill
#
# Bulk Modulus (GPa) = 48.21962 51.93358 50.07660
# Shear Modulus (GPa) = 48.83231 30.15031 39.49131
#
# Velocity S-wave (km/s) = 4.48076 3.52082 4.02948
# Velocity P-wave (km/s) = 6.82605 6.15472 6.49906
#
# Compressibility (1/GPa) = 0.02073844
#
# Stress axis : x y z
#
# Youngs Moduli (GPa) = 115.67859 167.80449 83.31892
#
# Poissons Ratio (x) = 0.16207 0.35028
# Poissons Ratio (y) = 0.11172 -0.18631
# Poissons Ratio (z) = 0.48633 -0.37523
#
# Static dielectric constant tensor:
#      x y z
#    x 1.911700 0.000000 0.000000 
#    y 0.000000 1.960820 0.000000 
#    z 0.000000 0.000000 1.899560 
# 
# From -- ./inp_files/8409.got.cif
#   From: 2010.05.17/outbox.cif.g08.bks.cpg/sg70_5_cif.got.tgz:8409.got - 2010.06.03 15:57:51.
