data_PCOD9515846
_publ_section_title
;
Structure prediction by ZEFSAII (Michael W. Deem and Ramdas Pophale) SiO2 
 PCOD9515846
Probable space group: F D D D
;
_chemical_formula_sum "Si O2"
_cell_formula_units_Z 144
_cell_length_a 21.203950
_cell_length_b 17.904014
_cell_length_c 18.888263
_cell_angle_alpha 90.000000
_cell_angle_beta 90.000000
_cell_angle_gamma 90.000000
_cell_volume 7170.661168
_symmetry_space_group_name_H-M "F D D D"
_symmetry_group_IT_number 70
_space_group.IT_coordinate_system_code '2'
_symmetry_cell_setting 'orthorhombic'
loop_
_space_group_symop_operation_xyz
x,y,z
1/4-x,1/4-y,z
x,1/4-y,1/4-z
1/4-x,y,1/4-z
-x,-y,-z
3/4+x,3/4+y,-z
-x,3/4+y,3/4+z
3/4+x,-y,3/4+z
x,1/2+y,1/2+z
1/4-x,3/4-y,1/2+z
x,3/4-y,3/4-z
1/4-x,1/2+y,3/4-z
-x,1/2-y,1/2-z
3/4+x,1/4+y,1/2-z
-x,1/4+y,1/4+z
3/4+x,1/2-y,1/4+z
1/2+x,y,1/2+z
3/4-x,1/4-y,1/2+z
1/2+x,1/4-y,3/4-z
3/4-x,y,3/4-z
1/2-x,-y,1/2-z
1/4+x,3/4+y,1/2-z
1/2-x,3/4+y,1/4+z
1/4+x,-y,1/4+z
1/2+x,1/2+y,z
3/4-x,3/4-y,z
1/2+x,3/4-y,1/4-z
3/4-x,1/2+y,1/4-z
1/2-x,1/2-y,-z
1/4+x,1/4+y,-z
1/2-x,1/4+y,3/4+z
1/4+x,1/2-y,3/4+z
loop_
_atom_site_type_symbol
_atom_site_label
_atom_site_fract_x
_atom_site_fract_y
_atom_site_fract_z
Si Si1 0.453951 0.317815 0.735424
Si Si2 0.717441 0.673355 0.695303
Si Si3 0.875000 0.726979 0.375000
Si Si4 0.486297 0.637702 0.408803
Si Si5 0.811551 0.474252 0.482171
O O1 0.500000 0.250000 0.750000
O O2 0.467826 0.349392 0.656993
O O3 0.464799 0.391712 0.782977
O O4 0.383442 0.288670 0.746776
O O5 0.726252 0.625000 0.625000
O O6 0.652542 0.718756 0.685725
O O7 0.725258 0.627672 0.768019
O O8 0.772392 0.735368 0.705175
O O9 0.816637 0.675275 0.398307
O O10 0.449019 0.716589 0.419718
#
# Coordination Sequence:
#
# PCOD9515846 Si02
#       5
#    32  32  16  32  32
#     4  11  21  42  67  92 137 168 215 275 321 399
#     4  10  24  43  61  99 129 167 225 268 326 394
#     4  12  21  44  68  93 132 168 228 266 329 402
#     4  10  22  41  65  94 130 176 208 274 333 384
#     4   9  23  40  60 101 125 166 224 258 334 397
#
# _framework density 20.08183
#
# number of rings (size 3 to 8) (size 9 to 14) (size 15 to 20)
#    1.333    0.444    2.222    1.667    0.000    3.556 
#   12.000    2.222    0.000    0.000    0.000    0.000 
#    0.000    0.000    0.000    0.000    0.000    0.000 
#
# Total GULP energy -200579.502602 kJ/mol
# GULP energy per Si atom -5571.652850 kJ/mol
# Density = 2.003612 g / cm^3
# Si number density = 20.081830 Si / 1000 Ang^3
#
#
#
# Elastic Constant Matrix: (Units=GPa)
#
#
# Indices 1 2 3 4 5 6 
#
# 1 40.7468 18.7226 -6.2941 0.0000 0.0000 0.0000
# 2 18.7226 79.3389 0.6313 0.0000 0.0000 0.0000
# 3 -6.2941 0.6313 62.5387 0.0000 0.0000 0.0000
# 4 0.0000 0.0000 0.0000 28.3023 0.0000 0.0000
# 5 0.0000 0.0000 0.0000 0.0000 30.9303 0.0000
# 6 0.0000 0.0000 0.0000 0.0000 0.0000 37.0162
#
#
#
# Elastic Compliance Matrix: (Units=1/GPa)
#
#
# Indices 1 2 3 4 5 6 
#
# 1 0.028039 -0.006640 0.002889 0.000000 0.000000 0.000000
# 2 -0.006640 0.014177 -0.000811 0.000000 0.000000 0.000000
# 3 0.002889 -0.000811 0.016289 0.000000 0.000000 0.000000
# 4 0.000000 0.000000 0.000000 0.035333 0.000000 0.000000
# 5 0.000000 0.000000 0.000000 0.000000 0.032331 0.000000
# 6 0.000000 0.000000 0.000000 0.000000 0.000000 0.027015
#
#
# Mechanical properties :
#
#
# Convention : Reuss Voigt Hill
#
# Bulk Modulus (GPa) = 20.25059 23.19377 21.72218
# Shear Modulus (GPa) = 27.96909 30.55407 29.26158
#
# Velocity S-wave (km/s) = 3.73601 3.90485 3.82136
# Velocity P-wave (km/s) = 5.35876 5.64846 5.50552
#
# Compressibility (1/GPa) = 0.04938128
#
# Stress axis : x y z
#
# Youngs Moduli (GPa) = 35.66470 70.53448 61.39099
#
# Poissons Ratio (x) = 0.46833 -0.17736
# Poissons Ratio (y) = 0.23680 0.04981
# Poissons Ratio (z) = -0.10303 0.05723
#
# Static dielectric constant tensor:
#      x y z
#    x 1.689100 0.000000 0.000000 
#    y 0.000000 1.739850 0.000000 
#    z 0.000000 0.000000 1.721520 
# 
# From -- ./inp_files/37440.got.cif
#   From: 2010.05.17/outbox.cif.g08.bks.cpg/sg70_19_cif.got.tgz:37440.got - 2010.06.03 15:57:51.
