data_PCOD9515904
_publ_section_title
;
Structure prediction by ZEFSAII (Michael W. Deem and Ramdas Pophale) SiO2 
 PCOD9515904
Probable space group: F D D D
;
_chemical_formula_sum "Si O2"
_cell_formula_units_Z 136
_cell_length_a 21.663100
_cell_length_b 17.571342
_cell_length_c 13.499019
_cell_angle_alpha 90.000000
_cell_angle_beta 90.000000
_cell_angle_gamma 90.000000
_cell_volume 5138.398057
_symmetry_space_group_name_H-M "F D D D"
_symmetry_group_IT_number 70
_space_group.IT_coordinate_system_code '2'
_symmetry_cell_setting 'orthorhombic'
loop_
_space_group_symop_operation_xyz
x,y,z
1/4-x,1/4-y,z
x,1/4-y,1/4-z
1/4-x,y,1/4-z
-x,-y,-z
3/4+x,3/4+y,-z
-x,3/4+y,3/4+z
3/4+x,-y,3/4+z
x,1/2+y,1/2+z
1/4-x,3/4-y,1/2+z
x,3/4-y,3/4-z
1/4-x,1/2+y,3/4-z
-x,1/2-y,1/2-z
3/4+x,1/4+y,1/2-z
-x,1/4+y,1/4+z
3/4+x,1/2-y,1/4+z
1/2+x,y,1/2+z
3/4-x,1/4-y,1/2+z
1/2+x,1/4-y,3/4-z
3/4-x,y,3/4-z
1/2-x,-y,1/2-z
1/4+x,3/4+y,1/2-z
1/2-x,3/4+y,1/4+z
1/4+x,-y,1/4+z
1/2+x,1/2+y,z
3/4-x,3/4-y,z
1/2+x,3/4-y,1/4-z
3/4-x,1/2+y,1/4-z
1/2-x,1/2-y,-z
1/4+x,1/4+y,-z
1/2-x,1/4+y,3/4+z
1/4+x,1/2-y,3/4+z
loop_
_atom_site_type_symbol
_atom_site_label
_atom_site_fract_x
_atom_site_fract_y
_atom_site_fract_z
Si Si1 0.282530 0.389509 0.721076
Si Si2 0.145266 0.345344 0.758464
Si Si3 0.625000 0.125000 0.625000
Si Si4 0.068704 0.683760 0.999875
Si Si5 0.313881 0.538935 0.052471
O O1 0.212455 0.386459 0.760620
O O2 0.327944 0.421602 0.805493
O O3 0.296889 0.429090 0.616338
O O4 0.304247 0.300882 0.709955
O O5 0.160994 0.265731 0.710092
O O6 0.108922 0.306698 0.854454
O O7 0.097446 0.408083 0.721257
O O8 0.125000 0.625000 0.011486
O O9 0.003917 0.676011 0.054762
#
# Coordination Sequence:
#
# PCOD9515904 Si02
#       5
#    32  32   8  32  32
#     4  11  23  40  67  98 135 176 218 277 334 399
#     4  10  22  43  64  99 134 171 226 268 336 398
#     4  12  20  36  64  96 136 174 216 264 332 396
#     4  11  22  43  68  96 133 173 222 274 333 393
#     4  10  22  42  67  94 137 173 220 280 325 398
#
# _framework density 26.467393000000001
#
# number of rings (size 3 to 8) (size 9 to 14) (size 15 to 20)
#    0.000    1.412    3.529    1.412    0.000    5.647 
#    0.000   14.118    0.000    0.000    0.000    0.000 
#    0.000    0.000    0.000    0.000    0.000    0.000 
#
# Total GULP energy -189476.494845 kJ/mol
# GULP energy per Si atom -5572.838084 kJ/mol
# Density = 2.640715 g / cm^3
# Si number density = 26.467393 Si / 1000 Ang^3
#
#
#
# Elastic Constant Matrix: (Units=GPa)
#
#
# Indices 1 2 3 4 5 6 
#
# 1 258.4933 61.6532 37.3861 0.0000 0.0000 0.0000
# 2 61.6532 114.3960 18.0225 0.0000 0.0000 0.0000
# 3 37.3861 18.0225 121.1023 0.0000 0.0000 0.0000
# 4 0.0000 0.0000 0.0000 -18.4289 0.0000 0.0000
# 5 0.0000 0.0000 0.0000 0.0000 18.1299 0.0000
# 6 0.0000 0.0000 0.0000 0.0000 0.0000 44.3457
#
#
#
# Elastic Compliance Matrix: (Units=1/GPa)
#
#
# Indices 1 2 3 4 5 6 
#
# 1 0.004571 -0.002295 -0.001069 0.000000 0.000000 0.000000
# 2 -0.002295 0.010104 -0.000795 0.000000 0.000000 0.000000
# 3 -0.001069 -0.000795 0.008706 0.000000 0.000000 0.000000
# 4 0.000000 0.000000 0.000000 -0.054263 0.000000 0.000000
# 5 0.000000 0.000000 0.000000 0.000000 0.055157 0.000000
# 6 0.000000 0.000000 0.000000 0.000000 0.000000 0.022550
#
#
# Mechanical properties :
#
#
# Convention : Reuss Voigt Hill
#
# Bulk Modulus (GPa) = 66.39567 80.90170 73.64868
# Shear Modulus (GPa) = 83.10558 33.93800 58.52179
#
# Velocity S-wave (km/s) = 5.60958 3.58475 4.70732
# Velocity P-wave (km/s) = 8.19126 6.91135 7.57838
#
# Compressibility (1/GPa) = 0.01506122
#
# Stress axis : x y z
#
# Youngs Moduli (GPa) = 218.79023 98.97442 114.86342
#
# Poissons Ratio (x) = 0.22713 0.12285
# Poissons Ratio (y) = 0.50208 0.09134
# Poissons Ratio (z) = 0.23399 0.07870
#
# Static dielectric constant tensor:
#      x y z
#    x 2.061000 0.000000 0.000000 
#    y 0.000000 2.291360 0.000000 
#    z 0.000000 0.000000 2.423330 
# 
# From -- ./inp_files/34685.got.cif
#   From: 2010.05.17/outbox.cif.g08.bks.cpg/sg70_18_cif.got.tgz:34685.got - 2010.06.03 15:57:51.
