data_PCOD9515946
_publ_section_title
;
Structure prediction by ZEFSAII (Michael W. Deem and Ramdas Pophale) SiO2 
 PCOD9515946
Probable space group: F D D D
;
_chemical_formula_sum "Si O2"
_cell_formula_units_Z 160
_cell_length_a 19.205072
_cell_length_b 24.623296
_cell_length_c 15.283684
_cell_angle_alpha 90.000000
_cell_angle_beta 90.000000
_cell_angle_gamma 90.000000
_cell_volume 7227.534531
_symmetry_space_group_name_H-M "F D D D"
_symmetry_group_IT_number 70
_space_group.IT_coordinate_system_code '2'
_symmetry_cell_setting 'orthorhombic'
loop_
_space_group_symop_operation_xyz
x,y,z
1/4-x,1/4-y,z
x,1/4-y,1/4-z
1/4-x,y,1/4-z
-x,-y,-z
3/4+x,3/4+y,-z
-x,3/4+y,3/4+z
3/4+x,-y,3/4+z
x,1/2+y,1/2+z
1/4-x,3/4-y,1/2+z
x,3/4-y,3/4-z
1/4-x,1/2+y,3/4-z
-x,1/2-y,1/2-z
3/4+x,1/4+y,1/2-z
-x,1/4+y,1/4+z
3/4+x,1/2-y,1/4+z
1/2+x,y,1/2+z
3/4-x,1/4-y,1/2+z
1/2+x,1/4-y,3/4-z
3/4-x,y,3/4-z
1/2-x,-y,1/2-z
1/4+x,3/4+y,1/2-z
1/2-x,3/4+y,1/4+z
1/4+x,-y,1/4+z
1/2+x,1/2+y,z
3/4-x,3/4-y,z
1/2+x,3/4-y,1/4-z
3/4-x,1/2+y,1/4-z
1/2-x,1/2-y,-z
1/4+x,1/4+y,-z
1/2-x,1/4+y,3/4+z
1/4+x,1/2-y,3/4+z
loop_
_atom_site_type_symbol
_atom_site_label
_atom_site_fract_x
_atom_site_fract_y
_atom_site_fract_z
Si Si1 0.678566 0.773985 0.964635
Si Si2 0.409368 0.428647 0.776193
Si Si3 0.444000 0.403301 0.279096
Si Si4 0.810716 0.029768 0.507415
Si Si5 0.345944 0.623627 0.232498
O O1 0.683926 0.772703 0.861277
O O2 0.654474 0.831426 0.002895
O O3 0.750000 0.750000 0.000000
O O4 0.617146 0.733855 0.986906
O O5 0.375000 0.429940 0.875000
O O6 0.375000 0.375000 0.736653
O O7 0.491198 0.432593 0.756592
O O8 0.447116 0.375000 0.375000
O O9 0.375000 0.375000 0.238131
O O10 0.440342 0.469214 0.283284
O O11 0.518606 0.388895 0.236411
O O12 0.877340 0.066060 0.482802
O O13 0.344475 0.625000 0.125000
#
# Coordination Sequence:
#
# PCOD9515946 Si02
#       5
#    32  32  32  32  32
#     4  11  20  35  61  93 135 165 204 259 318 391
#     4  11  22  36  59  93 134 172 206 256 329 398
#     4  10  22  43  68  86 119 168 220 274 321 372
#     4  11  22  38  65  94 126 167 217 262 321 390
#     4   9  20  37  61  91 120 161 208 259 319 380
#
# _framework density 22.137563
#
# number of rings (size 3 to 8) (size 9 to 14) (size 15 to 20)
#    0.000    1.600    4.000    1.200    5.600    1.600 
#    0.000    0.000   22.000    0.000    0.000    0.000 
#    0.000    0.000    0.000    0.000    0.000    0.000 
#
# Total GULP energy -222929.498370 kJ/mol
# GULP energy per Si atom -5573.237459 kJ/mol
# Density = 2.208718 g / cm^3
# Si number density = 22.137563 Si / 1000 Ang^3
#
#
#
# Elastic Constant Matrix: (Units=GPa)
#
#
# Indices 1 2 3 4 5 6 
#
# 1 152.2291 76.7918 7.3720 0.0000 0.0000 0.0000
# 2 76.7918 186.3754 14.8733 0.0000 0.0000 0.0000
# 3 7.3720 14.8733 23.1196 0.0000 0.0000 0.0000
# 4 0.0000 0.0000 0.0000 13.7100 0.0000 0.0000
# 5 0.0000 0.0000 0.0000 0.0000 17.1101 0.0000
# 6 0.0000 0.0000 0.0000 0.0000 0.0000 47.3689
#
#
#
# Elastic Compliance Matrix: (Units=1/GPa)
#
#
# Indices 1 2 3 4 5 6 
#
# 1 0.008297 -0.003381 -0.000471 0.000000 0.000000 0.000000
# 2 -0.003381 0.007034 -0.003447 0.000000 0.000000 0.000000
# 3 -0.000471 -0.003447 0.045621 0.000000 0.000000 0.000000
# 4 0.000000 0.000000 0.000000 0.072939 0.000000 0.000000
# 5 0.000000 0.000000 0.000000 0.000000 0.058445 0.000000
# 6 0.000000 0.000000 0.000000 0.000000 0.000000 0.021111
#
#
# Mechanical properties :
#
#
# Convention : Reuss Voigt Hill
#
# Bulk Modulus (GPa) = 21.57273 62.19983 41.88628
# Shear Modulus (GPa) = 20.53421 33.15026 26.84223
#
# Velocity S-wave (km/s) = 3.04891 3.87391 3.48590
# Velocity P-wave (km/s) = 4.70749 6.94028 5.92992
#
# Compressibility (1/GPa) = 0.04635483
#
# Stress axis : x y z
#
# Youngs Moduli (GPa) = 120.51825 142.17171 21.91985
#
# Poissons Ratio (x) = 0.48072 0.01031
# Poissons Ratio (y) = 0.40750 0.07555
# Poissons Ratio (z) = 0.05671 0.49004
#
# Static dielectric constant tensor:
#      x y z
#    x 2.327370 0.000000 0.000000 
#    y 0.000000 1.066260 0.000000 
#    z 0.000000 0.000000 1.904680 
# 
# From -- ./inp_files/36304.got.cif
#   From: 2010.05.17/outbox.cif.g08.bks.cpg/sg70_19_cif.got.tgz:36304.got - 2010.06.03 15:57:51.
