data_PCOD9515530
_publ_section_title
;
Structure prediction by ZEFSAII (Michael W. Deem and Ramdas Pophale) SiO2 
 PCOD9515530
Probable space group: F D D D
;
_chemical_formula_sum "Si O2"
_cell_formula_units_Z 136
_cell_length_a 26.778410
_cell_length_b 20.052002
_cell_length_c 13.739147
_cell_angle_alpha 90.000000
_cell_angle_beta 90.000000
_cell_angle_gamma 90.000000
_cell_volume 7377.382415
_symmetry_space_group_name_H-M "F D D D"
_symmetry_group_IT_number 70
_space_group.IT_coordinate_system_code '2'
_symmetry_cell_setting 'orthorhombic'
loop_
_space_group_symop_operation_xyz
x,y,z
1/4-x,1/4-y,z
x,1/4-y,1/4-z
1/4-x,y,1/4-z
-x,-y,-z
3/4+x,3/4+y,-z
-x,3/4+y,3/4+z
3/4+x,-y,3/4+z
x,1/2+y,1/2+z
1/4-x,3/4-y,1/2+z
x,3/4-y,3/4-z
1/4-x,1/2+y,3/4-z
-x,1/2-y,1/2-z
3/4+x,1/4+y,1/2-z
-x,1/4+y,1/4+z
3/4+x,1/2-y,1/4+z
1/2+x,y,1/2+z
3/4-x,1/4-y,1/2+z
1/2+x,1/4-y,3/4-z
3/4-x,y,3/4-z
1/2-x,-y,1/2-z
1/4+x,3/4+y,1/2-z
1/2-x,3/4+y,1/4+z
1/4+x,-y,1/4+z
1/2+x,1/2+y,z
3/4-x,3/4-y,z
1/2+x,3/4-y,1/4-z
3/4-x,1/2+y,1/4-z
1/2-x,1/2-y,-z
1/4+x,1/4+y,-z
1/2-x,1/4+y,3/4+z
1/4+x,1/2-y,3/4+z
loop_
_atom_site_type_symbol
_atom_site_label
_atom_site_fract_x
_atom_site_fract_y
_atom_site_fract_z
Si Si1 0.749830 0.441095 0.108170
Si Si2 0.077978 0.668981 0.311772
Si Si3 0.822130 0.054764 0.072751
Si Si4 0.061193 0.938292 0.942610
Si Si5 0.375000 0.875000 0.875000
O O1 0.779166 0.373890 0.082899
O O2 0.790524 0.497780 0.133934
O O3 0.717176 0.433543 0.205299
O O4 0.714834 0.458472 0.016910
O O5 0.125000 0.625000 0.353584
O O6 0.072111 0.742126 0.354331
O O7 0.091172 0.668761 0.197039
O O8 0.809620 0.125000 0.125000
O O9 0.879714 0.059198 0.038817
O O10 0.050551 0.875000 0.875000
#
# Coordination Sequence:
#
# PCOD9515530 Si02
#       5
#    32  32  32  32   8
#     4  11  22  39  67  91 125 173 215 263 324 392
#     4  10  21  43  63  90 127 168 219 264 323 393
#     4  11  24  41  62  97 130 164 216 270 324 391
#     4  10  21  41  61  92 129 163 210 271 322 380
#     4   8  20  40  68  84 122 172 210 264 324 376
#
# _framework density 18.434723000000002
#
# number of rings (size 3 to 8) (size 9 to 14) (size 15 to 20)
#    0.706    0.941    2.353    2.118    1.647    0.941 
#   12.706    0.000    0.000    0.000    0.000    0.000 
#    0.000    0.000    0.000    0.000    0.000    0.000 
#
# Total GULP energy -189674.082613 kJ/mol
# GULP energy per Si atom -5578.649489 kJ/mol
# Density = 1.839276 g / cm^3
# Si number density = 18.434723 Si / 1000 Ang^3
#
#
#
# Elastic Constant Matrix: (Units=GPa)
#
#
# Indices 1 2 3 4 5 6 
#
# 1 54.1817 25.4764 36.8643 0.0000 0.0000 0.0000
# 2 25.4764 121.9394 57.7605 0.0000 0.0000 0.0000
# 3 36.8643 57.7605 104.9219 0.0000 0.0000 0.0000
# 4 0.0000 0.0000 0.0000 14.7076 0.0000 0.0000
# 5 0.0000 0.0000 0.0000 0.0000 103.2111 0.0000
# 6 0.0000 0.0000 0.0000 0.0000 0.0000 -110.6290
#
#
#
# Elastic Compliance Matrix: (Units=1/GPa)
#
#
# Indices 1 2 3 4 5 6 
#
# 1 0.024431 -0.001405 -0.007811 0.000000 0.000000 0.000000
# 2 -0.001405 0.011174 -0.005658 0.000000 0.000000 0.000000
# 3 -0.007811 -0.005658 0.015390 0.000000 0.000000 0.000000
# 4 0.000000 0.000000 0.000000 0.067992 0.000000 0.000000
# 5 0.000000 0.000000 0.000000 0.000000 0.009689 0.000000
# 6 0.000000 0.000000 0.000000 0.000000 0.000000 -0.009039
#
#
# Mechanical properties :
#
#
# Convention : Reuss Voigt Hill
#
# Bulk Modulus (GPa) = 47.06137 57.91617 52.48877
# Shear Modulus (GPa) = 31.95563 12.18739 22.07151
#
# Velocity S-wave (km/s) = 4.16799 2.57400 3.46393
# Velocity P-wave (km/s) = 6.98190 6.34973 6.67330
#
# Compressibility (1/GPa) = 0.02124885
#
# Stress axis : x y z
#
# Youngs Moduli (GPa) = 40.93152 89.49036 64.97720
#
# Poissons Ratio (x) = 0.12569 0.50751
# Poissons Ratio (y) = 0.05749 0.36765
# Poissons Ratio (z) = 0.31970 0.50635
#
# Static dielectric constant tensor:
#      x y z
#    x 1.647140 0.000000 0.000000 
#    y 0.000000 1.615760 0.000000 
#    z 0.000000 0.000000 1.604980 
# 
# From -- ./inp_files/28494.got.cif
#   From: 2010.05.17/outbox.cif.g08.bks.cpg/sg70_15_cif.got.tgz:28494.got - 2010.06.03 15:57:51.
