data_PCOD9515995
_publ_section_title
;
Structure prediction by ZEFSAII (Michael W. Deem and Ramdas Pophale) SiO2 
 PCOD9515995
Probable space group: F D D D
;
_chemical_formula_sum "Si O2"
_cell_formula_units_Z 176
_cell_length_a 28.561040
_cell_length_b 16.616701
_cell_length_c 14.749597
_cell_angle_alpha 90.000000
_cell_angle_beta 90.000000
_cell_angle_gamma 90.000000
_cell_volume 7000.015104
_symmetry_space_group_name_H-M "F D D D"
_symmetry_group_IT_number 70
_space_group.IT_coordinate_system_code '2'
_symmetry_cell_setting 'orthorhombic'
loop_
_space_group_symop_operation_xyz
x,y,z
1/4-x,1/4-y,z
x,1/4-y,1/4-z
1/4-x,y,1/4-z
-x,-y,-z
3/4+x,3/4+y,-z
-x,3/4+y,3/4+z
3/4+x,-y,3/4+z
x,1/2+y,1/2+z
1/4-x,3/4-y,1/2+z
x,3/4-y,3/4-z
1/4-x,1/2+y,3/4-z
-x,1/2-y,1/2-z
3/4+x,1/4+y,1/2-z
-x,1/4+y,1/4+z
3/4+x,1/2-y,1/4+z
1/2+x,y,1/2+z
3/4-x,1/4-y,1/2+z
1/2+x,1/4-y,3/4-z
3/4-x,y,3/4-z
1/2-x,-y,1/2-z
1/4+x,3/4+y,1/2-z
1/2-x,3/4+y,1/4+z
1/4+x,-y,1/4+z
1/2+x,1/2+y,z
3/4-x,3/4-y,z
1/2+x,3/4-y,1/4-z
3/4-x,1/2+y,1/4-z
1/2-x,1/2-y,-z
1/4+x,1/4+y,-z
1/2-x,1/4+y,3/4+z
1/4+x,1/2-y,3/4+z
loop_
_atom_site_type_symbol
_atom_site_label
_atom_site_fract_x
_atom_site_fract_y
_atom_site_fract_z
Si Si1 0.930384 0.966106 0.383150
Si Si2 0.575994 0.883581 0.570499
Si Si3 0.563272 0.787716 0.832403
Si Si4 0.004675 0.625000 0.625000
Si Si5 0.722323 0.119301 0.422504
Si Si6 0.581319 0.985822 0.387921
O O1 0.950247 0.875000 0.375000
O O2 0.875000 0.954349 0.375000
O O3 0.935190 0.037770 0.309465
O O4 0.944830 0.010244 0.477777
O O5 0.625000 0.887456 0.625000
O O6 0.523478 0.905025 0.605802
O O7 0.585539 0.942772 0.486844
O O8 0.551889 0.875000 0.875000
O O9 0.536499 0.721534 0.892234
O O10 0.619464 0.781876 0.842221
O O11 0.031531 0.618455 0.531037
O O12 0.968131 0.696920 0.611555
O O13 0.679585 0.170405 0.382979
#
# Coordination Sequence:
#
# PCOD9515995 Si02
#       6
#    32  32  32  16  32  32
#     4  10  24  41  71 104 144 200 255 294 374 448
#     4  10  22  45  73 104 147 199 242 307 377 449
#     4  12  26  46  73 109 151 201 251 315 374 457
#     4  10  22  44  71 102 144 196 241 304 388 446
#     4  11  27  43  72 109 145 188 252 315 370 455
#     4  11  24  44  72 104 143 193 247 303 382 452
#
# _framework density 25.142802
#
# number of rings (size 3 to 8) (size 9 to 14) (size 15 to 20)
#    0.000    1.273    0.909    4.909   10.182    7.273 
#    0.000    0.909    0.000    0.000    0.000    0.000 
#    0.000    0.000    0.000    0.000    0.000    0.000 
#
# Total GULP energy -245332.313644 kJ/mol
# GULP energy per Si atom -5575.734401 kJ/mol
# Density = 2.508558 g / cm^3
# Si number density = 25.142802 Si / 1000 Ang^3
#
#
#
# Elastic Constant Matrix: (Units=GPa)
#
#
# Indices 1 2 3 4 5 6 
#
# 1 110.2502 49.7214 16.9570 0.0000 0.0000 0.0000
# 2 49.7214 164.4170 53.3260 0.0000 0.0000 0.0000
# 3 16.9570 53.3260 91.3962 0.0000 0.0000 0.0000
# 4 0.0000 0.0000 0.0000 -20.4126 0.0000 0.0000
# 5 0.0000 0.0000 0.0000 0.0000 -20.1755 0.0000
# 6 0.0000 0.0000 0.0000 0.0000 0.0000 21.6433
#
#
#
# Elastic Compliance Matrix: (Units=1/GPa)
#
#
# Indices 1 2 3 4 5 6 
#
# 1 0.010504 -0.003138 -0.000118 0.000000 0.000000 0.000000
# 2 -0.003138 0.008439 -0.004342 0.000000 0.000000 0.000000
# 3 -0.000118 -0.004342 0.013496 0.000000 0.000000 0.000000
# 4 0.000000 0.000000 0.000000 -0.048989 0.000000 0.000000
# 5 0.000000 0.000000 0.000000 0.000000 -0.049565 0.000000
# 6 0.000000 0.000000 0.000000 0.000000 0.000000 0.046204
#
#
# Mechanical properties :
#
#
# Convention : Reuss Voigt Hill
#
# Bulk Modulus (GPa) = 57.99124 67.34136 62.66630
# Shear Modulus (GPa) = 4843.89860 12.61497 2428.25678
#
# Velocity S-wave (km/s) = 43.94015 2.24237 31.11081
# Velocity P-wave (km/s) = 50.96500 5.79189 36.26966
#
# Compressibility (1/GPa) = 0.01724398
#
# Stress axis : x y z
#
# Youngs Moduli (GPa) = 95.20462 118.49312 74.09355
#
# Poissons Ratio (x) = 0.37186 0.00872
# Poissons Ratio (y) = 0.29877 0.32170
# Poissons Ratio (z) = 0.01121 0.51447
#
# Static dielectric constant tensor:
#      x y z
#    x 1.976590 0.000000 0.000000 
#    y 0.000000 2.095890 0.000000 
#    z 0.000000 0.000000 2.172090 
# 
# From -- ./inp_files/39669.got.cif
#   From: 2010.05.17/outbox.cif.g08.bks.cpg/sg70_20_cif.got.tgz:39669.got - 2010.06.03 15:57:51.
