data_PCOD9515926
_publ_section_title
;
Structure prediction by ZEFSAII (Michael W. Deem and Ramdas Pophale) SiO2 
 PCOD9515926
Probable space group: F D D D
;
_chemical_formula_sum "Si O2"
_cell_formula_units_Z 176
_cell_length_a 14.493746
_cell_length_b 14.743873
_cell_length_c 29.395576
_cell_angle_alpha 90.000000
_cell_angle_beta 90.000000
_cell_angle_gamma 90.000000
_cell_volume 6281.656757
_symmetry_space_group_name_H-M "F D D D"
_symmetry_group_IT_number 70
_space_group.IT_coordinate_system_code '2'
_symmetry_cell_setting 'orthorhombic'
loop_
_space_group_symop_operation_xyz
x,y,z
1/4-x,1/4-y,z
x,1/4-y,1/4-z
1/4-x,y,1/4-z
-x,-y,-z
3/4+x,3/4+y,-z
-x,3/4+y,3/4+z
3/4+x,-y,3/4+z
x,1/2+y,1/2+z
1/4-x,3/4-y,1/2+z
x,3/4-y,3/4-z
1/4-x,1/2+y,3/4-z
-x,1/2-y,1/2-z
3/4+x,1/4+y,1/2-z
-x,1/4+y,1/4+z
3/4+x,1/2-y,1/4+z
1/2+x,y,1/2+z
3/4-x,1/4-y,1/2+z
1/2+x,1/4-y,3/4-z
3/4-x,y,3/4-z
1/2-x,-y,1/2-z
1/4+x,3/4+y,1/2-z
1/2-x,3/4+y,1/4+z
1/4+x,-y,1/4+z
1/2+x,1/2+y,z
3/4-x,3/4-y,z
1/2+x,3/4-y,1/4-z
3/4-x,1/2+y,1/4-z
1/2-x,1/2-y,-z
1/4+x,1/4+y,-z
1/2-x,1/4+y,3/4+z
1/4+x,1/2-y,3/4+z
loop_
_atom_site_type_symbol
_atom_site_label
_atom_site_fract_x
_atom_site_fract_y
_atom_site_fract_z
Si Si1 0.719920 0.713053 0.286256
Si Si2 0.520394 0.740571 0.304275
Si Si3 0.875000 0.875000 0.950915
Si Si4 0.719986 0.378446 0.096414
Si Si5 0.128012 0.281775 0.403708
Si Si6 0.654754 0.797337 0.508287
O O1 0.630053 0.754279 0.308946
O O2 0.685588 0.684318 0.236078
O O3 0.737724 0.617072 0.311249
O O4 0.820036 0.757132 0.281948
O O5 0.500000 0.750000 0.250000
O O6 0.445812 0.809459 0.324880
O O7 0.539176 0.714348 0.396386
O O8 0.625000 0.378211 0.125000
O O9 0.782275 0.285756 0.101228
O O10 0.683555 0.375801 0.043637
O O11 0.130807 0.375000 0.375000
O O12 0.122927 0.312146 0.456720
O O13 0.750000 0.750000 0.500000
#
# Coordination Sequence:
#
# PCOD9515926 Si02
#       6
#    32  32  16  32  32  32
#     4   8  14  28  50  83 120 159 218 284 350 431
#     4   7  13  25  43  70 112 159 205 271 339 416
#     4   8  14  26  44  68 113 166 206 268 344 416
#     4  10  24  49  78 114 161 212 274 344 416 500
#     4  10  24  49  78 114 161 212 274 345 416 497
#     4  10  22  42  74 108 146 202 263 328 405 492
#
# _framework density 28.018084999999999
#
# number of rings (size 3 to 8) (size 9 to 14) (size 15 to 20)
#    0.000    3.636    0.000    0.000    0.000    6.545 
#    0.000   20.909    0.000    0.000    0.000    0.000 
#    0.000    0.000    0.000    0.000    0.000    0.000 
#
# Total GULP energy -245876.256273 kJ/mol
# GULP energy per Si atom -5588.096733 kJ/mol
# Density = 2.795431 g / cm^3
# Si number density = 28.018085 Si / 1000 Ang^3
#
#
#
# Elastic Constant Matrix: (Units=GPa)
#
#
# Indices 1 2 3 4 5 6 
#
# 1 313.8858 124.6564 70.6397 0.0000 0.0000 0.0000
# 2 124.6564 194.5744 88.8028 0.0000 0.0000 0.0000
# 3 70.6397 88.8028 151.2189 0.0000 0.0000 0.0000
# 4 0.0000 0.0000 0.0000 26.9316 0.0000 0.0000
# 5 0.0000 0.0000 0.0000 0.0000 59.9095 0.0000
# 6 0.0000 0.0000 0.0000 0.0000 0.0000 57.0608
#
#
#
# Elastic Compliance Matrix: (Units=1/GPa)
#
#
# Indices 1 2 3 4 5 6 
#
# 1 0.004304 -0.002514 -0.000535 0.000000 0.000000 0.000000
# 2 -0.002514 0.008489 -0.003811 0.000000 0.000000 0.000000
# 3 -0.000535 -0.003811 0.009101 0.000000 0.000000 0.000000
# 4 0.000000 0.000000 0.000000 0.037131 0.000000 0.000000
# 5 0.000000 0.000000 0.000000 0.000000 0.016692 0.000000
# 6 0.000000 0.000000 0.000000 0.000000 0.000000 0.017525
#
#
# Mechanical properties :
#
#
# Convention : Reuss Voigt Hill
#
# Bulk Modulus (GPa) = 122.31396 136.43078 129.37237
# Shear Modulus (GPa) = 45.58452 53.81905 49.70179
#
# Velocity S-wave (km/s) = 4.03794 4.38753 4.21636
# Velocity P-wave (km/s) = 8.09260 8.62941 8.36531
#
# Compressibility (1/GPa) = 0.00817568
#
# Stress axis : x y z
#
# Youngs Moduli (GPa) = 232.31581 117.79669 109.88211
#
# Poissons Ratio (x) = 0.29611 0.05874
# Poissons Ratio (y) = 0.58398 0.41876
# Poissons Ratio (z) = 0.12420 0.44892
#
# Static dielectric constant tensor:
#      x y z
#    x 2.283070 0.000000 0.000000 
#    y 0.000000 2.375180 0.000000 
#    z 0.000000 0.000000 2.437210 
# 
# From -- ./inp_files/58729.got.cif
#   From: 2010.05.17/outbox.cif.g08.bks.cpg/sg70_30_cif.got.tgz:58729.got - 2010.06.03 15:57:51.
