data_PCOD9515707
_publ_section_title
;
Structure prediction by ZEFSAII (Michael W. Deem and Ramdas Pophale) SiO2 
 PCOD9515707
Probable space group: F D D D
;
_chemical_formula_sum "Si O2"
_cell_formula_units_Z 120
_cell_length_a 30.121943
_cell_length_b 13.682430
_cell_length_c 14.255428
_cell_angle_alpha 90.000000
_cell_angle_beta 90.000000
_cell_angle_gamma 90.000000
_cell_volume 5875.251719
_symmetry_space_group_name_H-M "F D D D"
_symmetry_group_IT_number 70
_space_group.IT_coordinate_system_code '2'
_symmetry_cell_setting 'orthorhombic'
loop_
_space_group_symop_operation_xyz
x,y,z
1/4-x,1/4-y,z
x,1/4-y,1/4-z
1/4-x,y,1/4-z
-x,-y,-z
3/4+x,3/4+y,-z
-x,3/4+y,3/4+z
3/4+x,-y,3/4+z
x,1/2+y,1/2+z
1/4-x,3/4-y,1/2+z
x,3/4-y,3/4-z
1/4-x,1/2+y,3/4-z
-x,1/2-y,1/2-z
3/4+x,1/4+y,1/2-z
-x,1/4+y,1/4+z
3/4+x,1/2-y,1/4+z
1/2+x,y,1/2+z
3/4-x,1/4-y,1/2+z
1/2+x,1/4-y,3/4-z
3/4-x,y,3/4-z
1/2-x,-y,1/2-z
1/4+x,3/4+y,1/2-z
1/2-x,3/4+y,1/4+z
1/4+x,-y,1/4+z
1/2+x,1/2+y,z
3/4-x,3/4-y,z
1/2+x,3/4-y,1/4-z
3/4-x,1/2+y,1/4-z
1/2-x,1/2-y,-z
1/4+x,1/4+y,-z
1/2-x,1/4+y,3/4+z
1/4+x,1/2-y,3/4+z
loop_
_atom_site_type_symbol
_atom_site_label
_atom_site_fract_x
_atom_site_fract_y
_atom_site_fract_z
Si Si1 0.227519 0.891729 0.477443
Si Si2 0.359041 0.125000 0.125000
Si Si3 0.501274 0.395802 0.182018
Si Si4 0.821855 0.009453 0.232502
Si Si5 0.375000 0.875000 0.875000
O O1 0.249668 0.875000 0.375000
O O2 0.176188 0.861475 0.459486
O O3 0.244283 0.839490 0.570244
O O4 0.233128 0.009130 0.486072
O O5 0.391363 0.211315 0.156297
O O6 0.466169 0.308701 0.191081
O O7 0.547269 0.355174 0.225382
O O8 0.845131 0.946030 0.312341
#
# Coordination Sequence:
#
# PCOD9515707 Si02
#       5
#    32  16  32  32   8
#     4  10  23  38  59  83 118 164 197 248 291 368
#     4  10  22  37  56  92 122 156 190 244 312 355
#     4  11  21  40  62  88 119 157 208 244 306 360
#     4  11  22  36  64  92 119 154 197 260 302 369
#     4  12  24  42  60 100 124 152 200 260 324 338
#
# _framework density 20.424657
#
# number of rings (size 3 to 8) (size 9 to 14) (size 15 to 20)
#    0.800    0.533    0.000    7.200    0.000    4.267 
#    0.000    0.000    0.000    0.000    0.000    0.000 
#    0.000    0.000    0.000    0.000    0.000    0.000 
#
# Total GULP energy -167299.272706 kJ/mol
# GULP energy per Si atom -5576.642424 kJ/mol
# Density = 2.037817 g / cm^3
# Si number density = 20.424657 Si / 1000 Ang^3
#
#
#
# Elastic Constant Matrix: (Units=GPa)
#
#
# Indices 1 2 3 4 5 6 
#
# 1 90.1876 16.3763 49.1822 0.0000 0.0000 0.0000
# 2 16.3763 68.9162 34.5602 0.0000 0.0000 0.0000
# 3 49.1822 34.5602 67.3869 0.0000 0.0000 0.0000
# 4 0.0000 0.0000 0.0000 15.5299 0.0000 0.0000
# 5 0.0000 0.0000 0.0000 0.0000 19.6267 0.0000
# 6 0.0000 0.0000 0.0000 0.0000 0.0000 27.4836
#
#
#
# Elastic Compliance Matrix: (Units=1/GPa)
#
#
# Indices 1 2 3 4 5 6 
#
# 1 0.018953 0.003276 -0.015512 0.000000 0.000000 0.000000
# 2 0.003276 0.020101 -0.012699 0.000000 0.000000 0.000000
# 3 -0.015512 -0.012699 0.032675 0.000000 0.000000 0.000000
# 4 0.000000 0.000000 0.000000 0.064392 0.000000 0.000000
# 5 0.000000 0.000000 0.000000 0.000000 0.050951 0.000000
# 6 0.000000 0.000000 0.000000 0.000000 0.000000 0.036385
#
#
# Mechanical properties :
#
#
# Convention : Reuss Voigt Hill
#
# Bulk Modulus (GPa) = 45.75621 47.41423 46.58522
# Shear Modulus (GPa) = 17.81808 20.95283 19.38546
#
# Velocity S-wave (km/s) = 2.95681 3.20638 3.08412
# Velocity P-wave (km/s) = 5.84021 6.08050 5.96156
#
# Compressibility (1/GPa) = 0.02185496
#
# Stress axis : x y z
#
# Youngs Moduli (GPa) = 52.76301 49.74988 30.60491
#
# Poissons Ratio (x) = -0.16296 0.47476
# Poissons Ratio (y) = -0.17283 0.38867
# Poissons Ratio (z) = 0.81848 0.63180
#
# Static dielectric constant tensor:
#      x y z
#    x 1.737480 0.000000 0.000000 
#    y 0.000000 1.997480 0.000000 
#    z 0.000000 0.000000 1.753220 
# 
# From -- ./inp_files/16518.got.cif
#   From: 2010.05.17/outbox.cif.g08.bks.cpg/sg70_9_cif.got.tgz:16518.got - 2010.06.03 15:57:51.
