data_PCOD9515822
_publ_section_title
;
Structure prediction by ZEFSAII (Michael W. Deem and Ramdas Pophale) SiO2 
 PCOD9515822
Probable space group: F D D D
;
_chemical_formula_sum "Si O2"
_cell_formula_units_Z 192
_cell_length_a 11.601693
_cell_length_b 28.057742
_cell_length_c 28.429445
_cell_angle_alpha 90.000000
_cell_angle_beta 90.000000
_cell_angle_gamma 90.000000
_cell_volume 9254.276432
_symmetry_space_group_name_H-M "F D D D"
_symmetry_group_IT_number 70
_space_group.IT_coordinate_system_code '2'
_symmetry_cell_setting 'orthorhombic'
loop_
_space_group_symop_operation_xyz
x,y,z
1/4-x,1/4-y,z
x,1/4-y,1/4-z
1/4-x,y,1/4-z
-x,-y,-z
3/4+x,3/4+y,-z
-x,3/4+y,3/4+z
3/4+x,-y,3/4+z
x,1/2+y,1/2+z
1/4-x,3/4-y,1/2+z
x,3/4-y,3/4-z
1/4-x,1/2+y,3/4-z
-x,1/2-y,1/2-z
3/4+x,1/4+y,1/2-z
-x,1/4+y,1/4+z
3/4+x,1/2-y,1/4+z
1/2+x,y,1/2+z
3/4-x,1/4-y,1/2+z
1/2+x,1/4-y,3/4-z
3/4-x,y,3/4-z
1/2-x,-y,1/2-z
1/4+x,3/4+y,1/2-z
1/2-x,3/4+y,1/4+z
1/4+x,-y,1/4+z
1/2+x,1/2+y,z
3/4-x,3/4-y,z
1/2+x,3/4-y,1/4-z
3/4-x,1/2+y,1/4-z
1/2-x,1/2-y,-z
1/4+x,1/4+y,-z
1/2-x,1/4+y,3/4+z
1/4+x,1/2-y,3/4+z
loop_
_atom_site_type_symbol
_atom_site_label
_atom_site_fract_x
_atom_site_fract_y
_atom_site_fract_z
Si Si1 0.375000 0.059467 0.375000
Si Si2 0.593679 0.326322 0.971384
Si Si3 0.931267 0.925057 0.425043
Si Si4 0.268223 0.768030 0.767944
Si Si5 0.451098 0.276752 0.703198
Si Si6 0.375000 0.875000 0.500183
Si Si7 0.491031 0.638110 0.459355
O O1 0.289624 0.029389 0.340452
O O2 0.446566 0.094095 0.340758
O O3 0.682310 0.328667 0.928541
O O4 0.482482 0.359260 0.968854
O O5 0.545923 0.273848 0.981620
O O6 0.667636 0.345941 0.016301
O O7 0.875000 0.932939 0.375000
O O8 0.875000 0.875000 0.441509
O O9 0.886775 0.967126 0.457720
O O10 0.171269 0.749790 0.804279
O O11 0.224545 0.815485 0.742377
O O12 0.500000 0.250000 0.750000
O O13 0.417586 0.330726 0.718086
O O14 0.625000 0.625000 0.456041
#
# Coordination Sequence:
#
# PCOD9515822 Si02
#       7
#    16  32  32  32  32  16  32
#     4  12  26  42  68  99 140 182 233 292 362 430
#     4  11  21  41  70  96 134 179 228 280 355 412
#     4  11  23  41  66  96 131 177 225 280 341 412
#     4  11  22  41  69  95 132 182 225 281 354 416
#     4  11  23  43  67  96 138 183 228 288 357 425
#     4  10  22  40  70  97 128 184 232 284 357 422
#     4  12  24  42  69  98 136 177 227 289 355 420
#
# _framework density 20.747166
#
# number of rings (size 3 to 8) (size 9 to 14) (size 15 to 20)
#    0.000    0.833    6.667    0.500    1.167    1.333 
#    1.500    0.000    0.000    2.500    0.000    0.000 
#    0.000    0.000    0.000    0.000    0.000    0.000 
#
# Total GULP energy -268025.628668 kJ/mol
# GULP energy per Si atom -5583.867264 kJ/mol
# Density = 2.069994 g / cm^3
# Si number density = 20.747166 Si / 1000 Ang^3
#
#
#
# Elastic Constant Matrix: (Units=GPa)
#
#
# Indices 1 2 3 4 5 6 
#
# 1 130.5843 15.1527 30.3359 0.0000 0.0000 0.0000
# 2 15.1527 86.5083 12.4056 0.0000 0.0000 0.0000
# 3 30.3359 12.4056 83.9867 0.0000 0.0000 0.0000
# 4 0.0000 0.0000 0.0000 6.7144 0.0000 0.0000
# 5 0.0000 0.0000 0.0000 0.0000 22.4472 0.0000
# 6 0.0000 0.0000 0.0000 0.0000 0.0000 34.6998
#
#
#
# Elastic Compliance Matrix: (Units=1/GPa)
#
#
# Indices 1 2 3 4 5 6 
#
# 1 0.008454 -0.001066 -0.002896 0.000000 0.000000 0.000000
# 2 -0.001066 0.011944 -0.001379 0.000000 0.000000 0.000000
# 3 -0.002896 -0.001379 0.013157 0.000000 0.000000 0.000000
# 4 0.000000 0.000000 0.000000 0.148934 0.000000 0.000000
# 5 0.000000 0.000000 0.000000 0.000000 0.044549 0.000000
# 6 0.000000 0.000000 0.000000 0.000000 0.000000 0.028819
#
#
# Mechanical properties :
#
#
# Convention : Reuss Voigt Hill
#
# Bulk Modulus (GPa) = 43.72060 46.31862 45.01961
# Shear Modulus (GPa) = 18.23733 28.98463 23.61098
#
# Velocity S-wave (km/s) = 2.96806 3.74176 3.37714
# Velocity P-wave (km/s) = 5.73277 6.40636 6.07890
#
# Compressibility (1/GPa) = 0.02287252
#
# Stress axis : x y z
#
# Youngs Moduli (GPa) = 118.28203 83.72387 76.00782
#
# Poissons Ratio (x) = 0.08921 0.22014
# Poissons Ratio (y) = 0.12603 0.10484
# Poissons Ratio (z) = 0.34258 0.11549
#
# Static dielectric constant tensor:
#      x y z
#    x 1.779710 0.000000 0.000000 
#    y 0.000000 1.734640 0.000000 
#    z 0.000000 0.000000 1.775110 
# 
# From -- ./inp_files/57826.got.cif
#   From: 2010.05.17/outbox.cif.g08.bks.cpg/sg70_29_cif.got.tgz:57826.got - 2010.06.03 15:57:51.
