data_PCOD9515939
_publ_section_title
;
Structure prediction by ZEFSAII (Michael W. Deem and Ramdas Pophale) SiO2 
 PCOD9515939
Probable space group: F D D D
;
_chemical_formula_sum "Si O2"
_cell_formula_units_Z 160
_cell_length_a 22.364245
_cell_length_b 19.719719
_cell_length_c 15.705105
_cell_angle_alpha 90.000000
_cell_angle_beta 90.000000
_cell_angle_gamma 90.000000
_cell_volume 6926.212435
_symmetry_space_group_name_H-M "F D D D"
_symmetry_group_IT_number 70
_space_group.IT_coordinate_system_code '2'
_symmetry_cell_setting 'orthorhombic'
loop_
_space_group_symop_operation_xyz
x,y,z
1/4-x,1/4-y,z
x,1/4-y,1/4-z
1/4-x,y,1/4-z
-x,-y,-z
3/4+x,3/4+y,-z
-x,3/4+y,3/4+z
3/4+x,-y,3/4+z
x,1/2+y,1/2+z
1/4-x,3/4-y,1/2+z
x,3/4-y,3/4-z
1/4-x,1/2+y,3/4-z
-x,1/2-y,1/2-z
3/4+x,1/4+y,1/2-z
-x,1/4+y,1/4+z
3/4+x,1/2-y,1/4+z
1/2+x,y,1/2+z
3/4-x,1/4-y,1/2+z
1/2+x,1/4-y,3/4-z
3/4-x,y,3/4-z
1/2-x,-y,1/2-z
1/4+x,3/4+y,1/2-z
1/2-x,3/4+y,1/4+z
1/4+x,-y,1/4+z
1/2+x,1/2+y,z
3/4-x,3/4-y,z
1/2+x,3/4-y,1/4-z
3/4-x,1/2+y,1/4-z
1/2-x,1/2-y,-z
1/4+x,1/4+y,-z
1/2-x,1/4+y,3/4+z
1/4+x,1/2-y,3/4+z
loop_
_atom_site_type_symbol
_atom_site_label
_atom_site_fract_x
_atom_site_fract_y
_atom_site_fract_z
Si Si1 0.155977 0.367498 0.715443
Si Si2 0.814432 0.899789 0.611119
Si Si3 0.788271 0.550833 0.156948
Si Si4 0.533564 0.856408 0.966693
Si Si5 0.474981 0.953855 0.246930
O O1 0.125000 0.379803 0.625000
O O2 0.196707 0.433015 0.744585
O O3 0.095743 0.354770 0.769745
O O4 0.204638 0.306919 0.719661
O O5 0.875000 0.875000 0.568470
O O6 0.760619 0.884087 0.546255
O O7 0.807397 0.855863 0.697124
O O8 0.816192 0.979093 0.633594
O O9 0.811681 0.625000 0.125000
O O10 0.727650 0.549483 0.099908
O O11 0.507349 0.875000 0.875000
O O12 0.548009 0.776286 0.968085
#
# Coordination Sequence:
#
# PCOD9515939 Si02
#       5
#    32  32  32  32  32
#     4  11  21  43  70 100 131 180 228 288 349 421
#     4  11  23  42  64  97 138 173 227 290 339 417
#     4   9  21  40  66  93 128 169 218 275 342 412
#     4  11  24  44  66  98 134 182 231 285 356 416
#     4  10  22  43  67 100 133 176 230 281 350 420
#
# _framework density 23.100650000000002
#
# number of rings (size 3 to 8) (size 9 to 14) (size 15 to 20)
#    0.000    1.600    2.000    3.000    0.000    6.000 
#   14.400    0.000    0.000    0.000    0.000    0.000 
#    0.000    0.000    0.000    0.000    0.000    0.000 
#
# Total GULP energy -222674.623065 kJ/mol
# GULP energy per Si atom -5566.865577 kJ/mol
# Density = 2.304807 g / cm^3
# Si number density = 23.100650 Si / 1000 Ang^3
#
#
#
# Elastic Constant Matrix: (Units=GPa)
#
#
# Indices 1 2 3 4 5 6 
#
# 1 83.2448 -7.6564 -11.7304 0.0000 0.0000 0.0000
# 2 -7.6564 56.7270 -15.5547 0.0000 0.0000 0.0000
# 3 -11.7304 -15.5547 82.6904 0.0000 0.0000 0.0000
# 4 0.0000 0.0000 0.0000 15.8904 0.0000 0.0000
# 5 0.0000 0.0000 0.0000 0.0000 16.8156 0.0000
# 6 0.0000 0.0000 0.0000 0.0000 0.0000 9.8843
#
#
#
# Elastic Compliance Matrix: (Units=1/GPa)
#
#
# Indices 1 2 3 4 5 6 
#
# 1 0.012536 0.002298 0.002211 0.000000 0.000000 0.000000
# 2 0.002298 0.019008 0.003902 0.000000 0.000000 0.000000
# 3 0.002211 0.003902 0.013141 0.000000 0.000000 0.000000
# 4 0.000000 0.000000 0.000000 0.062931 0.000000 0.000000
# 5 0.000000 0.000000 0.000000 0.000000 0.059469 0.000000
# 6 0.000000 0.000000 0.000000 0.000000 0.000000 0.101171
#
#
# Mechanical properties :
#
#
# Convention : Reuss Voigt Hill
#
# Bulk Modulus (GPa) = 16.25878 16.97547 16.61713
# Shear Modulus (GPa) = 18.38665 25.69163 22.03914
#
# Velocity S-wave (km/s) = 2.82430 3.33852 3.09212
# Velocity P-wave (km/s) = 4.20583 4.71439 4.46735
#
# Compressibility (1/GPa) = 0.06150522
#
# Stress axis : x y z
#
# Youngs Moduli (GPa) = 79.77257 52.60866 76.09878
#
# Poissons Ratio (x) = -0.12090 -0.16822
# Poissons Ratio (y) = -0.18332 -0.29691
# Poissons Ratio (z) = -0.17634 -0.20526
#
# Static dielectric constant tensor:
#      x y z
#    x 1.901690 0.000000 0.000000 
#    y 0.000000 1.825680 0.000000 
#    z 0.000000 0.000000 2.216690 
# 
# From -- ./inp_files/36325.got.cif
#   From: 2010.05.17/outbox.cif.g08.bks.cpg/sg70_19_cif.got.tgz:36325.got - 2010.06.03 15:57:51.
