data_PCOD9515943
_publ_section_title
;
Structure prediction by ZEFSAII (Michael W. Deem and Ramdas Pophale) SiO2 
 PCOD9515943
Probable space group: F D D D
;
_chemical_formula_sum "Si O2"
_cell_formula_units_Z 160
_cell_length_a 24.584941
_cell_length_b 23.690946
_cell_length_c 10.875618
_cell_angle_alpha 90.000000
_cell_angle_beta 90.000000
_cell_angle_gamma 90.000000
_cell_volume 6334.400491
_symmetry_space_group_name_H-M "F D D D"
_symmetry_group_IT_number 70
_space_group.IT_coordinate_system_code '2'
_symmetry_cell_setting 'orthorhombic'
loop_
_space_group_symop_operation_xyz
x,y,z
1/4-x,1/4-y,z
x,1/4-y,1/4-z
1/4-x,y,1/4-z
-x,-y,-z
3/4+x,3/4+y,-z
-x,3/4+y,3/4+z
3/4+x,-y,3/4+z
x,1/2+y,1/2+z
1/4-x,3/4-y,1/2+z
x,3/4-y,3/4-z
1/4-x,1/2+y,3/4-z
-x,1/2-y,1/2-z
3/4+x,1/4+y,1/2-z
-x,1/4+y,1/4+z
3/4+x,1/2-y,1/4+z
1/2+x,y,1/2+z
3/4-x,1/4-y,1/2+z
1/2+x,1/4-y,3/4-z
3/4-x,y,3/4-z
1/2-x,-y,1/2-z
1/4+x,3/4+y,1/2-z
1/2-x,3/4+y,1/4+z
1/4+x,-y,1/4+z
1/2+x,1/2+y,z
3/4-x,3/4-y,z
1/2+x,3/4-y,1/4-z
3/4-x,1/2+y,1/4-z
1/2-x,1/2-y,-z
1/4+x,1/4+y,-z
1/2-x,1/4+y,3/4+z
1/4+x,1/2-y,3/4+z
loop_
_atom_site_type_symbol
_atom_site_label
_atom_site_fract_x
_atom_site_fract_y
_atom_site_fract_z
Si Si1 0.233321 0.699941 0.724353
Si Si2 0.063690 0.397377 0.748729
Si Si3 0.366825 0.496232 0.069746
Si Si4 0.520192 0.068989 0.450476
Si Si5 0.929763 0.229420 0.825831
O O1 0.171268 0.719549 0.717523
O O2 0.252738 0.702313 0.582640
O O3 0.226286 0.636035 0.772684
O O4 0.273960 0.731496 0.820009
O O5 0.036029 0.375000 0.875000
O O6 0.115397 0.436706 0.784983
O O7 0.077700 0.337818 0.689339
O O8 0.022684 0.431372 0.661657
O O9 0.421746 0.460358 0.080693
O O10 0.324751 0.495688 0.187951
O O11 0.875000 0.256167 0.875000
#
# Coordination Sequence:
#
# PCOD9515943 Si02
#       5
#    32  32  32  32  32
#     4  10  22  43  67  97 142 178 229 294 351 417
#     4   9  22  45  68  97 140 177 228 283 344 421
#     4  11  22  40  70  99 134 176 234 288 351 417
#     4  10  22  43  69 102 136 181 229 291 356 418
#     4  10  23  44  63  92 135 188 228 280 350 419
#
# _framework density 25.258903
#
# number of rings (size 3 to 8) (size 9 to 14) (size 15 to 20)
#    0.000    2.000    0.000    1.800    2.800    4.000 
#   25.200    0.000    0.000    0.000    0.000    0.000 
#    0.000    0.000    0.000    0.000    0.000    0.000 
#
# Total GULP energy -222879.402685 kJ/mol
# GULP energy per Si atom -5571.985067 kJ/mol
# Density = 2.520141 g / cm^3
# Si number density = 25.258903 Si / 1000 Ang^3
#
#
#
# Elastic Constant Matrix: (Units=GPa)
#
#
# Indices 1 2 3 4 5 6 
#
# 1 157.6263 46.1025 95.1614 0.0000 0.0000 0.0000
# 2 46.1025 51.0591 39.2490 -0.0001 0.0001 0.0000
# 3 95.1614 39.2490 138.2514 -0.0004 0.0003 0.0003
# 4 0.0000 -0.0001 -0.0004 46.2114 0.0002 0.0001
# 5 0.0000 0.0001 0.0003 0.0002 40.3512 -0.0001
# 6 0.0000 0.0000 0.0003 0.0001 -0.0001 11.6223
#
#
#
# Elastic Compliance Matrix: (Units=1/GPa)
#
#
# Indices 1 2 3 4 5 6 
#
# 1 0.012048 -0.005761 -0.006658 0.000000 0.000000 0.000000
# 2 -0.005761 0.027807 -0.003929 0.000000 0.000000 0.000000
# 3 -0.006658 -0.003929 0.012931 0.000000 0.000000 0.000000
# 4 0.000000 0.000000 0.000000 0.021640 0.000000 0.000000
# 5 0.000000 0.000000 0.000000 0.000000 0.024782 0.000000
# 6 0.000000 0.000000 0.000000 0.000000 0.000000 0.086041
#
#
# Mechanical properties :
#
#
# Convention : Reuss Voigt Hill
#
# Bulk Modulus (GPa) = 49.77222 78.66251 64.21736
# Shear Modulus (GPa) = 22.25761 30.73192 26.49476
#
# Velocity S-wave (km/s) = 2.97169 3.49187 3.24223
# Velocity P-wave (km/s) = 5.61446 6.88968 6.28450
#
# Compressibility (1/GPa) = 0.02009153
#
# Stress axis : x y z
#
# Youngs Moduli (GPa) = 82.99814 35.96212 77.33245
#
# Poissons Ratio (x) = 0.20718 0.51485
# Poissons Ratio (y) = 0.47816 0.30382
# Poissons Ratio (z) = 0.55257 0.14129
#
# Static dielectric constant tensor:
#      x y z
#    x 1.947940 0.000000 0.000000 
#    y 0.000000 2.060180 0.000000 
#    z 0.000000 0.000000 2.290540 
# 
# From -- ./inp_files/19503.got.cif
#   From: 2010.05.17/outbox.cif.g08.bks.cpg/sg70_10_cif.got.tgz:19503.got - 2010.06.03 15:57:51.
