data_PCOD9515775
_publ_section_title
;
Structure prediction by ZEFSAII (Michael W. Deem and Ramdas Pophale) SiO2 
 PCOD9515775
Probable space group: F D D D
;
_chemical_formula_sum "Si O2"
_cell_formula_units_Z 160
_cell_length_a 13.884501
_cell_length_b 20.877672
_cell_length_c 24.868403
_cell_angle_alpha 90.000000
_cell_angle_beta 90.000000
_cell_angle_gamma 90.000000
_cell_volume 7208.754624
_symmetry_space_group_name_H-M "F D D D"
_symmetry_group_IT_number 70
_space_group.IT_coordinate_system_code '2'
_symmetry_cell_setting 'orthorhombic'
loop_
_space_group_symop_operation_xyz
x,y,z
1/4-x,1/4-y,z
x,1/4-y,1/4-z
1/4-x,y,1/4-z
-x,-y,-z
3/4+x,3/4+y,-z
-x,3/4+y,3/4+z
3/4+x,-y,3/4+z
x,1/2+y,1/2+z
1/4-x,3/4-y,1/2+z
x,3/4-y,3/4-z
1/4-x,1/2+y,3/4-z
-x,1/2-y,1/2-z
3/4+x,1/4+y,1/2-z
-x,1/4+y,1/4+z
3/4+x,1/2-y,1/4+z
1/2+x,y,1/2+z
3/4-x,1/4-y,1/2+z
1/2+x,1/4-y,3/4-z
3/4-x,y,3/4-z
1/2-x,-y,1/2-z
1/4+x,3/4+y,1/2-z
1/2-x,3/4+y,1/4+z
1/4+x,-y,1/4+z
1/2+x,1/2+y,z
3/4-x,3/4-y,z
1/2+x,3/4-y,1/4-z
3/4-x,1/2+y,1/4-z
1/2-x,1/2-y,-z
1/4+x,1/4+y,-z
1/2-x,1/4+y,3/4+z
1/4+x,1/2-y,3/4+z
loop_
_atom_site_type_symbol
_atom_site_label
_atom_site_fract_x
_atom_site_fract_y
_atom_site_fract_z
Si Si1 0.664372 0.036566 0.065107
Si Si2 0.875000 0.375000 0.468723
Si Si3 0.635226 0.026612 0.438178
Si Si4 0.831652 0.631869 0.065310
Si Si5 0.375000 0.375000 0.155043
Si Si6 0.748749 0.087383 0.245176
O O1 0.625000 0.044865 0.125000
O O2 0.714613 0.099586 0.040050
O O3 0.567726 0.030664 0.029234
O O4 0.748717 0.984035 0.064697
O O5 0.891612 0.433188 0.509684
O O6 0.779103 0.388498 0.435749
O O7 0.604159 0.065532 0.384776
O O8 0.588619 0.957395 0.444213
O O9 0.874444 0.625000 0.125000
O O10 0.890161 0.590489 0.021675
O O11 0.287569 0.395446 0.194941
#
# Coordination Sequence:
#
# PCOD9515775 Si02
#       6
#    32  16  32  32  16  32
#     4   9  16  31  57  85 115 149 186 239 302 357
#     4  11  25  44  61  84 119 166 211 251 302 360
#     4  10  22  40  61  88 124 159 201 250 298 363
#     4  11  23  41  64  90 119 158 207 259 305 359
#     4   9  20  38  60  90 124 162 200 237 304 380
#     4   9  18  35  58  88 121 152 191 249 309 362
#
# _framework density 22.195233999999999
#
# number of rings (size 3 to 8) (size 9 to 14) (size 15 to 20)
#    0.000    2.400    0.000    4.500    0.000    6.400 
#    0.000   11.000    0.000    0.000    0.000    0.000 
#    0.000    0.000    0.000    0.000    0.000    0.000 
#
# Total GULP energy -223260.506324 kJ/mol
# GULP energy per Si atom -5581.512658 kJ/mol
# Density = 2.214472 g / cm^3
# Si number density = 22.195234 Si / 1000 Ang^3
#
#
#
# Elastic Constant Matrix: (Units=GPa)
#
#
# Indices 1 2 3 4 5 6 
#
# 1 108.8016 -10.8395 25.3691 0.0000 0.0000 0.0000
# 2 -10.8395 61.6365 20.0495 0.0000 0.0000 0.0000
# 3 25.3691 20.0495 115.7477 0.0000 0.0000 0.0000
# 4 0.0000 0.0000 0.0000 17.1271 0.0000 0.0000
# 5 0.0000 0.0000 0.0000 0.0000 30.9461 0.0000
# 6 0.0000 0.0000 0.0000 0.0000 0.0000 15.3528
#
#
#
# Elastic Compliance Matrix: (Units=1/GPa)
#
#
# Indices 1 2 3 4 5 6 
#
# 1 0.010075 0.002639 -0.002665 0.000000 0.000000 0.000000
# 2 0.002639 0.017884 -0.003676 0.000000 0.000000 0.000000
# 3 -0.002665 -0.003676 0.009860 0.000000 0.000000 0.000000
# 4 0.000000 0.000000 0.000000 0.058387 0.000000 0.000000
# 5 0.000000 0.000000 0.000000 0.000000 0.032314 0.000000
# 6 0.000000 0.000000 0.000000 0.000000 0.000000 0.065135
#
#
# Mechanical properties :
#
#
# Convention : Reuss Voigt Hill
#
# Bulk Modulus (GPa) = 32.87903 39.48266 36.18085
# Shear Modulus (GPa) = 23.67432 29.45899 26.56665
#
# Velocity S-wave (km/s) = 3.26949 3.64712 3.46345
# Velocity P-wave (km/s) = 5.39430 5.96345 5.68600
#
# Compressibility (1/GPa) = 0.03041452
#
# Stress axis : x y z
#
# Youngs Moduli (GPa) = 99.25139 55.91579 101.41522
#
# Poissons Ratio (x) = -0.14756 0.27031
# Poissons Ratio (y) = -0.26191 0.37282
# Poissons Ratio (z) = 0.26454 0.20556
#
# Static dielectric constant tensor:
#      x y z
#    x 1.946880 0.000000 0.000000 
#    y 0.000000 1.633530 0.000000 
#    z 0.000000 0.000000 1.766080 
# 
# From -- ./inp_files/58551.got.cif
#   From: 2010.05.17/outbox.cif.g08.bks.cpg/sg70_30_cif.got.tgz:58551.got - 2010.06.03 15:57:51.
