data_PCOD9515073
_publ_section_title
;
Structure prediction by ZEFSAII (Michael W. Deem and Ramdas Pophale) SiO2 
 PCOD9515073
Probable space group: F D D D
;
_chemical_formula_sum "Si O2"
_cell_formula_units_Z 192
_cell_length_a 18.945341
_cell_length_b 13.940066
_cell_length_c 32.937973
_cell_angle_alpha 90.000000
_cell_angle_beta 90.000000
_cell_angle_gamma 90.000000
_cell_volume 8698.895742
_symmetry_space_group_name_H-M "F D D D"
_symmetry_group_IT_number 70
_space_group.IT_coordinate_system_code '2'
_symmetry_cell_setting 'orthorhombic'
loop_
_space_group_symop_operation_xyz
x,y,z
1/4-x,1/4-y,z
x,1/4-y,1/4-z
1/4-x,y,1/4-z
-x,-y,-z
3/4+x,3/4+y,-z
-x,3/4+y,3/4+z
3/4+x,-y,3/4+z
x,1/2+y,1/2+z
1/4-x,3/4-y,1/2+z
x,3/4-y,3/4-z
1/4-x,1/2+y,3/4-z
-x,1/2-y,1/2-z
3/4+x,1/4+y,1/2-z
-x,1/4+y,1/4+z
3/4+x,1/2-y,1/4+z
1/2+x,y,1/2+z
3/4-x,1/4-y,1/2+z
1/2+x,1/4-y,3/4-z
3/4-x,y,3/4-z
1/2-x,-y,1/2-z
1/4+x,3/4+y,1/2-z
1/2-x,3/4+y,1/4+z
1/4+x,-y,1/4+z
1/2+x,1/2+y,z
3/4-x,3/4-y,z
1/2+x,3/4-y,1/4-z
3/4-x,1/2+y,1/4-z
1/2-x,1/2-y,-z
1/4+x,1/4+y,-z
1/2-x,1/4+y,3/4+z
1/4+x,1/2-y,3/4+z
loop_
_atom_site_type_symbol
_atom_site_label
_atom_site_fract_x
_atom_site_fract_y
_atom_site_fract_z
Si Si1 0.823153 0.190586 0.500505
Si Si2 0.169841 0.718999 0.685283
Si Si3 0.456950 0.333733 0.269592
Si Si4 0.375000 0.875000 0.694415
Si Si5 0.083352 0.921527 0.830649
Si Si6 0.435054 0.009218 0.806553
Si Si7 0.375000 0.134362 0.375000
O O1 0.750000 0.250000 0.500000
O O2 0.885435 0.249902 0.478256
O O3 0.849404 0.151791 0.543884
O O4 0.803892 0.097686 0.473288
O O5 0.125000 0.625000 0.672475
O O6 0.250984 0.693190 0.679226
O O7 0.157461 0.812846 0.657839
O O8 0.500000 0.250000 0.250000
O O9 0.436654 0.388336 0.227737
O O10 0.483851 0.417039 0.299013
O O11 0.392361 0.281744 0.293196
O O12 0.375515 0.773335 0.671692
O O13 0.090024 0.875000 0.875000
O O14 0.430640 0.048923 0.851792
#
# Coordination Sequence:
#
# PCOD9515073 Si02
#       7
#    32  32  32  16  32  32  16
#     4  11  22  41  64 102 136 178 228 291 352 440
#     4  11  23  40  68 101 141 187 234 284 367 437
#     4  10  20  39  67  86 120 178 228 278 342 421
#     4  10  24  44  62  91 130 178 236 279 358 428
#     4  12  25  46  71 101 143 190 243 306 362 431
#     4   9  21  38  61  92 129 167 224 280 338 421
#     4  10  21  35  60  98 136 168 222 294 352 402
#
# _framework density 22.071767000000001
#
# number of rings (size 3 to 8) (size 9 to 14) (size 15 to 20)
#    0.000    1.667    5.000    1.250    7.000    1.333 
#    1.500    1.667    0.000    0.000    0.000    0.000 
#    0.000    0.000    0.000    0.000    0.000    0.000 
#
# Total GULP energy -267576.628985 kJ/mol
# GULP energy per Si atom -5574.513104 kJ/mol
# Density = 2.202153 g / cm^3
# Si number density = 22.071767 Si / 1000 Ang^3
#
#
#
# Elastic Constant Matrix: (Units=GPa)
#
#
# Indices 1 2 3 4 5 6 
#
# 1 35.9570 19.7611 19.3555 0.0000 0.0000 0.0000
# 2 19.7611 166.1139 75.3984 0.0000 0.0000 0.0000
# 3 19.3555 75.3984 156.0264 0.0000 0.0000 0.0000
# 4 0.0000 0.0000 0.0000 36.2698 0.0000 0.0000
# 5 0.0000 0.0000 0.0000 0.0000 15.2516 0.0000
# 6 0.0000 0.0000 0.0000 0.0000 0.0000 41.6383
#
#
#
# Elastic Compliance Matrix: (Units=1/GPa)
#
#
# Indices 1 2 3 4 5 6 
#
# 1 0.030562 -0.002453 -0.002606 0.000000 0.000000 0.000000
# 2 -0.002453 0.007908 -0.003517 0.000000 0.000000 0.000000
# 3 -0.002606 -0.003517 0.008432 0.000000 0.000000 0.000000
# 4 0.000000 0.000000 0.000000 0.027571 0.000000 0.000000
# 5 0.000000 0.000000 0.000000 0.000000 0.065567 0.000000
# 6 0.000000 0.000000 0.000000 0.000000 0.000000 0.024016
#
#
# Mechanical properties :
#
#
# Convention : Reuss Voigt Hill
#
# Bulk Modulus (GPa) = 33.61347 65.23636 49.42492
# Shear Modulus (GPa) = 26.16082 34.87078 30.51580
#
# Velocity S-wave (km/s) = 3.44650 3.97908 3.72233
# Velocity P-wave (km/s) = 5.57674 7.12260 6.39654
#
# Compressibility (1/GPa) = 0.02974998
#
# Stress axis : x y z
#
# Youngs Moduli (GPa) = 32.72063 126.45028 118.59363
#
# Poissons Ratio (x) = 0.31016 0.30905
# Poissons Ratio (y) = 0.08026 0.41713
# Poissons Ratio (z) = 0.08527 0.44477
#
# Static dielectric constant tensor:
#      x y z
#    x 1.962750 0.000000 0.000000 
#    y 0.000000 1.885360 0.000000 
#    z 0.000000 0.000000 1.819590 
# 
# From -- ./inp_files/61177.got.cif
#   From: 2010.05.17/outbox.cif.g08.bks.cpg/sg70_31_cif.got.tgz:61177.got - 2010.06.03 15:57:51.
