data_PCOD9515854
_publ_section_title
;
Structure prediction by ZEFSAII (Michael W. Deem and Ramdas Pophale) SiO2 
 PCOD9515854
Probable space group: F D D D
;
_chemical_formula_sum "Si O2"
_cell_formula_units_Z 176
_cell_length_a 12.445258
_cell_length_b 31.555649
_cell_length_c 22.074864
_cell_angle_alpha 90.000000
_cell_angle_beta 90.000000
_cell_angle_gamma 90.000000
_cell_volume 8669.200704
_symmetry_space_group_name_H-M "F D D D"
_symmetry_group_IT_number 70
_space_group.IT_coordinate_system_code '2'
_symmetry_cell_setting 'orthorhombic'
loop_
_space_group_symop_operation_xyz
x,y,z
1/4-x,1/4-y,z
x,1/4-y,1/4-z
1/4-x,y,1/4-z
-x,-y,-z
3/4+x,3/4+y,-z
-x,3/4+y,3/4+z
3/4+x,-y,3/4+z
x,1/2+y,1/2+z
1/4-x,3/4-y,1/2+z
x,3/4-y,3/4-z
1/4-x,1/2+y,3/4-z
-x,1/2-y,1/2-z
3/4+x,1/4+y,1/2-z
-x,1/4+y,1/4+z
3/4+x,1/2-y,1/4+z
1/2+x,y,1/2+z
3/4-x,1/4-y,1/2+z
1/2+x,1/4-y,3/4-z
3/4-x,y,3/4-z
1/2-x,-y,1/2-z
1/4+x,3/4+y,1/2-z
1/2-x,3/4+y,1/4+z
1/4+x,-y,1/4+z
1/2+x,1/2+y,z
3/4-x,3/4-y,z
1/2+x,3/4-y,1/4-z
3/4-x,1/2+y,1/4-z
1/2-x,1/2-y,-z
1/4+x,1/4+y,-z
1/2-x,1/4+y,3/4+z
1/4+x,1/2-y,3/4+z
loop_
_atom_site_type_symbol
_atom_site_label
_atom_site_fract_x
_atom_site_fract_y
_atom_site_fract_z
Si Si1 0.222409 0.711745 0.082998
Si Si2 0.214149 0.786813 0.374414
Si Si3 0.491205 0.059958 0.948849
Si Si4 0.371359 0.324328 0.970151
Si Si5 0.125000 0.374995 0.125000
Si Si6 0.184208 0.059807 0.356331
O O1 0.125000 0.697820 0.125000
O O2 0.337162 0.706991 0.115905
O O3 0.206533 0.761716 0.066590
O O4 0.228233 0.688314 0.018871
O O5 0.266561 0.808648 0.433028
O O6 0.278159 0.805015 0.316597
O O7 0.231671 0.736477 0.379592
O O8 0.401990 0.093845 0.930497
O O9 0.592965 0.068570 0.905883
O O10 0.375000 0.375000 0.968071
O O11 0.365926 0.309459 0.039271
O O12 0.225048 0.345284 0.109781
#
# Coordination Sequence:
#
# PCOD9515854 Si02
#       6
#    32  32  32  32  16  32
#     4  10  22  41  66  92 130 178 220 273 324 404
#     4  10  23  41  67  96 132 169 226 267 330 404
#     4  10  23  39  63  97 127 173 225 267 334 396
#     4  11  23  43  68  98 131 172 221 276 342 383
#     4  12  22  40  64  94 135 164 225 282 332 384
#     4  11  25  40  66  98 131 175 216 281 328 393
#
# _framework density 20.301756000000001
#
# number of rings (size 3 to 8) (size 9 to 14) (size 15 to 20)
#    0.000    1.455    0.909    4.364    5.091    5.818 
#    0.000    0.000    0.000    0.000    0.000    0.000 
#    0.000    0.000    0.000    0.000    0.000    0.000 
#
# Total GULP energy -246178.208734 kJ/mol
# GULP energy per Si atom -5594.959289 kJ/mol
# Density = 2.025555 g / cm^3
# Si number density = 20.301756 Si / 1000 Ang^3
#
#
#
# Elastic Constant Matrix: (Units=GPa)
#
#
# Indices 1 2 3 4 5 6 
#
# 1 93.0832 44.5435 70.8760 0.0000 0.0000 0.0000
# 2 44.5435 110.3632 38.6476 0.0000 0.0000 0.0000
# 3 70.8760 38.6476 119.1323 0.0000 0.0000 0.0000
# 4 0.0000 0.0000 0.0000 -5.9682 0.0000 0.0000
# 5 0.0000 0.0000 0.0000 0.0000 20.8057 0.0000
# 6 0.0000 0.0000 0.0000 0.0000 0.0000 -136.9642
#
#
#
# Elastic Compliance Matrix: (Units=1/GPa)
#
#
# Indices 1 2 3 4 5 6 
#
# 1 0.021660 -0.004772 -0.011338 0.000000 0.000000 0.000000
# 2 -0.004772 0.011273 -0.000818 0.000000 0.000000 0.000000
# 3 -0.011338 -0.000818 0.015405 0.000000 0.000000 0.000000
# 4 0.000000 0.000000 0.000000 -0.167555 0.000000 0.000000
# 5 0.000000 0.000000 0.000000 0.000000 0.048064 0.000000
# 6 0.000000 0.000000 0.000000 0.000000 0.000000 -0.007301
#
#
# Mechanical properties :
#
#
# Convention : Reuss Voigt Hill
#
# Bulk Modulus (GPa) = 69.05224 70.07921 69.56572
# Shear Modulus (GPa) = -125.72120 -13.19124 -69.45622
#
# Velocity S-wave (km/s) = -7.87786 -2.55180 -5.85544
# Velocity P-wave (km/s) = 6.97573 5.09033 3.37264
#
# Compressibility (1/GPa) = 0.01448179
#
# Stress axis : x y z
#
# Youngs Moduli (GPa) = 46.16904 88.70409 64.91414
#
# Poissons Ratio (x) = 0.42326 0.73600
# Poissons Ratio (y) = 0.22030 0.05313
# Poissons Ratio (z) = 0.52347 0.07260
#
# Static dielectric constant tensor:
#      x y z
#    x 1.832500 0.000000 0.000000 
#    y 0.000000 1.712740 0.000000 
#    z 0.000000 0.000000 1.690440 
# 
# From -- ./inp_files/50398.got.cif
#   From: 2010.05.17/outbox.cif.g08.bks.cpg/sg70_26_cif.got.tgz:50398.got - 2010.06.03 15:57:51.
