data_PCOD9515169
_publ_section_title
;
Structure prediction by ZEFSAII (Michael W. Deem and Ramdas Pophale) SiO2 
 PCOD9515169
Probable space group: F D D D
;
_chemical_formula_sum "Si O2"
_cell_formula_units_Z 72
_cell_length_a 31.150111
_cell_length_b 12.006189
_cell_length_c 7.701870
_cell_angle_alpha 90.000000
_cell_angle_beta 90.000000
_cell_angle_gamma 90.000000
_cell_volume 2880.454093
_symmetry_space_group_name_H-M "F D D D"
_symmetry_group_IT_number 70
_space_group.IT_coordinate_system_code '2'
_symmetry_cell_setting 'orthorhombic'
loop_
_space_group_symop_operation_xyz
x,y,z
1/4-x,1/4-y,z
x,1/4-y,1/4-z
1/4-x,y,1/4-z
-x,-y,-z
3/4+x,3/4+y,-z
-x,3/4+y,3/4+z
3/4+x,-y,3/4+z
x,1/2+y,1/2+z
1/4-x,3/4-y,1/2+z
x,3/4-y,3/4-z
1/4-x,1/2+y,3/4-z
-x,1/2-y,1/2-z
3/4+x,1/4+y,1/2-z
-x,1/4+y,1/4+z
3/4+x,1/2-y,1/4+z
1/2+x,y,1/2+z
3/4-x,1/4-y,1/2+z
1/2+x,1/4-y,3/4-z
3/4-x,y,3/4-z
1/2-x,-y,1/2-z
1/4+x,3/4+y,1/2-z
1/2-x,3/4+y,1/4+z
1/4+x,-y,1/4+z
1/2+x,1/2+y,z
3/4-x,3/4-y,z
1/2+x,3/4-y,1/4-z
3/4-x,1/2+y,1/4-z
1/2-x,1/2-y,-z
1/4+x,1/4+y,-z
1/2-x,1/4+y,3/4+z
1/4+x,1/2-y,3/4+z
loop_
_atom_site_type_symbol
_atom_site_label
_atom_site_fract_x
_atom_site_fract_y
_atom_site_fract_z
Si Si1 0.375000 0.375000 0.375000
Si Si2 0.291379 0.530723 0.986194
Si Si3 0.943166 0.786074 0.620436
O O1 0.345357 0.456854 0.487958
O O2 0.301967 0.625000 0.125000
O O3 0.306524 0.412265 0.055605
O O4 0.308786 0.543007 0.789420
O O5 0.239601 0.521595 0.968156
#
# Coordination Sequence:
#
# PCOD9515169 Si02
#       3
#     8  32  32
#     4  12  24  42  60 104 148 180 212 318 368 388
#     4  10  20  41  69  95 125 190 243 275 334 449
#     4  10  23  39  69  95 137 178 235 288 356 408
#
# _framework density 24.99606
#
# number of rings (size 3 to 8) (size 9 to 14) (size 15 to 20)
#    0.000    1.778    2.222    1.333    0.000    3.556 
#    0.000    4.444    0.000    0.000    0.000    0.000 
#    0.000    0.000    0.000    0.000    0.000    0.000 
#
# Total GULP energy -100913.247211 kJ/mol
# GULP energy per Si atom -5606.291512 kJ/mol
# Density = 2.493917 g / cm^3
# Si number density = 24.996060 Si / 1000 Ang^3
#
#
#
# Elastic Constant Matrix: (Units=GPa)
#
#
# Indices 1 2 3 4 5 6 
#
# 1 120.8500 21.1763 111.3157 0.0000 0.0000 0.0000
# 2 21.1763 102.2154 72.1487 0.0000 0.0000 0.0000
# 3 111.3157 72.1487 204.6404 0.0000 0.0000 0.0000
# 4 0.0000 0.0000 0.0000 56.2941 0.0000 0.0000
# 5 0.0000 0.0000 0.0000 0.0000 151.0285 0.0000
# 6 0.0000 0.0000 0.0000 0.0000 0.0000 24.8904
#
#
#
# Elastic Compliance Matrix: (Units=1/GPa)
#
#
# Indices 1 2 3 4 5 6 
#
# 1 0.017842 0.004199 -0.011186 0.000000 0.000000 0.000000
# 2 0.004199 0.014013 -0.007225 0.000000 0.000000 0.000000
# 3 -0.011186 -0.007225 0.013518 0.000000 0.000000 0.000000
# 4 0.000000 0.000000 0.000000 0.017764 0.000000 0.000000
# 5 0.000000 0.000000 0.000000 0.000000 0.006621 0.000000
# 6 0.000000 0.000000 0.000000 0.000000 0.000000 0.040176
#
#
# Mechanical properties :
#
#
# Convention : Reuss Voigt Hill
#
# Bulk Modulus (GPa) = 58.99417 92.99859 75.99638
# Shear Modulus (GPa) = 34.72035 61.31360 48.01697
#
# Velocity S-wave (km/s) = 3.73102 4.95808 4.38766
# Velocity P-wave (km/s) = 6.49717 8.37035 7.49253
#
# Compressibility (1/GPa) = 0.01695083
#
# Stress axis : x y z
#
# Youngs Moduli (GPa) = 56.04636 71.36356 73.97317
#
# Poissons Ratio (x) = -0.29967 0.82746
# Poissons Ratio (y) = -0.23535 0.53442
# Poissons Ratio (z) = 0.62693 0.51557
#
# Static dielectric constant tensor:
#      x y z
#    x 1.916910 0.000000 0.000000 
#    y 0.000000 1.993090 0.000000 
#    z 0.000000 0.000000 2.039670 
# 
# From -- ./inp_files/5934.got.cif
#   From: 2010.05.17/outbox.cif.g08.bks.cpg/sg70_3_cif.got.tgz:5934.got - 2010.06.03 15:57:51.
