data_PCOD9515038
_publ_section_title
;
Structure prediction by ZEFSAII (Michael W. Deem and Ramdas Pophale) SiO2 
 PCOD9515038
Probable space group: F D D D
;
_chemical_formula_sum "Si O2"
_cell_formula_units_Z 224
_cell_length_a 28.934286
_cell_length_b 14.521749
_cell_length_c 25.370982
_cell_angle_alpha 90.000000
_cell_angle_beta 90.000000
_cell_angle_gamma 90.000000
_cell_volume 10660.288865
_symmetry_space_group_name_H-M "F D D D"
_symmetry_group_IT_number 70
_space_group.IT_coordinate_system_code '2'
_symmetry_cell_setting 'orthorhombic'
loop_
_space_group_symop_operation_xyz
x,y,z
1/4-x,1/4-y,z
x,1/4-y,1/4-z
1/4-x,y,1/4-z
-x,-y,-z
3/4+x,3/4+y,-z
-x,3/4+y,3/4+z
3/4+x,-y,3/4+z
x,1/2+y,1/2+z
1/4-x,3/4-y,1/2+z
x,3/4-y,3/4-z
1/4-x,1/2+y,3/4-z
-x,1/2-y,1/2-z
3/4+x,1/4+y,1/2-z
-x,1/4+y,1/4+z
3/4+x,1/2-y,1/4+z
1/2+x,y,1/2+z
3/4-x,1/4-y,1/2+z
1/2+x,1/4-y,3/4-z
3/4-x,y,3/4-z
1/2-x,-y,1/2-z
1/4+x,3/4+y,1/2-z
1/2-x,3/4+y,1/4+z
1/4+x,-y,1/4+z
1/2+x,1/2+y,z
3/4-x,3/4-y,z
1/2+x,3/4-y,1/4-z
3/4-x,1/2+y,1/4-z
1/2-x,1/2-y,-z
1/4+x,1/4+y,-z
1/2-x,1/4+y,3/4+z
1/4+x,1/2-y,3/4+z
loop_
_atom_site_type_symbol
_atom_site_label
_atom_site_fract_x
_atom_site_fract_y
_atom_site_fract_z
Si Si1 0.926395 0.964119 0.269289
Si Si2 0.206546 0.369417 0.195830
Si Si3 0.076295 0.735894 0.274117
Si Si4 0.025883 0.536466 0.878879
Si Si5 0.547265 0.125000 0.125000
Si Si6 0.923824 0.827048 0.819806
Si Si7 0.625000 0.837637 0.125000
Si Si8 0.978506 0.312938 0.506900
O O1 0.937867 0.867971 0.240639
O O2 0.924329 0.926198 0.329268
O O3 0.878293 0.997725 0.246005
O O4 0.967017 0.037749 0.260645
O O5 0.205446 0.441624 0.243571
O O6 0.248857 0.378257 0.155293
O O7 0.160379 0.389432 0.162239
O O8 0.206249 0.269344 0.222189
O O9 0.069880 0.741184 0.336551
O O10 0.036163 0.553795 0.817951
O O11 0.988485 0.455792 0.890400
O O12 0.939143 0.875000 0.875000
O O13 0.875000 0.875000 0.804339
O O14 0.907863 0.725724 0.837785
O O15 0.960853 0.846578 0.774024
#
# Coordination Sequence:
#
# PCOD9515038 Si02
#       8
#    32  32  32  32  16  32  16  32
#     4  10  22  37  57  90 126 167 197 257 309 381
#     4  12  22  38  65  91 117 164 213 261 301 379
#     4  11  22  37  57  87 133 158 203 251 313 369
#     4  11  23  39  60  92 124 170 204 253 313 398
#     4  10  20  39  60  84 124 170 212 242 315 370
#     4   9  17  40  65  88 107 154 208 269 311 352
#     4  10  23  38  68  93 114 154 230 275 306 366
#     4  11  22  40  67  86 123 162 211 250 327 378
#
# _framework density 21.012564000000001
#
# number of rings (size 3 to 8) (size 9 to 14) (size 15 to 20)
#    0.000    1.571    5.714    2.143    4.000    1.143 
#    2.571    0.714    4.714    0.000    0.000    0.000 
#    0.000    0.000    0.000    0.000    0.000    0.000 
#
# Total GULP energy -312354.759080 kJ/mol
# GULP energy per Si atom -5577.763555 kJ/mol
# Density = 2.096474 g / cm^3
# Si number density = 21.012564 Si / 1000 Ang^3
#
#
#
# Elastic Constant Matrix: (Units=GPa)
#
#
# Indices 1 2 3 4 5 6 
#
# 1 101.7987 9.9260 73.2346 0.0000 0.0000 0.0000
# 2 9.9260 30.8595 14.1093 0.0000 0.0000 0.0000
# 3 73.2346 14.1093 148.0183 0.0000 0.0000 0.0000
# 4 0.0000 0.0000 0.0000 21.0469 0.0000 0.0000
# 5 0.0000 0.0000 0.0000 0.0000 29.0362 0.0000
# 6 0.0000 0.0000 0.0000 0.0000 0.0000 17.2072
#
#
#
# Elastic Compliance Matrix: (Units=1/GPa)
#
#
# Indices 1 2 3 4 5 6 
#
# 1 0.015321 -0.001529 -0.007434 0.000000 0.000000 0.000000
# 2 -0.001529 0.034034 -0.002488 0.000000 0.000000 0.000000
# 3 -0.007434 -0.002488 0.010671 0.000000 0.000000 0.000000
# 4 0.000000 0.000000 0.000000 0.047513 0.000000 0.000000
# 5 0.000000 0.000000 0.000000 0.000000 0.034440 0.000000
# 6 0.000000 0.000000 0.000000 0.000000 0.000000 0.058115
#
#
# Mechanical properties :
#
#
# Convention : Reuss Voigt Hill
#
# Bulk Modulus (GPa) = 26.93667 52.80180 39.86923
# Shear Modulus (GPa) = 21.24307 25.68518 23.46412
#
# Velocity S-wave (km/s) = 3.18302 3.50004 3.34529
# Velocity P-wave (km/s) = 5.13381 6.44336 5.82550
#
# Compressibility (1/GPa) = 0.03712412
#
# Stress axis : x y z
#
# Youngs Moduli (GPa) = 65.27077 29.38232 93.70847
#
# Poissons Ratio (x) = 0.04492 0.69667
# Poissons Ratio (y) = 0.09979 0.23312
# Poissons Ratio (z) = 0.48525 0.07310
#
# Static dielectric constant tensor:
#      x y z
#    x 1.786580 0.000000 0.000000 
#    y 0.000000 1.825650 0.000000 
#    z 0.000000 0.000000 1.811830 
# 
# From -- ./inp_files/47760.got.cif
#   From: 2010.05.17/outbox.cif.g08.bks.cpg/sg70_24_cif.got.tgz:47760.got - 2010.06.03 15:57:51.
