data_PCOD9515811
_publ_section_title
;
Structure prediction by ZEFSAII (Michael W. Deem and Ramdas Pophale) SiO2 
 PCOD9515811
Probable space group: F D D D
;
_chemical_formula_sum "Si O2"
_cell_formula_units_Z 112
_cell_length_a 7.940741
_cell_length_b 25.450444
_cell_length_c 26.554083
_cell_angle_alpha 90.000000
_cell_angle_beta 90.000000
_cell_angle_gamma 90.000000
_cell_volume 5366.457604
_symmetry_space_group_name_H-M "F D D D"
_symmetry_group_IT_number 70
_space_group.IT_coordinate_system_code '2'
_symmetry_cell_setting 'orthorhombic'
loop_
_space_group_symop_operation_xyz
x,y,z
1/4-x,1/4-y,z
x,1/4-y,1/4-z
1/4-x,y,1/4-z
-x,-y,-z
3/4+x,3/4+y,-z
-x,3/4+y,3/4+z
3/4+x,-y,3/4+z
x,1/2+y,1/2+z
1/4-x,3/4-y,1/2+z
x,3/4-y,3/4-z
1/4-x,1/2+y,3/4-z
-x,1/2-y,1/2-z
3/4+x,1/4+y,1/2-z
-x,1/4+y,1/4+z
3/4+x,1/2-y,1/4+z
1/2+x,y,1/2+z
3/4-x,1/4-y,1/2+z
1/2+x,1/4-y,3/4-z
3/4-x,y,3/4-z
1/2-x,-y,1/2-z
1/4+x,3/4+y,1/2-z
1/2-x,3/4+y,1/4+z
1/4+x,-y,1/4+z
1/2+x,1/2+y,z
3/4-x,3/4-y,z
1/2+x,3/4-y,1/4-z
3/4-x,1/2+y,1/4-z
1/2-x,1/2-y,-z
1/4+x,1/4+y,-z
1/2-x,1/4+y,3/4+z
1/4+x,1/2-y,3/4+z
loop_
_atom_site_type_symbol
_atom_site_label
_atom_site_fract_x
_atom_site_fract_y
_atom_site_fract_z
Si Si1 0.566805 0.320924 0.393502
Si Si2 0.689469 0.211019 0.353986
Si Si3 0.125000 0.625000 0.823895
Si Si4 0.617314 0.947627 0.508458
O O1 0.647304 0.375000 0.375000
O O2 0.375000 0.319892 0.375000
O O3 0.650598 0.269865 0.369795
O O4 0.576179 0.318761 0.453369
O O5 0.573735 0.171224 0.386317
O O6 0.719671 0.206828 0.294336
O O7 0.875000 0.198295 0.375000
O O8 0.258345 0.597530 0.786347
O O9 0.500000 0.000000 0.500000
#
# Coordination Sequence:
#
# PCOD9515811 Si02
#       4
#    32  32  16  32
#     4  11  26  42  63 101 141 177 225 286 351 403
#     4  10  22  43  69 101 133 179 239 279 336 420
#     4  10  22  40  67 106 131 174 230 286 330 416
#     4  11  23  44  69 104 133 182 233 283 351 409
#
# _framework density 20.870379
#
# number of rings (size 3 to 8) (size 9 to 14) (size 15 to 20)
#    0.000    1.429    5.714    0.000    4.000    7.429 
#    0.000    0.000    0.000    0.000    0.000    0.000 
#    0.000    0.000    0.000    0.000    0.000    0.000 
#
# Total GULP energy -156087.775467 kJ/mol
# GULP energy per Si atom -5574.563410 kJ/mol
# Density = 2.082288 g / cm^3
# Si number density = 20.870379 Si / 1000 Ang^3
#
#
#
# Elastic Constant Matrix: (Units=GPa)
#
#
# Indices 1 2 3 4 5 6 
#
# 1 56.0937 28.7488 49.4146 0.0000 0.0000 0.0000
# 2 28.7488 162.9062 99.2713 0.0000 0.0000 0.0000
# 3 49.4146 99.2713 248.2566 0.0000 0.0000 0.0000
# 4 0.0000 0.0000 0.0000 33.8973 0.0000 0.0000
# 5 0.0000 0.0000 0.0000 0.0000 -31.4302 0.0000
# 6 0.0000 0.0000 0.0000 0.0000 0.0000 20.0806
#
#
#
# Elastic Compliance Matrix: (Units=1/GPa)
#
#
# Indices 1 2 3 4 5 6 
#
# 1 0.021929 -0.001600 -0.003725 0.000000 0.000000 0.000000
# 2 -0.001600 0.008233 -0.002974 0.000000 0.000000 0.000000
# 3 -0.003725 -0.002974 0.005959 0.000000 0.000000 0.000000
# 4 0.000000 0.000000 0.000000 0.029501 0.000000 0.000000
# 5 0.000000 0.000000 0.000000 0.000000 -0.031817 0.000000
# 6 0.000000 0.000000 0.000000 0.000000 0.000000 0.049799
#
#
# Mechanical properties :
#
#
# Convention : Reuss Voigt Hill
#
# Bulk Modulus (GPa) = 51.22145 91.34732 71.28438
# Shear Modulus (GPa) = 46.85634 23.83098 35.34366
#
# Velocity S-wave (km/s) = 4.74340 3.38280 4.11966
# Velocity P-wave (km/s) = 7.38889 7.68906 7.54047
#
# Compressibility (1/GPa) = 0.01952307
#
# Stress axis : x y z
#
# Youngs Moduli (GPa) = 45.60208 121.46330 167.82306
#
# Poissons Ratio (x) = 0.19433 0.62516
# Poissons Ratio (y) = 0.07296 0.49905
# Poissons Ratio (z) = 0.16987 0.36119
#
# Static dielectric constant tensor:
#      x y z
#    x 1.824270 0.000000 0.000000 
#    y 0.000000 2.011320 0.000000 
#    z 0.000000 0.000000 1.779340 
# 
# From -- ./inp_files/10670.got.cif
#   From: 2010.05.17/outbox.cif.g08.bks.cpg/sg70_6_cif.got.tgz:10670.got - 2010.06.03 15:57:51.
