data_PCOD9515979
_publ_section_title
;
Structure prediction by ZEFSAII (Michael W. Deem and Ramdas Pophale) SiO2 
 PCOD9515979
Probable space group: F D D D
;
_chemical_formula_sum "Si O2"
_cell_formula_units_Z 128
_cell_length_a 18.503612
_cell_length_b 24.798837
_cell_length_c 11.972635
_cell_angle_alpha 90.000000
_cell_angle_beta 90.000000
_cell_angle_gamma 90.000000
_cell_volume 5493.859770
_symmetry_space_group_name_H-M "F D D D"
_symmetry_group_IT_number 70
_space_group.IT_coordinate_system_code '2'
_symmetry_cell_setting 'orthorhombic'
loop_
_space_group_symop_operation_xyz
x,y,z
1/4-x,1/4-y,z
x,1/4-y,1/4-z
1/4-x,y,1/4-z
-x,-y,-z
3/4+x,3/4+y,-z
-x,3/4+y,3/4+z
3/4+x,-y,3/4+z
x,1/2+y,1/2+z
1/4-x,3/4-y,1/2+z
x,3/4-y,3/4-z
1/4-x,1/2+y,3/4-z
-x,1/2-y,1/2-z
3/4+x,1/4+y,1/2-z
-x,1/4+y,1/4+z
3/4+x,1/2-y,1/4+z
1/2+x,y,1/2+z
3/4-x,1/4-y,1/2+z
1/2+x,1/4-y,3/4-z
3/4-x,y,3/4-z
1/2-x,-y,1/2-z
1/4+x,3/4+y,1/2-z
1/2-x,3/4+y,1/4+z
1/4+x,-y,1/4+z
1/2+x,1/2+y,z
3/4-x,3/4-y,z
1/2+x,3/4-y,1/4-z
3/4-x,1/2+y,1/4-z
1/2-x,1/2-y,-z
1/4+x,1/4+y,-z
1/2-x,1/4+y,3/4+z
1/4+x,1/2-y,3/4+z
loop_
_atom_site_type_symbol
_atom_site_label
_atom_site_fract_x
_atom_site_fract_y
_atom_site_fract_z
Si Si1 0.512603 0.606179 0.251416
Si Si2 0.378939 0.265059 0.498714
Si Si3 0.451057 0.016182 0.218825
Si Si4 0.125000 0.853768 0.625000
Si Si5 0.625000 0.625000 0.833323
O O1 0.507717 0.625000 0.125000
O O2 0.551704 0.547757 0.251808
O O3 0.434923 0.611012 0.310279
O O4 0.562605 0.642607 0.330800
O O5 0.375000 0.242750 0.375000
O O6 0.465113 0.274546 0.502051
O O7 0.334315 0.232918 0.593466
O O8 0.347232 0.325710 0.509335
O O9 0.409228 0.061988 0.286010
#
# Coordination Sequence:
#
# PCOD9515979 Si02
#       5
#    32  32  32  16  16
#     4  11  25  44  71 107 146 195 248 311 384 457
#     4  11  23  44  68 103 143 196 242 311 376 457
#     4  11  26  44  75 105 148 197 254 312 391 458
#     4  12  26  50  73 112 154 189 256 326 378 450
#     4  10  22  44  68 102 142 187 249 308 378 444
#
# _framework density 23.298739000000001
#
# number of rings (size 3 to 8) (size 9 to 14) (size 15 to 20)
#    0.000    1.000    2.500    3.000    8.750    2.000 
#    9.000    0.000    0.000    0.000    0.000    0.000 
#    0.000    0.000    0.000    0.000    0.000    0.000 
#
# Total GULP energy -178257.932840 kJ/mol
# GULP energy per Si atom -5570.560401 kJ/mol
# Density = 2.324571 g / cm^3
# Si number density = 23.298739 Si / 1000 Ang^3
#
#
#
# Elastic Constant Matrix: (Units=GPa)
#
#
# Indices 1 2 3 4 5 6 
#
# 1 97.1101 16.8741 35.0871 0.0000 0.0000 0.0000
# 2 16.8741 82.8776 53.3270 0.0000 0.0000 0.0000
# 3 35.0871 53.3270 167.3920 0.0000 0.0000 0.0000
# 4 0.0000 0.0000 0.0000 -1.0134 0.0000 0.0000
# 5 0.0000 0.0000 0.0000 0.0000 45.1808 0.0000
# 6 0.0000 0.0000 0.0000 0.0000 0.0000 24.3433
#
#
#
# Elastic Compliance Matrix: (Units=1/GPa)
#
#
# Indices 1 2 3 4 5 6 
#
# 1 0.011203 -0.000969 -0.002040 0.000000 0.000000 0.000000
# 2 -0.000969 0.015261 -0.004659 0.000000 0.000000 0.000000
# 3 -0.002040 -0.004659 0.007886 0.000000 0.000000 0.000000
# 4 0.000000 0.000000 0.000000 -0.986744 0.000000 0.000000
# 5 0.000000 0.000000 0.000000 0.000000 0.022133 0.000000
# 6 0.000000 0.000000 0.000000 0.000000 0.000000 0.041079
#
#
# Mechanical properties :
#
#
# Convention : Reuss Voigt Hill
#
# Bulk Modulus (GPa) = 52.58859 61.99510 57.29185
# Shear Modulus (GPa) = -5.76363 29.84157 12.03897
#
# Velocity S-wave (km/s) = -1.57454 3.58274 2.27562
# Velocity P-wave (km/s) = 4.39487 6.61674 5.61677
#
# Compressibility (1/GPa) = 0.01901553
#
# Stress axis : x y z
#
# Youngs Moduli (GPa) = 89.26307 65.52742 126.81204
#
# Poissons Ratio (x) = 0.06346 0.25866
# Poissons Ratio (y) = 0.08645 0.59078
# Poissons Ratio (z) = 0.18207 0.30527
#
# Static dielectric constant tensor:
#      x y z
#    x 4.369870 0.000000 0.000000 
#    y 0.000000 1.944630 0.000000 
#    z 0.000000 0.000000 1.891490 
# 
# From -- ./inp_files/26378.got.cif
#   From: 2010.05.17/outbox.cif.g08.bks.cpg/sg70_14_cif.got.tgz:26378.got - 2010.06.03 15:57:51.
