data_PCOD9515052
_publ_section_title
;
Structure prediction by ZEFSAII (Michael W. Deem and Ramdas Pophale) SiO2 
 PCOD9515052
Probable space group: F D D D
;
_chemical_formula_sum "Si O2"
_cell_formula_units_Z 208
_cell_length_a 18.425684
_cell_length_b 17.274077
_cell_length_c 26.956178
_cell_angle_alpha 90.000000
_cell_angle_beta 90.000000
_cell_angle_gamma 90.000000
_cell_volume 8579.792514
_symmetry_space_group_name_H-M "F D D D"
_symmetry_group_IT_number 70
_space_group.IT_coordinate_system_code '2'
_symmetry_cell_setting 'orthorhombic'
loop_
_space_group_symop_operation_xyz
x,y,z
1/4-x,1/4-y,z
x,1/4-y,1/4-z
1/4-x,y,1/4-z
-x,-y,-z
3/4+x,3/4+y,-z
-x,3/4+y,3/4+z
3/4+x,-y,3/4+z
x,1/2+y,1/2+z
1/4-x,3/4-y,1/2+z
x,3/4-y,3/4-z
1/4-x,1/2+y,3/4-z
-x,1/2-y,1/2-z
3/4+x,1/4+y,1/2-z
-x,1/4+y,1/4+z
3/4+x,1/2-y,1/4+z
1/2+x,y,1/2+z
3/4-x,1/4-y,1/2+z
1/2+x,1/4-y,3/4-z
3/4-x,y,3/4-z
1/2-x,-y,1/2-z
1/4+x,3/4+y,1/2-z
1/2-x,3/4+y,1/4+z
1/4+x,-y,1/4+z
1/2+x,1/2+y,z
3/4-x,3/4-y,z
1/2+x,3/4-y,1/4-z
3/4-x,1/2+y,1/4-z
1/2-x,1/2-y,-z
1/4+x,1/4+y,-z
1/2-x,1/4+y,3/4+z
1/4+x,1/2-y,3/4+z
loop_
_atom_site_type_symbol
_atom_site_label
_atom_site_fract_x
_atom_site_fract_y
_atom_site_fract_z
Si Si1 0.853819 0.125179 0.769628
Si Si2 0.787032 0.383915 0.572631
Si Si3 0.302853 0.538829 0.906558
Si Si4 0.829917 0.028980 0.570199
Si Si5 0.417803 0.772617 0.823440
Si Si6 0.875000 0.375000 0.739382
Si Si7 0.706892 0.286385 0.866838
O O1 0.770148 0.103384 0.781441
O O2 0.915080 0.069557 0.791321
O O3 0.860324 0.152086 0.713413
O O4 0.872704 0.202179 0.801364
O O5 0.875000 0.375000 0.569216
O O6 0.750375 0.343822 0.622234
O O7 0.777378 0.478011 0.572737
O O8 0.375000 0.526969 0.875000
O O9 0.254397 0.465507 0.919288
O O10 0.844031 0.946102 0.542663
O O11 0.873262 0.030165 0.620900
O O12 0.375000 0.792900 0.875000
O O13 0.427714 0.835608 0.780181
O O14 0.497950 0.747065 0.838367
O O15 0.730058 0.375000 0.875000
#
# Coordination Sequence:
#
# PCOD9515052 Si02
#       7
#    32  32  32  32  32  16  32
#     4  10  22  35  60  91 124 151 203 251 299 354
#     4  11  20  40  64  87 118 165 213 240 286 366
#     4  10  20  39  63  84 116 166 205 243 293 364
#     4  11  24  38  56  90 124 155 201 253 305 352
#     4  11  19  35  52  86 130 166 193 221 289 364
#     4  10  23  30  54  86 126 166 182 234 288 358
#     4  12  24  35  59  86 124 164 203 245 290 363
#
# _framework density 24.243010000000002
#
# number of rings (size 3 to 8) (size 9 to 14) (size 15 to 20)
#    0.000    1.231    4.615    2.538    4.308    1.231 
#    0.000    0.000    3.385    2.769    0.000    0.000 
#    0.000    0.000    0.000    0.000    0.000    0.000 
#
# Total GULP energy -289711.934827 kJ/mol
# GULP energy per Si atom -5571.383362 kJ/mol
# Density = 2.418783 g / cm^3
# Si number density = 24.243010 Si / 1000 Ang^3
#
#
#
# Elastic Constant Matrix: (Units=GPa)
#
#
# Indices 1 2 3 4 5 6 
#
# 1 146.1299 0.8023 -2.9527 0.0000 0.0000 0.0000
# 2 0.8023 16.5051 -2.2038 0.0000 0.0000 0.0000
# 3 -2.9527 -2.2038 43.0053 0.0000 0.0000 0.0000
# 4 0.0000 0.0000 0.0000 5.3738 0.0000 0.0000
# 5 0.0000 0.0000 0.0000 0.0000 9.1863 0.0000
# 6 0.0000 0.0000 0.0000 0.0000 0.0000 23.5801
#
#
#
# Elastic Compliance Matrix: (Units=1/GPa)
#
#
# Indices 1 2 3 4 5 6 
#
# 1 0.006854 -0.000272 0.000457 0.000000 0.000000 0.000000
# 2 -0.000272 0.061016 0.003108 0.000000 0.000000 0.000000
# 3 0.000457 0.003108 0.023444 0.000000 0.000000 0.000000
# 4 0.000000 0.000000 0.000000 0.186088 0.000000 0.000000
# 5 0.000000 0.000000 0.000000 0.000000 0.108857 0.000000
# 6 0.000000 0.000000 0.000000 0.000000 0.000000 0.042409
#
#
# Mechanical properties :
#
#
# Convention : Reuss Voigt Hill
#
# Bulk Modulus (GPa) = 10.21470 21.88132 16.04801
# Shear Modulus (GPa) = 10.99589 21.62769 16.31179
#
# Velocity S-wave (km/s) = 2.13203 2.99008 2.59674
# Velocity P-wave (km/s) = 3.20676 4.57888 3.95282
#
# Compressibility (1/GPa) = 0.09789815
#
# Stress axis : x y z
#
# Youngs Moduli (GPa) = 145.90135 16.38922 42.65564
#
# Poissons Ratio (x) = 0.00446 -0.01948
# Poissons Ratio (y) = 0.03971 -0.13257
# Poissons Ratio (z) = -0.06662 -0.05094
#
# Static dielectric constant tensor:
#      x y z
#    x 2.017740 0.000000 0.000000 
#    y 0.000000 2.048840 0.000000 
#    z 0.000000 0.000000 1.969480 
# 
# From -- ./inp_files/59636.got.cif
#   From: 2010.05.17/outbox.cif.g08.bks.cpg/sg70_30_cif.got.tgz:59636.got - 2010.06.03 15:57:51.
