data_PCOD9515071
_publ_section_title
;
Structure prediction by ZEFSAII (Michael W. Deem and Ramdas Pophale) SiO2 
 PCOD9515071
Probable space group: F D D D
;
_chemical_formula_sum "Si O2"
_cell_formula_units_Z 168
_cell_length_a 14.644885
_cell_length_b 26.253888
_cell_length_c 20.134916
_cell_angle_alpha 90.000000
_cell_angle_beta 90.000000
_cell_angle_gamma 90.000000
_cell_volume 7741.576613
_symmetry_space_group_name_H-M "F D D D"
_symmetry_group_IT_number 70
_space_group.IT_coordinate_system_code '2'
_symmetry_cell_setting 'orthorhombic'
loop_
_space_group_symop_operation_xyz
x,y,z
1/4-x,1/4-y,z
x,1/4-y,1/4-z
1/4-x,y,1/4-z
-x,-y,-z
3/4+x,3/4+y,-z
-x,3/4+y,3/4+z
3/4+x,-y,3/4+z
x,1/2+y,1/2+z
1/4-x,3/4-y,1/2+z
x,3/4-y,3/4-z
1/4-x,1/2+y,3/4-z
-x,1/2-y,1/2-z
3/4+x,1/4+y,1/2-z
-x,1/4+y,1/4+z
3/4+x,1/2-y,1/4+z
1/2+x,y,1/2+z
3/4-x,1/4-y,1/2+z
1/2+x,1/4-y,3/4-z
3/4-x,y,3/4-z
1/2-x,-y,1/2-z
1/4+x,3/4+y,1/2-z
1/2-x,3/4+y,1/4+z
1/4+x,-y,1/4+z
1/2+x,1/2+y,z
3/4-x,3/4-y,z
1/2+x,3/4-y,1/4-z
3/4-x,1/2+y,1/4-z
1/2-x,1/2-y,-z
1/4+x,1/4+y,-z
1/2-x,1/4+y,3/4+z
1/4+x,1/2-y,3/4+z
loop_
_atom_site_type_symbol
_atom_site_label
_atom_site_fract_x
_atom_site_fract_y
_atom_site_fract_z
Si Si1 0.935641 0.577884 0.735702
Si Si2 0.093614 0.996671 0.257566
Si Si3 0.375000 0.185393 0.875000
Si Si4 0.462296 0.339342 0.699196
Si Si5 0.375000 0.875000 0.875000
Si Si6 0.977946 0.045998 0.610020
Si Si7 0.625000 0.958984 0.125000
O O1 0.860068 0.561298 0.682716
O O2 0.892979 0.572185 0.808826
O O3 0.014660 0.535633 0.734924
O O4 0.983088 0.633720 0.739019
O O5 0.172362 0.033302 0.286915
O O6 0.122921 0.967406 0.192316
O O7 0.055518 0.957869 0.313398
O O8 0.472871 0.159052 0.865215
O O9 0.375000 0.375000 0.687805
O O10 0.445313 0.912782 0.910278
O O11 0.036005 0.993495 0.606453
#
# Coordination Sequence:
#
# PCOD9515071 Si02
#       7
#    32  32  16  32   8  32  16
#     4  10  20  39  66  93 129 171 208 272 325 381
#     4  10  23  42  63  93 127 171 220 261 329 399
#     4  12  23  42  64  90 127 179 206 274 326 387
#     4  10  23  42  63  97 130 160 226 271 320 397
#     4  10  24  40  58 100 130 156 232 272 316 398
#     4  10  21  40  64  93 132 174 212 269 327 395
#     4   9  19  37  64  96 131 169 216 255 326 398
#
# _framework density 21.701007000000001
#
# number of rings (size 3 to 8) (size 9 to 14) (size 15 to 20)
#    0.000    1.905    0.000    2.857    2.667    0.000 
#    1.714    5.238    0.000    0.000    0.000    0.000 
#    0.000    0.000    0.000    0.000    0.000    0.000 
#
# Total GULP energy -234082.399783 kJ/mol
# GULP energy per Si atom -5573.390471 kJ/mol
# Density = 2.165161 g / cm^3
# Si number density = 21.701007 Si / 1000 Ang^3
#
#
#
# Elastic Constant Matrix: (Units=GPa)
#
#
# Indices 1 2 3 4 5 6 
#
# 1 153.3616 27.1757 37.4283 0.0000 0.0000 0.0000
# 2 27.1757 46.1794 26.9385 0.0000 0.0000 0.0000
# 3 37.4283 26.9385 56.6528 0.0000 0.0000 0.0000
# 4 0.0000 0.0000 0.0000 -1.6432 0.0000 0.0000
# 5 0.0000 0.0000 0.0000 0.0000 53.7421 0.0000
# 6 0.0000 0.0000 0.0000 0.0000 0.0000 13.3974
#
#
#
# Elastic Compliance Matrix: (Units=1/GPa)
#
#
# Indices 1 2 3 4 5 6 
#
# 1 0.007937 -0.002231 -0.004183 0.000000 0.000000 0.000000
# 2 -0.002231 0.030594 -0.013074 0.000000 0.000000 0.000000
# 3 -0.004183 -0.013074 0.026631 0.000000 0.000000 0.000000
# 4 0.000000 0.000000 0.000000 -0.608563 0.000000 0.000000
# 5 0.000000 0.000000 0.000000 0.000000 0.018607 0.000000
# 6 0.000000 0.000000 0.000000 0.000000 0.000000 0.074641
#
#
# Mechanical properties :
#
#
# Convention : Reuss Voigt Hill
#
# Bulk Modulus (GPa) = 38.18603 48.80878 43.49741
# Shear Modulus (GPa) = -12.42394 24.07603 5.82605
#
# Velocity S-wave (km/s) = -2.39530 3.33444 1.64028
# Velocity P-wave (km/s) = 3.15985 6.11269 4.86568
#
# Compressibility (1/GPa) = 0.02618758
#
# Stress axis : x y z
#
# Youngs Moduli (GPa) = 125.99846 32.68633 37.54968
#
# Poissons Ratio (x) = 0.07291 0.15706
# Poissons Ratio (y) = 0.28104 0.49092
# Poissons Ratio (z) = 0.52702 0.42733
#
# Static dielectric constant tensor:
#      x y z
#    x 1.902970 0.000000 0.000000 
#    y 0.000000 1.913770 0.000000 
#    z 0.000000 0.000000 1.745210 
# 
# From -- ./inp_files/42870.got.cif
#   From: 2010.05.17/outbox.cif.g08.bks.cpg/sg70_22_cif.got.tgz:42870.got - 2010.06.03 15:57:51.
