data_PCOD9515153
_publ_section_title
;
Structure prediction by ZEFSAII (Michael W. Deem and Ramdas Pophale) SiO2 
 PCOD9515153
Probable space group: F D D D
;
_chemical_formula_sum "Si O2"
_cell_formula_units_Z 200
_cell_length_a 19.635972
_cell_length_b 27.948631
_cell_length_c 17.128650
_cell_angle_alpha 90.000000
_cell_angle_beta 90.000000
_cell_angle_gamma 90.000000
_cell_volume 9400.178039
_symmetry_space_group_name_H-M "F D D D"
_symmetry_group_IT_number 70
_space_group.IT_coordinate_system_code '2'
_symmetry_cell_setting 'orthorhombic'
loop_
_space_group_symop_operation_xyz
x,y,z
1/4-x,1/4-y,z
x,1/4-y,1/4-z
1/4-x,y,1/4-z
-x,-y,-z
3/4+x,3/4+y,-z
-x,3/4+y,3/4+z
3/4+x,-y,3/4+z
x,1/2+y,1/2+z
1/4-x,3/4-y,1/2+z
x,3/4-y,3/4-z
1/4-x,1/2+y,3/4-z
-x,1/2-y,1/2-z
3/4+x,1/4+y,1/2-z
-x,1/4+y,1/4+z
3/4+x,1/2-y,1/4+z
1/2+x,y,1/2+z
3/4-x,1/4-y,1/2+z
1/2+x,1/4-y,3/4-z
3/4-x,y,3/4-z
1/2-x,-y,1/2-z
1/4+x,3/4+y,1/2-z
1/2-x,3/4+y,1/4+z
1/4+x,-y,1/4+z
1/2+x,1/2+y,z
3/4-x,3/4-y,z
1/2+x,3/4-y,1/4-z
3/4-x,1/2+y,1/4-z
1/2-x,1/2-y,-z
1/4+x,1/4+y,-z
1/2-x,1/4+y,3/4+z
1/4+x,1/2-y,3/4+z
loop_
_atom_site_type_symbol
_atom_site_label
_atom_site_fract_x
_atom_site_fract_y
_atom_site_fract_z
Si Si1 0.751046 0.636738 0.792832
Si Si2 0.297055 0.288960 0.459743
Si Si3 0.442417 0.208770 0.079285
Si Si4 0.054524 0.556843 0.750928
Si Si5 0.354057 0.715325 0.734546
Si Si6 0.375000 0.375000 0.625126
Si Si7 0.625000 0.125000 0.625000
Si Si8 0.125000 0.355651 0.625000
O O1 0.721534 0.589054 0.750010
O O2 0.794433 0.665172 0.728776
O O3 0.679883 0.656237 0.827176
O O4 0.803858 0.632815 0.865429
O O5 0.250000 0.250000 0.500000
O O6 0.266140 0.287394 0.372932
O O7 0.369751 0.266080 0.480511
O O8 0.389104 0.204904 0.150878
O O9 0.419913 0.254329 0.027570
O O10 0.077098 0.590025 0.823995
O O11 0.082661 0.588366 0.679405
O O12 0.976118 0.544281 0.733580
O O13 0.378503 0.677275 0.798881
#
# Coordination Sequence:
#
# PCOD9515153 Si02
#       8
#    32  32  32  32  32  16   8  16
#     4  12  25  42  70 111 154 197 248 317 379 458
#     4  10  20  41  64 100 143 186 238 296 369 442
#     4  11  25  42  72 109 153 187 254 314 379 450
#     4  11  25  49  76 104 141 206 249 315 375 457
#     4  11  23  43  73 102 144 197 250 299 365 460
#     4  11  24  47  71 106 147 202 248 301 384 458
#     4  10  28  54  80 100 146 190 268 310 392 440
#     4  12  22  41  70 100 149 199 250 293 380 442
#
# _framework density 21.276192000000002
#
# number of rings (size 3 to 8) (size 9 to 14) (size 15 to 20)
#    0.000    0.960    4.800    3.360    4.480    1.920 
#    0.000    1.600    0.000    0.000    0.000    0.000 
#    0.000    0.000    0.000    0.000    0.000    0.000 
#
# Total GULP energy -278448.089017 kJ/mol
# GULP energy per Si atom -5568.961780 kJ/mol
# Density = 2.122777 g / cm^3
# Si number density = 21.276192 Si / 1000 Ang^3
#
#
#
# Elastic Constant Matrix: (Units=GPa)
#
#
# Indices 1 2 3 4 5 6 
#
# 1 113.8841 32.7167 24.6440 0.0000 0.0000 0.0000
# 2 32.7167 94.7937 33.4916 0.0000 0.0000 0.0000
# 3 24.6440 33.4916 69.1159 0.0000 0.0000 0.0000
# 4 0.0000 0.0000 0.0000 97.9792 0.0000 0.0000
# 5 0.0000 0.0000 0.0000 0.0000 41.0651 0.0000
# 6 0.0000 0.0000 0.0000 0.0000 0.0000 28.0411
#
#
#
# Elastic Compliance Matrix: (Units=1/GPa)
#
#
# Indices 1 2 3 4 5 6 
#
# 1 0.010040 -0.002655 -0.002293 0.000000 0.000000 0.000000
# 2 -0.002655 0.013430 -0.005561 0.000000 0.000000 0.000000
# 3 -0.002293 -0.005561 0.017981 0.000000 0.000000 0.000000
# 4 0.000000 0.000000 0.000000 0.010206 0.000000 0.000000
# 5 0.000000 0.000000 0.000000 0.000000 0.024352 0.000000
# 6 0.000000 0.000000 0.000000 0.000000 0.000000 0.035662
#
#
# Mechanical properties :
#
#
# Convention : Reuss Voigt Hill
#
# Bulk Modulus (GPa) = 48.94248 51.05536 49.99892
# Shear Modulus (GPa) = 35.84208 45.87985 40.86097
#
# Velocity S-wave (km/s) = 4.10885 4.64874 4.38711
# Velocity P-wave (km/s) = 6.75008 7.27069 7.01521
#
# Compressibility (1/GPa) = 0.02043215
#
# Stress axis : x y z
#
# Youngs Moduli (GPa) = 99.60351 74.45799 55.61413
#
# Poissons Ratio (x) = 0.19767 0.12754
# Poissons Ratio (y) = 0.26443 0.30929
# Poissons Ratio (z) = 0.22842 0.41409
#
# Static dielectric constant tensor:
#      x y z
#    x 1.713120 0.000000 0.000000 
#    y 0.000000 1.784540 0.000000 
#    z 0.000000 0.000000 1.670540 
# 
# From -- ./inp_files/36778.got.cif
#   From: 2010.05.17/outbox.cif.g08.bks.cpg/sg70_19_cif.got.tgz:36778.got - 2010.06.03 15:57:51.
