data_PCOD9515841
_publ_section_title
;
Structure prediction by ZEFSAII (Michael W. Deem and Ramdas Pophale) SiO2 
 PCOD9515841
Probable space group: F D D D
;
_chemical_formula_sum "Si O2"
_cell_formula_units_Z 168
_cell_length_a 13.195779
_cell_length_b 31.515793
_cell_length_c 18.342719
_cell_angle_alpha 90.000000
_cell_angle_beta 90.000000
_cell_angle_gamma 90.000000
_cell_volume 7628.286325
_symmetry_space_group_name_H-M "F D D D"
_symmetry_group_IT_number 70
_space_group.IT_coordinate_system_code '2'
_symmetry_cell_setting 'orthorhombic'
loop_
_space_group_symop_operation_xyz
x,y,z
1/4-x,1/4-y,z
x,1/4-y,1/4-z
1/4-x,y,1/4-z
-x,-y,-z
3/4+x,3/4+y,-z
-x,3/4+y,3/4+z
3/4+x,-y,3/4+z
x,1/2+y,1/2+z
1/4-x,3/4-y,1/2+z
x,3/4-y,3/4-z
1/4-x,1/2+y,3/4-z
-x,1/2-y,1/2-z
3/4+x,1/4+y,1/2-z
-x,1/4+y,1/4+z
3/4+x,1/2-y,1/4+z
1/2+x,y,1/2+z
3/4-x,1/4-y,1/2+z
1/2+x,1/4-y,3/4-z
3/4-x,y,3/4-z
1/2-x,-y,1/2-z
1/4+x,3/4+y,1/2-z
1/2-x,3/4+y,1/4+z
1/4+x,-y,1/4+z
1/2+x,1/2+y,z
3/4-x,3/4-y,z
1/2+x,3/4-y,1/4-z
3/4-x,1/2+y,1/4-z
1/2-x,1/2-y,-z
1/4+x,1/4+y,-z
1/2-x,1/4+y,3/4+z
1/4+x,1/2-y,3/4+z
loop_
_atom_site_type_symbol
_atom_site_label
_atom_site_fract_x
_atom_site_fract_y
_atom_site_fract_z
Si Si1 0.985848 0.723159 0.602024
Si Si2 0.305867 0.932362 0.110284
Si Si3 0.968532 0.092715 0.430323
Si Si4 0.611761 0.575527 0.025310
Si Si5 0.125000 0.125000 0.625000
Si Si6 0.184931 0.917284 0.852578
O O1 0.994719 0.772907 0.592543
O O2 0.870652 0.710513 0.617942
O O3 0.028880 0.697223 0.532695
O O4 0.044940 0.702491 0.669847
O O5 0.424237 0.929990 0.087350
O O6 0.245160 0.892582 0.078651
O O7 0.311273 0.926676 0.197052
O O8 0.875000 0.082747 0.375000
O O9 0.950878 0.084537 0.515886
O O10 0.625000 0.625000 0.043922
O O11 0.211687 0.158932 0.648181
O O12 0.121151 0.875000 0.875000
#
# Coordination Sequence:
#
# PCOD9515841 Si02
#       6
#    32  32  32  32   8  32
#     4  11  24  39  67 101 129 165 222 282 331 384
#     4  11  25  43  65  98 132 171 224 273 332 396
#     4  11  24  43  69  90 132 182 219 264 337 401
#     4  11  22  44  67  98 134 172 212 277 343 398
#     4   8  20  36  60  86 120 172 218 252 308 398
#     4  10  22  41  64  92 126 175 220 267 323 396
#
# _framework density 22.023295999999998
#
# number of rings (size 3 to 8) (size 9 to 14) (size 15 to 20)
#    0.571    0.762    1.905    5.143    5.333    2.286 
#    1.714    0.000    0.000    0.000    0.000    0.000 
#    0.000    0.000    0.000    0.000    0.000    0.000 
#
# Total GULP energy -233939.866839 kJ/mol
# GULP energy per Si atom -5569.996829 kJ/mol
# Density = 2.197317 g / cm^3
# Si number density = 22.023296 Si / 1000 Ang^3
#
#
#
# Elastic Constant Matrix: (Units=GPa)
#
#
# Indices 1 2 3 4 5 6 
#
# 1 76.6117 18.1354 -1.3229 0.0000 0.0000 0.0000
# 2 18.1354 127.4093 -2.7730 0.0000 0.0000 0.0000
# 3 -1.3229 -2.7730 78.2375 0.0000 0.0000 0.0000
# 4 0.0000 0.0000 0.0000 6.5696 0.0000 0.0000
# 5 0.0000 0.0000 0.0000 0.0000 46.9215 0.0000
# 6 0.0000 0.0000 0.0000 0.0000 0.0000 15.6803
#
#
#
# Elastic Compliance Matrix: (Units=1/GPa)
#
#
# Indices 1 2 3 4 5 6 
#
# 1 0.013510 -0.001920 0.000160 0.000000 0.000000 0.000000
# 2 -0.001920 0.008128 0.000256 0.000000 0.000000 0.000000
# 3 0.000160 0.000256 0.012793 0.000000 0.000000 0.000000
# 4 0.000000 0.000000 0.000000 0.152216 0.000000 0.000000
# 5 0.000000 0.000000 0.000000 0.000000 0.021312 0.000000
# 6 0.000000 0.000000 0.000000 0.000000 0.000000 0.063774
#
#
# Mechanical properties :
#
#
# Convention : Reuss Voigt Hill
#
# Bulk Modulus (GPa) = 31.82296 34.48194 33.15245
# Shear Modulus (GPa) = 17.53064 31.71553 24.62308
#
# Velocity S-wave (km/s) = 2.82442 3.79897 3.34735
# Velocity P-wave (km/s) = 5.01173 5.91049 5.47957
#
# Compressibility (1/GPa) = 0.03142385
#
# Stress axis : x y z
#
# Youngs Moduli (GPa) = 74.01926 123.03890 78.16548
#
# Poissons Ratio (x) = 0.23618 -0.01254
# Poissons Ratio (y) = 0.14208 -0.01998
# Poissons Ratio (z) = -0.01187 -0.03145
#
# Static dielectric constant tensor:
#      x y z
#    x 1.948210 0.000000 0.000000 
#    y 0.000000 1.806140 0.000000 
#    z 0.000000 0.000000 1.851860 
# 
# From -- ./inp_files/42958.got.cif
#   From: 2010.05.17/outbox.cif.g08.bks.cpg/sg70_22_cif.got.tgz:42958.got - 2010.06.03 15:57:51.
