data_PCOD9515209
_publ_section_title
;
Structure prediction by ZEFSAII (Michael W. Deem and Ramdas Pophale) SiO2 
 PCOD9515209
Probable space group: F D D D
;
_chemical_formula_sum "Si O2"
_cell_formula_units_Z 176
_cell_length_a 21.762299
_cell_length_b 32.799949
_cell_length_c 10.396906
_cell_angle_alpha 90.000000
_cell_angle_beta 90.000000
_cell_angle_gamma 90.000000
_cell_volume 7421.335388
_symmetry_space_group_name_H-M "F D D D"
_symmetry_group_IT_number 70
_space_group.IT_coordinate_system_code '2'
_symmetry_cell_setting 'orthorhombic'
loop_
_space_group_symop_operation_xyz
x,y,z
1/4-x,1/4-y,z
x,1/4-y,1/4-z
1/4-x,y,1/4-z
-x,-y,-z
3/4+x,3/4+y,-z
-x,3/4+y,3/4+z
3/4+x,-y,3/4+z
x,1/2+y,1/2+z
1/4-x,3/4-y,1/2+z
x,3/4-y,3/4-z
1/4-x,1/2+y,3/4-z
-x,1/2-y,1/2-z
3/4+x,1/4+y,1/2-z
-x,1/4+y,1/4+z
3/4+x,1/2-y,1/4+z
1/2+x,y,1/2+z
3/4-x,1/4-y,1/2+z
1/2+x,1/4-y,3/4-z
3/4-x,y,3/4-z
1/2-x,-y,1/2-z
1/4+x,3/4+y,1/2-z
1/2-x,3/4+y,1/4+z
1/4+x,-y,1/4+z
1/2+x,1/2+y,z
3/4-x,3/4-y,z
1/2+x,3/4-y,1/4-z
3/4-x,1/2+y,1/4-z
1/2-x,1/2-y,-z
1/4+x,1/4+y,-z
1/2-x,1/4+y,3/4+z
1/4+x,1/2-y,3/4+z
loop_
_atom_site_type_symbol
_atom_site_label
_atom_site_fract_x
_atom_site_fract_y
_atom_site_fract_z
Si Si1 0.949530 0.200013 0.043361
Si Si2 0.773721 0.794723 0.538701
Si Si3 0.342319 0.288299 0.137354
Si Si4 0.328469 0.150240 0.503647
Si Si5 0.625000 0.756539 0.125000
Si Si6 0.219925 0.923147 0.164882
O O1 0.940518 0.248202 0.057633
O O2 0.883831 0.182763 0.997567
O O3 0.965748 0.179790 0.180641
O O4 0.000149 0.194828 0.933336
O O5 0.750000 0.750000 0.500000
O O6 0.846496 0.798297 0.534286
O O7 0.733799 0.826347 0.457645
O O8 0.290945 0.322796 0.124165
O O9 0.363967 0.271787 0.997499
O O10 0.348932 0.125000 0.625000
O O11 0.310705 0.117836 0.391272
O O12 0.568227 0.788010 0.109883
#
# Coordination Sequence:
#
# PCOD9515209 Si02
#       6
#    32  32  32  32  16  32
#     4  11  25  44  76 106 142 197 254 309 372 461
#     4  12  27  45  70 108 149 194 248 307 385 459
#     4  11  22  44  72 104 146 184 244 310 372 452
#     4  12  28  46  72 105 151 193 249 312 384 448
#     4  10  20  42  74 107 140 180 254 306 363 438
#     4  11  25  44  76 109 145 192 252 314 384 446
#
# _framework density 23.715408
#
# number of rings (size 3 to 8) (size 9 to 14) (size 15 to 20)
#    0.000    0.727    1.818    7.091   10.182    0.727 
#    0.000    0.909    0.000    3.273    0.000    0.000 
#    0.000    0.000    0.000    0.000    0.000    0.000 
#
# Total GULP energy -246201.270006 kJ/mol
# GULP energy per Si atom -5595.483409 kJ/mol
# Density = 2.366143 g / cm^3
# Si number density = 23.715408 Si / 1000 Ang^3
#
#
#
# Elastic Constant Matrix: (Units=GPa)
#
#
# Indices 1 2 3 4 5 6 
#
# 1 157.4261 27.6294 2.2987 0.0000 0.0000 0.0000
# 2 27.6294 70.0574 3.7865 0.0000 0.0000 0.0000
# 3 2.2987 3.7865 63.6739 0.0000 0.0000 0.0000
# 4 0.0000 0.0000 0.0000 22.4321 0.0000 0.0000
# 5 0.0000 0.0000 0.0000 0.0000 32.0457 0.0000
# 6 0.0000 0.0000 0.0000 0.0000 0.0000 38.3249
#
#
#
# Elastic Compliance Matrix: (Units=1/GPa)
#
#
# Indices 1 2 3 4 5 6 
#
# 1 0.006825 -0.002687 -0.000087 0.000000 0.000000 0.000000
# 2 -0.002687 0.015378 -0.000817 0.000000 0.000000 0.000000
# 3 -0.000087 -0.000817 0.015757 0.000000 0.000000 0.000000
# 4 0.000000 0.000000 0.000000 0.044579 0.000000 0.000000
# 5 0.000000 0.000000 0.000000 0.000000 0.031205 0.000000
# 6 0.000000 0.000000 0.000000 0.000000 0.000000 0.026093
#
#
# Mechanical properties :
#
#
# Convention : Reuss Voigt Hill
#
# Bulk Modulus (GPa) = 32.49121 39.84295 36.16708
# Shear Modulus (GPa) = 31.79080 35.72338 33.75709
#
# Velocity S-wave (km/s) = 3.66527 3.88537 3.77692
# Velocity P-wave (km/s) = 5.62517 6.07989 5.85694
#
# Compressibility (1/GPa) = 0.03077756
#
# Stress axis : x y z
#
# Youngs Moduli (GPa) = 146.51939 65.02842 63.46484
#
# Poissons Ratio (x) = 0.17473 0.00550
# Poissons Ratio (y) = 0.39370 0.05188
# Poissons Ratio (z) = 0.01269 0.05316
#
# Static dielectric constant tensor:
#      x y z
#    x 1.903420 0.000000 0.000000 
#    y 0.000000 1.840820 0.000000 
#    z 0.000000 0.000000 2.056490 
# 
# From -- ./inp_files/19599.got.cif
#   From: 2010.05.17/outbox.cif.g08.bks.cpg/sg70_10_cif.got.tgz:19599.got - 2010.06.03 15:57:51.
