data_PCOD9515617
_publ_section_title
;
Structure prediction by ZEFSAII (Michael W. Deem and Ramdas Pophale) SiO2 
 PCOD9515617
Probable space group: F D D D
;
_chemical_formula_sum "Si O2"
_cell_formula_units_Z 160
_cell_length_a 8.670079
_cell_length_b 26.009122
_cell_length_c 29.774313
_cell_angle_alpha 90.000000
_cell_angle_beta 90.000000
_cell_angle_gamma 90.000000
_cell_volume 6714.141597
_symmetry_space_group_name_H-M "F D D D"
_symmetry_group_IT_number 70
_space_group.IT_coordinate_system_code '2'
_symmetry_cell_setting 'orthorhombic'
loop_
_space_group_symop_operation_xyz
x,y,z
1/4-x,1/4-y,z
x,1/4-y,1/4-z
1/4-x,y,1/4-z
-x,-y,-z
3/4+x,3/4+y,-z
-x,3/4+y,3/4+z
3/4+x,-y,3/4+z
x,1/2+y,1/2+z
1/4-x,3/4-y,1/2+z
x,3/4-y,3/4-z
1/4-x,1/2+y,3/4-z
-x,1/2-y,1/2-z
3/4+x,1/4+y,1/2-z
-x,1/4+y,1/4+z
3/4+x,1/2-y,1/4+z
1/2+x,y,1/2+z
3/4-x,1/4-y,1/2+z
1/2+x,1/4-y,3/4-z
3/4-x,y,3/4-z
1/2-x,-y,1/2-z
1/4+x,3/4+y,1/2-z
1/2-x,3/4+y,1/4+z
1/4+x,-y,1/4+z
1/2+x,1/2+y,z
3/4-x,3/4-y,z
1/2+x,3/4-y,1/4-z
3/4-x,1/2+y,1/4-z
1/2-x,1/2-y,-z
1/4+x,1/4+y,-z
1/2-x,1/4+y,3/4+z
1/4+x,1/2-y,3/4+z
loop_
_atom_site_type_symbol
_atom_site_label
_atom_site_fract_x
_atom_site_fract_y
_atom_site_fract_z
Si Si1 0.045374 0.849980 0.039817
Si Si2 0.875000 0.587667 0.375000
Si Si3 0.038043 0.799524 0.282457
Si Si4 0.383909 0.813979 0.428849
Si Si5 0.625000 0.699934 0.625000
Si Si6 0.633469 0.238660 0.418839
O O1 0.131344 0.875665 0.081854
O O2 0.875000 0.875000 0.032305
O O3 0.987446 0.792875 0.051648
O O4 0.168360 0.847014 0.000244
O O5 0.734395 0.551064 0.360540
O O6 0.207699 0.790575 0.303783
O O7 0.000000 0.750000 0.250000
O O8 0.925066 0.817546 0.323516
O O9 0.375000 0.810269 0.375000
O O10 0.375000 0.875000 0.438573
O O11 0.243712 0.778134 0.445170
O O12 0.471356 0.729776 0.614291
#
# Coordination Sequence:
#
# PCOD9515617 Si02
#       6
#    32  16  32  32  16  32
#     4  10  23  41  74 111 154 193 250 309 379 466
#     4  10  21  42  75 111 152 200 238 304 397 466
#     4  12  25  45  75 110 152 200 252 323 376 452
#     4  11  24  46  77 103 144 208 259 296 377 462
#     4  12  23  44  75 103 150 199 248 314 390 434
#     4  11  21  45  75 106 145 201 243 310 387 452
#
# _framework density 23.830297999999999
#
# number of rings (size 3 to 8) (size 9 to 14) (size 15 to 20)
#    0.000    1.000    5.000    1.200    0.000    0.800 
#    3.600    4.000   13.200    0.000    0.000    0.000 
#    0.000    0.000    0.000    0.000    0.000    0.000 
#
# Total GULP energy -222793.716481 kJ/mol
# GULP energy per Si atom -5569.842912 kJ/mol
# Density = 2.377606 g / cm^3
# Si number density = 23.830298 Si / 1000 Ang^3
#
#
#
# Elastic Constant Matrix: (Units=GPa)
#
#
# Indices 1 2 3 4 5 6 
#
# 1 120.2134 50.3952 63.1115 0.0000 0.0000 0.0000
# 2 50.3952 101.4020 51.4409 0.0000 0.0000 0.0000
# 3 63.1115 51.4409 183.9279 0.0000 0.0000 0.0000
# 4 0.0000 0.0000 0.0000 -10.3055 0.0000 0.0000
# 5 0.0000 0.0000 0.0000 0.0000 56.7125 0.0000
# 6 0.0000 0.0000 0.0000 0.0000 0.0000 -85.1499
#
#
#
# Elastic Compliance Matrix: (Units=1/GPa)
#
#
# Indices 1 2 3 4 5 6 
#
# 1 0.011596 -0.004364 -0.002759 0.000000 0.000000 0.000000
# 2 -0.004364 0.013134 -0.002176 0.000000 0.000000 0.000000
# 3 -0.002759 -0.002176 0.006992 0.000000 0.000000 0.000000
# 4 0.000000 0.000000 0.000000 -0.097035 0.000000 0.000000
# 5 0.000000 0.000000 0.000000 0.000000 0.017633 0.000000
# 6 0.000000 0.000000 0.000000 0.000000 0.000000 -0.011744
#
#
# Mechanical properties :
#
#
# Convention : Reuss Voigt Hill
#
# Bulk Modulus (GPa) = 76.18548 81.71539 78.95044
# Shear Modulus (GPa) = -137.16561 8.29114 -64.43724
#
# Velocity S-wave (km/s) = -7.59502 1.86730 -5.20565
# Velocity P-wave (km/s) = 6.69873 6.24612 1.71157
#
# Compressibility (1/GPa) = 0.01312586
#
# Stress axis : x y z
#
# Youngs Moduli (GPa) = 86.23608 76.13633 143.01915
#
# Poissons Ratio (x) = 0.33223 0.39453
# Poissons Ratio (y) = 0.37630 0.31122
# Poissons Ratio (z) = 0.23789 0.16568
#
# Static dielectric constant tensor:
#      x y z
#    x 1.917770 0.000000 0.000000 
#    y 0.000000 1.902820 0.000000 
#    z 0.000000 0.000000 2.028490 
# 
# From -- ./inp_files/63941.got.cif
#   From: 2010.05.17/outbox.cif.g08.bks.cpg/sg70_32_cif.got.tgz:63941.got - 2010.06.03 15:57:51.
