data_PCOD9515236
_publ_section_title
;
Structure prediction by ZEFSAII (Michael W. Deem and Ramdas Pophale) SiO2 
 PCOD9515236
Probable space group: F D D D
;
_chemical_formula_sum "Si O2"
_cell_formula_units_Z 128
_cell_length_a 9.624577
_cell_length_b 25.316389
_cell_length_c 25.869433
_cell_angle_alpha 90.000000
_cell_angle_beta 90.000000
_cell_angle_gamma 90.000000
_cell_volume 6303.334023
_symmetry_space_group_name_H-M "F D D D"
_symmetry_group_IT_number 70
_space_group.IT_coordinate_system_code '2'
_symmetry_cell_setting 'orthorhombic'
loop_
_space_group_symop_operation_xyz
x,y,z
1/4-x,1/4-y,z
x,1/4-y,1/4-z
1/4-x,y,1/4-z
-x,-y,-z
3/4+x,3/4+y,-z
-x,3/4+y,3/4+z
3/4+x,-y,3/4+z
x,1/2+y,1/2+z
1/4-x,3/4-y,1/2+z
x,3/4-y,3/4-z
1/4-x,1/2+y,3/4-z
-x,1/2-y,1/2-z
3/4+x,1/4+y,1/2-z
-x,1/4+y,1/4+z
3/4+x,1/2-y,1/4+z
1/2+x,y,1/2+z
3/4-x,1/4-y,1/2+z
1/2+x,1/4-y,3/4-z
3/4-x,y,3/4-z
1/2-x,-y,1/2-z
1/4+x,3/4+y,1/2-z
1/2-x,3/4+y,1/4+z
1/4+x,-y,1/4+z
1/2+x,1/2+y,z
3/4-x,3/4-y,z
1/2+x,3/4-y,1/4-z
3/4-x,1/2+y,1/4-z
1/2-x,1/2-y,-z
1/4+x,1/4+y,-z
1/2-x,1/4+y,3/4+z
1/4+x,1/2-y,3/4+z
loop_
_atom_site_type_symbol
_atom_site_label
_atom_site_fract_x
_atom_site_fract_y
_atom_site_fract_z
Si Si1 0.623132 0.561938 0.426816
Si Si2 0.073200 0.565866 0.522648
Si Si3 0.225278 0.472621 0.473539
Si Si4 0.625000 0.251091 0.125000
Si Si5 0.625000 0.752783 0.125000
O O1 0.625000 0.625000 0.426019
O O2 0.659426 0.540630 0.483999
O O3 0.479291 0.537560 0.407520
O O4 0.744324 0.538699 0.390080
O O5 0.125000 0.625000 0.525189
O O6 0.162256 0.531554 0.481833
O O7 0.094049 0.534578 0.576300
O O8 0.908423 0.563320 0.512936
O O9 0.285596 0.467712 0.416240
#
# Coordination Sequence:
#
# PCOD9515236 Si02
#       5
#    32  32  32  16  16
#     4  11  24  41  67  97 134 177 222 275 336 393
#     4  10  21  41  69  94 132 174 224 272 335 393
#     4  10  24  42  64  99 133 172 225 277 325 408
#     4  12  23  44  65  93 141 176 209 289 332 384
#     4  10  20  44  64  99 131 172 233 265 322 422
#
# _framework density 20.306713999999999
#
# number of rings (size 3 to 8) (size 9 to 14) (size 15 to 20)
#    0.000    1.500    2.500    1.875    3.500    1.000 
#    0.000    0.625    0.000    0.000    0.000    0.000 
#    0.000    0.000    0.000    0.000    0.000    0.000 
#
# Total GULP energy -178921.027341 kJ/mol
# GULP energy per Si atom -5591.282104 kJ/mol
# Density = 2.026050 g / cm^3
# Si number density = 20.306714 Si / 1000 Ang^3
#
#
#
# Elastic Constant Matrix: (Units=GPa)
#
#
# Indices 1 2 3 4 5 6 
#
# 1 110.6828 41.5905 36.6672 0.0000 0.0000 0.0000
# 2 41.5905 120.0293 27.1554 0.0000 0.0000 0.0000
# 3 36.6672 27.1554 98.5468 0.0000 0.0000 0.0000
# 4 0.0000 0.0000 0.0000 3.0558 0.0000 0.0000
# 5 0.0000 0.0000 0.0000 0.0000 39.5338 0.0000
# 6 0.0000 0.0000 0.0000 0.0000 0.0000 19.5922
#
#
#
# Elastic Compliance Matrix: (Units=1/GPa)
#
#
# Indices 1 2 3 4 5 6 
#
# 1 0.011334 -0.003171 -0.003343 0.000000 0.000000 0.000000
# 2 -0.003171 0.009772 -0.001513 0.000000 0.000000 0.000000
# 3 -0.003343 -0.001513 0.011808 0.000000 0.000000 0.000000
# 4 0.000000 0.000000 0.000000 0.327246 0.000000 0.000000
# 5 0.000000 0.000000 0.000000 0.000000 0.025295 0.000000
# 6 0.000000 0.000000 0.000000 0.000000 0.000000 0.051041
#
#
# Mechanical properties :
#
#
# Convention : Reuss Voigt Hill
#
# Bulk Modulus (GPa) = 59.31151 60.00947 59.66049
# Shear Modulus (GPa) = 10.91296 27.35943 19.13619
#
# Velocity S-wave (km/s) = 2.32072 3.67455 3.07312
# Velocity P-wave (km/s) = 6.03757 6.90064 6.48348
#
# Compressibility (1/GPa) = 0.01686013
#
# Stress axis : x y z
#
# Youngs Moduli (GPa) = 88.23086 102.32993 84.68560
#
# Poissons Ratio (x) = 0.32447 0.28313
# Poissons Ratio (y) = 0.27977 0.12813
# Poissons Ratio (z) = 0.29499 0.15483
#
# Static dielectric constant tensor:
#      x y z
#    x 1.750290 0.000000 0.000000 
#    y 0.000000 1.665080 0.000000 
#    z 0.000000 0.000000 1.734050 
# 
# From -- ./inp_files/12033.got.cif
#   From: 2010.05.17/outbox.cif.g08.bks.cpg/sg70_7_cif.got.tgz:12033.got - 2010.06.03 15:57:51.
