data_PCOD9515292
_publ_section_title
;
Structure prediction by ZEFSAII (Michael W. Deem and Ramdas Pophale) SiO2 
 PCOD9515292
Probable space group: F D D D
;
_chemical_formula_sum "Si O2"
_cell_formula_units_Z 208
_cell_length_a 29.856883
_cell_length_b 18.920782
_cell_length_c 18.232410
_cell_angle_alpha 90.000000
_cell_angle_beta 90.000000
_cell_angle_gamma 90.000000
_cell_volume 10299.772369
_symmetry_space_group_name_H-M "F D D D"
_symmetry_group_IT_number 70
_space_group.IT_coordinate_system_code '2'
_symmetry_cell_setting 'orthorhombic'
loop_
_space_group_symop_operation_xyz
x,y,z
1/4-x,1/4-y,z
x,1/4-y,1/4-z
1/4-x,y,1/4-z
-x,-y,-z
3/4+x,3/4+y,-z
-x,3/4+y,3/4+z
3/4+x,-y,3/4+z
x,1/2+y,1/2+z
1/4-x,3/4-y,1/2+z
x,3/4-y,3/4-z
1/4-x,1/2+y,3/4-z
-x,1/2-y,1/2-z
3/4+x,1/4+y,1/2-z
-x,1/4+y,1/4+z
3/4+x,1/2-y,1/4+z
1/2+x,y,1/2+z
3/4-x,1/4-y,1/2+z
1/2+x,1/4-y,3/4-z
3/4-x,y,3/4-z
1/2-x,-y,1/2-z
1/4+x,3/4+y,1/2-z
1/2-x,3/4+y,1/4+z
1/4+x,-y,1/4+z
1/2+x,1/2+y,z
3/4-x,3/4-y,z
1/2+x,3/4-y,1/4-z
3/4-x,1/2+y,1/4-z
1/2-x,1/2-y,-z
1/4+x,1/4+y,-z
1/2-x,1/4+y,3/4+z
1/4+x,1/2-y,3/4+z
loop_
_atom_site_type_symbol
_atom_site_label
_atom_site_fract_x
_atom_site_fract_y
_atom_site_fract_z
Si Si1 0.540250 0.287470 0.052971
Si Si2 0.129368 0.541131 0.461638
Si Si3 0.967420 0.585886 0.355824
Si Si4 0.709958 0.818617 0.310045
Si Si5 0.875000 0.375000 0.003250
Si Si6 0.061069 0.231455 0.408218
Si Si7 0.125000 0.019399 0.625000
Si Si8 0.875000 0.008380 0.875000
O O1 0.516985 0.354290 0.088008
O O2 0.508129 0.220000 0.062520
O O3 0.583727 0.276650 0.101444
O O4 0.558302 0.291798 0.970198
O O5 0.125000 0.625000 0.445514
O O6 0.173345 0.495244 0.438808
O O7 0.089201 0.506109 0.414858
O O8 0.127231 0.533921 0.549160
O O9 0.959339 0.605633 0.270191
O O10 0.920421 0.553478 0.380358
O O11 0.009200 0.533103 0.356630
O O12 0.703835 0.875000 0.375000
O O13 0.890741 0.434168 0.944943
O O14 0.913324 0.335120 0.050640
#
# Coordination Sequence:
#
# PCOD9515292 Si02
#       8
#    32  32  32  32  16  32  16  16
#     4  10  21  36  58  86 127 170 206 248 318 385
#     4  11  22  42  66  91 120 164 214 269 322 386
#     4  10  22  41  59  90 128 167 208 265 318 382
#     4  10  24  39  60  95 129 167 214 263 324 384
#     4   9  18  32  50  81 116 150 200 257 288 352
#     4  10  21  36  61  87 118 154 212 254 308 371
#     4   9  19  30  53  79 120 165 207 238 296 370
#     4  10  24  42  65  89 127 157 210 270 331 374
#
# _framework density 20.194621000000001
#
# number of rings (size 3 to 8) (size 9 to 14) (size 15 to 20)
#    0.000    2.000    0.769    1.615    6.462    6.154 
#    0.000    0.000    0.000    1.846    0.000    0.000 
#    0.000    0.000    0.000    0.000    0.000    0.000 
#
# Total GULP energy -289665.230313 kJ/mol
# GULP energy per Si atom -5570.485198 kJ/mol
# Density = 2.014866 g / cm^3
# Si number density = 20.194621 Si / 1000 Ang^3
#
#
#
# Elastic Constant Matrix: (Units=GPa)
#
#
# Indices 1 2 3 4 5 6 
#
# 1 94.5190 3.1720 26.9107 0.0000 0.0000 0.0000
# 2 3.1720 47.8183 33.8495 0.0000 0.0000 0.0000
# 3 26.9107 33.8495 93.7818 0.0000 0.0000 0.0000
# 4 0.0000 0.0000 0.0000 17.3520 0.0000 0.0000
# 5 0.0000 0.0000 0.0000 0.0000 29.8733 0.0000
# 6 0.0000 0.0000 0.0000 0.0000 0.0000 17.9876
#
#
#
# Elastic Compliance Matrix: (Units=1/GPa)
#
#
# Indices 1 2 3 4 5 6 
#
# 1 0.011683 0.002147 -0.004127 0.000000 0.000000 0.000000
# 2 0.002147 0.028484 -0.010897 0.000000 0.000000 0.000000
# 3 -0.004127 -0.010897 0.015780 0.000000 0.000000 0.000000
# 4 0.000000 0.000000 0.000000 0.057630 0.000000 0.000000
# 5 0.000000 0.000000 0.000000 0.000000 0.033475 0.000000
# 6 0.000000 0.000000 0.000000 0.000000 0.000000 0.055594
#
#
# Mechanical properties :
#
#
# Convention : Reuss Voigt Hill
#
# Bulk Modulus (GPa) = 33.12119 40.44261 36.78190
# Shear Modulus (GPa) = 20.96744 24.52170 22.74457
#
# Velocity S-wave (km/s) = 3.22571 3.48842 3.35963
# Velocity P-wave (km/s) = 5.50547 6.02456 5.77086
#
# Compressibility (1/GPa) = 0.03019216
#
# Stress axis : x y z
#
# Youngs Moduli (GPa) = 85.59507 35.10774 63.36956
#
# Poissons Ratio (x) = -0.07536 0.26154
# Poissons Ratio (y) = -0.18374 0.69053
# Poissons Ratio (z) = 0.35327 0.38256
#
# Static dielectric constant tensor:
#      x y z
#    x 1.693450 0.000000 0.000000 
#    y 0.000000 1.751060 0.000000 
#    z 0.000000 0.000000 1.766620 
# 
# From -- ./inp_files/38775.got.cif
#   From: 2010.05.17/outbox.cif.g08.bks.cpg/sg70_20_cif.got.tgz:38775.got - 2010.06.03 15:57:51.
