data_PCOD9515074
_publ_section_title
;
Structure prediction by ZEFSAII (Michael W. Deem and Ramdas Pophale) SiO2 
 PCOD9515074
Probable space group: F D D D
;
_chemical_formula_sum "Si O2"
_cell_formula_units_Z 192
_cell_length_a 34.716501
_cell_length_b 24.385216
_cell_length_c 10.432005
_cell_angle_alpha 90.000000
_cell_angle_beta 90.000000
_cell_angle_gamma 90.000000
_cell_volume 8831.415960
_symmetry_space_group_name_H-M "F D D D"
_symmetry_group_IT_number 70
_space_group.IT_coordinate_system_code '2'
_symmetry_cell_setting 'orthorhombic'
loop_
_space_group_symop_operation_xyz
x,y,z
1/4-x,1/4-y,z
x,1/4-y,1/4-z
1/4-x,y,1/4-z
-x,-y,-z
3/4+x,3/4+y,-z
-x,3/4+y,3/4+z
3/4+x,-y,3/4+z
x,1/2+y,1/2+z
1/4-x,3/4-y,1/2+z
x,3/4-y,3/4-z
1/4-x,1/2+y,3/4-z
-x,1/2-y,1/2-z
3/4+x,1/4+y,1/2-z
-x,1/4+y,1/4+z
3/4+x,1/2-y,1/4+z
1/2+x,y,1/2+z
3/4-x,1/4-y,1/2+z
1/2+x,1/4-y,3/4-z
3/4-x,y,3/4-z
1/2-x,-y,1/2-z
1/4+x,3/4+y,1/2-z
1/2-x,3/4+y,1/4+z
1/4+x,-y,1/4+z
1/2+x,1/2+y,z
3/4-x,3/4-y,z
1/2+x,3/4-y,1/4-z
3/4-x,1/2+y,1/4-z
1/2-x,1/2-y,-z
1/4+x,1/4+y,-z
1/2-x,1/4+y,3/4+z
1/4+x,1/2-y,3/4+z
loop_
_atom_site_type_symbol
_atom_site_label
_atom_site_fract_x
_atom_site_fract_y
_atom_site_fract_z
Si Si1 0.125000 0.928467 0.625000
Si Si2 0.992811 0.741541 0.901719
Si Si3 0.679963 0.905013 0.510288
Si Si4 0.682467 0.685034 0.819227
Si Si5 0.309161 0.425332 0.046734
Si Si6 0.125000 0.125000 0.125000
Si Si7 0.625000 0.125000 0.125000
Si Si8 0.367966 0.244645 0.630184
O O1 0.087770 0.890654 0.602038
O O2 0.129566 0.965168 0.500358
O O3 0.000000 0.750000 0.750000
O O4 0.032943 0.724582 0.968199
O O5 0.963482 0.691535 0.929517
O O6 0.973797 0.794963 0.966658
O O7 0.690704 0.875000 0.375000
O O8 0.645584 0.947737 0.476675
O O9 0.700967 0.631362 0.885103
O O10 0.653021 0.661776 0.713222
O O11 0.654808 0.718701 0.915747
O O12 0.329617 0.468580 0.142133
O O13 0.345468 0.410741 0.957431
#
# Coordination Sequence:
#
# PCOD9515074 Si02
#       8
#    16  32  32  32  32   8   8  32
#     4  10  21  39  67  94 135 180 231 291 342 428
#     4  11  27  42  67 103 147 188 237 298 380 431
#     4   9  22  42  65  99 140 188 233 291 365 438
#     4  12  24  44  69 107 142 186 238 311 350 436
#     4  11  23  42  69 103 138 181 240 295 359 432
#     4  12  18  38  76  90 134 182 232 296 344 418
#     4  12  24  44  76 106 142 194 258 298 358 432
#     4  10  20  39  67  98 129 181 240 279 351 420
#
# _framework density 21.740566999999999
#
# number of rings (size 3 to 8) (size 9 to 14) (size 15 to 20)
#    0.000    1.333    3.333    1.500    3.500    2.667 
#    0.000    0.833    0.000    0.000    0.000    0.000 
#    0.000    0.000    0.000    0.000    0.000    0.000 
#
# Total GULP energy -268210.632948 kJ/mol
# GULP energy per Si atom -5587.721520 kJ/mol
# Density = 2.169108 g / cm^3
# Si number density = 21.740567 Si / 1000 Ang^3
#
#
#
# Elastic Constant Matrix: (Units=GPa)
#
#
# Indices 1 2 3 4 5 6 
#
# 1 128.9796 60.7877 58.4897 -0.0001 0.0000 0.0000
# 2 60.7877 120.4224 43.5607 -0.0003 -0.0001 0.0000
# 3 58.4897 43.5607 85.0034 -0.0005 -0.0001 -0.0001
# 4 -0.0001 -0.0003 -0.0005 -26.8976 0.0000 0.0000
# 5 0.0000 -0.0001 -0.0001 0.0000 31.8906 0.0000
# 6 0.0000 0.0000 -0.0001 0.0000 0.0000 47.1840
#
#
#
# Elastic Compliance Matrix: (Units=1/GPa)
#
#
# Indices 1 2 3 4 5 6 
#
# 1 0.012650 -0.003973 -0.006668 0.000000 0.000000 0.000000
# 2 -0.003973 0.011442 -0.003129 0.000000 0.000000 0.000000
# 3 -0.006668 -0.003129 0.017956 0.000000 0.000000 0.000000
# 4 0.000000 0.000000 0.000000 -0.037178 0.000000 0.000000
# 5 0.000000 0.000000 0.000000 0.000000 0.031357 0.000000
# 6 0.000000 0.000000 0.000000 0.000000 0.000000 0.021194
#
#
# Mechanical properties :
#
#
# Convention : Reuss Voigt Hill
#
# Bulk Modulus (GPa) = 68.93637 73.34238 71.13938
# Shear Modulus (GPa) = 55.68141 21.87322 38.77731
#
# Velocity S-wave (km/s) = 5.06630 3.17535 4.22790
# Velocity P-wave (km/s) = 8.12408 6.87403 7.52506
#
# Compressibility (1/GPa) = 0.01450613
#
# Stress axis : x y z
#
# Youngs Moduli (GPa) = 79.05448 87.39862 55.69186
#
# Poissons Ratio (x) = 0.34727 0.37134
# Poissons Ratio (y) = 0.31411 0.17428
# Poissons Ratio (z) = 0.52712 0.27351
#
# Static dielectric constant tensor:
#      x y z
#    x 1.773950 0.000000 0.000000 
#    y 0.000000 1.894990 0.000000 
#    z 0.000000 0.000000 1.883350 
# 
# From -- ./inp_files/22511.got.cif
#   From: 2010.05.17/outbox.cif.g08.bks.cpg/sg70_12_cif.got.tgz:22511.got - 2010.06.03 15:57:51.
