data_PCOD9515135
_publ_section_title
;
Structure prediction by ZEFSAII (Michael W. Deem and Ramdas Pophale) SiO2 
 PCOD9515135
Probable space group: F D D D
;
_chemical_formula_sum "Si O2"
_cell_formula_units_Z 176
_cell_length_a 12.537666
_cell_length_b 18.892271
_cell_length_c 27.846842
_cell_angle_alpha 90.000000
_cell_angle_beta 90.000000
_cell_angle_gamma 90.000000
_cell_volume 6595.941779
_symmetry_space_group_name_H-M "F D D D"
_symmetry_group_IT_number 70
_space_group.IT_coordinate_system_code '2'
_symmetry_cell_setting 'orthorhombic'
loop_
_space_group_symop_operation_xyz
x,y,z
1/4-x,1/4-y,z
x,1/4-y,1/4-z
1/4-x,y,1/4-z
-x,-y,-z
3/4+x,3/4+y,-z
-x,3/4+y,3/4+z
3/4+x,-y,3/4+z
x,1/2+y,1/2+z
1/4-x,3/4-y,1/2+z
x,3/4-y,3/4-z
1/4-x,1/2+y,3/4-z
-x,1/2-y,1/2-z
3/4+x,1/4+y,1/2-z
-x,1/4+y,1/4+z
3/4+x,1/2-y,1/4+z
1/2+x,y,1/2+z
3/4-x,1/4-y,1/2+z
1/2+x,1/4-y,3/4-z
3/4-x,y,3/4-z
1/2-x,-y,1/2-z
1/4+x,3/4+y,1/2-z
1/2-x,3/4+y,1/4+z
1/4+x,-y,1/4+z
1/2+x,1/2+y,z
3/4-x,3/4-y,z
1/2+x,3/4-y,1/4-z
3/4-x,1/2+y,1/4-z
1/2-x,1/2-y,-z
1/4+x,1/4+y,-z
1/2-x,1/4+y,3/4+z
1/4+x,1/2-y,3/4+z
loop_
_atom_site_type_symbol
_atom_site_label
_atom_site_fract_x
_atom_site_fract_y
_atom_site_fract_z
Si Si1 0.741247 0.820527 0.637572
Si Si2 0.948384 0.125000 0.125000
Si Si3 0.124944 0.987700 0.018005
Si Si4 0.875000 0.875000 0.036079
Si Si5 0.375000 0.987769 0.375000
Si Si6 0.557506 0.784310 0.806932
Si Si7 0.427285 0.287701 0.467915
O O1 0.625000 0.844319 0.625000
O O2 0.784811 0.882215 0.672793
O O3 0.798361 0.787446 0.590712
O O4 0.725165 0.752772 0.671936
O O5 0.876330 0.158365 0.084506
O O6 0.026030 0.062063 0.109477
O O7 0.149338 0.978482 0.073867
O O8 0.163223 0.064211 0.998890
O O9 0.212022 0.935772 0.993043
O O10 0.000000 0.000000 0.000000
O O11 0.619991 0.761572 0.759072
O O12 0.437982 0.816651 0.800851
#
# Coordination Sequence:
#
# PCOD9515135 Si02
#       7
#    32  16  32  16  16  32  32
#     4   9  20  40  62  85 129 172 211 268 340 412
#     4  11  22  36  67 100 132 169 232 293 352 412
#     4  11  24  42  68  96 137 179 230 288 353 428
#     4  10  22  41  62  94 126 170 223 276 340 416
#     4  11  24  40  64 102 140 172 226 298 356 417
#     4  10  20  40  70  91 131 177 220 282 353 415
#     4   9  20  40  64  91 126 177 219 274 343 416
#
# _framework density 26.683074000000001
#
# number of rings (size 3 to 8) (size 9 to 14) (size 15 to 20)
#    0.000    2.000    1.818    1.091    7.636    0.000 
#    4.909    4.091    8.000    0.000    0.000    0.000 
#    0.000    0.000    0.000    0.000    0.000    0.000 
#
# Total GULP energy -245096.058695 kJ/mol
# GULP energy per Si atom -5570.364970 kJ/mol
# Density = 2.662234 g / cm^3
# Si number density = 26.683074 Si / 1000 Ang^3
#
#
#
# Elastic Constant Matrix: (Units=GPa)
#
#
# Indices 1 2 3 4 5 6 
#
# 1 105.4870 10.7321 13.5454 0.0000 0.0000 0.0000
# 2 10.7321 35.9388 17.5094 0.0000 0.0000 0.0000
# 3 13.5454 17.5094 120.3592 0.0000 0.0000 0.0000
# 4 0.0000 0.0000 0.0000 17.1070 0.0000 0.0000
# 5 0.0000 0.0000 0.0000 0.0000 16.4795 0.0000
# 6 0.0000 0.0000 0.0000 0.0000 0.0000 9.5746
#
#
#
# Elastic Compliance Matrix: (Units=1/GPa)
#
#
# Indices 1 2 3 4 5 6 
#
# 1 0.009836 -0.002581 -0.000732 0.000000 0.000000 0.000000
# 2 -0.002581 0.030625 -0.004165 0.000000 0.000000 0.000000
# 3 -0.000732 -0.004165 0.008997 0.000000 0.000000 0.000000
# 4 0.000000 0.000000 0.000000 0.058455 0.000000 0.000000
# 5 0.000000 0.000000 0.000000 0.000000 0.060681 0.000000
# 6 0.000000 0.000000 0.000000 0.000000 0.000000 0.104443
#
#
# Mechanical properties :
#
#
# Convention : Reuss Voigt Hill
#
# Bulk Modulus (GPa) = 28.98260 38.37320 33.67790
# Shear Modulus (GPa) = 16.69484 23.29876 19.99680
#
# Velocity S-wave (km/s) = 2.50406 2.95814 2.74052
# Velocity P-wave (km/s) = 4.38700 5.10684 4.76055
#
# Compressibility (1/GPa) = 0.03450346
#
# Stress axis : x y z
#
# Youngs Moduli (GPa) = 101.66363 32.65322 111.15232
#
# Poissons Ratio (x) = 0.08428 0.08131
# Poissons Ratio (y) = 0.26239 0.46292
# Poissons Ratio (z) = 0.07437 0.13599
#
# Static dielectric constant tensor:
#      x y z
#    x 2.380470 0.000000 0.000000 
#    y 0.000000 2.371210 0.000000 
#    z 0.000000 0.000000 2.787140 
# 
# From -- ./inp_files/64806.got.cif
#   From: 2010.05.17/outbox.cif.g08.bks.cpg/sg70_33_cif.got.tgz:64806.got - 2010.06.03 15:57:51.
