data_PCOD9515317
_publ_section_title
;
Structure prediction by ZEFSAII (Michael W. Deem and Ramdas Pophale) SiO2 
 PCOD9515317
Probable space group: F D D D
;
_chemical_formula_sum "Si O2"
_cell_formula_units_Z 176
_cell_length_a 11.092275
_cell_length_b 26.670587
_cell_length_c 23.682094
_cell_angle_alpha 90.000000
_cell_angle_beta 90.000000
_cell_angle_gamma 90.000000
_cell_volume 7006.051138
_symmetry_space_group_name_H-M "F D D D"
_symmetry_group_IT_number 70
_space_group.IT_coordinate_system_code '2'
_symmetry_cell_setting 'orthorhombic'
loop_
_space_group_symop_operation_xyz
x,y,z
1/4-x,1/4-y,z
x,1/4-y,1/4-z
1/4-x,y,1/4-z
-x,-y,-z
3/4+x,3/4+y,-z
-x,3/4+y,3/4+z
3/4+x,-y,3/4+z
x,1/2+y,1/2+z
1/4-x,3/4-y,1/2+z
x,3/4-y,3/4-z
1/4-x,1/2+y,3/4-z
-x,1/2-y,1/2-z
3/4+x,1/4+y,1/2-z
-x,1/4+y,1/4+z
3/4+x,1/2-y,1/4+z
1/2+x,y,1/2+z
3/4-x,1/4-y,1/2+z
1/2+x,1/4-y,3/4-z
3/4-x,y,3/4-z
1/2-x,-y,1/2-z
1/4+x,3/4+y,1/2-z
1/2-x,3/4+y,1/4+z
1/4+x,-y,1/4+z
1/2+x,1/2+y,z
3/4-x,3/4-y,z
1/2+x,3/4-y,1/4-z
3/4-x,1/2+y,1/4-z
1/2-x,1/2-y,-z
1/4+x,1/4+y,-z
1/2-x,1/4+y,3/4+z
1/4+x,1/2-y,3/4+z
loop_
_atom_site_type_symbol
_atom_site_label
_atom_site_fract_x
_atom_site_fract_y
_atom_site_fract_z
Si Si1 0.420863 0.163584 0.167227
Si Si2 0.471724 0.440090 0.583890
Si Si3 0.875000 0.375000 0.751936
Si Si4 0.418896 0.816310 0.194617
Si Si5 0.587042 0.565754 0.186720
Si Si6 0.625000 0.347965 0.625000
Si Si7 0.375000 0.482710 0.375000
O O1 0.359251 0.125000 0.125000
O O2 0.506231 0.134156 0.210642
O O3 0.307321 0.190911 0.194411
O O4 0.511306 0.195968 0.128845
O O5 0.379657 0.426624 0.534549
O O6 0.407147 0.455771 0.642144
O O7 0.532409 0.386164 0.595262
O O8 0.581135 0.478890 0.575604
O O9 0.375000 0.875000 0.196944
O O10 0.398228 0.794738 0.256490
O O11 0.554692 0.817652 0.172312
O O12 0.625000 0.625000 0.187154
O O13 0.625000 0.545989 0.125000
#
# Coordination Sequence:
#
# PCOD9515317 Si02
#       7
#    32  32  16  32  32  16  16
#     4  12  24  45  64  99 144 189 247 294 363 443
#     4  10  22  37  64 104 133 177 240 295 371 420
#     4  12  23  40  72 102 131 194 244 298 358 442
#     4   9  18  34  58  97 132 166 229 298 356 423
#     4  10  21  36  65  98 125 183 239 290 349 436
#     4   9  16  34  61  94 135 168 227 295 348 426
#     4  11  25  46  65 100 154 188 232 317 369 426
#
# _framework density 25.12114
#
# number of rings (size 3 to 8) (size 9 to 14) (size 15 to 20)
#    0.000    1.636    6.364    0.000   10.182    0.727 
#    0.000    0.000    2.000    1.091    0.000    0.000 
#    0.000    0.000    0.000    0.000    0.000    0.000 
#
# Total GULP energy -245366.818483 kJ/mol
# GULP energy per Si atom -5576.518602 kJ/mol
# Density = 2.506396 g / cm^3
# Si number density = 25.121140 Si / 1000 Ang^3
#
#
#
# Elastic Constant Matrix: (Units=GPa)
#
#
# Indices 1 2 3 4 5 6 
#
# 1 166.0182 22.7591 72.4508 0.0000 0.0000 0.0000
# 2 22.7591 63.0963 33.7776 0.0000 0.0000 0.0000
# 3 72.4508 33.7776 179.8072 0.0000 0.0000 0.0000
# 4 0.0000 0.0000 0.0000 2.7583 0.0000 0.0000
# 5 0.0000 0.0000 0.0000 0.0000 26.4370 0.0000
# 6 0.0000 0.0000 0.0000 0.0000 0.0000 13.7736
#
#
#
# Elastic Compliance Matrix: (Units=1/GPa)
#
#
# Indices 1 2 3 4 5 6 
#
# 1 0.007388 -0.001191 -0.002753 0.000000 0.000000 0.000000
# 2 -0.001191 0.017813 -0.002866 0.000000 0.000000 0.000000
# 3 -0.002753 -0.002866 0.007209 0.000000 0.000000 0.000000
# 4 0.000000 0.000000 0.000000 0.362549 0.000000 0.000000
# 5 0.000000 0.000000 0.000000 0.000000 0.037826 0.000000
# 6 0.000000 0.000000 0.000000 0.000000 0.000000 0.072602
#
#
# Mechanical properties :
#
#
# Convention : Reuss Voigt Hill
#
# Bulk Modulus (GPa) = 53.22204 74.09963 63.66084
# Shear Modulus (GPa) = 9.51889 27.25606 18.38747
#
# Velocity S-wave (km/s) = 1.94870 3.29748 2.70840
# Velocity P-wave (km/s) = 5.12790 6.63768 5.93103
#
# Compressibility (1/GPa) = 0.01878921
#
# Stress axis : x y z
#
# Youngs Moduli (GPa) = 135.35024 56.13928 138.70901
#
# Poissons Ratio (x) = 0.06687 0.38190
# Poissons Ratio (y) = 0.16121 0.39758
# Poissons Ratio (z) = 0.37265 0.16091
#
# Static dielectric constant tensor:
#      x y z
#    x 2.031450 0.000000 0.000000 
#    y 0.000000 2.021870 0.000000 
#    z 0.000000 0.000000 2.065830 
# 
# From -- ./inp_files/50438.got.cif
#   From: 2010.05.17/outbox.cif.g08.bks.cpg/sg70_26_cif.got.tgz:50438.got - 2010.06.03 15:57:51.
