data_PCOD9515631
_publ_section_title
;
Structure prediction by ZEFSAII (Michael W. Deem and Ramdas Pophale) SiO2 
 PCOD9515631
Probable space group: F D D D
;
_chemical_formula_sum "Si O2"
_cell_formula_units_Z 96
_cell_length_a 16.245350
_cell_length_b 21.715802
_cell_length_c 12.032872
_cell_angle_alpha 90.000000
_cell_angle_beta 90.000000
_cell_angle_gamma 90.000000
_cell_volume 4244.966259
_symmetry_space_group_name_H-M "F D D D"
_symmetry_group_IT_number 70
_space_group.IT_coordinate_system_code '2'
_symmetry_cell_setting 'orthorhombic'
loop_
_space_group_symop_operation_xyz
x,y,z
1/4-x,1/4-y,z
x,1/4-y,1/4-z
1/4-x,y,1/4-z
-x,-y,-z
3/4+x,3/4+y,-z
-x,3/4+y,3/4+z
3/4+x,-y,3/4+z
x,1/2+y,1/2+z
1/4-x,3/4-y,1/2+z
x,3/4-y,3/4-z
1/4-x,1/2+y,3/4-z
-x,1/2-y,1/2-z
3/4+x,1/4+y,1/2-z
-x,1/4+y,1/4+z
3/4+x,1/2-y,1/4+z
1/2+x,y,1/2+z
3/4-x,1/4-y,1/2+z
1/2+x,1/4-y,3/4-z
3/4-x,y,3/4-z
1/2-x,-y,1/2-z
1/4+x,3/4+y,1/2-z
1/2-x,3/4+y,1/4+z
1/4+x,-y,1/4+z
1/2+x,1/2+y,z
3/4-x,3/4-y,z
1/2+x,3/4-y,1/4-z
3/4-x,1/2+y,1/4-z
1/2-x,1/2-y,-z
1/4+x,1/4+y,-z
1/2-x,1/4+y,3/4+z
1/4+x,1/2-y,3/4+z
loop_
_atom_site_type_symbol
_atom_site_label
_atom_site_fract_x
_atom_site_fract_y
_atom_site_fract_z
Si Si1 0.376681 0.224362 0.054553
Si Si2 0.308965 0.693729 0.969879
Si Si3 0.999481 0.685132 0.883435
O O1 0.393033 0.186083 0.164882
O O2 0.336788 0.288630 0.094898
O O3 0.310653 0.192583 0.972638
O O4 0.458985 0.228229 0.979822
O O5 0.375000 0.708420 0.875000
O O6 0.259253 0.633202 0.931860
O O7 0.250000 0.750000 0.000000
#
# Coordination Sequence:
#
# PCOD9515631 Si02
#       3
#    32  32  32
#     4  10  21  43  67 101 133 179 233 284 352 409
#     4  12  25  42  68 102 142 186 225 293 352 419
#     4  10  22  42  74  97 139 179 232 294 347 415
#
# _framework density 22.615020000000001
#
# number of rings (size 3 to 8) (size 9 to 14) (size 15 to 20)
#    0.000    1.333    3.333    3.000    0.000    1.333 
#    0.000    1.667    0.000    4.000    0.000    0.000 
#    0.000    0.000    0.000    0.000    0.000    0.000 
#
# Total GULP energy -134162.727891 kJ/mol
# GULP energy per Si atom -5590.113662 kJ/mol
# Density = 2.256355 g / cm^3
# Si number density = 22.615020 Si / 1000 Ang^3
#
#
#
# Elastic Constant Matrix: (Units=GPa)
#
#
# Indices 1 2 3 4 5 6 
#
# 1 84.4636 76.9195 53.1186 0.0000 0.0000 0.0000
# 2 76.9195 173.8108 68.6201 0.0000 0.0000 0.0000
# 3 53.1186 68.6201 196.0279 0.0000 0.0000 0.0000
# 4 0.0000 0.0000 0.0000 44.6432 0.0000 0.0000
# 5 0.0000 0.0000 0.0000 0.0000 22.3491 0.0000
# 6 0.0000 0.0000 0.0000 0.0000 0.0000 23.7444
#
#
#
# Elastic Compliance Matrix: (Units=1/GPa)
#
#
# Indices 1 2 3 4 5 6 
#
# 1 0.021115 -0.008222 -0.002844 0.000000 0.000000 0.000000
# 2 -0.008222 0.009877 -0.001230 0.000000 0.000000 0.000000
# 3 -0.002844 -0.001230 0.006302 0.000000 0.000000 0.000000
# 4 0.000000 0.000000 0.000000 0.022400 0.000000 0.000000
# 5 0.000000 0.000000 0.000000 0.000000 0.044745 0.000000
# 6 0.000000 0.000000 0.000000 0.000000 0.000000 0.042115
#
#
# Mechanical properties :
#
#
# Convention : Reuss Voigt Hill
#
# Bulk Modulus (GPa) = 78.71131 94.62430 86.66780
# Shear Modulus (GPa) = 28.50956 35.19029 31.84992
#
# Velocity S-wave (km/s) = 3.55441 3.94897 3.75687
# Velocity P-wave (km/s) = 7.19205 7.91989 7.56473
#
# Compressibility (1/GPa) = 0.01270465
#
# Stress axis : x y z
#
# Youngs Moduli (GPa) = 47.35916 101.24109 158.67156
#
# Poissons Ratio (x) = 0.83239 0.45120
# Poissons Ratio (y) = 0.38938 0.19512
# Poissons Ratio (z) = 0.13467 0.12450
#
# Static dielectric constant tensor:
#      x y z
#    x 1.909010 0.000000 0.000000 
#    y 0.000000 1.864200 0.000000 
#    z 0.000000 0.000000 1.836160 
# 
# From -- ./inp_files/15835.got.cif
#   From: 2010.05.17/outbox.cif.g08.bks.cpg/sg70_8_cif.got.tgz:15835.got - 2010.06.03 15:57:51.
