data_PCOD9515924
_publ_section_title
;
Structure prediction by ZEFSAII (Michael W. Deem and Ramdas Pophale) SiO2 
 PCOD9515924
Probable space group: F D D D
;
_chemical_formula_sum "Si O2"
_cell_formula_units_Z 104
_cell_length_a 29.946084
_cell_length_b 7.634544
_cell_length_c 18.209037
_cell_angle_alpha 90.000000
_cell_angle_beta 90.000000
_cell_angle_gamma 90.000000
_cell_volume 4163.035547
_symmetry_space_group_name_H-M "F D D D"
_symmetry_group_IT_number 70
_space_group.IT_coordinate_system_code '2'
_symmetry_cell_setting 'orthorhombic'
loop_
_space_group_symop_operation_xyz
x,y,z
1/4-x,1/4-y,z
x,1/4-y,1/4-z
1/4-x,y,1/4-z
-x,-y,-z
3/4+x,3/4+y,-z
-x,3/4+y,3/4+z
3/4+x,-y,3/4+z
x,1/2+y,1/2+z
1/4-x,3/4-y,1/2+z
x,3/4-y,3/4-z
1/4-x,1/2+y,3/4-z
-x,1/2-y,1/2-z
3/4+x,1/4+y,1/2-z
-x,1/4+y,1/4+z
3/4+x,1/2-y,1/4+z
1/2+x,y,1/2+z
3/4-x,1/4-y,1/2+z
1/2+x,1/4-y,3/4-z
3/4-x,y,3/4-z
1/2-x,-y,1/2-z
1/4+x,3/4+y,1/2-z
1/2-x,3/4+y,1/4+z
1/4+x,-y,1/4+z
1/2+x,1/2+y,z
3/4-x,3/4-y,z
1/2+x,3/4-y,1/4-z
3/4-x,1/2+y,1/4-z
1/2-x,1/2-y,-z
1/4+x,1/4+y,-z
1/2-x,1/4+y,3/4+z
1/4+x,1/2-y,3/4+z
loop_
_atom_site_type_symbol
_atom_site_label
_atom_site_fract_x
_atom_site_fract_y
_atom_site_fract_z
Si Si1 0.061882 0.733833 0.440118
Si Si2 0.471931 0.905653 0.789012
Si Si3 0.125000 0.125000 0.125000
Si Si4 0.900281 0.153984 0.246767
O O1 0.059045 0.875000 0.375000
O O2 0.083289 0.540572 0.434371
O O3 0.096606 0.839255 0.492201
O O4 0.011257 0.699906 0.463337
O O5 0.460931 0.875000 0.875000
O O6 0.500000 0.750000 0.750000
O O7 0.428287 0.978442 0.748570
O O8 0.093588 0.245632 0.175800
#
# Coordination Sequence:
#
# PCOD9515924 Si02
#       4
#    32  32   8  32
#     4   9  21  43  66 103 139 180 237 290 370 438
#     4  11  26  43  65 105 142 187 245 299 364 443
#     4   8  20  40  70 108 128 184 250 290 366 428
#     4  10  22  42  73  97 142 186 236 304 364 427
#
# _framework density 24.981770000000001
#
# number of rings (size 3 to 8) (size 9 to 14) (size 15 to 20)
#    0.000    2.462    0.000    0.923    8.615   11.077 
#    0.000    0.000    0.000    0.000    0.000    0.000 
#    0.000    0.000    0.000    0.000    0.000    0.000 
#
# Total GULP energy -144800.123689 kJ/mol
# GULP energy per Si atom -5569.235527 kJ/mol
# Density = 2.492491 g / cm^3
# Si number density = 24.981770 Si / 1000 Ang^3
#
#
#
# Elastic Constant Matrix: (Units=GPa)
#
#
# Indices 1 2 3 4 5 6 
#
# 1 100.4138 19.2579 12.7301 0.0000 0.0000 0.0000
# 2 19.2579 131.3004 34.5336 0.0000 0.0000 0.0000
# 3 12.7301 34.5336 87.6069 0.0000 0.0000 0.0000
# 4 0.0000 0.0000 0.0000 21.1531 0.0000 0.0000
# 5 0.0000 0.0000 0.0000 0.0000 28.6959 0.0000
# 6 0.0000 0.0000 0.0000 0.0000 0.0000 47.9910
#
#
#
# Elastic Compliance Matrix: (Units=1/GPa)
#
#
# Indices 1 2 3 4 5 6 
#
# 1 0.010326 -0.001249 -0.001008 0.000000 0.000000 0.000000
# 2 -0.001249 0.008648 -0.003227 0.000000 0.000000 0.000000
# 3 -0.001008 -0.003227 0.012833 0.000000 0.000000 0.000000
# 4 0.000000 0.000000 0.000000 0.047274 0.000000 0.000000
# 5 0.000000 0.000000 0.000000 0.000000 0.034848 0.000000
# 6 0.000000 0.000000 0.000000 0.000000 0.000000 0.020837
#
#
# Mechanical properties :
#
#
# Convention : Reuss Voigt Hill
#
# Bulk Modulus (GPa) = 47.98929 50.26269 49.12599
# Shear Modulus (GPa) = 32.74753 36.42131 34.58442
#
# Velocity S-wave (km/s) = 3.62450 3.82241 3.72477
# Velocity P-wave (km/s) = 6.06362 6.29639 6.18110
#
# Compressibility (1/GPa) = 0.02083798
#
# Stress axis : x y z
#
# Youngs Moduli (GPa) = 96.84104 115.63037 77.92212
#
# Poissons Ratio (x) = 0.14447 0.07854
# Poissons Ratio (y) = 0.12100 0.25149
# Poissons Ratio (z) = 0.09761 0.37320
#
# Static dielectric constant tensor:
#      x y z
#    x 2.045280 0.000000 0.000000 
#    y 0.000000 2.126500 0.000000 
#    z 0.000000 0.000000 2.121740 
# 
# From -- ./inp_files/47396.got.cif
#   From: 2010.05.17/outbox.cif.g08.bks.cpg/sg70_24_cif.got.tgz:47396.got - 2010.06.03 15:57:51.
