data_PCOD9515407
_publ_section_title
;
Structure prediction by ZEFSAII (Michael W. Deem and Ramdas Pophale) SiO2 
 PCOD9515407
Probable space group: F D D D
;
_chemical_formula_sum "Si O2"
_cell_formula_units_Z 176
_cell_length_a 21.984285
_cell_length_b 11.649600
_cell_length_c 29.003858
_cell_angle_alpha 90.000000
_cell_angle_beta 90.000000
_cell_angle_gamma 90.000000
_cell_volume 7428.123735
_symmetry_space_group_name_H-M "F D D D"
_symmetry_group_IT_number 70
_space_group.IT_coordinate_system_code '2'
_symmetry_cell_setting 'orthorhombic'
loop_
_space_group_symop_operation_xyz
x,y,z
1/4-x,1/4-y,z
x,1/4-y,1/4-z
1/4-x,y,1/4-z
-x,-y,-z
3/4+x,3/4+y,-z
-x,3/4+y,3/4+z
3/4+x,-y,3/4+z
x,1/2+y,1/2+z
1/4-x,3/4-y,1/2+z
x,3/4-y,3/4-z
1/4-x,1/2+y,3/4-z
-x,1/2-y,1/2-z
3/4+x,1/4+y,1/2-z
-x,1/4+y,1/4+z
3/4+x,1/2-y,1/4+z
1/2+x,y,1/2+z
3/4-x,1/4-y,1/2+z
1/2+x,1/4-y,3/4-z
3/4-x,y,3/4-z
1/2-x,-y,1/2-z
1/4+x,3/4+y,1/2-z
1/2-x,3/4+y,1/4+z
1/4+x,-y,1/4+z
1/2+x,1/2+y,z
3/4-x,3/4-y,z
1/2+x,3/4-y,1/4-z
3/4-x,1/2+y,1/4-z
1/2-x,1/2-y,-z
1/4+x,1/4+y,-z
1/2-x,1/4+y,3/4+z
1/4+x,1/2-y,3/4+z
loop_
_atom_site_type_symbol
_atom_site_label
_atom_site_fract_x
_atom_site_fract_y
_atom_site_fract_z
Si Si1 0.125000 0.125000 0.888452
Si Si2 0.402655 0.610561 0.476448
Si Si3 0.275935 0.875000 0.375000
Si Si4 0.375000 0.375000 0.950043
Si Si5 0.246461 0.139819 0.841050
Si Si6 0.555661 0.231214 0.088001
Si Si7 0.170782 0.414916 0.427501
O O1 0.181062 0.098222 0.855501
O O2 0.127848 0.232044 0.923047
O O3 0.389908 0.750086 0.472637
O O4 0.470807 0.602899 0.455479
O O5 0.357776 0.525817 0.447362
O O6 0.401448 0.584913 0.530526
O O7 0.319900 0.911154 0.333495
O O8 0.239848 0.773786 0.351273
O O9 0.292958 0.089500 0.879038
O O10 0.490890 0.205308 0.063212
O O11 0.564708 0.125000 0.125000
O O12 0.172696 0.375000 0.375000
#
# Coordination Sequence:
#
# PCOD9515407 Si02
#       7
#    16  32  16  16  32  32  32
#     4  10  23  44  63  94 146 190 218 293 368 413
#     4  11  21  40  72 106 134 186 244 288 353 423
#     4   9  16  32  60 102 140 164 215 282 344 408
#     4   9  17  32  61 106 144 158 222 301 339 407
#     4  10  21  38  67 103 137 180 229 285 355 412
#     4  10  22  44  69 101 144 185 231 294 355 414
#     4  10  24  45  64  97 146 187 234 294 350 426
#
# _framework density 23.693735
#
# number of rings (size 3 to 8) (size 9 to 14) (size 15 to 20)
#    0.000    2.000    1.818    1.091    1.273    2.909 
#    3.273   12.727    0.000    8.727    0.000    0.000 
#    0.000    0.000    0.000    0.000    0.000    0.000 
#
# Total GULP energy -244972.687685 kJ/mol
# GULP energy per Si atom -5567.561084 kJ/mol
# Density = 2.363981 g / cm^3
# Si number density = 23.693735 Si / 1000 Ang^3
#
#
#
# Elastic Constant Matrix: (Units=GPa)
#
#
# Indices 1 2 3 4 5 6 
#
# 1 60.6160 23.2370 50.6022 0.0000 0.0000 0.0000
# 2 23.2370 100.7351 32.2829 0.0000 0.0000 0.0000
# 3 50.6022 32.2829 158.5661 0.0000 0.0000 0.0000
# 4 0.0000 0.0000 0.0000 31.6936 0.0000 0.0000
# 5 0.0000 0.0000 0.0000 0.0000 8.8772 0.0000
# 6 0.0000 0.0000 0.0000 0.0000 0.0000 31.7979
#
#
#
# Elastic Compliance Matrix: (Units=1/GPa)
#
#
# Indices 1 2 3 4 5 6 
#
# 1 0.023424 -0.003218 -0.006820 0.000000 0.000000 0.000000
# 2 -0.003218 0.011062 -0.001225 0.000000 0.000000 0.000000
# 3 -0.006820 -0.001225 0.008732 0.000000 0.000000 0.000000
# 4 0.000000 0.000000 0.000000 0.031552 0.000000 0.000000
# 5 0.000000 0.000000 0.000000 0.000000 0.112648 0.000000
# 6 0.000000 0.000000 0.000000 0.000000 0.000000 0.031449
#
#
# Mechanical properties :
#
#
# Convention : Reuss Voigt Hill
#
# Bulk Modulus (GPa) = 48.32696 59.12904 53.72800
# Shear Modulus (GPa) = 20.13763 28.72674 24.43218
#
# Velocity S-wave (km/s) = 2.91849 3.48576 3.21466
# Velocity P-wave (km/s) = 5.63893 6.41953 6.04185
#
# Compressibility (1/GPa) = 0.02069238
#
# Stress axis : x y z
#
# Youngs Moduli (GPa) = 42.69083 90.40006 114.51555
#
# Poissons Ratio (x) = 0.29088 0.78101
# Poissons Ratio (y) = 0.13737 0.14031
# Poissons Ratio (z) = 0.29116 0.11077
#
# Static dielectric constant tensor:
#      x y z
#    x 2.001330 0.000000 0.000000 
#    y 0.000000 2.126250 0.000000 
#    z 0.000000 0.000000 1.909530 
# 
# From -- ./inp_files/67827.got.cif
#   From: 2010.05.17/outbox.cif.g08.bks.cpg/sg70_34_cif.got.tgz:67827.got - 2010.06.03 15:57:51.
