data_PCOD9515338
_publ_section_title
;
Structure prediction by ZEFSAII (Michael W. Deem and Ramdas Pophale) SiO2 
 PCOD9515338
Probable space group: F D D D
;
_chemical_formula_sum "Si O2"
_cell_formula_units_Z 160
_cell_length_a 13.654279
_cell_length_b 18.036919
_cell_length_c 26.979552
_cell_angle_alpha 90.000000
_cell_angle_beta 90.000000
_cell_angle_gamma 90.000000
_cell_volume 6644.554400
_symmetry_space_group_name_H-M "F D D D"
_symmetry_group_IT_number 70
_space_group.IT_coordinate_system_code '2'
_symmetry_cell_setting 'orthorhombic'
loop_
_space_group_symop_operation_xyz
x,y,z
1/4-x,1/4-y,z
x,1/4-y,1/4-z
1/4-x,y,1/4-z
-x,-y,-z
3/4+x,3/4+y,-z
-x,3/4+y,3/4+z
3/4+x,-y,3/4+z
x,1/2+y,1/2+z
1/4-x,3/4-y,1/2+z
x,3/4-y,3/4-z
1/4-x,1/2+y,3/4-z
-x,1/2-y,1/2-z
3/4+x,1/4+y,1/2-z
-x,1/4+y,1/4+z
3/4+x,1/2-y,1/4+z
1/2+x,y,1/2+z
3/4-x,1/4-y,1/2+z
1/2+x,1/4-y,3/4-z
3/4-x,y,3/4-z
1/2-x,-y,1/2-z
1/4+x,3/4+y,1/2-z
1/2-x,3/4+y,1/4+z
1/4+x,-y,1/4+z
1/2+x,1/2+y,z
3/4-x,3/4-y,z
1/2+x,3/4-y,1/4-z
3/4-x,1/2+y,1/4-z
1/2-x,1/2-y,-z
1/4+x,1/4+y,-z
1/2-x,1/4+y,3/4+z
1/4+x,1/2-y,3/4+z
loop_
_atom_site_type_symbol
_atom_site_label
_atom_site_fract_x
_atom_site_fract_y
_atom_site_fract_z
Si Si1 0.278930 0.473055 0.904652
Si Si2 0.808454 0.137392 0.942910
Si Si3 0.875000 0.493023 0.875000
Si Si4 0.507282 0.662572 0.541493
Si Si5 0.777577 0.421305 0.514412
Si Si6 0.874843 0.625000 0.125000
O O1 0.375000 0.454027 0.875000
O O2 0.286825 0.559056 0.917572
O O3 0.189342 0.448420 0.870779
O O4 0.268977 0.424831 0.954740
O O5 0.797722 0.201263 0.901571
O O6 0.922804 0.144194 0.962366
O O7 0.737679 0.135465 0.991141
O O8 0.840111 0.444360 0.921481
O O9 0.458743 0.741539 0.526916
O O10 0.440863 0.615306 0.577509
O O11 0.875000 0.375000 0.528168
#
# Coordination Sequence:
#
# PCOD9515338 Si02
#       6
#    32  32  16  32  32  16
#     4  11  22  35  61  93 133 172 208 271 335 407
#     4  10  21  42  66  98 134 179 227 284 338 416
#     4  10  22  47  72  95 134 184 234 286 348 404
#     4  10  24  39  68  92 134 176 229 290 339 409
#     4  10  21  37  61  94 132 172 220 273 336 408
#     4  12  23  39  58 100 132 170 228 273 345 410
#
# _framework density 24.079868000000001
#
# number of rings (size 3 to 8) (size 9 to 14) (size 15 to 20)
#    0.000    1.600    3.000    1.500    2.800    2.000 
#    0.000    1.000    8.800    0.000    0.000    0.000 
#    0.000    0.000    0.000    0.000    0.000    0.000 
#
# Total GULP energy -223265.856175 kJ/mol
# GULP energy per Si atom -5581.646404 kJ/mol
# Density = 2.402506 g / cm^3
# Si number density = 24.079868 Si / 1000 Ang^3
#
#
#
# Elastic Constant Matrix: (Units=GPa)
#
#
# Indices 1 2 3 4 5 6 
#
# 1 81.8255 23.5097 18.2451 0.0000 0.0000 0.0000
# 2 23.5097 112.6788 33.4207 0.0000 0.0000 0.0000
# 3 18.2451 33.4207 126.8123 0.0000 0.0000 0.0000
# 4 0.0000 0.0000 0.0000 -17.7240 0.0000 0.0000
# 5 0.0000 0.0000 0.0000 0.0000 22.9202 0.0000
# 6 0.0000 0.0000 0.0000 0.0000 0.0000 51.5480
#
#
#
# Elastic Compliance Matrix: (Units=1/GPa)
#
#
# Indices 1 2 3 4 5 6 
#
# 1 0.013187 -0.002374 -0.001272 0.000000 0.000000 0.000000
# 2 -0.002374 0.010055 -0.002308 0.000000 0.000000 0.000000
# 3 -0.001272 -0.002308 0.008677 0.000000 0.000000 0.000000
# 4 0.000000 0.000000 0.000000 -0.056421 0.000000 0.000000
# 5 0.000000 0.000000 0.000000 0.000000 0.043630 0.000000
# 6 0.000000 0.000000 0.000000 0.000000 0.000000 0.019399
#
#
# Mechanical properties :
#
#
# Convention : Reuss Voigt Hill
#
# Bulk Modulus (GPa) = 49.97388 52.40753 51.19070
# Shear Modulus (GPa) = 87.55798 27.75826 57.65812
#
# Velocity S-wave (km/s) = 6.03659 3.39891 4.89862
# Velocity P-wave (km/s) = 8.32981 6.10039 7.30070
#
# Compressibility (1/GPa) = 0.02001046
#
# Stress axis : x y z
#
# Youngs Moduli (GPa) = 75.83343 99.45512 115.24785
#
# Poissons Ratio (x) = 0.23613 0.14654
# Poissons Ratio (y) = 0.18004 0.26603
# Poissons Ratio (z) = 0.09643 0.22957
#
# Static dielectric constant tensor:
#      x y z
#    x 2.083190 0.000000 0.000000 
#    y 0.000000 1.896820 0.000000 
#    z 0.000000 0.000000 1.975120 
# 
# From -- ./inp_files/65707.got.cif
#   From: 2010.05.17/outbox.cif.g08.bks.cpg/sg70_33_cif.got.tgz:65707.got - 2010.06.03 15:57:51.
