data_PCOD9515531
_publ_section_title
;
Structure prediction by ZEFSAII (Michael W. Deem and Ramdas Pophale) SiO2 
 PCOD9515531
Probable space group: F D D D
;
_chemical_formula_sum "Si O2"
_cell_formula_units_Z 240
_cell_length_a 26.693657
_cell_length_b 21.041981
_cell_length_c 20.327085
_cell_angle_alpha 90.000000
_cell_angle_beta 90.000000
_cell_angle_gamma 90.000000
_cell_volume 11417.467999
_symmetry_space_group_name_H-M "F D D D"
_symmetry_group_IT_number 70
_space_group.IT_coordinate_system_code '2'
_symmetry_cell_setting 'orthorhombic'
loop_
_space_group_symop_operation_xyz
x,y,z
1/4-x,1/4-y,z
x,1/4-y,1/4-z
1/4-x,y,1/4-z
-x,-y,-z
3/4+x,3/4+y,-z
-x,3/4+y,3/4+z
3/4+x,-y,3/4+z
x,1/2+y,1/2+z
1/4-x,3/4-y,1/2+z
x,3/4-y,3/4-z
1/4-x,1/2+y,3/4-z
-x,1/2-y,1/2-z
3/4+x,1/4+y,1/2-z
-x,1/4+y,1/4+z
3/4+x,1/2-y,1/4+z
1/2+x,y,1/2+z
3/4-x,1/4-y,1/2+z
1/2+x,1/4-y,3/4-z
3/4-x,y,3/4-z
1/2-x,-y,1/2-z
1/4+x,3/4+y,1/2-z
1/2-x,3/4+y,1/4+z
1/4+x,-y,1/4+z
1/2+x,1/2+y,z
3/4-x,3/4-y,z
1/2+x,3/4-y,1/4-z
3/4-x,1/2+y,1/4-z
1/2-x,1/2-y,-z
1/4+x,1/4+y,-z
1/2-x,1/4+y,3/4+z
1/4+x,1/2-y,3/4+z
loop_
_atom_site_type_symbol
_atom_site_label
_atom_site_fract_x
_atom_site_fract_y
_atom_site_fract_z
Si Si1 0.291175 0.951883 0.963761
Si Si2 0.093079 0.256655 0.841928
Si Si3 0.988848 0.702988 0.355387
Si Si4 0.160882 0.186111 0.947253
Si Si5 0.747865 0.436827 0.104576
Si Si6 0.681428 0.695370 0.099903
Si Si7 0.775442 0.125000 0.125000
Si Si8 0.858559 0.503318 0.805532
O O1 0.260517 0.893346 0.934560
O O2 0.269327 0.015662 0.927734
O O3 0.349679 0.947658 0.944941
O O4 0.279731 0.953050 0.040024
O O5 0.131325 0.234768 0.898739
O O6 0.061372 0.316540 0.863977
O O7 0.115702 0.274068 0.770500
O O8 0.047496 0.205273 0.835759
O O9 0.951422 0.748226 0.313453
O O10 0.970427 0.630911 0.345782
O O11 0.125000 0.125000 0.951183
O O12 0.213164 0.172739 0.912296
O O13 0.175696 0.203426 0.021464
O O14 0.714073 0.497186 0.121552
O O15 0.699322 0.625000 0.125000
O O16 0.625000 0.700777 0.125000
O O17 0.875000 0.537337 0.875000
#
# Coordination Sequence:
#
# PCOD9515531 Si02
#       8
#    32  32  32  32  32  32  16  32
#     4  10  23  43  65  99 140 182 229 289 339 413
#     4  11  22  44  67  98 140 182 238 283 348 417
#     4  10  23  40  69  96 142 182 232 289 341 414
#     4  12  24  48  73 105 136 184 232 286 357 419
#     4  12  25  44  74 105 134 182 238 283 362 420
#     4  11  27  48  77 103 140 176 226 295 361 428
#     4  10  24  42  69  96 138 192 227 286 356 406
#     4  10  21  41  61  95 138 180 228 280 338 395
#
# _framework density 21.020423000000001
#
# number of rings (size 3 to 8) (size 9 to 14) (size 15 to 20)
#    0.000    1.200    4.000    1.600    5.600    3.733 
#    6.000   13.667    0.000    0.000    0.000    0.000 
#    0.000    0.000    0.000    0.000    0.000    0.000 
#
# Total GULP energy -334149.977156 kJ/mol
# GULP energy per Si atom -5569.166286 kJ/mol
# Density = 2.097258 g / cm^3
# Si number density = 21.020423 Si / 1000 Ang^3
#
#
#
# Elastic Constant Matrix: (Units=GPa)
#
#
# Indices 1 2 3 4 5 6 
#
# 1 59.9693 28.2608 15.8955 0.0000 0.0000 0.0000
# 2 28.2608 114.1120 17.9185 0.0000 0.0000 0.0000
# 3 15.8955 17.9185 150.0812 0.0000 0.0000 0.0000
# 4 0.0000 0.0000 0.0000 15.6176 0.0000 0.0000
# 5 0.0000 0.0000 0.0000 0.0000 25.6521 0.0000
# 6 0.0000 0.0000 0.0000 0.0000 0.0000 26.9501
#
#
#
# Elastic Compliance Matrix: (Units=1/GPa)
#
#
# Indices 1 2 3 4 5 6 
#
# 1 0.019202 -0.004521 -0.001494 0.000000 0.000000 0.000000
# 2 -0.004521 0.009995 -0.000715 0.000000 0.000000 0.000000
# 3 -0.001494 -0.000715 0.006907 0.000000 0.000000 0.000000
# 4 0.000000 0.000000 0.000000 0.064030 0.000000 0.000000
# 5 0.000000 0.000000 0.000000 0.000000 0.038983 0.000000
# 6 0.000000 0.000000 0.000000 0.000000 0.000000 0.037106
#
#
# Mechanical properties :
#
#
# Convention : Reuss Voigt Hill
#
# Bulk Modulus (GPa) = 44.16039 49.81246 46.98643
# Shear Modulus (GPa) = 25.35121 31.11648 28.23384
#
# Velocity S-wave (km/s) = 3.47656 3.85164 3.66889
# Velocity P-wave (km/s) = 6.09666 6.59763 6.35209
#
# Compressibility (1/GPa) = 0.02264473
#
# Stress axis : x y z
#
# Youngs Moduli (GPa) = 52.07884 100.04847 144.78912
#
# Poissons Ratio (x) = 0.45231 0.21631
# Poissons Ratio (y) = 0.23544 0.10346
# Poissons Ratio (z) = 0.07780 0.07149
#
# Static dielectric constant tensor:
#      x y z
#    x 1.794370 0.000000 0.000000 
#    y 0.000000 1.807720 0.000000 
#    z 0.000000 0.000000 1.795430 
# 
# From -- ./inp_files/47111.got.cif
#   From: 2010.05.17/outbox.cif.g08.bks.cpg/sg70_24_cif.got.tgz:47111.got - 2010.06.03 15:57:51.
