data_PCOD9515031
_publ_section_title
;
Structure prediction by ZEFSAII (Michael W. Deem and Ramdas Pophale) SiO2 
 PCOD9515031
Probable space group: F D D D
;
_chemical_formula_sum "Si O2"
_cell_formula_units_Z 216
_cell_length_a 14.101837
_cell_length_b 22.234997
_cell_length_c 33.437015
_cell_angle_alpha 90.000000
_cell_angle_beta 90.000000
_cell_angle_gamma 90.000000
_cell_volume 10484.319946
_symmetry_space_group_name_H-M "F D D D"
_symmetry_group_IT_number 70
_space_group.IT_coordinate_system_code '2'
_symmetry_cell_setting 'orthorhombic'
loop_
_space_group_symop_operation_xyz
x,y,z
1/4-x,1/4-y,z
x,1/4-y,1/4-z
1/4-x,y,1/4-z
-x,-y,-z
3/4+x,3/4+y,-z
-x,3/4+y,3/4+z
3/4+x,-y,3/4+z
x,1/2+y,1/2+z
1/4-x,3/4-y,1/2+z
x,3/4-y,3/4-z
1/4-x,1/2+y,3/4-z
-x,1/2-y,1/2-z
3/4+x,1/4+y,1/2-z
-x,1/4+y,1/4+z
3/4+x,1/2-y,1/4+z
1/2+x,y,1/2+z
3/4-x,1/4-y,1/2+z
1/2+x,1/4-y,3/4-z
3/4-x,y,3/4-z
1/2-x,-y,1/2-z
1/4+x,3/4+y,1/2-z
1/2-x,3/4+y,1/4+z
1/4+x,-y,1/4+z
1/2+x,1/2+y,z
3/4-x,3/4-y,z
1/2+x,3/4-y,1/4-z
3/4-x,1/2+y,1/4-z
1/2-x,1/2-y,-z
1/4+x,1/4+y,-z
1/2-x,1/4+y,3/4+z
1/4+x,1/2-y,3/4+z
loop_
_atom_site_type_symbol
_atom_site_label
_atom_site_fract_x
_atom_site_fract_y
_atom_site_fract_z
Si Si1 0.022827 0.283150 0.817122
Si Si2 0.970685 0.845467 0.070175
Si Si3 0.293653 0.067202 0.249507
Si Si4 0.875000 0.529977 0.875000
Si Si5 0.918685 0.315540 0.745951
Si Si6 0.772831 0.582171 0.064647
Si Si7 0.125000 0.625000 0.625000
Si Si8 0.978128 0.245238 0.508225
O O1 0.037487 0.224264 0.789037
O O2 0.124716 0.309228 0.830251
O O3 0.946917 0.263177 0.850038
O O4 0.985197 0.329566 0.783543
O O5 0.875000 0.875000 0.088499
O O6 0.943195 0.785793 0.044903
O O7 0.055094 0.823016 0.098946
O O8 0.007831 0.892590 0.036571
O O9 0.274978 0.103840 0.208597
O O10 0.250000 0.000000 0.250000
O O11 0.405820 0.057196 0.251669
O O12 0.875000 0.375000 0.727829
O O13 0.833519 0.277773 0.765782
O O14 0.694735 0.585305 0.098446
O O15 0.738736 0.536589 0.030577
#
# Coordination Sequence:
#
# PCOD9515031 Si02
#       8
#    32  32  32  16  32  32   8  32
#     4  10  23  44  64  97 135 177 223 280 342 408
#     4  11  24  44  66  97 133 177 228 281 345 416
#     4  11  21  39  73 100 125 169 231 284 335 404
#     4  12  26  46  66  94 150 185 215 294 350 406
#     4  10  20  38  72  98 122 168 231 280 331 402
#     4  10  24  42  66  97 134 171 225 275 337 411
#     4  12  24  44  62  90 140 176 206 284 336 386
#     4  10  20  40  68  96 125 168 223 283 332 398
#
# _framework density 20.602194000000001
#
# number of rings (size 3 to 8) (size 9 to 14) (size 15 to 20)
#    0.000    1.481    2.963    1.778    6.222    1.778 
#    8.000    0.741    0.000    0.000    0.000    0.000 
#    0.000    0.000    0.000    0.000    0.000    0.000 
#
# Total GULP energy -301343.056878 kJ/mol
# GULP energy per Si atom -5580.426979 kJ/mol
# Density = 2.055530 g / cm^3
# Si number density = 20.602194 Si / 1000 Ang^3
#
#
#
# Elastic Constant Matrix: (Units=GPa)
#
#
# Indices 1 2 3 4 5 6 
#
# 1 151.8619 32.7777 66.7035 0.0000 0.0000 0.0000
# 2 32.7777 73.8646 34.1749 0.0000 0.0000 0.0000
# 3 66.7035 34.1749 66.0643 0.0000 0.0000 0.0000
# 4 0.0000 0.0000 0.0000 4.5564 0.0000 0.0000
# 5 0.0000 0.0000 0.0000 0.0000 27.9422 0.0000
# 6 0.0000 0.0000 0.0000 0.0000 0.0000 35.5311
#
#
#
# Elastic Compliance Matrix: (Units=1/GPa)
#
#
# Indices 1 2 3 4 5 6 
#
# 1 0.011840 0.000364 -0.012143 0.000000 0.000000 0.000000
# 2 0.000364 0.017809 -0.009580 0.000000 0.000000 0.000000
# 3 -0.012143 -0.009580 0.032353 0.000000 0.000000 0.000000
# 4 0.000000 0.000000 0.000000 0.219473 0.000000 0.000000
# 5 0.000000 0.000000 0.000000 0.000000 0.035788 0.000000
# 6 0.000000 0.000000 0.000000 0.000000 0.000000 0.028144
#
#
# Mechanical properties :
#
#
# Convention : Reuss Voigt Hill
#
# Bulk Modulus (GPa) = 51.85634 62.12258 56.98946
# Shear Modulus (GPa) = 12.67255 24.14822 18.41039
#
# Velocity S-wave (km/s) = 2.48283 3.42734 2.99258
# Velocity P-wave (km/s) = 5.78309 6.77355 6.29782
#
# Compressibility (1/GPa) = 0.01928405
#
# Stress axis : x y z
#
# Youngs Moduli (GPa) = 84.45985 56.15062 30.90906
#
# Poissons Ratio (x) = -0.02044 0.37532
# Poissons Ratio (y) = -0.03075 0.29612
# Poissons Ratio (z) = 1.02558 0.53794
#
# Static dielectric constant tensor:
#      x y z
#    x 1.717240 0.000000 0.000000 
#    y 0.000000 1.749320 0.000000 
#    z 0.000000 0.000000 1.750000 
# 
# From -- ./inp_files/65988.got.cif
#   From: 2010.05.17/outbox.cif.g08.bks.cpg/sg70_33_cif.got.tgz:65988.got - 2010.06.03 15:57:51.
