data_PCOD9515795
_publ_section_title
;
Structure prediction by ZEFSAII (Michael W. Deem and Ramdas Pophale) SiO2 
 PCOD9515795
Probable space group: F D D D
;
_chemical_formula_sum "Si O2"
_cell_formula_units_Z 192
_cell_length_a 24.939799
_cell_length_b 23.216050
_cell_length_c 11.866063
_cell_angle_alpha 90.000000
_cell_angle_beta 90.000000
_cell_angle_gamma 90.000000
_cell_volume 6870.493439
_symmetry_space_group_name_H-M "F D D D"
_symmetry_group_IT_number 70
_space_group.IT_coordinate_system_code '2'
_symmetry_cell_setting 'orthorhombic'
loop_
_space_group_symop_operation_xyz
x,y,z
1/4-x,1/4-y,z
x,1/4-y,1/4-z
1/4-x,y,1/4-z
-x,-y,-z
3/4+x,3/4+y,-z
-x,3/4+y,3/4+z
3/4+x,-y,3/4+z
x,1/2+y,1/2+z
1/4-x,3/4-y,1/2+z
x,3/4-y,3/4-z
1/4-x,1/2+y,3/4-z
-x,1/2-y,1/2-z
3/4+x,1/4+y,1/2-z
-x,1/4+y,1/4+z
3/4+x,1/2-y,1/4+z
1/2+x,y,1/2+z
3/4-x,1/4-y,1/2+z
1/2+x,1/4-y,3/4-z
3/4-x,y,3/4-z
1/2-x,-y,1/2-z
1/4+x,3/4+y,1/2-z
1/2-x,3/4+y,1/4+z
1/4+x,-y,1/4+z
1/2+x,1/2+y,z
3/4-x,3/4-y,z
1/2+x,3/4-y,1/4-z
3/4-x,1/2+y,1/4-z
1/2-x,1/2-y,-z
1/4+x,1/4+y,-z
1/2-x,1/4+y,3/4+z
1/4+x,1/2-y,3/4+z
loop_
_atom_site_type_symbol
_atom_site_label
_atom_site_fract_x
_atom_site_fract_y
_atom_site_fract_z
Si Si1 0.092473 0.309004 0.871673
Si Si2 0.978505 0.686090 0.347435
Si Si3 0.706266 0.269002 0.334024
Si Si4 0.375000 0.286921 0.875000
Si Si5 0.044820 0.942436 0.129792
Si Si6 0.833433 0.332693 0.965054
Si Si7 0.533414 0.125000 0.625000
O O1 0.112401 0.375000 0.875000
O O2 0.054614 0.302717 0.764615
O O3 0.143312 0.270069 0.847613
O O4 0.063263 0.300701 0.989960
O O5 0.969083 0.727822 0.450696
O O6 0.955540 0.625062 0.393464
O O7 0.039450 0.686007 0.304025
O O8 0.733978 0.212088 0.379378
O O9 0.738657 0.323126 0.389247
O O10 0.334043 0.238640 0.929550
O O11 0.420107 0.330647 0.928155
O O12 0.802518 0.375000 0.875000
O O13 0.875000 0.448168 0.875000
O O14 0.875000 0.375000 0.027659
#
# Coordination Sequence:
#
# PCOD9515795 Si02
#       7
#    32  32  32  16  32  32  16
#     4  10  22  40  64  87 134 167 209 272 328 378
#     4  11  21  40  65  91 124 173 216 260 328 398
#     4  11  23  41  62  96 124 168 220 264 329 386
#     4   9  20  40  60  92 120 162 216 250 327 382
#     4  10  24  39  64  91 128 166 219 267 324 394
#     4   6  15  33  56  84 117 154 204 250 306 373
#     4   9  20  42  60  84 132 162 195 284 312 376
#
# _framework density 27.945591
#
# number of rings (size 3 to 8) (size 9 to 14) (size 15 to 20)
#    1.000    1.500    0.833    2.000    4.667    2.000 
#    9.000    5.000    0.000    0.000    0.000    0.000 
#    0.000    0.000    0.000    0.000    0.000    0.000 
#
# Total GULP energy -267530.347705 kJ/mol
# GULP energy per Si atom -5573.548911 kJ/mol
# Density = 2.788199 g / cm^3
# Si number density = 27.945591 Si / 1000 Ang^3
#
#
#
# Elastic Constant Matrix: (Units=GPa)
#
#
# Indices 1 2 3 4 5 6 
#
# 1 196.5088 21.5017 29.5684 0.0000 0.0000 0.0000
# 2 21.5017 87.8088 -15.6249 0.0000 0.0000 0.0000
# 3 29.5684 -15.6249 150.2957 0.0000 0.0000 0.0000
# 4 0.0000 0.0000 0.0000 22.8581 0.0000 0.0000
# 5 0.0000 0.0000 0.0000 0.0000 16.5501 0.0000
# 6 0.0000 0.0000 0.0000 0.0000 0.0000 41.2116
#
#
#
# Elastic Compliance Matrix: (Units=1/GPa)
#
#
# Indices 1 2 3 4 5 6 
#
# 1 0.005444 -0.001552 -0.001232 0.000000 0.000000 0.000000
# 2 -0.001552 0.012046 0.001558 0.000000 0.000000 0.000000
# 3 -0.001232 0.001558 0.007058 0.000000 0.000000 0.000000
# 4 0.000000 0.000000 0.000000 0.043748 0.000000 0.000000
# 5 0.000000 0.000000 0.000000 0.000000 0.060422 0.000000
# 6 0.000000 0.000000 0.000000 0.000000 0.000000 0.024265
#
#
# Mechanical properties :
#
#
# Convention : Reuss Voigt Hill
#
# Bulk Modulus (GPa) = 45.26220 56.16708 50.71464
# Shear Modulus (GPa) = 30.71211 42.73518 36.72365
#
# Velocity S-wave (km/s) = 3.31871 3.91478 3.62900
# Velocity P-wave (km/s) = 5.56029 6.36996 5.97884
#
# Compressibility (1/GPa) = 0.02209349
#
# Stress axis : x y z
#
# Youngs Moduli (GPa) = 183.68387 83.01719 141.68406
#
# Poissons Ratio (x) = 0.12888 0.17462
# Poissons Ratio (y) = 0.28515 -0.22070
# Poissons Ratio (z) = 0.22638 -0.12932
#
# Static dielectric constant tensor:
#      x y z
#    x 2.106410 0.000000 0.000000 
#    y 0.000000 2.242210 0.000000 
#    z 0.000000 0.000000 2.240730 
# 
# From -- ./inp_files/29000.got.cif
#   From: 2010.05.17/outbox.cif.g08.bks.cpg/sg70_15_cif.got.tgz:29000.got - 2010.06.03 15:57:51.
