data_PCOD9515747
_publ_section_title
;
Structure prediction by ZEFSAII (Michael W. Deem and Ramdas Pophale) SiO2 
 PCOD9515747
Probable space group: F D D D
;
_chemical_formula_sum "Si O2"
_cell_formula_units_Z 216
_cell_length_a 30.915101
_cell_length_b 11.137034
_cell_length_c 31.195581
_cell_angle_alpha 90.000000
_cell_angle_beta 90.000000
_cell_angle_gamma 90.000000
_cell_volume 10740.717493
_symmetry_space_group_name_H-M "F D D D"
_symmetry_group_IT_number 70
_space_group.IT_coordinate_system_code '2'
_symmetry_cell_setting 'orthorhombic'
loop_
_space_group_symop_operation_xyz
x,y,z
1/4-x,1/4-y,z
x,1/4-y,1/4-z
1/4-x,y,1/4-z
-x,-y,-z
3/4+x,3/4+y,-z
-x,3/4+y,3/4+z
3/4+x,-y,3/4+z
x,1/2+y,1/2+z
1/4-x,3/4-y,1/2+z
x,3/4-y,3/4-z
1/4-x,1/2+y,3/4-z
-x,1/2-y,1/2-z
3/4+x,1/4+y,1/2-z
-x,1/4+y,1/4+z
3/4+x,1/2-y,1/4+z
1/2+x,y,1/2+z
3/4-x,1/4-y,1/2+z
1/2+x,1/4-y,3/4-z
3/4-x,y,3/4-z
1/2-x,-y,1/2-z
1/4+x,3/4+y,1/2-z
1/2-x,3/4+y,1/4+z
1/4+x,-y,1/4+z
1/2+x,1/2+y,z
3/4-x,3/4-y,z
1/2+x,3/4-y,1/4-z
3/4-x,1/2+y,1/4-z
1/2-x,1/2-y,-z
1/4+x,1/4+y,-z
1/2-x,1/4+y,3/4+z
1/4+x,1/2-y,3/4+z
loop_
_atom_site_type_symbol
_atom_site_label
_atom_site_fract_x
_atom_site_fract_y
_atom_site_fract_z
Si Si1 0.267357 0.125000 0.125000
Si Si2 0.756702 0.635387 0.371452
Si Si3 0.841819 0.124588 0.017728
Si Si4 0.056801 0.212170 0.691420
Si Si5 0.996905 0.503161 0.220261
Si Si6 0.875000 0.375000 0.875000
Si Si7 0.814316 0.079653 0.537351
Si Si8 0.082056 0.585054 0.917941
O O1 0.238274 0.243071 0.123980
O O2 0.297872 0.126632 0.083121
O O3 0.787013 0.699439 0.405755
O O4 0.757331 0.686522 0.323995
O O5 0.708604 0.659773 0.388108
O O6 0.803981 0.024229 0.019930
O O7 0.893592 0.100907 0.019347
O O8 0.834857 0.207004 0.059832
O O9 0.831488 0.208061 0.976631
O O10 0.019359 0.134391 0.714322
O O11 0.087844 0.128164 0.663266
O O12 0.023078 0.431382 0.256535
O O13 0.827993 0.940224 0.546188
O O14 0.125000 0.625000 0.893314
#
# Coordination Sequence:
#
# PCOD9515747 Si02
#       8
#    16  32  32  32  32   8  32  32
#     4  10  24  46  63  83 126 172 224 272 324 378
#     4  11  23  39  62  90 128 173 215 264 319 389
#     4  11  21  34  62  90 134 165 207 262 337 394
#     4  12  22  38  60 101 133 165 204 266 335 399
#     4  12  22  38  63  97 130 165 218 269 328 405
#     4  12  24  36  62  98 144 160 204 274 330 400
#     4  10  22  39  59  91 125 171 212 264 322 388
#     4   9  18  33  55  86 123 165 200 250 319 383
#
# _framework density 20.110388
#
# number of rings (size 3 to 8) (size 9 to 14) (size 15 to 20)
#    0.000    1.185    4.444    3.111    1.037    4.148 
#    0.000    0.000    0.000    0.444    0.000    0.000 
#    0.000    0.000    0.000    0.000    0.000    0.000 
#
# Total GULP energy -300814.519784 kJ/mol
# GULP energy per Si atom -5570.639255 kJ/mol
# Density = 2.006462 g / cm^3
# Si number density = 20.110388 Si / 1000 Ang^3
#
#
#
# Elastic Constant Matrix: (Units=GPa)
#
#
# Indices 1 2 3 4 5 6 
#
# 1 150.6282 95.4610 76.8898 0.0000 0.0000 0.0000
# 2 95.4610 148.7585 81.0124 0.0000 0.0000 0.0000
# 3 76.8898 81.0124 141.1071 0.0000 0.0000 0.0000
# 4 0.0000 0.0000 0.0000 4.7087 0.0000 0.0000
# 5 0.0000 0.0000 0.0000 0.0000 -4.1196 0.0000
# 6 0.0000 0.0000 0.0000 0.0000 0.0000 13.1884
#
#
#
# Elastic Compliance Matrix: (Units=1/GPa)
#
#
# Indices 1 2 3 4 5 6 
#
# 1 0.012052 -0.006049 -0.003094 0.000000 0.000000 0.000000
# 2 -0.006049 0.012816 -0.004062 0.000000 0.000000 0.000000
# 3 -0.003094 -0.004062 0.011105 0.000000 0.000000 0.000000
# 4 0.000000 0.000000 0.000000 0.212371 0.000000 0.000000
# 5 0.000000 0.000000 0.000000 0.000000 -0.242741 0.000000
# 6 0.000000 0.000000 0.000000 0.000000 0.000000 0.075824
#
#
# Mechanical properties :
#
#
# Convention : Reuss Voigt Hill
#
# Bulk Modulus (GPa) = 104.57291 105.24670 104.90980
# Shear Modulus (GPa) = 45.03501 15.23088 30.13295
#
# Velocity S-wave (km/s) = 4.73735 2.75501 3.87509
# Velocity P-wave (km/s) = 9.05736 7.91001 8.50306
#
# Compressibility (1/GPa) = 0.00956271
#
# Stress axis : x y z
#
# Youngs Moduli (GPa) = 82.97512 78.02785 90.04939
#
# Poissons Ratio (x) = 0.47196 0.27865
# Poissons Ratio (y) = 0.50189 0.36578
# Poissons Ratio (z) = 0.25676 0.31694
#
# Static dielectric constant tensor:
#      x y z
#    x 1.753870 0.000000 0.000000 
#    y 0.000000 1.756220 0.000000 
#    z 0.000000 0.000000 1.698880 
# 
# From -- ./inp_files/69023.got.cif
#   From: 2010.05.17/outbox.cif.g08.bks.cpg/sg70_35_cif.got.tgz:69023.got - 2010.06.03 15:57:51.
