data_PCOD9515197
_publ_section_title
;
Structure prediction by ZEFSAII (Michael W. Deem and Ramdas Pophale) SiO2 
 PCOD9515197
Probable space group: F D D D
;
_chemical_formula_sum "Si O2"
_cell_formula_units_Z 112
_cell_length_a 23.185886
_cell_length_b 15.292611
_cell_length_c 13.287940
_cell_angle_alpha 90.000000
_cell_angle_beta 90.000000
_cell_angle_gamma 90.000000
_cell_volume 4711.541232
_symmetry_space_group_name_H-M "F D D D"
_symmetry_group_IT_number 70
_space_group.IT_coordinate_system_code '2'
_symmetry_cell_setting 'orthorhombic'
loop_
_space_group_symop_operation_xyz
x,y,z
1/4-x,1/4-y,z
x,1/4-y,1/4-z
1/4-x,y,1/4-z
-x,-y,-z
3/4+x,3/4+y,-z
-x,3/4+y,3/4+z
3/4+x,-y,3/4+z
x,1/2+y,1/2+z
1/4-x,3/4-y,1/2+z
x,3/4-y,3/4-z
1/4-x,1/2+y,3/4-z
-x,1/2-y,1/2-z
3/4+x,1/4+y,1/2-z
-x,1/4+y,1/4+z
3/4+x,1/2-y,1/4+z
1/2+x,y,1/2+z
3/4-x,1/4-y,1/2+z
1/2+x,1/4-y,3/4-z
3/4-x,y,3/4-z
1/2-x,-y,1/2-z
1/4+x,3/4+y,1/2-z
1/2-x,3/4+y,1/4+z
1/4+x,-y,1/4+z
1/2+x,1/2+y,z
3/4-x,3/4-y,z
1/2+x,3/4-y,1/4-z
3/4-x,1/2+y,1/4-z
1/2-x,1/2-y,-z
1/4+x,1/4+y,-z
1/2-x,1/4+y,3/4+z
1/4+x,1/2-y,3/4+z
loop_
_atom_site_type_symbol
_atom_site_label
_atom_site_fract_x
_atom_site_fract_y
_atom_site_fract_z
Si Si1 0.961943 0.781504 0.656572
Si Si2 0.624994 0.324228 0.518618
Si Si3 0.774563 0.125000 0.125000
Si Si4 0.980448 0.546476 0.807633
O O1 0.900601 0.738918 0.682380
O O2 0.970398 0.885271 0.658231
O O3 0.000000 0.750000 0.750000
O O4 0.986917 0.738820 0.556079
O O5 0.625000 0.273254 0.625000
O O6 0.567204 0.364143 0.471105
O O7 0.670816 0.400191 0.548246
O O8 0.735207 0.211124 0.123716
#
# Coordination Sequence:
#
# PCOD9515197 Si02
#       4
#    32  32  16  32
#     4  10  20  42  68  97 135 178 232 299 349 405
#     4  11  23  43  69 102 143 181 239 296 354 427
#     4  12  24  44  69 102 142 193 236 280 370 426
#     4  11  24  43  70  99 143 188 235 299 349 427
#
# _framework density 23.771412999999999
#
# number of rings (size 3 to 8) (size 9 to 14) (size 15 to 20)
#    0.000    1.143    2.857    6.000    0.000    5.714 
#    0.000    7.857    0.000    0.000    0.000    0.000 
#    0.000    0.000    0.000    0.000    0.000    0.000 
#
# Total GULP energy -156404.682014 kJ/mol
# GULP energy per Si atom -5585.881501 kJ/mol
# Density = 2.371731 g / cm^3
# Si number density = 23.771413 Si / 1000 Ang^3
#
#
#
# Elastic Constant Matrix: (Units=GPa)
#
#
# Indices 1 2 3 4 5 6 
#
# 1 75.7572 37.8885 5.4369 0.0000 0.0000 0.0000
# 2 37.8885 159.6130 2.9710 0.0000 0.0000 0.0000
# 3 5.4369 2.9710 80.1852 0.0000 0.0000 0.0000
# 4 0.0000 0.0000 0.0000 87.0671 0.0000 0.0000
# 5 0.0000 0.0000 0.0000 0.0000 37.4764 0.0000
# 6 0.0000 0.0000 0.0000 0.0000 0.0000 27.0974
#
#
#
# Elastic Compliance Matrix: (Units=1/GPa)
#
#
# Indices 1 2 3 4 5 6 
#
# 1 0.015041 -0.003554 -0.000888 0.000000 0.000000 0.000000
# 2 -0.003554 0.007109 -0.000022 0.000000 0.000000 0.000000
# 3 -0.000888 -0.000022 0.012532 0.000000 0.000000 0.000000
# 4 0.000000 0.000000 0.000000 0.011485 0.000000 0.000000
# 5 0.000000 0.000000 0.000000 0.000000 0.026683 0.000000
# 6 0.000000 0.000000 0.000000 0.000000 0.000000 0.036904
#
#
# Mechanical properties :
#
#
# Convention : Reuss Voigt Hill
#
# Bulk Modulus (GPa) = 38.82961 45.34980 42.08971
# Shear Modulus (GPa) = 39.28686 48.27876 43.78281
#
# Velocity S-wave (km/s) = 4.06974 4.51151 4.29631
# Velocity P-wave (km/s) = 6.20111 6.80126 6.50811
#
# Compressibility (1/GPa) = 0.02575354
#
# Stress axis : x y z
#
# Youngs Moduli (GPa) = 66.48390 140.66297 79.79458
#
# Poissons Ratio (x) = 0.49990 0.07087
# Poissons Ratio (y) = 0.23628 0.00179
# Poissons Ratio (z) = 0.05905 0.00316
#
# Static dielectric constant tensor:
#      x y z
#    x 1.998910 0.000000 0.000000 
#    y 0.000000 1.948840 0.000000 
#    z 0.000000 0.000000 1.976270 
# 
# From -- ./inp_files/15001.got.cif
#   From: 2010.05.17/outbox.cif.g08.bks.cpg/sg70_8_cif.got.tgz:15001.got - 2010.06.03 15:57:51.
