data_PCOD9515585
_publ_section_title
;
Structure prediction by ZEFSAII (Michael W. Deem and Ramdas Pophale) SiO2 
 PCOD9515585
Probable space group: F D D D
;
_chemical_formula_sum "Si O2"
_cell_formula_units_Z 192
_cell_length_a 30.871946
_cell_length_b 18.385835
_cell_length_c 16.025159
_cell_angle_alpha 90.000000
_cell_angle_beta 90.000000
_cell_angle_gamma 90.000000
_cell_volume 9095.984497
_symmetry_space_group_name_H-M "F D D D"
_symmetry_group_IT_number 70
_space_group.IT_coordinate_system_code '2'
_symmetry_cell_setting 'orthorhombic'
loop_
_space_group_symop_operation_xyz
x,y,z
1/4-x,1/4-y,z
x,1/4-y,1/4-z
1/4-x,y,1/4-z
-x,-y,-z
3/4+x,3/4+y,-z
-x,3/4+y,3/4+z
3/4+x,-y,3/4+z
x,1/2+y,1/2+z
1/4-x,3/4-y,1/2+z
x,3/4-y,3/4-z
1/4-x,1/2+y,3/4-z
-x,1/2-y,1/2-z
3/4+x,1/4+y,1/2-z
-x,1/4+y,1/4+z
3/4+x,1/2-y,1/4+z
1/2+x,y,1/2+z
3/4-x,1/4-y,1/2+z
1/2+x,1/4-y,3/4-z
3/4-x,y,3/4-z
1/2-x,-y,1/2-z
1/4+x,3/4+y,1/2-z
1/2-x,3/4+y,1/4+z
1/4+x,-y,1/4+z
1/2+x,1/2+y,z
3/4-x,3/4-y,z
1/2+x,3/4-y,1/4-z
3/4-x,1/2+y,1/4-z
1/2-x,1/2-y,-z
1/4+x,1/4+y,-z
1/2-x,1/4+y,3/4+z
1/4+x,1/2-y,3/4+z
loop_
_atom_site_type_symbol
_atom_site_label
_atom_site_fract_x
_atom_site_fract_y
_atom_site_fract_z
Si Si1 0.628788 0.375000 0.375000
Si Si2 0.926600 0.257526 0.042393
Si Si3 0.422000 0.901116 0.144893
Si Si4 0.336947 0.271828 0.473888
Si Si5 0.337393 0.642788 0.305706
Si Si6 0.979718 0.507112 0.241873
Si Si7 0.728062 0.625000 0.625000
O O1 0.656470 0.443819 0.403365
O O2 0.604397 0.399156 0.290134
O O3 0.937074 0.329380 0.095709
O O4 0.890035 0.276912 0.971211
O O5 0.972296 0.229989 0.011081
O O6 0.375000 0.875000 0.176730
O O7 0.451947 0.938722 0.211841
O O8 0.418006 0.962531 0.072729
O O9 0.323990 0.192099 0.442485
O O10 0.304653 0.329055 0.432755
O O11 0.375000 0.653947 0.375000
O O12 0.297872 0.699166 0.311518
O O13 0.991213 0.569053 0.173350
#
# Coordination Sequence:
#
# PCOD9515585 Si02
#       7
#    16  32  32  32  32  32  16
#     4  10  23  50  65  92 133 185 216 283 350 407
#     4  10  23  41  66  93 134 175 231 275 352 407
#     4  10  21  42  64  89 137 180 224 278 352 400
#     4  10  23  39  60  97 139 187 201 269 348 423
#     4  11  25  43  69  94 136 183 234 274 343 408
#     4  12  25  39  64 103 128 177 230 288 329 411
#     4  12  25  37  63 102 156 170 220 275 342 432
#
# _framework density 21.108215000000001
#
# number of rings (size 3 to 8) (size 9 to 14) (size 15 to 20)
#    0.000    1.333    1.667    4.500    7.000    2.000 
#    0.000    5.000    0.000    1.000    0.000    0.000 
#    0.000    0.000    0.000    0.000    0.000    0.000 
#
# Total GULP energy -267864.571827 kJ/mol
# GULP energy per Si atom -5580.511913 kJ/mol
# Density = 2.106017 g / cm^3
# Si number density = 21.108215 Si / 1000 Ang^3
#
#
#
# Elastic Constant Matrix: (Units=GPa)
#
#
# Indices 1 2 3 4 5 6 
#
# 1 126.1558 46.2460 45.6251 0.0000 0.0000 0.0000
# 2 46.2460 83.5525 25.6921 0.0000 0.0000 0.0000
# 3 45.6251 25.6921 48.4405 0.0000 0.0000 0.0000
# 4 0.0000 0.0000 0.0000 28.7136 0.0000 0.0000
# 5 0.0000 0.0000 0.0000 0.0000 13.2379 0.0000
# 6 0.0000 0.0000 0.0000 0.0000 0.0000 27.6699
#
#
#
# Elastic Compliance Matrix: (Units=1/GPa)
#
#
# Indices 1 2 3 4 5 6 
#
# 1 0.013118 -0.004136 -0.010162 0.000000 0.000000 0.000000
# 2 -0.004136 0.015605 -0.004381 0.000000 0.000000 0.000000
# 3 -0.010162 -0.004381 0.032539 0.000000 0.000000 0.000000
# 4 0.000000 0.000000 0.000000 0.034827 0.000000 0.000000
# 5 0.000000 0.000000 0.000000 0.000000 0.075541 0.000000
# 6 0.000000 0.000000 0.000000 0.000000 0.000000 0.036140
#
#
# Mechanical properties :
#
#
# Convention : Reuss Voigt Hill
#
# Bulk Modulus (GPa) = 41.83415 54.80836 48.32125
# Shear Modulus (GPa) = 19.75542 23.29666 21.52604
#
# Velocity S-wave (km/s) = 3.06259 3.32577 3.19689
# Velocity P-wave (km/s) = 5.68927 6.38509 6.04720
#
# Compressibility (1/GPa) = 0.02390392
#
# Stress axis : x y z
#
# Youngs Moduli (GPa) = 76.23111 64.08225 30.73256
#
# Poissons Ratio (x) = 0.26505 0.31230
# Poissons Ratio (y) = 0.31529 0.13464
# Poissons Ratio (z) = 0.77465 0.28074
#
# Static dielectric constant tensor:
#      x y z
#    x 1.829430 0.000000 0.000000 
#    y 0.000000 1.760280 0.000000 
#    z 0.000000 0.000000 1.840640 
# 
# From -- ./inp_files/39759.got.cif
#   From: 2010.05.17/outbox.cif.g08.bks.cpg/sg70_20_cif.got.tgz:39759.got - 2010.06.03 15:57:51.
