data_PCOD9515121
_publ_section_title
;
Structure prediction by ZEFSAII (Michael W. Deem and Ramdas Pophale) SiO2 
 PCOD9515121
Probable space group: F D D D
;
_chemical_formula_sum "Si O2"
_cell_formula_units_Z 160
_cell_length_a 21.164514
_cell_length_b 16.170551
_cell_length_c 22.916040
_cell_angle_alpha 90.000000
_cell_angle_beta 90.000000
_cell_angle_gamma 90.000000
_cell_volume 7842.827994
_symmetry_space_group_name_H-M "F D D D"
_symmetry_group_IT_number 70
_space_group.IT_coordinate_system_code '2'
_symmetry_cell_setting 'orthorhombic'
loop_
_space_group_symop_operation_xyz
x,y,z
1/4-x,1/4-y,z
x,1/4-y,1/4-z
1/4-x,y,1/4-z
-x,-y,-z
3/4+x,3/4+y,-z
-x,3/4+y,3/4+z
3/4+x,-y,3/4+z
x,1/2+y,1/2+z
1/4-x,3/4-y,1/2+z
x,3/4-y,3/4-z
1/4-x,1/2+y,3/4-z
-x,1/2-y,1/2-z
3/4+x,1/4+y,1/2-z
-x,1/4+y,1/4+z
3/4+x,1/2-y,1/4+z
1/2+x,y,1/2+z
3/4-x,1/4-y,1/2+z
1/2+x,1/4-y,3/4-z
3/4-x,y,3/4-z
1/2-x,-y,1/2-z
1/4+x,3/4+y,1/2-z
1/2-x,3/4+y,1/4+z
1/4+x,-y,1/4+z
1/2+x,1/2+y,z
3/4-x,3/4-y,z
1/2+x,3/4-y,1/4-z
3/4-x,1/2+y,1/4-z
1/2-x,1/2-y,-z
1/4+x,1/4+y,-z
1/2-x,1/4+y,3/4+z
1/4+x,1/2-y,3/4+z
loop_
_atom_site_type_symbol
_atom_site_label
_atom_site_fract_x
_atom_site_fract_y
_atom_site_fract_z
Si Si1 0.137684 0.355777 0.213535
Si Si2 0.290087 0.261314 0.591605
Si Si3 0.518951 0.829871 0.133127
Si Si4 0.578792 0.199035 0.214448
Si Si5 0.911048 0.549754 0.590255
O O1 0.079008 0.326975 0.174749
O O2 0.201097 0.319097 0.182482
O O3 0.145051 0.456305 0.208931
O O4 0.118475 0.327016 0.278270
O O5 0.258223 0.327613 0.633472
O O6 0.311332 0.308102 0.532566
O O7 0.236633 0.197328 0.571106
O O8 0.351224 0.224798 0.620791
O O9 0.463392 0.771661 0.156478
O O10 0.625000 0.125000 0.197614
O O11 0.942681 0.625000 0.625000
#
# Coordination Sequence:
#
# PCOD9515121 Si02
#       5
#    32  32  32  32  32
#     4  10  23  43  64  94 128 165 222 272 321 393
#     4  10  22  39  63  94 129 167 208 257 329 385
#     4  10  23  44  65  88 130 172 212 273 331 383
#     4  10  20  40  66  95 130 166 206 264 325 388
#     4  12  23  39  63  98 127 170 220 266 322 396
#
# _framework density 20.400804000000001
#
# number of rings (size 3 to 8) (size 9 to 14) (size 15 to 20)
#    0.000    1.600    2.000    2.400    0.000    3.200 
#    0.000   11.000    0.000    0.000    0.000    0.000 
#    0.000    0.000    0.000    0.000    0.000    0.000 
#
# Total GULP energy -223239.092825 kJ/mol
# GULP energy per Si atom -5580.977321 kJ/mol
# Density = 2.035437 g / cm^3
# Si number density = 20.400804 Si / 1000 Ang^3
#
#
#
# Elastic Constant Matrix: (Units=GPa)
#
#
# Indices 1 2 3 4 5 6 
#
# 1 134.0595 51.5053 41.4333 0.0000 0.0000 0.0000
# 2 51.5053 52.4537 30.4203 0.0000 0.0000 0.0000
# 3 41.4333 30.4203 94.8755 0.0000 0.0000 0.0000
# 4 0.0000 0.0000 0.0000 12.1170 0.0000 0.0000
# 5 0.0000 0.0000 0.0000 0.0000 13.3192 0.0000
# 6 0.0000 0.0000 0.0000 0.0000 0.0000 35.5254
#
#
#
# Elastic Compliance Matrix: (Units=1/GPa)
#
#
# Indices 1 2 3 4 5 6 
#
# 1 0.012232 -0.010949 -0.001831 0.000000 0.000000 0.000000
# 2 -0.010949 0.033219 -0.005870 0.000000 0.000000 0.000000
# 3 -0.001831 -0.005870 0.013222 0.000000 0.000000 0.000000
# 4 0.000000 0.000000 0.000000 0.082528 0.000000 0.000000
# 5 0.000000 0.000000 0.000000 0.000000 0.075080 0.000000
# 6 0.000000 0.000000 0.000000 0.000000 0.000000 0.028149
#
#
# Mechanical properties :
#
#
# Convention : Reuss Voigt Hill
#
# Bulk Modulus (GPa) = 46.78677 58.67848 52.73263
# Shear Modulus (GPa) = 17.30978 22.72764 20.01871
#
# Velocity S-wave (km/s) = 2.91604 3.34137 3.13592
# Velocity P-wave (km/s) = 5.85844 6.61147 6.24631
#
# Compressibility (1/GPa) = 0.02137356
#
# Stress axis : x y z
#
# Youngs Moduli (GPa) = 81.75438 30.10309 75.63191
#
# Poissons Ratio (x) = 0.32959 0.13850
# Poissons Ratio (y) = 0.89509 0.44395
# Poissons Ratio (z) = 0.14972 0.17670
#
# Static dielectric constant tensor:
#      x y z
#    x 1.713690 0.000000 0.000000 
#    y 0.000000 1.755950 0.000000 
#    z 0.000000 0.000000 1.765850 
# 
# From -- ./inp_files/61050.got.cif
#   From: 2010.05.17/outbox.cif.g08.bks.cpg/sg70_31_cif.got.tgz:61050.got - 2010.06.03 15:57:51.
