data_PCOD9515540
_publ_section_title
;
Structure prediction by ZEFSAII (Michael W. Deem and Ramdas Pophale) SiO2 
 PCOD9515540
Probable space group: F D D D
;
_chemical_formula_sum "Si O2"
_cell_formula_units_Z 216
_cell_length_a 24.883483
_cell_length_b 28.690686
_cell_length_c 14.386088
_cell_angle_alpha 90.000000
_cell_angle_beta 90.000000
_cell_angle_gamma 90.000000
_cell_volume 10270.576328
_symmetry_space_group_name_H-M "F D D D"
_symmetry_group_IT_number 70
_space_group.IT_coordinate_system_code '2'
_symmetry_cell_setting 'orthorhombic'
loop_
_space_group_symop_operation_xyz
x,y,z
1/4-x,1/4-y,z
x,1/4-y,1/4-z
1/4-x,y,1/4-z
-x,-y,-z
3/4+x,3/4+y,-z
-x,3/4+y,3/4+z
3/4+x,-y,3/4+z
x,1/2+y,1/2+z
1/4-x,3/4-y,1/2+z
x,3/4-y,3/4-z
1/4-x,1/2+y,3/4-z
-x,1/2-y,1/2-z
3/4+x,1/4+y,1/2-z
-x,1/4+y,1/4+z
3/4+x,1/2-y,1/4+z
1/2+x,y,1/2+z
3/4-x,1/4-y,1/2+z
1/2+x,1/4-y,3/4-z
3/4-x,y,3/4-z
1/2-x,-y,1/2-z
1/4+x,3/4+y,1/2-z
1/2-x,3/4+y,1/4+z
1/4+x,-y,1/4+z
1/2+x,1/2+y,z
3/4-x,3/4-y,z
1/2+x,3/4-y,1/4-z
3/4-x,1/2+y,1/4-z
1/2-x,1/2-y,-z
1/4+x,1/4+y,-z
1/2-x,1/4+y,3/4+z
1/4+x,1/2-y,3/4+z
loop_
_atom_site_type_symbol
_atom_site_label
_atom_site_fract_x
_atom_site_fract_y
_atom_site_fract_z
Si Si1 0.625000 0.625000 0.625000
Si Si2 0.157920 0.756695 0.713467
Si Si3 0.821452 0.347825 0.248218
Si Si4 0.402653 0.535174 0.150887
Si Si5 0.947566 0.355854 0.713857
Si Si6 0.977764 0.625000 0.625000
Si Si7 0.977817 0.789150 0.496411
Si Si8 0.462138 0.074034 0.073450
O O1 0.660603 0.655241 0.553657
O O2 0.125000 0.770891 0.625000
O O3 0.175735 0.703150 0.708759
O O4 0.120701 0.763181 0.804831
O O5 0.213414 0.784503 0.708994
O O6 0.875000 0.375000 0.273860
O O7 0.822412 0.342853 0.136850
O O8 0.768329 0.373038 0.286817
O O9 0.440487 0.579302 0.127647
O O10 0.437147 0.500347 0.216285
O O11 0.346439 0.553443 0.193816
O O12 0.953233 0.411469 0.724233
O O13 0.005060 0.333017 0.730502
O O14 0.999297 0.792200 0.389409
O O15 0.457713 0.125000 0.125000
#
# Coordination Sequence:
#
# PCOD9515540 Si02
#       8
#     8  32  32  32  32  16  32  32
#     4  12  20  42  72 102 126 180 212 268 330 406
#     4  11  25  42  64  96 131 172 225 277 333 393
#     4  12  25  43  66  99 134 176 222 281 330 395
#     4  11  23  41  68  96 135 180 218 278 339 399
#     4  11  23  42  72  99 129 178 226 266 338 398
#     4  12  25  43  66  96 141 177 222 270 342 392
#     4  10  21  41  64  96 127 166 225 268 329 403
#     4   9  19  42  67  92 135 171 219 281 326 398
#
# _framework density 21.030953
#
# number of rings (size 3 to 8) (size 9 to 14) (size 15 to 20)
#    0.000    1.185    5.185    2.000    2.074    0.593 
#    0.000    5.185    3.259    0.000    0.000    0.000 
#    0.000    0.000    0.000    0.000    0.000    0.000 
#
# Total GULP energy -301347.016477 kJ/mol
# GULP energy per Si atom -5580.500305 kJ/mol
# Density = 2.098309 g / cm^3
# Si number density = 21.030953 Si / 1000 Ang^3
#
#
#
# Elastic Constant Matrix: (Units=GPa)
#
#
# Indices 1 2 3 4 5 6 
#
# 1 160.7480 50.0505 53.5786 0.0000 0.0000 0.0000
# 2 50.0505 75.8241 9.9591 0.0000 0.0000 0.0000
# 3 53.5786 9.9591 67.5410 0.0000 0.0000 0.0000
# 4 0.0000 0.0000 0.0000 30.4018 0.0000 0.0000
# 5 0.0000 0.0000 0.0000 0.0000 0.8316 0.0000
# 6 0.0000 0.0000 0.0000 0.0000 0.0000 31.9370
#
#
#
# Elastic Compliance Matrix: (Units=1/GPa)
#
#
# Indices 1 2 3 4 5 6 
#
# 1 0.010599 -0.006008 -0.007522 0.000000 0.000000 0.000000
# 2 -0.006008 0.016855 0.002281 0.000000 0.000000 0.000000
# 3 -0.007522 0.002281 0.020436 0.000000 0.000000 0.000000
# 4 0.000000 0.000000 0.000000 0.032893 0.000000 0.000000
# 5 0.000000 0.000000 0.000000 0.000000 1.202443 0.000000
# 6 0.000000 0.000000 0.000000 0.000000 0.000000 0.031312
#
#
# Mechanical properties :
#
#
# Convention : Reuss Voigt Hill
#
# Bulk Modulus (GPa) = 39.38310 59.03217 49.20763
# Shear Modulus (GPa) = 3.71609 25.33576 14.52592
#
# Velocity S-wave (km/s) = 1.33071 3.47463 2.63095
# Velocity P-wave (km/s) = 4.59652 6.65038 5.71644
#
# Compressibility (1/GPa) = 0.02539160
#
# Stress axis : x y z
#
# Youngs Moduli (GPa) = 94.35166 59.33063 48.93254
#
# Poissons Ratio (x) = 0.35646 0.36806
# Poissons Ratio (y) = 0.56687 -0.11160
# Poissons Ratio (z) = 0.70969 -0.13532
#
# Static dielectric constant tensor:
#      x y z
#    x 1.578360 0.000000 0.000000 
#    y 0.000000 1.777330 0.000000 
#    z 0.000000 0.000000 1.800490 
# 
# From -- ./inp_files/29135.got.cif
#   From: 2010.05.17/outbox.cif.g08.bks.cpg/sg70_15_cif.got.tgz:29135.got - 2010.06.03 15:57:51.
