data_PCOD9515803
_publ_section_title
;
Structure prediction by ZEFSAII (Michael W. Deem and Ramdas Pophale) SiO2 
 PCOD9515803
Probable space group: F D D D
;
_chemical_formula_sum "Si O2"
_cell_formula_units_Z 208
_cell_length_a 22.259052
_cell_length_b 16.248470
_cell_length_c 30.239624
_cell_angle_alpha 90.000000
_cell_angle_beta 90.000000
_cell_angle_gamma 90.000000
_cell_volume 10936.932299
_symmetry_space_group_name_H-M "F D D D"
_symmetry_group_IT_number 70
_space_group.IT_coordinate_system_code '2'
_symmetry_cell_setting 'orthorhombic'
loop_
_space_group_symop_operation_xyz
x,y,z
1/4-x,1/4-y,z
x,1/4-y,1/4-z
1/4-x,y,1/4-z
-x,-y,-z
3/4+x,3/4+y,-z
-x,3/4+y,3/4+z
3/4+x,-y,3/4+z
x,1/2+y,1/2+z
1/4-x,3/4-y,1/2+z
x,3/4-y,3/4-z
1/4-x,1/2+y,3/4-z
-x,1/2-y,1/2-z
3/4+x,1/4+y,1/2-z
-x,1/4+y,1/4+z
3/4+x,1/2-y,1/4+z
1/2+x,y,1/2+z
3/4-x,1/4-y,1/2+z
1/2+x,1/4-y,3/4-z
3/4-x,y,3/4-z
1/2-x,-y,1/2-z
1/4+x,3/4+y,1/2-z
1/2-x,3/4+y,1/4+z
1/4+x,-y,1/4+z
1/2+x,1/2+y,z
3/4-x,3/4-y,z
1/2+x,3/4-y,1/4-z
3/4-x,1/2+y,1/4-z
1/2-x,1/2-y,-z
1/4+x,1/4+y,-z
1/2-x,1/4+y,3/4+z
1/4+x,1/2-y,3/4+z
loop_
_atom_site_type_symbol
_atom_site_label
_atom_site_fract_x
_atom_site_fract_y
_atom_site_fract_z
Si Si1 0.353626 0.139652 0.942802
Si Si2 0.600064 0.039941 0.076102
Si Si3 0.688070 0.173021 0.289641
Si Si4 0.725532 0.875000 0.875000
Si Si5 0.150210 0.361974 0.789418
Si Si6 0.532821 0.801304 0.109854
Si Si7 0.239264 0.329013 0.468520
O O1 0.410367 0.189395 0.923178
O O2 0.302598 0.154606 0.905676
O O3 0.377477 0.044849 0.944993
O O4 0.336691 0.158888 0.993267
O O5 0.625000 0.125000 0.055980
O O6 0.625000 0.035267 0.125000
O O7 0.529077 0.053874 0.073612
O O8 0.625000 0.125000 0.291049
O O9 0.674618 0.269114 0.286553
O O10 0.726909 0.157841 0.334104
O O11 0.729642 0.148831 0.248200
O O12 0.682914 0.854589 0.917004
O O13 0.765693 0.793911 0.867002
O O14 0.078175 0.352660 0.792666
O O15 0.250000 0.250000 0.500000
#
# Coordination Sequence:
#
# PCOD9515803 Si02
#       7
#    32  32  32  16  32  32  32
#     4  11  20  39  67  91 118 167 220 255 305 382
#     4  11  22  34  53  96 131 155 199 252 303 371
#     4  11  20  36  60  90 126 167 201 246 317 384
#     4  10  26  45  60  92 125 166 210 276 328 352
#     4  11  23  39  63  90 125 161 207 260 317 379
#     4  10  22  40  65  90 122 165 217 263 310 372
#     4  12  20  34  60  88 123 169 201 240 310 376
#
# _framework density 19.018129999999999
#
# number of rings (size 3 to 8) (size 9 to 14) (size 15 to 20)
#    0.000    1.077    6.154    1.385    0.000    3.077 
#    0.000    4.615    0.000    0.000    0.000    0.000 
#    0.000    0.000    0.000    0.000    0.000    0.000 
#
# Total GULP energy -289951.243498 kJ/mol
# GULP energy per Si atom -5575.985452 kJ/mol
# Density = 1.897484 g / cm^3
# Si number density = 19.018130 Si / 1000 Ang^3
#
#
#
# Elastic Constant Matrix: (Units=GPa)
#
#
# Indices 1 2 3 4 5 6 
#
# 1 109.6703 28.5494 61.0583 0.0000 0.0000 0.0000
# 2 28.5494 65.9587 15.6632 0.0000 0.0000 0.0000
# 3 61.0583 15.6632 144.8207 0.0000 0.0000 0.0000
# 4 0.0000 0.0000 0.0000 13.6878 0.0000 0.0000
# 5 0.0000 0.0000 0.0000 0.0000 40.5646 0.0000
# 6 0.0000 0.0000 0.0000 0.0000 0.0000 24.8735
#
#
#
# Elastic Compliance Matrix: (Units=1/GPa)
#
#
# Indices 1 2 3 4 5 6 
#
# 1 0.013083 -0.004468 -0.005033 0.000000 0.000000 0.000000
# 2 -0.004468 0.017086 0.000036 0.000000 0.000000 0.000000
# 3 -0.005033 0.000036 0.009023 0.000000 0.000000 0.000000
# 4 0.000000 0.000000 0.000000 0.073058 0.000000 0.000000
# 5 0.000000 0.000000 0.000000 0.000000 0.024652 0.000000
# 6 0.000000 0.000000 0.000000 0.000000 0.000000 0.040203
#
#
# Mechanical properties :
#
#
# Convention : Reuss Voigt Hill
#
# Bulk Modulus (GPa) = 49.35137 58.99906 54.17521
# Shear Modulus (GPa) = 24.65599 30.17042 27.41320
#
# Velocity S-wave (km/s) = 3.60453 3.98729 3.80073
# Velocity P-wave (km/s) = 6.58251 7.23103 6.91438
#
# Compressibility (1/GPa) = 0.02026286
#
# Stress axis : x y z
#
# Youngs Moduli (GPa) = 76.43315 58.52623 110.82591
#
# Poissons Ratio (x) = 0.26148 0.55777
# Poissons Ratio (y) = 0.34149 -0.00396
# Poissons Ratio (z) = 0.38468 -0.00209
#
# Static dielectric constant tensor:
#      x y z
#    x 1.677790 0.000000 0.000000 
#    y 0.000000 1.684140 0.000000 
#    z 0.000000 0.000000 1.737540 
# 
# From -- ./inp_files/67303.got.cif
#   From: 2010.05.17/outbox.cif.g08.bks.cpg/sg70_34_cif.got.tgz:67303.got - 2010.06.03 15:57:51.
