data_PCOD9515922
_publ_section_title
;
Structure prediction by ZEFSAII (Michael W. Deem and Ramdas Pophale) SiO2 
 PCOD9515922
Probable space group: F D D D
;
_chemical_formula_sum "Si O2"
_cell_formula_units_Z 120
_cell_length_a 16.219211
_cell_length_b 25.307218
_cell_length_c 11.848816
_cell_angle_alpha 90.000000
_cell_angle_beta 90.000000
_cell_angle_gamma 90.000000
_cell_volume 4863.501848
_symmetry_space_group_name_H-M "F D D D"
_symmetry_group_IT_number 70
_space_group.IT_coordinate_system_code '2'
_symmetry_cell_setting 'orthorhombic'
loop_
_space_group_symop_operation_xyz
x,y,z
1/4-x,1/4-y,z
x,1/4-y,1/4-z
1/4-x,y,1/4-z
-x,-y,-z
3/4+x,3/4+y,-z
-x,3/4+y,3/4+z
3/4+x,-y,3/4+z
x,1/2+y,1/2+z
1/4-x,3/4-y,1/2+z
x,3/4-y,3/4-z
1/4-x,1/2+y,3/4-z
-x,1/2-y,1/2-z
3/4+x,1/4+y,1/2-z
-x,1/4+y,1/4+z
3/4+x,1/2-y,1/4+z
1/2+x,y,1/2+z
3/4-x,1/4-y,1/2+z
1/2+x,1/4-y,3/4-z
3/4-x,y,3/4-z
1/2-x,-y,1/2-z
1/4+x,3/4+y,1/2-z
1/2-x,3/4+y,1/4+z
1/4+x,-y,1/4+z
1/2+x,1/2+y,z
3/4-x,3/4-y,z
1/2+x,3/4-y,1/4-z
3/4-x,1/2+y,1/4-z
1/2-x,1/2-y,-z
1/4+x,1/4+y,-z
1/2-x,1/4+y,3/4+z
1/4+x,1/2-y,3/4+z
loop_
_atom_site_type_symbol
_atom_site_label
_atom_site_fract_x
_atom_site_fract_y
_atom_site_fract_z
Si Si1 0.875000 0.170749 0.875000
Si Si2 0.216838 0.714651 0.756404
Si Si3 0.462719 0.941578 0.496134
Si Si4 0.772075 0.161672 0.278899
Si Si5 0.625000 0.125000 0.125000
O O1 0.798663 0.205653 0.828324
O O2 0.836905 0.136238 0.980406
O O3 0.219994 0.683401 0.636920
O O4 0.129020 0.693905 0.798527
O O5 0.201580 0.777687 0.739365
O O6 0.508913 0.906336 0.585888
O O7 0.500000 0.000000 0.500000
O O8 0.689578 0.154532 0.206847
#
# Coordination Sequence:
#
# PCOD9515922 Si02
#       5
#    16  32  32  32   8
#     4  12  25  42  72 107 138 187 236 288 369 434
#     4  10  22  42  70  99 133 182 239 298 356 426
#     4   9  19  41  68  93 132 181 232 295 354 413
#     4  11  24  42  62  98 138 178 234 293 353 431
#     4  12  26  40  60  90 144 190 216 288 366 430
#
# _framework density 24.673580000000001
#
# number of rings (size 3 to 8) (size 9 to 14) (size 15 to 20)
#    0.000    1.600    0.000    5.600    0.000    7.467 
#    0.000   12.000    0.000    0.000    0.000    0.000 
#    0.000    0.000    0.000    0.000    0.000    0.000 
#
# Total GULP energy -167352.331348 kJ/mol
# GULP energy per Si atom -5578.411045 kJ/mol
# Density = 2.461742 g / cm^3
# Si number density = 24.673580 Si / 1000 Ang^3
#
#
#
# Elastic Constant Matrix: (Units=GPa)
#
#
# Indices 1 2 3 4 5 6 
#
# 1 140.9550 13.7055 17.7113 0.0000 0.0000 0.0000
# 2 13.7055 79.4061 -1.5081 0.0000 0.0000 0.0000
# 3 17.7113 -1.5081 63.1512 0.0000 0.0000 0.0000
# 4 0.0000 0.0000 0.0000 22.3879 0.0000 0.0000
# 5 0.0000 0.0000 0.0000 0.0000 46.4631 0.0000
# 6 0.0000 0.0000 0.0000 0.0000 0.0000 32.2754
#
#
#
# Elastic Compliance Matrix: (Units=1/GPa)
#
#
# Indices 1 2 3 4 5 6 
#
# 1 0.007492 -0.001334 -0.002133 0.000000 0.000000 0.000000
# 2 -0.001334 0.012837 0.000681 0.000000 0.000000 0.000000
# 3 -0.002133 0.000681 0.016450 0.000000 0.000000 0.000000
# 4 0.000000 0.000000 0.000000 0.044667 0.000000 0.000000
# 5 0.000000 0.000000 0.000000 0.000000 0.021522 0.000000
# 6 0.000000 0.000000 0.000000 0.000000 0.000000 0.030983
#
#
# Mechanical properties :
#
#
# Convention : Reuss Voigt Hill
#
# Bulk Modulus (GPa) = 32.04517 38.14775 35.09646
# Shear Modulus (GPa) = 33.34992 37.13220 35.24106
#
# Velocity S-wave (km/s) = 3.68046 3.88356 3.78337
# Velocity P-wave (km/s) = 5.57467 5.96690 5.77412
#
# Compressibility (1/GPa) = 0.03120595
#
# Stress axis : x y z
#
# Youngs Moduli (GPa) = 133.47279 77.90225 60.79207
#
# Poissons Ratio (x) = 0.10390 0.12967
# Poissons Ratio (y) = 0.17801 -0.04137
# Poissons Ratio (z) = 0.28471 -0.05302
#
# Static dielectric constant tensor:
#      x y z
#    x 1.991950 0.000000 0.000000 
#    y 0.000000 2.012320 0.000000 
#    z 0.000000 0.000000 2.038720 
# 
# From -- ./inp_files/16516.got.cif
#   From: 2010.05.17/outbox.cif.g08.bks.cpg/sg70_9_cif.got.tgz:16516.got - 2010.06.03 15:57:51.
