data_PCOD9515051
_publ_section_title
;
Structure prediction by ZEFSAII (Michael W. Deem and Ramdas Pophale) SiO2 
 PCOD9515051
Probable space group: F D D D
;
_chemical_formula_sum "Si O2"
_cell_formula_units_Z 160
_cell_length_a 30.538921
_cell_length_b 8.339572
_cell_length_c 30.539012
_cell_angle_alpha 90.000000
_cell_angle_beta 90.000000
_cell_angle_gamma 90.000000
_cell_volume 7777.722316
_symmetry_space_group_name_H-M "F D D D"
_symmetry_group_IT_number 70
_space_group.IT_coordinate_system_code '2'
_symmetry_cell_setting 'orthorhombic'
loop_
_space_group_symop_operation_xyz
x,y,z
1/4-x,1/4-y,z
x,1/4-y,1/4-z
1/4-x,y,1/4-z
-x,-y,-z
3/4+x,3/4+y,-z
-x,3/4+y,3/4+z
3/4+x,-y,3/4+z
x,1/2+y,1/2+z
1/4-x,3/4-y,1/2+z
x,3/4-y,3/4-z
1/4-x,1/2+y,3/4-z
-x,1/2-y,1/2-z
3/4+x,1/4+y,1/2-z
-x,1/4+y,1/4+z
3/4+x,1/2-y,1/4+z
1/2+x,y,1/2+z
3/4-x,1/4-y,1/2+z
1/2+x,1/4-y,3/4-z
3/4-x,y,3/4-z
1/2-x,-y,1/2-z
1/4+x,3/4+y,1/2-z
1/2-x,3/4+y,1/4+z
1/4+x,-y,1/4+z
1/2+x,1/2+y,z
3/4-x,3/4-y,z
1/2+x,3/4-y,1/4-z
3/4-x,1/2+y,1/4-z
1/2-x,1/2-y,-z
1/4+x,1/4+y,-z
1/2-x,1/4+y,3/4+z
1/4+x,1/2-y,3/4+z
loop_
_atom_site_type_symbol
_atom_site_label
_atom_site_fract_x
_atom_site_fract_y
_atom_site_fract_z
Si Si1 0.375000 0.875000 0.940797
Si Si2 0.013940 0.772308 0.941066
Si Si3 0.152743 0.880812 0.257215
Si Si4 0.440797 0.875000 0.875000
Si Si5 0.558933 0.227692 0.486060
Si Si6 0.242785 0.130812 0.902743
O O1 0.409688 0.962803 0.909689
O O2 0.400373 0.746152 0.968778
O O3 0.063007 0.806029 0.958387
O O4 0.018051 0.658966 0.898613
O O5 0.997135 0.944726 0.922953
O O6 0.980405 0.722906 0.980404
O O7 0.101387 0.908967 0.268051
O O8 0.172953 0.055274 0.247135
O O9 0.468777 0.746152 0.900373
O O10 0.541612 0.193971 0.436993
#
# Coordination Sequence:
#
# PCOD9515051 Si02
#       6
#    16  32  32  16  32  32
#     4  11  22  36  56  86 120 148 186 244 302 355
#     4  10  20  39  63  83 113 157 200 242 293 356
#     4  10  21  37  58  85 115 153 197 242 295 356
#     4  11  22  36  56  86 120 148 186 244 302 355
#     4  10  20  39  63  83 113 157 200 242 293 356
#     4  10  21  37  58  85 115 153 197 242 295 356
#
# _framework density 20.571573999999998
#
# number of rings (size 3 to 8) (size 9 to 14) (size 15 to 20)
#    0.000    1.800    0.000    6.000    0.000    1.600 
#    0.000   20.000    0.000   14.400    0.000    0.000 
#    0.000    0.000    0.000    0.000    0.000    0.000 
#
# Total GULP energy -222834.167036 kJ/mol
# GULP energy per Si atom -5570.854176 kJ/mol
# Density = 2.052475 g / cm^3
# Si number density = 20.571574 Si / 1000 Ang^3
#
#
#
# Elastic Constant Matrix: (Units=GPa)
#
#
# Indices 1 2 3 4 5 6 
#
# 1 126.9477 38.9627 101.3072 0.0003 0.0000 0.0000
# 2 38.9627 34.5493 38.9646 0.0004 0.0000 -0.0004
# 3 101.3072 38.9646 126.9541 0.0000 0.0000 0.0000
# 4 0.0003 0.0004 0.0000 14.1839 0.0000 -0.0004
# 5 0.0000 0.0000 0.0000 0.0000 31.2381 0.0001
# 6 0.0000 -0.0004 0.0000 -0.0004 0.0001 14.1840
#
#
#
# Elastic Compliance Matrix: (Units=1/GPa)
#
#
# Indices 1 2 3 4 5 6 
#
# 1 0.023060 -0.008033 -0.015936 0.000000 0.000000 0.000000
# 2 -0.008033 0.047065 -0.008035 -0.000001 0.000000 0.000001
# 3 -0.015936 -0.008035 0.023060 0.000001 0.000000 0.000000
# 4 0.000000 -0.000001 0.000001 0.070502 0.000000 0.000002
# 5 0.000000 0.000000 0.000000 0.000000 0.032012 0.000000
# 6 0.000000 0.000001 0.000000 0.000002 0.000000 0.070502
#
#
# Mechanical properties :
#
#
# Convention : Reuss Voigt Hill
#
# Bulk Modulus (GPa) = 34.27384 71.88001 53.07692
# Shear Modulus (GPa) = 14.70866 19.20230 16.95548
#
# Velocity S-wave (km/s) = 2.67685 3.05854 2.87404
# Velocity P-wave (km/s) = 5.12357 6.89131 6.07211
#
# Compressibility (1/GPa) = 0.02917677
#
# Stress axis : x y z
#
# Youngs Moduli (GPa) = 43.36480 21.24707 43.36598
#
# Poissons Ratio (x) = 0.17069 0.69108
# Poissons Ratio (y) = 0.34837 0.34843
# Poissons Ratio (z) = 0.69106 0.17071
#
# Static dielectric constant tensor:
#      x y z
#    x 1.743170 0.000000 0.000000 
#    y 0.000000 1.710060 0.000000 
#    z 0.000000 0.000000 1.743170 
# 
# From -- ./inp_files/68869.got.cif
#   From: 2010.05.17/outbox.cif.g08.bks.cpg/sg70_35_cif.got.tgz:68869.got - 2010.06.03 15:57:51.
