data_PCOD9515228
_publ_section_title
;
Structure prediction by ZEFSAII (Michael W. Deem and Ramdas Pophale) SiO2 
 PCOD9515228
Probable space group: F D D D
;
_chemical_formula_sum "Si O2"
_cell_formula_units_Z 192
_cell_length_a 25.536465
_cell_length_b 10.069855
_cell_length_c 28.404950
_cell_angle_alpha 90.000000
_cell_angle_beta 90.000000
_cell_angle_gamma 90.000000
_cell_volume 7304.290278
_symmetry_space_group_name_H-M "F D D D"
_symmetry_group_IT_number 70
_space_group.IT_coordinate_system_code '2'
_symmetry_cell_setting 'orthorhombic'
loop_
_space_group_symop_operation_xyz
x,y,z
1/4-x,1/4-y,z
x,1/4-y,1/4-z
1/4-x,y,1/4-z
-x,-y,-z
3/4+x,3/4+y,-z
-x,3/4+y,3/4+z
3/4+x,-y,3/4+z
x,1/2+y,1/2+z
1/4-x,3/4-y,1/2+z
x,3/4-y,3/4-z
1/4-x,1/2+y,3/4-z
-x,1/2-y,1/2-z
3/4+x,1/4+y,1/2-z
-x,1/4+y,1/4+z
3/4+x,1/2-y,1/4+z
1/2+x,y,1/2+z
3/4-x,1/4-y,1/2+z
1/2+x,1/4-y,3/4-z
3/4-x,y,3/4-z
1/2-x,-y,1/2-z
1/4+x,3/4+y,1/2-z
1/2-x,3/4+y,1/4+z
1/4+x,-y,1/4+z
1/2+x,1/2+y,z
3/4-x,3/4-y,z
1/2+x,3/4-y,1/4-z
3/4-x,1/2+y,1/4-z
1/2-x,1/2-y,-z
1/4+x,1/4+y,-z
1/2-x,1/4+y,3/4+z
1/4+x,1/2-y,3/4+z
loop_
_atom_site_type_symbol
_atom_site_label
_atom_site_fract_x
_atom_site_fract_y
_atom_site_fract_z
Si Si1 0.483962 0.029872 0.170720
Si Si2 0.625000 0.125000 0.125000
Si Si3 0.921462 0.119220 0.819539
Si Si4 0.048223 0.492541 0.399909
Si Si5 0.274731 0.362967 0.234607
Si Si6 0.875902 0.218324 0.522306
Si Si7 0.625000 0.125000 0.625000
Si Si8 0.125000 0.625000 0.329669
O O1 0.488686 0.125000 0.125000
O O2 0.590122 0.012203 0.095820
O O3 0.523723 0.038248 0.215124
O O4 0.426423 0.052211 0.194014
O O5 0.979514 0.078595 0.802314
O O6 0.885107 0.120891 0.772837
O O7 0.905659 0.984196 0.845094
O O8 0.016834 0.127889 0.904199
O O9 0.018663 0.375000 0.375000
O O10 0.072018 0.446366 0.449816
O O11 0.099147 0.522784 0.366893
O O12 0.250000 0.500000 0.250000
O O13 0.327096 0.390023 0.206206
O O14 0.875000 0.375000 0.510265
#
# Coordination Sequence:
#
# PCOD9515228 Si02
#       8
#    32   8  32  32  32  32   8  16
#     4  10  20  43  75 112 151 205 257 328 406 481
#     4  10  24  48  72 120 170 214 276 334 418 520
#     4  10  22  45  75 116 157 218 270 337 412 492
#     4  11  23  41  77 116 154 199 267 332 407 477
#     4  11  27  47  79 111 164 208 275 338 414 488
#     4   9  17  34  69 112 145 201 262 320 391 468
#     4  10  20  44  92 100 158 214 274 330 412 500
#     4  12  26  48  75 116 154 221 269 338 405 496
#
# _framework density 26.285921999999999
#
# number of rings (size 3 to 8) (size 9 to 14) (size 15 to 20)
#    0.000    1.667    3.333    1.500    4.667    0.667 
#   13.500    1.250    0.000    0.000    0.000    1.167 
#    0.000    0.000    0.000    0.000    0.000    0.000 
#
# Total GULP energy -268168.408368 kJ/mol
# GULP energy per Si atom -5586.841841 kJ/mol
# Density = 2.622609 g / cm^3
# Si number density = 26.285922 Si / 1000 Ang^3
#
#
#
# Elastic Constant Matrix: (Units=GPa)
#
#
# Indices 1 2 3 4 5 6 
#
# 1 125.4821 40.5820 77.1529 0.0000 0.0000 0.0000
# 2 40.5820 189.7959 87.8352 0.0000 0.0000 0.0000
# 3 77.1529 87.8352 178.5958 0.0000 0.0000 0.0000
# 4 0.0000 0.0000 0.0000 38.4246 0.0000 0.0000
# 5 0.0000 0.0000 0.0000 0.0000 52.0033 0.0000
# 6 0.0000 0.0000 0.0000 0.0000 0.0000 16.6381
#
#
#
# Elastic Compliance Matrix: (Units=1/GPa)
#
#
# Indices 1 2 3 4 5 6 
#
# 1 0.010857 -0.000195 -0.004594 0.000000 0.000000 0.000000
# 2 -0.000195 0.006825 -0.003272 0.000000 0.000000 0.000000
# 3 -0.004594 -0.003272 0.009193 0.000000 0.000000 0.000000
# 4 0.000000 0.000000 0.000000 0.026025 0.000000 0.000000
# 5 0.000000 0.000000 0.000000 0.000000 0.019230 0.000000
# 6 0.000000 0.000000 0.000000 0.000000 0.000000 0.060103
#
#
# Mechanical properties :
#
#
# Convention : Reuss Voigt Hill
#
# Bulk Modulus (GPa) = 93.00704 100.55712 96.78208
# Shear Modulus (GPa) = 32.90770 40.63347 36.77059
#
# Velocity S-wave (km/s) = 3.54208 3.93597 3.74420
# Velocity P-wave (km/s) = 7.22413 7.68075 7.45594
#
# Compressibility (1/GPa) = 0.01075187
#
# Stress axis : x y z
#
# Youngs Moduli (GPa) = 92.10485 146.52223 108.77594
#
# Poissons Ratio (x) = 0.02862 0.49974
# Poissons Ratio (y) = 0.01799 0.35593
# Poissons Ratio (z) = 0.42315 0.47945
#
# Static dielectric constant tensor:
#      x y z
#    x 1.988180 0.000000 0.000000 
#    y 0.000000 2.337190 0.000000 
#    z 0.000000 0.000000 1.921100 
# 
# From -- ./inp_files/61202.got.cif
#   From: 2010.05.17/outbox.cif.g08.bks.cpg/sg70_31_cif.got.tgz:61202.got - 2010.06.03 15:57:51.
