data_PCOD9515261
_publ_section_title
;
Structure prediction by ZEFSAII (Michael W. Deem and Ramdas Pophale) SiO2 
 PCOD9515261
Probable space group: F D D D
;
_chemical_formula_sum "Si O2"
_cell_formula_units_Z 176
_cell_length_a 12.131450
_cell_length_b 33.642200
_cell_length_c 16.748429
_cell_angle_alpha 90.000000
_cell_angle_beta 90.000000
_cell_angle_gamma 90.000000
_cell_volume 6835.514005
_symmetry_space_group_name_H-M "F D D D"
_symmetry_group_IT_number 70
_space_group.IT_coordinate_system_code '2'
_symmetry_cell_setting 'orthorhombic'
loop_
_space_group_symop_operation_xyz
x,y,z
1/4-x,1/4-y,z
x,1/4-y,1/4-z
1/4-x,y,1/4-z
-x,-y,-z
3/4+x,3/4+y,-z
-x,3/4+y,3/4+z
3/4+x,-y,3/4+z
x,1/2+y,1/2+z
1/4-x,3/4-y,1/2+z
x,3/4-y,3/4-z
1/4-x,1/2+y,3/4-z
-x,1/2-y,1/2-z
3/4+x,1/4+y,1/2-z
-x,1/4+y,1/4+z
3/4+x,1/2-y,1/4+z
1/2+x,y,1/2+z
3/4-x,1/4-y,1/2+z
1/2+x,1/4-y,3/4-z
3/4-x,y,3/4-z
1/2-x,-y,1/2-z
1/4+x,3/4+y,1/2-z
1/2-x,3/4+y,1/4+z
1/4+x,-y,1/4+z
1/2+x,1/2+y,z
3/4-x,3/4-y,z
1/2+x,3/4-y,1/4-z
3/4-x,1/2+y,1/4-z
1/2-x,1/2-y,-z
1/4+x,1/4+y,-z
1/2-x,1/4+y,3/4+z
1/4+x,1/2-y,3/4+z
loop_
_atom_site_type_symbol
_atom_site_label
_atom_site_fract_x
_atom_site_fract_y
_atom_site_fract_z
Si Si1 0.125000 0.519795 0.125000
Si Si2 0.911103 0.094988 0.782755
Si Si3 0.726421 0.277491 0.279300
Si Si4 0.398767 0.954276 0.656153
Si Si5 0.170166 0.081693 0.238032
Si Si6 0.724285 0.425732 0.773100
O O1 0.066850 0.494266 0.196818
O O2 0.216868 0.550406 0.157242
O O3 0.875000 0.106642 0.875000
O O4 0.802422 0.082962 0.733628
O O5 0.982401 0.129161 0.740455
O O6 0.995414 0.059213 0.792800
O O7 0.678543 0.250397 0.350834
O O8 0.850151 0.293242 0.290848
O O9 0.655398 0.317503 0.276261
O O10 0.398302 0.925329 0.581872
O O11 0.283273 0.947594 0.698838
O O12 0.125000 0.125000 0.213501
#
# Coordination Sequence:
#
# PCOD9515261 Si02
#       6
#    16  32  32  32  32  32
#     4  10  22  34  55  90 124 168 204 254 334 386
#     4  10  21  36  58  86 116 159 209 263 312 367
#     4  11  21  35  57  86 124 160 203 260 316 382
#     4  10  21  34  54  86 118 155 201 261 318 365
#     4  11  20  36  59  86 117 158 208 256 315 373
#     4  11  20  36  57  85 124 160 204 257 317 382
#
# _framework density 25.747882000000001
#
# number of rings (size 3 to 8) (size 9 to 14) (size 15 to 20)
#    0.000    1.455    1.818    7.091    1.273    0.727 
#    0.000    7.273    0.000    0.000    0.000    0.000 
#    0.000    0.000    0.000    0.000    0.000    0.000 
#
# Total GULP energy -245616.260531 kJ/mol
# GULP energy per Si atom -5582.187739 kJ/mol
# Density = 2.568928 g / cm^3
# Si number density = 25.747882 Si / 1000 Ang^3
#
#
#
# Elastic Constant Matrix: (Units=GPa)
#
#
# Indices 1 2 3 4 5 6 
#
# 1 124.0372 46.8988 28.9073 0.0000 0.0000 0.0000
# 2 46.8988 75.8503 19.3340 0.0000 0.0000 0.0000
# 3 28.9073 19.3340 80.6031 0.0000 0.0000 0.0000
# 4 0.0000 0.0000 0.0000 -9.2657 0.0000 0.0000
# 5 0.0000 0.0000 0.0000 0.0000 15.1229 0.0000
# 6 0.0000 0.0000 0.0000 0.0000 0.0000 61.5552
#
#
#
# Elastic Compliance Matrix: (Units=1/GPa)
#
#
# Indices 1 2 3 4 5 6 
#
# 1 0.010960 -0.006151 -0.002455 0.000000 0.000000 0.000000
# 2 -0.006151 0.017494 -0.001990 0.000000 0.000000 0.000000
# 3 -0.002455 -0.001990 0.013764 0.000000 0.000000 0.000000
# 4 0.000000 0.000000 0.000000 -0.107925 0.000000 0.000000
# 5 0.000000 0.000000 0.000000 0.000000 0.066125 0.000000
# 6 0.000000 0.000000 0.000000 0.000000 0.000000 0.016246
#
#
# Mechanical properties :
#
#
# Convention : Reuss Voigt Hill
#
# Bulk Modulus (GPa) = 47.56067 52.30787 49.93427
# Shear Modulus (GPa) = 111.44304 25.83917 68.64110
#
# Velocity S-wave (km/s) = 6.58607 3.17132 5.16883
# Velocity P-wave (km/s) = 8.73767 5.81112 7.42011
#
# Compressibility (1/GPa) = 0.02102578
#
# Stress axis : x y z
#
# Youngs Moduli (GPa) = 91.24148 57.16152 72.65090
#
# Poissons Ratio (x) = 0.35159 0.17838
# Poissons Ratio (y) = 0.56121 0.14460
# Poissons Ratio (z) = 0.22402 0.11377
#
# Static dielectric constant tensor:
#      x y z
#    x 2.004430 0.000000 0.000000 
#    y 0.000000 1.906020 0.000000 
#    z 0.000000 0.000000 2.171830 
# 
# From -- ./inp_files/50432.got.cif
#   From: 2010.05.17/outbox.cif.g08.bks.cpg/sg70_26_cif.got.tgz:50432.got - 2010.06.03 15:57:51.
