data_PCOD9515966
_publ_section_title
;
Structure prediction by ZEFSAII (Michael W. Deem and Ramdas Pophale) SiO2 
 PCOD9515966
Probable space group: F D D D
;
_chemical_formula_sum "Si O2"
_cell_formula_units_Z 56
_cell_length_a 14.349486
_cell_length_b 4.849548
_cell_length_c 28.034149
_cell_angle_alpha 90.000000
_cell_angle_beta 90.000000
_cell_angle_gamma 90.000000
_cell_volume 1950.854970
_symmetry_space_group_name_H-M "F D D D"
_symmetry_group_IT_number 70
_space_group.IT_coordinate_system_code '2'
_symmetry_cell_setting 'orthorhombic'
loop_
_space_group_symop_operation_xyz
x,y,z
1/4-x,1/4-y,z
x,1/4-y,1/4-z
1/4-x,y,1/4-z
-x,-y,-z
3/4+x,3/4+y,-z
-x,3/4+y,3/4+z
3/4+x,-y,3/4+z
x,1/2+y,1/2+z
1/4-x,3/4-y,1/2+z
x,3/4-y,3/4-z
1/4-x,1/2+y,3/4-z
-x,1/2-y,1/2-z
3/4+x,1/4+y,1/2-z
-x,1/4+y,1/4+z
3/4+x,1/2-y,1/4+z
1/2+x,y,1/2+z
3/4-x,1/4-y,1/2+z
1/2+x,1/4-y,3/4-z
3/4-x,y,3/4-z
1/2-x,-y,1/2-z
1/4+x,3/4+y,1/2-z
1/2-x,3/4+y,1/4+z
1/4+x,-y,1/4+z
1/2+x,1/2+y,z
3/4-x,3/4-y,z
1/2+x,3/4-y,1/4-z
3/4-x,1/2+y,1/4-z
1/2-x,1/2-y,-z
1/4+x,1/4+y,-z
1/2-x,1/4+y,3/4+z
1/4+x,1/2-y,3/4+z
loop_
_atom_site_type_symbol
_atom_site_label
_atom_site_fract_x
_atom_site_fract_y
_atom_site_fract_z
Si Si1 0.375000 0.375000 0.375000
Si Si2 0.375000 0.375000 0.033340
Si Si3 0.726009 0.414083 0.039939
O O1 0.437493 0.548540 0.410723
O O2 0.445092 0.611226 0.051594
O O3 0.284894 0.610872 0.022572
O O4 0.625000 0.625000 0.027836
#
# Coordination Sequence:
#
# PCOD9515966 Si02
#       3
#     8  16  32
#     4  12  24  42  84 118 170 242 288 352 482 514
#     4  10  22  43  78 109 172 215 280 375 438 512
#     4  11  22  45  75 117 165 225 284 366 441 531
#
# _framework density 28.705362999999998
#
# number of rings (size 3 to 8) (size 9 to 14) (size 15 to 20)
#    0.000    1.143    5.714    0.000    0.000    1.143 
#    0.000    0.000   12.571    0.000    0.000    0.000 
#    0.000    0.000    0.000    0.000    0.000    0.000 
#
# Total GULP energy -78155.208784 kJ/mol
# GULP energy per Si atom -5582.514913 kJ/mol
# Density = 2.864003 g / cm^3
# Si number density = 28.705363 Si / 1000 Ang^3
#
#
#
# Elastic Constant Matrix: (Units=GPa)
#
#
# Indices 1 2 3 4 5 6 
#
# 1 160.0973 101.9368 129.0349 0.0000 0.0000 0.0000
# 2 101.9368 305.1413 135.4518 0.0000 0.0000 0.0000
# 3 129.0349 135.4518 260.3740 0.0000 0.0000 0.0000
# 4 0.0000 0.0000 0.0000 29.4810 0.0000 0.0000
# 5 0.0000 0.0000 0.0000 0.0000 18.1675 0.0000
# 6 0.0000 0.0000 0.0000 0.0000 0.0000 136.1254
#
#
#
# Elastic Compliance Matrix: (Units=1/GPa)
#
#
# Indices 1 2 3 4 5 6 
#
# 1 0.010991 -0.001630 -0.004599 0.000000 0.000000 0.000000
# 2 -0.001630 0.004503 -0.001535 0.000000 0.000000 0.000000
# 3 -0.004599 -0.001535 0.006918 0.000000 0.000000 0.000000
# 4 0.000000 0.000000 0.000000 0.033920 0.000000 0.000000
# 5 0.000000 0.000000 0.000000 0.000000 0.055043 0.000000
# 6 0.000000 0.000000 0.000000 0.000000 0.000000 0.007346
#
#
# Mechanical properties :
#
#
# Convention : Reuss Voigt Hill
#
# Bulk Modulus (GPa) = 145.25246 162.05106 153.65176
# Shear Modulus (GPa) = 36.61856 60.70074 48.65965
#
# Velocity S-wave (km/s) = 3.57553 4.60348 4.12168
# Velocity P-wave (km/s) = 8.23146 9.21042 8.73466
#
# Compressibility (1/GPa) = 0.00688457
#
# Stress axis : x y z
#
# Youngs Moduli (GPa) = 90.98728 222.07398 144.55236
#
# Poissons Ratio (x) = 0.36204 0.66473
# Poissons Ratio (y) = 0.14833 0.22184
# Poissons Ratio (z) = 0.41841 0.34080
#
# Static dielectric constant tensor:
#      x y z
#    x 2.496410 0.000000 0.000000 
#    y 0.000000 2.457860 0.000000 
#    z 0.000000 0.000000 2.070120 
# 
# From -- ./inp_files/715.got.cif
#   From: 2010.05.17/outbox.cif.g08.bks.cpg/sg70_1_cif.got.tgz:715.got - 2010.06.03 15:57:51.
