data_PCOD9515797
_publ_section_title
;
Structure prediction by ZEFSAII (Michael W. Deem and Ramdas Pophale) SiO2 
 PCOD9515797
Probable space group: F D D D
;
_chemical_formula_sum "Si O2"
_cell_formula_units_Z 160
_cell_length_a 29.329624
_cell_length_b 15.145424
_cell_length_c 18.837258
_cell_angle_alpha 90.000000
_cell_angle_beta 90.000000
_cell_angle_gamma 90.000000
_cell_volume 8367.690676
_symmetry_space_group_name_H-M "F D D D"
_symmetry_group_IT_number 70
_space_group.IT_coordinate_system_code '2'
_symmetry_cell_setting 'orthorhombic'
loop_
_space_group_symop_operation_xyz
x,y,z
1/4-x,1/4-y,z
x,1/4-y,1/4-z
1/4-x,y,1/4-z
-x,-y,-z
3/4+x,3/4+y,-z
-x,3/4+y,3/4+z
3/4+x,-y,3/4+z
x,1/2+y,1/2+z
1/4-x,3/4-y,1/2+z
x,3/4-y,3/4-z
1/4-x,1/2+y,3/4-z
-x,1/2-y,1/2-z
3/4+x,1/4+y,1/2-z
-x,1/4+y,1/4+z
3/4+x,1/2-y,1/4+z
1/2+x,y,1/2+z
3/4-x,1/4-y,1/2+z
1/2+x,1/4-y,3/4-z
3/4-x,y,3/4-z
1/2-x,-y,1/2-z
1/4+x,3/4+y,1/2-z
1/2-x,3/4+y,1/4+z
1/4+x,-y,1/4+z
1/2+x,1/2+y,z
3/4-x,3/4-y,z
1/2+x,3/4-y,1/4-z
3/4-x,1/2+y,1/4-z
1/2-x,1/2-y,-z
1/4+x,1/4+y,-z
1/2-x,1/4+y,3/4+z
1/4+x,1/2-y,3/4+z
loop_
_atom_site_type_symbol
_atom_site_label
_atom_site_fract_x
_atom_site_fract_y
_atom_site_fract_z
Si Si1 0.375000 0.875000 0.692395
Si Si2 0.326238 0.325802 0.942267
Si Si3 0.873566 0.688649 0.262577
Si Si4 0.323208 0.625000 0.625000
Si Si5 0.687757 0.365504 0.621685
Si Si6 0.460094 0.817125 0.151513
O O1 0.383983 0.787878 0.738749
O O2 0.418457 0.891366 0.642137
O O3 0.304760 0.375000 0.875000
O O4 0.375000 0.375000 0.954064
O O5 0.330110 0.225284 0.915090
O O6 0.298055 0.330179 0.014535
O O7 0.855527 0.637934 0.193262
O O8 0.914549 0.638533 0.303202
O O9 0.831642 0.689183 0.318257
O O10 0.293851 0.537198 0.636093
O O11 0.741757 0.356097 0.622257
#
# Coordination Sequence:
#
# PCOD9515797 Si02
#       6
#    16  32  32  16  32  32
#     4  10  24  43  67  88 132 170 224 266 318 377
#     4  11  22  35  61  96 133 165 206 263 328 391
#     4  10  22  42  63  93 127 174 209 268 316 386
#     4  10  22  40  64  89 136 161 214 262 334 382
#     4  11  24  40  64  94 130 167 220 261 330 385
#     4  11  23  42  63  97 126 172 213 272 326 388
#
# _framework density 19.121167
#
# number of rings (size 3 to 8) (size 9 to 14) (size 15 to 20)
#    0.000    1.400    3.000    3.000    1.400    4.000 
#    0.000    0.000    0.000    4.800    0.000    0.000 
#    0.000    0.000    0.000    0.000    0.000    0.000 
#
# Total GULP energy -223359.039380 kJ/mol
# GULP energy per Si atom -5583.975985 kJ/mol
# Density = 1.907765 g / cm^3
# Si number density = 19.121167 Si / 1000 Ang^3
#
#
#
# Elastic Constant Matrix: (Units=GPa)
#
#
# Indices 1 2 3 4 5 6 
#
# 1 174.4088 57.3164 71.7345 0.0000 0.0000 0.0000
# 2 57.3164 94.5340 41.3335 0.0000 0.0000 0.0000
# 3 71.7345 41.3335 142.1845 0.0000 0.0000 0.0000
# 4 0.0000 0.0000 0.0000 32.3047 0.0000 0.0000
# 5 0.0000 0.0000 0.0000 0.0000 -7.8939 0.0000
# 6 0.0000 0.0000 0.0000 0.0000 0.0000 22.3568
#
#
#
# Elastic Compliance Matrix: (Units=1/GPa)
#
#
# Indices 1 2 3 4 5 6 
#
# 1 0.008190 -0.003619 -0.003080 0.000000 0.000000 0.000000
# 2 -0.003619 0.013718 -0.002162 0.000000 0.000000 0.000000
# 3 -0.003080 -0.002162 0.009215 0.000000 0.000000 0.000000
# 4 0.000000 0.000000 0.000000 0.030955 0.000000 0.000000
# 5 0.000000 0.000000 0.000000 0.000000 -0.126680 0.000000
# 6 0.000000 0.000000 0.000000 0.000000 0.000000 0.044729
#
#
# Mechanical properties :
#
#
# Convention : Reuss Voigt Hill
#
# Bulk Modulus (GPa) = 74.61891 83.54400 79.08146
# Shear Modulus (GPa) = 2158.97373 25.40304 1092.18839
#
# Velocity S-wave (km/s) = 33.63856 3.64885 23.92558
# Velocity P-wave (km/s) = 39.34267 7.84468 28.36710
#
# Compressibility (1/GPa) = 0.01340143
#
# Stress axis : x y z
#
# Youngs Moduli (GPa) = 122.10533 72.89900 108.51369
#
# Poissons Ratio (x) = 0.26381 0.33420
# Poissons Ratio (y) = 0.44188 0.23461
# Poissons Ratio (z) = 0.37606 0.15761
#
# Static dielectric constant tensor:
#      x y z
#    x 1.676940 0.000000 0.000000 
#    y 0.000000 1.708210 0.000000 
#    z 0.000000 0.000000 1.674570 
# 
# From -- ./inp_files/39535.got.cif
#   From: 2010.05.17/outbox.cif.g08.bks.cpg/sg70_20_cif.got.tgz:39535.got - 2010.06.03 15:57:51.
