data_PCOD9515913
_publ_section_title
;
Structure prediction by ZEFSAII (Michael W. Deem and Ramdas Pophale) SiO2 
 PCOD9515913
Probable space group: F D D D
;
_chemical_formula_sum "Si O2"
_cell_formula_units_Z 168
_cell_length_a 13.941752
_cell_length_b 21.235201
_cell_length_c 24.749935
_cell_angle_alpha 90.000000
_cell_angle_beta 90.000000
_cell_angle_gamma 90.000000
_cell_volume 7327.364430
_symmetry_space_group_name_H-M "F D D D"
_symmetry_group_IT_number 70
_space_group.IT_coordinate_system_code '2'
_symmetry_cell_setting 'orthorhombic'
loop_
_space_group_symop_operation_xyz
x,y,z
1/4-x,1/4-y,z
x,1/4-y,1/4-z
1/4-x,y,1/4-z
-x,-y,-z
3/4+x,3/4+y,-z
-x,3/4+y,3/4+z
3/4+x,-y,3/4+z
x,1/2+y,1/2+z
1/4-x,3/4-y,1/2+z
x,3/4-y,3/4-z
1/4-x,1/2+y,3/4-z
-x,1/2-y,1/2-z
3/4+x,1/4+y,1/2-z
-x,1/4+y,1/4+z
3/4+x,1/2-y,1/4+z
1/2+x,y,1/2+z
3/4-x,1/4-y,1/2+z
1/2+x,1/4-y,3/4-z
3/4-x,y,3/4-z
1/2-x,-y,1/2-z
1/4+x,3/4+y,1/2-z
1/2-x,3/4+y,1/4+z
1/4+x,-y,1/4+z
1/2+x,1/2+y,z
3/4-x,3/4-y,z
1/2+x,3/4-y,1/4-z
3/4-x,1/2+y,1/4-z
1/2-x,1/2-y,-z
1/4+x,1/4+y,-z
1/2-x,1/4+y,3/4+z
1/4+x,1/2-y,3/4+z
loop_
_atom_site_type_symbol
_atom_site_label
_atom_site_fract_x
_atom_site_fract_y
_atom_site_fract_z
Si Si1 0.667146 0.519418 0.706216
Si Si2 0.904766 0.113368 0.292840
Si Si3 0.699649 0.178627 0.300429
Si Si4 0.480196 0.520210 0.899735
Si Si5 0.625000 0.125000 0.125000
Si Si6 0.012942 0.640352 0.687931
O O1 0.750000 0.500000 0.750000
O O2 0.623892 0.454321 0.684123
O O3 0.583472 0.546560 0.743468
O O4 0.685093 0.575370 0.662809
O O5 0.805419 0.151408 0.293459
O O6 0.974966 0.159275 0.326495
O O7 0.948433 0.107399 0.233003
O O8 0.625000 0.125000 0.316195
O O9 0.700547 0.228944 0.348355
O O10 0.375000 0.504802 0.875000
O O11 0.503305 0.465637 0.941493
O O12 0.125000 0.625000 0.697931
O O13 0.992831 0.625000 0.625000
#
# Coordination Sequence:
#
# PCOD9515913 Si02
#       6
#    32  32  32  32   8  32
#     4  12  25  50  71 104 144 194 252 304 373 444
#     4  11  25  42  72 102 139 191 236 295 371 450
#     4  11  23  47  65  99 143 183 233 299 360 438
#     4  10  22  42  69 100 138 182 232 297 368 435
#     4  12  28  48  76 108 148 200 256 336 366 460
#     4  11  22  44  70 106 142 182 235 304 371 445
#
# _framework density 22.927754
#
# number of rings (size 3 to 8) (size 9 to 14) (size 15 to 20)
#    0.000    0.952    4.762    1.714    6.667    0.762 
#   17.143    0.000    0.000    0.000    0.000    0.000 
#    0.000    0.000    0.000    0.000    0.000    0.000 
#
# Total GULP energy -234547.501102 kJ/mol
# GULP energy per Si atom -5584.464312 kJ/mol
# Density = 2.287557 g / cm^3
# Si number density = 22.927754 Si / 1000 Ang^3
#
#
#
# Elastic Constant Matrix: (Units=GPa)
#
#
# Indices 1 2 3 4 5 6 
#
# 1 41.2454 9.9912 38.1959 0.0000 0.0000 0.0000
# 2 9.9912 148.5004 49.8255 0.0000 0.0000 0.0000
# 3 38.1959 49.8255 124.4292 0.0000 0.0000 0.0000
# 4 0.0000 0.0000 0.0000 34.3734 0.0000 0.0000
# 5 0.0000 0.0000 0.0000 0.0000 24.3702 0.0000
# 6 0.0000 0.0000 0.0000 0.0000 0.0000 -4.3227
#
#
#
# Elastic Compliance Matrix: (Units=1/GPa)
#
#
# Indices 1 2 3 4 5 6 
#
# 1 0.034128 0.001408 -0.011040 0.000000 0.000000 0.000000
# 2 0.001408 0.007837 -0.003571 0.000000 0.000000 0.000000
# 3 -0.011040 -0.003571 0.012855 0.000000 0.000000 0.000000
# 4 0.000000 0.000000 0.000000 0.029092 0.000000 0.000000
# 5 0.000000 0.000000 0.000000 0.000000 0.041034 0.000000
# 6 0.000000 0.000000 0.000000 0.000000 0.000000 -0.231339
#
#
# Mechanical properties :
#
#
# Convention : Reuss Voigt Hill
#
# Bulk Modulus (GPa) = 35.19207 56.68892 45.94050
# Shear Modulus (GPa) = -70.90576 25.29501 -22.80538
#
# Velocity S-wave (km/s) = -5.56712 3.32512 -3.15725
# Velocity P-wave (km/s) = 5.09327 6.28654 2.60569
#
# Compressibility (1/GPa) = 0.02841549
#
# Stress axis : x y z
#
# Youngs Moduli (GPa) = 29.30160 127.59576 77.78830
#
# Poissons Ratio (x) = -0.17966 0.85878
# Poissons Ratio (y) = -0.04126 0.27774
# Poissons Ratio (z) = 0.32349 0.45558
#
# Static dielectric constant tensor:
#      x y z
#    x 1.914480 0.000000 0.000000 
#    y 0.000000 1.984930 0.000000 
#    z 0.000000 0.000000 1.703610 
# 
# From -- ./inp_files/58475.got.cif
#   From: 2010.05.17/outbox.cif.g08.bks.cpg/sg70_30_cif.got.tgz:58475.got - 2010.06.03 15:57:51.
