data_PCOD9515596
_publ_section_title
;
Structure prediction by ZEFSAII (Michael W. Deem and Ramdas Pophale) SiO2 
 PCOD9515596
Probable space group: F D D D
;
_chemical_formula_sum "Si O2"
_cell_formula_units_Z 128
_cell_length_a 16.378298
_cell_length_b 13.938307
_cell_length_c 25.948864
_cell_angle_alpha 90.000000
_cell_angle_beta 90.000000
_cell_angle_gamma 90.000000
_cell_volume 5923.755767
_symmetry_space_group_name_H-M "F D D D"
_symmetry_group_IT_number 70
_space_group.IT_coordinate_system_code '2'
_symmetry_cell_setting 'orthorhombic'
loop_
_space_group_symop_operation_xyz
x,y,z
1/4-x,1/4-y,z
x,1/4-y,1/4-z
1/4-x,y,1/4-z
-x,-y,-z
3/4+x,3/4+y,-z
-x,3/4+y,3/4+z
3/4+x,-y,3/4+z
x,1/2+y,1/2+z
1/4-x,3/4-y,1/2+z
x,3/4-y,3/4-z
1/4-x,1/2+y,3/4-z
-x,1/2-y,1/2-z
3/4+x,1/4+y,1/2-z
-x,1/4+y,1/4+z
3/4+x,1/2-y,1/4+z
1/2+x,y,1/2+z
3/4-x,1/4-y,1/2+z
1/2+x,1/4-y,3/4-z
3/4-x,y,3/4-z
1/2-x,-y,1/2-z
1/4+x,3/4+y,1/2-z
1/2-x,3/4+y,1/4+z
1/4+x,-y,1/4+z
1/2+x,1/2+y,z
3/4-x,3/4-y,z
1/2+x,3/4-y,1/4-z
3/4-x,1/2+y,1/4-z
1/2-x,1/2-y,-z
1/4+x,1/4+y,-z
1/2-x,1/4+y,3/4+z
1/4+x,1/2-y,3/4+z
loop_
_atom_site_type_symbol
_atom_site_label
_atom_site_fract_x
_atom_site_fract_y
_atom_site_fract_z
Si Si1 0.520056 0.463157 0.667063
Si Si2 0.287548 0.903692 0.686976
Si Si3 0.875000 0.875000 0.283314
Si Si4 0.625000 0.125000 0.484053
Si Si5 0.367519 0.222084 0.817669
O O1 0.502761 0.470222 0.605992
O O2 0.564465 0.557858 0.686050
O O3 0.440501 0.430168 0.698763
O O4 0.580728 0.374940 0.678049
O O5 0.375000 0.875000 0.662426
O O6 0.319328 0.936270 0.742930
O O7 0.225611 0.813399 0.693080
O O8 0.652636 0.208064 0.524150
O O9 0.375000 0.265453 0.875000
#
# Coordination Sequence:
#
# PCOD9515596 Si02
#       5
#    32  32  16  16  32
#     4  11  22  38  69  96 135 182 231 288 360 425
#     4   9  19  41  61  93 139 175 230 292 334 422
#     4  10  21  42  67  97 142 191 223 297 364 408
#     4  12  18  40  62  95 124 183 228 289 347 420
#     4  10  22  37  62  94 131 170 232 296 347 411
#
# _framework density 21.607911999999999
#
# number of rings (size 3 to 8) (size 9 to 14) (size 15 to 20)
#    0.750    1.000    3.750    1.125    0.000    1.000 
#    0.000    5.625    0.000    3.000    0.000    0.000 
#    0.000    0.000    0.000    0.000    0.000    0.000 
#
# Total GULP energy -178356.233892 kJ/mol
# GULP energy per Si atom -5573.632309 kJ/mol
# Density = 2.155873 g / cm^3
# Si number density = 21.607912 Si / 1000 Ang^3
#
#
#
# Elastic Constant Matrix: (Units=GPa)
#
#
# Indices 1 2 3 4 5 6 
#
# 1 90.4068 34.9919 35.4317 0.0000 0.0000 0.0000
# 2 34.9919 78.0927 58.7860 0.0000 0.0000 0.0000
# 3 35.4317 58.7860 139.7129 0.0000 0.0000 0.0000
# 4 0.0000 0.0000 0.0000 12.4298 0.0000 0.0000
# 5 0.0000 0.0000 0.0000 0.0000 38.0914 0.0000
# 6 0.0000 0.0000 0.0000 0.0000 0.0000 29.0182
#
#
#
# Elastic Compliance Matrix: (Units=1/GPa)
#
#
# Indices 1 2 3 4 5 6 
#
# 1 0.013539 -0.005096 -0.001289 0.000000 0.000000 0.000000
# 2 -0.005096 0.020660 -0.007400 0.000000 0.000000 0.000000
# 3 -0.001289 -0.007400 0.010598 0.000000 0.000000 0.000000
# 4 0.000000 0.000000 0.000000 0.080452 0.000000 0.000000
# 5 0.000000 0.000000 0.000000 0.000000 0.026253 0.000000
# 6 0.000000 0.000000 0.000000 0.000000 0.000000 0.034461
#
#
# Mechanical properties :
#
#
# Convention : Reuss Voigt Hill
#
# Bulk Modulus (GPa) = 58.05401 62.95905 60.50653
# Shear Modulus (GPa) = 22.80237 27.84138 25.32187
#
# Velocity S-wave (km/s) = 3.25203 3.59344 3.42699
# Velocity P-wave (km/s) = 6.40517 6.81303 6.61225
#
# Compressibility (1/GPa) = 0.01722534
#
# Stress axis : x y z
#
# Youngs Moduli (GPa) = 73.86181 48.40386 94.35461
#
# Poissons Ratio (x) = 0.24666 0.12165
# Poissons Ratio (y) = 0.37639 0.69826
# Poissons Ratio (z) = 0.09523 0.35821
#
# Static dielectric constant tensor:
#      x y z
#    x 1.833410 0.000000 0.000000 
#    y 0.000000 1.779010 0.000000 
#    z 0.000000 0.000000 1.844310 
# 
# From -- ./inp_files/59296.got.cif
#   From: 2010.05.17/outbox.cif.g08.bks.cpg/sg70_30_cif.got.tgz:59296.got - 2010.06.03 15:57:51.
