data_PCOD9515527
_publ_section_title
;
Structure prediction by ZEFSAII (Michael W. Deem and Ramdas Pophale) SiO2 
 PCOD9515527
Probable space group: F D D D
;
_chemical_formula_sum "Si O2"
_cell_formula_units_Z 168
_cell_length_a 15.133326
_cell_length_b 21.445472
_cell_length_c 25.592801
_cell_angle_alpha 90.000000
_cell_angle_beta 90.000000
_cell_angle_gamma 90.000000
_cell_volume 8305.921393
_symmetry_space_group_name_H-M "F D D D"
_symmetry_group_IT_number 70
_space_group.IT_coordinate_system_code '2'
_symmetry_cell_setting 'orthorhombic'
loop_
_space_group_symop_operation_xyz
x,y,z
1/4-x,1/4-y,z
x,1/4-y,1/4-z
1/4-x,y,1/4-z
-x,-y,-z
3/4+x,3/4+y,-z
-x,3/4+y,3/4+z
3/4+x,-y,3/4+z
x,1/2+y,1/2+z
1/4-x,3/4-y,1/2+z
x,3/4-y,3/4-z
1/4-x,1/2+y,3/4-z
-x,1/2-y,1/2-z
3/4+x,1/4+y,1/2-z
-x,1/4+y,1/4+z
3/4+x,1/2-y,1/4+z
1/2+x,y,1/2+z
3/4-x,1/4-y,1/2+z
1/2+x,1/4-y,3/4-z
3/4-x,y,3/4-z
1/2-x,-y,1/2-z
1/4+x,3/4+y,1/2-z
1/2-x,3/4+y,1/4+z
1/4+x,-y,1/4+z
1/2+x,1/2+y,z
3/4-x,3/4-y,z
1/2+x,3/4-y,1/4-z
3/4-x,1/2+y,1/4-z
1/2-x,1/2-y,-z
1/4+x,1/4+y,-z
1/2-x,1/4+y,3/4+z
1/4+x,1/2-y,3/4+z
loop_
_atom_site_type_symbol
_atom_site_label
_atom_site_fract_x
_atom_site_fract_y
_atom_site_fract_z
Si Si1 0.953183 0.553254 0.136217
Si Si2 0.625000 0.467062 0.625000
Si Si3 0.906026 0.739272 0.997558
Si Si4 0.185574 0.875694 0.207441
Si Si5 0.717954 0.804737 0.814360
Si Si6 0.125000 0.125000 0.125000
Si Si7 0.375000 0.375000 0.711411
O O1 0.978137 0.625000 0.125000
O O2 0.924231 0.539924 0.195836
O O3 0.865215 0.543241 0.101203
O O4 0.037142 0.509450 0.124999
O O5 0.624338 0.421180 0.674986
O O6 0.870557 0.809756 0.006804
O O7 0.844270 0.696416 0.962470
O O8 0.997904 0.744658 0.966618
O O9 0.194258 0.851812 0.267117
O O10 0.282766 0.871187 0.181948
O O11 0.804104 0.831912 0.844201
#
# Coordination Sequence:
#
# PCOD9515527 Si02
#       7
#    32  16  32  32  32   8  16
#     4  12  24  47  74  97 141 194 242 286 351 428
#     4  12  27  47  68 103 145 184 248 292 354 427
#     4  11  23  44  69 108 140 182 236 292 367 415
#     4  11  23  45  67 102 146 183 231 299 352 424
#     4  11  23  43  72 106 141 185 233 291 350 426
#     4  12  22  42  72 110 138 180 232 284 360 432
#     4  10  21  40  72  95 136 182 224 285 355 418
#
# _framework density 20.226534000000001
#
# number of rings (size 3 to 8) (size 9 to 14) (size 15 to 20)
#    0.000    0.762    6.667    3.143    0.000    4.571 
#    0.000    0.000    0.000    0.000    0.000    0.000 
#    0.000    0.000    0.000    0.000    0.000    0.000 
#
# Total GULP energy -234269.150904 kJ/mol
# GULP energy per Si atom -5577.836926 kJ/mol
# Density = 2.018050 g / cm^3
# Si number density = 20.226534 Si / 1000 Ang^3
#
#
#
# Elastic Constant Matrix: (Units=GPa)
#
#
# Indices 1 2 3 4 5 6 
#
# 1 113.8626 51.5889 41.8945 0.0000 0.0000 0.0000
# 2 51.5889 128.9908 40.6136 0.0000 0.0000 0.0000
# 3 41.8945 40.6136 89.1937 0.0000 0.0000 0.0000
# 4 0.0000 0.0000 0.0000-1321.0426 0.0000 0.0000
# 5 0.0000 0.0000 0.0000 0.0000 44.6825 0.0000
# 6 0.0000 0.0000 0.0000 0.0000 0.0000 36.3310
#
#
#
# Elastic Compliance Matrix: (Units=1/GPa)
#
#
# Indices 1 2 3 4 5 6 
#
# 1 0.011818 -0.003477 -0.003968 0.000000 0.000000 0.000000
# 2 -0.003477 0.010073 -0.002953 0.000000 0.000000 0.000000
# 3 -0.003968 -0.002953 0.014420 0.000000 0.000000 0.000000
# 4 0.000000 0.000000 0.000000 -0.000757 0.000000 0.000000
# 5 0.000000 0.000000 0.000000 0.000000 0.022380 0.000000
# 6 0.000000 0.000000 0.000000 0.000000 0.000000 0.027525
#
#
# Mechanical properties :
#
#
# Convention : Reuss Voigt Hill
#
# Bulk Modulus (GPa) = 64.45607 66.69345 65.57476
# Shear Modulus (GPa) = 44.87260 -234.80916 -94.96828
#
# Velocity S-wave (km/s) = 4.71521 -10.78618 -6.85961
# Velocity P-wave (km/s) = 7.84733 11.04887 5.49986
#
# Compressibility (1/GPa) = 0.01551444
#
# Stress axis : x y z
#
# Youngs Moduli (GPa) = 84.61820 99.27437 69.34845
#
# Poissons Ratio (x) = 0.34520 0.27514
# Poissons Ratio (y) = 0.29424 0.20482
# Poissons Ratio (z) = 0.33572 0.29320
#
# Static dielectric constant tensor:
#      x y z
#    x 1.696640 0.000000 0.000000 
#    y 0.000000 1.749750 0.000000 
#    z 0.000000 0.000000 1.751110 
# 
# From -- ./inp_files/43019.got.cif
#   From: 2010.05.17/outbox.cif.g08.bks.cpg/sg70_22_cif.got.tgz:43019.got - 2010.06.03 15:57:51.
