data_PCOD9515060
_publ_section_title
;
Structure prediction by ZEFSAII (Michael W. Deem and Ramdas Pophale) SiO2 
 PCOD9515060
Probable space group: F D D D
;
_chemical_formula_sum "Si O2"
_cell_formula_units_Z 208
_cell_length_a 20.769817
_cell_length_b 29.546593
_cell_length_c 17.905833
_cell_angle_alpha 90.000000
_cell_angle_beta 90.000000
_cell_angle_gamma 90.000000
_cell_volume 10988.403779
_symmetry_space_group_name_H-M "F D D D"
_symmetry_group_IT_number 70
_space_group.IT_coordinate_system_code '2'
_symmetry_cell_setting 'orthorhombic'
loop_
_space_group_symop_operation_xyz
x,y,z
1/4-x,1/4-y,z
x,1/4-y,1/4-z
1/4-x,y,1/4-z
-x,-y,-z
3/4+x,3/4+y,-z
-x,3/4+y,3/4+z
3/4+x,-y,3/4+z
x,1/2+y,1/2+z
1/4-x,3/4-y,1/2+z
x,3/4-y,3/4-z
1/4-x,1/2+y,3/4-z
-x,1/2-y,1/2-z
3/4+x,1/4+y,1/2-z
-x,1/4+y,1/4+z
3/4+x,1/2-y,1/4+z
1/2+x,y,1/2+z
3/4-x,1/4-y,1/2+z
1/2+x,1/4-y,3/4-z
3/4-x,y,3/4-z
1/2-x,-y,1/2-z
1/4+x,3/4+y,1/2-z
1/2-x,3/4+y,1/4+z
1/4+x,-y,1/4+z
1/2+x,1/2+y,z
3/4-x,3/4-y,z
1/2+x,3/4-y,1/4-z
3/4-x,1/2+y,1/4-z
1/2-x,1/2-y,-z
1/4+x,1/4+y,-z
1/2-x,1/4+y,3/4+z
1/4+x,1/2-y,3/4+z
loop_
_atom_site_type_symbol
_atom_site_label
_atom_site_fract_x
_atom_site_fract_y
_atom_site_fract_z
Si Si1 0.984855 0.073397 0.629071
Si Si2 0.836135 0.561552 0.775240
Si Si3 0.308912 0.503542 0.805961
Si Si4 0.710309 0.767716 0.675916
Si Si5 0.254894 0.625000 0.625000
Si Si6 0.864059 0.659059 0.012598
Si Si7 0.060699 0.042220 0.204254
O O1 0.009941 0.125000 0.625000
O O2 0.957616 0.059121 0.548071
O O3 0.923438 0.075558 0.684939
O O4 0.033368 0.035039 0.656474
O O5 0.898837 0.529377 0.772812
O O6 0.799830 0.546345 0.850131
O O7 0.863696 0.612672 0.776416
O O8 0.250000 0.500000 0.750000
O O9 0.342918 0.551439 0.792494
O O10 0.363147 0.465547 0.788431
O O11 0.289347 0.494351 0.891135
O O12 0.773693 0.782851 0.719659
O O13 0.303434 0.648891 0.566628
O O14 0.211517 0.660295 0.670166
#
# Coordination Sequence:
#
# PCOD9515060 Si02
#       7
#    32  32  32  32  16  32  32
#     4  10  20  39  64  91 124 166 210 261 323 389
#     4  10  22  37  64  96 123 166 208 271 313 390
#     4  11  24  40  61  92 126 170 214 269 326 395
#     4  11  21  38  61  95 125 161 216 265 321 381
#     4  12  20  41  64  90 128 169 212 268 326 401
#     4  11  19  39  65  90 124 166 221 261 322 395
#     4  11  24  39  62  91 128 171 215 268 331 388
#
# _framework density 18.929046
#
# number of rings (size 3 to 8) (size 9 to 14) (size 15 to 20)
#    0.000    1.231    6.923    0.462    0.000    3.692 
#    0.000    1.538    0.000    0.000    0.000    0.000 
#    0.000    0.000    0.000    0.000    0.000    0.000 
#
# Total GULP energy -290391.695586 kJ/mol
# GULP energy per Si atom -5584.455684 kJ/mol
# Density = 1.888596 g / cm^3
# Si number density = 18.929046 Si / 1000 Ang^3
#
#
#
# Elastic Constant Matrix: (Units=GPa)
#
#
# Indices 1 2 3 4 5 6 
#
# 1 68.7030 26.4966 30.0483 0.0000 0.0000 0.0000
# 2 26.4966 112.8470 29.9169 0.0000 0.0000 0.0000
# 3 30.0483 29.9169 61.9705 0.0000 0.0000 0.0000
# 4 0.0000 0.0000 0.0000 39.3782 0.0000 0.0000
# 5 0.0000 0.0000 0.0000 0.0000 38.8278 0.0000
# 6 0.0000 0.0000 0.0000 0.0000 0.0000 36.7595
#
#
#
# Elastic Compliance Matrix: (Units=1/GPa)
#
#
# Indices 1 2 3 4 5 6 
#
# 1 0.018985 -0.002313 -0.008089 0.000000 0.000000 0.000000
# 2 -0.002313 0.010444 -0.003920 0.000000 0.000000 0.000000
# 3 -0.008089 -0.003920 0.021951 0.000000 0.000000 0.000000
# 4 0.000000 0.000000 0.000000 0.025395 0.000000 0.000000
# 5 0.000000 0.000000 0.000000 0.000000 0.025755 0.000000
# 6 0.000000 0.000000 0.000000 0.000000 0.000000 0.027204
#
#
# Mechanical properties :
#
#
# Convention : Reuss Voigt Hill
#
# Bulk Modulus (GPa) = 43.98335 46.27155 45.12745
# Shear Modulus (GPa) = 30.12815 33.46367 31.79591
#
# Velocity S-wave (km/s) = 3.99386 4.20914 4.10291
# Velocity P-wave (km/s) = 6.67490 6.93688 6.80715
#
# Compressibility (1/GPa) = 0.02273588
#
# Stress axis : x y z
#
# Youngs Moduli (GPa) = 52.67210 95.74837 45.55519
#
# Poissons Ratio (x) = 0.22150 0.36849
# Poissons Ratio (y) = 0.12185 0.17859
# Poissons Ratio (z) = 0.42606 0.37536
#
# Static dielectric constant tensor:
#      x y z
#    x 1.667560 0.000000 0.000000 
#    y 0.000000 1.674330 0.000000 
#    z 0.000000 0.000000 1.667180 
# 
# From -- ./inp_files/36890.got.cif
#   From: 2010.05.17/outbox.cif.g08.bks.cpg/sg70_19_cif.got.tgz:36890.got - 2010.06.03 15:57:51.
