data_PCOD9515807
_publ_section_title
;
Structure prediction by ZEFSAII (Michael W. Deem and Ramdas Pophale) SiO2 
 PCOD9515807
Probable space group: F D D D
;
_chemical_formula_sum "Si O2"
_cell_formula_units_Z 176
_cell_length_a 22.138289
_cell_length_b 29.987282
_cell_length_c 11.355072
_cell_angle_alpha 90.000000
_cell_angle_beta 90.000000
_cell_angle_gamma 90.000000
_cell_volume 7538.258892
_symmetry_space_group_name_H-M "F D D D"
_symmetry_group_IT_number 70
_space_group.IT_coordinate_system_code '2'
_symmetry_cell_setting 'orthorhombic'
loop_
_space_group_symop_operation_xyz
x,y,z
1/4-x,1/4-y,z
x,1/4-y,1/4-z
1/4-x,y,1/4-z
-x,-y,-z
3/4+x,3/4+y,-z
-x,3/4+y,3/4+z
3/4+x,-y,3/4+z
x,1/2+y,1/2+z
1/4-x,3/4-y,1/2+z
x,3/4-y,3/4-z
1/4-x,1/2+y,3/4-z
-x,1/2-y,1/2-z
3/4+x,1/4+y,1/2-z
-x,1/4+y,1/4+z
3/4+x,1/2-y,1/4+z
1/2+x,y,1/2+z
3/4-x,1/4-y,1/2+z
1/2+x,1/4-y,3/4-z
3/4-x,y,3/4-z
1/2-x,-y,1/2-z
1/4+x,3/4+y,1/2-z
1/2-x,3/4+y,1/4+z
1/4+x,-y,1/4+z
1/2+x,1/2+y,z
3/4-x,3/4-y,z
1/2+x,3/4-y,1/4-z
3/4-x,1/2+y,1/4-z
1/2-x,1/2-y,-z
1/4+x,1/4+y,-z
1/2-x,1/4+y,3/4+z
1/4+x,1/2-y,3/4+z
loop_
_atom_site_type_symbol
_atom_site_label
_atom_site_fract_x
_atom_site_fract_y
_atom_site_fract_z
Si Si1 0.875000 0.750347 0.375000
Si Si2 0.457663 0.828852 0.321892
Si Si3 0.824673 0.693036 0.553406
Si Si4 0.689388 0.561301 0.435827
Si Si5 0.473026 0.875000 0.875000
Si Si6 0.075158 0.875000 0.875000
Si Si7 0.933084 0.512254 0.297681
O O1 0.823766 0.719349 0.431801
O O2 0.900922 0.778784 0.481904
O O3 0.435443 0.875000 0.375000
O O4 0.424334 0.817362 0.200502
O O5 0.528961 0.842325 0.305092
O O6 0.450243 0.787685 0.410871
O O7 0.765113 0.664923 0.578939
O O8 0.880270 0.657736 0.553773
O O9 0.832263 0.727123 0.662251
O O10 0.689399 0.606568 0.511171
O O11 0.757352 0.541592 0.429516
O O12 0.875000 0.525624 0.375000
#
# Coordination Sequence:
#
# PCOD9515807 Si02
#       7
#    16  32  32  32  16  16  32
#     4  12  26  41  70  94 140 194 238 290 359 458
#     4  10  23  39  70  96 134 180 231 303 355 435
#     4  10  22  40  66 100 134 183 240 294 361 435
#     4  11  24  43  64 101 134 189 238 293 369 435
#     4   9  24  41  62  95 139 178 233 304 355 434
#     4   9  20  42  67 105 127 183 242 302 359 424
#     4  11  22  41  67  99 142 177 234 304 366 435
#
# _framework density 23.347566
#
# number of rings (size 3 to 8) (size 9 to 14) (size 15 to 20)
#    0.545    1.091    0.000    3.818    2.545    5.091 
#    3.273    1.818    0.000    0.000    0.000    0.000 
#    0.000    0.000    0.000    0.000    0.000    0.000 
#
# Total GULP energy -245837.198208 kJ/mol
# GULP energy per Si atom -5587.209050 kJ/mol
# Density = 2.329443 g / cm^3
# Si number density = 23.347566 Si / 1000 Ang^3
#
#
#
# Elastic Constant Matrix: (Units=GPa)
#
#
# Indices 1 2 3 4 5 6 
#
# 1 83.3126 31.1336 11.5347 0.0000 0.0000 0.0000
# 2 31.1336 127.4905 78.6106 0.0000 0.0000 0.0000
# 3 11.5347 78.6106 107.6273 0.0000 0.0000 0.0000
# 4 0.0000 0.0000 0.0000 21.9266 0.0000 0.0000
# 5 0.0000 0.0000 0.0000 0.0000 30.1147 0.0000
# 6 0.0000 0.0000 0.0000 0.0000 0.0000 31.5020
#
#
#
# Elastic Compliance Matrix: (Units=1/GPa)
#
#
# Indices 1 2 3 4 5 6 
#
# 1 0.013384 -0.004337 0.001734 0.000000 0.000000 0.000000
# 2 -0.004337 0.015676 -0.010985 0.000000 0.000000 0.000000
# 3 0.001734 -0.010985 0.017129 0.000000 0.000000 0.000000
# 4 0.000000 0.000000 0.000000 0.045607 0.000000 0.000000
# 5 0.000000 0.000000 0.000000 0.000000 0.033206 0.000000
# 6 0.000000 0.000000 0.000000 0.000000 0.000000 0.031744
#
#
# Mechanical properties :
#
#
# Convention : Reuss Voigt Hill
#
# Bulk Modulus (GPa) = 52.59975 62.33200 57.46588
# Shear Modulus (GPa) = 26.27969 29.85208 28.06589
#
# Velocity S-wave (km/s) = 3.35861 3.57962 3.47088
# Velocity P-wave (km/s) = 6.13338 6.62120 6.38195
#
# Compressibility (1/GPa) = 0.01901150
#
# Stress axis : x y z
#
# Youngs Moduli (GPa) = 74.71723 63.79061 58.38058
#
# Poissons Ratio (x) = 0.27668 -0.10121
# Poissons Ratio (y) = 0.32407 0.64131
# Poissons Ratio (z) = -0.12953 0.70074
#
# Static dielectric constant tensor:
#      x y z
#    x 1.947570 0.000000 0.000000 
#    y 0.000000 1.871210 0.000000 
#    z 0.000000 0.000000 1.929900 
# 
# From -- ./inp_files/21218.got.cif
#   From: 2010.05.17/outbox.cif.g08.bks.cpg/sg70_11_cif.got.tgz:21218.got - 2010.06.03 15:57:51.
