data_PCOD9515196
_publ_section_title
;
Structure prediction by ZEFSAII (Michael W. Deem and Ramdas Pophale) SiO2 
 PCOD9515196
Probable space group: F D D D
;
_chemical_formula_sum "Si O2"
_cell_formula_units_Z 136
_cell_length_a 15.798400
_cell_length_b 20.452275
_cell_length_c 20.532228
_cell_angle_alpha 90.000000
_cell_angle_beta 90.000000
_cell_angle_gamma 90.000000
_cell_volume 6634.234331
_symmetry_space_group_name_H-M "F D D D"
_symmetry_group_IT_number 70
_space_group.IT_coordinate_system_code '2'
_symmetry_cell_setting 'orthorhombic'
loop_
_space_group_symop_operation_xyz
x,y,z
1/4-x,1/4-y,z
x,1/4-y,1/4-z
1/4-x,y,1/4-z
-x,-y,-z
3/4+x,3/4+y,-z
-x,3/4+y,3/4+z
3/4+x,-y,3/4+z
x,1/2+y,1/2+z
1/4-x,3/4-y,1/2+z
x,3/4-y,3/4-z
1/4-x,1/2+y,3/4-z
-x,1/2-y,1/2-z
3/4+x,1/4+y,1/2-z
-x,1/4+y,1/4+z
3/4+x,1/2-y,1/4+z
1/2+x,y,1/2+z
3/4-x,1/4-y,1/2+z
1/2+x,1/4-y,3/4-z
3/4-x,y,3/4-z
1/2-x,-y,1/2-z
1/4+x,3/4+y,1/2-z
1/2-x,3/4+y,1/4+z
1/4+x,-y,1/4+z
1/2+x,1/2+y,z
3/4-x,3/4-y,z
1/2+x,3/4-y,1/4-z
3/4-x,1/2+y,1/4-z
1/2-x,1/2-y,-z
1/4+x,1/4+y,-z
1/2-x,1/4+y,3/4+z
1/4+x,1/2-y,3/4+z
loop_
_atom_site_type_symbol
_atom_site_label
_atom_site_fract_x
_atom_site_fract_y
_atom_site_fract_z
Si Si1 0.738695 0.967750 0.446530
Si Si2 0.875000 0.375000 0.875000
Si Si3 0.792926 0.057955 0.703451
Si Si4 0.279275 0.727201 0.350801
Si Si5 0.029684 0.613307 0.810651
O O1 0.811386 0.920731 0.418048
O O2 0.641684 0.945614 0.436797
O O3 0.739270 0.976583 0.524811
O O4 0.741609 0.040674 0.416761
O O5 0.778483 0.119383 0.749237
O O6 0.750000 0.000000 0.750000
O O7 0.746908 0.044546 0.635660
O O8 0.375000 0.715817 0.375000
O O9 0.229966 0.666468 0.382735
O O10 0.125000 0.625000 0.785815
#
# Coordination Sequence:
#
# PCOD9515196 Si02
#       5
#    32   8  32  32  32
#     4  12  26  48  66  96 147 186 246 281 340 443
#     4  12  36  48  60  96 154 228 236 272 340 436
#     4  10  20  42  68 104 133 163 224 303 356 404
#     4  11  21  41  72 105 137 173 226 298 371 419
#     4  11  21  41  72 105 137 173 226 298 371 419
#
# _framework density 20.499728000000001
#
# number of rings (size 3 to 8) (size 9 to 14) (size 15 to 20)
#    0.000    0.941    9.412    0.000    3.294    2.824 
#    0.000    5.882    0.000    0.000    0.000    0.000 
#    0.000    0.000    0.000    0.000    0.000    0.000 
#
# Total GULP energy -189538.504402 kJ/mol
# GULP energy per Si atom -5574.661894 kJ/mol
# Density = 2.045307 g / cm^3
# Si number density = 20.499728 Si / 1000 Ang^3
#
#
#
# Elastic Constant Matrix: (Units=GPa)
#
#
# Indices 1 2 3 4 5 6 
#
# 1 105.6056 25.8125 0.2865 0.0000 0.0000 0.0000
# 2 25.8125 81.4185 -8.8869 0.0000 0.0000 0.0000
# 3 0.2865 -8.8869 70.0671 0.0000 0.0000 0.0000
# 4 0.0000 0.0000 0.0000 15.8925 0.0000 0.0000
# 5 0.0000 0.0000 0.0000 0.0000 19.5725 0.0000
# 6 0.0000 0.0000 0.0000 0.0000 0.0000 33.9019
#
#
#
# Elastic Compliance Matrix: (Units=1/GPa)
#
#
# Indices 1 2 3 4 5 6 
#
# 1 0.010279 -0.003309 -0.000462 0.000000 0.000000 0.000000
# 2 -0.003309 0.013520 0.001728 0.000000 0.000000 0.000000
# 3 -0.000462 0.001728 0.014493 0.000000 0.000000 0.000000
# 4 0.000000 0.000000 0.000000 0.062923 0.000000 0.000000
# 5 0.000000 0.000000 0.000000 0.000000 0.051092 0.000000
# 6 0.000000 0.000000 0.000000 0.000000 0.000000 0.029497
#
#
# Mechanical properties :
#
#
# Convention : Reuss Voigt Hill
#
# Bulk Modulus (GPa) = 29.23375 32.39058 30.81217
# Shear Modulus (GPa) = 25.34314 29.86533 27.60424
#
# Velocity S-wave (km/s) = 3.51987 3.82103 3.67354
# Velocity P-wave (km/s) = 5.55075 5.94153 5.74946
#
# Compressibility (1/GPa) = 0.03420704
#
# Stress axis : x y z
#
# Youngs Moduli (GPa) = 97.28274 73.96429 68.99820
#
# Poissons Ratio (x) = 0.24477 0.03186
# Poissons Ratio (y) = 0.32194 -0.11925
# Poissons Ratio (z) = 0.04492 -0.12784
#
# Static dielectric constant tensor:
#      x y z
#    x 1.788400 0.000000 0.000000 
#    y 0.000000 1.960210 0.000000 
#    z 0.000000 0.000000 1.000980 
# 
# From -- ./inp_files/27302.got.cif
#   From: 2010.05.17/outbox.cif.g08.bks.cpg/sg70_14_cif.got.tgz:27302.got - 2010.06.03 15:57:51.
