data_PCOD9515652
_publ_section_title
;
Structure prediction by ZEFSAII (Michael W. Deem and Ramdas Pophale) SiO2 
 PCOD9515652
Probable space group: F D D D
;
_chemical_formula_sum "Si O2"
_cell_formula_units_Z 184
_cell_length_a 17.986730
_cell_length_b 18.232173
_cell_length_c 26.626230
_cell_angle_alpha 90.000000
_cell_angle_beta 90.000000
_cell_angle_gamma 90.000000
_cell_volume 8731.730596
_symmetry_space_group_name_H-M "F D D D"
_symmetry_group_IT_number 70
_space_group.IT_coordinate_system_code '2'
_symmetry_cell_setting 'orthorhombic'
loop_
_space_group_symop_operation_xyz
x,y,z
1/4-x,1/4-y,z
x,1/4-y,1/4-z
1/4-x,y,1/4-z
-x,-y,-z
3/4+x,3/4+y,-z
-x,3/4+y,3/4+z
3/4+x,-y,3/4+z
x,1/2+y,1/2+z
1/4-x,3/4-y,1/2+z
x,3/4-y,3/4-z
1/4-x,1/2+y,3/4-z
-x,1/2-y,1/2-z
3/4+x,1/4+y,1/2-z
-x,1/4+y,1/4+z
3/4+x,1/2-y,1/4+z
1/2+x,y,1/2+z
3/4-x,1/4-y,1/2+z
1/2+x,1/4-y,3/4-z
3/4-x,y,3/4-z
1/2-x,-y,1/2-z
1/4+x,3/4+y,1/2-z
1/2-x,3/4+y,1/4+z
1/4+x,-y,1/4+z
1/2+x,1/2+y,z
3/4-x,3/4-y,z
1/2+x,3/4-y,1/4-z
3/4-x,1/2+y,1/4-z
1/2-x,1/2-y,-z
1/4+x,1/4+y,-z
1/2-x,1/4+y,3/4+z
1/4+x,1/2-y,3/4+z
loop_
_atom_site_type_symbol
_atom_site_label
_atom_site_fract_x
_atom_site_fract_y
_atom_site_fract_z
Si Si1 0.326000 0.220531 0.025980
Si Si2 0.647252 0.791920 0.774150
Si Si3 0.068545 0.248976 0.584596
Si Si4 0.125000 0.887883 0.125000
Si Si5 0.875000 0.375000 0.375000
Si Si6 0.190489 0.507784 0.553792
Si Si7 0.092785 0.789547 0.378921
O O1 0.339432 0.131359 0.020494
O O2 0.341277 0.240002 0.084617
O O3 0.250000 0.250000 0.000000
O O4 0.390953 0.261361 0.995675
O O5 0.639910 0.756249 0.718924
O O6 0.724451 0.757298 0.791603
O O7 0.591610 0.769261 0.819561
O O8 0.125000 0.214055 0.625000
O O9 0.063770 0.333931 0.602034
O O10 0.985902 0.218431 0.592062
O O11 0.161432 0.937541 0.083210
O O12 0.824907 0.424246 0.410280
O O13 0.109925 0.875000 0.375000
#
# Coordination Sequence:
#
# PCOD9515652 Si02
#       7
#    32  32  32  16   8  32  32
#     4  11  22  38  60  92 132 176 208 262 326 393
#     4  11  23  39  63  94 129 170 215 268 328 391
#     4  10  21  44  67  88 122 170 219 274 332 390
#     4   9  22  39  65  84 125 168 214 266 333 378
#     4  10  24  32  56 100 122 172 224 252 312 400
#     4  11  21  39  60  89 134 171 210 266 324 389
#     4  10  24  41  65  97 132 165 219 273 329 397
#
# _framework density 21.072569000000001
#
# number of rings (size 3 to 8) (size 9 to 14) (size 15 to 20)
#    0.522    1.043    3.478    1.043    8.522    1.043 
#    0.000    2.609    3.826    0.000    0.000    0.000 
#    0.000    0.000    0.000    0.000    0.000    0.000 
#
# Total GULP energy -256105.308913 kJ/mol
# GULP energy per Si atom -5567.506716 kJ/mol
# Density = 2.102461 g / cm^3
# Si number density = 21.072569 Si / 1000 Ang^3
#
#
#
# Elastic Constant Matrix: (Units=GPa)
#
#
# Indices 1 2 3 4 5 6 
#
# 1 44.8174 -10.0660 19.1530 0.0000 0.0000 0.0000
# 2 -10.0660 34.4483 12.0543 0.0000 0.0000 0.0000
# 3 19.1530 12.0543 167.4413 0.0000 0.0000 0.0000
# 4 0.0000 0.0000 0.0000 64.5654 0.0000 0.0000
# 5 0.0000 0.0000 0.0000 0.0000 66.6014 0.0000
# 6 0.0000 0.0000 0.0000 0.0000 0.0000 28.8677
#
#
#
# Elastic Compliance Matrix: (Units=1/GPa)
#
#
# Indices 1 2 3 4 5 6 
#
# 1 0.025822 0.008801 -0.003587 0.000000 0.000000 0.000000
# 2 0.008801 0.032779 -0.003366 0.000000 0.000000 0.000000
# 3 -0.003587 -0.003366 0.006625 0.000000 0.000000 0.000000
# 4 0.000000 0.000000 0.000000 0.015488 0.000000 0.000000
# 5 0.000000 0.000000 0.000000 0.000000 0.015015 0.000000
# 6 0.000000 0.000000 0.000000 0.000000 0.000000 0.034641
#
#
# Mechanical properties :
#
#
# Convention : Reuss Voigt Hill
#
# Bulk Modulus (GPa) = 14.50958 32.10996 23.30977
# Shear Modulus (GPa) = 33.41149 47.04460 40.22805
#
# Velocity S-wave (km/s) = 3.98621 4.73006 4.37398
# Velocity P-wave (km/s) = 5.29971 6.71582 6.04935
#
# Compressibility (1/GPa) = 0.06891997
#
# Stress axis : x y z
#
# Youngs Moduli (GPa) = 38.72597 30.50771 150.94483
#
# Poissons Ratio (x) = -0.26849 0.54149
# Poissons Ratio (y) = -0.34082 0.50815
# Poissons Ratio (z) = 0.13892 0.10270
#
# Static dielectric constant tensor:
#      x y z
#    x 1.713890 0.000000 0.000000 
#    y 0.000000 1.774590 0.000000 
#    z 0.000000 0.000000 1.698590 
# 
# From -- ./inp_files/59583.got.cif
#   From: 2010.05.17/outbox.cif.g08.bks.cpg/sg70_30_cif.got.tgz:59583.got - 2010.06.03 15:57:51.
