data_PCOD9515980
_publ_section_title
;
Structure prediction by ZEFSAII (Michael W. Deem and Ramdas Pophale) SiO2 
 PCOD9515980
Probable space group: F D D D
;
_chemical_formula_sum "Si O2"
_cell_formula_units_Z 216
_cell_length_a 14.940149
_cell_length_b 22.776954
_cell_length_c 29.443733
_cell_angle_alpha 90.000000
_cell_angle_beta 90.000000
_cell_angle_gamma 90.000000
_cell_volume 10019.439894
_symmetry_space_group_name_H-M "F D D D"
_symmetry_group_IT_number 70
_space_group.IT_coordinate_system_code '2'
_symmetry_cell_setting 'orthorhombic'
loop_
_space_group_symop_operation_xyz
x,y,z
1/4-x,1/4-y,z
x,1/4-y,1/4-z
1/4-x,y,1/4-z
-x,-y,-z
3/4+x,3/4+y,-z
-x,3/4+y,3/4+z
3/4+x,-y,3/4+z
x,1/2+y,1/2+z
1/4-x,3/4-y,1/2+z
x,3/4-y,3/4-z
1/4-x,1/2+y,3/4-z
-x,1/2-y,1/2-z
3/4+x,1/4+y,1/2-z
-x,1/4+y,1/4+z
3/4+x,1/2-y,1/4+z
1/2+x,y,1/2+z
3/4-x,1/4-y,1/2+z
1/2+x,1/4-y,3/4-z
3/4-x,y,3/4-z
1/2-x,-y,1/2-z
1/4+x,3/4+y,1/2-z
1/2-x,3/4+y,1/4+z
1/4+x,-y,1/4+z
1/2+x,1/2+y,z
3/4-x,3/4-y,z
1/2+x,3/4-y,1/4-z
3/4-x,1/2+y,1/4-z
1/2-x,1/2-y,-z
1/4+x,1/4+y,-z
1/2-x,1/4+y,3/4+z
1/4+x,1/2-y,3/4+z
loop_
_atom_site_type_symbol
_atom_site_label
_atom_site_fract_x
_atom_site_fract_y
_atom_site_fract_z
Si Si1 0.875000 0.375000 0.495547
Si Si2 0.623639 0.557177 0.332890
Si Si3 0.225393 0.356911 0.825426
Si Si4 0.767401 0.376885 0.703460
Si Si5 0.980119 0.116441 0.559376
Si Si6 0.222919 0.759079 0.103056
Si Si7 0.375000 0.875000 0.875000
Si Si8 0.276839 0.015761 0.393577
O O1 0.884352 0.318994 0.529258
O O2 0.788565 0.369386 0.464022
O O3 0.625000 0.625000 0.350392
O O4 0.543897 0.523156 0.357115
O O5 0.713869 0.527293 0.350061
O O6 0.259299 0.375000 0.875000
O O7 0.123170 0.377509 0.820987
O O8 0.234148 0.286484 0.826860
O O9 0.875000 0.375000 0.700428
O O10 0.743641 0.373790 0.756436
O O11 0.731924 0.437065 0.681947
O O12 0.725607 0.323737 0.674554
O O13 0.052884 0.152187 0.589257
O O14 0.002923 0.049868 0.575326
O O15 0.125000 0.758487 0.125000
O O16 0.375000 0.001994 0.375000
#
# Coordination Sequence:
#
# PCOD9515980 Si02
#       8
#    16  32  32  32  32  32   8  32
#     4  10  25  46  69  98 134 177 234 283 340 420
#     4  10  22  44  68 102 143 174 230 294 343 421
#     4  12  26  50  72  97 139 187 232 289 356 418
#     4  12  23  43  67 104 143 180 235 289 338 424
#     4  12  26  43  70  99 142 183 233 282 347 416
#     4  12  23  42  72 101 142 187 229 284 359 407
#     4  12  24  52  58  98 136 194 216 276 346 418
#     4  12  24  44  73 101 138 183 229 290 357 407
#
# _framework density 21.55809
#
# number of rings (size 3 to 8) (size 9 to 14) (size 15 to 20)
#    0.444    0.000    6.667    2.000    4.148    0.000 
#    5.333    1.481    0.000    0.000    0.000    0.000 
#    0.000    0.000    0.000    0.000    0.000    0.000 
#
# Total GULP energy -301863.499201 kJ/mol
# GULP energy per Si atom -5590.064800 kJ/mol
# Density = 2.150902 g / cm^3
# Si number density = 21.558090 Si / 1000 Ang^3
#
#
#
# Elastic Constant Matrix: (Units=GPa)
#
#
# Indices 1 2 3 4 5 6 
#
# 1 175.4282 4.1255 58.3309 0.0000 0.0000 0.0000
# 2 4.1255 68.3584 10.2605 0.0000 0.0000 0.0000
# 3 58.3309 10.2605 171.6818 0.0000 0.0000 0.0000
# 4 0.0000 0.0000 0.0000 12.6070 0.0000 0.0000
# 5 0.0000 0.0000 0.0000 0.0000 33.3284 0.0000
# 6 0.0000 0.0000 0.0000 0.0000 0.0000 29.3117
#
#
#
# Elastic Compliance Matrix: (Units=1/GPa)
#
#
# Indices 1 2 3 4 5 6 
#
# 1 0.006427 -0.000061 -0.002180 0.000000 0.000000 0.000000
# 2 -0.000061 0.014762 -0.000862 0.000000 0.000000 0.000000
# 3 -0.002180 -0.000862 0.006617 0.000000 0.000000 0.000000
# 4 0.000000 0.000000 0.000000 0.079321 0.000000 0.000000
# 5 0.000000 0.000000 0.000000 0.000000 0.030004 0.000000
# 6 0.000000 0.000000 0.000000 0.000000 0.000000 0.034116
#
#
# Mechanical properties :
#
#
# Convention : Reuss Voigt Hill
#
# Bulk Modulus (GPa) = 46.29439 62.32249 54.30844
# Shear Modulus (GPa) = 27.07806 37.89951 32.48879
#
# Velocity S-wave (km/s) = 3.54793 4.19742 3.88627
# Velocity P-wave (km/s) = 6.18907 7.24313 6.73675
#
# Compressibility (1/GPa) = 0.02160089
#
# Stress axis : x y z
#
# Youngs Moduli (GPa) = 155.60357 67.74258 151.12891
#
# Poissons Ratio (x) = 0.00411 0.32944
# Poissons Ratio (y) = 0.00944 0.13022
# Poissons Ratio (z) = 0.33920 0.05837
#
# Static dielectric constant tensor:
#      x y z
#    x 1.759900 0.000000 0.000000 
#    y 0.000000 1.888000 0.000000 
#    z 0.000000 0.000000 1.758680 
# 
# From -- ./inp_files/58801.got.cif
#   From: 2010.05.17/outbox.cif.g08.bks.cpg/sg70_30_cif.got.tgz:58801.got - 2010.06.03 15:57:51.
