data_PCOD9515667
_publ_section_title
;
Structure prediction by ZEFSAII (Michael W. Deem and Ramdas Pophale) SiO2 
 PCOD9515667
Probable space group: F D D D
;
_chemical_formula_sum "Si O2"
_cell_formula_units_Z 160
_cell_length_a 25.535856
_cell_length_b 10.673168
_cell_length_c 25.762683
_cell_angle_alpha 90.000000
_cell_angle_beta 90.000000
_cell_angle_gamma 90.000000
_cell_volume 7021.580121
_symmetry_space_group_name_H-M "F D D D"
_symmetry_group_IT_number 70
_space_group.IT_coordinate_system_code '2'
_symmetry_cell_setting 'orthorhombic'
loop_
_space_group_symop_operation_xyz
x,y,z
1/4-x,1/4-y,z
x,1/4-y,1/4-z
1/4-x,y,1/4-z
-x,-y,-z
3/4+x,3/4+y,-z
-x,3/4+y,3/4+z
3/4+x,-y,3/4+z
x,1/2+y,1/2+z
1/4-x,3/4-y,1/2+z
x,3/4-y,3/4-z
1/4-x,1/2+y,3/4-z
-x,1/2-y,1/2-z
3/4+x,1/4+y,1/2-z
-x,1/4+y,1/4+z
3/4+x,1/2-y,1/4+z
1/2+x,y,1/2+z
3/4-x,1/4-y,1/2+z
1/2+x,1/4-y,3/4-z
3/4-x,y,3/4-z
1/2-x,-y,1/2-z
1/4+x,3/4+y,1/2-z
1/2-x,3/4+y,1/4+z
1/4+x,-y,1/4+z
1/2+x,1/2+y,z
3/4-x,3/4-y,z
1/2+x,3/4-y,1/4-z
3/4-x,1/2+y,1/4-z
1/2-x,1/2-y,-z
1/4+x,1/4+y,-z
1/2-x,1/4+y,3/4+z
1/4+x,1/2-y,3/4+z
loop_
_atom_site_type_symbol
_atom_site_label
_atom_site_fract_x
_atom_site_fract_y
_atom_site_fract_z
Si Si1 0.976592 0.957719 0.074956
Si Si2 0.759277 0.801386 0.775451
Si Si3 0.314709 0.125000 0.625000
Si Si4 0.125000 0.625000 0.366309
Si Si5 0.181430 0.868612 0.099391
Si Si6 0.978376 0.351316 0.790689
O O1 0.923785 0.932642 0.104250
O O2 0.024888 0.898470 0.106995
O O3 0.969618 0.892203 0.019131
O O4 0.986057 0.104318 0.066937
O O5 0.802764 0.714408 0.802918
O O6 0.714810 0.715828 0.747578
O O7 0.347075 0.241623 0.600165
O O8 0.274723 0.153981 0.672446
O O9 0.125000 0.886439 0.125000
O O10 0.188945 0.728145 0.076313
O O11 0.000000 0.250000 0.750000
#
# Coordination Sequence:
#
# PCOD9515667 Si02
#       6
#    32  32  16  16  32  32
#     4  11  24  44  69 103 143 197 242 313 379 449
#     4  10  23  43  70 104 147 180 256 309 372 446
#     4  12  24  46  73 108 145 192 248 312 368 450
#     4  12  26  42  78 100 147 195 250 306 376 448
#     4  11  24  45  75 106 149 201 247 315 384 462
#     4  10  21  45  71 101 145 188 242 312 367 453
#
# _framework density 22.786894
#
# number of rings (size 3 to 8) (size 9 to 14) (size 15 to 20)
#    0.000    1.200    4.000    0.600    2.800    4.800 
#    0.000    4.500   13.200    1.200    0.000    0.000 
#    0.000    0.000    0.000    0.000    0.000    0.000 
#
# Total GULP energy -222910.871667 kJ/mol
# GULP energy per Si atom -5572.771792 kJ/mol
# Density = 2.273503 g / cm^3
# Si number density = 22.786894 Si / 1000 Ang^3
#
#
#
# Elastic Constant Matrix: (Units=GPa)
#
#
# Indices 1 2 3 4 5 6 
#
# 1 123.2369 31.6388 42.7917 0.0000 0.0000 0.0000
# 2 31.6388 143.7612 35.3998 0.0000 0.0000 0.0000
# 3 42.7917 35.3998 99.5521 0.0000 0.0000 0.0000
# 4 0.0000 0.0000 0.0000 54.9449 0.0000 0.0000
# 5 0.0000 0.0000 0.0000 0.0000 -10.9319 0.0000
# 6 0.0000 0.0000 0.0000 0.0000 0.0000 32.3504
#
#
#
# Elastic Compliance Matrix: (Units=1/GPa)
#
#
# Indices 1 2 3 4 5 6 
#
# 1 0.009729 -0.001218 -0.003749 0.000000 0.000000 0.000000
# 2 -0.001218 0.007776 -0.002242 0.000000 0.000000 0.000000
# 3 -0.003749 -0.002242 0.012453 0.000000 0.000000 0.000000
# 4 0.000000 0.000000 0.000000 0.018200 0.000000 0.000000
# 5 0.000000 0.000000 0.000000 0.000000 -0.091476 0.000000
# 6 0.000000 0.000000 0.000000 0.000000 0.000000 0.030911
#
#
# Mechanical properties :
#
#
# Convention : Reuss Voigt Hill
#
# Bulk Modulus (GPa) = 64.34306 65.13452 64.73879
# Shear Modulus (GPa) = 695.27922 32.38736 363.83329
#
# Velocity S-wave (km/s) = 17.48670 3.77412 12.64968
# Velocity P-wave (km/s) = 20.88088 6.90205 15.55072
#
# Compressibility (1/GPa) = 0.01554169
#
# Stress axis : x y z
#
# Youngs Moduli (GPa) = 102.78720 128.60099 80.29920
#
# Poissons Ratio (x) = 0.15664 0.30102
# Poissons Ratio (y) = 0.12520 0.17999
# Poissons Ratio (z) = 0.38532 0.28826
#
# Static dielectric constant tensor:
#      x y z
#    x 1.745900 0.000000 0.000000 
#    y 0.000000 1.987710 0.000000 
#    z 0.000000 0.000000 1.884730 
# 
# From -- ./inp_files/61639.got.cif
#   From: 2010.05.17/outbox.cif.g08.bks.cpg/sg70_31_cif.got.tgz:61639.got - 2010.06.03 15:57:51.
