data_PCOD9515725
_publ_section_title
;
Structure prediction by ZEFSAII (Michael W. Deem and Ramdas Pophale) SiO2 
 PCOD9515725
Probable space group: F D D D
;
_chemical_formula_sum "Si O2"
_cell_formula_units_Z 208
_cell_length_a 26.941092
_cell_length_b 23.098741
_cell_length_c 14.706407
_cell_angle_alpha 90.000000
_cell_angle_beta 90.000000
_cell_angle_gamma 90.000000
_cell_volume 9151.875114
_symmetry_space_group_name_H-M "F D D D"
_symmetry_group_IT_number 70
_space_group.IT_coordinate_system_code '2'
_symmetry_cell_setting 'orthorhombic'
loop_
_space_group_symop_operation_xyz
x,y,z
1/4-x,1/4-y,z
x,1/4-y,1/4-z
1/4-x,y,1/4-z
-x,-y,-z
3/4+x,3/4+y,-z
-x,3/4+y,3/4+z
3/4+x,-y,3/4+z
x,1/2+y,1/2+z
1/4-x,3/4-y,1/2+z
x,3/4-y,3/4-z
1/4-x,1/2+y,3/4-z
-x,1/2-y,1/2-z
3/4+x,1/4+y,1/2-z
-x,1/4+y,1/4+z
3/4+x,1/2-y,1/4+z
1/2+x,y,1/2+z
3/4-x,1/4-y,1/2+z
1/2+x,1/4-y,3/4-z
3/4-x,y,3/4-z
1/2-x,-y,1/2-z
1/4+x,3/4+y,1/2-z
1/2-x,3/4+y,1/4+z
1/4+x,-y,1/4+z
1/2+x,1/2+y,z
3/4-x,3/4-y,z
1/2+x,3/4-y,1/4-z
3/4-x,1/2+y,1/4-z
1/2-x,1/2-y,-z
1/4+x,1/4+y,-z
1/2-x,1/4+y,3/4+z
1/4+x,1/2-y,3/4+z
loop_
_atom_site_type_symbol
_atom_site_label
_atom_site_fract_x
_atom_site_fract_y
_atom_site_fract_z
Si Si1 0.020747 0.858280 0.087093
Si Si2 0.616343 0.348360 0.726626
Si Si3 0.741197 0.764645 0.163683
Si Si4 0.462227 0.998940 0.133879
Si Si5 0.150579 0.009129 0.353300
Si Si6 0.948026 0.625000 0.125000
Si Si7 0.694102 0.085449 0.705241
O O1 0.018864 0.918284 0.142228
O O2 0.999165 0.803136 0.139825
O O3 0.075777 0.852622 0.046188
O O4 0.984939 0.874623 0.003830
O O5 0.625000 0.323093 0.625000
O O6 0.595376 0.298765 0.792173
O O7 0.662256 0.370937 0.786072
O O8 0.713693 0.749051 0.256151
O O9 0.801056 0.759573 0.167097
O O10 0.720628 0.721459 0.086845
O O11 0.404802 0.989703 0.105717
O O12 0.477053 0.065019 0.113115
O O13 0.157285 0.062137 0.282520
O O14 0.674483 0.125000 0.625000
#
# Coordination Sequence:
#
# PCOD9515725 Si02
#       7
#    32  32  32  32  32  16  32
#     4  11  21  37  61  92 123 176 217 268 330 418
#     4  11  22  40  68  92 129 174 229 277 335 399
#     4  11  21  40  58  91 138 171 213 272 330 406
#     4  11  25  40  63  94 129 173 232 280 335 384
#     4  10  22  38  58  90 136 177 219 263 337 425
#     4  10  26  42  64  96 135 171 232 296 326 400
#     4  11  20  32  53  91 134 173 206 250 341 420
#
# _framework density 22.727584
#
# number of rings (size 3 to 8) (size 9 to 14) (size 15 to 20)
#    0.000    1.231    4.615    2.769    5.385    2.462 
#    2.769    3.077    0.000    0.000    0.000    0.000 
#    0.000    0.000    0.000    0.000    0.000    0.000 
#
# Total GULP energy -290465.044472 kJ/mol
# GULP energy per Si atom -5585.866240 kJ/mol
# Density = 2.267585 g / cm^3
# Si number density = 22.727584 Si / 1000 Ang^3
#
#
#
# Elastic Constant Matrix: (Units=GPa)
#
#
# Indices 1 2 3 4 5 6 
#
# 1 89.3557 30.4569 -2.4805 0.0000 0.0000 0.0000
# 2 30.4569 147.8871 -9.6526 0.0000 0.0000 0.0000
# 3 -2.4805 -9.6526 34.3276 0.0000 0.0000 0.0000
# 4 0.0000 0.0000 0.0000 33.0247 0.0000 0.0000
# 5 0.0000 0.0000 0.0000 0.0000 16.2896 0.0000
# 6 0.0000 0.0000 0.0000 0.0000 0.0000 25.1768
#
#
#
# Elastic Compliance Matrix: (Units=1/GPa)
#
#
# Indices 1 2 3 4 5 6 
#
# 1 0.012037 -0.002468 0.000176 0.000000 0.000000 0.000000
# 2 -0.002468 0.007394 0.001901 0.000000 0.000000 0.000000
# 3 0.000176 0.001901 0.029678 0.000000 0.000000 0.000000
# 4 0.000000 0.000000 0.000000 0.030280 0.000000 0.000000
# 5 0.000000 0.000000 0.000000 0.000000 0.061389 0.000000
# 6 0.000000 0.000000 0.000000 0.000000 0.000000 0.039719
#
#
# Mechanical properties :
#
#
# Convention : Reuss Voigt Hill
#
# Bulk Modulus (GPa) = 20.69184 34.24645 27.46914
# Shear Modulus (GPa) = 25.33069 31.78131 28.55600
#
# Velocity S-wave (km/s) = 3.34209 3.74352 3.54848
# Velocity P-wave (km/s) = 4.90069 5.81259 5.37601
#
# Compressibility (1/GPa) = 0.04832823
#
# Stress axis : x y z
#
# Youngs Moduli (GPa) = 83.07603 135.24168 33.69463
#
# Poissons Ratio (x) = 0.33371 -0.00593
# Poissons Ratio (y) = 0.20499 -0.06405
# Poissons Ratio (z) = -0.01462 -0.25708
#
# Static dielectric constant tensor:
#      x y z
#    x 1.904900 0.000000 0.000000 
#    y 0.000000 1.914170 0.000000 
#    z 0.000000 0.000000 2.124960 
# 
# From -- ./inp_files/39940.got.cif
#   From: 2010.05.17/outbox.cif.g08.bks.cpg/sg70_20_cif.got.tgz:39940.got - 2010.06.03 15:57:51.
