data_PCOD9515392
_publ_section_title
;
Structure prediction by ZEFSAII (Michael W. Deem and Ramdas Pophale) SiO2 
 PCOD9515392
Probable space group: F D D D
;
_chemical_formula_sum "Si O2"
_cell_formula_units_Z 80
_cell_length_a 17.193507
_cell_length_b 24.619739
_cell_length_c 8.267858
_cell_angle_alpha 90.000000
_cell_angle_beta 90.000000
_cell_angle_gamma 90.000000
_cell_volume 3499.781438
_symmetry_space_group_name_H-M "F D D D"
_symmetry_group_IT_number 70
_space_group.IT_coordinate_system_code '2'
_symmetry_cell_setting 'orthorhombic'
loop_
_space_group_symop_operation_xyz
x,y,z
1/4-x,1/4-y,z
x,1/4-y,1/4-z
1/4-x,y,1/4-z
-x,-y,-z
3/4+x,3/4+y,-z
-x,3/4+y,3/4+z
3/4+x,-y,3/4+z
x,1/2+y,1/2+z
1/4-x,3/4-y,1/2+z
x,3/4-y,3/4-z
1/4-x,1/2+y,3/4-z
-x,1/2-y,1/2-z
3/4+x,1/4+y,1/2-z
-x,1/4+y,1/4+z
3/4+x,1/2-y,1/4+z
1/2+x,y,1/2+z
3/4-x,1/4-y,1/2+z
1/2+x,1/4-y,3/4-z
3/4-x,y,3/4-z
1/2-x,-y,1/2-z
1/4+x,3/4+y,1/2-z
1/2-x,3/4+y,1/4+z
1/4+x,-y,1/4+z
1/2+x,1/2+y,z
3/4-x,3/4-y,z
1/2+x,3/4-y,1/4-z
3/4-x,1/2+y,1/4-z
1/2-x,1/2-y,-z
1/4+x,1/4+y,-z
1/2-x,1/4+y,3/4+z
1/4+x,1/2-y,3/4+z
loop_
_atom_site_type_symbol
_atom_site_label
_atom_site_fract_x
_atom_site_fract_y
_atom_site_fract_z
Si Si1 0.557148 0.666851 0.823373
Si Si2 0.344576 0.712399 0.062374
Si Si3 0.789147 0.125000 0.625000
O O1 0.625000 0.625000 0.782540
O O2 0.490902 0.684734 0.693231
O O3 0.591171 0.725886 0.870073
O O4 0.512438 0.640434 0.973068
O O5 0.403882 0.675383 0.160058
O O6 0.375000 0.713233 0.875000
#
# Coordination Sequence:
#
# PCOD9515392 Si02
#       3
#    32  32  16
#     4  10  21  38  63  89 117 158 203 243 295 354
#     4   9  21  39  59  87 122 158 196 241 299 361
#     4  10  21  40  61  90 122 152 198 254 299 342
#
# _framework density 22.85857
#
# number of rings (size 3 to 8) (size 9 to 14) (size 15 to 20)
#    0.000    2.400    0.000    0.600    0.000   12.000 
#    0.000    8.000    0.000    0.000    0.000    0.000 
#    0.000    0.000    0.000    0.000    0.000    0.000 
#
# Total GULP energy -111850.566972 kJ/mol
# GULP energy per Si atom -5592.528349 kJ/mol
# Density = 2.280654 g / cm^3
# Si number density = 22.858570 Si / 1000 Ang^3
#
#
#
# Elastic Constant Matrix: (Units=GPa)
#
#
# Indices 1 2 3 4 5 6 
#
# 1 167.9747 126.1399 42.4320 0.0000 0.0000 0.0000
# 2 126.1399 244.8815 61.1493 0.0000 0.0000 0.0000
# 3 42.4320 61.1493 52.0537 0.0000 0.0000 0.0000
# 4 0.0000 0.0000 0.0000 38.3362 0.0000 0.0000
# 5 0.0000 0.0000 0.0000 0.0000 1.2390 0.0000
# 6 0.0000 0.0000 0.0000 0.0000 0.0000 61.8133
#
#
#
# Elastic Compliance Matrix: (Units=1/GPa)
#
#
# Indices 1 2 3 4 5 6 
#
# 1 0.010025 -0.004420 -0.002980 0.000000 0.000000 0.000000
# 2 -0.004420 0.007727 -0.005475 0.000000 0.000000 0.000000
# 3 -0.002980 -0.005475 0.028071 0.000000 0.000000 0.000000
# 4 0.000000 0.000000 0.000000 0.026085 0.000000 0.000000
# 5 0.000000 0.000000 0.000000 0.000000 0.807087 0.000000
# 6 0.000000 0.000000 0.000000 0.000000 0.000000 0.016178
#
#
# Mechanical properties :
#
#
# Convention : Reuss Voigt Hill
#
# Bulk Modulus (GPa) = 49.81343 102.70583 76.25963
# Shear Modulus (GPa) = 5.39017 35.95696 20.67356
#
# Velocity S-wave (km/s) = 1.53726 3.97043 3.01061
# Velocity P-wave (km/s) = 4.99902 8.12697 6.74677
#
# Compressibility (1/GPa) = 0.02007491
#
# Stress axis : x y z
#
# Youngs Moduli (GPa) = 99.74944 129.40918 35.62347
#
# Poissons Ratio (x) = 0.57198 0.10615
# Poissons Ratio (y) = 0.44088 0.19503
# Poissons Ratio (z) = 0.29724 0.70848
#
# Static dielectric constant tensor:
#      x y z
#    x 1.896350 0.000000 0.000000 
#    y 0.000000 1.849050 0.000000 
#    z 0.000000 0.000000 1.852820 
# 
# From -- ./inp_files/6859.got.cif
#   From: 2010.05.17/outbox.cif.g08.bks.cpg/sg70_4_cif.got.tgz:6859.got - 2010.06.03 15:57:51.
