data_PCOD9515591
_publ_section_title
;
Structure prediction by ZEFSAII (Michael W. Deem and Ramdas Pophale) SiO2 
 PCOD9515591
Probable space group: F D D D
;
_chemical_formula_sum "Si O2"
_cell_formula_units_Z 192
_cell_length_a 13.224609
_cell_length_b 24.723102
_cell_length_c 26.448988
_cell_angle_alpha 90.000000
_cell_angle_beta 90.000000
_cell_angle_gamma 90.000000
_cell_volume 8647.585422
_symmetry_space_group_name_H-M "F D D D"
_symmetry_group_IT_number 70
_space_group.IT_coordinate_system_code '2'
_symmetry_cell_setting 'orthorhombic'
loop_
_space_group_symop_operation_xyz
x,y,z
1/4-x,1/4-y,z
x,1/4-y,1/4-z
1/4-x,y,1/4-z
-x,-y,-z
3/4+x,3/4+y,-z
-x,3/4+y,3/4+z
3/4+x,-y,3/4+z
x,1/2+y,1/2+z
1/4-x,3/4-y,1/2+z
x,3/4-y,3/4-z
1/4-x,1/2+y,3/4-z
-x,1/2-y,1/2-z
3/4+x,1/4+y,1/2-z
-x,1/4+y,1/4+z
3/4+x,1/2-y,1/4+z
1/2+x,y,1/2+z
3/4-x,1/4-y,1/2+z
1/2+x,1/4-y,3/4-z
3/4-x,y,3/4-z
1/2-x,-y,1/2-z
1/4+x,3/4+y,1/2-z
1/2-x,3/4+y,1/4+z
1/4+x,-y,1/4+z
1/2+x,1/2+y,z
3/4-x,3/4-y,z
1/2+x,3/4-y,1/4-z
3/4-x,1/2+y,1/4-z
1/2-x,1/2-y,-z
1/4+x,1/4+y,-z
1/2-x,1/4+y,3/4+z
1/4+x,1/2-y,3/4+z
loop_
_atom_site_type_symbol
_atom_site_label
_atom_site_fract_x
_atom_site_fract_y
_atom_site_fract_z
Si Si1 0.630977 0.243120 0.683561
Si Si2 0.875000 0.875000 0.776298
Si Si3 0.292524 0.065489 0.786132
Si Si4 0.609274 0.748467 0.446341
Si Si5 0.079861 0.838352 0.741006
Si Si6 0.917427 0.684317 0.101446
Si Si7 0.625000 0.511463 0.625000
O O1 0.625000 0.255146 0.625000
O O2 0.615540 0.179628 0.691800
O O3 0.741360 0.255459 0.707121
O O4 0.555910 0.284046 0.710827
O O5 0.770795 0.875192 0.745381
O O6 0.333133 0.041520 0.732687
O O7 0.336037 0.125541 0.787356
O O8 0.337542 0.027193 0.829913
O O9 0.172945 0.055822 0.793035
O O10 0.616512 0.772159 0.389384
O O11 0.120987 0.820703 0.795905
O O12 0.904656 0.625000 0.125000
O O13 0.034558 0.701902 0.103378
#
# Coordination Sequence:
#
# PCOD9515591 Si02
#       7
#    32  16  32  32  32  32  16
#     4  12  26  46  69 102 134 180 236 285 350 417
#     4  12  25  48  70  96 132 190 228 296 329 406
#     4  10  21  42  66  97 136 179 220 276 352 409
#     4  10  21  42  68  96 133 181 223 281 345 407
#     4  12  26  44  70 101 139 177 238 283 350 408
#     4  11  20  39  65 102 132 178 231 279 330 415
#     4  10  23  36  66  96 144 175 218 278 352 402
#
# _framework density 22.202729999999999
#
# number of rings (size 3 to 8) (size 9 to 14) (size 15 to 20)
#    0.000    1.000    3.333    3.000    1.167    0.667 
#    6.000    0.000    0.000    0.000    0.000    0.000 
#    0.000    0.000    0.000    0.000    0.000    0.000 
#
# Total GULP energy -268368.948988 kJ/mol
# GULP energy per Si atom -5591.019771 kJ/mol
# Density = 2.215220 g / cm^3
# Si number density = 22.202730 Si / 1000 Ang^3
#
#
#
# Elastic Constant Matrix: (Units=GPa)
#
#
# Indices 1 2 3 4 5 6 
#
# 1 71.3458 8.3532 -1.1712 0.0000 0.0000 0.0000
# 2 8.3532 99.9829 50.4598 0.0000 0.0000 0.0000
# 3 -1.1712 50.4598 70.4148 0.0000 0.0000 0.0000
# 4 0.0000 0.0000 0.0000 23.8073 0.0000 0.0000
# 5 0.0000 0.0000 0.0000 0.0000 19.3703 0.0000
# 6 0.0000 0.0000 0.0000 0.0000 0.0000 28.6925
#
#
#
# Elastic Compliance Matrix: (Units=1/GPa)
#
#
# Indices 1 2 3 4 5 6 
#
# 1 0.014285 -0.002058 0.001712 0.000000 0.000000 0.000000
# 2 -0.002058 0.015965 -0.011475 0.000000 0.000000 0.000000
# 3 0.001712 -0.011475 0.022453 0.000000 0.000000 0.000000
# 4 0.000000 0.000000 0.000000 0.042004 0.000000 0.000000
# 5 0.000000 0.000000 0.000000 0.000000 0.051625 0.000000
# 6 0.000000 0.000000 0.000000 0.000000 0.000000 0.034852
#
#
# Mechanical properties :
#
#
# Convention : Reuss Voigt Hill
#
# Bulk Modulus (GPa) = 34.40857 39.66969 37.03913
# Shear Modulus (GPa) = 23.30869 26.64747 24.97808
#
# Velocity S-wave (km/s) = 3.24360 3.46813 3.35774
# Velocity P-wave (km/s) = 5.43682 5.82607 5.63480
#
# Compressibility (1/GPa) = 0.02906253
#
# Stress axis : x y z
#
# Youngs Moduli (GPa) = 70.00232 62.63823 44.53774
#
# Poissons Ratio (x) = 0.12888 -0.07625
# Poissons Ratio (y) = 0.14403 0.51106
# Poissons Ratio (z) = -0.11985 0.71875
#
# Static dielectric constant tensor:
#      x y z
#    x 1.878660 0.000000 0.000000 
#    y 0.000000 1.811730 0.000000 
#    z 0.000000 0.000000 1.798760 
# 
# From -- ./inp_files/58655.got.cif
#   From: 2010.05.17/outbox.cif.g08.bks.cpg/sg70_30_cif.got.tgz:58655.got - 2010.06.03 15:57:51.
