data_PCOD9515351
_publ_section_title
;
Structure prediction by ZEFSAII (Michael W. Deem and Ramdas Pophale) SiO2 
 PCOD9515351
Probable space group: F D D D
;
_chemical_formula_sum "Si O2"
_cell_formula_units_Z 136
_cell_length_a 9.831372
_cell_length_b 25.221386
_cell_length_c 27.442661
_cell_angle_alpha 90.000000
_cell_angle_beta 90.000000
_cell_angle_gamma 90.000000
_cell_volume 6804.704947
_symmetry_space_group_name_H-M "F D D D"
_symmetry_group_IT_number 70
_space_group.IT_coordinate_system_code '2'
_symmetry_cell_setting 'orthorhombic'
loop_
_space_group_symop_operation_xyz
x,y,z
1/4-x,1/4-y,z
x,1/4-y,1/4-z
1/4-x,y,1/4-z
-x,-y,-z
3/4+x,3/4+y,-z
-x,3/4+y,3/4+z
3/4+x,-y,3/4+z
x,1/2+y,1/2+z
1/4-x,3/4-y,1/2+z
x,3/4-y,3/4-z
1/4-x,1/2+y,3/4-z
-x,1/2-y,1/2-z
3/4+x,1/4+y,1/2-z
-x,1/4+y,1/4+z
3/4+x,1/2-y,1/4+z
1/2+x,y,1/2+z
3/4-x,1/4-y,1/2+z
1/2+x,1/4-y,3/4-z
3/4-x,y,3/4-z
1/2-x,-y,1/2-z
1/4+x,3/4+y,1/2-z
1/2-x,3/4+y,1/4+z
1/4+x,-y,1/4+z
1/2+x,1/2+y,z
3/4-x,3/4-y,z
1/2+x,3/4-y,1/4-z
3/4-x,1/2+y,1/4-z
1/2-x,1/2-y,-z
1/4+x,1/4+y,-z
1/2-x,1/4+y,3/4+z
1/4+x,1/2-y,3/4+z
loop_
_atom_site_type_symbol
_atom_site_label
_atom_site_fract_x
_atom_site_fract_y
_atom_site_fract_z
Si Si1 0.968367 0.139783 0.299695
Si Si2 0.875000 0.198022 0.875000
Si Si3 0.591471 0.784705 0.860352
Si Si4 0.375000 0.375000 0.875000
Si Si5 0.625000 0.771033 0.125000
Si Si6 0.874369 0.106770 0.058200
O O1 0.918014 0.090287 0.331269
O O2 0.940297 0.191340 0.333236
O O3 0.890803 0.147441 0.248893
O O4 0.125000 0.125000 0.289174
O O5 0.754597 0.234682 0.895039
O O6 0.747358 0.763612 0.855999
O O7 0.549598 0.809499 0.913396
O O8 0.574191 0.834815 0.824240
O O9 0.480596 0.399296 0.913934
#
# Coordination Sequence:
#
# PCOD9515351 Si02
#       6
#    32  16  32   8  16  32
#     4  11  23  40  62  93 124 168 211 263 306 375
#     4  11  24  43  61  88 136 169 205 251 322 372
#     4  10  22  41  63  93 124 166 199 265 311 374
#     4   8  14  32  58  86 120 144 194 262 294 346
#     4  11  23  39  62  90 122 165 214 255 313 362
#     4  10  21  37  64  93 125 157 211 262 313 368
#
# _framework density 19.986172
#
# number of rings (size 3 to 8) (size 9 to 14) (size 15 to 20)
#    0.000    1.882    3.529    2.824    0.000    5.647 
#    0.000    2.353    0.000    0.000    0.000    0.000 
#    0.000    0.000    0.000    0.000    0.000    0.000 
#
# Total GULP energy -189383.236726 kJ/mol
# GULP energy per Si atom -5570.095198 kJ/mol
# Density = 1.994068 g / cm^3
# Si number density = 19.986172 Si / 1000 Ang^3
#
#
#
# Elastic Constant Matrix: (Units=GPa)
#
#
# Indices 1 2 3 4 5 6 
#
# 1 31.9950 2.3022 -18.5109 0.0000 0.0000 0.0000
# 2 2.3022 85.1071 10.5048 0.0000 0.0000 0.0000
# 3 -18.5109 10.5048 107.9917 0.0000 0.0000 0.0000
# 4 0.0000 0.0000 0.0000 7.7240 0.0000 0.0000
# 5 0.0000 0.0000 0.0000 0.0000 6.9249 0.0000
# 6 0.0000 0.0000 0.0000 0.0000 0.0000 -2.8955
#
#
#
# Elastic Compliance Matrix: (Units=1/GPa)
#
#
# Indices 1 2 3 4 5 6 
#
# 1 0.034938 -0.001705 0.006155 0.000000 0.000000 0.000000
# 2 -0.001705 0.011976 -0.001457 0.000000 0.000000 0.000000
# 3 0.006155 -0.001457 0.010457 0.000000 0.000000 0.000000
# 4 0.000000 0.000000 0.000000 0.129466 0.000000 0.000000
# 5 0.000000 0.000000 0.000000 0.000000 0.144407 0.000000
# 6 0.000000 0.000000 0.000000 0.000000 0.000000 -0.345364
#
#
# Mechanical properties :
#
#
# Convention : Reuss Voigt Hill
#
# Bulk Modulus (GPa) = 15.78375 23.74289 19.76332
# Shear Modulus (GPa) = 4934.59524 17.73720 2476.16622
#
# Velocity S-wave (km/s) = 49.74299 2.98228 35.23676
# Velocity P-wave (km/s) = 57.50711 4.87485 40.80951
#
# Compressibility (1/GPa) = 0.06335630
#
# Stress axis : x y z
#
# Youngs Moduli (GPa) = 28.62184 83.50124 95.63269
#
# Poissons Ratio (x) = 0.14235 -0.58858
# Poissons Ratio (y) = 0.04879 0.13935
# Poissons Ratio (z) = -0.17616 0.12167
#
# Static dielectric constant tensor:
#      x y z
#    x 1.772390 0.000000 0.000000 
#    y 0.000000 1.766990 0.000000 
#    z 0.000000 0.000000 1.694490 
# 
# From -- ./inp_files/64656.got.cif
#   From: 2010.05.17/outbox.cif.g08.bks.cpg/sg70_33_cif.got.tgz:64656.got - 2010.06.03 15:57:51.
