data_PCOD9515669
_publ_section_title
;
Structure prediction by ZEFSAII (Michael W. Deem and Ramdas Pophale) SiO2 
 PCOD9515669
Probable space group: F D D D
;
_chemical_formula_sum "Si O2"
_cell_formula_units_Z 104
_cell_length_a 20.104135
_cell_length_b 28.753603
_cell_length_c 8.540172
_cell_angle_alpha 90.000000
_cell_angle_beta 90.000000
_cell_angle_gamma 90.000000
_cell_volume 4936.785770
_symmetry_space_group_name_H-M "F D D D"
_symmetry_group_IT_number 70
_space_group.IT_coordinate_system_code '2'
_symmetry_cell_setting 'orthorhombic'
loop_
_space_group_symop_operation_xyz
x,y,z
1/4-x,1/4-y,z
x,1/4-y,1/4-z
1/4-x,y,1/4-z
-x,-y,-z
3/4+x,3/4+y,-z
-x,3/4+y,3/4+z
3/4+x,-y,3/4+z
x,1/2+y,1/2+z
1/4-x,3/4-y,1/2+z
x,3/4-y,3/4-z
1/4-x,1/2+y,3/4-z
-x,1/2-y,1/2-z
3/4+x,1/4+y,1/2-z
-x,1/4+y,1/4+z
3/4+x,1/2-y,1/4+z
1/2+x,y,1/2+z
3/4-x,1/4-y,1/2+z
1/2+x,1/4-y,3/4-z
3/4-x,y,3/4-z
1/2-x,-y,1/2-z
1/4+x,3/4+y,1/2-z
1/2-x,3/4+y,1/4+z
1/4+x,-y,1/4+z
1/2+x,1/2+y,z
3/4-x,3/4-y,z
1/2+x,3/4-y,1/4-z
3/4-x,1/2+y,1/4-z
1/2-x,1/2-y,-z
1/4+x,1/4+y,-z
1/2-x,1/4+y,3/4+z
1/4+x,1/2-y,3/4+z
loop_
_atom_site_type_symbol
_atom_site_label
_atom_site_fract_x
_atom_site_fract_y
_atom_site_fract_z
Si Si1 0.954453 0.492476 0.344635
Si Si2 0.443203 0.592869 0.778313
Si Si3 0.442796 0.899763 0.164254
Si Si4 0.125000 0.125000 0.625000
O O1 0.875000 0.489096 0.375000
O O2 0.961757 0.539441 0.243299
O O3 0.968136 0.444557 0.254593
O O4 0.000000 0.500000 0.500000
O O5 0.438184 0.625000 0.625000
O O6 0.375000 0.593281 0.875000
O O7 0.499211 0.612632 0.894913
O O8 0.375000 0.875000 0.222749
O O9 0.419490 0.907788 0.984434
#
# Coordination Sequence:
#
# PCOD9515669 Si02
#       4
#    32  32  32   8
#     4  11  26  42  68 104 139 185 239 284 359 427
#     4  11  25  44  64 103 141 178 223 290 361 416
#     4  10  21  45  73  96 136 183 242 291 340 423
#     4   8  20  44  70 100 132 172 248 292 340 396
#
# _framework density 21.066338999999999
#
# number of rings (size 3 to 8) (size 9 to 14) (size 15 to 20)
#    0.923    0.615    1.538    1.846    8.615    4.308 
#    2.769    0.000    0.000    0.000    0.000    0.000 
#    0.000    0.000    0.000    0.000    0.000    0.000 
#
# Total GULP energy -144878.257453 kJ/mol
# GULP energy per Si atom -5572.240671 kJ/mol
# Density = 2.101839 g / cm^3
# Si number density = 21.066339 Si / 1000 Ang^3
#
#
#
# Elastic Constant Matrix: (Units=GPa)
#
#
# Indices 1 2 3 4 5 6 
#
# 1 124.3564 24.2891 21.3111 0.0000 0.0000 0.0000
# 2 24.2891 166.2212 54.0027 0.0000 -0.0001 0.0000
# 3 21.3111 54.0027 105.2288 0.0001 0.0000 0.0000
# 4 0.0000 0.0000 0.0001 48.7602 0.0000 0.0000
# 5 0.0000 -0.0001 0.0000 0.0000 25.2601 0.0000
# 6 0.0000 0.0000 0.0000 0.0000 0.0000 30.1945
#
#
#
# Elastic Compliance Matrix: (Units=1/GPa)
#
#
# Indices 1 2 3 4 5 6 
#
# 1 0.008421 -0.000812 -0.001289 0.000000 0.000000 0.000000
# 2 -0.000812 0.007298 -0.003581 0.000000 0.000000 0.000000
# 3 -0.001289 -0.003581 0.011602 0.000000 0.000000 0.000000
# 4 0.000000 0.000000 0.000000 0.020509 0.000000 0.000000
# 5 0.000000 0.000000 0.000000 0.000000 0.039588 0.000000
# 6 0.000000 0.000000 0.000000 0.000000 0.000000 0.033119
#
#
# Mechanical properties :
#
#
# Convention : Reuss Voigt Hill
#
# Bulk Modulus (GPa) = 62.66559 66.11245 64.38902
# Shear Modulus (GPa) = 36.43829 40.58986 38.51407
#
# Velocity S-wave (km/s) = 4.16347 4.39425 4.28042
# Velocity P-wave (km/s) = 7.27489 7.56287 7.42028
#
# Compressibility (1/GPa) = 0.01595772
#
# Stress axis : x y z
#
# Youngs Moduli (GPa) = 118.75326 137.02215 86.19335
#
# Poissons Ratio (x) = 0.11123 0.11109
# Poissons Ratio (y) = 0.09640 0.30865
# Poissons Ratio (z) = 0.15305 0.49067
#
# Static dielectric constant tensor:
#      x y z
#    x 1.758020 0.000000 0.000000 
#    y 0.000000 1.757350 0.000000 
#    z 0.000000 0.000000 1.841780 
# 
# From -- ./inp_files/8181.got.cif
#   From: 2010.05.17/outbox.cif.g08.bks.cpg/sg70_5_cif.got.tgz:8181.got - 2010.06.03 15:57:51.
