data_PCOD9515328
_publ_section_title
;
Structure prediction by ZEFSAII (Michael W. Deem and Ramdas Pophale) SiO2 
 PCOD9515328
Probable space group: F D D D
;
_chemical_formula_sum "Si O2"
_cell_formula_units_Z 176
_cell_length_a 14.735306
_cell_length_b 33.022154
_cell_length_c 19.434912
_cell_angle_alpha 90.000000
_cell_angle_beta 90.000000
_cell_angle_gamma 90.000000
_cell_volume 9456.863837
_symmetry_space_group_name_H-M "F D D D"
_symmetry_group_IT_number 70
_space_group.IT_coordinate_system_code '2'
_symmetry_cell_setting 'orthorhombic'
loop_
_space_group_symop_operation_xyz
x,y,z
1/4-x,1/4-y,z
x,1/4-y,1/4-z
1/4-x,y,1/4-z
-x,-y,-z
3/4+x,3/4+y,-z
-x,3/4+y,3/4+z
3/4+x,-y,3/4+z
x,1/2+y,1/2+z
1/4-x,3/4-y,1/2+z
x,3/4-y,3/4-z
1/4-x,1/2+y,3/4-z
-x,1/2-y,1/2-z
3/4+x,1/4+y,1/2-z
-x,1/4+y,1/4+z
3/4+x,1/2-y,1/4+z
1/2+x,y,1/2+z
3/4-x,1/4-y,1/2+z
1/2+x,1/4-y,3/4-z
3/4-x,y,3/4-z
1/2-x,-y,1/2-z
1/4+x,3/4+y,1/2-z
1/2-x,3/4+y,1/4+z
1/4+x,-y,1/4+z
1/2+x,1/2+y,z
3/4-x,3/4-y,z
1/2+x,3/4-y,1/4-z
3/4-x,1/2+y,1/4-z
1/2-x,1/2-y,-z
1/4+x,1/4+y,-z
1/2-x,1/4+y,3/4+z
1/4+x,1/2-y,3/4+z
loop_
_atom_site_type_symbol
_atom_site_label
_atom_site_fract_x
_atom_site_fract_y
_atom_site_fract_z
Si Si1 0.550886 0.974861 0.063749
Si Si2 0.125000 0.280050 0.125000
Si Si3 0.097043 0.044817 0.328041
Si Si4 0.484047 0.168860 0.775726
Si Si5 0.055364 0.327468 0.484954
Si Si6 0.467144 0.219951 0.647255
O O1 0.625000 0.991650 0.125000
O O2 0.468966 0.955305 0.106624
O O3 0.610758 0.940951 0.026522
O O4 0.500000 0.000000 0.000000
O O5 0.149770 0.309268 0.062095
O O6 0.210487 0.250761 0.135335
O O7 0.180566 0.076427 0.327035
O O8 0.033968 0.055490 0.264142
O O9 0.138351 0.999705 0.326556
O O10 0.460026 0.124478 0.750278
O O11 0.510451 0.196796 0.711170
O O12 0.065328 0.313506 0.406555
#
# Coordination Sequence:
#
# PCOD9515328 Si02
#       6
#    32  16  32  32  32  32
#     4  10  21  40  65  92 123 166 218 259 311 385
#     4  10  22  36  57  84 122 160 200 244 309 378
#     4  10  21  37  59  84 121 158 209 245 306 379
#     4  11  23  37  58  91 123 156 201 261 320 359
#     4  11  22  37  62  90 124 158 207 259 315 364
#     4  11  20  39  60  85 121 158 205 243 312 377
#
# _framework density 18.61082
#
# number of rings (size 3 to 8) (size 9 to 14) (size 15 to 20)
#    0.000    1.455    1.818    5.455    3.818    0.000 
#    0.000    2.727    0.000    0.000    0.000    6.364 
#    0.000    0.000    0.000    0.000    0.000    0.000 
#
# Total GULP energy -244974.965208 kJ/mol
# GULP energy per Si atom -5567.612846 kJ/mol
# Density = 1.856846 g / cm^3
# Si number density = 18.610820 Si / 1000 Ang^3
#
#
#
# Elastic Constant Matrix: (Units=GPa)
#
#
# Indices 1 2 3 4 5 6 
#
# 1 91.4107 60.1324 24.7312 0.0000 0.0000 0.0000
# 2 60.1324 134.8282 53.7538 0.0000 0.0000 0.0000
# 3 24.7312 53.7538 82.8340 0.0000 0.0000 0.0000
# 4 0.0000 0.0000 0.0000 -8.5447 0.0000 0.0000
# 5 0.0000 0.0000 0.0000 0.0000 24.2144 0.0000
# 6 0.0000 0.0000 0.0000 0.0000 0.0000 13.7157
#
#
#
# Elastic Compliance Matrix: (Units=1/GPa)
#
#
# Indices 1 2 3 4 5 6 
#
# 1 0.015484 -0.006830 -0.000191 0.000000 0.000000 0.000000
# 2 -0.006830 0.013018 -0.006409 0.000000 0.000000 0.000000
# 3 -0.000191 -0.006409 0.016288 0.000000 0.000000 0.000000
# 4 0.000000 0.000000 0.000000 -0.117032 0.000000 0.000000
# 5 0.000000 0.000000 0.000000 0.000000 0.041298 0.000000
# 6 0.000000 0.000000 0.000000 0.000000 0.000000 0.072909
#
#
# Mechanical properties :
#
#
# Convention : Reuss Voigt Hill
#
# Bulk Modulus (GPa) = 55.76780 65.14532 60.45656
# Shear Modulus (GPa) = 66.84406 17.24078 42.04242
#
# Velocity S-wave (km/s) = 5.99956 3.04696 4.75808
# Velocity P-wave (km/s) = 8.83308 6.88902 7.92092
#
# Compressibility (1/GPa) = 0.01793149
#
# Stress axis : x y z
#
# Youngs Moduli (GPa) = 64.58274 76.81773 61.39436
#
# Poissons Ratio (x) = 0.52464 0.01173
# Poissons Ratio (y) = 0.44108 0.39345
# Poissons Ratio (z) = 0.01233 0.49230
#
# Static dielectric constant tensor:
#      x y z
#    x 1.699860 0.000000 0.000000 
#    y 0.000000 1.627330 0.000000 
#    z 0.000000 0.000000 1.701780 
# 
# From -- ./inp_files/51519.got.cif
#   From: 2010.05.17/outbox.cif.g08.bks.cpg/sg70_26_cif.got.tgz:51519.got - 2010.06.03 15:57:51.
