data_PCOD9515336
_publ_section_title
;
Structure prediction by ZEFSAII (Michael W. Deem and Ramdas Pophale) SiO2 
 PCOD9515336
Probable space group: F D D D
;
_chemical_formula_sum "Si O2"
_cell_formula_units_Z 192
_cell_length_a 29.760603
_cell_length_b 24.577722
_cell_length_c 12.280855
_cell_angle_alpha 90.000000
_cell_angle_beta 90.000000
_cell_angle_gamma 90.000000
_cell_volume 8982.804705
_symmetry_space_group_name_H-M "F D D D"
_symmetry_group_IT_number 70
_space_group.IT_coordinate_system_code '2'
_symmetry_cell_setting 'orthorhombic'
loop_
_space_group_symop_operation_xyz
x,y,z
1/4-x,1/4-y,z
x,1/4-y,1/4-z
1/4-x,y,1/4-z
-x,-y,-z
3/4+x,3/4+y,-z
-x,3/4+y,3/4+z
3/4+x,-y,3/4+z
x,1/2+y,1/2+z
1/4-x,3/4-y,1/2+z
x,3/4-y,3/4-z
1/4-x,1/2+y,3/4-z
-x,1/2-y,1/2-z
3/4+x,1/4+y,1/2-z
-x,1/4+y,1/4+z
3/4+x,1/2-y,1/4+z
1/2+x,y,1/2+z
3/4-x,1/4-y,1/2+z
1/2+x,1/4-y,3/4-z
3/4-x,y,3/4-z
1/2-x,-y,1/2-z
1/4+x,3/4+y,1/2-z
1/2-x,3/4+y,1/4+z
1/4+x,-y,1/4+z
1/2+x,1/2+y,z
3/4-x,3/4-y,z
1/2+x,3/4-y,1/4-z
3/4-x,1/2+y,1/4-z
1/2-x,1/2-y,-z
1/4+x,1/4+y,-z
1/2-x,1/4+y,3/4+z
1/4+x,1/2-y,3/4+z
loop_
_atom_site_type_symbol
_atom_site_label
_atom_site_fract_x
_atom_site_fract_y
_atom_site_fract_z
Si Si1 0.277335 0.480038 0.602361
Si Si2 0.867470 0.037775 0.694358
Si Si3 0.529559 0.174399 0.689439
Si Si4 0.125000 0.704770 0.625000
Si Si5 0.782709 0.437510 0.857628
Si Si6 0.875000 0.127535 0.875000
Si Si7 0.686216 0.794518 0.499915
O O1 0.322243 0.511881 0.642974
O O2 0.271178 0.428437 0.682384
O O3 0.237500 0.520546 0.633854
O O4 0.277601 0.463132 0.477923
O O5 0.860844 0.089381 0.773366
O O6 0.901638 0.050233 0.598846
O O7 0.889204 0.993104 0.774744
O O8 0.507929 0.125000 0.625000
O O9 0.582730 0.173583 0.671908
O O10 0.798354 0.375000 0.875000
O O11 0.735071 0.437851 0.793936
O O12 0.812197 0.481896 0.791584
O O13 0.916652 0.165802 0.842003
#
# Coordination Sequence:
#
# PCOD9515336 Si02
#       7
#    32  32  32  16  32  16  32
#     4  10  23  40  60  90 122 158 209 256 310 379
#     4  10  21  40  63  90 125 161 207 268 318 374
#     4  10  21  37  61  90 123 160 200 255 315 373
#     4   9  19  36  59  88 121 160 205 249 310 388
#     4  11  25  43  62  90 129 170 211 261 319 386
#     4  11  22  40  68  96 124 164 216 273 330 382
#     4  11  24  41  66  95 126 167 217 262 321 393
#
# _framework density 21.374169999999999
#
# number of rings (size 3 to 8) (size 9 to 14) (size 15 to 20)
#    0.000    1.667    0.000    3.750    0.000   12.000 
#    0.000    5.417    0.000    0.000    0.000    0.000 
#    0.000    0.000    0.000    0.000    0.000    0.000 
#
# Total GULP energy -268096.719286 kJ/mol
# GULP energy per Si atom -5585.348318 kJ/mol
# Density = 2.132552 g / cm^3
# Si number density = 21.374170 Si / 1000 Ang^3
#
#
#
# Elastic Constant Matrix: (Units=GPa)
#
#
# Indices 1 2 3 4 5 6 
#
# 1 49.8112 15.6120 30.7279 0.0000 0.0000 0.0000
# 2 15.6120 108.0827 53.2122 0.0000 0.0000 0.0000
# 3 30.7279 53.2122 125.0669 0.0000 0.0000 0.0000
# 4 0.0000 0.0000 0.0000 3.0917 0.0001 0.0000
# 5 0.0000 0.0000 0.0000 0.0001 25.7857 0.0000
# 6 0.0000 0.0000 0.0000 0.0000 0.0000 15.9649
#
#
#
# Elastic Compliance Matrix: (Units=1/GPa)
#
#
# Indices 1 2 3 4 5 6 
#
# 1 0.023704 -0.000704 -0.005524 0.000000 0.000000 0.000000
# 2 -0.000704 0.011725 -0.004815 0.000000 0.000000 0.000000
# 3 -0.005524 -0.004815 0.011402 0.000000 0.000000 0.000000
# 4 0.000000 0.000000 0.000000 0.323446 -0.000001 -0.000001
# 5 0.000000 0.000000 0.000000 -0.000001 0.038781 0.000000
# 6 0.000000 0.000000 0.000000 -0.000001 0.000000 0.062637
#
#
# Mechanical properties :
#
#
# Convention : Reuss Voigt Hill
#
# Bulk Modulus (GPa) = 40.41568 53.56280 46.98924
# Shear Modulus (GPa) = 9.95955 21.19572 15.57764
#
# Velocity S-wave (km/s) = 2.16096 3.15247 2.70257
# Velocity P-wave (km/s) = 5.01757 6.19393 5.63652
#
# Compressibility (1/GPa) = 0.02474287
#
# Stress axis : x y z
#
# Youngs Moduli (GPa) = 42.18626 85.29008 87.70499
#
# Poissons Ratio (x) = 0.06006 0.48451
# Poissons Ratio (y) = 0.02971 0.42234
# Poissons Ratio (z) = 0.23305 0.41071
#
# Static dielectric constant tensor:
#      x y z
#    x 1.778610 0.000000 0.000000 
#    y 0.000000 1.819000 0.000000 
#    z 0.000000 0.000000 1.800910 
# 
# From -- ./inp_files/22480.got.cif
#   From: 2010.05.17/outbox.cif.g08.bks.cpg/sg70_12_cif.got.tgz:22480.got - 2010.06.03 15:57:51.
