data_PCOD9515281
_publ_section_title
;
Structure prediction by ZEFSAII (Michael W. Deem and Ramdas Pophale) SiO2 
 PCOD9515281
Probable space group: F D D D
;
_chemical_formula_sum "Si O2"
_cell_formula_units_Z 160
_cell_length_a 25.300284
_cell_length_b 23.778986
_cell_length_c 11.862796
_cell_angle_alpha 90.000000
_cell_angle_beta 90.000000
_cell_angle_gamma 90.000000
_cell_volume 7136.837190
_symmetry_space_group_name_H-M "F D D D"
_symmetry_group_IT_number 70
_space_group.IT_coordinate_system_code '2'
_symmetry_cell_setting 'orthorhombic'
loop_
_space_group_symop_operation_xyz
x,y,z
1/4-x,1/4-y,z
x,1/4-y,1/4-z
1/4-x,y,1/4-z
-x,-y,-z
3/4+x,3/4+y,-z
-x,3/4+y,3/4+z
3/4+x,-y,3/4+z
x,1/2+y,1/2+z
1/4-x,3/4-y,1/2+z
x,3/4-y,3/4-z
1/4-x,1/2+y,3/4-z
-x,1/2-y,1/2-z
3/4+x,1/4+y,1/2-z
-x,1/4+y,1/4+z
3/4+x,1/2-y,1/4+z
1/2+x,y,1/2+z
3/4-x,1/4-y,1/2+z
1/2+x,1/4-y,3/4-z
3/4-x,y,3/4-z
1/2-x,-y,1/2-z
1/4+x,3/4+y,1/2-z
1/2-x,3/4+y,1/4+z
1/4+x,-y,1/4+z
1/2+x,1/2+y,z
3/4-x,3/4-y,z
1/2+x,3/4-y,1/4-z
3/4-x,1/2+y,1/4-z
1/2-x,1/2-y,-z
1/4+x,1/4+y,-z
1/2-x,1/4+y,3/4+z
1/4+x,1/2-y,3/4+z
loop_
_atom_site_type_symbol
_atom_site_label
_atom_site_fract_x
_atom_site_fract_y
_atom_site_fract_z
Si Si1 0.835734 0.971522 0.271863
Si Si2 0.022162 0.312391 0.869283
Si Si3 0.987597 0.093788 0.019010
Si Si4 0.336486 0.420081 0.042851
Si Si5 0.704320 0.490860 0.100891
O O1 0.875000 0.982450 0.375000
O O2 0.785620 0.936919 0.315837
O O3 0.857208 0.936219 0.166470
O O4 0.809968 0.025966 0.211807
O O5 0.043597 0.375000 0.875000
O O6 0.014137 0.283439 0.991801
O O7 0.961357 0.125000 0.125000
O O8 0.949270 0.062977 0.931234
O O9 0.019930 0.041730 0.076355
O O10 0.028535 0.139319 0.962987
O O11 0.375000 0.375000 0.993298
O O12 0.339867 0.476546 0.969746
#
# Coordination Sequence:
#
# PCOD9515281 Si02
#       5
#    32  32  32  32  32
#     4  10  23  38  62  99 131 166 222 272 320 402
#     4  10  21  39  65  91 131 176 211 266 334 392
#     4   9  18  34  57  86 126 160 210 254 315 385
#     4  10  21  35  60  94 124 160 210 266 323 375
#     4   9  19  35  56  89 120 160 206 256 319 381
#
# _framework density 22.418894000000002
#
# number of rings (size 3 to 8) (size 9 to 14) (size 15 to 20)
#    0.000    2.400    0.000    1.200    5.600    5.200 
#    0.000    0.000    8.800    8.400    0.000    0.000 
#    0.000    0.000    0.000    0.000    0.000    0.000 
#
# Total GULP energy -222824.997113 kJ/mol
# GULP energy per Si atom -5570.624928 kJ/mol
# Density = 2.236787 g / cm^3
# Si number density = 22.418894 Si / 1000 Ang^3
#
#
#
# Elastic Constant Matrix: (Units=GPa)
#
#
# Indices 1 2 3 4 5 6 
#
# 1 32.0345 17.2439 27.9290 0.0000 0.0000 0.0000
# 2 17.2439 81.7993 25.1329 0.0000 0.0000 0.0000
# 3 27.9290 25.1329 140.4509 -0.0001 0.0000 0.0000
# 4 0.0000 0.0000 -0.0001 37.1858 0.0000 0.0000
# 5 0.0000 0.0000 0.0000 0.0000 18.2969 0.0000
# 6 0.0000 0.0000 0.0000 0.0000 0.0000 10.4628
#
#
#
# Elastic Compliance Matrix: (Units=1/GPa)
#
#
# Indices 1 2 3 4 5 6 
#
# 1 0.040749 -0.006455 -0.006948 0.000000 0.000000 0.000000
# 2 -0.006455 0.013959 -0.001214 0.000000 0.000000 0.000000
# 3 -0.006948 -0.001214 0.008719 0.000000 0.000000 0.000000
# 4 0.000000 0.000000 0.000000 0.026892 0.000000 0.000000
# 5 0.000000 0.000000 0.000000 0.000000 0.054654 0.000000
# 6 0.000000 0.000000 0.000000 0.000000 0.000000 0.095576
#
#
# Mechanical properties :
#
#
# Convention : Reuss Voigt Hill
#
# Bulk Modulus (GPa) = 29.24702 43.87736 36.56219
# Shear Modulus (GPa) = 17.78217 25.45437 21.61827
#
# Velocity S-wave (km/s) = 2.81940 3.37322 3.10867
# Velocity P-wave (km/s) = 4.86546 5.89793 5.40640
#
# Compressibility (1/GPa) = 0.03419152
#
# Stress axis : x y z
#
# Youngs Moduli (GPa) = 24.54075 71.63862 114.69477
#
# Poissons Ratio (x) = 0.46245 0.79688
# Poissons Ratio (y) = 0.15842 0.13926
# Poissons Ratio (z) = 0.17050 0.08698
#
# Static dielectric constant tensor:
#      x y z
#    x 1.835140 0.000000 0.000000 
#    y 0.000000 2.006300 0.000000 
#    z 0.000000 0.000000 1.879350 
# 
# From -- ./inp_files/22165.got.cif
#   From: 2010.05.17/outbox.cif.g08.bks.cpg/sg70_12_cif.got.tgz:22165.got - 2010.06.03 15:57:51.
