data_PCOD9515656
_publ_section_title
;
Structure prediction by ZEFSAII (Michael W. Deem and Ramdas Pophale) SiO2 
 PCOD9515656
Probable space group: F D D D
;
_chemical_formula_sum "Si O2"
_cell_formula_units_Z 208
_cell_length_a 25.434747
_cell_length_b 21.172455
_cell_length_c 16.786486
_cell_angle_alpha 90.000000
_cell_angle_beta 90.000000
_cell_angle_gamma 90.000000
_cell_volume 9039.791904
_symmetry_space_group_name_H-M "F D D D"
_symmetry_group_IT_number 70
_space_group.IT_coordinate_system_code '2'
_symmetry_cell_setting 'orthorhombic'
loop_
_space_group_symop_operation_xyz
x,y,z
1/4-x,1/4-y,z
x,1/4-y,1/4-z
1/4-x,y,1/4-z
-x,-y,-z
3/4+x,3/4+y,-z
-x,3/4+y,3/4+z
3/4+x,-y,3/4+z
x,1/2+y,1/2+z
1/4-x,3/4-y,1/2+z
x,3/4-y,3/4-z
1/4-x,1/2+y,3/4-z
-x,1/2-y,1/2-z
3/4+x,1/4+y,1/2-z
-x,1/4+y,1/4+z
3/4+x,1/2-y,1/4+z
1/2+x,y,1/2+z
3/4-x,1/4-y,1/2+z
1/2+x,1/4-y,3/4-z
3/4-x,y,3/4-z
1/2-x,-y,1/2-z
1/4+x,3/4+y,1/2-z
1/2-x,3/4+y,1/4+z
1/4+x,-y,1/4+z
1/2+x,1/2+y,z
3/4-x,3/4-y,z
1/2+x,3/4-y,1/4-z
3/4-x,1/2+y,1/4-z
1/2-x,1/2-y,-z
1/4+x,1/4+y,-z
1/2-x,1/4+y,3/4+z
1/4+x,1/2-y,3/4+z
loop_
_atom_site_type_symbol
_atom_site_label
_atom_site_fract_x
_atom_site_fract_y
_atom_site_fract_z
Si Si1 0.648765 0.066454 0.215003
Si Si2 0.153967 0.875000 0.875000
Si Si3 0.234309 0.823180 0.000636
Si Si4 0.564712 0.130528 0.503208
Si Si5 0.217489 0.232096 0.124227
Si Si6 0.538137 0.875071 0.167556
Si Si7 0.582594 0.786540 0.442146
O O1 0.625000 0.125000 0.261785
O O2 0.625000 0.060690 0.125000
O O3 0.708550 0.092078 0.216984
O O4 0.624475 0.007538 0.262565
O O5 0.192174 0.894001 0.805051
O O6 0.114388 0.816456 0.868566
O O7 0.207994 0.836520 0.086177
O O8 0.250000 0.750000 0.000000
O O9 0.625000 0.125000 0.482166
O O10 0.542606 0.070996 0.555935
O O11 0.560311 0.196176 0.552371
O O12 0.524323 0.131157 0.432075
O O13 0.198428 0.301316 0.097146
O O14 0.277946 0.238999 0.155242
O O15 0.565601 0.909738 0.242446
#
# Coordination Sequence:
#
# PCOD9515656 Si02
#       7
#    32  16  32  32  32  32  32
#     4  11  23  44  74  98 138 189 239 288 357 418
#     4  12  26  46  71  98 141 184 236 296 352 418
#     4  12  26  48  66 102 142 185 235 299 351 415
#     4  10  22  44  68 101 145 188 230 287 349 435
#     4  10  21  44  69 102 149 182 228 288 357 419
#     4  11  25  44  73 104 143 183 238 297 351 425
#     4  11  24  45  71 107 139 190 237 292 352 433
#
# _framework density 23.009378999999999
#
# number of rings (size 3 to 8) (size 9 to 14) (size 15 to 20)
#    0.000    1.077    1.538    6.000    0.000    4.308 
#   11.077    0.000    0.000    0.000    0.000    0.000 
#    0.000    0.000    0.000    0.000    0.000    0.000 
#
# Total GULP energy -289476.167110 kJ/mol
# GULP energy per Si atom -5566.849367 kJ/mol
# Density = 2.295701 g / cm^3
# Si number density = 23.009379 Si / 1000 Ang^3
#
#
#
# Elastic Constant Matrix: (Units=GPa)
#
#
# Indices 1 2 3 4 5 6 
#
# 1 100.6976 12.0601 5.9936 0.0000 0.0000 0.0000
# 2 12.0601 123.7503 32.0876 0.0000 0.0000 0.0000
# 3 5.9936 32.0876 68.1916 0.0000 0.0000 0.0000
# 4 0.0000 0.0000 0.0000 11.0932 0.0000 0.0000
# 5 0.0000 0.0000 0.0000 0.0000 1.7293 0.0000
# 6 0.0000 0.0000 0.0000 0.0000 0.0000 14.0936
#
#
#
# Elastic Compliance Matrix: (Units=1/GPa)
#
#
# Indices 1 2 3 4 5 6 
#
# 1 0.010062 -0.000856 -0.000482 0.000000 0.000000 0.000000
# 2 -0.000856 0.009277 -0.004290 0.000000 0.000000 0.000000
# 3 -0.000482 -0.004290 0.016726 0.000000 0.000000 0.000000
# 4 0.000000 0.000000 0.000000 0.090145 0.000000 0.000000
# 5 0.000000 0.000000 0.000000 0.000000 0.578258 0.000000
# 6 0.000000 0.000000 0.000000 0.000000 0.000000 0.070954
#
#
# Mechanical properties :
#
#
# Convention : Reuss Voigt Hill
#
# Bulk Modulus (GPa) = 40.30737 43.65800 41.98268
# Shear Modulus (GPa) = 6.28973 21.54976 13.91975
#
# Velocity S-wave (km/s) = 1.65514 3.06365 2.46226
# Velocity P-wave (km/s) = 4.60527 5.61514 5.13509
#
# Compressibility (1/GPa) = 0.02480936
#
# Stress axis : x y z
#
# Youngs Moduli (GPa) = 99.38502 107.79915 59.78891
#
# Poissons Ratio (x) = 0.09224 0.02880
# Poissons Ratio (y) = 0.08504 0.25649
# Poissons Ratio (z) = 0.04788 0.46244
#
# Static dielectric constant tensor:
#      x y z
#    x 1.733710 0.000000 0.000000 
#    y 0.000000 1.928610 0.000000 
#    z 0.000000 0.000000 1.853870 
# 
# From -- ./inp_files/38751.got.cif
#   From: 2010.05.17/outbox.cif.g08.bks.cpg/sg70_20_cif.got.tgz:38751.got - 2010.06.03 15:57:51.
