data_PCOD9515568
_publ_section_title
;
Structure prediction by ZEFSAII (Michael W. Deem and Ramdas Pophale) SiO2 
 PCOD9515568
Probable space group: F D D D
;
_chemical_formula_sum "Si O2"
_cell_formula_units_Z 176
_cell_length_a 21.427963
_cell_length_b 11.182638
_cell_length_c 28.294945
_cell_angle_alpha 90.000000
_cell_angle_beta 90.000000
_cell_angle_gamma 90.000000
_cell_volume 6780.067354
_symmetry_space_group_name_H-M "F D D D"
_symmetry_group_IT_number 70
_space_group.IT_coordinate_system_code '2'
_symmetry_cell_setting 'orthorhombic'
loop_
_space_group_symop_operation_xyz
x,y,z
1/4-x,1/4-y,z
x,1/4-y,1/4-z
1/4-x,y,1/4-z
-x,-y,-z
3/4+x,3/4+y,-z
-x,3/4+y,3/4+z
3/4+x,-y,3/4+z
x,1/2+y,1/2+z
1/4-x,3/4-y,1/2+z
x,3/4-y,3/4-z
1/4-x,1/2+y,3/4-z
-x,1/2-y,1/2-z
3/4+x,1/4+y,1/2-z
-x,1/4+y,1/4+z
3/4+x,1/2-y,1/4+z
1/2+x,y,1/2+z
3/4-x,1/4-y,1/2+z
1/2+x,1/4-y,3/4-z
3/4-x,y,3/4-z
1/2-x,-y,1/2-z
1/4+x,3/4+y,1/2-z
1/2-x,3/4+y,1/4+z
1/4+x,-y,1/4+z
1/2+x,1/2+y,z
3/4-x,3/4-y,z
1/2+x,3/4-y,1/4-z
3/4-x,1/2+y,1/4-z
1/2-x,1/2-y,-z
1/4+x,1/4+y,-z
1/2-x,1/4+y,3/4+z
1/4+x,1/2-y,3/4+z
loop_
_atom_site_type_symbol
_atom_site_label
_atom_site_fract_x
_atom_site_fract_y
_atom_site_fract_z
Si Si1 0.436015 0.688457 0.240053
Si Si2 0.625000 0.625000 0.540006
Si Si3 0.455846 0.240440 0.100496
Si Si4 0.145250 0.883480 0.073525
Si Si5 0.756010 0.315186 0.744842
Si Si6 0.182482 0.001735 0.361325
O O1 0.500000 0.750000 0.250000
O O2 0.393889 0.705453 0.284857
O O3 0.453858 0.551472 0.230667
O O4 0.410111 0.744242 0.192988
O O5 0.619796 0.746506 0.569608
O O6 0.563211 0.599067 0.508852
O O7 0.487686 0.125000 0.125000
O O8 0.388894 0.248621 0.130478
O O9 0.474285 0.378951 0.110705
O O10 0.469228 0.215112 0.044221
O O11 0.125000 0.926291 0.125000
O O12 0.213308 0.895680 0.048895
O O13 0.213191 0.875000 0.375000
#
# Coordination Sequence:
#
# PCOD9515568 Si02
#       6
#    32  16  32  32  32  32
#     4  11  23  42  72 102 146 193 241 304 381 449
#     4  10  25  48  72 100 150 200 250 312 373 448
#     4  10  21  41  72 106 143 198 248 309 374 454
#     4  11  25  47  74 108 148 200 250 308 373 455
#     4  11  23  45  74 105 147 197 250 309 381 443
#     4  10  21  42  68 104 150 188 248 309 376 452
#
# _framework density 25.958444
#
# number of rings (size 3 to 8) (size 9 to 14) (size 15 to 20)
#    0.000    1.455    3.636    0.818    0.000    5.091 
#    9.818    0.909    0.000    0.000    0.000    0.000 
#    0.000    0.000    0.000    0.000    0.000    0.000 
#
# Total GULP energy -245197.336111 kJ/mol
# GULP energy per Si atom -5572.666730 kJ/mol
# Density = 2.589936 g / cm^3
# Si number density = 25.958444 Si / 1000 Ang^3
#
#
#
# Elastic Constant Matrix: (Units=GPa)
#
#
# Indices 1 2 3 4 5 6 
#
# 1 100.6259 -4.2668 44.1860 0.0000 0.0000 0.0000
# 2 -4.2668 110.7653 47.3957 0.0000 0.0000 0.0000
# 3 44.1860 47.3957 173.3653 0.0000 0.0000 0.0000
# 4 0.0000 0.0000 0.0000 6.9578 0.0000 0.0000
# 5 0.0000 0.0000 0.0000 0.0000 16.9133 0.0000
# 6 0.0000 0.0000 0.0000 0.0000 0.0000 19.2049
#
#
#
# Elastic Compliance Matrix: (Units=1/GPa)
#
#
# Indices 1 2 3 4 5 6 
#
# 1 0.011543 0.001929 -0.003469 0.000000 0.000000 0.000000
# 2 0.001929 0.010547 -0.003375 0.000000 0.000000 0.000000
# 3 -0.003469 -0.003375 0.007575 0.000000 0.000000 0.000000
# 4 0.000000 0.000000 0.000000 0.143723 0.000000 0.000000
# 5 0.000000 0.000000 0.000000 0.000000 0.059125 0.000000
# 6 0.000000 0.000000 0.000000 0.000000 0.000000 0.052070
#
#
# Mechanical properties :
#
#
# Convention : Reuss Voigt Hill
#
# Bulk Modulus (GPa) = 50.41771 62.15401 56.28586
# Shear Modulus (GPa) = 16.60995 28.44465 22.52730
#
# Velocity S-wave (km/s) = 2.53230 3.31384 2.94908
# Velocity P-wave (km/s) = 5.29289 6.21592 5.77289
#
# Compressibility (1/GPa) = 0.01983430
#
# Stress axis : x y z
#
# Youngs Moduli (GPa) = 86.63207 94.81780 132.01150
#
# Poissons Ratio (x) = -0.18292 0.45800
# Poissons Ratio (y) = -0.16713 0.44554
# Poissons Ratio (z) = 0.30056 0.32001
#
# Static dielectric constant tensor:
#      x y z
#    x 1.750290 0.000000 0.000000 
#    y 0.000000 2.143400 0.000000 
#    z 0.000000 0.000000 2.026240 
# 
# From -- ./inp_files/67776.got.cif
#   From: 2010.05.17/outbox.cif.g08.bks.cpg/sg70_34_cif.got.tgz:67776.got - 2010.06.03 15:57:51.
