data_PCOD9515157
_publ_section_title
;
Structure prediction by ZEFSAII (Michael W. Deem and Ramdas Pophale) SiO2 
 PCOD9515157
Probable space group: F D D D
;
_chemical_formula_sum "Si O2"
_cell_formula_units_Z 128
_cell_length_a 20.719009
_cell_length_b 20.319301
_cell_length_c 12.501675
_cell_angle_alpha 90.000000
_cell_angle_beta 90.000000
_cell_angle_gamma 90.000000
_cell_volume 5263.152422
_symmetry_space_group_name_H-M "F D D D"
_symmetry_group_IT_number 70
_space_group.IT_coordinate_system_code '2'
_symmetry_cell_setting 'orthorhombic'
loop_
_space_group_symop_operation_xyz
x,y,z
1/4-x,1/4-y,z
x,1/4-y,1/4-z
1/4-x,y,1/4-z
-x,-y,-z
3/4+x,3/4+y,-z
-x,3/4+y,3/4+z
3/4+x,-y,3/4+z
x,1/2+y,1/2+z
1/4-x,3/4-y,1/2+z
x,3/4-y,3/4-z
1/4-x,1/2+y,3/4-z
-x,1/2-y,1/2-z
3/4+x,1/4+y,1/2-z
-x,1/4+y,1/4+z
3/4+x,1/2-y,1/4+z
1/2+x,y,1/2+z
3/4-x,1/4-y,1/2+z
1/2+x,1/4-y,3/4-z
3/4-x,y,3/4-z
1/2-x,-y,1/2-z
1/4+x,3/4+y,1/2-z
1/2-x,3/4+y,1/4+z
1/4+x,-y,1/4+z
1/2+x,1/2+y,z
3/4-x,3/4-y,z
1/2+x,3/4-y,1/4-z
3/4-x,1/2+y,1/4-z
1/2-x,1/2-y,-z
1/4+x,1/4+y,-z
1/2-x,1/4+y,3/4+z
1/4+x,1/2-y,3/4+z
loop_
_atom_site_type_symbol
_atom_site_label
_atom_site_fract_x
_atom_site_fract_y
_atom_site_fract_z
Si Si1 0.913280 0.699183 0.967414
Si Si2 0.788700 0.448405 0.918246
Si Si3 0.322958 0.625000 0.625000
Si Si4 0.514084 0.919478 0.155252
Si Si5 0.375000 0.375000 0.573453
O O1 0.875000 0.737740 0.875000
O O2 0.943957 0.636919 0.905787
O O3 0.867515 0.678266 0.064396
O O4 0.977225 0.728000 0.018477
O O5 0.772308 0.375000 0.875000
O O6 0.794482 0.514318 0.850282
O O7 0.848287 0.432189 0.994899
O O8 0.282775 0.656930 0.720959
O O9 0.438773 0.901081 0.132916
#
# Coordination Sequence:
#
# PCOD9515157 Si02
#       5
#    32  32  16  32  16
#     4   9  20  39  61  95 125 168 230 265 335 409
#     4  11  23  40  67  99 133 180 218 289 355 395
#     4  10  20  41  66  89 126 182 224 264 348 396
#     4  10  24  42  67  97 138 176 224 291 337 408
#     4  10  25  43  60 108 136 168 236 272 350 414
#
# _framework density 24.320025000000001
#
# number of rings (size 3 to 8) (size 9 to 14) (size 15 to 20)
#    0.000    2.000    1.250    0.375    3.500   10.500 
#    4.500    3.750    0.000    0.000    0.000    0.000 
#    0.000    0.000    0.000    0.000    0.000    0.000 
#
# Total GULP energy -178384.062291 kJ/mol
# GULP energy per Si atom -5574.501947 kJ/mol
# Density = 2.426467 g / cm^3
# Si number density = 24.320025 Si / 1000 Ang^3
#
#
#
# Elastic Constant Matrix: (Units=GPa)
#
#
# Indices 1 2 3 4 5 6 
#
# 1 173.5889 24.4187 50.6475 0.0000 0.0000 0.0000
# 2 24.4187 86.8835 6.1487 0.0000 0.0000 0.0000
# 3 50.6475 6.1487 115.4020 0.0000 0.0000 0.0000
# 4 0.0000 0.0000 0.0000 -114.7580 0.0000 0.0000
# 5 0.0000 0.0000 0.0000 0.0000 21.2455 0.0000
# 6 0.0000 0.0000 0.0000 0.0000 0.0000 22.4647
#
#
#
# Elastic Compliance Matrix: (Units=1/GPa)
#
#
# Indices 1 2 3 4 5 6 
#
# 1 0.006854 -0.001720 -0.002916 0.000000 0.000000 0.000000
# 2 -0.001720 0.011985 0.000116 0.000000 0.000000 0.000000
# 3 -0.002916 0.000116 0.009939 0.000000 0.000000 0.000000
# 4 0.000000 0.000000 0.000000 -0.008714 0.000000 0.000000
# 5 0.000000 0.000000 0.000000 0.000000 0.047069 0.000000
# 6 0.000000 0.000000 0.000000 0.000000 0.000000 0.044514
#
#
# Mechanical properties :
#
#
# Convention : Reuss Voigt Hill
#
# Bulk Modulus (GPa) = 50.66438 59.81157 55.23798
# Shear Modulus (GPa) = 39.28802 5.43441 22.36122
#
# Velocity S-wave (km/s) = 4.02364 1.49646 3.03554
# Velocity P-wave (km/s) = 6.51643 5.25669 5.92016
#
# Compressibility (1/GPa) = 0.01973773
#
# Stress axis : x y z
#
# Youngs Moduli (GPa) = 145.91041 83.43905 100.61339
#
# Poissons Ratio (x) = 0.14350 0.29341
# Poissons Ratio (y) = 0.25094 -0.01169
# Poissons Ratio (z) = 0.42551 -0.00970
#
# Static dielectric constant tensor:
#      x y z
#    x 2.058730 0.000000 0.000000 
#    y 0.000000 2.210400 0.000000 
#    z 0.000000 0.000000 2.077940 
# 
# From -- ./inp_files/18912.got.cif
#   From: 2010.05.17/outbox.cif.g08.bks.cpg/sg70_10_cif.got.tgz:18912.got - 2010.06.03 15:57:51.
