data_PCOD9515263
_publ_section_title
;
Structure prediction by ZEFSAII (Michael W. Deem and Ramdas Pophale) SiO2 
 PCOD9515263
Probable space group: F D D D
;
_chemical_formula_sum "Si O2"
_cell_formula_units_Z 208
_cell_length_a 16.423976
_cell_length_b 29.027354
_cell_length_c 21.304993
_cell_angle_alpha 90.000000
_cell_angle_beta 90.000000
_cell_angle_gamma 90.000000
_cell_volume 10157.039629
_symmetry_space_group_name_H-M "F D D D"
_symmetry_group_IT_number 70
_space_group.IT_coordinate_system_code '2'
_symmetry_cell_setting 'orthorhombic'
loop_
_space_group_symop_operation_xyz
x,y,z
1/4-x,1/4-y,z
x,1/4-y,1/4-z
1/4-x,y,1/4-z
-x,-y,-z
3/4+x,3/4+y,-z
-x,3/4+y,3/4+z
3/4+x,-y,3/4+z
x,1/2+y,1/2+z
1/4-x,3/4-y,1/2+z
x,3/4-y,3/4-z
1/4-x,1/2+y,3/4-z
-x,1/2-y,1/2-z
3/4+x,1/4+y,1/2-z
-x,1/4+y,1/4+z
3/4+x,1/2-y,1/4+z
1/2+x,y,1/2+z
3/4-x,1/4-y,1/2+z
1/2+x,1/4-y,3/4-z
3/4-x,y,3/4-z
1/2-x,-y,1/2-z
1/4+x,3/4+y,1/2-z
1/2-x,3/4+y,1/4+z
1/4+x,-y,1/4+z
1/2+x,1/2+y,z
3/4-x,3/4-y,z
1/2+x,3/4-y,1/4-z
3/4-x,1/2+y,1/4-z
1/2-x,1/2-y,-z
1/4+x,1/4+y,-z
1/2-x,1/4+y,3/4+z
1/4+x,1/2-y,3/4+z
loop_
_atom_site_type_symbol
_atom_site_label
_atom_site_fract_x
_atom_site_fract_y
_atom_site_fract_z
Si Si1 0.899391 0.089219 0.268268
Si Si2 0.591560 0.671264 0.955277
Si Si3 0.971478 0.517532 0.190365
Si Si4 0.097262 0.821615 0.879525
Si Si5 0.884258 0.057191 0.800142
Si Si6 0.437701 0.466112 0.933982
Si Si7 0.375000 0.025379 0.875000
O O1 0.891283 0.063061 0.202814
O O2 0.875849 0.142850 0.269613
O O3 0.848689 0.061327 0.320563
O O4 0.996480 0.087978 0.280816
O O5 0.625000 0.625000 0.922690
O O6 0.584131 0.722150 0.925689
O O7 0.649221 0.680524 0.015882
O O8 0.930638 0.559242 0.154119
O O9 0.960123 0.531289 0.264383
O O10 0.058094 0.504998 0.161000
O O11 0.076244 0.875000 0.875000
O O12 0.023751 0.796243 0.845176
O O13 0.875000 0.065490 0.875000
O O14 0.815335 0.018335 0.789411
O O15 0.375000 0.466303 0.875000
#
# Coordination Sequence:
#
# PCOD9515263 Si02
#       7
#    32  32  32  32  32  32  16
#     4  11  21  39  65  90 128 173 218 271 340 410
#     4  10  21  35  56  90 133 171 204 259 338 417
#     4  10  24  42  63  94 127 173 228 278 334 394
#     4  12  23  37  62  96 130 168 220 274 335 408
#     4  10  21  39  64  95 126 170 214 274 338 403
#     4  10  21  34  55  91 130 167 197 251 331 416
#     4  10  24  46  65  88 128 182 231 284 334 390
#
# _framework density 20.478408000000002
#
# number of rings (size 3 to 8) (size 9 to 14) (size 15 to 20)
#    0.000    1.538    3.846    0.923    4.308    1.846 
#    0.000    0.385    0.000    0.000    0.000    0.000 
#    0.000    0.000    0.000    0.000    0.000    0.000 
#
# Total GULP energy -289614.472625 kJ/mol
# GULP energy per Si atom -5569.509089 kJ/mol
# Density = 2.043180 g / cm^3
# Si number density = 20.478408 Si / 1000 Ang^3
#
#
#
# Elastic Constant Matrix: (Units=GPa)
#
#
# Indices 1 2 3 4 5 6 
#
# 1 60.7759 41.2635 35.9704 0.0000 0.0000 0.0000
# 2 41.2635 91.7443 27.6838 0.0000 0.0000 0.0000
# 3 35.9704 27.6838 105.4267 0.0000 0.0000 0.0000
# 4 0.0000 0.0000 0.0000 23.3783 0.0000 0.0000
# 5 0.0000 0.0000 0.0000 0.0000 29.4503 0.0000
# 6 0.0000 0.0000 0.0000 0.0000 0.0000 23.4868
#
#
#
# Elastic Compliance Matrix: (Units=1/GPa)
#
#
# Indices 1 2 3 4 5 6 
#
# 1 0.027383 -0.010314 -0.006635 0.000000 0.000000 0.000000
# 2 -0.010314 0.015723 -0.000610 0.000000 0.000000 0.000000
# 3 -0.006635 -0.000610 0.011909 0.000000 0.000000 0.000000
# 4 0.000000 0.000000 0.000000 0.042775 0.000000 0.000000
# 5 0.000000 0.000000 0.000000 0.000000 0.033956 0.000000
# 6 0.000000 0.000000 0.000000 0.000000 0.000000 0.042577
#
#
# Mechanical properties :
#
#
# Convention : Reuss Voigt Hill
#
# Bulk Modulus (GPa) = 50.25475 51.97582 51.11528
# Shear Modulus (GPa) = 23.14048 25.46501 24.30274
#
# Velocity S-wave (km/s) = 3.36519 3.53016 3.44866
# Velocity P-wave (km/s) = 6.30023 6.48475 6.39316
#
# Compressibility (1/GPa) = 0.01989862
#
# Stress axis : x y z
#
# Youngs Moduli (GPa) = 36.51865 63.60216 83.97051
#
# Poissons Ratio (x) = 0.65600 0.55710
# Poissons Ratio (y) = 0.37666 0.05118
# Poissons Ratio (z) = 0.24228 0.03877
#
# Static dielectric constant tensor:
#      x y z
#    x 1.719230 0.000000 0.000000 
#    y 0.000000 1.780270 0.000000 
#    z 0.000000 0.000000 1.850230 
# 
# From -- ./inp_files/43964.got.cif
#   From: 2010.05.17/outbox.cif.g08.bks.cpg/sg70_22_cif.got.tgz:43964.got - 2010.06.03 15:57:51.
