data_PCOD9515065
_publ_section_title
;
Structure prediction by ZEFSAII (Michael W. Deem and Ramdas Pophale) SiO2 
 PCOD9515065
Probable space group: F D D D
;
_chemical_formula_sum "Si O2"
_cell_formula_units_Z 240
_cell_length_a 20.678213
_cell_length_b 27.636218
_cell_length_c 22.552838
_cell_angle_alpha 90.000000
_cell_angle_beta 90.000000
_cell_angle_gamma 90.000000
_cell_volume 12888.216257
_symmetry_space_group_name_H-M "F D D D"
_symmetry_group_IT_number 70
_space_group.IT_coordinate_system_code '2'
_symmetry_cell_setting 'orthorhombic'
loop_
_space_group_symop_operation_xyz
x,y,z
1/4-x,1/4-y,z
x,1/4-y,1/4-z
1/4-x,y,1/4-z
-x,-y,-z
3/4+x,3/4+y,-z
-x,3/4+y,3/4+z
3/4+x,-y,3/4+z
x,1/2+y,1/2+z
1/4-x,3/4-y,1/2+z
x,3/4-y,3/4-z
1/4-x,1/2+y,3/4-z
-x,1/2-y,1/2-z
3/4+x,1/4+y,1/2-z
-x,1/4+y,1/4+z
3/4+x,1/2-y,1/4+z
1/2+x,y,1/2+z
3/4-x,1/4-y,1/2+z
1/2+x,1/4-y,3/4-z
3/4-x,y,3/4-z
1/2-x,-y,1/2-z
1/4+x,3/4+y,1/2-z
1/2-x,3/4+y,1/4+z
1/4+x,-y,1/4+z
1/2+x,1/2+y,z
3/4-x,3/4-y,z
1/2+x,3/4-y,1/4-z
3/4-x,1/2+y,1/4-z
1/2-x,1/2-y,-z
1/4+x,1/4+y,-z
1/2-x,1/4+y,3/4+z
1/4+x,1/2-y,3/4+z
loop_
_atom_site_type_symbol
_atom_site_label
_atom_site_fract_x
_atom_site_fract_y
_atom_site_fract_z
Si Si1 0.129256 0.375000 0.875000
Si Si2 0.825958 0.651028 0.249753
Si Si3 0.837222 0.502582 0.931810
Si Si4 0.457703 0.044397 0.186631
Si Si5 0.443583 0.961336 0.015719
Si Si6 0.892669 0.796747 0.101121
Si Si7 0.519792 0.608037 0.914088
Si Si8 0.530756 0.869204 0.035519
O O1 0.171370 0.354767 0.820726
O O2 0.081943 0.416951 0.851493
O O3 0.819097 0.436525 0.157914
O O4 0.776587 0.613448 0.279650
O O5 0.899010 0.640183 0.270812
O O6 0.875000 0.523337 0.875000
O O7 0.775264 0.473203 0.909169
O O8 0.812898 0.545570 0.974474
O O9 0.886722 0.469468 0.968541
O O10 0.475427 0.070308 0.248006
O O11 0.412937 0.997376 0.190441
O O12 0.412084 0.967884 0.081256
O O13 0.477059 0.908642 0.015978
O O14 0.500000 0.000000 0.000000
O O15 0.936161 0.843641 0.087271
O O16 0.477305 0.610300 0.854801
#
# Coordination Sequence:
#
# PCOD9515065 Si02
#       8
#    16  32  32  32  32  32  32  32
#     4  10  26  42  59  85 128 172 196 266 334 392
#     4  11  21  40  64  86 119 161 215 259 322 384
#     4  12  23  33  59  91 125 172 217 249 297 389
#     4  11  23  39  55  90 131 168 208 252 321 380
#     4  11  21  36  57  87 132 177 210 251 305 389
#     4  10  21  37  62  88 123 159 213 260 314 371
#     4  10  20  39  65  91 113 160 214 266 309 374
#     4  10  22  37  58  88 129 163 207 259 312 373
#
# _framework density 18.621662000000001
#
# number of rings (size 3 to 8) (size 9 to 14) (size 15 to 20)
#    0.000    1.333    2.667    3.600    5.600    1.600 
#    0.000    2.667    0.000    4.800    0.000    0.000 
#    0.000    0.000    0.000    0.000    0.000    0.000 
#
# Total GULP energy -335066.947396 kJ/mol
# GULP energy per Si atom -5584.449123 kJ/mol
# Density = 1.857928 g / cm^3
# Si number density = 18.621662 Si / 1000 Ang^3
#
#
#
# Elastic Constant Matrix: (Units=GPa)
#
#
# Indices 1 2 3 4 5 6 
#
# 1 59.7298 12.7731 35.6695 0.0000 0.0000 0.0000
# 2 12.7731 74.0524 29.1392 0.0000 0.0000 0.0000
# 3 35.6695 29.1392 109.4233 0.0000 0.0000 0.0000
# 4 0.0000 0.0000 0.0000 20.1512 0.0000 0.0000
# 5 0.0000 0.0000 0.0000 0.0000 28.8440 0.0000
# 6 0.0000 0.0000 0.0000 0.0000 0.0000 32.7693
#
#
#
# Elastic Compliance Matrix: (Units=1/GPa)
#
#
# Indices 1 2 3 4 5 6 
#
# 1 0.020859 -0.001030 -0.006525 0.000000 0.000000 0.000000
# 2 -0.001030 0.015136 -0.003695 0.000000 0.000000 0.000000
# 3 -0.006525 -0.003695 0.012250 0.000000 0.000000 0.000000
# 4 0.000000 0.000000 0.000000 0.049625 0.000000 0.000000
# 5 0.000000 0.000000 0.000000 0.000000 0.034669 0.000000
# 6 0.000000 0.000000 0.000000 0.000000 0.000000 0.030516
#
#
# Mechanical properties :
#
#
# Convention : Reuss Voigt Hill
#
# Bulk Modulus (GPa) = 38.84406 44.26324 41.55365
# Shear Modulus (GPa) = 25.75504 27.39447 26.57475
#
# Velocity S-wave (km/s) = 3.72300 3.83966 3.78178
# Velocity P-wave (km/s) = 6.27581 6.59384 6.43679
#
# Compressibility (1/GPa) = 0.02574396
#
# Stress axis : x y z
#
# Youngs Moduli (GPa) = 47.94063 66.06979 81.63406
#
# Poissons Ratio (x) = 0.06807 0.53268
# Poissons Ratio (y) = 0.04939 0.30161
# Poissons Ratio (z) = 0.31282 0.24411
#
# Static dielectric constant tensor:
#      x y z
#    x 1.651850 0.000000 0.000000 
#    y 0.000000 1.665640 0.000000 
#    z 0.000000 0.000000 1.662800 
# 
# From -- ./inp_files/46165.got.cif
#   From: 2010.05.17/outbox.cif.g08.bks.cpg/sg70_24_cif.got.tgz:46165.got - 2010.06.03 15:57:51.
