data_PCOD9515646
_publ_section_title
;
Structure prediction by ZEFSAII (Michael W. Deem and Ramdas Pophale) SiO2 
 PCOD9515646
Probable space group: F D D D
;
_chemical_formula_sum "Si O2"
_cell_formula_units_Z 160
_cell_length_a 17.717775
_cell_length_b 19.485231
_cell_length_c 21.833318
_cell_angle_alpha 90.000000
_cell_angle_beta 90.000000
_cell_angle_gamma 90.000000
_cell_volume 7537.624201
_symmetry_space_group_name_H-M "F D D D"
_symmetry_group_IT_number 70
_space_group.IT_coordinate_system_code '2'
_symmetry_cell_setting 'orthorhombic'
loop_
_space_group_symop_operation_xyz
x,y,z
1/4-x,1/4-y,z
x,1/4-y,1/4-z
1/4-x,y,1/4-z
-x,-y,-z
3/4+x,3/4+y,-z
-x,3/4+y,3/4+z
3/4+x,-y,3/4+z
x,1/2+y,1/2+z
1/4-x,3/4-y,1/2+z
x,3/4-y,3/4-z
1/4-x,1/2+y,3/4-z
-x,1/2-y,1/2-z
3/4+x,1/4+y,1/2-z
-x,1/4+y,1/4+z
3/4+x,1/2-y,1/4+z
1/2+x,y,1/2+z
3/4-x,1/4-y,1/2+z
1/2+x,1/4-y,3/4-z
3/4-x,y,3/4-z
1/2-x,-y,1/2-z
1/4+x,3/4+y,1/2-z
1/2-x,3/4+y,1/4+z
1/4+x,-y,1/4+z
1/2+x,1/2+y,z
3/4-x,3/4-y,z
1/2+x,3/4-y,1/4-z
3/4-x,1/2+y,1/4-z
1/2-x,1/2-y,-z
1/4+x,1/4+y,-z
1/2-x,1/4+y,3/4+z
1/4+x,1/2-y,3/4+z
loop_
_atom_site_type_symbol
_atom_site_label
_atom_site_fract_x
_atom_site_fract_y
_atom_site_fract_z
Si Si1 0.463376 0.487504 0.875612
Si Si2 0.286467 0.870588 0.681218
Si Si3 0.548959 0.937883 0.162800
Si Si4 0.710246 0.653614 0.687444
Si Si5 0.285863 0.370359 0.978030
O O1 0.375000 0.506710 0.875000
O O2 0.511663 0.552947 0.856021
O O3 0.472806 0.430013 0.822939
O O4 0.478719 0.450021 0.940543
O O5 0.375000 0.875000 0.687891
O O6 0.262038 0.934654 0.641112
O O7 0.251483 0.868838 0.749192
O O8 0.625000 0.921287 0.125000
O O9 0.521137 0.887377 0.216756
O O10 0.549171 0.014684 0.187923
O O11 0.625000 0.625000 0.687075
O O12 0.746609 0.625000 0.625000
O O13 0.375000 0.375000 0.997735
#
# Coordination Sequence:
#
# PCOD9515646 Si02
#       5
#    32  32  32  32  32
#     4   9  18  39  69 101 134 171 206 270 350 408
#     4  11  24  41  65  96 132 169 223 273 326 398
#     4  12  23  41  68  95 126 176 227 267 324 400
#     4  10  21  44  64  81 123 173 219 276 320 364
#     4   9  19  38  69 101 137 167 207 272 346 406
#
# _framework density 21.226848
#
# number of rings (size 3 to 8) (size 9 to 14) (size 15 to 20)
#    0.000    1.800    4.000    2.400    0.000    1.600 
#    3.600    0.000    0.000    0.000    0.000    0.000 
#    0.000    0.000    0.000    0.000    0.000    0.000 
#
# Total GULP energy -223177.681704 kJ/mol
# GULP energy per Si atom -5579.442043 kJ/mol
# Density = 2.117853 g / cm^3
# Si number density = 21.226848 Si / 1000 Ang^3
#
#
#
# Elastic Constant Matrix: (Units=GPa)
#
#
# Indices 1 2 3 4 5 6 
#
# 1 46.3343 5.3865 44.2659 0.0000 0.0000 0.0000
# 2 5.3865 78.5059 40.4358 0.0000 0.0000 0.0000
# 3 44.2659 40.4358 152.5419 0.0000 0.0000 0.0000
# 4 0.0000 0.0000 0.0000 15.3793 0.0000 0.0000
# 5 0.0000 0.0000 0.0000 0.0000 61.1939 0.0000
# 6 0.0000 0.0000 0.0000 0.0000 0.0000 23.1475
#
#
#
# Elastic Compliance Matrix: (Units=1/GPa)
#
#
# Indices 1 2 3 4 5 6 
#
# 1 0.030400 0.002847 -0.009576 0.000000 0.000000 0.000000
# 2 0.002847 0.015019 -0.004807 0.000000 0.000000 0.000000
# 3 -0.009576 -0.004807 0.010609 0.000000 0.000000 0.000000
# 4 0.000000 0.000000 0.000000 0.065023 0.000000 0.000000
# 5 0.000000 0.000000 0.000000 0.000000 0.016341 0.000000
# 6 0.000000 0.000000 0.000000 0.000000 0.000000 0.043201
#
#
# Mechanical properties :
#
#
# Convention : Reuss Voigt Hill
#
# Bulk Modulus (GPa) = 30.34550 50.83983 40.59266
# Shear Modulus (GPa) = 23.29357 32.43040 27.86198
#
# Velocity S-wave (km/s) = 3.31624 3.91295 3.62689
# Velocity P-wave (km/s) = 5.38425 6.66465 6.05837
#
# Compressibility (1/GPa) = 0.03295382
#
# Stress axis : x y z
#
# Youngs Moduli (GPa) = 32.89444 66.58410 94.26112
#
# Poissons Ratio (x) = -0.18954 0.90268
# Poissons Ratio (y) = -0.09364 0.45313
# Poissons Ratio (z) = 0.31501 0.32008
#
# Static dielectric constant tensor:
#      x y z
#    x 1.803990 0.000000 0.000000 
#    y 0.000000 1.758450 0.000000 
#    z 0.000000 0.000000 1.856770 
# 
# From -- ./inp_files/43674.got.cif
#   From: 2010.05.17/outbox.cif.g08.bks.cpg/sg70_22_cif.got.tgz:43674.got - 2010.06.03 15:57:51.
