data_PCOD9515999
_publ_section_title
;
Structure prediction by ZEFSAII (Michael W. Deem and Ramdas Pophale) SiO2 
 PCOD9515999
Probable space group: F D D D
;
_chemical_formula_sum "Si O2"
_cell_formula_units_Z 88
_cell_length_a 17.946359
_cell_length_b 31.269701
_cell_length_c 6.072396
_cell_angle_alpha 90.000000
_cell_angle_beta 90.000000
_cell_angle_gamma 90.000000
_cell_volume 3407.690670
_symmetry_space_group_name_H-M "F D D D"
_symmetry_group_IT_number 70
_space_group.IT_coordinate_system_code '2'
_symmetry_cell_setting 'orthorhombic'
loop_
_space_group_symop_operation_xyz
x,y,z
1/4-x,1/4-y,z
x,1/4-y,1/4-z
1/4-x,y,1/4-z
-x,-y,-z
3/4+x,3/4+y,-z
-x,3/4+y,3/4+z
3/4+x,-y,3/4+z
x,1/2+y,1/2+z
1/4-x,3/4-y,1/2+z
x,3/4-y,3/4-z
1/4-x,1/2+y,3/4-z
-x,1/2-y,1/2-z
3/4+x,1/4+y,1/2-z
-x,1/4+y,1/4+z
3/4+x,1/2-y,1/4+z
1/2+x,y,1/2+z
3/4-x,1/4-y,1/2+z
1/2+x,1/4-y,3/4-z
3/4-x,y,3/4-z
1/2-x,-y,1/2-z
1/4+x,3/4+y,1/2-z
1/2-x,3/4+y,1/4+z
1/4+x,-y,1/4+z
1/2+x,1/2+y,z
3/4-x,3/4-y,z
1/2+x,3/4-y,1/4-z
3/4-x,1/2+y,1/4-z
1/2-x,1/2-y,-z
1/4+x,1/4+y,-z
1/2-x,1/4+y,3/4+z
1/4+x,1/2-y,3/4+z
loop_
_atom_site_type_symbol
_atom_site_label
_atom_site_fract_x
_atom_site_fract_y
_atom_site_fract_z
Si Si1 0.446367 0.086612 0.248071
Si Si2 0.080770 0.703958 0.836248
Si Si3 0.375000 0.375000 0.375000
Si Si4 0.125000 0.972278 0.625000
O O1 0.491439 0.125000 0.125000
O O2 0.375000 0.104808 0.375000
O O3 0.498044 0.064916 0.428507
O O4 0.418590 0.055475 0.055847
O O5 0.125000 0.719176 0.625000
O O6 0.126457 0.664130 0.935774
O O7 0.072555 0.744236 0.997891
#
# Coordination Sequence:
#
# PCOD9515999 Si02
#       4
#    32  32   8  16
#     4  12  26  47  77 111 152 203 258 320 390 465
#     4  11  25  46  76 110 152 196 259 317 389 461
#     4  10  22  44  72 106 144 192 244 308 380 452
#     4  11  26  47  72 112 152 204 252 329 380 475
#
# _framework density 25.823941000000001
#
# number of rings (size 3 to 8) (size 9 to 14) (size 15 to 20)
#    0.000    0.727    3.636    2.727    0.000   14.545 
#    0.000    0.000    0.000    0.000    0.000    0.000 
#    0.000    0.000    0.000    0.000    0.000    0.000 
#
# Total GULP energy -122787.739946 kJ/mol
# GULP energy per Si atom -5581.260907 kJ/mol
# Density = 2.576516 g / cm^3
# Si number density = 25.823941 Si / 1000 Ang^3
#
#
#
# Elastic Constant Matrix: (Units=GPa)
#
#
# Indices 1 2 3 4 5 6 
#
# 1 77.5993 5.3989 19.0310 0.0031 0.0157 -0.0009
# 2 5.3989 137.4582 24.5602 0.0001 -0.0002 -0.0005
# 3 19.0310 24.5602 80.5440 0.0072 0.0185 -0.0004
# 4 0.0031 0.0001 0.0072 50.9251 -0.0028 0.0001
# 5 0.0157 -0.0002 0.0185 -0.0028 41.7448 0.0006
# 6 -0.0009 -0.0005 -0.0004 0.0001 0.0006 35.9141
#
#
#
# Elastic Compliance Matrix: (Units=1/GPa)
#
#
# Indices 1 2 3 4 5 6 
#
# 1 0.013680 0.000043 -0.003245 0.000000 -0.000004 0.000000
# 2 0.000043 0.007694 -0.002356 0.000000 0.000001 0.000000
# 3 -0.003245 -0.002356 0.013901 -0.000002 -0.000005 0.000000
# 4 0.000000 0.000000 -0.000002 0.019637 0.000001 0.000000
# 5 -0.000004 0.000001 -0.000005 0.000001 0.023955 0.000000
# 6 0.000000 0.000000 0.000000 0.000000 0.000000 0.027844
#
#
# Mechanical properties :
#
#
# Convention : Reuss Voigt Hill
#
# Bulk Modulus (GPa) = 41.39603 43.73130 42.56366
# Shear Modulus (GPa) = 39.72009 42.15756 40.93882
#
# Velocity S-wave (km/s) = 3.92613 4.04480 3.98591
# Velocity P-wave (km/s) = 6.05124 6.22777 6.14014
#
# Compressibility (1/GPa) = 0.02415691
#
# Stress axis : x y z
#
# Youngs Moduli (GPa) = 73.10133 129.96682 71.93804
#
# Poissons Ratio (x) = -0.00553 0.23345
# Poissons Ratio (y) = -0.00311 0.16950
# Poissons Ratio (z) = 0.23723 0.30624
#
# Static dielectric constant tensor:
#      x y z
#    x 1.799880 0.000000 -0.000010 
#    y 0.000000 1.936210 0.000000 
#    z -0.000010 0.000000 2.127620 
# 
# From -- ./inp_files/2582.got.cif
#   From: 2010.05.17/outbox.cif.g08.bks.cpg/sg70_2_cif.got.tgz:2582.got - 2010.06.03 15:57:51.
