data_PCOD9515103
_publ_section_title
;
Structure prediction by ZEFSAII (Michael W. Deem and Ramdas Pophale) SiO2 
 PCOD9515103
Probable space group: F D D D
;
_chemical_formula_sum "Si O2"
_cell_formula_units_Z 232
_cell_length_a 25.117162
_cell_length_b 14.283141
_cell_length_c 32.242919
_cell_angle_alpha 90.000000
_cell_angle_beta 90.000000
_cell_angle_gamma 90.000000
_cell_volume 11567.210593
_symmetry_space_group_name_H-M "F D D D"
_symmetry_group_IT_number 70
_space_group.IT_coordinate_system_code '2'
_symmetry_cell_setting 'orthorhombic'
loop_
_space_group_symop_operation_xyz
x,y,z
1/4-x,1/4-y,z
x,1/4-y,1/4-z
1/4-x,y,1/4-z
-x,-y,-z
3/4+x,3/4+y,-z
-x,3/4+y,3/4+z
3/4+x,-y,3/4+z
x,1/2+y,1/2+z
1/4-x,3/4-y,1/2+z
x,3/4-y,3/4-z
1/4-x,1/2+y,3/4-z
-x,1/2-y,1/2-z
3/4+x,1/4+y,1/2-z
-x,1/4+y,1/4+z
3/4+x,1/2-y,1/4+z
1/2+x,y,1/2+z
3/4-x,1/4-y,1/2+z
1/2+x,1/4-y,3/4-z
3/4-x,y,3/4-z
1/2-x,-y,1/2-z
1/4+x,3/4+y,1/2-z
1/2-x,3/4+y,1/4+z
1/4+x,-y,1/4+z
1/2+x,1/2+y,z
3/4-x,3/4-y,z
1/2+x,3/4-y,1/4-z
3/4-x,1/2+y,1/4-z
1/2-x,1/2-y,-z
1/4+x,1/4+y,-z
1/2-x,1/4+y,3/4+z
1/4+x,1/2-y,3/4+z
loop_
_atom_site_type_symbol
_atom_site_label
_atom_site_fract_x
_atom_site_fract_y
_atom_site_fract_z
Si Si1 0.407454 0.974757 0.189455
Si Si2 0.919018 0.237646 0.020744
Si Si3 0.184378 0.523835 0.697511
Si Si4 0.232849 0.077966 0.783173
Si Si5 0.852764 0.769424 0.597180
Si Si6 0.596751 0.891846 0.730564
Si Si7 0.625000 0.125000 0.625000
Si Si8 0.511732 0.130135 0.768792
O O1 0.375000 0.875000 0.191479
O O2 0.400905 0.017065 0.143841
O O3 0.467755 0.942817 0.197706
O O4 0.399360 0.049282 0.226277
O O5 0.941671 0.342326 0.017670
O O6 0.895872 0.223136 0.066776
O O7 0.870459 0.210403 0.990626
O O8 0.965234 0.165379 0.008482
O O9 0.138213 0.447587 0.702837
O O10 0.166395 0.573304 0.655855
O O11 0.239703 0.468146 0.705156
O O12 0.191038 0.595240 0.736340
O O13 0.203112 0.029388 0.822156
O O14 0.288465 0.134188 0.789155
O O15 0.250000 0.000000 0.750000
O O16 0.875000 0.875000 0.601588
#
# Coordination Sequence:
#
# PCOD9515103 Si02
#       8
#    32  32  32  32  32  32   8  32
#     4  11  20  37  60  89 126 163 199 264 314 374
#     4  10  21  38  59  92 117 156 212 258 303 383
#     4  10  23  39  58  89 124 164 208 255 303 390
#     4  11  21  38  62  88 119 168 205 261 322 374
#     4   9  21  37  56  91 127 149 203 265 313 354
#     4  11  21  37  66  86 119 169 209 253 315 379
#     4  12  24  40  60  92 132 158 212 260 308 380
#     4  10  20  40  63  85 122 168 213 242 315 382
#
# _framework density 20.056692999999999
#
# number of rings (size 3 to 8) (size 9 to 14) (size 15 to 20)
#    0.000    1.655    4.138    0.828    0.000    1.655 
#    4.966    0.000    0.000    0.000    0.000    1.931 
#    0.000    0.000    0.000    0.000    0.000    0.000 
#
# Total GULP energy -322989.521916 kJ/mol
# GULP energy per Si atom -5568.784861 kJ/mol
# Density = 2.001104 g / cm^3
# Si number density = 20.056693 Si / 1000 Ang^3
#
#
#
# Elastic Constant Matrix: (Units=GPa)
#
#
# Indices 1 2 3 4 5 6 
#
# 1 97.7955 20.0930 38.8957 0.0000 0.0000 0.0000
# 2 20.0930 63.3018 25.1409 0.0000 0.0000 0.0000
# 3 38.8957 25.1409 100.9774 0.0000 0.0000 0.0000
# 4 0.0000 0.0000 0.0000 7.6396 0.0000 0.0000
# 5 0.0000 0.0000 0.0000 0.0000 19.6860 0.0000
# 6 0.0000 0.0000 0.0000 0.0000 0.0000 30.7527
#
#
#
# Elastic Compliance Matrix: (Units=1/GPa)
#
#
# Indices 1 2 3 4 5 6 
#
# 1 0.012359 -0.002255 -0.004199 0.000000 0.000000 0.000000
# 2 -0.002255 0.017942 -0.003599 0.000000 0.000000 0.000000
# 3 -0.004199 -0.003599 0.012417 0.000000 0.000000 0.000000
# 4 0.000000 0.000000 0.000000 0.130897 0.000000 0.000000
# 5 0.000000 0.000000 0.000000 0.000000 0.050798 0.000000
# 6 0.000000 0.000000 0.000000 0.000000 0.000000 0.032517
#
#
# Mechanical properties :
#
#
# Convention : Reuss Voigt Hill
#
# Bulk Modulus (GPa) = 44.22380 47.81487 46.01934
# Shear Modulus (GPa) = 17.57018 23.47868 20.52443
#
# Velocity S-wave (km/s) = 2.96298 3.42514 3.20241
# Velocity P-wave (km/s) = 5.81403 6.28758 6.05544
#
# Compressibility (1/GPa) = 0.02261226
#
# Stress axis : x y z
#
# Youngs Moduli (GPa) = 80.91380 55.73405 80.53752
#
# Poissons Ratio (x) = 0.12569 0.33818
# Poissons Ratio (y) = 0.18248 0.28981
# Poissons Ratio (z) = 0.33976 0.20056
#
# Static dielectric constant tensor:
#      x y z
#    x 1.793590 0.000000 0.000000 
#    y 0.000000 1.828960 0.000000 
#    z 0.000000 0.000000 1.718680 
# 
# From -- ./inp_files/68055.got.cif
#   From: 2010.05.17/outbox.cif.g08.bks.cpg/sg70_35_cif.got.tgz:68055.got - 2010.06.03 15:57:51.
