data_PCOD9515482
_publ_section_title
;
Structure prediction by ZEFSAII (Michael W. Deem and Ramdas Pophale) SiO2 
 PCOD9515482
Probable space group: F D D D
;
_chemical_formula_sum "Si O2"
_cell_formula_units_Z 120
_cell_length_a 26.864853
_cell_length_b 6.860813
_cell_length_c 28.974716
_cell_angle_alpha 90.000000
_cell_angle_beta 90.000000
_cell_angle_gamma 90.000000
_cell_volume 5340.467035
_symmetry_space_group_name_H-M "F D D D"
_symmetry_group_IT_number 70
_space_group.IT_coordinate_system_code '2'
_symmetry_cell_setting 'orthorhombic'
loop_
_space_group_symop_operation_xyz
x,y,z
1/4-x,1/4-y,z
x,1/4-y,1/4-z
1/4-x,y,1/4-z
-x,-y,-z
3/4+x,3/4+y,-z
-x,3/4+y,3/4+z
3/4+x,-y,3/4+z
x,1/2+y,1/2+z
1/4-x,3/4-y,1/2+z
x,3/4-y,3/4-z
1/4-x,1/2+y,3/4-z
-x,1/2-y,1/2-z
3/4+x,1/4+y,1/2-z
-x,1/4+y,1/4+z
3/4+x,1/2-y,1/4+z
1/2+x,y,1/2+z
3/4-x,1/4-y,1/2+z
1/2+x,1/4-y,3/4-z
3/4-x,y,3/4-z
1/2-x,-y,1/2-z
1/4+x,3/4+y,1/2-z
1/2-x,3/4+y,1/4+z
1/4+x,-y,1/4+z
1/2+x,1/2+y,z
3/4-x,3/4-y,z
1/2+x,3/4-y,1/4-z
3/4-x,1/2+y,1/4-z
1/2-x,1/2-y,-z
1/4+x,1/4+y,-z
1/2-x,1/4+y,3/4+z
1/4+x,1/2-y,3/4+z
loop_
_atom_site_type_symbol
_atom_site_label
_atom_site_fract_x
_atom_site_fract_y
_atom_site_fract_z
Si Si1 0.756831 0.003326 0.666647
Si Si2 0.307990 0.125000 0.625000
Si Si3 0.343836 0.679115 0.449326
Si Si4 0.363049 0.106360 0.198799
Si Si5 0.375000 0.875000 0.875000
O O1 0.775185 0.796032 0.646886
O O2 0.714234 0.982847 0.704686
O O3 0.732857 0.125000 0.625000
O O4 0.806404 0.118912 0.681546
O O5 0.345456 0.052390 0.665502
O O6 0.365119 0.596265 0.497319
O O7 0.345895 0.520236 0.408981
O O8 0.375000 0.875000 0.438526
O O9 0.375000 0.875000 0.196103
#
# Coordination Sequence:
#
# PCOD9515482 Si02
#       5
#    32  16  32  32   8
#     4  11  21  36  64  92 124 165 211 264 324 381
#     4  10  21  40  64 101 127 162 224 271 320 382
#     4  11  24  42  61  89 130 171 215 263 324 387
#     4   9  20  39  63  93 126 165 211 272 323 381
#     4  12  24  40  60  82 120 172 210 254 312 372
#
# _framework density 22.469943000000001
#
# number of rings (size 3 to 8) (size 9 to 14) (size 15 to 20)
#    0.000    1.600    1.333    3.600    0.000    2.133 
#    0.000    0.000    0.000   16.000    0.000    0.000 
#    0.000    0.000    0.000    0.000    0.000    0.000 
#
# Total GULP energy -167634.217916 kJ/mol
# GULP energy per Si atom -5587.807264 kJ/mol
# Density = 2.241880 g / cm^3
# Si number density = 22.469943 Si / 1000 Ang^3
#
#
#
# Elastic Constant Matrix: (Units=GPa)
#
#
# Indices 1 2 3 4 5 6 
#
# 1 134.4883 43.8312 36.7642 0.0000 -0.0006 -0.0006
# 2 43.8312 106.2021 18.0997 0.0000 -0.0027 -0.0017
# 3 36.7642 18.0997 111.9168 0.0000 -0.0002 0.0003
# 4 0.0000 0.0000 0.0000 9.7807 -0.0005 -0.0004
# 5 -0.0006 -0.0027 -0.0002 -0.0005 21.5535 0.0006
# 6 -0.0006 -0.0017 0.0003 -0.0004 0.0006 28.0195
#
#
#
# Elastic Compliance Matrix: (Units=1/GPa)
#
#
# Indices 1 2 3 4 5 6 
#
# 1 0.009215 -0.003381 -0.002481 0.000000 0.000000 0.000000
# 2 -0.003381 0.010923 -0.000656 0.000000 0.000001 0.000001
# 3 -0.002481 -0.000656 0.009856 0.000000 0.000000 0.000000
# 4 0.000000 0.000000 0.000000 0.102242 0.000002 0.000001
# 5 0.000000 0.000001 0.000000 0.000002 0.046396 -0.000001
# 6 0.000000 0.000001 0.000000 0.000001 -0.000001 0.035689
#
#
# Mechanical properties :
#
#
# Convention : Reuss Voigt Hill
#
# Bulk Modulus (GPa) = 58.96097 61.11083 60.03590
# Shear Modulus (GPa) = 21.45828 28.79820 25.12824
#
# Velocity S-wave (km/s) = 3.09362 3.58387 3.34773
# Velocity P-wave (km/s) = 6.24961 6.66193 6.45906
#
# Compressibility (1/GPa) = 0.01696037
#
# Stress axis : x y z
#
# Youngs Moduli (GPa) = 108.51343 91.54956 101.45967
#
# Poissons Ratio (x) = 0.30949 0.25167
# Poissons Ratio (y) = 0.36684 0.06656
# Poissons Ratio (z) = 0.26917 0.06006
#
# Static dielectric constant tensor:
#      x y z
#    x 1.827990 0.000000 0.000000 
#    y 0.000000 1.861390 0.000000 
#    z 0.000000 0.000000 1.838560 
# 
# From -- ./inp_files/61509.got.cif
#   From: 2010.05.17/outbox.cif.g08.bks.cpg/sg70_31_cif.got.tgz:61509.got - 2010.06.03 15:57:51.
