data_PCOD9515523
_publ_section_title
;
Structure prediction by ZEFSAII (Michael W. Deem and Ramdas Pophale) SiO2 
 PCOD9515523
Probable space group: F D D D
;
_chemical_formula_sum "Si O2"
_cell_formula_units_Z 136
_cell_length_a 22.821422
_cell_length_b 21.514446
_cell_length_c 12.818657
_cell_angle_alpha 90.000000
_cell_angle_beta 90.000000
_cell_angle_gamma 90.000000
_cell_volume 6293.835621
_symmetry_space_group_name_H-M "F D D D"
_symmetry_group_IT_number 70
_space_group.IT_coordinate_system_code '2'
_symmetry_cell_setting 'orthorhombic'
loop_
_space_group_symop_operation_xyz
x,y,z
1/4-x,1/4-y,z
x,1/4-y,1/4-z
1/4-x,y,1/4-z
-x,-y,-z
3/4+x,3/4+y,-z
-x,3/4+y,3/4+z
3/4+x,-y,3/4+z
x,1/2+y,1/2+z
1/4-x,3/4-y,1/2+z
x,3/4-y,3/4-z
1/4-x,1/2+y,3/4-z
-x,1/2-y,1/2-z
3/4+x,1/4+y,1/2-z
-x,1/4+y,1/4+z
3/4+x,1/2-y,1/4+z
1/2+x,y,1/2+z
3/4-x,1/4-y,1/2+z
1/2+x,1/4-y,3/4-z
3/4-x,y,3/4-z
1/2-x,-y,1/2-z
1/4+x,3/4+y,1/2-z
1/2-x,3/4+y,1/4+z
1/4+x,-y,1/4+z
1/2+x,1/2+y,z
3/4-x,3/4-y,z
1/2+x,3/4-y,1/4-z
3/4-x,1/2+y,1/4-z
1/2-x,1/2-y,-z
1/4+x,1/4+y,-z
1/2-x,1/4+y,3/4+z
1/4+x,1/2-y,3/4+z
loop_
_atom_site_type_symbol
_atom_site_label
_atom_site_fract_x
_atom_site_fract_y
_atom_site_fract_z
Si Si1 0.980555 0.837512 0.246558
Si Si2 0.940489 0.465639 0.219141
Si Si3 0.613147 0.435519 0.428705
Si Si4 0.875000 0.875000 0.875000
Si Si5 0.303403 0.973003 0.954611
O O1 0.969523 0.820204 0.128203
O O2 0.943489 0.900702 0.263183
O O3 0.956090 0.786844 0.329884
O O4 0.049874 0.839024 0.276450
O O5 0.897541 0.514508 0.163534
O O6 0.912568 0.419621 0.300620
O O7 0.993909 0.505875 0.262027
O O8 0.641843 0.375000 0.375000
O O9 0.650673 0.474734 0.511890
#
# Coordination Sequence:
#
# PCOD9515523 Si02
#       5
#    32  32  32   8  32
#     4  10  21  44  69 102 138 169 238 294 333 410
#     4  11  24  45  65  92 141 180 230 286 335 419
#     4  11  21  42  73 108 139 176 224 291 360 411
#     4  12  28  48  60  94 140 200 232 270 352 436
#     4  10  21  40  71 102 130 175 226 289 354 399
#
# _framework density 21.608443999999999
#
# number of rings (size 3 to 8) (size 9 to 14) (size 15 to 20)
#    0.000    1.412    4.706    4.235    1.647    3.765 
#    4.235    7.059    0.000    0.000    0.000    0.000 
#    0.000    0.000    0.000    0.000    0.000    0.000 
#
# Total GULP energy -189651.068556 kJ/mol
# GULP energy per Si atom -5577.972605 kJ/mol
# Density = 2.155926 g / cm^3
# Si number density = 21.608444 Si / 1000 Ang^3
#
#
#
# Elastic Constant Matrix: (Units=GPa)
#
#
# Indices 1 2 3 4 5 6 
#
# 1 81.5737 54.4643 50.1136 0.0000 0.0000 0.0000
# 2 54.4643 120.4938 69.6890 0.0000 0.0000 0.0000
# 3 50.1136 69.6890 104.1579 0.0000 0.0000 0.0000
# 4 0.0000 0.0000 0.0000 37.3952 0.0000 0.0000
# 5 0.0000 0.0000 0.0000 0.0000 -46.7969 0.0000
# 6 0.0000 0.0000 0.0000 0.0000 0.0000 31.2241
#
#
#
# Elastic Compliance Matrix: (Units=1/GPa)
#
#
# Indices 1 2 3 4 5 6 
#
# 1 0.019406 -0.005500 -0.005657 0.000000 0.000000 0.000000
# 2 -0.005500 0.015097 -0.007454 0.000000 0.000000 0.000000
# 3 -0.005657 -0.007454 0.017310 0.000000 0.000000 0.000000
# 4 0.000000 0.000000 0.000000 0.026741 0.000000 0.000000
# 5 0.000000 0.000000 0.000000 0.000000 -0.021369 0.000000
# 6 0.000000 0.000000 0.000000 0.000000 0.000000 0.032027
#
#
# Mechanical properties :
#
#
# Convention : Reuss Voigt Hill
#
# Bulk Modulus (GPa) = 68.54012 72.75103 70.64557
# Shear Modulus (GPa) = 38.08107 13.16172 25.62140
#
# Velocity S-wave (km/s) = 4.20256 2.47067 3.44715
# Velocity P-wave (km/s) = 7.43886 6.47147 6.97196
#
# Compressibility (1/GPa) = 0.01459000
#
# Stress axis : x y z
#
# Youngs Moduli (GPa) = 51.52932 66.23999 57.76933
#
# Poissons Ratio (x) = 0.36432 0.32681
# Poissons Ratio (y) = 0.28341 0.43064
# Poissons Ratio (z) = 0.29151 0.49379
#
# Static dielectric constant tensor:
#      x y z
#    x 1.914670 0.000000 0.000000 
#    y 0.000000 1.838240 0.000000 
#    z 0.000000 0.000000 1.811380 
# 
# From -- ./inp_files/27432.got.cif
#   From: 2010.05.17/outbox.cif.g08.bks.cpg/sg70_14_cif.got.tgz:27432.got - 2010.06.03 15:57:51.
