data_PCOD9515495
_publ_section_title
;
Structure prediction by ZEFSAII (Michael W. Deem and Ramdas Pophale) SiO2 
 PCOD9515495
Probable space group: F D D D
;
_chemical_formula_sum "Si O2"
_cell_formula_units_Z 176
_cell_length_a 13.844659
_cell_length_b 22.645411
_cell_length_c 22.297507
_cell_angle_alpha 90.000000
_cell_angle_beta 90.000000
_cell_angle_gamma 90.000000
_cell_volume 6990.669648
_symmetry_space_group_name_H-M "F D D D"
_symmetry_group_IT_number 70
_space_group.IT_coordinate_system_code '2'
_symmetry_cell_setting 'orthorhombic'
loop_
_space_group_symop_operation_xyz
x,y,z
1/4-x,1/4-y,z
x,1/4-y,1/4-z
1/4-x,y,1/4-z
-x,-y,-z
3/4+x,3/4+y,-z
-x,3/4+y,3/4+z
3/4+x,-y,3/4+z
x,1/2+y,1/2+z
1/4-x,3/4-y,1/2+z
x,3/4-y,3/4-z
1/4-x,1/2+y,3/4-z
-x,1/2-y,1/2-z
3/4+x,1/4+y,1/2-z
-x,1/4+y,1/4+z
3/4+x,1/2-y,1/4+z
1/2+x,y,1/2+z
3/4-x,1/4-y,1/2+z
1/2+x,1/4-y,3/4-z
3/4-x,y,3/4-z
1/2-x,-y,1/2-z
1/4+x,3/4+y,1/2-z
1/2-x,3/4+y,1/4+z
1/4+x,-y,1/4+z
1/2+x,1/2+y,z
3/4-x,3/4-y,z
1/2+x,3/4-y,1/4-z
3/4-x,1/2+y,1/4-z
1/2-x,1/2-y,-z
1/4+x,1/4+y,-z
1/2-x,1/4+y,3/4+z
1/4+x,1/2-y,3/4+z
loop_
_atom_site_type_symbol
_atom_site_label
_atom_site_fract_x
_atom_site_fract_y
_atom_site_fract_z
Si Si1 0.417749 0.615232 0.061100
Si Si2 0.980872 0.898639 0.168104
Si Si3 0.764040 0.029915 0.042257
Si Si4 0.375000 0.235201 0.875000
Si Si5 0.158319 0.191738 0.006803
Si Si6 0.336467 0.710682 0.972657
O O1 0.469077 0.625000 0.125000
O O2 0.318150 0.581806 0.076659
O O3 0.477167 0.569923 0.017911
O O4 0.394311 0.675099 0.025426
O O5 0.875000 0.875000 0.154040
O O6 0.986006 0.937934 0.228990
O O7 0.032847 0.941516 0.121166
O O8 0.043525 0.840849 0.181832
O O9 0.664176 0.001038 0.060631
O O10 0.844663 0.978164 0.040421
O O11 0.375418 0.276266 0.932416
O O12 0.125000 0.125000 0.002898
O O13 0.250000 0.750000 0.000000
#
# Coordination Sequence:
#
# PCOD9515495 Si02
#       6
#    32  32  32  16  32  32
#     4  11  24  40  66 101 126 168 221 273 326 382
#     4  10  21  40  65  86 125 173 213 255 322 396
#     4  10  22  41  64  93 128 166 217 268 320 392
#     4  10  23  38  58  98 128 159 210 268 320 380
#     4  11  20  38  68  93 126 165 210 265 326 387
#     4  11  22  42  66  88 123 178 215 256 323 390
#
# _framework density 25.176414000000001
#
# number of rings (size 3 to 8) (size 9 to 14) (size 15 to 20)
#    0.000    1.455    3.636    1.909    2.545    0.000 
#    6.545    0.909    0.000    0.000    0.000    0.000 
#    0.000    0.000    0.000    0.000    0.000    0.000 
#
# Total GULP energy -246048.183060 kJ/mol
# GULP energy per Si atom -5592.004160 kJ/mol
# Density = 2.511911 g / cm^3
# Si number density = 25.176414 Si / 1000 Ang^3
#
#
#
# Elastic Constant Matrix: (Units=GPa)
#
#
# Indices 1 2 3 4 5 6 
#
# 1 145.7582 61.9530 9.0601 0.0000 0.0000 0.0000
# 2 61.9530 132.1018 14.9272 0.0000 0.0000 0.0000
# 3 9.0601 14.9272 63.9575 0.0000 0.0000 0.0000
# 4 0.0000 0.0000 0.0000 20.6806 0.0000 0.0000
# 5 0.0000 0.0000 0.0000 0.0000 14.3460 0.0000
# 6 0.0000 0.0000 0.0000 0.0000 0.0000 76.0904
#
#
#
# Elastic Compliance Matrix: (Units=1/GPa)
#
#
# Indices 1 2 3 4 5 6 
#
# 1 0.008574 -0.003989 -0.000284 0.000000 0.000000 0.000000
# 2 -0.003989 0.009631 -0.001683 0.000000 0.000000 0.000000
# 3 -0.000284 -0.001683 0.016068 0.000000 0.000000 0.000000
# 4 0.000000 0.000000 0.000000 0.048355 0.000000 0.000000
# 5 0.000000 0.000000 0.000000 0.000000 0.069706 0.000000
# 6 0.000000 0.000000 0.000000 0.000000 0.000000 0.013142
#
#
# Mechanical properties :
#
#
# Convention : Reuss Voigt Hill
#
# Bulk Modulus (GPa) = 44.71769 57.07759 50.89764
# Shear Modulus (GPa) = 27.05049 39.28189 33.16619
#
# Velocity S-wave (km/s) = 3.28142 3.95431 3.63347
# Velocity P-wave (km/s) = 5.67073 6.60068 6.15330
#
# Compressibility (1/GPa) = 0.02236251
#
# Stress axis : x y z
#
# Youngs Moduli (GPa) = 116.63547 103.83413 62.23443
#
# Poissons Ratio (x) = 0.41418 0.01765
# Poissons Ratio (y) = 0.46524 0.10472
# Poissons Ratio (z) = 0.03307 0.17472
#
# Static dielectric constant tensor:
#      x y z
#    x 2.056600 0.000000 0.000000 
#    y 0.000000 1.929780 0.000000 
#    z 0.000000 0.000000 2.057160 
# 
# From -- ./inp_files/64769.got.cif
#   From: 2010.05.17/outbox.cif.g08.bks.cpg/sg70_33_cif.got.tgz:64769.got - 2010.06.03 15:57:51.
