data_PCOD9515028
_publ_section_title
;
Structure prediction by ZEFSAII (Michael W. Deem and Ramdas Pophale) SiO2 
 PCOD9515028
Probable space group: F D D D
;
_chemical_formula_sum "Si O2"
_cell_formula_units_Z 208
_cell_length_a 20.644132
_cell_length_b 18.299647
_cell_length_c 22.084975
_cell_angle_alpha 90.000000
_cell_angle_beta 90.000000
_cell_angle_gamma 90.000000
_cell_volume 8343.269104
_symmetry_space_group_name_H-M "F D D D"
_symmetry_group_IT_number 70
_space_group.IT_coordinate_system_code '2'
_symmetry_cell_setting 'orthorhombic'
loop_
_space_group_symop_operation_xyz
x,y,z
1/4-x,1/4-y,z
x,1/4-y,1/4-z
1/4-x,y,1/4-z
-x,-y,-z
3/4+x,3/4+y,-z
-x,3/4+y,3/4+z
3/4+x,-y,3/4+z
x,1/2+y,1/2+z
1/4-x,3/4-y,1/2+z
x,3/4-y,3/4-z
1/4-x,1/2+y,3/4-z
-x,1/2-y,1/2-z
3/4+x,1/4+y,1/2-z
-x,1/4+y,1/4+z
3/4+x,1/2-y,1/4+z
1/2+x,y,1/2+z
3/4-x,1/4-y,1/2+z
1/2+x,1/4-y,3/4-z
3/4-x,y,3/4-z
1/2-x,-y,1/2-z
1/4+x,3/4+y,1/2-z
1/2-x,3/4+y,1/4+z
1/4+x,-y,1/4+z
1/2+x,1/2+y,z
3/4-x,3/4-y,z
1/2+x,3/4-y,1/4-z
3/4-x,1/2+y,1/4-z
1/2-x,1/2-y,-z
1/4+x,1/4+y,-z
1/2-x,1/4+y,3/4+z
1/4+x,1/2-y,3/4+z
loop_
_atom_site_type_symbol
_atom_site_label
_atom_site_fract_x
_atom_site_fract_y
_atom_site_fract_z
Si Si1 0.165346 0.803088 0.432521
Si Si2 0.898075 0.452874 0.272221
Si Si3 0.912039 0.261018 0.053406
Si Si4 0.785606 0.583296 0.404876
Si Si5 0.297469 0.625000 0.125000
Si Si6 0.473354 0.646707 0.974812
Si Si7 0.238413 0.730843 0.931953
O O1 0.154050 0.734569 0.475596
O O2 0.181103 0.784036 0.364241
O O3 0.097188 0.848554 0.428213
O O4 0.219951 0.848503 0.464913
O O5 0.875000 0.375000 0.298547
O O6 0.920065 0.518136 0.318113
O O7 0.957972 0.435913 0.226688
O O8 0.922266 0.211469 0.993430
O O9 0.839415 0.285848 0.068983
O O10 0.968119 0.320746 0.058638
O O11 0.964848 0.591801 0.418245
O O12 0.791482 0.670068 0.416217
O O13 0.256926 0.554547 0.142683
O O14 0.250000 0.750000 0.000000
#
# Coordination Sequence:
#
# PCOD9515028 Si02
#       7
#    32  32  32  32  16  32  32
#     4  11  20  42  69  97 136 191 236 296 365 457
#     4  11  26  44  66 101 149 198 251 310 380 448
#     4  10  22  42  69 100 138 188 243 301 379 453
#     4  11  25  41  67 104 143 190 247 311 373 455
#     4  10  20  38  70 104 142 186 238 306 380 450
#     4  11  22  43  70 102 141 188 243 303 370 452
#     4  11  22  42  70 101 138 189 243 306 373 454
#
# _framework density 24.930275000000002
#
# number of rings (size 3 to 8) (size 9 to 14) (size 15 to 20)
#    0.000    1.231    3.077    4.154    0.000    4.308 
#    0.000    7.692    0.000    0.000    0.000    0.000 
#    0.000    0.000    0.000    0.000    0.000    0.000 
#
# Total GULP energy -289903.805226 kJ/mol
# GULP energy per Si atom -5575.073177 kJ/mol
# Density = 2.487353 g / cm^3
# Si number density = 24.930275 Si / 1000 Ang^3
#
#
#
# Elastic Constant Matrix: (Units=GPa)
#
#
# Indices 1 2 3 4 5 6 
#
# 1 52.0976 43.6336 27.3814 0.0000 0.0000 0.0000
# 2 43.6336 155.7901 39.0682 0.0000 0.0000 0.0000
# 3 27.3814 39.0682 87.1621 0.0000 0.0000 0.0000
# 4 0.0000 0.0000 0.0000 34.6013 0.0000 0.0000
# 5 0.0000 0.0000 0.0000 0.0000 29.9733 0.0000
# 6 0.0000 0.0000 0.0000 0.0000 0.0000 42.8301
#
#
#
# Elastic Compliance Matrix: (Units=1/GPa)
#
#
# Indices 1 2 3 4 5 6 
#
# 1 0.027485 -0.006233 -0.005840 0.000000 0.000000 0.000000
# 2 -0.006233 0.008645 -0.001917 0.000000 0.000000 0.000000
# 3 -0.005840 -0.001917 0.014167 0.000000 0.000000 0.000000
# 4 0.000000 0.000000 0.000000 0.028901 0.000000 0.000000
# 5 0.000000 0.000000 0.000000 0.000000 0.033363 0.000000
# 6 0.000000 0.000000 0.000000 0.000000 0.000000 0.023348
#
#
# Mechanical properties :
#
#
# Convention : Reuss Voigt Hill
#
# Bulk Modulus (GPa) = 44.81084 57.24626 51.02855
# Shear Modulus (GPa) = 29.18369 33.81206 31.49788
#
# Velocity S-wave (km/s) = 3.42513 3.68675 3.55834
# Velocity P-wave (km/s) = 5.80134 6.41367 6.11517
#
# Compressibility (1/GPa) = 0.02231603
#
# Stress axis : x y z
#
# Youngs Moduli (GPa) = 36.38362 115.66777 70.58780
#
# Poissons Ratio (x) = 0.72100 0.41225
# Poissons Ratio (y) = 0.22679 0.13531
# Poissons Ratio (z) = 0.21249 0.22173
#
# Static dielectric constant tensor:
#      x y z
#    x 2.185880 0.000000 0.000000 
#    y 0.000000 2.118570 0.000000 
#    z 0.000000 0.000000 2.012030 
# 
# From -- ./inp_files/67304.got.cif
#   From: 2010.05.17/outbox.cif.g08.bks.cpg/sg70_34_cif.got.tgz:67304.got - 2010.06.03 15:57:51.
