data_PCOD9515808
_publ_section_title
;
Structure prediction by ZEFSAII (Michael W. Deem and Ramdas Pophale) SiO2 
 PCOD9515808
Probable space group: F D D D
;
_chemical_formula_sum "Si O2"
_cell_formula_units_Z 176
_cell_length_a 20.701006
_cell_length_b 13.919082
_cell_length_c 26.505319
_cell_angle_alpha 90.000000
_cell_angle_beta 90.000000
_cell_angle_gamma 90.000000
_cell_volume 7637.216111
_symmetry_space_group_name_H-M "F D D D"
_symmetry_group_IT_number 70
_space_group.IT_coordinate_system_code '2'
_symmetry_cell_setting 'orthorhombic'
loop_
_space_group_symop_operation_xyz
x,y,z
1/4-x,1/4-y,z
x,1/4-y,1/4-z
1/4-x,y,1/4-z
-x,-y,-z
3/4+x,3/4+y,-z
-x,3/4+y,3/4+z
3/4+x,-y,3/4+z
x,1/2+y,1/2+z
1/4-x,3/4-y,1/2+z
x,3/4-y,3/4-z
1/4-x,1/2+y,3/4-z
-x,1/2-y,1/2-z
3/4+x,1/4+y,1/2-z
-x,1/4+y,1/4+z
3/4+x,1/2-y,1/4+z
1/2+x,y,1/2+z
3/4-x,1/4-y,1/2+z
1/2+x,1/4-y,3/4-z
3/4-x,y,3/4-z
1/2-x,-y,1/2-z
1/4+x,3/4+y,1/2-z
1/2-x,3/4+y,1/4+z
1/4+x,-y,1/4+z
1/2+x,1/2+y,z
3/4-x,3/4-y,z
1/2+x,3/4-y,1/4-z
3/4-x,1/2+y,1/4-z
1/2-x,1/2-y,-z
1/4+x,1/4+y,-z
1/2-x,1/4+y,3/4+z
1/4+x,1/2-y,3/4+z
loop_
_atom_site_type_symbol
_atom_site_label
_atom_site_fract_x
_atom_site_fract_y
_atom_site_fract_z
Si Si1 0.700657 0.519075 0.952819
Si Si2 0.510691 0.125000 0.125000
Si Si3 0.198455 0.735257 0.456089
Si Si4 0.248790 0.375000 0.875000
Si Si5 0.687872 0.754383 0.537135
Si Si6 0.625000 0.125000 0.960566
Si Si7 0.762221 0.050447 0.940777
O O1 0.717250 0.447459 0.907709
O O2 0.712635 0.628132 0.936098
O O3 0.626416 0.512887 0.970592
O O4 0.740490 0.490666 0.002353
O O5 0.552011 0.065525 0.084406
O O6 0.250000 0.750000 0.500000
O O7 0.207320 0.819356 0.416202
O O8 0.282317 0.286933 0.845515
O O9 0.750000 0.750000 0.500000
O O10 0.635350 0.714672 0.498564
O O11 0.686885 0.862296 0.557590
O O12 0.690540 0.097015 0.930625
#
# Coordination Sequence:
#
# PCOD9515808 Si02
#       7
#    32  16  32  16  32  16  32
#     4  11  24  44  71  98 139 179 229 291 353 414
#     4  12  21  43  70  98 136 181 227 280 364 412
#     4  11  25  45  69 102 133 179 239 289 340 424
#     4  12  25  44  77 100 136 189 241 276 362 418
#     4  10  22  40  66 102 142 178 230 292 348 418
#     4  10  22  43  70 102 148 178 236 297 366 414
#     4  11  24  44  69 105 142 185 234 297 347 431
#
# _framework density 23.045047
#
# number of rings (size 3 to 8) (size 9 to 14) (size 15 to 20)
#    0.000    1.091    5.455    1.636    2.545    4.727 
#    0.000    1.818    4.000    0.000    0.000    0.000 
#    0.000    0.000    0.000    0.000    0.000    0.000 
#
# Total GULP energy -245857.739147 kJ/mol
# GULP energy per Si atom -5587.675890 kJ/mol
# Density = 2.299260 g / cm^3
# Si number density = 23.045047 Si / 1000 Ang^3
#
#
#
# Elastic Constant Matrix: (Units=GPa)
#
#
# Indices 1 2 3 4 5 6 
#
# 1 45.0534 29.9097 28.3412 0.0000 0.0000 0.0000
# 2 29.9097 175.2434 47.0173 0.0000 0.0000 0.0000
# 3 28.3412 47.0173 112.5065 0.0000 0.0000 0.0000
# 4 0.0000 0.0000 0.0000 46.1480 0.0000 0.0000
# 5 0.0000 0.0000 0.0000 0.0000 35.1567 0.0000
# 6 0.0000 0.0000 0.0000 0.0000 0.0000 21.2247
#
#
#
# Elastic Compliance Matrix: (Units=1/GPa)
#
#
# Indices 1 2 3 4 5 6 
#
# 1 0.027920 -0.003242 -0.005679 0.000000 0.000000 0.000000
# 2 -0.003242 0.006803 -0.002027 0.000000 0.000000 0.000000
# 3 -0.005679 -0.002027 0.011166 0.000000 0.000000 0.000000
# 4 0.000000 0.000000 0.000000 0.021669 0.000000 0.000000
# 5 0.000000 0.000000 0.000000 0.000000 0.028444 0.000000
# 6 0.000000 0.000000 0.000000 0.000000 0.000000 0.047115
#
#
# Mechanical properties :
#
#
# Convention : Reuss Voigt Hill
#
# Bulk Modulus (GPa) = 41.67438 60.37107 51.02272
# Shear Modulus (GPa) = 28.90013 35.67491 32.28752
#
# Velocity S-wave (km/s) = 3.54513 3.93880 3.74714
# Velocity P-wave (km/s) = 5.90596 6.85123 6.39608
#
# Compressibility (1/GPa) = 0.02399556
#
# Stress axis : x y z
#
# Youngs Moduli (GPa) = 35.81652 146.98647 89.55956
#
# Poissons Ratio (x) = 0.47649 0.50857
# Poissons Ratio (y) = 0.11611 0.18150
# Poissons Ratio (z) = 0.20339 0.29788
#
# Static dielectric constant tensor:
#      x y z
#    x 1.851320 0.000000 0.000000 
#    y 0.000000 1.912230 0.000000 
#    z 0.000000 0.000000 1.844240 
# 
# From -- ./inp_files/53667.got.cif
#   From: 2010.05.17/outbox.cif.g08.bks.cpg/sg70_27_cif.got.tgz:53667.got - 2010.06.03 15:57:51.
