data_PCOD9515189
_publ_section_title
;
Structure prediction by ZEFSAII (Michael W. Deem and Ramdas Pophale) SiO2 
 PCOD9515189
Probable space group: F D D D
;
_chemical_formula_sum "Si O2"
_cell_formula_units_Z 216
_cell_length_a 27.883200
_cell_length_b 19.342967
_cell_length_c 20.280694
_cell_angle_alpha 90.000000
_cell_angle_beta 90.000000
_cell_angle_gamma 90.000000
_cell_volume 10938.266923
_symmetry_space_group_name_H-M "F D D D"
_symmetry_group_IT_number 70
_space_group.IT_coordinate_system_code '2'
_symmetry_cell_setting 'orthorhombic'
loop_
_space_group_symop_operation_xyz
x,y,z
1/4-x,1/4-y,z
x,1/4-y,1/4-z
1/4-x,y,1/4-z
-x,-y,-z
3/4+x,3/4+y,-z
-x,3/4+y,3/4+z
3/4+x,-y,3/4+z
x,1/2+y,1/2+z
1/4-x,3/4-y,1/2+z
x,3/4-y,3/4-z
1/4-x,1/2+y,3/4-z
-x,1/2-y,1/2-z
3/4+x,1/4+y,1/2-z
-x,1/4+y,1/4+z
3/4+x,1/2-y,1/4+z
1/2+x,y,1/2+z
3/4-x,1/4-y,1/2+z
1/2+x,1/4-y,3/4-z
3/4-x,y,3/4-z
1/2-x,-y,1/2-z
1/4+x,3/4+y,1/2-z
1/2-x,3/4+y,1/4+z
1/4+x,-y,1/4+z
1/2+x,1/2+y,z
3/4-x,3/4-y,z
1/2+x,3/4-y,1/4-z
3/4-x,1/2+y,1/4-z
1/2-x,1/2-y,-z
1/4+x,1/4+y,-z
1/2-x,1/4+y,3/4+z
1/4+x,1/2-y,3/4+z
loop_
_atom_site_type_symbol
_atom_site_label
_atom_site_fract_x
_atom_site_fract_y
_atom_site_fract_z
Si Si1 0.445035 0.435714 0.761025
Si Si2 0.820967 0.053442 0.646389
Si Si3 0.826919 0.245693 0.125646
Si Si4 0.032205 0.568007 0.989968
Si Si5 0.974149 0.570582 0.479330
Si Si6 0.246798 0.125000 0.625000
Si Si7 0.625000 0.125000 0.625000
Si Si8 0.244883 0.803649 0.660469
O O1 0.421255 0.454865 0.690446
O O2 0.487013 0.379889 0.745836
O O3 0.410256 0.412738 0.821500
O O4 0.470262 0.504304 0.787496
O O5 0.796057 0.125000 0.625000
O O6 0.874178 0.046366 0.621196
O O7 0.822089 0.065512 0.724772
O O8 0.790281 0.988832 0.619799
O O9 0.823706 0.289438 0.057862
O O10 0.782362 0.191718 0.133752
O O11 0.007754 0.625188 0.944210
O O12 0.035395 0.605096 0.061257
O O13 0.000000 0.500000 0.000000
O O14 0.000000 0.500000 0.500000
O O15 0.962575 0.569419 0.402953
#
# Coordination Sequence:
#
# PCOD9515189 Si02
#       8
#    32  32  32  32  32  16   8  32
#     4  12  24  40  60  91 131 169 210 255 313 389
#     4  11  22  38  63  91 126 161 212 267 318 386
#     4  11  23  38  65  96 122 160 216 265 320 377
#     4  10  22  40  65  95 120 167 220 274 328 386
#     4  10  22  39  60  85 123 170 209 249 316 392
#     4  10  20  42  65  91 122 158 210 272 320 382
#     4  12  28  36  54  96 140 166 200 264 316 372
#     4  11  22  40  63  89 124 173 217 255 324 398
#
# _framework density 19.747187
#
# number of rings (size 3 to 8) (size 9 to 14) (size 15 to 20)
#    0.000    1.185    5.185    1.778    6.222    0.593 
#    0.000    0.000    0.000    1.778    0.000    0.000 
#    0.000    0.000    0.000    0.000    0.000    0.000 
#
# Total GULP energy -300666.461597 kJ/mol
# GULP energy per Si atom -5567.897437 kJ/mol
# Density = 1.970224 g / cm^3
# Si number density = 19.747187 Si / 1000 Ang^3
#
#
#
# Elastic Constant Matrix: (Units=GPa)
#
#
# Indices 1 2 3 4 5 6 
#
# 1 24.1129 -0.2053 5.7937 0.0000 0.0000 0.0000
# 2 -0.2053 88.0734 19.0919 0.0000 0.0000 0.0000
# 3 5.7937 19.0919 140.5991 0.0000 0.0000 0.0000
# 4 0.0000 0.0000 0.0000 37.9651 0.0000 0.0000
# 5 0.0000 0.0000 0.0000 0.0000 6.8599 0.0000
# 6 0.0000 0.0000 0.0000 0.0000 0.0000 13.3473
#
#
#
# Elastic Compliance Matrix: (Units=1/GPa)
#
#
# Indices 1 2 3 4 5 6 
#
# 1 0.041907 0.000486 -0.001793 0.000000 0.000000 0.000000
# 2 0.000486 0.011704 -0.001609 0.000000 0.000000 0.000000
# 3 -0.001793 -0.001609 0.007405 0.000000 0.000000 0.000000
# 4 0.000000 0.000000 0.000000 0.026340 0.000000 0.000000
# 5 0.000000 0.000000 0.000000 0.000000 0.145775 0.000000
# 6 0.000000 0.000000 0.000000 0.000000 0.000000 0.074921
#
#
# Mechanical properties :
#
#
# Convention : Reuss Voigt Hill
#
# Bulk Modulus (GPa) = 18.12130 33.57179 25.84654
# Shear Modulus (GPa) = 15.04765 26.84147 20.94456
#
# Velocity S-wave (km/s) = 2.76346 3.69081 3.26027
# Velocity P-wave (km/s) = 4.40214 5.93300 5.22395
#
# Compressibility (1/GPa) = 0.05518369
#
# Stress axis : x y z
#
# Youngs Moduli (GPa) = 23.86264 85.43975 135.04696
#
# Poissons Ratio (x) = -0.04155 0.24213
# Poissons Ratio (y) = -0.01161 0.21734
# Poissons Ratio (z) = 0.04278 0.13750
#
# Static dielectric constant tensor:
#      x y z
#    x 1.665330 0.000000 0.000000 
#    y 0.000000 1.560580 0.000000 
#    z 0.000000 0.000000 1.795080 
# 
# From -- ./inp_files/45255.got.cif
#   From: 2010.05.17/outbox.cif.g08.bks.cpg/sg70_23_cif.got.tgz:45255.got - 2010.06.03 15:57:51.
