data_PCOD9515014
_publ_section_title
;
Structure prediction by ZEFSAII (Michael W. Deem and Ramdas Pophale) SiO2 
 PCOD9515014
Probable space group: F D D D
;
_chemical_formula_sum "Si O2"
_cell_formula_units_Z 208
_cell_length_a 16.878198
_cell_length_b 29.181156
_cell_length_c 23.061547
_cell_angle_alpha 90.000000
_cell_angle_beta 90.000000
_cell_angle_gamma 90.000000
_cell_volume 11358.396020
_symmetry_space_group_name_H-M "F D D D"
_symmetry_group_IT_number 70
_space_group.IT_coordinate_system_code '2'
_symmetry_cell_setting 'orthorhombic'
loop_
_space_group_symop_operation_xyz
x,y,z
1/4-x,1/4-y,z
x,1/4-y,1/4-z
1/4-x,y,1/4-z
-x,-y,-z
3/4+x,3/4+y,-z
-x,3/4+y,3/4+z
3/4+x,-y,3/4+z
x,1/2+y,1/2+z
1/4-x,3/4-y,1/2+z
x,3/4-y,3/4-z
1/4-x,1/2+y,3/4-z
-x,1/2-y,1/2-z
3/4+x,1/4+y,1/2-z
-x,1/4+y,1/4+z
3/4+x,1/2-y,1/4+z
1/2+x,y,1/2+z
3/4-x,1/4-y,1/2+z
1/2+x,1/4-y,3/4-z
3/4-x,y,3/4-z
1/2-x,-y,1/2-z
1/4+x,3/4+y,1/2-z
1/2-x,3/4+y,1/4+z
1/4+x,-y,1/4+z
1/2+x,1/2+y,z
3/4-x,3/4-y,z
1/2+x,3/4-y,1/4-z
3/4-x,1/2+y,1/4-z
1/2-x,1/2-y,-z
1/4+x,1/4+y,-z
1/2-x,1/4+y,3/4+z
1/4+x,1/2-y,3/4+z
loop_
_atom_site_type_symbol
_atom_site_label
_atom_site_fract_x
_atom_site_fract_y
_atom_site_fract_z
Si Si1 0.875000 0.375000 0.213623
Si Si2 0.827057 0.040464 0.434211
Si Si3 0.285021 0.145469 0.218387
Si Si4 0.918403 0.472004 0.012230
Si Si5 0.154395 0.813186 0.391822
Si Si6 0.759713 0.625000 0.625000
Si Si7 0.125000 0.625000 0.215636
Si Si8 0.105638 0.216720 0.898526
O O1 0.800713 0.363891 0.254742
O O2 0.859004 0.419321 0.172855
O O3 0.875000 0.046996 0.375000
O O4 0.835077 0.082613 0.479153
O O5 0.735306 0.034347 0.418930
O O6 0.857792 0.996654 0.468964
O O7 0.287893 0.180532 0.163679
O O8 0.320238 0.099414 0.190762
O O9 0.896007 0.474135 0.079471
O O10 0.911763 0.418095 0.999047
O O11 0.000000 0.500000 0.000000
O O12 0.069218 0.831851 0.367517
O O13 0.148551 0.763052 0.418384
O O14 0.699674 0.638867 0.675791
#
# Coordination Sequence:
#
# PCOD9515014 Si02
#       8
#    16  32  32  32  32  16  16  32
#     4  10  23  41  61  90 122 158 201 260 332 362
#     4  11  22  37  59  87 124 162 199 247 318 379
#     4   9  21  39  62  88 115 160 204 258 309 375
#     4  12  23  36  58  86 123 170 205 247 310 374
#     4  10  20  38  66  85 115 161 210 259 309 377
#     4   9  20  34  52  87 120 148 206 249 304 358
#     4  11  23  32  51  86 123 160 203 251 296 380
#     4  11  22  39  59  87 122 158 202 258 309 380
#
# _framework density 18.312445
#
# number of rings (size 3 to 8) (size 9 to 14) (size 15 to 20)
#    0.000    1.692    3.077    2.308    4.308    1.846 
#    0.000    0.000    0.000    0.000    0.000    0.000 
#    0.000    0.000    0.000    0.000    0.000    0.000 
#
# Total GULP energy -289759.512500 kJ/mol
# GULP energy per Si atom -5572.298317 kJ/mol
# Density = 1.827076 g / cm^3
# Si number density = 18.312445 Si / 1000 Ang^3
#
#
#
# Elastic Constant Matrix: (Units=GPa)
#
#
# Indices 1 2 3 4 5 6 
#
# 1 45.3724 28.2893 18.5756 0.0000 0.0000 0.0000
# 2 28.2893 136.0407 46.7005 0.0000 0.0000 0.0000
# 3 18.5756 46.7005 104.8826 0.0000 0.0000 0.0000
# 4 0.0000 0.0000 0.0000 22.0004 0.0000 0.0000
# 5 0.0000 0.0000 0.0000 0.0000 -298.0097 0.0000
# 6 0.0000 0.0000 0.0000 0.0000 0.0000 21.5678
#
#
#
# Elastic Compliance Matrix: (Units=1/GPa)
#
#
# Indices 1 2 3 4 5 6 
#
# 1 0.025903 -0.004499 -0.002584 0.000000 0.000000 0.000000
# 2 -0.004499 0.009459 -0.003415 0.000000 0.000000 0.000000
# 3 -0.002584 -0.003415 0.011513 0.000000 0.000000 0.000000
# 4 0.000000 0.000000 0.000000 0.045454 0.000000 0.000000
# 5 0.000000 0.000000 0.000000 0.000000 -0.003356 0.000000
# 6 0.000000 0.000000 0.000000 0.000000 0.000000 0.046366
#
#
# Mechanical properties :
#
#
# Convention : Reuss Voigt Hill
#
# Bulk Modulus (GPa) = 38.64334 52.60296 45.62315
# Shear Modulus (GPa) = 30.31029 -38.03961 -3.86466
#
# Velocity S-wave (km/s) = 4.07280 -4.56264 -1.45430
# Velocity P-wave (km/s) = 6.57761 1.01526 4.70615
#
# Compressibility (1/GPa) = 0.02587768
#
# Stress axis : x y z
#
# Youngs Moduli (GPa) = 38.60537 105.72419 86.86132
#
# Poissons Ratio (x) = 0.47569 0.22447
# Poissons Ratio (y) = 0.17370 0.29660
# Poissons Ratio (z) = 0.09977 0.36102
#
# Static dielectric constant tensor:
#      x y z
#    x 1.631580 0.000000 0.000000 
#    y 0.000000 1.711720 0.000000 
#    z 0.000000 0.000000 1.651830 
# 
# From -- ./inp_files/44104.got.cif
#   From: 2010.05.17/outbox.cif.g08.bks.cpg/sg70_23_cif.got.tgz:44104.got - 2010.06.03 15:57:51.
