data_PCOD9515093
_publ_section_title
;
Structure prediction by ZEFSAII (Michael W. Deem and Ramdas Pophale) SiO2 
 PCOD9515093
Probable space group: F D D D
;
_chemical_formula_sum "Si O2"
_cell_formula_units_Z 216
_cell_length_a 25.835984
_cell_length_b 12.029556
_cell_length_c 26.512641
_cell_angle_alpha 90.000000
_cell_angle_beta 90.000000
_cell_angle_gamma 90.000000
_cell_volume 8240.007298
_symmetry_space_group_name_H-M "F D D D"
_symmetry_group_IT_number 70
_space_group.IT_coordinate_system_code '2'
_symmetry_cell_setting 'orthorhombic'
loop_
_space_group_symop_operation_xyz
x,y,z
1/4-x,1/4-y,z
x,1/4-y,1/4-z
1/4-x,y,1/4-z
-x,-y,-z
3/4+x,3/4+y,-z
-x,3/4+y,3/4+z
3/4+x,-y,3/4+z
x,1/2+y,1/2+z
1/4-x,3/4-y,1/2+z
x,3/4-y,3/4-z
1/4-x,1/2+y,3/4-z
-x,1/2-y,1/2-z
3/4+x,1/4+y,1/2-z
-x,1/4+y,1/4+z
3/4+x,1/2-y,1/4+z
1/2+x,y,1/2+z
3/4-x,1/4-y,1/2+z
1/2+x,1/4-y,3/4-z
3/4-x,y,3/4-z
1/2-x,-y,1/2-z
1/4+x,3/4+y,1/2-z
1/2-x,3/4+y,1/4+z
1/4+x,-y,1/4+z
1/2+x,1/2+y,z
3/4-x,3/4-y,z
1/2+x,3/4-y,1/4-z
3/4-x,1/2+y,1/4-z
1/2-x,1/2-y,-z
1/4+x,1/4+y,-z
1/2-x,1/4+y,3/4+z
1/4+x,1/2-y,3/4+z
loop_
_atom_site_type_symbol
_atom_site_label
_atom_site_fract_x
_atom_site_fract_y
_atom_site_fract_z
Si Si1 0.125000 0.625000 0.625000
Si Si2 0.814608 0.743685 0.106818
Si Si3 0.430208 0.835882 0.251363
Si Si4 0.056194 0.491819 0.036064
Si Si5 0.362344 0.750138 0.707883
Si Si6 0.454663 0.698307 0.349182
Si Si7 0.125000 0.979944 0.625000
Si Si8 0.500367 0.703178 0.491667
O O1 0.170498 0.530189 0.615787
O O2 0.792038 0.625000 0.125000
O O3 0.831809 0.765199 0.049470
O O4 0.861333 0.749995 0.147081
O O5 0.764742 0.821433 0.111271
O O6 0.375000 0.875000 0.274003
O O7 0.455997 0.760841 0.294443
O O8 0.463205 0.947516 0.240984
O O9 0.091677 0.532445 0.081236
O O10 0.019644 0.597993 0.025595
O O11 0.092177 0.445128 0.989625
O O12 0.026982 0.377268 0.049719
O O13 0.375000 0.875000 0.723131
O O14 0.302876 0.735893 0.723679
O O15 0.418539 0.591320 0.345183
#
# Coordination Sequence:
#
# PCOD9515093 Si02
#       8
#     8  32  32  32  32  32  16  32
#     4  10  20  40  60  98 136 190 218 308 374 442
#     4  12  26  40  68 104 145 194 249 307 387 457
#     4  12  26  44  72 108 149 195 255 320 380 465
#     4  10  23  45  78 107 146 203 250 317 379 460
#     4  10  23  46  71  96 144 196 247 300 374 454
#     4  11  23  41  67 107 147 185 247 315 382 454
#     4  11  24  39  77 111 150 190 260 315 389 442
#     4  10  23  46  74 103 148 197 251 308 385 454
#
# _framework density 26.213569
#
# number of rings (size 3 to 8) (size 9 to 14) (size 15 to 20)
#    0.000    1.185    1.481    3.556    8.296    0.000 
#    0.000    3.333    9.778    0.000    0.000    0.000 
#    0.000    0.000    0.000    0.000    0.000    0.000 
#
# Total GULP energy -301023.175470 kJ/mol
# GULP energy per Si atom -5574.503249 kJ/mol
# Density = 2.615391 g / cm^3
# Si number density = 26.213569 Si / 1000 Ang^3
#
#
#
# Elastic Constant Matrix: (Units=GPa)
#
#
# Indices 1 2 3 4 5 6 
#
# 1 104.0902 18.2032 31.4580 0.0000 0.0000 0.0000
# 2 18.2032 96.3145 35.4999 0.0000 0.0000 0.0000
# 3 31.4580 35.4999 144.0335 0.0000 0.0000 0.0000
# 4 0.0000 0.0000 0.0000 33.2876 0.0000 0.0000
# 5 0.0000 0.0000 0.0000 0.0000 26.0891 0.0000
# 6 0.0000 0.0000 0.0000 0.0000 0.0000 110.2650
#
#
#
# Elastic Compliance Matrix: (Units=1/GPa)
#
#
# Indices 1 2 3 4 5 6 
#
# 1 0.010420 -0.001243 -0.001969 0.000000 0.000000 0.000000
# 2 -0.001243 0.011568 -0.002580 0.000000 0.000000 0.000000
# 3 -0.001969 -0.002580 0.008009 0.000000 0.000000 0.000000
# 4 0.000000 0.000000 0.000000 0.030041 0.000000 0.000000
# 5 0.000000 0.000000 0.000000 0.000000 0.038330 0.000000
# 6 0.000000 0.000000 0.000000 0.000000 0.000000 0.009069
#
#
# Mechanical properties :
#
#
# Convention : Reuss Voigt Hill
#
# Bulk Modulus (GPa) = 54.31221 57.19561 55.75391
# Shear Modulus (GPa) = 39.94902 51.21348 45.58125
#
# Velocity S-wave (km/s) = 3.90806 4.42486 4.17447
# Velocity P-wave (km/s) = 6.41311 6.92621 6.67459
#
# Compressibility (1/GPa) = 0.01841207
#
# Stress axis : x y z
#
# Youngs Moduli (GPa) = 95.97248 86.44169 124.86346
#
# Poissons Ratio (x) = 0.10749 0.24589
# Poissons Ratio (y) = 0.11934 0.32211
# Poissons Ratio (z) = 0.18899 0.22299
#
# Static dielectric constant tensor:
#      x y z
#    x 2.204780 0.000000 0.000000 
#    y 0.000000 2.123180 0.000000 
#    z 0.000000 0.000000 0.969330 
# 
# From -- ./inp_files/61806.got.cif
#   From: 2010.05.17/outbox.cif.g08.bks.cpg/sg70_31_cif.got.tgz:61806.got - 2010.06.03 15:57:51.
