data_PCOD9515237
_publ_section_title
;
Structure prediction by ZEFSAII (Michael W. Deem and Ramdas Pophale) SiO2 
 PCOD9515237
Probable space group: F D D D
;
_chemical_formula_sum "Si O2"
_cell_formula_units_Z 176
_cell_length_a 26.327899
_cell_length_b 11.924292
_cell_length_c 25.823863
_cell_angle_alpha 90.000000
_cell_angle_beta 90.000000
_cell_angle_gamma 90.000000
_cell_volume 8107.183717
_symmetry_space_group_name_H-M "F D D D"
_symmetry_group_IT_number 70
_space_group.IT_coordinate_system_code '2'
_symmetry_cell_setting 'orthorhombic'
loop_
_space_group_symop_operation_xyz
x,y,z
1/4-x,1/4-y,z
x,1/4-y,1/4-z
1/4-x,y,1/4-z
-x,-y,-z
3/4+x,3/4+y,-z
-x,3/4+y,3/4+z
3/4+x,-y,3/4+z
x,1/2+y,1/2+z
1/4-x,3/4-y,1/2+z
x,3/4-y,3/4-z
1/4-x,1/2+y,3/4-z
-x,1/2-y,1/2-z
3/4+x,1/4+y,1/2-z
-x,1/4+y,1/4+z
3/4+x,1/2-y,1/4+z
1/2+x,y,1/2+z
3/4-x,1/4-y,1/2+z
1/2+x,1/4-y,3/4-z
3/4-x,y,3/4-z
1/2-x,-y,1/2-z
1/4+x,3/4+y,1/2-z
1/2-x,3/4+y,1/4+z
1/4+x,-y,1/4+z
1/2+x,1/2+y,z
3/4-x,3/4-y,z
1/2+x,3/4-y,1/4-z
3/4-x,1/2+y,1/4-z
1/2-x,1/2-y,-z
1/4+x,1/4+y,-z
1/2-x,1/4+y,3/4+z
1/4+x,1/2-y,3/4+z
loop_
_atom_site_type_symbol
_atom_site_label
_atom_site_fract_x
_atom_site_fract_y
_atom_site_fract_z
Si Si1 0.119485 0.491242 0.566796
Si Si2 0.973065 0.102331 0.315413
Si Si3 0.083695 0.722324 0.467066
Si Si4 0.181810 0.375000 0.375000
Si Si5 0.433804 0.376108 0.269433
Si Si6 0.746079 0.309459 0.072028
O O1 0.125000 0.625000 0.571848
O O2 0.125000 0.443993 0.625000
O O3 0.064835 0.448922 0.546344
O O4 0.160140 0.464515 0.521957
O O5 0.982190 0.124985 0.376179
O O6 0.028064 0.081157 0.290292
O O7 0.944554 0.983818 0.305469
O O8 0.125000 0.625000 0.465785
O O9 0.095650 0.804474 0.419242
O O10 0.216286 0.288081 0.406782
O O11 0.375000 0.375000 0.253905
O O12 0.472296 0.377475 0.220678
O O13 0.449809 0.262536 0.298850
#
# Coordination Sequence:
#
# PCOD9515237 Si02
#       6
#    32  32  32  16  32  32
#     4  10  25  45  70  98 133 184 239 292 347 412
#     4  11  24  42  68  99 138 185 220 295 350 418
#     4  10  23  45  67  96 139 182 235 284 346 417
#     4  10  20  44  65  94 144 184 213 292 346 404
#     4  11  24  37  65 104 134 178 229 283 355 426
#     4  10  22  41  61  97 146 173 226 284 351 416
#
# _framework density 21.709140999999999
#
# number of rings (size 3 to 8) (size 9 to 14) (size 15 to 20)
#    0.000    1.636    3.636    0.000    7.636    6.545 
#    0.000    1.818    0.000    0.000    0.000    0.000 
#    0.000    0.000    0.000    0.000    0.000    0.000 
#
# Total GULP energy -245628.145989 kJ/mol
# GULP energy per Si atom -5582.457863 kJ/mol
# Density = 2.165973 g / cm^3
# Si number density = 21.709141 Si / 1000 Ang^3
#
#
#
# Elastic Constant Matrix: (Units=GPa)
#
#
# Indices 1 2 3 4 5 6 
#
# 1 145.3522 32.8349 45.8970 0.0000 0.0000 0.0000
# 2 32.8349 55.2833 24.4627 0.0000 0.0000 0.0000
# 3 45.8970 24.4627 136.3824 0.0000 0.0000 0.0000
# 4 0.0000 0.0000 0.0000 19.3161 0.0000 0.0000
# 5 0.0000 0.0000 0.0000 0.0000 23.4307 0.0000
# 6 0.0000 0.0000 0.0000 0.0000 0.0000 25.8461
#
#
#
# Elastic Compliance Matrix: (Units=1/GPa)
#
#
# Indices 1 2 3 4 5 6 
#
# 1 0.008474 -0.004096 -0.002117 0.000000 0.000000 0.000000
# 2 -0.004096 0.021628 -0.002501 0.000000 0.000000 0.000000
# 3 -0.002117 -0.002501 0.008493 0.000000 0.000000 0.000000
# 4 0.000000 0.000000 0.000000 0.051770 0.000000 0.000000
# 5 0.000000 0.000000 0.000000 0.000000 0.042679 0.000000
# 6 0.000000 0.000000 0.000000 0.000000 0.000000 0.038691
#
#
# Mechanical properties :
#
#
# Convention : Reuss Voigt Hill
#
# Bulk Modulus (GPa) = 47.24298 60.37859 53.81078
# Shear Modulus (GPa) = 25.48178 29.30679 27.39428
#
# Velocity S-wave (km/s) = 3.42977 3.67819 3.55615
# Velocity P-wave (km/s) = 6.12319 6.77581 6.45775
#
# Compressibility (1/GPa) = 0.02116717
#
# Stress axis : x y z
#
# Youngs Moduli (GPa) = 118.01378 46.23605 117.73944
#
# Poissons Ratio (x) = 0.18939 0.24925
# Poissons Ratio (y) = 0.48339 0.29446
# Poissons Ratio (z) = 0.24983 0.11563
#
# Static dielectric constant tensor:
#      x y z
#    x 1.801810 0.000000 0.000000 
#    y 0.000000 1.794980 0.000000 
#    z 0.000000 0.000000 1.875560 
# 
# From -- ./inp_files/61672.got.cif
#   From: 2010.05.17/outbox.cif.g08.bks.cpg/sg70_31_cif.got.tgz:61672.got - 2010.06.03 15:57:51.
