data_PCOD9515884
_publ_section_title
;
Structure prediction by ZEFSAII (Michael W. Deem and Ramdas Pophale) SiO2 
 PCOD9515884
Probable space group: F D D D
;
_chemical_formula_sum "Si O2"
_cell_formula_units_Z 176
_cell_length_a 25.836216
_cell_length_b 13.349447
_cell_length_c 26.415379
_cell_angle_alpha 90.000000
_cell_angle_beta 90.000000
_cell_angle_gamma 90.000000
_cell_volume 9110.642984
_symmetry_space_group_name_H-M "F D D D"
_symmetry_group_IT_number 70
_space_group.IT_coordinate_system_code '2'
_symmetry_cell_setting 'orthorhombic'
loop_
_space_group_symop_operation_xyz
x,y,z
1/4-x,1/4-y,z
x,1/4-y,1/4-z
1/4-x,y,1/4-z
-x,-y,-z
3/4+x,3/4+y,-z
-x,3/4+y,3/4+z
3/4+x,-y,3/4+z
x,1/2+y,1/2+z
1/4-x,3/4-y,1/2+z
x,3/4-y,3/4-z
1/4-x,1/2+y,3/4-z
-x,1/2-y,1/2-z
3/4+x,1/4+y,1/2-z
-x,1/4+y,1/4+z
3/4+x,1/2-y,1/4+z
1/2+x,y,1/2+z
3/4-x,1/4-y,1/2+z
1/2+x,1/4-y,3/4-z
3/4-x,y,3/4-z
1/2-x,-y,1/2-z
1/4+x,3/4+y,1/2-z
1/2-x,3/4+y,1/4+z
1/4+x,-y,1/4+z
1/2+x,1/2+y,z
3/4-x,3/4-y,z
1/2+x,3/4-y,1/4-z
3/4-x,1/2+y,1/4-z
1/2-x,1/2-y,-z
1/4+x,1/4+y,-z
1/2-x,1/4+y,3/4+z
1/4+x,1/2-y,3/4+z
loop_
_atom_site_type_symbol
_atom_site_label
_atom_site_fract_x
_atom_site_fract_y
_atom_site_fract_z
Si Si1 0.025373 0.483174 0.446376
Si Si2 0.125000 0.625000 0.298094
Si Si3 0.086182 0.423143 0.668715
Si Si4 0.875112 0.648696 0.222309
Si Si5 0.274516 0.846516 0.118468
Si Si6 0.306343 0.875000 0.375000
Si Si7 0.300548 0.625000 0.125000
O O1 0.073572 0.408758 0.453829
O O2 0.037156 0.587741 0.418232
O O3 0.000000 0.500000 0.500000
O O4 0.981438 0.434734 0.411887
O O5 0.131472 0.731439 0.270028
O O6 0.073645 0.636277 0.332174
O O7 0.125000 0.383152 0.625000
O O8 0.105267 0.396672 0.724711
O O9 0.084859 0.542682 0.659305
O O10 0.028387 0.383538 0.657682
O O11 0.914700 0.633766 0.175659
O O12 0.269768 0.728651 0.129304
#
# Coordination Sequence:
#
# PCOD9515884 Si02
#       7
#    32  16  32  32  32  16  16
#     4  11  22  38  66  96 127 171 223 278 334 409
#     4  10  22  42  69  90 128 177 222 292 328 394
#     4  11  24  43  61  95 139 173 216 273 357 415
#     4  11  22  41  65  99 128 175 228 281 346 404
#     4  10  22  44  62  97 131 172 227 279 340 399
#     4  10  22  42  62  89 136 171 207 283 332 400
#     4  10  23  40  67  93 128 173 234 288 322 408
#
# _framework density 19.318066000000002
#
# number of rings (size 3 to 8) (size 9 to 14) (size 15 to 20)
#    0.000    1.455    0.000    7.364    2.545    2.909 
#    9.818    0.000    0.000    0.000    0.000    0.000 
#    0.000    0.000    0.000    0.000    0.000    0.000 
#
# Total GULP energy -245603.044338 kJ/mol
# GULP energy per Si atom -5581.887371 kJ/mol
# Density = 1.927410 g / cm^3
# Si number density = 19.318066 Si / 1000 Ang^3
#
#
#
# Elastic Constant Matrix: (Units=GPa)
#
#
# Indices 1 2 3 4 5 6 
#
# 1 70.8844 32.6697 17.6187 0.0000 0.0000 0.0000
# 2 32.6697 181.9342 56.2558 0.0000 0.0000 0.0000
# 3 17.6187 56.2558 131.7672 0.0000 0.0000 0.0000
# 4 0.0000 0.0000 0.0000 17.2758 0.0000 0.0000
# 5 0.0000 0.0000 0.0000 0.0000 34.1286 0.0000
# 6 0.0000 0.0000 0.0000 0.0000 0.0000 27.1137
#
#
#
# Elastic Compliance Matrix: (Units=1/GPa)
#
#
# Indices 1 2 3 4 5 6 
#
# 1 0.015498 -0.002468 -0.001019 0.000000 0.000000 0.000000
# 2 -0.002468 0.006725 -0.002541 0.000000 0.000000 0.000000
# 3 -0.001019 -0.002541 0.008810 0.000000 0.000000 0.000000
# 4 0.000000 0.000000 0.000000 0.057884 0.000000 0.000000
# 5 0.000000 0.000000 0.000000 0.000000 0.029301 0.000000
# 6 0.000000 0.000000 0.000000 0.000000 0.000000 0.036882
#
#
# Mechanical properties :
#
#
# Convention : Reuss Voigt Hill
#
# Bulk Modulus (GPa) = 52.69246 66.40824 59.55035
# Shear Modulus (GPa) = 28.82128 34.23972 31.53050
#
# Velocity S-wave (km/s) = 3.86675 4.21458 4.04440
# Velocity P-wave (km/s) = 6.87540 7.62459 7.25967
#
# Compressibility (1/GPa) = 0.01897805
#
# Stress axis : x y z
#
# Youngs Moduli (GPa) = 64.52394 148.68840 113.50328
#
# Poissons Ratio (x) = 0.36697 0.11561
# Poissons Ratio (y) = 0.15925 0.28845
# Poissons Ratio (z) = 0.06572 0.37787
#
# Static dielectric constant tensor:
#      x y z
#    x 1.653750 0.000000 0.000000 
#    y 0.000000 1.707600 0.000000 
#    z 0.000000 0.000000 1.625990 
# 
# From -- ./inp_files/21010.got.cif
#   From: 2010.05.17/outbox.cif.g08.bks.cpg/sg70_11_cif.got.tgz:21010.got - 2010.06.03 15:57:51.
