data_PCOD9515115
_publ_section_title
;
Structure prediction by ZEFSAII (Michael W. Deem and Ramdas Pophale) SiO2 
 PCOD9515115
Probable space group: F D D D
;
_chemical_formula_sum "Si O2"
_cell_formula_units_Z 112
_cell_length_a 7.681596
_cell_length_b 24.378144
_cell_length_c 26.816767
_cell_angle_alpha 90.000000
_cell_angle_beta 90.000000
_cell_angle_gamma 90.000000
_cell_volume 5021.789672
_symmetry_space_group_name_H-M "F D D D"
_symmetry_group_IT_number 70
_space_group.IT_coordinate_system_code '2'
_symmetry_cell_setting 'orthorhombic'
loop_
_space_group_symop_operation_xyz
x,y,z
1/4-x,1/4-y,z
x,1/4-y,1/4-z
1/4-x,y,1/4-z
-x,-y,-z
3/4+x,3/4+y,-z
-x,3/4+y,3/4+z
3/4+x,-y,3/4+z
x,1/2+y,1/2+z
1/4-x,3/4-y,1/2+z
x,3/4-y,3/4-z
1/4-x,1/2+y,3/4-z
-x,1/2-y,1/2-z
3/4+x,1/4+y,1/2-z
-x,1/4+y,1/4+z
3/4+x,1/2-y,1/4+z
1/2+x,y,1/2+z
3/4-x,1/4-y,1/2+z
1/2+x,1/4-y,3/4-z
3/4-x,y,3/4-z
1/2-x,-y,1/2-z
1/4+x,3/4+y,1/2-z
1/2-x,3/4+y,1/4+z
1/4+x,-y,1/4+z
1/2+x,1/2+y,z
3/4-x,3/4-y,z
1/2+x,3/4-y,1/4-z
3/4-x,1/2+y,1/4-z
1/2-x,1/2-y,-z
1/4+x,1/4+y,-z
1/2-x,1/4+y,3/4+z
1/4+x,1/2-y,3/4+z
loop_
_atom_site_type_symbol
_atom_site_label
_atom_site_fract_x
_atom_site_fract_y
_atom_site_fract_z
Si Si1 0.729058 0.004756 0.332519
Si Si2 0.986640 0.938703 0.980153
Si Si3 0.839373 0.164532 0.000437
Si Si4 0.125000 0.221967 0.125000
O O1 0.875000 0.000536 0.375000
O O2 0.762518 0.057692 0.298397
O O3 0.535640 0.006959 0.354719
O O4 0.728685 0.950450 0.297130
O O5 0.797692 0.923306 0.001631
O O6 0.154039 0.901209 0.993211
O O7 0.956232 0.937672 0.920573
O O8 0.000000 0.000000 0.000000
#
# Coordination Sequence:
#
# PCOD9515115 Si02
#       4
#    32  32  32  16
#     4  10  20  40  65  96 138 177 226 281 345 419
#     4  10  20  40  66  93 134 181 228 284 340 405
#     4   9  21  39  62  95 135 175 226 285 335 410
#     4  10  22  39  64  96 132 180 234 280 339 416
#
# _framework density 22.302806
#
# number of rings (size 3 to 8) (size 9 to 14) (size 15 to 20)
#    0.000    2.286    0.000    1.714    0.000    9.143 
#    2.571   27.143    0.000    0.000    0.000    0.000 
#    0.000    0.000    0.000    0.000    0.000    0.000 
#
# Total GULP energy -156287.621901 kJ/mol
# GULP energy per Si atom -5581.700782 kJ/mol
# Density = 2.225204 g / cm^3
# Si number density = 22.302806 Si / 1000 Ang^3
#
#
#
# Elastic Constant Matrix: (Units=GPa)
#
#
# Indices 1 2 3 4 5 6 
#
# 1 125.5717 52.4596 85.9237 0.0000 0.0000 0.0000
# 2 52.4596 148.9954 71.3897 0.0000 0.0000 0.0000
# 3 85.9237 71.3897 105.3387 0.0000 0.0000 0.0000
# 4 0.0000 0.0000 0.0000 29.9783 0.0000 0.0000
# 5 0.0000 0.0000 0.0000 0.0000 83.4343 0.0000
# 6 0.0000 0.0000 0.0000 0.0000 0.0000 28.0534
#
#
#
# Elastic Compliance Matrix: (Units=1/GPa)
#
#
# Indices 1 2 3 4 5 6 
#
# 1 0.018131 0.001040 -0.015494 0.000000 0.000000 0.000000
# 2 0.001040 0.009999 -0.007625 0.000000 0.000000 0.000000
# 3 -0.015494 -0.007625 0.027299 0.000000 0.000000 0.000000
# 4 0.000000 0.000000 0.000000 0.033357 0.000000 0.000000
# 5 0.000000 0.000000 0.000000 0.000000 0.011985 0.000000
# 6 0.000000 0.000000 0.000000 0.000000 0.000000 0.035646
#
#
# Mechanical properties :
#
#
# Convention : Reuss Voigt Hill
#
# Bulk Modulus (GPa) = 88.72152 88.82797 88.77474
# Shear Modulus (GPa) = 27.12479 39.63540 33.38009
#
# Velocity S-wave (km/s) = 3.49120 4.22020 3.87289
# Velocity P-wave (km/s) = 7.49120 7.97881 7.73884
#
# Compressibility (1/GPa) = 0.01127122
#
# Stress axis : x y z
#
# Youngs Moduli (GPa) = 55.15353 100.01303 36.63114
#
# Poissons Ratio (x) = -0.10403 0.56758
# Poissons Ratio (y) = -0.05737 0.27930
# Poissons Ratio (z) = 0.85457 0.76257
#
# Static dielectric constant tensor:
#      x y z
#    x 1.824190 0.000000 0.000000 
#    y 0.000000 2.439970 0.000000 
#    z 0.000000 0.000000 1.836500 
# 
# From -- ./inp_files/49109.got.cif
#   From: 2010.05.17/outbox.cif.g08.bks.cpg/sg70_25_cif.got.tgz:49109.got - 2010.06.03 15:57:51.
