data_PCOD9515559
_publ_section_title
;
Structure prediction by ZEFSAII (Michael W. Deem and Ramdas Pophale) SiO2 
 PCOD9515559
Probable space group: F D D D
;
_chemical_formula_sum "Si O2"
_cell_formula_units_Z 192
_cell_length_a 24.031256
_cell_length_b 18.684361
_cell_length_c 21.036395
_cell_angle_alpha 90.000000
_cell_angle_beta 90.000000
_cell_angle_gamma 90.000000
_cell_volume 9445.523580
_symmetry_space_group_name_H-M "F D D D"
_symmetry_group_IT_number 70
_space_group.IT_coordinate_system_code '2'
_symmetry_cell_setting 'orthorhombic'
loop_
_space_group_symop_operation_xyz
x,y,z
1/4-x,1/4-y,z
x,1/4-y,1/4-z
1/4-x,y,1/4-z
-x,-y,-z
3/4+x,3/4+y,-z
-x,3/4+y,3/4+z
3/4+x,-y,3/4+z
x,1/2+y,1/2+z
1/4-x,3/4-y,1/2+z
x,3/4-y,3/4-z
1/4-x,1/2+y,3/4-z
-x,1/2-y,1/2-z
3/4+x,1/4+y,1/2-z
-x,1/4+y,1/4+z
3/4+x,1/2-y,1/4+z
1/2+x,y,1/2+z
3/4-x,1/4-y,1/2+z
1/2+x,1/4-y,3/4-z
3/4-x,y,3/4-z
1/2-x,-y,1/2-z
1/4+x,3/4+y,1/2-z
1/2-x,3/4+y,1/4+z
1/4+x,-y,1/4+z
1/2+x,1/2+y,z
3/4-x,3/4-y,z
1/2+x,3/4-y,1/4-z
3/4-x,1/2+y,1/4-z
1/2-x,1/2-y,-z
1/4+x,1/4+y,-z
1/2-x,1/4+y,3/4+z
1/4+x,1/2-y,3/4+z
loop_
_atom_site_type_symbol
_atom_site_label
_atom_site_fract_x
_atom_site_fract_y
_atom_site_fract_z
Si Si1 0.623316 0.023721 0.345345
Si Si2 0.735487 0.674897 0.471335
Si Si3 0.675297 0.875000 0.875000
Si Si4 0.125000 0.125000 0.964670
Si Si5 0.997279 0.913730 0.994189
Si Si6 0.675056 0.068275 0.037300
Si Si7 0.313995 0.165780 0.355615
O O1 0.679562 0.057637 0.317859
O O2 0.617957 0.059487 0.414494
O O3 0.582713 0.041722 0.285914
O O4 0.614428 0.940299 0.355443
O O5 0.750000 0.750000 0.500000
O O6 0.728105 0.618932 0.528543
O O7 0.780294 0.655465 0.419886
O O8 0.717028 0.894496 0.817872
O O9 0.183620 0.131706 0.003223
O O10 0.031281 0.877501 0.051987
O O11 0.000000 0.000000 0.000000
O O12 0.625000 0.125000 0.052582
O O13 0.680512 0.999202 0.081916
O O14 0.375000 0.140573 0.375000
#
# Coordination Sequence:
#
# PCOD9515559 Si02
#       7
#    32  32  16  16  32  32  32
#     4  11  20  42  69  94 133 184 229 284 354 428
#     4  11  24  40  66 103 142 184 231 285 361 432
#     4  12  26  43  74 106 137 182 250 298 356 434
#     4  12  22  49  74  94 143 198 234 294 370 424
#     4  12  27  48  73 105 143 192 243 299 362 437
#     4  10  21  41  68  93 138 182 220 285 354 419
#     4  12  25  45  71 107 142 183 240 304 356 425
#
# _framework density 20.327089000000001
#
# number of rings (size 3 to 8) (size 9 to 14) (size 15 to 20)
#    0.000    0.667    7.500    2.000    0.000    4.000 
#    6.000    0.000    0.000    0.000    0.000    0.000 
#    0.000    0.000    0.000    0.000    0.000    0.000 
#
# Total GULP energy -267598.682883 kJ/mol
# GULP energy per Si atom -5574.972560 kJ/mol
# Density = 2.028082 g / cm^3
# Si number density = 20.327089 Si / 1000 Ang^3
#
#
#
# Elastic Constant Matrix: (Units=GPa)
#
#
# Indices 1 2 3 4 5 6 
#
# 1 87.6752 14.1000 9.2830 0.0000 0.0000 0.0000
# 2 14.1000 109.6025 0.2481 0.0000 0.0000 0.0000
# 3 9.2830 0.2481 44.2595 0.0000 0.0000 0.0000
# 4 0.0000 0.0000 0.0000 65.8380 0.0000 0.0000
# 5 0.0000 0.0000 0.0000 0.0000 6.2411 0.0000
# 6 0.0000 0.0000 0.0000 0.0000 0.0000 29.1497
#
#
#
# Elastic Compliance Matrix: (Units=1/GPa)
#
#
# Indices 1 2 3 4 5 6 
#
# 1 0.011915 -0.001527 -0.002491 0.000000 0.000000 0.000000
# 2 -0.001527 0.009320 0.000268 0.000000 0.000000 0.000000
# 3 -0.002491 0.000268 0.023115 0.000000 0.000000 0.000000
# 4 0.000000 0.000000 0.000000 0.015189 0.000000 0.000000
# 5 0.000000 0.000000 0.000000 0.000000 0.160227 0.000000
# 6 0.000000 0.000000 0.000000 0.000000 0.000000 0.034306
#
#
# Mechanical properties :
#
#
# Convention : Reuss Voigt Hill
#
# Bulk Modulus (GPa) = 27.13675 32.08883 29.61279
# Shear Modulus (GPa) = 18.25788 34.77283 26.51535
#
# Velocity S-wave (km/s) = 3.00026 4.14050 3.61561
# Velocity P-wave (km/s) = 5.03796 6.21924 5.65950
#
# Compressibility (1/GPa) = 0.03685040
#
# Stress axis : x y z
#
# Youngs Moduli (GPa) = 83.92753 107.29909 43.26213
#
# Poissons Ratio (x) = 0.16387 0.10775
# Poissons Ratio (y) = 0.12817 -0.01160
# Poissons Ratio (z) = 0.20902 -0.02876
#
# Static dielectric constant tensor:
#      x y z
#    x 1.939550 0.000000 0.000000 
#    y 0.000000 1.683050 0.000000 
#    z 0.000000 0.000000 1.510770 
# 
# From -- ./inp_files/45974.got.cif
#   From: 2010.05.17/outbox.cif.g08.bks.cpg/sg70_23_cif.got.tgz:45974.got - 2010.06.03 15:57:51.
