data_PCOD9515687
_publ_section_title
;
Structure prediction by ZEFSAII (Michael W. Deem and Ramdas Pophale) SiO2 
 PCOD9515687
Probable space group: F D D D
;
_chemical_formula_sum "Si O2"
_cell_formula_units_Z 160
_cell_length_a 24.413647
_cell_length_b 29.496978
_cell_length_c 10.437223
_cell_angle_alpha 90.000000
_cell_angle_beta 90.000000
_cell_angle_gamma 90.000000
_cell_volume 7516.144963
_symmetry_space_group_name_H-M "F D D D"
_symmetry_group_IT_number 70
_space_group.IT_coordinate_system_code '2'
_symmetry_cell_setting 'orthorhombic'
loop_
_space_group_symop_operation_xyz
x,y,z
1/4-x,1/4-y,z
x,1/4-y,1/4-z
1/4-x,y,1/4-z
-x,-y,-z
3/4+x,3/4+y,-z
-x,3/4+y,3/4+z
3/4+x,-y,3/4+z
x,1/2+y,1/2+z
1/4-x,3/4-y,1/2+z
x,3/4-y,3/4-z
1/4-x,1/2+y,3/4-z
-x,1/2-y,1/2-z
3/4+x,1/4+y,1/2-z
-x,1/4+y,1/4+z
3/4+x,1/2-y,1/4+z
1/2+x,y,1/2+z
3/4-x,1/4-y,1/2+z
1/2+x,1/4-y,3/4-z
3/4-x,y,3/4-z
1/2-x,-y,1/2-z
1/4+x,3/4+y,1/2-z
1/2-x,3/4+y,1/4+z
1/4+x,-y,1/4+z
1/2+x,1/2+y,z
3/4-x,3/4-y,z
1/2+x,3/4-y,1/4-z
3/4-x,1/2+y,1/4-z
1/2-x,1/2-y,-z
1/4+x,1/4+y,-z
1/2-x,1/4+y,3/4+z
1/4+x,1/2-y,3/4+z
loop_
_atom_site_type_symbol
_atom_site_label
_atom_site_fract_x
_atom_site_fract_y
_atom_site_fract_z
Si Si1 0.208223 0.375000 0.875000
Si Si2 0.376013 0.545360 0.586619
Si Si3 0.541996 0.012170 0.201930
Si Si4 0.375000 0.555387 0.875000
Si Si5 0.756633 0.589413 0.376698
Si Si6 0.252551 0.063064 0.775866
O O1 0.165595 0.412202 0.930158
O O2 0.246506 0.400992 0.774142
O O3 0.349092 0.506528 0.501836
O O4 0.371835 0.531342 0.736906
O O5 0.437078 0.558189 0.541237
O O6 0.517095 0.043557 0.314205
O O7 0.506412 0.968545 0.152700
O O8 0.539843 0.042679 0.075077
O O9 0.428082 0.585931 0.856671
O O10 0.738695 0.635234 0.445907
#
# Coordination Sequence:
#
# PCOD9515687 Si02
#       6
#    16  32  32  16  32  32
#     4  10  22  34  68  94 123 176 199 276 338 388
#     4  11  21  41  61 100 127 167 219 269 334 395
#     4  11  24  35  66  98 129 171 216 269 330 397
#     4  10  22  34  68  94 123 176 199 276 338 388
#     4  11  21  41  61 100 127 167 219 269 334 395
#     4  11  22  42  62  94 138 171 212 283 330 388
#
# _framework density 21.287507999999999
#
# number of rings (size 3 to 8) (size 9 to 14) (size 15 to 20)
#    0.000    1.200    4.000    3.600    0.000    3.200 
#    0.000    0.000    0.000   20.400    0.000    2.800 
#    0.000    0.000    0.000    0.000    0.000    0.000 
#
# Total GULP energy -223168.463215 kJ/mol
# GULP energy per Si atom -5579.211580 kJ/mol
# Density = 2.123906 g / cm^3
# Si number density = 21.287508 Si / 1000 Ang^3
#
#
#
# Elastic Constant Matrix: (Units=GPa)
#
#
# Indices 1 2 3 4 5 6 
#
# 1 30.7738 31.4992 33.2381 0.0002 -0.0002 -0.0001
# 2 31.4992 78.8298 56.3002 0.0000 0.0000 0.0000
# 3 33.2381 56.3002 136.1538 0.0005 -0.0007 -0.0002
# 4 0.0002 0.0000 0.0005 47.8964 -0.0002 -0.0001
# 5 -0.0002 0.0000 -0.0007 -0.0002 37.9041 0.0001
# 6 -0.0001 0.0000 -0.0002 -0.0001 0.0001 17.9488
#
#
#
# Elastic Compliance Matrix: (Units=1/GPa)
#
#
# Indices 1 2 3 4 5 6 
#
# 1 0.058877 -0.018819 -0.006591 0.000000 0.000000 0.000000
# 2 -0.018819 0.024017 -0.005337 0.000000 0.000000 0.000000
# 3 -0.006591 -0.005337 0.011161 0.000000 0.000000 0.000000
# 4 0.000000 0.000000 0.000000 0.020878 0.000000 0.000000
# 5 0.000000 0.000000 0.000000 0.000000 0.026382 0.000000
# 6 0.000000 0.000000 0.000000 0.000000 0.000000 0.055714
#
#
# Mechanical properties :
#
#
# Convention : Reuss Voigt Hill
#
# Bulk Modulus (GPa) = 30.71261 54.20360 42.45811
# Shear Modulus (GPa) = 18.56138 29.06453 23.81295
#
# Velocity S-wave (km/s) = 2.95606 3.69905 3.34823
# Velocity P-wave (km/s) = 5.10979 6.61528 5.91066
#
# Compressibility (1/GPa) = 0.03255991
#
# Stress axis : x y z
#
# Youngs Moduli (GPa) = 16.98466 41.63727 89.60041
#
# Poissons Ratio (x) = 0.78356 0.59060
# Poissons Ratio (y) = 0.31963 0.47821
# Poissons Ratio (z) = 0.11195 0.22222
#
# Static dielectric constant tensor:
#      x y z
#    x 1.741580 0.000000 0.000000 
#    y 0.000000 1.794140 0.000000 
#    z 0.000000 0.000000 1.926460 
# 
# From -- ./inp_files/21120.got.cif
#   From: 2010.05.17/outbox.cif.g08.bks.cpg/sg70_11_cif.got.tgz:21120.got - 2010.06.03 15:57:51.
