data_PCOD9515173
_publ_section_title
;
Structure prediction by ZEFSAII (Michael W. Deem and Ramdas Pophale) SiO2 
 PCOD9515173
Probable space group: F D D D
;
_chemical_formula_sum "Si O2"
_cell_formula_units_Z 136
_cell_length_a 12.762626
_cell_length_b 24.080399
_cell_length_c 20.831721
_cell_angle_alpha 90.000000
_cell_angle_beta 90.000000
_cell_angle_gamma 90.000000
_cell_volume 6402.194616
_symmetry_space_group_name_H-M "F D D D"
_symmetry_group_IT_number 70
_space_group.IT_coordinate_system_code '2'
_symmetry_cell_setting 'orthorhombic'
loop_
_space_group_symop_operation_xyz
x,y,z
1/4-x,1/4-y,z
x,1/4-y,1/4-z
1/4-x,y,1/4-z
-x,-y,-z
3/4+x,3/4+y,-z
-x,3/4+y,3/4+z
3/4+x,-y,3/4+z
x,1/2+y,1/2+z
1/4-x,3/4-y,1/2+z
x,3/4-y,3/4-z
1/4-x,1/2+y,3/4-z
-x,1/2-y,1/2-z
3/4+x,1/4+y,1/2-z
-x,1/4+y,1/4+z
3/4+x,1/2-y,1/4+z
1/2+x,y,1/2+z
3/4-x,1/4-y,1/2+z
1/2+x,1/4-y,3/4-z
3/4-x,y,3/4-z
1/2-x,-y,1/2-z
1/4+x,3/4+y,1/2-z
1/2-x,3/4+y,1/4+z
1/4+x,-y,1/4+z
1/2+x,1/2+y,z
3/4-x,3/4-y,z
1/2+x,3/4-y,1/4-z
3/4-x,1/2+y,1/4-z
1/2-x,1/2-y,-z
1/4+x,1/4+y,-z
1/2-x,1/4+y,3/4+z
1/4+x,1/2-y,3/4+z
loop_
_atom_site_type_symbol
_atom_site_label
_atom_site_fract_x
_atom_site_fract_y
_atom_site_fract_z
Si Si1 0.625000 0.625000 0.625000
Si Si2 0.978447 0.188416 0.724985
Si Si3 0.724810 0.191104 0.531782
Si Si4 0.665203 0.340495 0.696603
Si Si5 0.005388 0.713803 0.566372
O O1 0.552125 0.664975 0.668428
O O2 0.986110 0.141155 0.779676
O O3 0.859225 0.195880 0.702619
O O4 0.000000 0.250000 0.750000
O O5 0.750000 0.250000 0.500000
O O6 0.815543 0.158096 0.495116
O O7 0.599083 0.183035 0.527682
O O8 0.738182 0.197884 0.608347
O O9 0.625000 0.349620 0.625000
O O10 0.721186 0.279708 0.695206
#
# Coordination Sequence:
#
# PCOD9515173 Si02
#       5
#     8  32  32  32  32
#     4  12  28  56  68  98 148 192 256 302 352 436
#     4  12  28  46  69  97 139 198 238 284 350 428
#     4   9  17  38  70 105 133 166 210 294 359 401
#     4  11  22  44  71 109 142 177 232 291 358 428
#     4  10  20  41  72 102 136 173 230 289 356 413
#
# _framework density 21.242716000000001
#
# number of rings (size 3 to 8) (size 9 to 14) (size 15 to 20)
#    0.000    1.412    4.706    2.824    1.647    2.824 
#    0.000    4.706    0.000    0.000    0.000    0.000 
#    0.000    0.000    0.000    0.000    0.000    0.000 
#
# Total GULP energy -189603.962596 kJ/mol
# GULP energy per Si atom -5576.587135 kJ/mol
# Density = 2.119437 g / cm^3
# Si number density = 21.242716 Si / 1000 Ang^3
#
#
#
# Elastic Constant Matrix: (Units=GPa)
#
#
# Indices 1 2 3 4 5 6 
#
# 1 158.1458 73.0740 67.8684 0.0000 0.0000 0.0000
# 2 73.0740 160.5365 83.2871 0.0000 0.0000 0.0000
# 3 67.8684 83.2871 104.2168 0.0000 0.0000 0.0000
# 4 0.0000 0.0000 0.0000 -49.0735 0.0000 0.0000
# 5 0.0000 0.0000 0.0000 0.0000 40.1692 0.0000
# 6 0.0000 0.0000 0.0000 0.0000 0.0000 31.5695
#
#
#
# Elastic Compliance Matrix: (Units=1/GPa)
#
#
# Indices 1 2 3 4 5 6 
#
# 1 0.009077 -0.001819 -0.004457 0.000000 0.000000 0.000000
# 2 -0.001819 0.011006 -0.007611 0.000000 0.000000 0.000000
# 3 -0.004457 -0.007611 0.018580 0.000000 0.000000 0.000000
# 4 0.000000 0.000000 0.000000 -0.020378 0.000000 0.000000
# 5 0.000000 0.000000 0.000000 0.000000 0.024895 0.000000
# 6 0.000000 0.000000 0.000000 0.000000 0.000000 0.031676
#
#
# Mechanical properties :
#
#
# Convention : Reuss Voigt Hill
#
# Bulk Modulus (GPa) = 91.83969 96.81757 94.32863
# Shear Modulus (GPa) = 47.05481 17.77768 32.41625
#
# Velocity S-wave (km/s) = 4.71159 2.89603 3.91063
# Velocity P-wave (km/s) = 8.53968 7.54045 8.05558
#
# Compressibility (1/GPa) = 0.01088854
#
# Stress axis : x y z
#
# Youngs Moduli (GPa) = 110.17302 90.86241 53.82086
#
# Poissons Ratio (x) = 0.16530 0.23988
# Poissons Ratio (y) = 0.20043 0.40961
# Poissons Ratio (z) = 0.49105 0.69152
#
# Static dielectric constant tensor:
#      x y z
#    x 1.822560 0.000000 0.000000 
#    y 0.000000 1.819530 0.000000 
#    z 0.000000 0.000000 1.690930 
# 
# From -- ./inp_files/41985.got.cif
#   From: 2010.05.17/outbox.cif.g08.bks.cpg/sg70_21_cif.got.tgz:41985.got - 2010.06.03 15:57:51.
