data_PCOD9515788
_publ_section_title
;
Structure prediction by ZEFSAII (Michael W. Deem and Ramdas Pophale) SiO2 
 PCOD9515788
Probable space group: F D D D
;
_chemical_formula_sum "Si O2"
_cell_formula_units_Z 160
_cell_length_a 27.957359
_cell_length_b 10.332489
_cell_length_c 27.105623
_cell_angle_alpha 90.000000
_cell_angle_beta 90.000000
_cell_angle_gamma 90.000000
_cell_volume 7829.977038
_symmetry_space_group_name_H-M "F D D D"
_symmetry_group_IT_number 70
_space_group.IT_coordinate_system_code '2'
_symmetry_cell_setting 'orthorhombic'
loop_
_space_group_symop_operation_xyz
x,y,z
1/4-x,1/4-y,z
x,1/4-y,1/4-z
1/4-x,y,1/4-z
-x,-y,-z
3/4+x,3/4+y,-z
-x,3/4+y,3/4+z
3/4+x,-y,3/4+z
x,1/2+y,1/2+z
1/4-x,3/4-y,1/2+z
x,3/4-y,3/4-z
1/4-x,1/2+y,3/4-z
-x,1/2-y,1/2-z
3/4+x,1/4+y,1/2-z
-x,1/4+y,1/4+z
3/4+x,1/2-y,1/4+z
1/2+x,y,1/2+z
3/4-x,1/4-y,1/2+z
1/2+x,1/4-y,3/4-z
3/4-x,y,3/4-z
1/2-x,-y,1/2-z
1/4+x,3/4+y,1/2-z
1/2-x,3/4+y,1/4+z
1/4+x,-y,1/4+z
1/2+x,1/2+y,z
3/4-x,3/4-y,z
1/2+x,3/4-y,1/4-z
3/4-x,1/2+y,1/4-z
1/2-x,1/2-y,-z
1/4+x,1/4+y,-z
1/2-x,1/4+y,3/4+z
1/4+x,1/2-y,3/4+z
loop_
_atom_site_type_symbol
_atom_site_label
_atom_site_fract_x
_atom_site_fract_y
_atom_site_fract_z
Si Si1 0.475819 0.608452 0.244851
Si Si2 0.260699 0.006963 0.898235
Si Si3 0.295446 0.997664 0.409635
Si Si4 0.597131 0.258985 0.403010
Si Si5 0.380303 0.219153 0.991498
O O1 0.500000 0.750000 0.250000
O O2 0.485664 0.520136 0.292750
O O3 0.501751 0.545592 0.196685
O O4 0.419388 0.644709 0.248577
O O5 0.282462 0.136713 0.876469
O O6 0.205259 0.011426 0.881738
O O7 0.281154 0.875000 0.875000
O O8 0.308106 0.875000 0.375000
O O9 0.338911 0.052096 0.442883
O O10 0.625000 0.125000 0.401539
O O11 0.623288 0.375000 0.375000
O O12 0.590283 0.305273 0.458905
O O13 0.375000 0.375000 0.990493
#
# Coordination Sequence:
#
# PCOD9515788 Si02
#       5
#    32  32  32  32  32
#     4  12  22  43  68 101 133 178 227 282 336 407
#     4  11  25  45  65  94 143 178 217 285 346 399
#     4  12  25  42  73 101 131 183 235 276 339 410
#     4  10  22  40  62  94 131 170 220 277 334 395
#     4  11  22  40  66  97 138 165 224 289 333 391
#
# _framework density 20.434287000000001
#
# number of rings (size 3 to 8) (size 9 to 14) (size 15 to 20)
#    0.000    0.800    6.000    1.200    2.800    3.600 
#    0.000    2.000    0.000    0.000    0.000    0.000 
#    0.000    0.000    0.000    0.000    0.000    0.000 
#
# Total GULP energy -223044.956050 kJ/mol
# GULP energy per Si atom -5576.123901 kJ/mol
# Density = 2.038778 g / cm^3
# Si number density = 20.434287 Si / 1000 Ang^3
#
#
#
# Elastic Constant Matrix: (Units=GPa)
#
#
# Indices 1 2 3 4 5 6 
#
# 1 83.4211 3.7170 5.1458 0.0000 0.0000 0.0000
# 2 3.7170 68.2522 17.5350 0.0000 0.0000 0.0000
# 3 5.1458 17.5350 95.7866 0.0000 0.0000 0.0000
# 4 0.0000 0.0000 0.0000 35.5714 0.0000 0.0000
# 5 0.0000 0.0000 0.0000 0.0000 58.1162 0.0000
# 6 0.0000 0.0000 0.0000 0.0000 0.0000 9.2031
#
#
#
# Elastic Compliance Matrix: (Units=1/GPa)
#
#
# Indices 1 2 3 4 5 6 
#
# 1 0.012044 -0.000514 -0.000553 0.000000 0.000000 0.000000
# 2 -0.000514 0.015397 -0.002791 0.000000 0.000000 0.000000
# 3 -0.000553 -0.002791 0.010981 0.000000 0.000000 0.000000
# 4 0.000000 0.000000 0.000000 0.028112 0.000000 0.000000
# 5 0.000000 0.000000 0.000000 0.000000 0.017207 0.000000
# 6 0.000000 0.000000 0.000000 0.000000 0.000000 0.108659
#
#
# Mechanical properties :
#
#
# Convention : Reuss Voigt Hill
#
# Bulk Modulus (GPa) = 32.56704 33.36172 32.96438
# Shear Modulus (GPa) = 23.76986 35.31562 29.54274
#
# Velocity S-wave (km/s) = 3.41432 4.16174 3.80642
# Velocity P-wave (km/s) = 5.61387 6.28134 5.95696
#
# Compressibility (1/GPa) = 0.03070589
#
# Stress axis : x y z
#
# Youngs Moduli (GPa) = 83.02628 64.94954 91.07050
#
# Poissons Ratio (x) = 0.03338 0.05036
# Poissons Ratio (y) = 0.04266 0.25417
# Poissons Ratio (z) = 0.04591 0.18127
#
# Static dielectric constant tensor:
#      x y z
#    x 1.811580 0.000000 0.000000 
#    y 0.000000 1.890830 0.000000 
#    z 0.000000 0.000000 1.805530 
# 
# From -- ./inp_files/54878.got.cif
#   From: 2010.05.17/outbox.cif.g08.bks.cpg/sg70_28_cif.got.tgz:54878.got - 2010.06.03 15:57:51.
