data_PCOD9515728
_publ_section_title
;
Structure prediction by ZEFSAII (Michael W. Deem and Ramdas Pophale) SiO2 
 PCOD9515728
Probable space group: F D D D
;
_chemical_formula_sum "Si O2"
_cell_formula_units_Z 104
_cell_length_a 18.978761
_cell_length_b 7.484748
_cell_length_c 28.727559
_cell_angle_alpha 90.000000
_cell_angle_beta 90.000000
_cell_angle_gamma 90.000000
_cell_volume 4080.785477
_symmetry_space_group_name_H-M "F D D D"
_symmetry_group_IT_number 70
_space_group.IT_coordinate_system_code '2'
_symmetry_cell_setting 'orthorhombic'
loop_
_space_group_symop_operation_xyz
x,y,z
1/4-x,1/4-y,z
x,1/4-y,1/4-z
1/4-x,y,1/4-z
-x,-y,-z
3/4+x,3/4+y,-z
-x,3/4+y,3/4+z
3/4+x,-y,3/4+z
x,1/2+y,1/2+z
1/4-x,3/4-y,1/2+z
x,3/4-y,3/4-z
1/4-x,1/2+y,3/4-z
-x,1/2-y,1/2-z
3/4+x,1/4+y,1/2-z
-x,1/4+y,1/4+z
3/4+x,1/2-y,1/4+z
1/2+x,y,1/2+z
3/4-x,1/4-y,1/2+z
1/2+x,1/4-y,3/4-z
3/4-x,y,3/4-z
1/2-x,-y,1/2-z
1/4+x,3/4+y,1/2-z
1/2-x,3/4+y,1/4+z
1/4+x,-y,1/4+z
1/2+x,1/2+y,z
3/4-x,3/4-y,z
1/2+x,3/4-y,1/4-z
3/4-x,1/2+y,1/4-z
1/2-x,1/2-y,-z
1/4+x,1/4+y,-z
1/2-x,1/4+y,3/4+z
1/4+x,1/2-y,3/4+z
loop_
_atom_site_type_symbol
_atom_site_label
_atom_site_fract_x
_atom_site_fract_y
_atom_site_fract_z
Si Si1 0.625000 0.125000 0.125000
Si Si2 0.460544 0.145758 0.938644
Si Si3 0.177878 0.381051 0.451932
Si Si4 0.769364 0.499873 0.195244
O O1 0.583962 0.262636 0.158030
O O2 0.467251 0.352509 0.924882
O O3 0.538601 0.057004 0.938840
O O4 0.432391 0.140047 0.991782
O O5 0.227039 0.542094 0.431934
O O6 0.098595 0.427185 0.438357
O O7 0.750000 0.500000 0.250000
#
# Coordination Sequence:
#
# PCOD9515728 Si02
#       4
#     8  32  32  32
#     4  12  28  40  58  96 152 182 224 286 374 424
#     4  10  22  38  60  90 134 175 212 275 342 407
#     4   9  19  37  70  93 116 165 235 276 328 402
#     4   9  18  35  66  98 119 153 226 289 323 388
#
# _framework density 25.485289000000002
#
# number of rings (size 3 to 8) (size 9 to 14) (size 15 to 20)
#    0.000    2.462    0.000    0.923   12.923    0.000 
#    0.000    3.077   13.538    0.000    0.000    0.000 
#    0.000    0.000    0.000    0.000    0.000    1.231 
#
# Total GULP energy -145462.156898 kJ/mol
# GULP energy per Si atom -5594.698342 kJ/mol
# Density = 2.542728 g / cm^3
# Si number density = 25.485289 Si / 1000 Ang^3
#
#
#
# Elastic Constant Matrix: (Units=GPa)
#
#
# Indices 1 2 3 4 5 6 
#
# 1 59.6738 20.4788 15.8610 0.0000 0.0000 0.0000
# 2 20.4788 187.4870 47.5835 0.0000 0.0000 0.0000
# 3 15.8610 47.5835 97.6740 0.0000 0.0000 0.0000
# 4 0.0000 0.0000 0.0000 -15.9642 0.0000 0.0000
# 5 0.0000 0.0000 0.0000 0.0000 9.8527 0.0000
# 6 0.0000 0.0000 0.0000 0.0000 0.0000 32.7418
#
#
#
# Elastic Compliance Matrix: (Units=1/GPa)
#
#
# Indices 1 2 3 4 5 6 
#
# 1 0.017823 -0.001383 -0.002220 0.000000 0.000000 0.000000
# 2 -0.001383 0.006194 -0.002793 0.000000 0.000000 0.000000
# 3 -0.002220 -0.002793 0.011959 0.000000 0.000000 0.000000
# 4 0.000000 0.000000 0.000000 -0.062640 0.000000 0.000000
# 5 0.000000 0.000000 0.000000 0.000000 0.101495 0.000000
# 6 0.000000 0.000000 0.000000 0.000000 0.000000 0.030542
#
#
# Mechanical properties :
#
#
# Convention : Reuss Voigt Hill
#
# Bulk Modulus (GPa) = 43.13515 56.96462 50.04988
# Shear Modulus (GPa) = 39.71660 22.72016 31.21838
#
# Velocity S-wave (km/s) = 3.95196 2.98904 3.50374
# Velocity P-wave (km/s) = 6.14705 5.85773 6.00413
#
# Compressibility (1/GPa) = 0.02318295
#
# Stress axis : x y z
#
# Youngs Moduli (GPa) = 56.10844 161.45802 83.61777
#
# Poissons Ratio (x) = 0.22333 0.18566
# Poissons Ratio (y) = 0.07761 0.23352
# Poissons Ratio (z) = 0.12458 0.45090
#
# Static dielectric constant tensor:
#      x y z
#    x 1.598250 0.000000 0.000000 
#    y 0.000000 1.937730 0.000000 
#    z 0.000000 0.000000 1.996930 
# 
# From -- ./inp_files/41145.got.cif
#   From: 2010.05.17/outbox.cif.g08.bks.cpg/sg70_21_cif.got.tgz:41145.got - 2010.06.03 15:57:51.
