data_PCOD9515012
_publ_section_title
;
Structure prediction by ZEFSAII (Michael W. Deem and Ramdas Pophale) SiO2 
 PCOD9515012
Probable space group: F D D D
;
_chemical_formula_sum "Si O2"
_cell_formula_units_Z 192
_cell_length_a 11.829277
_cell_length_b 27.570485
_cell_length_c 27.838049
_cell_angle_alpha 90.000000
_cell_angle_beta 90.000000
_cell_angle_gamma 90.000000
_cell_volume 9079.070793
_symmetry_space_group_name_H-M "F D D D"
_symmetry_group_IT_number 70
_space_group.IT_coordinate_system_code '2'
_symmetry_cell_setting 'orthorhombic'
loop_
_space_group_symop_operation_xyz
x,y,z
1/4-x,1/4-y,z
x,1/4-y,1/4-z
1/4-x,y,1/4-z
-x,-y,-z
3/4+x,3/4+y,-z
-x,3/4+y,3/4+z
3/4+x,-y,3/4+z
x,1/2+y,1/2+z
1/4-x,3/4-y,1/2+z
x,3/4-y,3/4-z
1/4-x,1/2+y,3/4-z
-x,1/2-y,1/2-z
3/4+x,1/4+y,1/2-z
-x,1/4+y,1/4+z
3/4+x,1/2-y,1/4+z
1/2+x,y,1/2+z
3/4-x,1/4-y,1/2+z
1/2+x,1/4-y,3/4-z
3/4-x,y,3/4-z
1/2-x,-y,1/2-z
1/4+x,3/4+y,1/2-z
1/2-x,3/4+y,1/4+z
1/4+x,-y,1/4+z
1/2+x,1/2+y,z
3/4-x,3/4-y,z
1/2+x,3/4-y,1/4-z
3/4-x,1/2+y,1/4-z
1/2-x,1/2-y,-z
1/4+x,1/4+y,-z
1/2-x,1/4+y,3/4+z
1/4+x,1/2-y,3/4+z
loop_
_atom_site_type_symbol
_atom_site_label
_atom_site_fract_x
_atom_site_fract_y
_atom_site_fract_z
Si Si1 0.375000 0.259040 0.375000
Si Si2 0.458427 0.520382 0.800163
Si Si3 0.188918 0.882571 0.726458
Si Si4 0.375000 0.875000 0.656811
Si Si5 0.003723 0.953422 0.709530
Si Si6 0.996032 0.346742 0.832610
Si Si7 0.971021 0.959522 0.100624
O O1 0.331742 0.229554 0.329790
O O2 0.279778 0.294343 0.396487
O O3 0.463342 0.574877 0.777386
O O4 0.492329 0.481839 0.759890
O O5 0.532914 0.512387 0.848342
O O6 0.331255 0.522484 0.822283
O O7 0.287652 0.903733 0.691550
O O8 0.063214 0.900825 0.713614
O O9 0.203580 0.901025 0.780326
O O10 0.289054 0.844501 0.623755
O O11 0.881671 0.958455 0.685715
O O12 0.060693 0.375000 0.875000
O O13 0.875000 0.375000 0.827029
#
# Coordination Sequence:
#
# PCOD9515012 Si02
#       7
#    16  32  32  16  32  32  32
#     4  10  23  34  56  90 130 150 204 264 322 387
#     4  10  23  43  63  89 126 173 217 276 337 395
#     4  11  22  37  63  93 126 168 219 267 341 395
#     4  10  20  38  65  92 132 169 218 278 332 412
#     4  12  24  38  63  97 125 169 222 272 331 407
#     4   9  18  36  56  82 123 171 203 251 326 396
#     4  10  22  40  62  87 126 169 217 276 332 393
#
# _framework density 21.147538999999998
#
# number of rings (size 3 to 8) (size 9 to 14) (size 15 to 20)
#    0.000    1.833    0.833    4.500    4.667    3.333 
#    0.000    0.000    0.000    0.000    0.000    0.000 
#    0.000    0.000    0.000    0.000    0.000    0.000 
#
# Total GULP energy -267306.162472 kJ/mol
# GULP energy per Si atom -5568.878385 kJ/mol
# Density = 2.109941 g / cm^3
# Si number density = 21.147539 Si / 1000 Ang^3
#
#
#
# Elastic Constant Matrix: (Units=GPa)
#
#
# Indices 1 2 3 4 5 6 
#
# 1 83.3378 7.2356 32.6105 0.0000 0.0000 0.0000
# 2 7.2356 28.2450 19.3320 0.0000 0.0000 0.0000
# 3 32.6105 19.3320 152.6679 0.0000 0.0000 0.0000
# 4 0.0000 0.0000 0.0000 19.2881 0.0000 0.0000
# 5 0.0000 0.0000 0.0000 0.0000 44.3189 0.0000
# 6 0.0000 0.0000 0.0000 0.0000 0.0000 28.9150
#
#
#
# Elastic Compliance Matrix: (Units=1/GPa)
#
#
# Indices 1 2 3 4 5 6 
#
# 1 0.013158 -0.001584 -0.002610 0.000000 0.000000 0.000000
# 2 -0.001584 0.038955 -0.004594 0.000000 0.000000 0.000000
# 3 -0.002610 -0.004594 0.007689 0.000000 0.000000 0.000000
# 4 0.000000 0.000000 0.000000 0.051845 0.000000 0.000000
# 5 0.000000 0.000000 0.000000 0.000000 0.022564 0.000000
# 6 0.000000 0.000000 0.000000 0.000000 0.000000 0.034584
#
#
# Mechanical properties :
#
#
# Convention : Reuss Voigt Hill
#
# Bulk Modulus (GPa) = 23.68262 42.51188 33.09725
# Shear Modulus (GPa) = 24.94407 32.17590 28.55998
#
# Velocity S-wave (km/s) = 3.43815 3.90487 3.67892
# Velocity P-wave (km/s) = 5.19463 6.36214 5.80780
#
# Compressibility (1/GPa) = 0.04222505
#
# Stress axis : x y z
#
# Youngs Moduli (GPa) = 75.99801 25.67074 130.04843
#
# Poissons Ratio (x) = 0.04067 0.33943
# Poissons Ratio (y) = 0.12041 0.59748
# Poissons Ratio (z) = 0.19836 0.11794
#
# Static dielectric constant tensor:
#      x y z
#    x 1.839600 0.000000 0.000000 
#    y 0.000000 1.820100 0.000000 
#    z 0.000000 0.000000 1.859210 
# 
# From -- ./inp_files/57820.got.cif
#   From: 2010.05.17/outbox.cif.g08.bks.cpg/sg70_29_cif.got.tgz:57820.got - 2010.06.03 15:57:51.
