data_PCOD9515097
_publ_section_title
;
Structure prediction by ZEFSAII (Michael W. Deem and Ramdas Pophale) SiO2 
 PCOD9515097
Probable space group: F D D D
;
_chemical_formula_sum "Si O2"
_cell_formula_units_Z 176
_cell_length_a 24.877840
_cell_length_b 26.190153
_cell_length_c 11.692446
_cell_angle_alpha 90.000000
_cell_angle_beta 90.000000
_cell_angle_gamma 90.000000
_cell_volume 7618.265058
_symmetry_space_group_name_H-M "F D D D"
_symmetry_group_IT_number 70
_space_group.IT_coordinate_system_code '2'
_symmetry_cell_setting 'orthorhombic'
loop_
_space_group_symop_operation_xyz
x,y,z
1/4-x,1/4-y,z
x,1/4-y,1/4-z
1/4-x,y,1/4-z
-x,-y,-z
3/4+x,3/4+y,-z
-x,3/4+y,3/4+z
3/4+x,-y,3/4+z
x,1/2+y,1/2+z
1/4-x,3/4-y,1/2+z
x,3/4-y,3/4-z
1/4-x,1/2+y,3/4-z
-x,1/2-y,1/2-z
3/4+x,1/4+y,1/2-z
-x,1/4+y,1/4+z
3/4+x,1/2-y,1/4+z
1/2+x,y,1/2+z
3/4-x,1/4-y,1/2+z
1/2+x,1/4-y,3/4-z
3/4-x,y,3/4-z
1/2-x,-y,1/2-z
1/4+x,3/4+y,1/2-z
1/2-x,3/4+y,1/4+z
1/4+x,-y,1/4+z
1/2+x,1/2+y,z
3/4-x,3/4-y,z
1/2+x,3/4-y,1/4-z
3/4-x,1/2+y,1/4-z
1/2-x,1/2-y,-z
1/4+x,1/4+y,-z
1/2-x,1/4+y,3/4+z
1/4+x,1/2-y,3/4+z
loop_
_atom_site_type_symbol
_atom_site_label
_atom_site_fract_x
_atom_site_fract_y
_atom_site_fract_z
Si Si1 0.149159 0.875000 0.375000
Si Si2 0.038779 0.771066 0.105476
Si Si3 0.227577 0.892191 0.169386
Si Si4 0.813763 0.427955 0.322802
Si Si5 0.444506 0.019728 0.267907
Si Si6 0.365046 0.520594 0.188456
O O1 0.187827 0.898118 0.277995
O O2 0.112881 0.831663 0.320648
O O3 0.021172 0.831142 0.105963
O O4 0.071628 0.754773 0.217141
O O5 0.077952 0.762104 0.997434
O O6 0.988559 0.735982 0.080144
O O7 0.285877 0.918738 0.198182
O O8 0.197998 0.924734 0.071231
O O9 0.791797 0.375000 0.375000
O O10 0.875000 0.427489 0.375000
O O11 0.792756 0.479029 0.383110
O O12 0.392052 0.003480 0.193178
#
# Coordination Sequence:
#
# PCOD9515097 Si02
#       6
#    16  32  32  32  32  32
#     4  10  20  40  61  94 128 157 218 264 322 380
#     4  10  22  44  61  90 136 163 217 273 320 389
#     4  11  22  40  63  93 129 168 207 279 324 375
#     4  11  23  39  57  88 130 169 208 256 326 394
#     4  12  24  37  67  94 126 169 222 259 329 398
#     4  10  22  38  63  91 123 173 209 268 325 378
#
# _framework density 23.102371999999999
#
# number of rings (size 3 to 8) (size 9 to 14) (size 15 to 20)
#    0.000    1.273    2.727    3.273    5.091    1.455 
#    0.000    0.000    0.000    0.000    0.000    0.000 
#    0.000    0.000    0.000    0.000    0.000    0.000 
#
# Total GULP energy -245134.631044 kJ/mol
# GULP energy per Si atom -5571.241615 kJ/mol
# Density = 2.304979 g / cm^3
# Si number density = 23.102372 Si / 1000 Ang^3
#
#
#
# Elastic Constant Matrix: (Units=GPa)
#
#
# Indices 1 2 3 4 5 6 
#
# 1 50.7738 2.6976 29.0101 0.0000 0.0000 0.0000
# 2 2.6976 57.4675 30.6442 0.0000 0.0000 0.0000
# 3 29.0101 30.6442 98.9938 0.0000 0.0000 0.0000
# 4 0.0000 0.0000 0.0000 35.4924 0.0000 0.0000
# 5 0.0000 0.0000 0.0000 0.0000 36.9065 0.0000
# 6 0.0000 0.0000 0.0000 0.0000 0.0000 13.1015
#
#
#
# Elastic Compliance Matrix: (Units=1/GPa)
#
#
# Indices 1 2 3 4 5 6 
#
# 1 0.024126 0.003159 -0.008048 0.000000 0.000000 0.000000
# 2 0.003159 0.021255 -0.007505 0.000000 0.000000 0.000000
# 3 -0.008048 -0.007505 0.014783 0.000000 0.000000 0.000000
# 4 0.000000 0.000000 0.000000 0.028175 0.000000 0.000000
# 5 0.000000 0.000000 0.000000 0.000000 0.027096 0.000000
# 6 0.000000 0.000000 0.000000 0.000000 0.000000 0.076327
#
#
# Mechanical properties :
#
#
# Convention : Reuss Voigt Hill
#
# Bulk Modulus (GPa) = 28.26817 36.88213 32.57515
# Shear Modulus (GPa) = 21.89696 26.75896 24.32796
#
# Velocity S-wave (km/s) = 3.08201 3.40704 3.24859
# Velocity P-wave (km/s) = 4.99276 5.61040 5.31057
#
# Compressibility (1/GPa) = 0.03537547
#
# Stress axis : x y z
#
# Youngs Moduli (GPa) = 41.44976 47.04765 67.64336
#
# Poissons Ratio (x) = -0.14862 0.54439
# Poissons Ratio (y) = -0.13094 0.50769
# Poissons Ratio (z) = 0.33358 0.35311
#
# Static dielectric constant tensor:
#      x y z
#    x 1.955120 0.000000 0.000000 
#    y 0.000000 1.821330 0.000000 
#    z 0.000000 0.000000 2.086790 
# 
# From -- ./inp_files/20982.got.cif
#   From: 2010.05.17/outbox.cif.g08.bks.cpg/sg70_11_cif.got.tgz:20982.got - 2010.06.03 15:57:51.
