data_PCOD9515983
_publ_section_title
;
Structure prediction by ZEFSAII (Michael W. Deem and Ramdas Pophale) SiO2 
 PCOD9515983
Probable space group: F D D D
;
_chemical_formula_sum "Si O2"
_cell_formula_units_Z 208
_cell_length_a 24.999585
_cell_length_b 23.593667
_cell_length_c 17.282133
_cell_angle_alpha 90.000000
_cell_angle_beta 90.000000
_cell_angle_gamma 90.000000
_cell_volume 10193.553061
_symmetry_space_group_name_H-M "F D D D"
_symmetry_group_IT_number 70
_space_group.IT_coordinate_system_code '2'
_symmetry_cell_setting 'orthorhombic'
loop_
_space_group_symop_operation_xyz
x,y,z
1/4-x,1/4-y,z
x,1/4-y,1/4-z
1/4-x,y,1/4-z
-x,-y,-z
3/4+x,3/4+y,-z
-x,3/4+y,3/4+z
3/4+x,-y,3/4+z
x,1/2+y,1/2+z
1/4-x,3/4-y,1/2+z
x,3/4-y,3/4-z
1/4-x,1/2+y,3/4-z
-x,1/2-y,1/2-z
3/4+x,1/4+y,1/2-z
-x,1/4+y,1/4+z
3/4+x,1/2-y,1/4+z
1/2+x,y,1/2+z
3/4-x,1/4-y,1/2+z
1/2+x,1/4-y,3/4-z
3/4-x,y,3/4-z
1/2-x,-y,1/2-z
1/4+x,3/4+y,1/2-z
1/2-x,3/4+y,1/4+z
1/4+x,-y,1/4+z
1/2+x,1/2+y,z
3/4-x,3/4-y,z
1/2+x,3/4-y,1/4-z
3/4-x,1/2+y,1/4-z
1/2-x,1/2-y,-z
1/4+x,1/4+y,-z
1/2-x,1/4+y,3/4+z
1/4+x,1/2-y,3/4+z
loop_
_atom_site_type_symbol
_atom_site_label
_atom_site_fract_x
_atom_site_fract_y
_atom_site_fract_z
Si Si1 0.811201 0.566252 0.791696
Si Si2 0.625000 0.625000 0.625000
Si Si3 0.487138 0.206829 0.819591
Si Si4 0.302465 0.315439 0.496735
Si Si5 0.070124 0.101811 0.335438
Si Si6 0.178723 0.896977 0.529120
Si Si7 0.625000 0.625000 0.125000
Si Si8 0.971061 0.951413 0.800933
O O1 0.757121 0.591421 0.755212
O O2 0.805003 0.501126 0.768631
O O3 0.810496 0.574944 0.885296
O O4 0.867542 0.588840 0.760957
O O5 0.663506 0.660269 0.571572
O O6 0.500000 0.250000 0.750000
O O7 0.530616 0.156114 0.828925
O O8 0.435912 0.169917 0.794454
O O9 0.480834 0.243265 0.897659
O O10 0.328572 0.331505 0.578162
O O11 0.125000 0.125000 0.301558
O O12 0.048793 0.047860 0.287683
O O13 0.221905 0.918412 0.464650
O O14 0.670879 0.667587 0.160944
#
# Coordination Sequence:
#
# PCOD9515983 Si02
#       8
#    32   8  32  32  32  32   8  32
#     4  10  22  44  68  96 139 180 231 285 358 417
#     4  12  24  38  70  98 140 178 236 294 344 428
#     4  11  25  44  68 103 140 186 238 285 369 428
#     4  11  23  43  69 101 136 183 234 288 354 429
#     4  11  23  46  68 103 144 178 241 296 341 440
#     4  10  22  45  69 101 144 183 230 304 346 429
#     4  12  24  42  66 102 136 178 256 282 336 440
#     4  11  23  41  70  98 136 190 225 294 357 410
#
# _framework density 20.405054
#
# number of rings (size 3 to 8) (size 9 to 14) (size 15 to 20)
#    0.000    1.231    4.615    2.769    2.154    2.462 
#    0.000    2.308    0.000    0.000    0.000    0.000 
#    0.000    0.000    0.000    0.000    0.000    0.000 
#
# Total GULP energy -289482.431958 kJ/mol
# GULP energy per Si atom -5566.969845 kJ/mol
# Density = 2.035861 g / cm^3
# Si number density = 20.405054 Si / 1000 Ang^3
#
#
#
# Elastic Constant Matrix: (Units=GPa)
#
#
# Indices 1 2 3 4 5 6 
#
# 1 151.1747 39.3536 28.1256 0.0000 0.0000 0.0000
# 2 39.3536 102.1961 55.3498 0.0000 0.0000 0.0000
# 3 28.1256 55.3498 67.0151 0.0000 0.0000 0.0000
# 4 0.0000 0.0000 0.0000 36.0656 0.0000 0.0000
# 5 0.0000 0.0000 0.0000 0.0000 36.0992 0.0000
# 6 0.0000 0.0000 0.0000 0.0000 0.0000 30.6603
#
#
#
# Elastic Compliance Matrix: (Units=1/GPa)
#
#
# Indices 1 2 3 4 5 6 
#
# 1 0.007420 -0.002118 -0.001365 0.000000 0.000000 0.000000
# 2 -0.002118 0.018310 -0.014234 0.000000 0.000000 0.000000
# 3 -0.001365 -0.014234 0.027251 0.000000 0.000000 0.000000
# 4 0.000000 0.000000 0.000000 0.027727 0.000000 0.000000
# 5 0.000000 0.000000 0.000000 0.000000 0.027701 0.000000
# 6 0.000000 0.000000 0.000000 0.000000 0.000000 0.032615
#
#
# Mechanical properties :
#
#
# Convention : Reuss Voigt Hill
#
# Bulk Modulus (GPa) = 56.98760 62.89374 59.94067
# Shear Modulus (GPa) = 27.42627 33.73548 30.58087
#
# Velocity S-wave (km/s) = 3.67016 4.07048 3.87549
# Velocity P-wave (km/s) = 6.77857 7.27882 7.03314
#
# Compressibility (1/GPa) = 0.01754768
#
# Stress axis : x y z
#
# Youngs Moduli (GPa) = 134.76773 54.61571 36.69634
#
# Poissons Ratio (x) = 0.11569 0.05008
# Poissons Ratio (y) = 0.28547 0.52232
# Poissons Ratio (z) = 0.18391 0.77738
#
# Static dielectric constant tensor:
#      x y z
#    x 1.847200 0.000000 0.000000 
#    y 0.000000 1.722620 0.000000 
#    z 0.000000 0.000000 1.769930 
# 
# From -- ./inp_files/38883.got.cif
#   From: 2010.05.17/outbox.cif.g08.bks.cpg/sg70_20_cif.got.tgz:38883.got - 2010.06.03 15:57:51.
