data_PCOD9515518
_publ_section_title
;
Structure prediction by ZEFSAII (Michael W. Deem and Ramdas Pophale) SiO2 
 PCOD9515518
Probable space group: F D D D
;
_chemical_formula_sum "Si O2"
_cell_formula_units_Z 144
_cell_length_a 28.714067
_cell_length_b 8.549980
_cell_length_c 25.416110
_cell_angle_alpha 90.000000
_cell_angle_beta 90.000000
_cell_angle_gamma 90.000000
_cell_volume 6239.774424
_symmetry_space_group_name_H-M "F D D D"
_symmetry_group_IT_number 70
_space_group.IT_coordinate_system_code '2'
_symmetry_cell_setting 'orthorhombic'
loop_
_space_group_symop_operation_xyz
x,y,z
1/4-x,1/4-y,z
x,1/4-y,1/4-z
1/4-x,y,1/4-z
-x,-y,-z
3/4+x,3/4+y,-z
-x,3/4+y,3/4+z
3/4+x,-y,3/4+z
x,1/2+y,1/2+z
1/4-x,3/4-y,1/2+z
x,3/4-y,3/4-z
1/4-x,1/2+y,3/4-z
-x,1/2-y,1/2-z
3/4+x,1/4+y,1/2-z
-x,1/4+y,1/4+z
3/4+x,1/2-y,1/4+z
1/2+x,y,1/2+z
3/4-x,1/4-y,1/2+z
1/2+x,1/4-y,3/4-z
3/4-x,y,3/4-z
1/2-x,-y,1/2-z
1/4+x,3/4+y,1/2-z
1/2-x,3/4+y,1/4+z
1/4+x,-y,1/4+z
1/2+x,1/2+y,z
3/4-x,3/4-y,z
1/2+x,3/4-y,1/4-z
3/4-x,1/2+y,1/4-z
1/2-x,1/2-y,-z
1/4+x,1/4+y,-z
1/2-x,1/4+y,3/4+z
1/4+x,1/2-y,3/4+z
loop_
_atom_site_type_symbol
_atom_site_label
_atom_site_fract_x
_atom_site_fract_y
_atom_site_fract_z
Si Si1 0.125000 0.125000 0.540197
Si Si2 0.875000 0.375000 0.556060
Si Si3 0.797695 0.875000 0.875000
Si Si4 0.375000 0.123130 0.375000
Si Si5 0.041965 0.571730 0.969071
Si Si6 0.570995 0.875000 0.875000
Si Si7 0.708262 0.419011 0.315916
O O1 0.107330 0.261900 0.578901
O O2 0.088487 0.042348 0.501902
O O3 0.898515 0.236336 0.588713
O O4 0.826959 0.288127 0.536646
O O5 0.832669 0.738362 0.856058
O O6 0.762298 0.797879 0.918047
O O7 0.042862 0.491873 0.912205
O O8 0.039536 0.757173 0.964619
O O9 0.000000 0.500000 0.000000
O O10 0.689518 0.375000 0.375000
#
# Coordination Sequence:
#
# PCOD9515518 Si02
#       7
#    16  16  16  16  32  16  32
#     4  11  25  42  65 104 132 184 241 277 363 430
#     4  12  19  36  71  94 132 180 219 286 361 426
#     4   9  19  42  71  94 128 192 227 277 361 410
#     4  10  22  44  72  92 148 184 228 300 336 422
#     4  12  26  44  68  99 138 182 240 295 360 443
#     4  12  21  42  65  93 132 179 219 292 353 410
#     4  10  21  40  68  99 134 176 234 285 364 423
#
# _framework density 23.077756999999998
#
# number of rings (size 3 to 8) (size 9 to 14) (size 15 to 20)
#    0.667    0.444    3.333    3.333    0.000    5.333 
#    0.000   15.556    0.000    0.000    0.000    0.000 
#    0.000    0.000    0.000    0.000    0.000    0.000 
#
# Total GULP energy -200627.439950 kJ/mol
# GULP energy per Si atom -5572.984443 kJ/mol
# Density = 2.302523 g / cm^3
# Si number density = 23.077757 Si / 1000 Ang^3
#
#
#
# Elastic Constant Matrix: (Units=GPa)
#
#
# Indices 1 2 3 4 5 6 
#
# 1 130.2512 43.4995 26.0469 -0.0001 0.0000 0.0000
# 2 43.4995 128.7715 9.6542 -0.0002 0.0000 0.0001
# 3 26.0469 9.6542 47.0315 0.0000 0.0000 0.0000
# 4 -0.0001 -0.0002 0.0000 -13.5232 0.0001 0.0001
# 5 0.0000 0.0000 0.0000 0.0001 -4.2964 0.0000
# 6 0.0000 0.0001 0.0000 0.0001 0.0000 11.4880
#
#
#
# Elastic Compliance Matrix: (Units=1/GPa)
#
#
# Indices 1 2 3 4 5 6 
#
# 1 0.009584 -0.002884 -0.004716 0.000000 0.000000 0.000000
# 2 -0.002884 0.008755 -0.000200 0.000000 0.000000 0.000000
# 3 -0.004716 -0.000200 0.023915 0.000000 0.000000 0.000000
# 4 0.000000 0.000000 0.000000 -0.073947 -0.000001 0.000001
# 5 0.000000 0.000000 0.000000 -0.000001 -0.232751 0.000000
# 6 0.000000 0.000000 0.000000 0.000001 0.000000 0.087047
#
#
# Mechanical properties :
#
#
# Convention : Reuss Voigt Hill
#
# Bulk Modulus (GPa) = 37.51703 51.60616 44.56159
# Shear Modulus (GPa) = -32.69821 13.85725 -9.42048
#
# Velocity S-wave (km/s) = -3.76822 2.45309 -2.02260
# Velocity P-wave (km/s) = 1.62498 5.51669 3.72783
#
# Compressibility (1/GPa) = 0.02665456
#
# Stress axis : x y z
#
# Youngs Moduli (GPa) = 104.34526 114.22231 41.81480
#
# Poissons Ratio (x) = 0.32940 0.19718
# Poissons Ratio (y) = 0.30091 0.00836
# Poissons Ratio (z) = 0.49205 0.02284
#
# Static dielectric constant tensor:
#      x y z
#    x 1.898430 0.000000 0.000000 
#    y 0.000000 1.838890 0.000000 
#    z 0.000000 0.000000 1.942840 
# 
# From -- ./inp_files/68829.got.cif
#   From: 2010.05.17/outbox.cif.g08.bks.cpg/sg70_35_cif.got.tgz:68829.got - 2010.06.03 15:57:51.
