data_PCOD9515424
_publ_section_title
;
Structure prediction by ZEFSAII (Michael W. Deem and Ramdas Pophale) SiO2 
 PCOD9515424
Probable space group: F D D D
;
_chemical_formula_sum "Si O2"
_cell_formula_units_Z 120
_cell_length_a 22.878184
_cell_length_b 24.028112
_cell_length_c 11.693461
_cell_angle_alpha 90.000000
_cell_angle_beta 90.000000
_cell_angle_gamma 90.000000
_cell_volume 6428.124324
_symmetry_space_group_name_H-M "F D D D"
_symmetry_group_IT_number 70
_space_group.IT_coordinate_system_code '2'
_symmetry_cell_setting 'orthorhombic'
loop_
_space_group_symop_operation_xyz
x,y,z
1/4-x,1/4-y,z
x,1/4-y,1/4-z
1/4-x,y,1/4-z
-x,-y,-z
3/4+x,3/4+y,-z
-x,3/4+y,3/4+z
3/4+x,-y,3/4+z
x,1/2+y,1/2+z
1/4-x,3/4-y,1/2+z
x,3/4-y,3/4-z
1/4-x,1/2+y,3/4-z
-x,1/2-y,1/2-z
3/4+x,1/4+y,1/2-z
-x,1/4+y,1/4+z
3/4+x,1/2-y,1/4+z
1/2+x,y,1/2+z
3/4-x,1/4-y,1/2+z
1/2+x,1/4-y,3/4-z
3/4-x,y,3/4-z
1/2-x,-y,1/2-z
1/4+x,3/4+y,1/2-z
1/2-x,3/4+y,1/4+z
1/4+x,-y,1/4+z
1/2+x,1/2+y,z
3/4-x,3/4-y,z
1/2+x,3/4-y,1/4-z
3/4-x,1/2+y,1/4-z
1/2-x,1/2-y,-z
1/4+x,1/4+y,-z
1/2-x,1/4+y,3/4+z
1/4+x,1/2-y,3/4+z
loop_
_atom_site_type_symbol
_atom_site_label
_atom_site_fract_x
_atom_site_fract_y
_atom_site_fract_z
Si Si1 0.066825 0.158378 0.740938
Si Si2 0.875000 0.875000 0.875000
Si Si3 0.375000 0.737959 0.875000
Si Si4 0.518810 0.556641 0.057927
Si Si5 0.230432 0.334279 0.703416
O O1 0.125000 0.125000 0.779998
O O2 0.047857 0.125000 0.625000
O O3 0.088391 0.219783 0.705031
O O4 0.017901 0.161906 0.837576
O O5 0.917031 0.914707 0.951215
O O6 0.329504 0.697789 0.813563
O O7 0.512795 0.551591 0.194495
O O8 0.500000 0.500000 0.000000
O O9 0.476377 0.603618 0.004486
#
# Coordination Sequence:
#
# PCOD9515424 Si02
#       5
#    32   8  16  32  32
#     4   9  21  38  64  88 116 164 202 247 311 379
#     4   8  20  42  60  88 120 172 204 252 320 370
#     4  10  21  39  60  90 127 147 200 270 296 364
#     4  10  24  39  62  90 125 162 210 255 307 380
#     4  10  22  39  60  92 120 159 208 251 311 371
#
# _framework density 18.667964000000001
#
# number of rings (size 3 to 8) (size 9 to 14) (size 15 to 20)
#    0.000    2.933    0.000    0.800   14.933    1.067 
#    4.800    0.000    0.000    0.000    0.000    0.000 
#    0.000    0.000    0.000    0.000    0.000    0.000 
#
# Total GULP energy -167027.080440 kJ/mol
# GULP energy per Si atom -5567.569348 kJ/mol
# Density = 1.862548 g / cm^3
# Si number density = 18.667964 Si / 1000 Ang^3
#
#
#
# Elastic Constant Matrix: (Units=GPa)
#
#
# Indices 1 2 3 4 5 6 
#
# 1 67.9661 53.9093 49.3142 0.0000 0.0000 0.0000
# 2 53.9093 147.4871 48.8452 0.0000 0.0000 0.0000
# 3 49.3142 48.8452 129.4327 0.0000 0.0000 0.0000
# 4 0.0000 0.0000 0.0000 20.3201 0.0000 0.0000
# 5 0.0000 0.0000 0.0000 0.0000 10.5647 0.0000
# 6 0.0000 0.0000 0.0000 0.0000 0.0000 15.1811
#
#
#
# Elastic Compliance Matrix: (Units=1/GPa)
#
#
# Indices 1 2 3 4 5 6 
#
# 1 0.025302 -0.006921 -0.007028 0.000000 0.000000 0.000000
# 2 -0.006921 0.009642 -0.001002 0.000000 0.000000 0.000000
# 3 -0.007028 -0.001002 0.010782 0.000000 0.000000 0.000000
# 4 0.000000 0.000000 0.000000 0.049212 0.000000 0.000000
# 5 0.000000 0.000000 0.000000 0.000000 0.094655 0.000000
# 6 0.000000 0.000000 0.000000 0.000000 0.000000 0.065871
#
#
# Mechanical properties :
#
#
# Convention : Reuss Voigt Hill
#
# Bulk Modulus (GPa) = 63.19542 72.11370 67.65456
# Shear Modulus (GPa) = 17.20335 22.06766 19.63550
#
# Velocity S-wave (km/s) = 3.03899 3.44192 3.24671
# Velocity P-wave (km/s) = 6.79998 7.38304 7.09750
#
# Compressibility (1/GPa) = 0.01582393
#
# Stress axis : x y z
#
# Youngs Moduli (GPa) = 39.52215 103.71644 92.74775
#
# Poissons Ratio (x) = 0.71779 0.65188
# Poissons Ratio (y) = 0.27352 0.09291
# Poissons Ratio (z) = 0.27778 0.10390
#
# Static dielectric constant tensor:
#      x y z
#    x 1.667160 0.000000 0.000000 
#    y 0.000000 1.677940 0.000000 
#    z 0.000000 0.000000 1.703430 
# 
# From -- ./inp_files/17625.got.cif
#   From: 2010.05.17/outbox.cif.g08.bks.cpg/sg70_9_cif.got.tgz:17625.got - 2010.06.03 15:57:51.
