data_PCOD9515691
_publ_section_title
;
Structure prediction by ZEFSAII (Michael W. Deem and Ramdas Pophale) SiO2 
 PCOD9515691
Probable space group: F D D D
;
_chemical_formula_sum "Si O2"
_cell_formula_units_Z 160
_cell_length_a 14.342558
_cell_length_b 19.384797
_cell_length_c 23.568600
_cell_angle_alpha 90.000000
_cell_angle_beta 90.000000
_cell_angle_gamma 90.000000
_cell_volume 6552.720711
_symmetry_space_group_name_H-M "F D D D"
_symmetry_group_IT_number 70
_space_group.IT_coordinate_system_code '2'
_symmetry_cell_setting 'orthorhombic'
loop_
_space_group_symop_operation_xyz
x,y,z
1/4-x,1/4-y,z
x,1/4-y,1/4-z
1/4-x,y,1/4-z
-x,-y,-z
3/4+x,3/4+y,-z
-x,3/4+y,3/4+z
3/4+x,-y,3/4+z
x,1/2+y,1/2+z
1/4-x,3/4-y,1/2+z
x,3/4-y,3/4-z
1/4-x,1/2+y,3/4-z
-x,1/2-y,1/2-z
3/4+x,1/4+y,1/2-z
-x,1/4+y,1/4+z
3/4+x,1/2-y,1/4+z
1/2+x,y,1/2+z
3/4-x,1/4-y,1/2+z
1/2+x,1/4-y,3/4-z
3/4-x,y,3/4-z
1/2-x,-y,1/2-z
1/4+x,3/4+y,1/2-z
1/2-x,3/4+y,1/4+z
1/4+x,-y,1/4+z
1/2+x,1/2+y,z
3/4-x,3/4-y,z
1/2+x,3/4-y,1/4-z
3/4-x,1/2+y,1/4-z
1/2-x,1/2-y,-z
1/4+x,1/4+y,-z
1/2-x,1/4+y,3/4+z
1/4+x,1/2-y,3/4+z
loop_
_atom_site_type_symbol
_atom_site_label
_atom_site_fract_x
_atom_site_fract_y
_atom_site_fract_z
Si Si1 0.636196 0.321510 0.328367
Si Si2 0.228496 0.116774 0.987483
Si Si3 0.596539 0.336281 0.564066
Si Si4 0.281460 0.416751 0.463781
Si Si5 0.247826 0.535965 0.375050
O O1 0.676054 0.375000 0.375000
O O2 0.710373 0.320149 0.278882
O O3 0.544201 0.361836 0.307950
O O4 0.593306 0.249035 0.347671
O O5 0.125000 0.125000 0.011167
O O6 0.308567 0.173195 0.973106
O O7 0.215447 0.085883 0.925033
O O8 0.625000 0.305325 0.625000
O O9 0.515162 0.311324 0.523192
O O10 0.690349 0.415550 0.667781
O O11 0.375000 0.375000 0.473269
O O12 0.291971 0.473776 0.413930
#
# Coordination Sequence:
#
# PCOD9515691 Si02
#       5
#    32  32  32  32  32
#     4   9  21  40  61  92 136 170 217 279 338 411
#     4  10  22  40  62  88 131 181 230 266 330 412
#     4   9  21  39  60  91 139 172 215 283 340 406
#     4  10  22  35  64 102 136 169 223 275 355 428
#     4  10  22  39  65 101 132 174 220 291 360 400
#
# _framework density 24.417338999999998
#
# number of rings (size 3 to 8) (size 9 to 14) (size 15 to 20)
#    0.000    2.400    0.000    0.000   11.200    8.000 
#    0.000    9.000    0.000    0.000    0.000    0.000 
#    0.000    0.000    0.000    0.000    0.000    0.000 
#
# Total GULP energy -222681.655577 kJ/mol
# GULP energy per Si atom -5567.041389 kJ/mol
# Density = 2.436176 g / cm^3
# Si number density = 24.417339 Si / 1000 Ang^3
#
#
#
# Elastic Constant Matrix: (Units=GPa)
#
#
# Indices 1 2 3 4 5 6 
#
# 1 147.3566 32.8571 51.8578 0.0000 0.0000 0.0000
# 2 32.8571 32.3883 9.5936 0.0000 0.0000 0.0000
# 3 51.8578 9.5936 106.5011 0.0000 0.0000 0.0000
# 4 0.0000 0.0000 0.0000 -5.0466 0.0000 0.0000
# 5 0.0000 0.0000 0.0000 0.0000-7586.9561 0.0000
# 6 0.0000 0.0000 0.0000 0.0000 0.0000 -1.1487
#
#
#
# Elastic Compliance Matrix: (Units=1/GPa)
#
#
# Indices 1 2 3 4 5 6 
#
# 1 0.010319 -0.009227 -0.004194 0.000000 0.000000 0.000000
# 2 -0.009227 0.039971 0.000892 0.000000 0.000000 0.000000
# 3 -0.004194 0.000892 0.011351 0.000000 0.000000 0.000000
# 4 0.000000 0.000000 0.000000 -0.198155 0.000000 0.000000
# 5 0.000000 0.000000 0.000000 0.000000 -0.000132 0.000000
# 6 0.000000 0.000000 0.000000 0.000000 0.000000 -0.870541
#
#
# Mechanical properties :
#
#
# Convention : Reuss Voigt Hill
#
# Bulk Modulus (GPa) = 27.33327 52.76256 40.04791
# Shear Modulus (GPa) = -5.15499 -1505.83444 -755.49472
#
# Velocity S-wave (km/s) = -1.45457 -24.86053 -17.60911
# Velocity P-wave (km/s) = 2.89784 28.32676 19.92496
#
# Compressibility (1/GPa) = 0.03658545
#
# Stress axis : x y z
#
# Youngs Moduli (GPa) = 96.90491 25.01800 88.09652
#
# Poissons Ratio (x) = 0.23083 0.36944
# Poissons Ratio (y) = 0.89410 -0.07858
# Poissons Ratio (z) = 0.40638 -0.02232
#
# Static dielectric constant tensor:
#      x y z
#    x 1.986630 0.000000 0.000000 
#    y 0.000000 2.026750 0.000000 
#    z 0.000000 0.000000 2.009390 
# 
# From -- ./inp_files/57526.got.cif
#   From: 2010.05.17/outbox.cif.g08.bks.cpg/sg70_29_cif.got.tgz:57526.got - 2010.06.03 15:57:51.
