data_PCOD9515693
_publ_section_title
;
Structure prediction by ZEFSAII (Michael W. Deem and Ramdas Pophale) SiO2 
 PCOD9515693
Probable space group: F D D D
;
_chemical_formula_sum "Si O2"
_cell_formula_units_Z 144
_cell_length_a 29.173351
_cell_length_b 16.919844
_cell_length_c 15.729022
_cell_angle_alpha 90.000000
_cell_angle_beta 90.000000
_cell_angle_gamma 90.000000
_cell_volume 7763.979709
_symmetry_space_group_name_H-M "F D D D"
_symmetry_group_IT_number 70
_space_group.IT_coordinate_system_code '2'
_symmetry_cell_setting 'orthorhombic'
loop_
_space_group_symop_operation_xyz
x,y,z
1/4-x,1/4-y,z
x,1/4-y,1/4-z
1/4-x,y,1/4-z
-x,-y,-z
3/4+x,3/4+y,-z
-x,3/4+y,3/4+z
3/4+x,-y,3/4+z
x,1/2+y,1/2+z
1/4-x,3/4-y,1/2+z
x,3/4-y,3/4-z
1/4-x,1/2+y,3/4-z
-x,1/2-y,1/2-z
3/4+x,1/4+y,1/2-z
-x,1/4+y,1/4+z
3/4+x,1/2-y,1/4+z
1/2+x,y,1/2+z
3/4-x,1/4-y,1/2+z
1/2+x,1/4-y,3/4-z
3/4-x,y,3/4-z
1/2-x,-y,1/2-z
1/4+x,3/4+y,1/2-z
1/2-x,3/4+y,1/4+z
1/4+x,-y,1/4+z
1/2+x,1/2+y,z
3/4-x,3/4-y,z
1/2+x,3/4-y,1/4-z
3/4-x,1/2+y,1/4-z
1/2-x,1/2-y,-z
1/4+x,1/4+y,-z
1/2-x,1/4+y,3/4+z
1/4+x,1/2-y,3/4+z
loop_
_atom_site_type_symbol
_atom_site_label
_atom_site_fract_x
_atom_site_fract_y
_atom_site_fract_z
Si Si1 0.077801 0.168141 0.534726
Si Si2 0.611161 0.375000 0.875000
Si Si3 0.247704 0.898942 0.670537
Si Si4 0.449421 0.045337 0.084160
Si Si5 0.416909 0.107789 0.810622
O O1 0.125000 0.125000 0.503150
O O2 0.069722 0.125000 0.625000
O O3 0.035065 0.151426 0.472073
O O4 0.082356 0.261706 0.551448
O O5 0.645877 0.302662 0.896968
O O6 0.587115 0.360234 0.785567
O O7 0.212785 0.944247 0.735873
O O8 0.213556 0.861334 0.603677
O O9 0.277251 0.968805 0.629050
O O10 0.468479 0.125000 0.125000
O O11 0.375000 0.127510 0.875000
#
# Coordination Sequence:
#
# PCOD9515693 Si02
#       5
#    32  16  32  32  32
#     4  11  21  33  54  88 116 139 176 234 291 338
#     4  10  22  36  52  78 112 156 184 228 268 346
#     4  11  19  31  54  78 109 144 178 225 281 335
#     4   9  17  30  51  75 109 140 175 215 282 330
#     4  12  21  36  54  81 113 148 187 225 279 335
#
# _framework density 18.547188999999999
#
# number of rings (size 3 to 8) (size 9 to 14) (size 15 to 20)
#    0.667    0.667    4.444    6.000    0.000    0.000 
#    0.000    1.111    0.000    0.000    0.000    0.778 
#    0.000    0.000    0.000    0.000    0.000    0.000 
#
# Total GULP energy -200467.481284 kJ/mol
# GULP energy per Si atom -5568.541147 kJ/mol
# Density = 1.850498 g / cm^3
# Si number density = 18.547189 Si / 1000 Ang^3
#
#
#
# Elastic Constant Matrix: (Units=GPa)
#
#
# Indices 1 2 3 4 5 6 
#
# 1 119.3554 -3.5159 72.2272 0.0000 0.0000 0.0000
# 2 -3.5159 22.1017 4.7171 0.0000 0.0000 0.0000
# 3 72.2272 4.7171 119.5806 0.0000 0.0000 0.0000
# 4 0.0000 0.0000 0.0000 18.5771 0.0000 0.0000
# 5 0.0000 0.0000 0.0000 0.0000 37.1825 0.0000
# 6 0.0000 0.0000 0.0000 0.0000 0.0000 -0.3317
#
#
#
# Elastic Compliance Matrix: (Units=1/GPa)
#
#
# Indices 1 2 3 4 5 6 
#
# 1 0.013535 0.003931 -0.008330 0.000000 0.000000 0.000000
# 2 0.003931 0.046771 -0.004219 0.000000 0.000000 0.000000
# 3 -0.008330 -0.004219 0.013561 0.000000 0.000000 0.000000
# 4 0.000000 0.000000 0.000000 0.053830 0.000000 0.000000
# 5 0.000000 0.000000 0.000000 0.000000 0.026894 0.000000
# 6 0.000000 0.000000 0.000000 0.000000 0.000000 -3.015028
#
#
# Mechanical properties :
#
#
# Convention : Reuss Voigt Hill
#
# Bulk Modulus (GPa) = 17.65856 45.32161 31.49008
# Shear Modulus (GPa) = -1.77034 23.59286 10.91126
#
# Velocity S-wave (km/s) = -0.97805 3.57044 2.42812
# Velocity P-wave (km/s) = 2.87509 6.44099 4.98761
#
# Compressibility (1/GPa) = 0.05662976
#
# Stress axis : x y z
#
# Youngs Moduli (GPa) = 73.88124 21.38063 73.74303
#
# Poissons Ratio (x) = -0.08405 0.61431
# Poissons Ratio (y) = -0.29044 0.31115
# Poissons Ratio (z) = 0.61546 0.09021
#
# Static dielectric constant tensor:
#      x y z
#    x 1.735220 0.000000 0.000000 
#    y 0.000000 1.632930 0.000000 
#    z 0.000000 0.000000 1.728560 
# 
# From -- ./inp_files/30825.got.cif
#   From: 2010.05.17/outbox.cif.g08.bks.cpg/sg70_16_cif.got.tgz:30825.got - 2010.06.03 15:57:51.
