data_PCOD9515891
_publ_section_title
;
Structure prediction by ZEFSAII (Michael W. Deem and Ramdas Pophale) SiO2 
 PCOD9515891
Probable space group: F D D D
;
_chemical_formula_sum "Si O2"
_cell_formula_units_Z 96
_cell_length_a 29.354904
_cell_length_b 16.991099
_cell_length_c 8.417758
_cell_angle_alpha 90.000000
_cell_angle_beta 90.000000
_cell_angle_gamma 90.000000
_cell_volume 4198.542667
_symmetry_space_group_name_H-M "F D D D"
_symmetry_group_IT_number 70
_space_group.IT_coordinate_system_code '2'
_symmetry_cell_setting 'orthorhombic'
loop_
_space_group_symop_operation_xyz
x,y,z
1/4-x,1/4-y,z
x,1/4-y,1/4-z
1/4-x,y,1/4-z
-x,-y,-z
3/4+x,3/4+y,-z
-x,3/4+y,3/4+z
3/4+x,-y,3/4+z
x,1/2+y,1/2+z
1/4-x,3/4-y,1/2+z
x,3/4-y,3/4-z
1/4-x,1/2+y,3/4-z
-x,1/2-y,1/2-z
3/4+x,1/4+y,1/2-z
-x,1/4+y,1/4+z
3/4+x,1/2-y,1/4+z
1/2+x,y,1/2+z
3/4-x,1/4-y,1/2+z
1/2+x,1/4-y,3/4-z
3/4-x,y,3/4-z
1/2-x,-y,1/2-z
1/4+x,3/4+y,1/2-z
1/2-x,3/4+y,1/4+z
1/4+x,-y,1/4+z
1/2+x,1/2+y,z
3/4-x,3/4-y,z
1/2+x,3/4-y,1/4-z
3/4-x,1/2+y,1/4-z
1/2-x,1/2-y,-z
1/4+x,1/4+y,-z
1/2-x,1/4+y,3/4+z
1/4+x,1/2-y,3/4+z
loop_
_atom_site_type_symbol
_atom_site_label
_atom_site_fract_x
_atom_site_fract_y
_atom_site_fract_z
Si Si1 0.375000 0.375000 0.123889
Si Si2 0.045740 0.125000 0.125000
Si Si3 0.467421 0.044889 0.811630
Si Si4 0.244023 0.125000 0.625000
Si Si5 0.125000 0.259454 0.625000
O O1 0.388694 0.300396 0.232109
O O2 0.418750 0.396276 0.014603
O O3 0.008944 0.062766 0.192737
O O4 0.466350 0.950519 0.820010
O O5 0.414205 0.062845 0.795424
O O6 0.479228 0.089170 0.975738
#
# Coordination Sequence:
#
# PCOD9515891 Si02
#       5
#    16  16  32  16  16
#     4  10  22  42  66  96 132 182 228 262 328 418
#     4  11  24  41  68 101 134 171 226 284 328 388
#     4  11  23  41  66  96 131 173 219 274 332 392
#     4  10  22  42  64  89 128 173 216 262 330 400
#     4  11  22  40  66  92 132 181 224 268 334 403
#
# _framework density 22.865078
#
# number of rings (size 3 to 8) (size 9 to 14) (size 15 to 20)
#    0.000    1.333    0.000    8.000    0.000    6.667 
#    0.000    3.333    0.000    0.000    0.000    0.000 
#    0.000    0.000    0.000    0.000    0.000    0.000 
#
# Total GULP energy -133671.961120 kJ/mol
# GULP energy per Si atom -5569.665047 kJ/mol
# Density = 2.281304 g / cm^3
# Si number density = 22.865078 Si / 1000 Ang^3
#
#
#
# Elastic Constant Matrix: (Units=GPa)
#
#
# Indices 1 2 3 4 5 6 
#
# 1 186.2408 35.0711 59.4313 0.0000 0.0000 0.0000
# 2 35.0711 66.3880 33.8266 0.0000 0.0000 0.0000
# 3 59.4313 33.8266 119.1652 0.0000 0.0000 0.0000
# 4 0.0000 0.0000 0.0000 19.6001 0.0000 0.0000
# 5 0.0000 0.0000 0.0000 0.0000 69.3173 0.0000
# 6 0.0000 0.0000 0.0000 0.0000 0.0000 -38.4076
#
#
#
# Elastic Compliance Matrix: (Units=1/GPa)
#
#
# Indices 1 2 3 4 5 6 
#
# 1 0.006633 -0.002126 -0.002704 0.000000 0.000000 0.000000
# 2 -0.002126 0.018291 -0.004132 0.000000 0.000000 0.000000
# 3 -0.002704 -0.004132 0.010913 0.000000 0.000000 0.000000
# 4 0.000000 0.000000 0.000000 0.051020 0.000000 0.000000
# 5 0.000000 0.000000 0.000000 0.000000 0.014426 0.000000
# 6 0.000000 0.000000 0.000000 0.000000 0.000000 -0.026037
#
#
# Mechanical properties :
#
#
# Convention : Reuss Voigt Hill
#
# Bulk Modulus (GPa) = 55.82599 69.82801 62.82700
# Shear Modulus (GPa) = 50.43204 26.33297 38.38250
#
# Velocity S-wave (km/s) = 4.70152 3.39730 4.10158
# Velocity P-wave (km/s) = 7.34443 6.78191 7.06877
#
# Compressibility (1/GPa) = 0.01791280
#
# Stress axis : x y z
#
# Youngs Moduli (GPa) = 150.76705 54.67056 91.63014
#
# Poissons Ratio (x) = 0.11622 0.24781
# Poissons Ratio (y) = 0.32052 0.37862
# Poissons Ratio (z) = 0.40775 0.22590
#
# Static dielectric constant tensor:
#      x y z
#    x 1.923320 0.000000 0.000000 
#    y 0.000000 1.838350 0.000000 
#    z 0.000000 0.000000 1.896400 
# 
# From -- ./inp_files/8148.got.cif
#   From: 2010.05.17/outbox.cif.g08.bks.cpg/sg70_5_cif.got.tgz:8148.got - 2010.06.03 15:57:51.
