data_PCOD9515597
_publ_section_title
;
Structure prediction by ZEFSAII (Michael W. Deem and Ramdas Pophale) SiO2 
 PCOD9515597
Probable space group: F D D D
;
_chemical_formula_sum "Si O2"
_cell_formula_units_Z 168
_cell_length_a 22.268888
_cell_length_b 11.773727
_cell_length_c 26.196313
_cell_angle_alpha 90.000000
_cell_angle_beta 90.000000
_cell_angle_gamma 90.000000
_cell_volume 6868.353881
_symmetry_space_group_name_H-M "F D D D"
_symmetry_group_IT_number 70
_space_group.IT_coordinate_system_code '2'
_symmetry_cell_setting 'orthorhombic'
loop_
_space_group_symop_operation_xyz
x,y,z
1/4-x,1/4-y,z
x,1/4-y,1/4-z
1/4-x,y,1/4-z
-x,-y,-z
3/4+x,3/4+y,-z
-x,3/4+y,3/4+z
3/4+x,-y,3/4+z
x,1/2+y,1/2+z
1/4-x,3/4-y,1/2+z
x,3/4-y,3/4-z
1/4-x,1/2+y,3/4-z
-x,1/2-y,1/2-z
3/4+x,1/4+y,1/2-z
-x,1/4+y,1/4+z
3/4+x,1/2-y,1/4+z
1/2+x,y,1/2+z
3/4-x,1/4-y,1/2+z
1/2+x,1/4-y,3/4-z
3/4-x,y,3/4-z
1/2-x,-y,1/2-z
1/4+x,3/4+y,1/2-z
1/2-x,3/4+y,1/4+z
1/4+x,-y,1/4+z
1/2+x,1/2+y,z
3/4-x,3/4-y,z
1/2+x,3/4-y,1/4-z
3/4-x,1/2+y,1/4-z
1/2-x,1/2-y,-z
1/4+x,1/4+y,-z
1/2-x,1/4+y,3/4+z
1/4+x,1/2-y,3/4+z
loop_
_atom_site_type_symbol
_atom_site_label
_atom_site_fract_x
_atom_site_fract_y
_atom_site_fract_z
Si Si1 0.625000 0.625000 0.786101
Si Si2 0.190064 0.063182 0.973920
Si Si3 0.337512 0.077605 0.440773
Si Si4 0.477428 0.389451 0.612285
Si Si5 0.433757 0.647474 0.008918
Si Si6 0.125000 0.625000 0.625000
Si Si7 0.441311 0.625000 0.125000
O O1 0.573695 0.677137 0.822643
O O2 0.589942 0.527148 0.756474
O O3 0.125000 0.125000 0.978226
O O4 0.210717 0.057853 0.916076
O O5 0.245123 0.121534 0.004143
O O6 0.188158 0.943181 0.002788
O O7 0.294095 0.159132 0.409599
O O8 0.405735 0.099826 0.456381
O O9 0.338475 0.958891 0.410981
O O10 0.469491 0.251442 0.617365
O O11 0.415229 0.608464 0.066659
#
# Coordination Sequence:
#
# PCOD9515597 Si02
#       7
#    16  32  32  32  32   8  16
#     4  10  22  47  68  91 138 179 243 292 330 420
#     4  12  24  42  67 100 141 179 228 285 354 423
#     4  12  25  43  70 104 139 182 224 288 365 412
#     4  11  23  42  68  99 134 181 233 293 342 420
#     4  11  26  44  69 102 137 191 232 290 354 416
#     4  12  26  42  64 110 148 168 222 298 354 434
#     4  10  21  42  67  98 138 179 236 287 346 415
#
# _framework density 24.460008999999999
#
# number of rings (size 3 to 8) (size 9 to 14) (size 15 to 20)
#    0.000    0.762    5.714    2.857    2.667    3.810 
#    0.000    0.000    0.000    4.000    0.000    0.000 
#    0.000    0.000    0.000    0.000    0.000    0.000 
#
# Total GULP energy -234101.645580 kJ/mol
# GULP energy per Si atom -5573.848704 kJ/mol
# Density = 2.440434 g / cm^3
# Si number density = 24.460009 Si / 1000 Ang^3
#
#
#
# Elastic Constant Matrix: (Units=GPa)
#
#
# Indices 1 2 3 4 5 6 
#
# 1 163.8204 12.0948 62.2606 0.0000 0.0000 0.0000
# 2 12.0948 28.0840 10.2467 0.0000 0.0000 0.0000
# 3 62.2606 10.2467 130.1350 0.0000 0.0000 0.0000
# 4 0.0000 0.0000 0.0000 18.7328 0.0000 0.0000
# 5 0.0000 0.0000 0.0000 0.0000 -6.7597 0.0000
# 6 0.0000 0.0000 0.0000 0.0000 0.0000 18.4284
#
#
#
# Elastic Compliance Matrix: (Units=1/GPa)
#
#
# Indices 1 2 3 4 5 6 
#
# 1 0.007568 -0.001996 -0.003464 0.000000 0.000000 0.000000
# 2 -0.001996 0.037187 -0.001973 0.000000 0.000000 0.000000
# 3 -0.003464 -0.001973 0.009497 0.000000 0.000000 0.000000
# 4 0.000000 0.000000 0.000000 0.053382 0.000000 0.000000
# 5 0.000000 0.000000 0.000000 0.000000 -0.147936 0.000000
# 6 0.000000 0.000000 0.000000 0.000000 0.000000 0.054264
#
#
# Mechanical properties :
#
#
# Convention : Reuss Voigt Hill
#
# Bulk Modulus (GPa) = 25.38928 54.58262 39.98595
# Shear Modulus (GPa) = 119.17233 21.90946 70.54089
#
# Velocity S-wave (km/s) = 6.98764 2.99611 5.37605
# Velocity P-wave (km/s) = 8.68937 5.85939 7.41072
#
# Compressibility (1/GPa) = 0.03938670
#
# Stress axis : x y z
#
# Youngs Moduli (GPa) = 132.13644 26.89120 105.29864
#
# Poissons Ratio (x) = 0.05366 0.36471
# Poissons Ratio (y) = 0.26368 0.20779
# Poissons Ratio (z) = 0.45767 0.05306
#
# Static dielectric constant tensor:
#      x y z
#    x 2.101090 0.000000 0.000000 
#    y 0.000000 2.010920 0.000000 
#    z 0.000000 0.000000 1.962110 
# 
# From -- ./inp_files/60325.got.cif
#   From: 2010.05.17/outbox.cif.g08.bks.cpg/sg70_31_cif.got.tgz:60325.got - 2010.06.03 15:57:51.
