data_PCOD9515376
_publ_section_title
;
Structure prediction by ZEFSAII (Michael W. Deem and Ramdas Pophale) SiO2 
 PCOD9515376
Probable space group: F D D D
;
_chemical_formula_sum "Si O2"
_cell_formula_units_Z 176
_cell_length_a 21.387356
_cell_length_b 14.360643
_cell_length_c 23.562178
_cell_angle_alpha 90.000000
_cell_angle_beta 90.000000
_cell_angle_gamma 90.000000
_cell_volume 7236.797443
_symmetry_space_group_name_H-M "F D D D"
_symmetry_group_IT_number 70
_space_group.IT_coordinate_system_code '2'
_symmetry_cell_setting 'orthorhombic'
loop_
_space_group_symop_operation_xyz
x,y,z
1/4-x,1/4-y,z
x,1/4-y,1/4-z
1/4-x,y,1/4-z
-x,-y,-z
3/4+x,3/4+y,-z
-x,3/4+y,3/4+z
3/4+x,-y,3/4+z
x,1/2+y,1/2+z
1/4-x,3/4-y,1/2+z
x,3/4-y,3/4-z
1/4-x,1/2+y,3/4-z
-x,1/2-y,1/2-z
3/4+x,1/4+y,1/2-z
-x,1/4+y,1/4+z
3/4+x,1/2-y,1/4+z
1/2+x,y,1/2+z
3/4-x,1/4-y,1/2+z
1/2+x,1/4-y,3/4-z
3/4-x,y,3/4-z
1/2-x,-y,1/2-z
1/4+x,3/4+y,1/2-z
1/2-x,3/4+y,1/4+z
1/4+x,-y,1/4+z
1/2+x,1/2+y,z
3/4-x,3/4-y,z
1/2+x,3/4-y,1/4-z
3/4-x,1/2+y,1/4-z
1/2-x,1/2-y,-z
1/4+x,1/4+y,-z
1/2-x,1/4+y,3/4+z
1/4+x,1/2-y,3/4+z
loop_
_atom_site_type_symbol
_atom_site_label
_atom_site_fract_x
_atom_site_fract_y
_atom_site_fract_z
Si Si1 0.009538 0.527581 0.169920
Si Si2 0.625000 0.625000 0.523442
Si Si3 0.430097 0.078336 0.446207
Si Si4 0.460099 0.964677 0.052759
Si Si5 0.959963 0.038664 0.790065
Si Si6 0.232325 0.407095 0.818104
O O1 0.067781 0.595065 0.186507
O O2 0.041623 0.426164 0.176830
O O3 0.974614 0.522679 0.109275
O O4 0.961783 0.544186 0.221439
O O5 0.606754 0.543485 0.478492
O O6 0.356612 0.069183 0.436072
O O7 0.440138 0.071140 0.514241
O O8 0.471869 0.994403 0.421777
O O9 0.486436 0.859517 0.061686
O O10 0.500000 0.000000 0.000000
O O11 0.975310 0.931843 0.802405
O O12 0.197645 0.375000 0.875000
#
# Coordination Sequence:
#
# PCOD9515376 Si02
#       6
#    32  16  32  32  32  32
#     4  10  23  44  65  96 132 173 218 277 336 400
#     4  10  24  45  68 100 140 176 227 290 338 406
#     4  10  21  40  61  91 127 166 209 266 324 392
#     4  11  24  42  64  97 128 175 231 272 346 414
#     4  10  22  40  60  92 126 162 222 263 328 406
#     4  10  21  38  60  91 124 162 211 259 323 391
#
# _framework density 24.320150000000002
#
# number of rings (size 3 to 8) (size 9 to 14) (size 15 to 20)
#    0.000    1.818    0.000    2.727    0.000    9.455 
#   22.909    0.000    0.000    0.000    0.000    0.000 
#    0.000    0.000    0.000    0.000    0.000    0.000 
#
# Total GULP energy -245983.065450 kJ/mol
# GULP energy per Si atom -5590.524215 kJ/mol
# Density = 2.426480 g / cm^3
# Si number density = 24.320150 Si / 1000 Ang^3
#
#
#
# Elastic Constant Matrix: (Units=GPa)
#
#
# Indices 1 2 3 4 5 6 
#
# 1 75.9121 7.3762 22.4024 0.0000 0.0000 0.0000
# 2 7.3762 101.7162 11.1170 0.0000 0.0000 0.0000
# 3 22.4024 11.1170 183.9551 0.0000 0.0000 0.0000
# 4 0.0000 0.0000 0.0000 46.5021 0.0000 0.0000
# 5 0.0000 0.0000 0.0000 0.0000 23.4829 0.0000
# 6 0.0000 0.0000 0.0000 0.0000 0.0000 27.1438
#
#
#
# Elastic Compliance Matrix: (Units=1/GPa)
#
#
# Indices 1 2 3 4 5 6 
#
# 1 0.013732 -0.000818 -0.001623 0.000000 0.000000 0.000000
# 2 -0.000818 0.009945 -0.000501 0.000000 0.000000 0.000000
# 3 -0.001623 -0.000501 0.005664 0.000000 0.000000 0.000000
# 4 0.000000 0.000000 0.000000 0.021504 0.000000 0.000000
# 5 0.000000 0.000000 0.000000 0.000000 0.042584 0.000000
# 6 0.000000 0.000000 0.000000 0.000000 0.000000 0.036841
#
#
# Mechanical properties :
#
#
# Convention : Reuss Voigt Hill
#
# Bulk Modulus (GPa) = 42.63324 49.26383 45.94854
# Shear Modulus (GPa) = 34.72841 40.80493 37.76667
#
# Velocity S-wave (km/s) = 3.78295 4.10057 3.94496
# Velocity P-wave (km/s) = 6.05384 6.53605 6.29956
#
# Compressibility (1/GPa) = 0.02345587
#
# Stress axis : x y z
#
# Youngs Moduli (GPa) = 72.82490 100.54877 176.55254
#
# Poissons Ratio (x) = 0.08229 0.28651
# Poissons Ratio (y) = 0.05960 0.08852
# Poissons Ratio (z) = 0.11818 0.05041
#
# Static dielectric constant tensor:
#      x y z
#    x 1.895090 0.000000 0.000000 
#    y 0.000000 1.979520 0.000000 
#    z 0.000000 0.000000 1.997890 
# 
# From -- ./inp_files/53641.got.cif
#   From: 2010.05.17/outbox.cif.g08.bks.cpg/sg70_27_cif.got.tgz:53641.got - 2010.06.03 15:57:51.
