data_PCOD9515345
_publ_section_title
;
Structure prediction by ZEFSAII (Michael W. Deem and Ramdas Pophale) SiO2 
 PCOD9515345
Probable space group: F D D D
;
_chemical_formula_sum "Si O2"
_cell_formula_units_Z 192
_cell_length_a 28.749769
_cell_length_b 13.847596
_cell_length_c 22.817551
_cell_angle_alpha 90.000000
_cell_angle_beta 90.000000
_cell_angle_gamma 90.000000
_cell_volume 9084.013565
_symmetry_space_group_name_H-M "F D D D"
_symmetry_group_IT_number 70
_space_group.IT_coordinate_system_code '2'
_symmetry_cell_setting 'orthorhombic'
loop_
_space_group_symop_operation_xyz
x,y,z
1/4-x,1/4-y,z
x,1/4-y,1/4-z
1/4-x,y,1/4-z
-x,-y,-z
3/4+x,3/4+y,-z
-x,3/4+y,3/4+z
3/4+x,-y,3/4+z
x,1/2+y,1/2+z
1/4-x,3/4-y,1/2+z
x,3/4-y,3/4-z
1/4-x,1/2+y,3/4-z
-x,1/2-y,1/2-z
3/4+x,1/4+y,1/2-z
-x,1/4+y,1/4+z
3/4+x,1/2-y,1/4+z
1/2+x,y,1/2+z
3/4-x,1/4-y,1/2+z
1/2+x,1/4-y,3/4-z
3/4-x,y,3/4-z
1/2-x,-y,1/2-z
1/4+x,3/4+y,1/2-z
1/2-x,3/4+y,1/4+z
1/4+x,-y,1/4+z
1/2+x,1/2+y,z
3/4-x,3/4-y,z
1/2+x,3/4-y,1/4-z
3/4-x,1/2+y,1/4-z
1/2-x,1/2-y,-z
1/4+x,1/4+y,-z
1/2-x,1/4+y,3/4+z
1/4+x,1/2-y,3/4+z
loop_
_atom_site_type_symbol
_atom_site_label
_atom_site_fract_x
_atom_site_fract_y
_atom_site_fract_z
Si Si1 0.985548 0.375000 0.875000
Si Si2 0.635618 0.738252 0.946868
Si Si3 0.091356 0.745239 0.068923
Si Si4 0.196910 0.036711 0.876482
Si Si5 0.085642 0.276968 0.171547
Si Si6 0.263934 0.271660 0.067808
Si Si7 0.875000 0.875000 0.535617
O O1 0.952617 0.323968 0.922309
O O2 0.016508 0.288307 0.850284
O O3 0.625000 0.625000 0.935949
O O4 0.588984 0.776457 0.916771
O O5 0.684996 0.773461 0.920345
O O6 0.644565 0.745051 0.015726
O O7 0.125000 0.729775 0.125000
O O8 0.079749 0.857655 0.071191
O O9 0.114026 0.713710 0.007902
O O10 0.224169 0.116814 0.915755
O O11 0.167764 0.092454 0.826598
O O12 0.125000 0.254475 0.125000
O O13 0.034403 0.240914 0.152300
O O14 0.250000 0.250000 0.000000
#
# Coordination Sequence:
#
# PCOD9515345 Si02
#       7
#    16  32  32  32  32  32  16
#     4  12  23  42  62  90 130 162 217 264 324 390
#     4   9  19  40  61  85 129 160 203 269 327 372
#     4  11  23  44  61  86 129 174 215 262 318 388
#     4  11  23  39  61  98 125 161 217 275 325 387
#     4  10  21  37  63  92 120 165 219 254 313 389
#     4   9  17  38  65  82 122 170 196 258 331 379
#     4  12  23  42  64  86 125 174 206 266 322 374
#
# _framework density 21.136030999999999
#
# number of rings (size 3 to 8) (size 9 to 14) (size 15 to 20)
#    0.000    1.667    5.833    0.000    2.333    1.000 
#    3.000    0.000    0.000    6.000    0.000    0.000 
#    0.000    0.000    0.000    0.000    0.000    0.000 
#
# Total GULP energy -267238.066245 kJ/mol
# GULP energy per Si atom -5567.459713 kJ/mol
# Density = 2.108792 g / cm^3
# Si number density = 21.136031 Si / 1000 Ang^3
#
#
#
# Elastic Constant Matrix: (Units=GPa)
#
#
# Indices 1 2 3 4 5 6 
#
# 1 155.5658 12.2353 59.4858 0.0000 0.0000 0.0000
# 2 12.2353 52.7976 26.4874 0.0000 0.0000 0.0000
# 3 59.4858 26.4874 92.7275 0.0000 0.0000 0.0000
# 4 0.0000 0.0000 0.0000 10.1014 0.0000 0.0000
# 5 0.0000 0.0000 0.0000 0.0000 21.0167 0.0000
# 6 0.0000 0.0000 0.0000 0.0000 0.0000 22.7756
#
#
#
# Elastic Compliance Matrix: (Units=1/GPa)
#
#
# Indices 1 2 3 4 5 6 
#
# 1 0.008554 0.000900 -0.005744 0.000000 0.000000 0.000000
# 2 0.000900 0.022203 -0.006919 0.000000 0.000000 0.000000
# 3 -0.005744 -0.006919 0.016446 0.000000 0.000000 0.000000
# 4 0.000000 0.000000 0.000000 0.098996 0.000000 0.000000
# 5 0.000000 0.000000 0.000000 0.000000 0.047581 0.000000
# 6 0.000000 0.000000 0.000000 0.000000 0.000000 0.043907
#
#
# Mechanical properties :
#
#
# Convention : Reuss Voigt Hill
#
# Bulk Modulus (GPa) = 42.23949 55.27865 48.75907
# Shear Modulus (GPa) = 18.57997 24.30424 21.44211
#
# Velocity S-wave (km/s) = 2.96812 3.39469 3.18855
# Velocity P-wave (km/s) = 5.63687 6.44793 6.05599
#
# Compressibility (1/GPa) = 0.02367453
#
# Stress axis : x y z
#
# Youngs Moduli (GPa) = 116.90479 45.03884 60.80544
#
# Poissons Ratio (x) = -0.04052 0.34929
# Poissons Ratio (y) = -0.10516 0.42073
# Poissons Ratio (z) = 0.67155 0.31164
#
# Static dielectric constant tensor:
#      x y z
#    x 1.877850 0.000000 0.000000 
#    y 0.000000 1.800630 0.000000 
#    z 0.000000 0.000000 1.751460 
# 
# From -- ./inp_files/61772.got.cif
#   From: 2010.05.17/outbox.cif.g08.bks.cpg/sg70_31_cif.got.tgz:61772.got - 2010.06.03 15:57:51.
