data_PCOD9515155
_publ_section_title
;
Structure prediction by ZEFSAII (Michael W. Deem and Ramdas Pophale) SiO2 
 PCOD9515155
Probable space group: F D D D
;
_chemical_formula_sum "Si O2"
_cell_formula_units_Z 208
_cell_length_a 28.740352
_cell_length_b 21.788273
_cell_length_c 15.433209
_cell_angle_alpha 90.000000
_cell_angle_beta 90.000000
_cell_angle_gamma 90.000000
_cell_volume 9664.316150
_symmetry_space_group_name_H-M "F D D D"
_symmetry_group_IT_number 70
_space_group.IT_coordinate_system_code '2'
_symmetry_cell_setting 'orthorhombic'
loop_
_space_group_symop_operation_xyz
x,y,z
1/4-x,1/4-y,z
x,1/4-y,1/4-z
1/4-x,y,1/4-z
-x,-y,-z
3/4+x,3/4+y,-z
-x,3/4+y,3/4+z
3/4+x,-y,3/4+z
x,1/2+y,1/2+z
1/4-x,3/4-y,1/2+z
x,3/4-y,3/4-z
1/4-x,1/2+y,3/4-z
-x,1/2-y,1/2-z
3/4+x,1/4+y,1/2-z
-x,1/4+y,1/4+z
3/4+x,1/2-y,1/4+z
1/2+x,y,1/2+z
3/4-x,1/4-y,1/2+z
1/2+x,1/4-y,3/4-z
3/4-x,y,3/4-z
1/2-x,-y,1/2-z
1/4+x,3/4+y,1/2-z
1/2-x,3/4+y,1/4+z
1/4+x,-y,1/4+z
1/2+x,1/2+y,z
3/4-x,3/4-y,z
1/2+x,3/4-y,1/4-z
3/4-x,1/2+y,1/4-z
1/2-x,1/2-y,-z
1/4+x,1/4+y,-z
1/2-x,1/4+y,3/4+z
1/4+x,1/2-y,3/4+z
loop_
_atom_site_type_symbol
_atom_site_label
_atom_site_fract_x
_atom_site_fract_y
_atom_site_fract_z
Si Si1 0.447626 0.827996 0.561265
Si Si2 0.539739 0.282940 0.137776
Si Si3 0.112998 0.762386 0.530659
Si Si4 0.166117 0.196926 0.486742
Si Si5 0.375000 0.131790 0.375000
Si Si6 0.293374 0.783573 0.550051
Si Si7 0.690980 0.061949 0.002070
O O1 0.493183 0.819979 0.620420
O O2 0.433282 0.772745 0.498788
O O3 0.409038 0.818608 0.635577
O O4 0.450389 0.895155 0.520058
O O5 0.554896 0.255666 0.230813
O O6 0.581396 0.325867 0.104247
O O7 0.532898 0.224962 0.075371
O O8 0.125000 0.735505 0.625000
O O9 0.108833 0.835045 0.549109
O O10 0.159058 0.751556 0.473716
O O11 0.190513 0.134610 0.518068
O O12 0.113459 0.204722 0.517821
O O13 0.250000 0.750000 0.500000
O O14 0.291867 0.791544 0.655662
#
# Coordination Sequence:
#
# PCOD9515155 Si02
#       7
#    32  32  32  32  16  32  32
#     4  11  24  40  67  96 127 171 220 268 328 399
#     4  12  22  40  64  97 130 173 212 268 336 393
#     4  10  24  44  65  86 132 173 215 269 329 387
#     4  10  20  41  65  94 127 166 212 270 321 397
#     4  10  24  42  62  90 138 174 214 282 334 384
#     4  11  23  43  67  97 129 165 219 279 326 390
#     4  10  21  38  68  94 127 164 217 264 324 396
#
# _framework density 21.522473999999999
#
# number of rings (size 3 to 8) (size 9 to 14) (size 15 to 20)
#    0.462    0.923    3.077    2.308    2.154    3.692 
#    0.000    6.154    0.000    0.000    0.000    0.000 
#    0.000    0.000    0.000    0.000    0.000    0.000 
#
# Total GULP energy -289540.422662 kJ/mol
# GULP energy per Si atom -5568.085051 kJ/mol
# Density = 2.147349 g / cm^3
# Si number density = 21.522474 Si / 1000 Ang^3
#
#
#
# Elastic Constant Matrix: (Units=GPa)
#
#
# Indices 1 2 3 4 5 6 
#
# 1 76.6075 22.2064 4.7782 0.0000 0.0000 0.0000
# 2 22.2064 112.7063 21.7590 0.0000 0.0000 0.0000
# 3 4.7782 21.7590 61.8615 0.0000 0.0000 0.0000
# 4 0.0000 0.0000 0.0000 21.5424 0.0000 0.0000
# 5 0.0000 0.0000 0.0000 0.0000 30.3432 0.0000
# 6 0.0000 0.0000 0.0000 0.0000 0.0000 36.4817
#
#
#
# Elastic Compliance Matrix: (Units=1/GPa)
#
#
# Indices 1 2 3 4 5 6 
#
# 1 0.013845 -0.002705 -0.000118 0.000000 0.000000 0.000000
# 2 -0.002705 0.010048 -0.003325 0.000000 0.000000 0.000000
# 3 -0.000118 -0.003325 0.017344 0.000000 0.000000 0.000000
# 4 0.000000 0.000000 0.000000 0.046420 0.000000 0.000000
# 5 0.000000 0.000000 0.000000 0.000000 0.032956 0.000000
# 6 0.000000 0.000000 0.000000 0.000000 0.000000 0.027411
#
#
# Mechanical properties :
#
#
# Convention : Reuss Voigt Hill
#
# Bulk Modulus (GPa) = 34.55413 38.74025 36.64719
# Shear Modulus (GPa) = 29.41752 31.16893 30.29322
#
# Velocity S-wave (km/s) = 3.70107 3.80966 3.75576
# Velocity P-wave (km/s) = 5.86120 6.11476 5.98932
#
# Compressibility (1/GPa) = 0.02894010
#
# Stress axis : x y z
#
# Youngs Moduli (GPa) = 72.22802 99.52669 57.65739
#
# Poissons Ratio (x) = 0.26923 0.00680
# Poissons Ratio (y) = 0.19538 0.19172
# Poissons Ratio (z) = 0.00852 0.33094
#
# Static dielectric constant tensor:
#      x y z
#    x 1.830210 0.000000 0.000000 
#    y 0.000000 1.795160 0.000000 
#    z 0.000000 0.000000 1.897750 
# 
# From -- ./inp_files/39862.got.cif
#   From: 2010.05.17/outbox.cif.g08.bks.cpg/sg70_20_cif.got.tgz:39862.got - 2010.06.03 15:57:51.
