data_PCOD9515177
_publ_section_title
;
Structure prediction by ZEFSAII (Michael W. Deem and Ramdas Pophale) SiO2 
 PCOD9515177
Probable space group: F D D D
;
_chemical_formula_sum "Si O2"
_cell_formula_units_Z 168
_cell_length_a 23.776652
_cell_length_b 16.796963
_cell_length_c 19.979304
_cell_angle_alpha 90.000000
_cell_angle_beta 90.000000
_cell_angle_gamma 90.000000
_cell_volume 7979.245402
_symmetry_space_group_name_H-M "F D D D"
_symmetry_group_IT_number 70
_space_group.IT_coordinate_system_code '2'
_symmetry_cell_setting 'orthorhombic'
loop_
_space_group_symop_operation_xyz
x,y,z
1/4-x,1/4-y,z
x,1/4-y,1/4-z
1/4-x,y,1/4-z
-x,-y,-z
3/4+x,3/4+y,-z
-x,3/4+y,3/4+z
3/4+x,-y,3/4+z
x,1/2+y,1/2+z
1/4-x,3/4-y,1/2+z
x,3/4-y,3/4-z
1/4-x,1/2+y,3/4-z
-x,1/2-y,1/2-z
3/4+x,1/4+y,1/2-z
-x,1/4+y,1/4+z
3/4+x,1/2-y,1/4+z
1/2+x,y,1/2+z
3/4-x,1/4-y,1/2+z
1/2+x,1/4-y,3/4-z
3/4-x,y,3/4-z
1/2-x,-y,1/2-z
1/4+x,3/4+y,1/2-z
1/2-x,3/4+y,1/4+z
1/4+x,-y,1/4+z
1/2+x,1/2+y,z
3/4-x,3/4-y,z
1/2+x,3/4-y,1/4-z
3/4-x,1/2+y,1/4-z
1/2-x,1/2-y,-z
1/4+x,1/4+y,-z
1/2-x,1/4+y,3/4+z
1/4+x,1/2-y,3/4+z
loop_
_atom_site_type_symbol
_atom_site_label
_atom_site_fract_x
_atom_site_fract_y
_atom_site_fract_z
Si Si1 0.169910 0.989031 0.397109
Si Si2 0.540856 0.285832 0.395020
Si Si3 0.375000 0.375000 0.875000
Si Si4 0.696658 0.347400 0.485937
Si Si5 0.082620 0.271313 0.042664
Si Si6 0.251081 0.369978 0.119576
O O1 0.192986 0.077974 0.398001
O O2 0.104292 0.978115 0.382231
O O3 0.203278 0.949319 0.333983
O O4 0.182932 0.936897 0.462152
O O5 0.523864 0.375000 0.375000
O O6 0.547151 0.274003 0.474517
O O7 0.502814 0.214044 0.369081
O O8 0.409975 0.314897 0.922730
O O9 0.643328 0.305561 0.521413
O O10 0.745469 0.351363 0.540378
O O11 0.050959 0.328673 0.093893
#
# Coordination Sequence:
#
# PCOD9515177 Si02
#       6
#    32  32   8  32  32  32
#     4  10  21  40  62  88 130 171 209 263 325 392
#     4  11  24  45  63  86 131 176 218 261 324 384
#     4  12  24  40  68 100 142 164 196 270 360 380
#     4  10  20  42  60  88 135 164 204 266 328 389
#     4  11  24  42  62  97 132 170 208 265 332 395
#     4  12  23  36  67  96 118 165 221 269 314 383
#
# _framework density 21.054622999999999
#
# number of rings (size 3 to 8) (size 9 to 14) (size 15 to 20)
#    0.000    1.143    5.714    2.286    5.333    3.810 
#    0.000    0.000    0.000    1.143    0.000    0.000 
#    0.000    0.000    0.000    0.000    0.000    0.000 
#
# Total GULP energy -234639.712468 kJ/mol
# GULP energy per Si atom -5586.659821 kJ/mol
# Density = 2.100670 g / cm^3
# Si number density = 21.054623 Si / 1000 Ang^3
#
#
#
# Elastic Constant Matrix: (Units=GPa)
#
#
# Indices 1 2 3 4 5 6 
#
# 1 25.9921 42.4689 19.3275 0.0000 0.0000 0.0000
# 2 42.4689 195.7847 55.0730 0.0000 0.0000 0.0000
# 3 19.3275 55.0730 85.4275 0.0000 0.0000 0.0000
# 4 0.0000 0.0000 0.0000 34.4937 0.0000 0.0000
# 5 0.0000 0.0000 0.0000 0.0000 9.6830 0.0000
# 6 0.0000 0.0000 0.0000 0.0000 0.0000 24.0215
#
#
#
# Elastic Compliance Matrix: (Units=1/GPa)
#
#
# Indices 1 2 3 4 5 6 
#
# 1 0.062497 -0.011701 -0.006596 0.000000 0.000000 0.000000
# 2 -0.011701 0.008430 -0.002787 0.000000 0.000000 0.000000
# 3 -0.006596 -0.002787 0.014995 0.000000 0.000000 0.000000
# 4 0.000000 0.000000 0.000000 0.028991 0.000000 0.000000
# 5 0.000000 0.000000 0.000000 0.000000 0.103274 0.000000
# 6 0.000000 0.000000 0.000000 0.000000 0.000000 0.041629
#
#
# Mechanical properties :
#
#
# Convention : Reuss Voigt Hill
#
# Bulk Modulus (GPa) = 22.85569 60.10479 41.48024
# Shear Modulus (GPa) = 15.79436 26.32864 21.06150
#
# Velocity S-wave (km/s) = 2.74188 3.54007 3.16623
# Velocity P-wave (km/s) = 4.57196 6.73190 5.75419
#
# Compressibility (1/GPa) = 0.04375278
#
# Stress axis : x y z
#
# Youngs Moduli (GPa) = 16.00081 118.62619 66.68896
#
# Poissons Ratio (x) = 1.38806 0.43989
# Poissons Ratio (y) = 0.18723 0.18587
# Poissons Ratio (z) = 0.10554 0.33063
#
# Static dielectric constant tensor:
#      x y z
#    x 1.769620 0.000000 0.000000 
#    y 0.000000 1.788220 0.000000 
#    z 0.000000 0.000000 1.790750 
# 
# From -- ./inp_files/46776.got.cif
#   From: 2010.05.17/outbox.cif.g08.bks.cpg/sg70_24_cif.got.tgz:46776.got - 2010.06.03 15:57:51.
