data_PCOD9515619
_publ_section_title
;
Structure prediction by ZEFSAII (Michael W. Deem and Ramdas Pophale) SiO2 
 PCOD9515619
Probable space group: F D D D
;
_chemical_formula_sum "Si O2"
_cell_formula_units_Z 168
_cell_length_a 28.134954
_cell_length_b 20.307543
_cell_length_c 15.388275
_cell_angle_alpha 90.000000
_cell_angle_beta 90.000000
_cell_angle_gamma 90.000000
_cell_volume 8792.118438
_symmetry_space_group_name_H-M "F D D D"
_symmetry_group_IT_number 70
_space_group.IT_coordinate_system_code '2'
_symmetry_cell_setting 'orthorhombic'
loop_
_space_group_symop_operation_xyz
x,y,z
1/4-x,1/4-y,z
x,1/4-y,1/4-z
1/4-x,y,1/4-z
-x,-y,-z
3/4+x,3/4+y,-z
-x,3/4+y,3/4+z
3/4+x,-y,3/4+z
x,1/2+y,1/2+z
1/4-x,3/4-y,1/2+z
x,3/4-y,3/4-z
1/4-x,1/2+y,3/4-z
-x,1/2-y,1/2-z
3/4+x,1/4+y,1/2-z
-x,1/4+y,1/4+z
3/4+x,1/2-y,1/4+z
1/2+x,y,1/2+z
3/4-x,1/4-y,1/2+z
1/2+x,1/4-y,3/4-z
3/4-x,y,3/4-z
1/2-x,-y,1/2-z
1/4+x,3/4+y,1/2-z
1/2-x,3/4+y,1/4+z
1/4+x,-y,1/4+z
1/2+x,1/2+y,z
3/4-x,3/4-y,z
1/2+x,3/4-y,1/4-z
3/4-x,1/2+y,1/4-z
1/2-x,1/2-y,-z
1/4+x,1/4+y,-z
1/2-x,1/4+y,3/4+z
1/4+x,1/2-y,3/4+z
loop_
_atom_site_type_symbol
_atom_site_label
_atom_site_fract_x
_atom_site_fract_y
_atom_site_fract_z
Si Si1 0.580585 0.541529 0.968749
Si Si2 0.995818 0.856324 0.093221
Si Si3 0.173229 0.382960 0.236698
Si Si4 0.125000 0.125000 0.125000
Si Si5 0.179618 0.858332 0.474461
Si Si6 0.426360 0.511779 0.632104
O O1 0.595255 0.578757 0.058223
O O2 0.543162 0.586352 0.917497
O O3 0.560081 0.468908 0.986171
O O4 0.628140 0.526003 0.912042
O O5 0.968304 0.790234 0.114730
O O6 0.037430 0.869262 0.162409
O O7 0.024391 0.851645 0.002787
O O8 0.117007 0.374580 0.219466
O O9 0.183527 0.320537 0.298972
O O10 0.175379 0.451316 0.290055
O O11 0.167127 0.875000 0.375000
#
# Coordination Sequence:
#
# PCOD9515619 Si02
#       6
#    32  32  32   8  32  32
#     4  11  24  41  61  93 132 166 202 259 326 383
#     4  12  24  35  66  98 114 164 216 268 304 386
#     4  10  22  42  63  82 127 166 208 261 316 377
#     4  12  24  40  68  92 140 166 200 262 336 392
#     4  11  24  42  61  87 130 170 211 261 321 385
#     4  10  21  43  61  87 127 167 202 260 324 375
#
# _framework density 19.108022999999999
#
# number of rings (size 3 to 8) (size 9 to 14) (size 15 to 20)
#    0.000    1.143    5.714    1.714    9.333    0.000 
#    0.000    0.000    0.000    0.000    0.000    5.333 
#    0.000    0.000    0.000    0.000    0.000    0.000 
#
# Total GULP energy -234386.219497 kJ/mol
# GULP energy per Si atom -5580.624274 kJ/mol
# Density = 1.906453 g / cm^3
# Si number density = 19.108023 Si / 1000 Ang^3
#
#
#
# Elastic Constant Matrix: (Units=GPa)
#
#
# Indices 1 2 3 4 5 6 
#
# 1 113.2065 62.8642 50.0203 0.0000 0.0000 0.0000
# 2 62.8642 122.2040 36.7808 0.0000 0.0000 0.0000
# 3 50.0203 36.7808 89.1126 0.0000 0.0000 0.0000
# 4 0.0000 0.0000 0.0000 -49.1402 0.0000 0.0000
# 5 0.0000 0.0000 0.0000 0.0000 29.4232 0.0000
# 6 0.0000 0.0000 0.0000 0.0000 0.0000 25.0083
#
#
#
# Elastic Compliance Matrix: (Units=1/GPa)
#
#
# Indices 1 2 3 4 5 6 
#
# 1 0.014604 -0.005761 -0.005820 0.000000 0.000000 0.000000
# 2 -0.005761 0.011616 -0.001561 0.000000 0.000000 0.000000
# 3 -0.005820 -0.001561 0.015133 0.000000 0.000000 0.000000
# 4 0.000000 0.000000 0.000000 -0.020350 0.000000 0.000000
# 5 0.000000 0.000000 0.000000 0.000000 0.033987 0.000000
# 6 0.000000 0.000000 0.000000 0.000000 0.000000 0.039987
#
#
# Mechanical properties :
#
#
# Convention : Reuss Voigt Hill
#
# Bulk Modulus (GPa) = 66.35685 69.31709 67.83697
# Shear Modulus (GPa) = 39.59369 12.71545 26.15457
#
# Velocity S-wave (km/s) = 4.55697 2.58243 3.70371
# Velocity P-wave (km/s) = 7.90510 6.72660 7.33954
#
# Compressibility (1/GPa) = 0.01507003
#
# Stress axis : x y z
#
# Youngs Moduli (GPa) = 68.47487 86.08525 66.08239
#
# Poissons Ratio (x) = 0.49593 0.38457
# Poissons Ratio (y) = 0.39448 0.10315
# Poissons Ratio (z) = 0.39849 0.13437
#
# Static dielectric constant tensor:
#      x y z
#    x 1.668600 0.000000 0.000000 
#    y 0.000000 1.644730 0.000000 
#    z 0.000000 0.000000 1.690260 
# 
# From -- ./inp_files/29841.got.cif
#   From: 2010.05.17/outbox.cif.g08.bks.cpg/sg70_15_cif.got.tgz:29841.got - 2010.06.03 15:57:51.
