data_PCOD9515740
_publ_section_title
;
Structure prediction by ZEFSAII (Michael W. Deem and Ramdas Pophale) SiO2 
 PCOD9515740
Probable space group: F D D D
;
_chemical_formula_sum "Si O2"
_cell_formula_units_Z 160
_cell_length_a 18.182543
_cell_length_b 15.489794
_cell_length_c 31.079144
_cell_angle_alpha 90.000000
_cell_angle_beta 90.000000
_cell_angle_gamma 90.000000
_cell_volume 8753.249630
_symmetry_space_group_name_H-M "F D D D"
_symmetry_group_IT_number 70
_space_group.IT_coordinate_system_code '2'
_symmetry_cell_setting 'orthorhombic'
loop_
_space_group_symop_operation_xyz
x,y,z
1/4-x,1/4-y,z
x,1/4-y,1/4-z
1/4-x,y,1/4-z
-x,-y,-z
3/4+x,3/4+y,-z
-x,3/4+y,3/4+z
3/4+x,-y,3/4+z
x,1/2+y,1/2+z
1/4-x,3/4-y,1/2+z
x,3/4-y,3/4-z
1/4-x,1/2+y,3/4-z
-x,1/2-y,1/2-z
3/4+x,1/4+y,1/2-z
-x,1/4+y,1/4+z
3/4+x,1/2-y,1/4+z
1/2+x,y,1/2+z
3/4-x,1/4-y,1/2+z
1/2+x,1/4-y,3/4-z
3/4-x,y,3/4-z
1/2-x,-y,1/2-z
1/4+x,3/4+y,1/2-z
1/2-x,3/4+y,1/4+z
1/4+x,-y,1/4+z
1/2+x,1/2+y,z
3/4-x,3/4-y,z
1/2+x,3/4-y,1/4-z
3/4-x,1/2+y,1/4-z
1/2-x,1/2-y,-z
1/4+x,1/4+y,-z
1/2-x,1/4+y,3/4+z
1/4+x,1/2-y,3/4+z
loop_
_atom_site_type_symbol
_atom_site_label
_atom_site_fract_x
_atom_site_fract_y
_atom_site_fract_z
Si Si1 0.751189 0.375000 0.375000
Si Si2 0.761188 0.473377 0.921164
Si Si3 0.373598 0.119943 0.195175
Si Si4 0.013464 0.219028 0.679797
Si Si5 0.128072 0.394627 0.043074
Si Si6 0.375000 0.019508 0.375000
O O1 0.698541 0.371663 0.333302
O O2 0.803799 0.291944 0.376993
O O3 0.674289 0.458179 0.927218
O O4 0.775512 0.487246 0.870763
O O5 0.791429 0.379450 0.935780
O O6 0.800633 0.547108 0.947296
O O7 0.426689 0.204335 0.188727
O O8 0.363868 0.106320 0.245704
O O9 0.057408 0.291089 0.705429
O O10 0.120894 0.327486 0.082059
#
# Coordination Sequence:
#
# PCOD9515740 Si02
#       6
#    16  32  32  32  32  16
#     4  11  24  52  56  79 118 168 202 239 314 352
#     4   9  18  35  61  91 120 164 178 239 309 348
#     4  10  22  38  66  84 124 162 192 245 295 360
#     4   9  17  37  60  92 124 159 183 235 310 345
#     4  12  21  37  61 100 118 146 210 245 287 356
#     4  11  28  40  67  80 116 160 203 260 292 351
#
# _framework density 18.278926999999999
#
# number of rings (size 3 to 8) (size 9 to 14) (size 15 to 20)
#    1.200    0.600    4.000    1.200    2.800    2.400 
#    0.000    4.000    0.000    0.000    0.000    0.000 
#    0.000    0.000    0.000    0.000    0.000    0.000 
#
# Total GULP energy -222774.087164 kJ/mol
# GULP energy per Si atom -5569.352179 kJ/mol
# Density = 1.823732 g / cm^3
# Si number density = 18.278927 Si / 1000 Ang^3
#
#
#
# Elastic Constant Matrix: (Units=GPa)
#
#
# Indices 1 2 3 4 5 6 
#
# 1 115.1069 36.2269 36.4409 0.0000 0.0000 0.0000
# 2 36.2269 58.1927 38.6857 0.0000 0.0000 0.0000
# 3 36.4409 38.6857 112.7580 0.0000 0.0000 0.0000
# 4 0.0000 0.0000 0.0000 10.5927 0.0000 0.0000
# 5 0.0000 0.0000 0.0000 0.0000 12.4231 0.0000
# 6 0.0000 0.0000 0.0000 0.0000 0.0000 31.7079
#
#
#
# Elastic Compliance Matrix: (Units=1/GPa)
#
#
# Indices 1 2 3 4 5 6 
#
# 1 0.011013 -0.005817 -0.001564 0.000000 0.000000 0.000000
# 2 -0.005817 0.025334 -0.006812 0.000000 0.000000 0.000000
# 3 -0.001564 -0.006812 0.011711 0.000000 0.000000 0.000000
# 4 0.000000 0.000000 0.000000 0.094405 0.000000 0.000000
# 5 0.000000 0.000000 0.000000 0.000000 0.080495 0.000000
# 6 0.000000 0.000000 0.000000 0.000000 0.000000 0.031538
#
#
# Mechanical properties :
#
#
# Convention : Reuss Voigt Hill
#
# Bulk Modulus (GPa) = 50.82927 56.52939 53.67933
# Shear Modulus (GPa) = 17.27488 22.59169 19.93328
#
# Velocity S-wave (km/s) = 3.07754 3.51941 3.30586
# Velocity P-wave (km/s) = 6.36367 6.89261 6.63341
#
# Compressibility (1/GPa) = 0.01967370
#
# Stress axis : x y z
#
# Youngs Moduli (GPa) = 90.79995 39.47305 85.39032
#
# Poissons Ratio (x) = 0.22960 0.13352
# Poissons Ratio (y) = 0.52815 0.58167
# Poissons Ratio (z) = 0.14198 0.26888
#
# Static dielectric constant tensor:
#      x y z
#    x 1.667360 0.000000 0.000000 
#    y 0.000000 1.614390 0.000000 
#    z 0.000000 0.000000 1.638510 
# 
# From -- ./inp_files/66557.got.cif
#   From: 2010.05.17/outbox.cif.g08.bks.cpg/sg70_34_cif.got.tgz:66557.got - 2010.06.03 15:57:51.
