data_PCOD9515293
_publ_section_title
;
Structure prediction by ZEFSAII (Michael W. Deem and Ramdas Pophale) SiO2 
 PCOD9515293
Probable space group: F D D D
;
_chemical_formula_sum "Si O2"
_cell_formula_units_Z 160
_cell_length_a 22.375185
_cell_length_b 8.289658
_cell_length_c 38.606253
_cell_angle_alpha 90.000000
_cell_angle_beta 90.000000
_cell_angle_gamma 90.000000
_cell_volume 7160.789392
_symmetry_space_group_name_H-M "F D D D"
_symmetry_group_IT_number 70
_space_group.IT_coordinate_system_code '2'
_symmetry_cell_setting 'orthorhombic'
loop_
_space_group_symop_operation_xyz
x,y,z
1/4-x,1/4-y,z
x,1/4-y,1/4-z
1/4-x,y,1/4-z
-x,-y,-z
3/4+x,3/4+y,-z
-x,3/4+y,3/4+z
3/4+x,-y,3/4+z
x,1/2+y,1/2+z
1/4-x,3/4-y,1/2+z
x,3/4-y,3/4-z
1/4-x,1/2+y,3/4-z
-x,1/2-y,1/2-z
3/4+x,1/4+y,1/2-z
-x,1/4+y,1/4+z
3/4+x,1/2-y,1/4+z
1/2+x,y,1/2+z
3/4-x,1/4-y,1/2+z
1/2+x,1/4-y,3/4-z
3/4-x,y,3/4-z
1/2-x,-y,1/2-z
1/4+x,3/4+y,1/2-z
1/2-x,3/4+y,1/4+z
1/4+x,-y,1/4+z
1/2+x,1/2+y,z
3/4-x,3/4-y,z
1/2+x,3/4-y,1/4-z
3/4-x,1/2+y,1/4-z
1/2-x,1/2-y,-z
1/4+x,1/4+y,-z
1/2-x,1/4+y,3/4+z
1/4+x,1/2-y,3/4+z
loop_
_atom_site_type_symbol
_atom_site_label
_atom_site_fract_x
_atom_site_fract_y
_atom_site_fract_z
Si Si1 0.433377 0.536398 0.771639
Si Si2 0.696613 0.962820 0.698409
Si Si3 0.792326 0.467910 0.147289
Si Si4 0.303240 0.362413 0.446823
Si Si5 0.875000 0.375000 0.208436
Si Si6 0.767004 0.125000 0.125000
O O1 0.374755 0.537589 0.796986
O O2 0.467783 0.373401 0.781936
O O3 0.462478 0.706567 0.780481
O O4 0.405616 0.505261 0.733853
O O5 0.723024 0.972113 0.659794
O O6 0.715738 0.786289 0.712233
O O7 0.805731 0.625000 0.125000
O O8 0.828764 0.461876 0.183045
O O9 0.802640 0.292878 0.129864
O O10 0.375000 0.375000 0.443315
O O11 0.272565 0.351149 0.409403
#
# Coordination Sequence:
#
# PCOD9515293 Si02
#       6
#    32  32  32  32  16  16
#     4   9  18  36  58  87 120 142 182 239 304 357
#     4   8  17  33  56  84 112 145 184 232 288 360
#     4  11  23  40  58  80 115 158 204 249 293 340
#     4   9  16  31  56  87 121 146 175 231 296 362
#     4  10  24  40  58  82 111 160 212 250 284 355
#     4  10  21  36  58  88 116 152 198 235 294 358
#
# _framework density 22.343904999999999
#
# number of rings (size 3 to 8) (size 9 to 14) (size 15 to 20)
#    0.000    2.800    0.000    1.500    1.400    3.200 
#    0.000   22.000    0.000    0.000    0.000    1.400 
#    0.000    0.000    0.000    0.000    0.000    0.000 
#
# Total GULP energy -222986.346961 kJ/mol
# GULP energy per Si atom -5574.658674 kJ/mol
# Density = 2.229305 g / cm^3
# Si number density = 22.343905 Si / 1000 Ang^3
#
#
#
# Elastic Constant Matrix: (Units=GPa)
#
#
# Indices 1 2 3 4 5 6 
#
# 1 52.0594 25.3390 29.6570 0.0000 0.0000 0.0000
# 2 25.3390 276.8701 104.0805 0.0001 0.0000 0.0000
# 3 29.6570 104.0805 107.0245 0.0000 0.0000 0.0000
# 4 0.0000 0.0001 0.0000 4693.8445 0.0000 0.0000
# 5 0.0000 0.0000 0.0000 0.0000 39.3987 0.0000
# 6 0.0000 0.0000 0.0000 0.0000 0.0000 15.3116
#
#
#
# Elastic Compliance Matrix: (Units=1/GPa)
#
#
# Indices 1 2 3 4 5 6 
#
# 1 0.022846 0.000456 -0.006774 0.000000 0.000000 0.000000
# 2 0.000456 0.005702 -0.005672 0.000000 0.000000 0.000000
# 3 -0.006774 -0.005672 0.016736 0.000000 0.000000 0.000000
# 4 0.000000 0.000000 0.000000 0.000213 0.000000 0.000000
# 5 0.000000 0.000000 0.000000 0.000000 0.025382 0.000000
# 6 0.000000 0.000000 0.000000 0.000000 0.000000 0.065310
#
#
# Mechanical properties :
#
#
# Convention : Reuss Voigt Hill
#
# Bulk Modulus (GPa) = 46.93767 83.78966 65.36367
# Shear Modulus (GPa) = 29.89182 968.16945 499.03064
#
# Velocity S-wave (km/s) = 3.66157 20.83853 14.96080
# Velocity P-wave (km/s) = 6.23928 24.83090 18.10390
#
# Compressibility (1/GPa) = 0.02130485
#
# Stress axis : x y z
#
# Youngs Moduli (GPa) = 43.77147 175.37290 59.75079
#
# Poissons Ratio (x) = -0.07988 0.40473
# Poissons Ratio (y) = -0.01994 0.33888
# Poissons Ratio (z) = 0.29650 0.99463
#
# Static dielectric constant tensor:
#      x y z
#    x 1.909470 0.000000 0.000000 
#    y 0.000000 1.905670 0.000000 
#    z 0.000000 0.000000 1.790740 
# 
# From -- ./inp_files/68835.got.cif
#   From: 2010.05.17/outbox.cif.g08.bks.cpg/sg70_35_cif.got.tgz:68835.got - 2010.06.03 15:57:51.
