data_PCOD9515274
_publ_section_title
;
Structure prediction by ZEFSAII (Michael W. Deem and Ramdas Pophale) SiO2 
 PCOD9515274
Probable space group: F D D D
;
_chemical_formula_sum "Si O2"
_cell_formula_units_Z 176
_cell_length_a 29.267205
_cell_length_b 23.863023
_cell_length_c 10.940874
_cell_angle_alpha 90.000000
_cell_angle_beta 90.000000
_cell_angle_gamma 90.000000
_cell_volume 7641.150013
_symmetry_space_group_name_H-M "F D D D"
_symmetry_group_IT_number 70
_space_group.IT_coordinate_system_code '2'
_symmetry_cell_setting 'orthorhombic'
loop_
_space_group_symop_operation_xyz
x,y,z
1/4-x,1/4-y,z
x,1/4-y,1/4-z
1/4-x,y,1/4-z
-x,-y,-z
3/4+x,3/4+y,-z
-x,3/4+y,3/4+z
3/4+x,-y,3/4+z
x,1/2+y,1/2+z
1/4-x,3/4-y,1/2+z
x,3/4-y,3/4-z
1/4-x,1/2+y,3/4-z
-x,1/2-y,1/2-z
3/4+x,1/4+y,1/2-z
-x,1/4+y,1/4+z
3/4+x,1/2-y,1/4+z
1/2+x,y,1/2+z
3/4-x,1/4-y,1/2+z
1/2+x,1/4-y,3/4-z
3/4-x,y,3/4-z
1/2-x,-y,1/2-z
1/4+x,3/4+y,1/2-z
1/2-x,3/4+y,1/4+z
1/4+x,-y,1/4+z
1/2+x,1/2+y,z
3/4-x,3/4-y,z
1/2+x,3/4-y,1/4-z
3/4-x,1/2+y,1/4-z
1/2-x,1/2-y,-z
1/4+x,1/4+y,-z
1/2-x,1/4+y,3/4+z
1/4+x,1/2-y,3/4+z
loop_
_atom_site_type_symbol
_atom_site_label
_atom_site_fract_x
_atom_site_fract_y
_atom_site_fract_z
Si Si1 0.662030 0.306901 0.277434
Si Si2 0.985490 0.082066 0.729476
Si Si3 0.427081 0.455432 0.384511
Si Si4 0.375000 0.477487 0.875000
Si Si5 0.811821 0.075332 0.775726
Si Si6 0.671506 0.015658 0.393209
O O1 0.677302 0.269744 0.163500
O O2 0.654505 0.371167 0.239879
O O3 0.700233 0.310426 0.385404
O O4 0.618587 0.275004 0.336863
O O5 0.968350 0.125000 0.625000
O O6 0.973582 0.093735 0.870303
O O7 0.960978 0.023818 0.694808
O O8 0.039032 0.075534 0.705664
O O9 0.375000 0.436659 0.375000
O O10 0.440494 0.451948 0.525973
O O11 0.413200 0.520337 0.925428
O O12 0.397911 0.450434 0.754870
#
# Coordination Sequence:
#
# PCOD9515274 Si02
#       6
#    32  32  32  16  32  32
#     4   9  18  32  52  76 105 139 165 211 281 336
#     4  11  22  32  49  76 103 137 180 227 263 316
#     4  10  21  35  51  69 101 144 182 218 266 315
#     4   8  16  26  46  76 108 131 157 204 266 330
#     4   9  18  29  49  77 106 131 164 210 275 335
#     4   9  18  31  51  77 105 132 171 216 273 330
#
# _framework density 23.033182
#
# number of rings (size 3 to 8) (size 9 to 14) (size 15 to 20)
#    0.000    2.545    0.000    1.636   11.455    1.091 
#    0.000    0.000    0.000    0.000    0.000    0.000 
#    0.000   30.545    0.000    0.000    0.000    0.000 
#
# Total GULP energy -245221.780731 kJ/mol
# GULP energy per Si atom -5573.222289 kJ/mol
# Density = 2.298076 g / cm^3
# Si number density = 23.033182 Si / 1000 Ang^3
#
#
#
# Elastic Constant Matrix: (Units=GPa)
#
#
# Indices 1 2 3 4 5 6 
#
# 1 64.7174 -9.6576 36.3225 0.0000 0.0000 0.0000
# 2 -9.6576 34.5241 9.1592 -0.0001 0.0001 0.0002
# 3 36.3225 9.1592 178.5512 -0.0004 0.0002 0.0004
# 4 0.0000 -0.0001 -0.0004 25.1045 0.0001 0.0001
# 5 0.0000 0.0001 0.0002 0.0001 22.0314 0.0000
# 6 0.0000 0.0002 0.0004 0.0001 0.0000 -1.7530
#
#
#
# Elastic Compliance Matrix: (Units=1/GPa)
#
#
# Indices 1 2 3 4 5 6 
#
# 1 0.018716 0.006332 -0.004132 0.000000 0.000000 0.000000
# 2 0.006332 0.031507 -0.002904 0.000000 0.000000 0.000003
# 3 -0.004132 -0.002904 0.006590 0.000000 0.000000 0.000001
# 4 0.000000 0.000000 0.000000 0.039833 0.000000 0.000003
# 5 0.000000 0.000000 0.000000 0.000000 0.045390 -0.000001
# 6 0.000000 0.000003 0.000001 0.000003 -0.000001 -0.570453
#
#
# Mechanical properties :
#
#
# Convention : Reuss Voigt Hill
#
# Bulk Modulus (GPa) = 18.04937 38.82676 28.43807
# Shear Modulus (GPa) = -12.23873 25.20784 6.48456
#
# Velocity S-wave (km/s) = -2.30761 3.31178 1.67971
# Velocity P-wave (km/s) = 0.86786 5.61403 4.01687
#
# Compressibility (1/GPa) = 0.05540360
#
# Stress axis : x y z
#
# Youngs Moduli (GPa) = 53.43075 31.73903 151.74017
#
# Poissons Ratio (x) = -0.20096 0.62701
# Poissons Ratio (y) = -0.33831 0.44070
# Poissons Ratio (z) = 0.22078 0.09218
#
# Static dielectric constant tensor:
#      x y z
#    x 1.887130 0.000000 0.000000 
#    y 0.000000 1.899130 0.000000 
#    z 0.000000 0.000000 1.662710 
# 
# From -- ./inp_files/21158.got.cif
#   From: 2010.05.17/outbox.cif.g08.bks.cpg/sg70_11_cif.got.tgz:21158.got - 2010.06.03 15:57:51.
