data_PCOD9515777
_publ_section_title
;
Structure prediction by ZEFSAII (Michael W. Deem and Ramdas Pophale) SiO2 
 PCOD9515777
Probable space group: F D D D
;
_chemical_formula_sum "Si O2"
_cell_formula_units_Z 112
_cell_length_a 23.678661
_cell_length_b 13.787267
_cell_length_c 11.403731
_cell_angle_alpha 90.000000
_cell_angle_beta 90.000000
_cell_angle_gamma 90.000000
_cell_volume 3722.907881
_symmetry_space_group_name_H-M "F D D D"
_symmetry_group_IT_number 70
_space_group.IT_coordinate_system_code '2'
_symmetry_cell_setting 'orthorhombic'
loop_
_space_group_symop_operation_xyz
x,y,z
1/4-x,1/4-y,z
x,1/4-y,1/4-z
1/4-x,y,1/4-z
-x,-y,-z
3/4+x,3/4+y,-z
-x,3/4+y,3/4+z
3/4+x,-y,3/4+z
x,1/2+y,1/2+z
1/4-x,3/4-y,1/2+z
x,3/4-y,3/4-z
1/4-x,1/2+y,3/4-z
-x,1/2-y,1/2-z
3/4+x,1/4+y,1/2-z
-x,1/4+y,1/4+z
3/4+x,1/2-y,1/4+z
1/2+x,y,1/2+z
3/4-x,1/4-y,1/2+z
1/2+x,1/4-y,3/4-z
3/4-x,y,3/4-z
1/2-x,-y,1/2-z
1/4+x,3/4+y,1/2-z
1/2-x,3/4+y,1/4+z
1/4+x,-y,1/4+z
1/2+x,1/2+y,z
3/4-x,3/4-y,z
1/2+x,3/4-y,1/4-z
3/4-x,1/2+y,1/4-z
1/2-x,1/2-y,-z
1/4+x,1/4+y,-z
1/2-x,1/4+y,3/4+z
1/4+x,1/2-y,3/4+z
loop_
_atom_site_type_symbol
_atom_site_label
_atom_site_fract_x
_atom_site_fract_y
_atom_site_fract_z
Si Si1 0.138963 0.895785 0.755184
Si Si2 0.000841 0.030824 0.636378
Si Si3 0.972128 0.896718 0.002779
Si Si4 0.625000 0.625000 0.803829
O O1 0.125000 0.861820 0.625000
O O2 0.105072 0.875000 0.875000
O O3 0.196240 0.827185 0.790040
O O4 0.135930 0.014661 0.753367
O O5 0.040125 0.125000 0.625000
O O6 0.016150 0.938057 0.710527
O O7 0.000000 0.000000 0.500000
O O8 0.927746 0.889126 0.107287
O O9 0.947979 0.875000 0.875000
O O10 0.000000 0.000000 0.000000
#
# Coordination Sequence:
#
# PCOD9515777 Si02
#       4
#    32  32  32  16
#     4  10  23  41  65  96 133 183 236 290 356 430
#     4  10  22  40  61  90 131 178 231 295 360 430
#     4  11  24  42  67 101 138 186 245 307 370 441
#     4  10  24  44  66  96 139 184 235 300 363 436
#
# _framework density 30.084011
#
# number of rings (size 3 to 8) (size 9 to 14) (size 15 to 20)
#    0.000    1.714    0.000    2.571    0.000   17.143 
#    0.000    0.000    0.000    0.000    0.000    0.000 
#    0.000    0.000    0.000    0.000    0.000    0.000 
#
# Total GULP energy -156146.986603 kJ/mol
# GULP energy per Si atom -5576.678093 kJ/mol
# Density = 3.001554 g / cm^3
# Si number density = 30.084011 Si / 1000 Ang^3
#
#
#
# Elastic Constant Matrix: (Units=GPa)
#
#
# Indices 1 2 3 4 5 6 
#
# 1 108.1610 54.3879 58.7583 0.0000 0.0000 0.0000
# 2 54.3879 295.4478 105.0773 0.0000 0.0000 0.0000
# 3 58.7583 105.0773 279.1616 0.0000 0.0000 0.0000
# 4 0.0000 0.0000 0.0000 85.0085 0.0000 0.0000
# 5 0.0000 0.0000 0.0000 0.0000 37.5223 0.0000
# 6 0.0000 0.0000 0.0000 0.0000 0.0000 60.8823
#
#
#
# Elastic Compliance Matrix: (Units=1/GPa)
#
#
# Indices 1 2 3 4 5 6 
#
# 1 0.010902 -0.001375 -0.001777 0.000000 0.000000 0.000000
# 2 -0.001375 0.004081 -0.001247 0.000000 0.000000 0.000000
# 3 -0.001777 -0.001247 0.004426 0.000000 0.000000 0.000000
# 4 0.000000 0.000000 0.000000 0.011764 0.000000 0.000000
# 5 0.000000 0.000000 0.000000 0.000000 0.026651 0.000000
# 6 0.000000 0.000000 0.000000 0.000000 0.000000 0.016425
#
#
# Mechanical properties :
#
#
# Convention : Reuss Voigt Hill
#
# Bulk Modulus (GPa) = 94.23968 124.35748 109.29858
# Shear Modulus (GPa) = 57.74777 67.65241 62.70009
#
# Velocity S-wave (km/s) = 4.38602 4.74728 4.57022
# Velocity P-wave (km/s) = 7.55269 8.45431 8.01618
#
# Compressibility (1/GPa) = 0.01061124
#
# Stress axis : x y z
#
# Youngs Moduli (GPa) = 91.72374 245.02480 225.96196
#
# Poissons Ratio (x) = 0.33688 0.40158
# Poissons Ratio (y) = 0.12611 0.28173
# Poissons Ratio (z) = 0.16301 0.30550
#
# Static dielectric constant tensor:
#      x y z
#    x 3.309070 0.000000 0.000000 
#    y 0.000000 2.540160 0.000000 
#    z 0.000000 0.000000 2.303930 
# 
# From -- ./inp_files/21760.got.cif
#   From: 2010.05.17/outbox.cif.g08.bks.cpg/sg70_11_cif.got.tgz:21760.got - 2010.06.03 15:57:51.
