data_PCOD9515104
_publ_section_title
;
Structure prediction by ZEFSAII (Michael W. Deem and Ramdas Pophale) SiO2 
 PCOD9515104
Probable space group: F D D D
;
_chemical_formula_sum "Si O2"
_cell_formula_units_Z 112
_cell_length_a 12.190746
_cell_length_b 15.261288
_cell_length_c 24.098011
_cell_angle_alpha 90.000000
_cell_angle_beta 90.000000
_cell_angle_gamma 90.000000
_cell_volume 4483.350257
_symmetry_space_group_name_H-M "F D D D"
_symmetry_group_IT_number 70
_space_group.IT_coordinate_system_code '2'
_symmetry_cell_setting 'orthorhombic'
loop_
_space_group_symop_operation_xyz
x,y,z
1/4-x,1/4-y,z
x,1/4-y,1/4-z
1/4-x,y,1/4-z
-x,-y,-z
3/4+x,3/4+y,-z
-x,3/4+y,3/4+z
3/4+x,-y,3/4+z
x,1/2+y,1/2+z
1/4-x,3/4-y,1/2+z
x,3/4-y,3/4-z
1/4-x,1/2+y,3/4-z
-x,1/2-y,1/2-z
3/4+x,1/4+y,1/2-z
-x,1/4+y,1/4+z
3/4+x,1/2-y,1/4+z
1/2+x,y,1/2+z
3/4-x,1/4-y,1/2+z
1/2+x,1/4-y,3/4-z
3/4-x,y,3/4-z
1/2-x,-y,1/2-z
1/4+x,3/4+y,1/2-z
1/2-x,3/4+y,1/4+z
1/4+x,-y,1/4+z
1/2+x,1/2+y,z
3/4-x,3/4-y,z
1/2+x,3/4-y,1/4-z
3/4-x,1/2+y,1/4-z
1/2-x,1/2-y,-z
1/4+x,1/4+y,-z
1/2-x,1/4+y,3/4+z
1/4+x,1/2-y,3/4+z
loop_
_atom_site_type_symbol
_atom_site_label
_atom_site_fract_x
_atom_site_fract_y
_atom_site_fract_z
Si Si1 0.431962 0.167749 0.684274
Si Si2 0.375000 0.375000 0.538452
Si Si3 0.780016 0.228955 0.771009
Si Si4 0.245183 0.152713 0.896782
O O1 0.400581 0.125000 0.625000
O O2 0.485350 0.094779 0.723461
O O3 0.323721 0.208504 0.714075
O O4 0.511809 0.249516 0.668990
O O5 0.372362 0.290887 0.499968
O O6 0.277000 0.397777 0.581421
O O7 0.812969 0.173234 0.824889
O O8 0.125000 0.125000 0.919420
#
# Coordination Sequence:
#
# PCOD9515104 Si02
#       4
#    32  16  32  32
#     4  11  21  42  68  88 128 172 214 267 330 387
#     4  10  20  40  63  92 127 168 210 266 324 386
#     4  11  21  38  67  91 124 172 214 262 328 382
#     4   8  18  38  63  86 122 168 208 255 324 383
#
# _framework density 24.981318000000002
#
# number of rings (size 3 to 8) (size 9 to 14) (size 15 to 20)
#    0.857    1.143    2.857    0.857    0.000    1.143 
#    0.000    5.000   12.571    0.000    0.000    0.000 
#    0.000    0.000    0.000    0.000    0.000    0.000 
#
# Total GULP energy -156161.385947 kJ/mol
# GULP energy per Si atom -5577.192355 kJ/mol
# Density = 2.492446 g / cm^3
# Si number density = 24.981318 Si / 1000 Ang^3
#
#
#
# Elastic Constant Matrix: (Units=GPa)
#
#
# Indices 1 2 3 4 5 6 
#
# 1 69.4301 45.5893 54.8940 0.0000 0.0000 0.0000
# 2 45.5893 192.2897 85.0795 0.0000 0.0000 0.0000
# 3 54.8940 85.0795 160.3906 0.0000 0.0000 0.0000
# 4 0.0000 0.0000 0.0000 12.5575 0.0000 0.0000
# 5 0.0000 0.0000 0.0000 0.0000 0.0567 0.0000
# 6 0.0000 0.0000 0.0000 0.0000 0.0000 1.9661
#
#
#
# Elastic Compliance Matrix: (Units=1/GPa)
#
#
# Indices 1 2 3 4 5 6 
#
# 1 0.020492 -0.002294 -0.005797 0.000000 0.000000 0.000000
# 2 -0.002294 0.007052 -0.002956 0.000000 0.000000 0.000000
# 3 -0.005797 -0.002956 0.009787 0.000000 0.000000 0.000000
# 4 0.000000 0.000000 0.000000 0.079634 0.000000 0.000000
# 5 0.000000 0.000000 0.000000 0.000000 17.649346 0.000000
# 6 0.000000 0.000000 0.000000 0.000000 0.000000 0.508620
#
#
# Mechanical properties :
#
#
# Convention : Reuss Voigt Hill
#
# Bulk Modulus (GPa) = 65.62345 88.13737 76.88041
# Shear Modulus (GPa) = 0.27319 18.68588 9.47954
#
# Velocity S-wave (km/s) = 0.33105 2.73792 1.95010
# Velocity P-wave (km/s) = 5.14511 6.73445 5.99270
#
# Compressibility (1/GPa) = 0.01523846
#
# Stress axis : x y z
#
# Youngs Moduli (GPa) = 48.79905 141.80227 102.17966
#
# Poissons Ratio (x) = 0.32523 0.59232
# Poissons Ratio (y) = 0.11192 0.30202
# Poissons Ratio (z) = 0.28288 0.41914
#
# Static dielectric constant tensor:
#      x y z
#    x 2.048240 0.000000 0.000000 
#    y 0.000000 1.951320 0.000000 
#    z 0.000000 0.000000 1.957140 
# 
# From -- ./inp_files/25203.got.cif
#   From: 2010.05.17/outbox.cif.g08.bks.cpg/sg70_13_cif.got.tgz:25203.got - 2010.06.03 15:57:51.
