data_PCOD9515784
_publ_section_title
;
Structure prediction by ZEFSAII (Michael W. Deem and Ramdas Pophale) SiO2 
 PCOD9515784
Probable space group: F D D D
;
_chemical_formula_sum "Si O2"
_cell_formula_units_Z 208
_cell_length_a 20.891995
_cell_length_b 17.587605
_cell_length_c 27.852926
_cell_angle_alpha 90.000000
_cell_angle_beta 90.000000
_cell_angle_gamma 90.000000
_cell_volume 10234.283467
_symmetry_space_group_name_H-M "F D D D"
_symmetry_group_IT_number 70
_space_group.IT_coordinate_system_code '2'
_symmetry_cell_setting 'orthorhombic'
loop_
_space_group_symop_operation_xyz
x,y,z
1/4-x,1/4-y,z
x,1/4-y,1/4-z
1/4-x,y,1/4-z
-x,-y,-z
3/4+x,3/4+y,-z
-x,3/4+y,3/4+z
3/4+x,-y,3/4+z
x,1/2+y,1/2+z
1/4-x,3/4-y,1/2+z
x,3/4-y,3/4-z
1/4-x,1/2+y,3/4-z
-x,1/2-y,1/2-z
3/4+x,1/4+y,1/2-z
-x,1/4+y,1/4+z
3/4+x,1/2-y,1/4+z
1/2+x,y,1/2+z
3/4-x,1/4-y,1/2+z
1/2+x,1/4-y,3/4-z
3/4-x,y,3/4-z
1/2-x,-y,1/2-z
1/4+x,3/4+y,1/2-z
1/2-x,3/4+y,1/4+z
1/4+x,-y,1/4+z
1/2+x,1/2+y,z
3/4-x,3/4-y,z
1/2+x,3/4-y,1/4-z
3/4-x,1/2+y,1/4-z
1/2-x,1/2-y,-z
1/4+x,1/4+y,-z
1/2-x,1/4+y,3/4+z
1/4+x,1/2-y,3/4+z
loop_
_atom_site_type_symbol
_atom_site_label
_atom_site_fract_x
_atom_site_fract_y
_atom_site_fract_z
Si Si1 0.935096 0.932801 0.615907
Si Si2 0.733688 0.173522 0.441920
Si Si3 0.144678 0.812827 0.412824
Si Si4 0.625888 0.283151 0.682381
Si Si5 0.931482 0.315564 0.746676
Si Si6 0.375000 0.375000 0.983168
Si Si7 0.569363 0.855325 0.752123
O O1 0.875000 0.875000 0.618533
O O2 0.985008 0.889309 0.649516
O O3 0.949193 0.941118 0.560013
O O4 0.911068 0.011667 0.638439
O O5 0.699572 0.252350 0.426152
O O6 0.806589 0.192193 0.453360
O O7 0.686651 0.140673 0.482894
O O8 0.168553 0.875000 0.375000
O O9 0.114237 0.857034 0.457666
O O10 0.625000 0.286421 0.625000
O O11 0.637958 0.198350 0.701008
O O12 0.676686 0.339466 0.706495
O O13 0.875000 0.375000 0.752662
O O14 0.910951 0.230730 0.761192
O O15 0.996588 0.345489 0.770414
#
# Coordination Sequence:
#
# PCOD9515784 Si02
#       7
#    32  32  32  32  32  16  32
#     4   9  17  35  61  87 120 161 209 265 309 381
#     4  11  22  43  66  94 137 173 220 264 332 401
#     4  11  20  36  63  98 122 167 216 271 322 385
#     4  12  27  45  65  99 137 182 216 276 343 398
#     4  10  22  40  62  91 121 164 217 268 327 379
#     4  12  23  42  66  96 138 174 224 270 323 410
#     4  11  23  40  62  91 128 161 217 272 318 395
#
# _framework density 20.323844999999999
#
# number of rings (size 3 to 8) (size 9 to 14) (size 15 to 20)
#    0.000    1.231    5.385    1.615    0.000    3.692 
#    0.000    0.000    0.000    0.000    0.000    0.000 
#    0.000    0.000    0.000    0.000    0.000    0.000 
#
# Total GULP energy -290488.905240 kJ/mol
# GULP energy per Si atom -5586.325101 kJ/mol
# Density = 2.027759 g / cm^3
# Si number density = 20.323845 Si / 1000 Ang^3
#
#
#
# Elastic Constant Matrix: (Units=GPa)
#
#
# Indices 1 2 3 4 5 6 
#
# 1 62.8749 25.7846 -7.2172 0.0000 0.0000 0.0000
# 2 25.7846 129.7184 21.2531 0.0000 0.0000 0.0000
# 3 -7.2172 21.2531 65.2236 0.0000 0.0000 0.0000
# 4 0.0000 0.0000 0.0000 26.8149 0.0000 0.0000
# 5 0.0000 0.0000 0.0000 0.0000 4.5462 0.0000
# 6 0.0000 0.0000 0.0000 0.0000 0.0000 21.2607
#
#
#
# Elastic Compliance Matrix: (Units=1/GPa)
#
#
# Indices 1 2 3 4 5 6 
#
# 1 0.017976 -0.004119 0.003331 0.000000 0.000000 0.000000
# 2 -0.004119 0.009088 -0.003417 0.000000 0.000000 0.000000
# 3 0.003331 -0.003417 0.016814 0.000000 0.000000 0.000000
# 4 0.000000 0.000000 0.000000 0.037293 0.000000 0.000000
# 5 0.000000 0.000000 0.000000 0.000000 0.219964 0.000000
# 6 0.000000 0.000000 0.000000 0.000000 0.000000 0.047035
#
#
# Mechanical properties :
#
#
# Convention : Reuss Voigt Hill
#
# Bulk Modulus (GPa) = 28.19416 37.49532 32.84474
# Shear Modulus (GPa) = 13.57214 25.05746 19.31480
#
# Velocity S-wave (km/s) = 2.58697 3.51509 3.08612
# Velocity P-wave (km/s) = 4.77764 5.91299 5.37537
#
# Compressibility (1/GPa) = 0.03546834
#
# Stress axis : x y z
#
# Youngs Moduli (GPa) = 55.62926 110.04015 59.47452
#
# Poissons Ratio (x) = 0.45325 -0.19813
# Poissons Ratio (y) = 0.22914 0.20322
# Poissons Ratio (z) = -0.18532 0.37600
#
# Static dielectric constant tensor:
#      x y z
#    x 1.731420 0.000000 0.000000 
#    y 0.000000 1.708450 0.000000 
#    z 0.000000 0.000000 1.758680 
# 
# From -- ./inp_files/60435.got.cif
#   From: 2010.05.17/outbox.cif.g08.bks.cpg/sg70_31_cif.got.tgz:60435.got - 2010.06.03 15:57:51.
