data_PCOD9515828
_publ_section_title
;
Structure prediction by ZEFSAII (Michael W. Deem and Ramdas Pophale) SiO2 
 PCOD9515828
Probable space group: F D D D
;
_chemical_formula_sum "Si O2"
_cell_formula_units_Z 168
_cell_length_a 28.028980
_cell_length_b 22.125168
_cell_length_c 14.190444
_cell_angle_alpha 90.000000
_cell_angle_beta 90.000000
_cell_angle_gamma 90.000000
_cell_volume 8800.145543
_symmetry_space_group_name_H-M "F D D D"
_symmetry_group_IT_number 70
_space_group.IT_coordinate_system_code '2'
_symmetry_cell_setting 'orthorhombic'
loop_
_space_group_symop_operation_xyz
x,y,z
1/4-x,1/4-y,z
x,1/4-y,1/4-z
1/4-x,y,1/4-z
-x,-y,-z
3/4+x,3/4+y,-z
-x,3/4+y,3/4+z
3/4+x,-y,3/4+z
x,1/2+y,1/2+z
1/4-x,3/4-y,1/2+z
x,3/4-y,3/4-z
1/4-x,1/2+y,3/4-z
-x,1/2-y,1/2-z
3/4+x,1/4+y,1/2-z
-x,1/4+y,1/4+z
3/4+x,1/2-y,1/4+z
1/2+x,y,1/2+z
3/4-x,1/4-y,1/2+z
1/2+x,1/4-y,3/4-z
3/4-x,y,3/4-z
1/2-x,-y,1/2-z
1/4+x,3/4+y,1/2-z
1/2-x,3/4+y,1/4+z
1/4+x,-y,1/4+z
1/2+x,1/2+y,z
3/4-x,3/4-y,z
1/2+x,3/4-y,1/4-z
3/4-x,1/2+y,1/4-z
1/2-x,1/2-y,-z
1/4+x,1/4+y,-z
1/2-x,1/4+y,3/4+z
1/4+x,1/2-y,3/4+z
loop_
_atom_site_type_symbol
_atom_site_label
_atom_site_fract_x
_atom_site_fract_y
_atom_site_fract_z
Si Si1 0.567102 0.131804 0.800229
Si Si2 0.134983 0.445786 0.855387
Si Si3 0.875000 0.875000 0.375000
Si Si4 0.175249 0.739742 0.575812
Si Si5 0.287663 0.005092 0.522867
Si Si6 0.814362 0.792998 0.236425
O O1 0.625000 0.125000 0.799083
O O2 0.553399 0.178953 0.718383
O O3 0.553744 0.162630 0.898502
O O4 0.545279 0.066280 0.786959
O O5 0.139728 0.375000 0.875000
O O6 0.163461 0.466233 0.760960
O O7 0.079708 0.462808 0.832228
O O8 0.156666 0.487037 0.939215
O O9 0.845121 0.831348 0.308227
O O10 0.125000 0.722976 0.625000
O O11 0.204557 0.767357 0.661196
O O12 0.233530 0.023049 0.539590
#
# Coordination Sequence:
#
# PCOD9515828 Si02
#       6
#    32  32   8  32  32  32
#     4  11  18  39  67  91 131 161 203 266 316 379
#     4  10  22  41  59  91 140 160 194 275 330 371
#     4  12  24  52  64  84 126 176 244 254 300 380
#     4   9  18  33  63  94 122 163 200 250 323 391
#     4  11  22  37  66 100 118 165 216 251 329 389
#     4  11  25  43  66  90 123 175 216 269 311 379
#
# _framework density 19.090593999999999
#
# number of rings (size 3 to 8) (size 9 to 14) (size 15 to 20)
#    0.000    1.524    6.667    0.571    1.333    6.095 
#    8.571    1.905    0.000    0.000    0.000    0.000 
#    0.000    0.000    0.000    0.000    0.000    0.000 
#
# Total GULP energy -234507.290955 kJ/mol
# GULP energy per Si atom -5583.506928 kJ/mol
# Density = 1.904714 g / cm^3
# Si number density = 19.090594 Si / 1000 Ang^3
#
#
#
# Elastic Constant Matrix: (Units=GPa)
#
#
# Indices 1 2 3 4 5 6 
#
# 1 103.4620 62.6285 23.4073 0.0000 0.0000 0.0000
# 2 62.6285 163.2101 59.4494 0.0000 0.0000 0.0000
# 3 23.4073 59.4494 62.8577 0.0000 0.0000 0.0000
# 4 0.0000 0.0000 0.0000 5.3951 0.0000 0.0000
# 5 0.0000 0.0000 0.0000 0.0000 -1.4074 0.0000
# 6 0.0000 0.0000 0.0000 0.0000 0.0000 -20.4436
#
#
#
# Elastic Compliance Matrix: (Units=1/GPa)
#
#
# Indices 1 2 3 4 5 6 
#
# 1 0.012591 -0.004765 -0.000182 0.000000 0.000000 0.000000
# 2 -0.004765 0.011151 -0.008772 0.000000 0.000000 0.000000
# 3 -0.000182 -0.008772 0.024273 0.000000 0.000000 0.000000
# 4 0.000000 0.000000 0.000000 0.185352 0.000000 0.000000
# 5 0.000000 0.000000 0.000000 0.000000 -0.710516 0.000000
# 6 0.000000 0.000000 0.000000 0.000000 0.000000 -0.048915
#
#
# Mechanical properties :
#
#
# Convention : Reuss Voigt Hill
#
# Bulk Modulus (GPa) = 48.59787 68.94445 58.77116
# Shear Modulus (GPa) = -10.16740 8.97848 -0.59446
#
# Velocity S-wave (km/s) = -2.31029 2.17101 -0.55863
# Velocity P-wave (km/s) = 4.28896 6.51745 5.51690
#
# Compressibility (1/GPa) = 0.02057703
#
# Stress axis : x y z
#
# Youngs Moduli (GPa) = 79.42106 89.68028 41.19879
#
# Poissons Ratio (x) = 0.42736 0.00749
# Poissons Ratio (y) = 0.37847 0.36138
# Poissons Ratio (z) = 0.01444 0.78663
#
# Static dielectric constant tensor:
#      x y z
#    x 1.730380 0.000000 0.000000 
#    y 0.000000 1.640760 0.000000 
#    z 0.000000 0.000000 1.659420 
# 
# From -- ./inp_files/27831.got.cif
#   From: 2010.05.17/outbox.cif.g08.bks.cpg/sg70_14_cif.got.tgz:27831.got - 2010.06.03 15:57:51.
