data_PCOD9515297
_publ_section_title
;
Structure prediction by ZEFSAII (Michael W. Deem and Ramdas Pophale) SiO2 
 PCOD9515297
Probable space group: F D D D
;
_chemical_formula_sum "Si O2"
_cell_formula_units_Z 200
_cell_length_a 25.560267
_cell_length_b 13.141290
_cell_length_c 27.878837
_cell_angle_alpha 90.000000
_cell_angle_beta 90.000000
_cell_angle_gamma 90.000000
_cell_volume 9364.358640
_symmetry_space_group_name_H-M "F D D D"
_symmetry_group_IT_number 70
_space_group.IT_coordinate_system_code '2'
_symmetry_cell_setting 'orthorhombic'
loop_
_space_group_symop_operation_xyz
x,y,z
1/4-x,1/4-y,z
x,1/4-y,1/4-z
1/4-x,y,1/4-z
-x,-y,-z
3/4+x,3/4+y,-z
-x,3/4+y,3/4+z
3/4+x,-y,3/4+z
x,1/2+y,1/2+z
1/4-x,3/4-y,1/2+z
x,3/4-y,3/4-z
1/4-x,1/2+y,3/4-z
-x,1/2-y,1/2-z
3/4+x,1/4+y,1/2-z
-x,1/4+y,1/4+z
3/4+x,1/2-y,1/4+z
1/2+x,y,1/2+z
3/4-x,1/4-y,1/2+z
1/2+x,1/4-y,3/4-z
3/4-x,y,3/4-z
1/2-x,-y,1/2-z
1/4+x,3/4+y,1/2-z
1/2-x,3/4+y,1/4+z
1/4+x,-y,1/4+z
1/2+x,1/2+y,z
3/4-x,3/4-y,z
1/2+x,3/4-y,1/4-z
3/4-x,1/2+y,1/4-z
1/2-x,1/2-y,-z
1/4+x,1/4+y,-z
1/2-x,1/4+y,3/4+z
1/4+x,1/2-y,3/4+z
loop_
_atom_site_type_symbol
_atom_site_label
_atom_site_fract_x
_atom_site_fract_y
_atom_site_fract_z
Si Si1 0.125000 0.125000 0.625000
Si Si2 0.295865 0.358241 0.229165
Si Si3 0.458398 0.014049 0.820164
Si Si4 0.848738 0.047414 0.825158
Si Si5 0.173398 0.479675 0.430479
Si Si6 0.375000 0.875000 0.645104
Si Si7 0.125000 0.125000 0.242754
Si Si8 0.676516 0.325412 0.009676
O O1 0.164254 0.051279 0.596473
O O2 0.297646 0.260765 0.263589
O O3 0.326022 0.349262 0.179403
O O4 0.322974 0.454127 0.256284
O O5 0.235093 0.389850 0.225883
O O6 0.451738 0.132616 0.832012
O O7 0.516241 0.978957 0.834628
O O8 0.875000 0.017549 0.875000
O O9 0.887966 0.124716 0.797683
O O10 0.842962 0.951326 0.790946
O O11 0.139039 0.527640 0.388145
O O12 0.163411 0.559573 0.473912
O O13 0.163252 0.372387 0.457058
#
# Coordination Sequence:
#
# PCOD9515297 Si02
#       8
#     8  32  32  32  32  16  16  32
#     4  12  22  36  58  94 132 150 200 250 312 400
#     4  10  21  36  59  86 125 160 194 253 309 383
#     4  11  23  37  58  91 124 159 195 250 321 370
#     4  11  21  35  62  87 114 153 203 254 298 366
#     4   9  22  40  59  85 119 164 205 254 305 372
#     4  11  21  34  59  85 121 163 214 247 291 364
#     4   9  21  44  60  80 116 158 210 253 303 352
#     4   9  20  39  58  84 122 160 199 245 324 367
#
# _framework density 21.357576000000002
#
# number of rings (size 3 to 8) (size 9 to 14) (size 15 to 20)
#    0.000    1.920    0.800    2.640    2.240    3.840 
#    0.000    1.600    0.000    0.000    0.000    0.000 
#    0.000    0.000    0.000    0.000    0.000    0.000 
#
# Total GULP energy -279397.163590 kJ/mol
# GULP energy per Si atom -5587.943272 kJ/mol
# Density = 2.130897 g / cm^3
# Si number density = 21.357576 Si / 1000 Ang^3
#
#
#
# Elastic Constant Matrix: (Units=GPa)
#
#
# Indices 1 2 3 4 5 6 
#
# 1 53.7450 1.7267 21.2457 0.0000 0.0000 0.0000
# 2 1.7267 69.4017 17.9977 0.0000 0.0000 0.0000
# 3 21.2457 17.9977 94.8208 0.0000 0.0000 0.0000
# 4 0.0000 0.0000 0.0000 26.4950 0.0000 0.0000
# 5 0.0000 0.0000 0.0000 0.0000 14.9226 0.0000
# 6 0.0000 0.0000 0.0000 0.0000 0.0000 13.0529
#
#
#
# Elastic Compliance Matrix: (Units=1/GPa)
#
#
# Indices 1 2 3 4 5 6 
#
# 1 0.020448 0.000715 -0.004717 0.000000 0.000000 0.000000
# 2 0.000715 0.015180 -0.003041 0.000000 0.000000 0.000000
# 3 -0.004717 -0.003041 0.012180 0.000000 0.000000 0.000000
# 4 0.000000 0.000000 0.000000 0.037743 0.000000 0.000000
# 5 0.000000 0.000000 0.000000 0.000000 0.067012 0.000000
# 6 0.000000 0.000000 0.000000 0.000000 0.000000 0.076611
#
#
# Mechanical properties :
#
#
# Convention : Reuss Voigt Hill
#
# Bulk Modulus (GPa) = 29.65572 33.32307 31.48940
# Shear Modulus (GPa) = 19.64610 22.69393 21.17002
#
# Velocity S-wave (km/s) = 3.03622 3.26325 3.15178
# Velocity P-wave (km/s) = 5.11928 5.46211 5.29347
#
# Compressibility (1/GPa) = 0.03372031
#
# Stress axis : x y z
#
# Youngs Moduli (GPa) = 48.90407 65.87711 82.09889
#
# Poissons Ratio (x) = -0.04707 0.38728
# Poissons Ratio (y) = -0.03495 0.24969
# Poissons Ratio (z) = 0.23069 0.20035
#
# Static dielectric constant tensor:
#      x y z
#    x 1.790710 0.000000 0.000000 
#    y 0.000000 1.775850 0.000000 
#    z 0.000000 0.000000 1.795680 
# 
# From -- ./inp_files/61796.got.cif
#   From: 2010.05.17/outbox.cif.g08.bks.cpg/sg70_31_cif.got.tgz:61796.got - 2010.06.03 15:57:51.
