data_PCOD9515982
_publ_section_title
;
Structure prediction by ZEFSAII (Michael W. Deem and Ramdas Pophale) SiO2 
 PCOD9515982
Probable space group: F D D D
;
_chemical_formula_sum "Si O2"
_cell_formula_units_Z 208
_cell_length_a 23.656637
_cell_length_b 25.710092
_cell_length_c 16.370258
_cell_angle_alpha 90.000000
_cell_angle_beta 90.000000
_cell_angle_gamma 90.000000
_cell_volume 9956.625234
_symmetry_space_group_name_H-M "F D D D"
_symmetry_group_IT_number 70
_space_group.IT_coordinate_system_code '2'
_symmetry_cell_setting 'orthorhombic'
loop_
_space_group_symop_operation_xyz
x,y,z
1/4-x,1/4-y,z
x,1/4-y,1/4-z
1/4-x,y,1/4-z
-x,-y,-z
3/4+x,3/4+y,-z
-x,3/4+y,3/4+z
3/4+x,-y,3/4+z
x,1/2+y,1/2+z
1/4-x,3/4-y,1/2+z
x,3/4-y,3/4-z
1/4-x,1/2+y,3/4-z
-x,1/2-y,1/2-z
3/4+x,1/4+y,1/2-z
-x,1/4+y,1/4+z
3/4+x,1/2-y,1/4+z
1/2+x,y,1/2+z
3/4-x,1/4-y,1/2+z
1/2+x,1/4-y,3/4-z
3/4-x,y,3/4-z
1/2-x,-y,1/2-z
1/4+x,3/4+y,1/2-z
1/2-x,3/4+y,1/4+z
1/4+x,-y,1/4+z
1/2+x,1/2+y,z
3/4-x,3/4-y,z
1/2+x,3/4-y,1/4-z
3/4-x,1/2+y,1/4-z
1/2-x,1/2-y,-z
1/4+x,1/4+y,-z
1/2-x,1/4+y,3/4+z
1/4+x,1/2-y,3/4+z
loop_
_atom_site_type_symbol
_atom_site_label
_atom_site_fract_x
_atom_site_fract_y
_atom_site_fract_z
Si Si1 0.615807 0.362600 0.711407
Si Si2 0.082042 0.552362 0.200237
Si Si3 0.704039 0.298579 0.291692
Si Si4 0.875000 0.375000 0.093630
Si Si5 0.544904 0.924872 0.823924
Si Si6 0.925617 0.958717 0.706231
Si Si7 0.186764 0.486730 0.770879
O O1 0.625000 0.389057 0.625000
O O2 0.579541 0.399087 0.770608
O O3 0.677173 0.341598 0.738862
O O4 0.580947 0.309444 0.710556
O O5 0.125000 0.557059 0.125000
O O6 0.072451 0.493937 0.230492
O O7 0.098440 0.583583 0.281504
O O8 0.021782 0.573746 0.172722
O O9 0.771405 0.299189 0.268302
O O10 0.690256 0.282445 0.384564
O O11 0.918818 0.408302 0.148532
O O12 0.565216 0.875000 0.875000
O O13 0.563057 0.985083 0.839139
O O14 0.861739 0.969276 0.738786
O O15 0.250000 0.500000 0.750000
#
# Coordination Sequence:
#
# PCOD9515982 Si02
#       7
#    32  32  32  16  32  32  32
#     4  11  25  41  71 100 132 182 235 288 353 416
#     4  11  24  43  67 102 141 186 221 283 351 424
#     4  11  24  46  67 103 143 176 240 290 350 426
#     4  12  23  42  68  97 146 174 232 276 359 410
#     4  10  22  44  68  95 137 177 234 279 342 420
#     4  10  25  41  69 102 135 183 226 294 352 418
#     4  11  25  44  72  96 137 186 234 294 355 419
#
# _framework density 20.890612000000001
#
# number of rings (size 3 to 8) (size 9 to 14) (size 15 to 20)
#    0.000    1.231    1.538    3.923   10.769    0.000 
#    0.000    2.308    0.000    0.000    0.000    0.000 
#    0.000    0.000    0.000    0.000    0.000    0.000 
#
# Total GULP energy -289747.000652 kJ/mol
# GULP energy per Si atom -5572.057705 kJ/mol
# Density = 2.084306 g / cm^3
# Si number density = 20.890612 Si / 1000 Ang^3
#
#
#
# Elastic Constant Matrix: (Units=GPa)
#
#
# Indices 1 2 3 4 5 6 
#
# 1 161.6242 18.0006 31.1581 0.0000 0.0000 0.0000
# 2 18.0006 54.0944 11.0332 0.0000 0.0000 0.0000
# 3 31.1581 11.0332 56.1896 0.0000 0.0000 0.0000
# 4 0.0000 0.0000 0.0000 14.1616 0.0000 0.0000
# 5 0.0000 0.0000 0.0000 0.0000 27.4399 0.0000
# 6 0.0000 0.0000 0.0000 0.0000 0.0000 3.2848
#
#
#
# Elastic Compliance Matrix: (Units=1/GPa)
#
#
# Indices 1 2 3 4 5 6 
#
# 1 0.007061 -0.001616 -0.003598 0.000000 0.000000 0.000000
# 2 -0.001616 0.019627 -0.002958 0.000000 0.000000 0.000000
# 3 -0.003598 -0.002958 0.020373 0.000000 0.000000 0.000000
# 4 0.000000 0.000000 0.000000 0.070614 0.000000 0.000000
# 5 0.000000 0.000000 0.000000 0.000000 0.036443 0.000000
# 6 0.000000 0.000000 0.000000 0.000000 0.000000 0.304430
#
#
# Mechanical properties :
#
#
# Convention : Reuss Voigt Hill
#
# Bulk Modulus (GPa) = 32.55490 43.58798 38.07144
# Shear Modulus (GPa) = 10.30651 23.09169 16.69910
#
# Velocity S-wave (km/s) = 2.22357 3.32831 2.83036
# Velocity P-wave (km/s) = 4.71272 5.97330 5.38006
#
# Compressibility (1/GPa) = 0.03071734
#
# Stress axis : x y z
#
# Youngs Moduli (GPa) = 141.62754 50.94981 49.08487
#
# Poissons Ratio (x) = 0.08232 0.17661
# Poissons Ratio (y) = 0.22883 0.14519
# Poissons Ratio (z) = 0.50958 0.15071
#
# Static dielectric constant tensor:
#      x y z
#    x 1.803460 0.000000 0.000000 
#    y 0.000000 1.680970 0.000000 
#    z 0.000000 0.000000 1.779500 
# 
# From -- ./inp_files/37733.got.cif
#   From: 2010.05.17/outbox.cif.g08.bks.cpg/sg70_19_cif.got.tgz:37733.got - 2010.06.03 15:57:51.
