data_PCOD9515016
_publ_section_title
;
Structure prediction by ZEFSAII (Michael W. Deem and Ramdas Pophale) SiO2 
 PCOD9515016
Probable space group: F D D D
;
_chemical_formula_sum "Si O2"
_cell_formula_units_Z 240
_cell_length_a 29.901531
_cell_length_b 20.700423
_cell_length_c 20.150913
_cell_angle_alpha 90.000000
_cell_angle_beta 90.000000
_cell_angle_gamma 90.000000
_cell_volume 12472.898076
_symmetry_space_group_name_H-M "F D D D"
_symmetry_group_IT_number 70
_space_group.IT_coordinate_system_code '2'
_symmetry_cell_setting 'orthorhombic'
loop_
_space_group_symop_operation_xyz
x,y,z
1/4-x,1/4-y,z
x,1/4-y,1/4-z
1/4-x,y,1/4-z
-x,-y,-z
3/4+x,3/4+y,-z
-x,3/4+y,3/4+z
3/4+x,-y,3/4+z
x,1/2+y,1/2+z
1/4-x,3/4-y,1/2+z
x,3/4-y,3/4-z
1/4-x,1/2+y,3/4-z
-x,1/2-y,1/2-z
3/4+x,1/4+y,1/2-z
-x,1/4+y,1/4+z
3/4+x,1/2-y,1/4+z
1/2+x,y,1/2+z
3/4-x,1/4-y,1/2+z
1/2+x,1/4-y,3/4-z
3/4-x,y,3/4-z
1/2-x,-y,1/2-z
1/4+x,3/4+y,1/2-z
1/2-x,3/4+y,1/4+z
1/4+x,-y,1/4+z
1/2+x,1/2+y,z
3/4-x,3/4-y,z
1/2+x,3/4-y,1/4-z
3/4-x,1/2+y,1/4-z
1/2-x,1/2-y,-z
1/4+x,1/4+y,-z
1/2-x,1/4+y,3/4+z
1/4+x,1/2-y,3/4+z
loop_
_atom_site_type_symbol
_atom_site_label
_atom_site_fract_x
_atom_site_fract_y
_atom_site_fract_z
Si Si1 0.284486 0.344958 0.481811
Si Si2 0.264512 0.213039 0.781347
Si Si3 0.503698 0.095140 0.782967
Si Si4 0.675779 0.407724 0.302761
Si Si5 0.399035 0.622491 0.804894
Si Si6 0.468147 0.029736 0.913489
Si Si7 0.125000 0.125000 0.803105
Si Si8 0.439945 0.797551 0.143994
O O1 0.260843 0.414669 0.480197
O O2 0.258058 0.308280 0.541319
O O3 0.280893 0.297271 0.419611
O O4 0.334930 0.351355 0.506604
O O5 0.274301 0.283244 0.753101
O O6 0.309763 0.177168 0.801013
O O7 0.230017 0.218962 0.842511
O O8 0.470342 0.132579 0.734037
O O9 0.474784 0.063028 0.842561
O O10 0.540326 0.143552 0.812803
O O11 0.671853 0.375000 0.375000
O O12 0.634575 0.388246 0.255623
O O13 0.678477 0.484533 0.313812
O O14 0.375000 0.613617 0.875000
O O15 0.422298 0.692876 0.805331
O O16 0.147820 0.178369 0.850741
#
# Coordination Sequence:
#
# PCOD9515016 Si02
#       8
#    32  32  32  32  32  32  16  32
#     4   9  20  38  61  93 126 162 210 269 321 396
#     4  10  22  42  64  94 128 169 219 266 330 400
#     4  12  22  43  69  87 130 178 213 269 331 392
#     4  12  26  41  66  99 130 171 226 274 320 394
#     4  11  22  42  65  95 131 172 220 276 327 387
#     4  10  20  39  65  89 124 172 212 262 337 388
#     4  10  20  38  66  91 131 162 208 280 328 386
#     4  11  23  43  63  95 127 167 221 265 330 381
#
# _framework density 19.241719
#
# number of rings (size 3 to 8) (size 9 to 14) (size 15 to 20)
#    0.000    1.333    6.667    0.400    3.733    0.533 
#    4.800    0.000    0.000    0.800    0.000    0.000 
#    0.000    0.000    0.000    0.000    0.000    0.000 
#
# Total GULP energy -335037.495715 kJ/mol
# GULP energy per Si atom -5583.958262 kJ/mol
# Density = 1.919792 g / cm^3
# Si number density = 19.241719 Si / 1000 Ang^3
#
#
#
# Elastic Constant Matrix: (Units=GPa)
#
#
# Indices 1 2 3 4 5 6 
#
# 1 90.2351 19.7473 26.9967 0.0000 0.0000 0.0000
# 2 19.7473 82.7383 13.3222 0.0000 0.0000 0.0000
# 3 26.9967 13.3222 76.3733 0.0000 0.0000 0.0000
# 4 0.0000 0.0000 0.0000 24.0185 0.0000 0.0000
# 5 0.0000 0.0000 0.0000 0.0000 18.1271 0.0000
# 6 0.0000 0.0000 0.0000 0.0000 0.0000 10.8165
#
#
#
# Elastic Compliance Matrix: (Units=1/GPa)
#
#
# Indices 1 2 3 4 5 6 
#
# 1 0.012840 -0.002401 -0.004120 0.000000 0.000000 0.000000
# 2 -0.002401 0.012885 -0.001399 0.000000 0.000000 0.000000
# 3 -0.004120 -0.001399 0.014794 0.000000 0.000000 0.000000
# 4 0.000000 0.000000 0.000000 0.041635 0.000000 0.000000
# 5 0.000000 0.000000 0.000000 0.000000 0.055166 0.000000
# 6 0.000000 0.000000 0.000000 0.000000 0.000000 0.092451
#
#
# Mechanical properties :
#
#
# Convention : Reuss Voigt Hill
#
# Bulk Modulus (GPa) = 40.52038 41.05324 40.78681
# Shear Modulus (GPa) = 19.69766 23.21110 21.45438
#
# Velocity S-wave (km/s) = 3.20299 3.47694 3.34277
# Velocity P-wave (km/s) = 5.89773 6.12378 6.01182
#
# Compressibility (1/GPa) = 0.02467894
#
# Stress axis : x y z
#
# Youngs Moduli (GPa) = 77.87990 77.61186 67.59535
#
# Poissons Ratio (x) = 0.18636 0.27849
# Poissons Ratio (y) = 0.18701 0.09455
# Poissons Ratio (z) = 0.32086 0.10856
#
# Static dielectric constant tensor:
#      x y z
#    x 1.643860 0.000000 0.000000 
#    y 0.000000 1.680470 0.000000 
#    z 0.000000 0.000000 1.681370 
# 
# From -- ./inp_files/47135.got.cif
#   From: 2010.05.17/outbox.cif.g08.bks.cpg/sg70_24_cif.got.tgz:47135.got - 2010.06.03 15:57:51.
