data_PCOD9515957
_publ_section_title
;
Structure prediction by ZEFSAII (Michael W. Deem and Ramdas Pophale) SiO2 
 PCOD9515957
Probable space group: F D D D
;
_chemical_formula_sum "Si O2"
_cell_formula_units_Z 208
_cell_length_a 17.157283
_cell_length_b 21.553985
_cell_length_c 24.953889
_cell_angle_alpha 90.000000
_cell_angle_beta 90.000000
_cell_angle_gamma 90.000000
_cell_volume 9228.143302
_symmetry_space_group_name_H-M "F D D D"
_symmetry_group_IT_number 70
_space_group.IT_coordinate_system_code '2'
_symmetry_cell_setting 'orthorhombic'
loop_
_space_group_symop_operation_xyz
x,y,z
1/4-x,1/4-y,z
x,1/4-y,1/4-z
1/4-x,y,1/4-z
-x,-y,-z
3/4+x,3/4+y,-z
-x,3/4+y,3/4+z
3/4+x,-y,3/4+z
x,1/2+y,1/2+z
1/4-x,3/4-y,1/2+z
x,3/4-y,3/4-z
1/4-x,1/2+y,3/4-z
-x,1/2-y,1/2-z
3/4+x,1/4+y,1/2-z
-x,1/4+y,1/4+z
3/4+x,1/2-y,1/4+z
1/2+x,y,1/2+z
3/4-x,1/4-y,1/2+z
1/2+x,1/4-y,3/4-z
3/4-x,y,3/4-z
1/2-x,-y,1/2-z
1/4+x,3/4+y,1/2-z
1/2-x,3/4+y,1/4+z
1/4+x,-y,1/4+z
1/2+x,1/2+y,z
3/4-x,3/4-y,z
1/2+x,3/4-y,1/4-z
3/4-x,1/2+y,1/4-z
1/2-x,1/2-y,-z
1/4+x,1/4+y,-z
1/2-x,1/4+y,3/4+z
1/4+x,1/2-y,3/4+z
loop_
_atom_site_type_symbol
_atom_site_label
_atom_site_fract_x
_atom_site_fract_y
_atom_site_fract_z
Si Si1 0.636707 0.476315 0.441631
Si Si2 0.769657 0.769336 0.642496
Si Si3 0.510578 0.375000 0.875000
Si Si4 0.247706 0.068022 0.227822
Si Si5 0.147271 0.378832 0.511087
Si Si6 0.125000 0.358574 0.625000
Si Si7 0.125000 0.125000 0.306987
Si Si8 0.308939 0.825870 0.771027
O O1 0.558092 0.483589 0.407469
O O2 0.692134 0.431172 0.405761
O O3 0.625591 0.441039 0.498158
O O4 0.666743 0.541244 0.465367
O O5 0.701439 0.815868 0.624683
O O6 0.841485 0.813781 0.662886
O O7 0.728518 0.722307 0.685133
O O8 0.464615 0.337403 0.829482
O O9 0.339759 0.082877 0.223421
O O10 0.199209 0.107147 0.270709
O O11 0.250000 0.000000 0.250000
O O12 0.127574 0.397700 0.571080
O O13 0.235189 0.384538 0.496260
O O14 0.375000 0.875000 0.789714
#
# Coordination Sequence:
#
# PCOD9515957 Si02
#       8
#    32  32  16  32  32  16  16  32
#     4  11  24  47  71 106 146 195 244 308 374 447
#     4  12  26  45  73 104 142 192 250 304 380 453
#     4  10  22  43  72 103 148 192 248 306 373 446
#     4  11  23  43  71 102 143 191 242 309 372 438
#     4  11  25  46  67 103 145 188 241 311 363 449
#     4  12  24  44  69  96 138 183 236 300 364 450
#     4  12  24  47  72 104 146 191 248 312 374 448
#     4  12  27  47  71 108 151 194 250 310 378 457
#
# _framework density 22.539746000000001
#
# number of rings (size 3 to 8) (size 9 to 14) (size 15 to 20)
#    0.000    0.615    3.077    5.538    5.385    2.769 
#    0.000    0.000    0.000    0.000    0.000    0.000 
#    0.000    0.000    0.000    0.000    0.000    0.000 
#
# Total GULP energy -289870.749742 kJ/mol
# GULP energy per Si atom -5574.437495 kJ/mol
# Density = 2.248844 g / cm^3
# Si number density = 22.539746 Si / 1000 Ang^3
#
#
#
# Elastic Constant Matrix: (Units=GPa)
#
#
# Indices 1 2 3 4 5 6 
#
# 1 81.5731 11.0542 1.2611 0.0000 0.0000 0.0000
# 2 11.0542 71.0925 15.6872 0.0000 0.0000 0.0000
# 3 1.2611 15.6872 90.1204 0.0000 0.0000 0.0000
# 4 0.0000 0.0000 0.0000 24.8553 0.0000 0.0000
# 5 0.0000 0.0000 0.0000 0.0000 29.6094 0.0000
# 6 0.0000 0.0000 0.0000 0.0000 0.0000 25.7475
#
#
#
# Elastic Compliance Matrix: (Units=1/GPa)
#
#
# Indices 1 2 3 4 5 6 
#
# 1 0.012525 -0.001985 0.000170 0.000000 0.000000 0.000000
# 2 -0.001985 0.014943 -0.002573 0.000000 0.000000 0.000000
# 3 0.000170 -0.002573 0.011542 0.000000 0.000000 0.000000
# 4 0.000000 0.000000 0.000000 0.040233 0.000000 0.000000
# 5 0.000000 0.000000 0.000000 0.000000 0.033773 0.000000
# 6 0.000000 0.000000 0.000000 0.000000 0.000000 0.038839
#
#
# Mechanical properties :
#
#
# Convention : Reuss Voigt Hill
#
# Bulk Modulus (GPa) = 33.07588 33.19901 33.13745
# Shear Modulus (GPa) = 29.28968 30.36133 29.82551
#
# Velocity S-wave (km/s) = 3.60872 3.67415 3.64158
# Velocity P-wave (km/s) = 5.66305 5.72366 5.69344
#
# Compressibility (1/GPa) = 0.03023351
#
# Stress axis : x y z
#
# Youngs Moduli (GPa) = 79.83822 66.92239 86.64147
#
# Poissons Ratio (x) = 0.13285 -0.01475
# Poissons Ratio (y) = 0.15849 0.22295
# Poissons Ratio (z) = -0.01359 0.17221
#
# Static dielectric constant tensor:
#      x y z
#    x 1.832890 0.000000 0.000000 
#    y 0.000000 1.790550 0.000000 
#    z 0.000000 0.000000 1.963160 
# 
# From -- ./inp_files/43987.got.cif
#   From: 2010.05.17/outbox.cif.g08.bks.cpg/sg70_22_cif.got.tgz:43987.got - 2010.06.03 15:57:51.
