data_PCOD9515929
_publ_section_title
;
Structure prediction by ZEFSAII (Michael W. Deem and Ramdas Pophale) SiO2 
 PCOD9515929
Probable space group: F D D D
;
_chemical_formula_sum "Si O2"
_cell_formula_units_Z 192
_cell_length_a 22.531621
_cell_length_b 15.522644
_cell_length_c 25.425562
_cell_angle_alpha 90.000000
_cell_angle_beta 90.000000
_cell_angle_gamma 90.000000
_cell_volume 8892.598739
_symmetry_space_group_name_H-M "F D D D"
_symmetry_group_IT_number 70
_space_group.IT_coordinate_system_code '2'
_symmetry_cell_setting 'orthorhombic'
loop_
_space_group_symop_operation_xyz
x,y,z
1/4-x,1/4-y,z
x,1/4-y,1/4-z
1/4-x,y,1/4-z
-x,-y,-z
3/4+x,3/4+y,-z
-x,3/4+y,3/4+z
3/4+x,-y,3/4+z
x,1/2+y,1/2+z
1/4-x,3/4-y,1/2+z
x,3/4-y,3/4-z
1/4-x,1/2+y,3/4-z
-x,1/2-y,1/2-z
3/4+x,1/4+y,1/2-z
-x,1/4+y,1/4+z
3/4+x,1/2-y,1/4+z
1/2+x,y,1/2+z
3/4-x,1/4-y,1/2+z
1/2+x,1/4-y,3/4-z
3/4-x,y,3/4-z
1/2-x,-y,1/2-z
1/4+x,3/4+y,1/2-z
1/2-x,3/4+y,1/4+z
1/4+x,-y,1/4+z
1/2+x,1/2+y,z
3/4-x,3/4-y,z
1/2+x,3/4-y,1/4-z
3/4-x,1/2+y,1/4-z
1/2-x,1/2-y,-z
1/4+x,1/4+y,-z
1/2-x,1/4+y,3/4+z
1/4+x,1/2-y,3/4+z
loop_
_atom_site_type_symbol
_atom_site_label
_atom_site_fract_x
_atom_site_fract_y
_atom_site_fract_z
Si Si1 0.137862 0.475643 0.361720
Si Si2 0.766005 0.280189 0.663224
Si Si3 0.625000 0.625000 0.944802
Si Si4 0.048224 0.312630 0.192275
Si Si5 0.532675 0.119018 0.531691
Si Si6 0.510491 0.281219 0.190636
Si Si7 0.625000 0.807593 0.625000
O O1 0.130892 0.375000 0.375000
O O2 0.084091 0.506522 0.324053
O O3 0.124785 0.539640 0.409666
O O4 0.203415 0.496042 0.341116
O O5 0.753181 0.305179 0.602392
O O6 0.730301 0.194801 0.678402
O O7 0.744159 0.364833 0.692843
O O8 0.570894 0.647077 0.982655
O O9 0.067082 0.213255 0.195362
O O10 0.093525 0.380551 0.168080
O O11 0.027065 0.337098 0.251108
O O12 0.500000 0.250000 0.250000
O O13 0.571467 0.261074 0.157807
#
# Coordination Sequence:
#
# PCOD9515929 Si02
#       7
#    32  32  16  32  32  32  16
#     4  12  25  47  75  96 142 186 236 304 361 420
#     4  11  23  47  69 100 145 180 229 305 357 437
#     4  12  24  44  63 110 136 175 240 292 342 448
#     4  10  22  43  63 102 136 177 224 280 359 427
#     4  11  24  36  71 100 135 176 227 278 360 429
#     4  11  26  47  69 104 135 191 245 288 367 440
#     4  10  24  46  70  92 156 180 228 310 346 422
#
# _framework density 21.590987999999999
#
# number of rings (size 3 to 8) (size 9 to 14) (size 15 to 20)
#    0.000    1.000    3.333    2.500   11.667    0.000 
#    0.000    0.417    0.000    0.000    0.000    0.000 
#    0.000    0.000    0.000    0.000    0.000    0.000 
#
# Total GULP energy -267581.880804 kJ/mol
# GULP energy per Si atom -5574.622517 kJ/mol
# Density = 2.154185 g / cm^3
# Si number density = 21.590988 Si / 1000 Ang^3
#
#
#
# Elastic Constant Matrix: (Units=GPa)
#
#
# Indices 1 2 3 4 5 6 
#
# 1 114.7203 12.4653 29.9533 0.0000 0.0000 0.0000
# 2 12.4653 68.3619 17.4853 0.0000 0.0000 0.0000
# 3 29.9533 17.4853 74.7819 0.0000 0.0000 0.0000
# 4 0.0000 0.0000 0.0000 34.1858 0.0000 0.0000
# 5 0.0000 0.0000 0.0000 0.0000 25.4946 0.0000
# 6 0.0000 0.0000 0.0000 0.0000 0.0000 6.4028
#
#
#
# Elastic Compliance Matrix: (Units=1/GPa)
#
#
# Indices 1 2 3 4 5 6 
#
# 1 0.009779 -0.000831 -0.003723 0.000000 0.000000 0.000000
# 2 -0.000831 0.015629 -0.003322 0.000000 0.000000 0.000000
# 3 -0.003723 -0.003322 0.015640 0.000000 0.000000 0.000000
# 4 0.000000 0.000000 0.000000 0.029252 0.000000 0.000000
# 5 0.000000 0.000000 0.000000 0.000000 0.039224 0.000000
# 6 0.000000 0.000000 0.000000 0.000000 0.000000 0.156182
#
#
# Mechanical properties :
#
#
# Convention : Reuss Voigt Hill
#
# Bulk Modulus (GPa) = 39.52903 41.96355 40.74629
# Shear Modulus (GPa) = 17.24799 26.41398 21.83099
#
# Velocity S-wave (km/s) = 2.82946 3.50148 3.18325
# Velocity P-wave (km/s) = 5.38724 5.98540 5.69418
#
# Compressibility (1/GPa) = 0.02529786
#
# Stress axis : x y z
#
# Youngs Moduli (GPa) = 102.25863 63.98313 63.93893
#
# Poissons Ratio (x) = 0.05317 0.23802
# Poissons Ratio (y) = 0.08498 0.21237
# Poissons Ratio (z) = 0.38067 0.21252
#
# Static dielectric constant tensor:
#      x y z
#    x 1.530200 0.000000 0.000000 
#    y 0.000000 1.756100 0.000000 
#    z 0.000000 0.000000 1.806530 
# 
# From -- ./inp_files/61188.got.cif
#   From: 2010.05.17/outbox.cif.g08.bks.cpg/sg70_31_cif.got.tgz:61188.got - 2010.06.03 15:57:51.
