data_PCOD9515100
_publ_section_title
;
Structure prediction by ZEFSAII (Michael W. Deem and Ramdas Pophale) SiO2 
 PCOD9515100
Probable space group: F D D D
;
_chemical_formula_sum "Si O2"
_cell_formula_units_Z 176
_cell_length_a 17.264651
_cell_length_b 20.050453
_cell_length_c 22.700657
_cell_angle_alpha 90.000000
_cell_angle_beta 90.000000
_cell_angle_gamma 90.000000
_cell_volume 7858.151897
_symmetry_space_group_name_H-M "F D D D"
_symmetry_group_IT_number 70
_space_group.IT_coordinate_system_code '2'
_symmetry_cell_setting 'orthorhombic'
loop_
_space_group_symop_operation_xyz
x,y,z
1/4-x,1/4-y,z
x,1/4-y,1/4-z
1/4-x,y,1/4-z
-x,-y,-z
3/4+x,3/4+y,-z
-x,3/4+y,3/4+z
3/4+x,-y,3/4+z
x,1/2+y,1/2+z
1/4-x,3/4-y,1/2+z
x,3/4-y,3/4-z
1/4-x,1/2+y,3/4-z
-x,1/2-y,1/2-z
3/4+x,1/4+y,1/2-z
-x,1/4+y,1/4+z
3/4+x,1/2-y,1/4+z
1/2+x,y,1/2+z
3/4-x,1/4-y,1/2+z
1/2+x,1/4-y,3/4-z
3/4-x,y,3/4-z
1/2-x,-y,1/2-z
1/4+x,3/4+y,1/2-z
1/2-x,3/4+y,1/4+z
1/4+x,-y,1/4+z
1/2+x,1/2+y,z
3/4-x,3/4-y,z
1/2+x,3/4-y,1/4-z
3/4-x,1/2+y,1/4-z
1/2-x,1/2-y,-z
1/4+x,1/4+y,-z
1/2-x,1/4+y,3/4+z
1/4+x,1/2-y,3/4+z
loop_
_atom_site_type_symbol
_atom_site_label
_atom_site_fract_x
_atom_site_fract_y
_atom_site_fract_z
Si Si1 0.062713 0.934006 0.571838
Si Si2 0.130717 0.546904 0.767120
Si Si3 0.653748 0.248748 0.946468
Si Si4 0.903100 0.125000 0.125000
Si Si5 0.769179 0.535203 0.456244
Si Si6 0.496268 0.980910 0.416431
O O1 0.125000 0.942823 0.625000
O O2 0.081628 0.975987 0.513132
O O3 0.058660 0.856278 0.553617
O O4 0.974014 0.957830 0.582890
O O5 0.125000 0.625000 0.757029
O O6 0.051459 0.505421 0.762504
O O7 0.180882 0.514055 0.714600
O O8 0.185768 0.534563 0.822786
O O9 0.641577 0.315831 0.907360
O O10 0.573487 0.208922 0.954390
O O11 0.959577 0.089258 0.078227
O O12 0.784888 0.489373 0.398893
#
# Coordination Sequence:
#
# PCOD9515100 Si02
#       6
#    32  32  32  16  32  32
#     4  11  24  43  66  92 125 169 222 275 337 403
#     4  11  22  36  57  87 123 159 200 249 311 381
#     4  10  24  42  63  94 126 167 220 275 337 408
#     4  10  20  40  62  84 126 162 200 264 325 378
#     4  11  23  40  63  89 126 165 209 269 326 393
#     4  10  22  36  56  89 119 158 205 246 305 384
#
# _framework density 22.397123000000001
#
# number of rings (size 3 to 8) (size 9 to 14) (size 15 to 20)
#    0.000    1.455    0.000    5.455    0.000   12.364 
#    0.000    2.273    0.000    0.000    0.000    0.000 
#    0.000    0.000    0.000    0.000    0.000    0.000 
#
# Total GULP energy -245636.833725 kJ/mol
# GULP energy per Si atom -5582.655312 kJ/mol
# Density = 2.234615 g / cm^3
# Si number density = 22.397123 Si / 1000 Ang^3
#
#
#
# Elastic Constant Matrix: (Units=GPa)
#
#
# Indices 1 2 3 4 5 6 
#
# 1 129.2733 36.5146 31.6631 0.0000 0.0000 0.0000
# 2 36.5146 94.6644 13.0023 0.0000 0.0000 0.0000
# 3 31.6631 13.0023 61.0256 0.0000 0.0000 0.0000
# 4 0.0000 0.0000 0.0000 22.5830 0.0000 0.0000
# 5 0.0000 0.0000 0.0000 0.0000 31.8495 0.0000
# 6 0.0000 0.0000 0.0000 0.0000 0.0000 3.0277
#
#
#
# Elastic Compliance Matrix: (Units=1/GPa)
#
#
# Indices 1 2 3 4 5 6 
#
# 1 0.009690 -0.003139 -0.004359 0.000000 0.000000 0.000000
# 2 -0.003139 0.011899 -0.000907 0.000000 0.000000 0.000000
# 3 -0.004359 -0.000907 0.018841 0.000000 0.000000 0.000000
# 4 0.000000 0.000000 0.000000 0.044281 0.000000 0.000000
# 5 0.000000 0.000000 0.000000 0.000000 0.031398 0.000000
# 6 0.000000 0.000000 0.000000 0.000000 0.000000 0.330285
#
#
# Mechanical properties :
#
#
# Convention : Reuss Voigt Hill
#
# Bulk Modulus (GPa) = 42.33446 49.70260 46.01853
# Shear Modulus (GPa) = 10.61401 25.07757 17.84579
#
# Velocity S-wave (km/s) = 2.17929 3.34979 2.82581
# Velocity P-wave (km/s) = 5.02744 6.09927 5.58911
#
# Compressibility (1/GPa) = 0.02362142
#
# Stress axis : x y z
#
# Youngs Moduli (GPa) = 103.20167 84.04124 53.07503
#
# Poissons Ratio (x) = 0.26380 0.23134
# Poissons Ratio (y) = 0.32394 0.04812
# Poissons Ratio (z) = 0.44983 0.07619
#
# Static dielectric constant tensor:
#      x y z
#    x 1.922320 0.000000 0.000000 
#    y 0.000000 1.819860 0.000000 
#    z 0.000000 0.000000 1.839240 
# 
# From -- ./inp_files/59461.got.cif
#   From: 2010.05.17/outbox.cif.g08.bks.cpg/sg70_30_cif.got.tgz:59461.got - 2010.06.03 15:57:51.
