data_PCOD9515798
_publ_section_title
;
Structure prediction by ZEFSAII (Michael W. Deem and Ramdas Pophale) SiO2 
 PCOD9515798
Probable space group: F D D D
;
_chemical_formula_sum "Si O2"
_cell_formula_units_Z 136
_cell_length_a 34.515651
_cell_length_b 7.339380
_cell_length_c 22.655602
_cell_angle_alpha 90.000000
_cell_angle_beta 90.000000
_cell_angle_gamma 90.000000
_cell_volume 5739.195909
_symmetry_space_group_name_H-M "F D D D"
_symmetry_group_IT_number 70
_space_group.IT_coordinate_system_code '2'
_symmetry_cell_setting 'orthorhombic'
loop_
_space_group_symop_operation_xyz
x,y,z
1/4-x,1/4-y,z
x,1/4-y,1/4-z
1/4-x,y,1/4-z
-x,-y,-z
3/4+x,3/4+y,-z
-x,3/4+y,3/4+z
3/4+x,-y,3/4+z
x,1/2+y,1/2+z
1/4-x,3/4-y,1/2+z
x,3/4-y,3/4-z
1/4-x,1/2+y,3/4-z
-x,1/2-y,1/2-z
3/4+x,1/4+y,1/2-z
-x,1/4+y,1/4+z
3/4+x,1/2-y,1/4+z
1/2+x,y,1/2+z
3/4-x,1/4-y,1/2+z
1/2+x,1/4-y,3/4-z
3/4-x,y,3/4-z
1/2-x,-y,1/2-z
1/4+x,3/4+y,1/2-z
1/2-x,3/4+y,1/4+z
1/4+x,-y,1/4+z
1/2+x,1/2+y,z
3/4-x,3/4-y,z
1/2+x,3/4-y,1/4-z
3/4-x,1/2+y,1/4-z
1/2-x,1/2-y,-z
1/4+x,1/4+y,-z
1/2-x,1/4+y,3/4+z
1/4+x,1/2-y,3/4+z
loop_
_atom_site_type_symbol
_atom_site_label
_atom_site_fract_x
_atom_site_fract_y
_atom_site_fract_z
Si Si1 0.307798 0.575494 0.749572
Si Si2 0.375000 0.875000 0.375000
Si Si3 0.640442 0.912832 0.218074
Si Si4 0.246261 0.678610 0.405767
Si Si5 0.962967 0.967979 0.541122
O O1 0.353293 0.689433 0.495045
O O2 0.287244 0.604344 0.812724
O O3 0.283919 0.432226 0.710684
O O4 0.269973 0.957213 0.643037
O O5 0.399557 0.726376 0.413867
O O6 0.625000 0.125000 0.204007
O O7 0.676203 0.925671 0.263423
O O8 0.551624 0.012791 0.284053
O O9 0.249280 0.875000 0.375000
O O10 0.000000 0.000000 0.500000
#
# Coordination Sequence:
#
# PCOD9515798 Si02
#       5
#    32   8  32  32  32
#     4   9  20  40  69  95 135 177 234 289 346 424
#     4  12  26  40  72  98 136 180 238 308 352 436
#     4  10  24  44  68 103 137 182 236 296 360 427
#     4   9  19  37  68  99 132 178 229 285 348 426
#     4  10  22  40  64  96 138 181 225 281 356 424
#
# _framework density 23.696698000000001
#
# number of rings (size 3 to 8) (size 9 to 14) (size 15 to 20)
#    0.000    2.353    0.000    0.353    4.941    4.706 
#    0.000    0.000   64.706    0.000    0.000    0.000 
#    0.000    0.000    0.000    0.000    0.000    0.000 
#
# Total GULP energy -189498.280183 kJ/mol
# GULP energy per Si atom -5573.478829 kJ/mol
# Density = 2.364276 g / cm^3
# Si number density = 23.696698 Si / 1000 Ang^3
#
#
#
# Elastic Constant Matrix: (Units=GPa)
#
#
# Indices 1 2 3 4 5 6 
#
# 1 190.0973 13.0071 71.5075 0.0000 0.0001 0.0001
# 2 13.0071 100.6533 30.2243 0.0000 0.0010 0.0002
# 3 71.5075 30.2243 142.0154 0.0000 0.0001 0.0000
# 4 0.0000 0.0000 0.0000 41.7540 0.0005 0.0001
# 5 0.0001 0.0010 0.0001 0.0005 10.8843 0.0001
# 6 0.0001 0.0002 0.0000 0.0001 0.0001 33.5771
#
#
#
# Elastic Compliance Matrix: (Units=1/GPa)
#
#
# Indices 1 2 3 4 5 6 
#
# 1 0.006492 0.000152 -0.003301 0.000000 0.000000 0.000000
# 2 0.000152 0.010617 -0.002336 0.000000 -0.000001 0.000000
# 3 -0.003301 -0.002336 0.009201 0.000000 0.000000 0.000000
# 4 0.000000 0.000000 0.000000 0.023950 -0.000001 0.000000
# 5 0.000000 -0.000001 0.000000 -0.000001 0.091876 0.000000
# 6 0.000000 0.000000 0.000000 0.000000 0.000000 0.029782
#
#
# Mechanical properties :
#
#
# Convention : Reuss Voigt Hill
#
# Bulk Modulus (GPa) = 65.19112 73.58266 69.38689
# Shear Modulus (GPa) = 26.59565 38.44487 32.52026
#
# Velocity S-wave (km/s) = 3.35376 4.03224 3.70855
# Velocity P-wave (km/s) = 6.52436 7.26621 6.90526
#
# Compressibility (1/GPa) = 0.01533951
#
# Stress axis : x y z
#
# Youngs Moduli (GPa) = 154.04002 94.18915 108.68495
#
# Poissons Ratio (x) = -0.01435 0.35879
# Poissons Ratio (y) = -0.02347 0.25392
# Poissons Ratio (z) = 0.50851 0.22005
#
# Static dielectric constant tensor:
#      x y z
#    x 1.866280 0.000000 0.000000 
#    y 0.000000 2.019950 0.000000 
#    z 0.000000 0.000000 2.050850 
# 
# From -- ./inp_files/54831.got.cif
#   From: 2010.05.17/outbox.cif.g08.bks.cpg/sg70_28_cif.got.tgz:54831.got - 2010.06.03 15:57:51.
