data_PCOD9515907
_publ_section_title
;
Structure prediction by ZEFSAII (Michael W. Deem and Ramdas Pophale) SiO2 
 PCOD9515907
Probable space group: F D D D
;
_chemical_formula_sum "Si O2"
_cell_formula_units_Z 160
_cell_length_a 27.491405
_cell_length_b 20.893216
_cell_length_c 11.744578
_cell_angle_alpha 90.000000
_cell_angle_beta 90.000000
_cell_angle_gamma 90.000000
_cell_volume 6745.896079
_symmetry_space_group_name_H-M "F D D D"
_symmetry_group_IT_number 70
_space_group.IT_coordinate_system_code '2'
_symmetry_cell_setting 'orthorhombic'
loop_
_space_group_symop_operation_xyz
x,y,z
1/4-x,1/4-y,z
x,1/4-y,1/4-z
1/4-x,y,1/4-z
-x,-y,-z
3/4+x,3/4+y,-z
-x,3/4+y,3/4+z
3/4+x,-y,3/4+z
x,1/2+y,1/2+z
1/4-x,3/4-y,1/2+z
x,3/4-y,3/4-z
1/4-x,1/2+y,3/4-z
-x,1/2-y,1/2-z
3/4+x,1/4+y,1/2-z
-x,1/4+y,1/4+z
3/4+x,1/2-y,1/4+z
1/2+x,y,1/2+z
3/4-x,1/4-y,1/2+z
1/2+x,1/4-y,3/4-z
3/4-x,y,3/4-z
1/2-x,-y,1/2-z
1/4+x,3/4+y,1/2-z
1/2-x,3/4+y,1/4+z
1/4+x,-y,1/4+z
1/2+x,1/2+y,z
3/4-x,3/4-y,z
1/2+x,3/4-y,1/4-z
3/4-x,1/2+y,1/4-z
1/2-x,1/2-y,-z
1/4+x,1/4+y,-z
1/2-x,1/4+y,3/4+z
1/4+x,1/2-y,3/4+z
loop_
_atom_site_type_symbol
_atom_site_label
_atom_site_fract_x
_atom_site_fract_y
_atom_site_fract_z
Si Si1 0.815970 0.378594 0.201539
Si Si2 0.429806 0.995842 0.422816
Si Si3 0.212077 0.766715 0.807652
Si Si4 0.141350 0.950289 0.403149
Si Si5 0.435129 0.436958 0.297720
O O1 0.875000 0.375000 0.217245
O O2 0.797023 0.427784 0.296157
O O3 0.792409 0.309425 0.203980
O O4 0.809228 0.405246 0.075583
O O5 0.375000 0.987111 0.375000
O O6 0.455303 0.037098 0.325460
O O7 0.422487 0.023380 0.547406
O O8 0.166060 0.787606 0.881699
O O9 0.263742 0.789896 0.849193
O O10 0.147467 0.875000 0.375000
O O11 0.156253 0.996133 0.511689
O O12 0.420761 0.375000 0.375000
#
# Coordination Sequence:
#
# PCOD9515907 Si02
#       5
#    32  32  32  32  32
#     4  11  20  40  69  99 134 190 246 295 372 458
#     4   9  18  34  66  96 126 175 236 301 361 420
#     4  11  22  40  69 100 141 183 241 315 367 445
#     4  10  22  42  68 101 141 186 244 304 375 442
#     4  11  26  44  66 100 144 192 242 299 376 462
#
# _framework density 23.718125000000001
#
# number of rings (size 3 to 8) (size 9 to 14) (size 15 to 20)
#    0.000    1.600    6.000    1.200    0.000    7.600 
#    0.000    6.000    0.000    0.000    0.000    0.000 
#    0.000    0.000    0.000    0.000    0.000    0.000 
#
# Total GULP energy -222812.099014 kJ/mol
# GULP energy per Si atom -5570.302475 kJ/mol
# Density = 2.366414 g / cm^3
# Si number density = 23.718125 Si / 1000 Ang^3
#
#
#
# Elastic Constant Matrix: (Units=GPa)
#
#
# Indices 1 2 3 4 5 6 
#
# 1 123.4955 55.7524 21.3010 0.0000 0.0000 0.0000
# 2 55.7524 173.0134 45.5579 0.0000 0.0000 0.0000
# 3 21.3010 45.5579 68.9437 0.0000 0.0000 0.0000
# 4 0.0000 0.0000 0.0000 26.2212 0.0000 0.0000
# 5 0.0000 0.0000 0.0000 0.0000 0.4818 0.0000
# 6 0.0000 0.0000 0.0000 0.0000 0.0000 -24.8078
#
#
#
# Elastic Compliance Matrix: (Units=1/GPa)
#
#
# Indices 1 2 3 4 5 6 
#
# 1 0.009546 -0.002784 -0.001110 0.000000 0.000000 0.000000
# 2 -0.002784 0.007809 -0.004300 0.000000 0.000000 0.000000
# 3 -0.001110 -0.004300 0.017689 0.000000 0.000001 0.000000
# 4 0.000000 0.000000 0.000000 0.038137 0.000001 0.000000
# 5 0.000000 0.000000 0.000001 0.000001 2.075367 0.000000
# 6 0.000000 0.000000 0.000000 0.000000 0.000000 -0.040310
#
#
# Mechanical properties :
#
#
# Convention : Reuss Voigt Hill
#
# Bulk Modulus (GPa) = 53.60085 67.85279 60.72682
# Shear Modulus (GPa) = 2.34649 16.56846 9.45747
#
# Velocity S-wave (km/s) = 0.99573 2.64589 1.99903
# Velocity P-wave (km/s) = 4.89593 6.16477 5.56662
#
# Compressibility (1/GPa) = 0.01865642
#
# Stress axis : x y z
#
# Youngs Moduli (GPa) = 104.76002 128.05216 56.53205
#
# Poissons Ratio (x) = 0.35647 0.06273
# Poissons Ratio (y) = 0.29163 0.24310
# Poissons Ratio (z) = 0.11625 0.55066
#
# Static dielectric constant tensor:
#      x y z
#    x 1.950560 0.000000 0.000000 
#    y 0.000000 2.104250 0.000000 
#    z 0.000000 0.000000 7.666540 
# 
# From -- ./inp_files/22155.got.cif
#   From: 2010.05.17/outbox.cif.g08.bks.cpg/sg70_12_cif.got.tgz:22155.got - 2010.06.03 15:57:51.
