data_PCOD9515976
_publ_section_title
;
Structure prediction by ZEFSAII (Michael W. Deem and Ramdas Pophale) SiO2 
 PCOD9515976
Probable space group: F D D D
;
_chemical_formula_sum "Si O2"
_cell_formula_units_Z 128
_cell_length_a 20.120356
_cell_length_b 14.450155
_cell_length_c 21.182939
_cell_angle_alpha 90.000000
_cell_angle_beta 90.000000
_cell_angle_gamma 90.000000
_cell_volume 6158.775619
_symmetry_space_group_name_H-M "F D D D"
_symmetry_group_IT_number 70
_space_group.IT_coordinate_system_code '2'
_symmetry_cell_setting 'orthorhombic'
loop_
_space_group_symop_operation_xyz
x,y,z
1/4-x,1/4-y,z
x,1/4-y,1/4-z
1/4-x,y,1/4-z
-x,-y,-z
3/4+x,3/4+y,-z
-x,3/4+y,3/4+z
3/4+x,-y,3/4+z
x,1/2+y,1/2+z
1/4-x,3/4-y,1/2+z
x,3/4-y,3/4-z
1/4-x,1/2+y,3/4-z
-x,1/2-y,1/2-z
3/4+x,1/4+y,1/2-z
-x,1/4+y,1/4+z
3/4+x,1/2-y,1/4+z
1/2+x,y,1/2+z
3/4-x,1/4-y,1/2+z
1/2+x,1/4-y,3/4-z
3/4-x,y,3/4-z
1/2-x,-y,1/2-z
1/4+x,3/4+y,1/2-z
1/2-x,3/4+y,1/4+z
1/4+x,-y,1/4+z
1/2+x,1/2+y,z
3/4-x,3/4-y,z
1/2+x,3/4-y,1/4-z
3/4-x,1/2+y,1/4-z
1/2-x,1/2-y,-z
1/4+x,1/4+y,-z
1/2-x,1/4+y,3/4+z
1/4+x,1/2-y,3/4+z
loop_
_atom_site_type_symbol
_atom_site_label
_atom_site_fract_x
_atom_site_fract_y
_atom_site_fract_z
Si Si1 0.307341 0.276875 0.908337
Si Si2 0.053594 0.103201 0.952668
Si Si3 0.943112 0.773244 0.297610
Si Si4 0.549156 0.245231 0.055319
O O1 0.292312 0.375000 0.875000
O O2 0.375000 0.241727 0.875000
O O3 0.245290 0.207443 0.908986
O O4 0.319072 0.298124 0.982526
O O5 0.125000 0.125000 0.922772
O O6 0.011484 0.195138 0.971005
O O7 0.954370 0.741094 0.369223
O O8 0.947021 0.884918 0.298090
O O9 0.872018 0.728624 0.279484
O O10 0.000000 0.750000 0.250000
#
# Coordination Sequence:
#
# PCOD9515976 Si02
#       4
#    32  32  32  32
#     4  10  22  44  67  88 131 175 215 275 331 380
#     4  11  23  41  66  97 127 174 223 265 326 401
#     4   9  19  40  64  89 126 171 200 266 330 374
#     4   9  21  39  60  94 127 157 222 256 314 401
#
# _framework density 20.783349999999999
#
# number of rings (size 3 to 8) (size 9 to 14) (size 15 to 20)
#    0.000    2.250    2.500    1.500    3.500    6.000 
#   13.500    0.000    0.000    0.000    0.000    0.000 
#    0.000    0.000    0.000    0.000    0.000    0.000 
#
# Total GULP energy -178384.870523 kJ/mol
# GULP energy per Si atom -5574.527204 kJ/mol
# Density = 2.073605 g / cm^3
# Si number density = 20.783350 Si / 1000 Ang^3
#
#
#
# Elastic Constant Matrix: (Units=GPa)
#
#
# Indices 1 2 3 4 5 6 
#
# 1 218.0885 63.8858 60.9138 0.0000 0.0000 0.0000
# 2 63.8858 65.1142 11.7986 0.0000 0.0000 0.0000
# 3 60.9138 11.7986 45.7545 0.0000 0.0000 0.0000
# 4 0.0000 0.0000 0.0000 15.2367 0.0000 0.0000
# 5 0.0000 0.0000 0.0000 0.0000 39.6111 0.0000
# 6 0.0000 0.0000 0.0000 0.0000 0.0000 34.8621
#
#
#
# Elastic Compliance Matrix: (Units=1/GPa)
#
#
# Indices 1 2 3 4 5 6 
#
# 1 0.010040 -0.007793 -0.011357 0.000000 0.000000 0.000000
# 2 -0.007793 0.022159 0.004661 0.000000 0.000000 0.000000
# 3 -0.011357 0.004661 0.035774 0.000000 0.000000 0.000000
# 4 0.000000 0.000000 0.000000 0.065631 0.000000 0.000000
# 5 0.000000 0.000000 0.000000 0.000000 0.025245 0.000000
# 6 0.000000 0.000000 0.000000 0.000000 0.000000 0.028684
#
#
# Mechanical properties :
#
#
# Convention : Reuss Voigt Hill
#
# Bulk Modulus (GPa) = 25.64463 66.90597 46.27530
# Shear Modulus (GPa) = 21.78540 30.76589 26.27564
#
# Velocity S-wave (km/s) = 3.24113 3.85166 3.55951
# Velocity P-wave (km/s) = 5.13540 7.21404 6.26158
#
# Compressibility (1/GPa) = 0.03899452
#
# Stress axis : x y z
#
# Youngs Moduli (GPa) = 99.59853 45.12828 27.95322
#
# Poissons Ratio (x) = 0.35168 0.31747
# Poissons Ratio (y) = 0.77617 -0.13028
# Poissons Ratio (z) = 1.13117 -0.21033
#
# Static dielectric constant tensor:
#      x y z
#    x 1.788250 0.000000 0.000000 
#    y 0.000000 1.806050 0.000000 
#    z 0.000000 0.000000 1.802090 
# 
# From -- ./inp_files/37295.got.cif
#   From: 2010.05.17/outbox.cif.g08.bks.cpg/sg70_19_cif.got.tgz:37295.got - 2010.06.03 15:57:51.
