data_PCOD9515219
_publ_section_title
;
Structure prediction by ZEFSAII (Michael W. Deem and Ramdas Pophale) SiO2 
 PCOD9515219
Probable space group: F D D D
;
_chemical_formula_sum "Si O2"
_cell_formula_units_Z 176
_cell_length_a 16.630798
_cell_length_b 16.669472
_cell_length_c 28.330835
_cell_angle_alpha 90.000000
_cell_angle_beta 90.000000
_cell_angle_gamma 90.000000
_cell_volume 7854.061674
_symmetry_space_group_name_H-M "F D D D"
_symmetry_group_IT_number 70
_space_group.IT_coordinate_system_code '2'
_symmetry_cell_setting 'orthorhombic'
loop_
_space_group_symop_operation_xyz
x,y,z
1/4-x,1/4-y,z
x,1/4-y,1/4-z
1/4-x,y,1/4-z
-x,-y,-z
3/4+x,3/4+y,-z
-x,3/4+y,3/4+z
3/4+x,-y,3/4+z
x,1/2+y,1/2+z
1/4-x,3/4-y,1/2+z
x,3/4-y,3/4-z
1/4-x,1/2+y,3/4-z
-x,1/2-y,1/2-z
3/4+x,1/4+y,1/2-z
-x,1/4+y,1/4+z
3/4+x,1/2-y,1/4+z
1/2+x,y,1/2+z
3/4-x,1/4-y,1/2+z
1/2+x,1/4-y,3/4-z
3/4-x,y,3/4-z
1/2-x,-y,1/2-z
1/4+x,3/4+y,1/2-z
1/2-x,3/4+y,1/4+z
1/4+x,-y,1/4+z
1/2+x,1/2+y,z
3/4-x,3/4-y,z
1/2+x,3/4-y,1/4-z
3/4-x,1/2+y,1/4-z
1/2-x,1/2-y,-z
1/4+x,1/4+y,-z
1/2-x,1/4+y,3/4+z
1/4+x,1/2-y,3/4+z
loop_
_atom_site_type_symbol
_atom_site_label
_atom_site_fract_x
_atom_site_fract_y
_atom_site_fract_z
Si Si1 0.149641 0.765882 0.175320
Si Si2 0.125000 0.125000 0.213458
Si Si3 0.934294 0.240652 0.534247
Si Si4 0.762659 0.131833 0.955869
Si Si5 0.045675 0.898776 0.928060
Si Si6 0.880878 0.988454 0.217344
O O1 0.125000 0.728785 0.125000
O O2 0.246017 0.770381 0.180440
O O3 0.129891 0.724138 0.225801
O O4 0.095179 0.846949 0.179366
O O5 0.165168 0.193318 0.245197
O O6 0.200852 0.090024 0.185322
O O7 0.850211 0.223961 0.559249
O O8 0.963216 0.160198 0.505839
O O9 0.695548 0.067454 0.940261
O O10 0.709316 0.213398 0.953945
O O11 0.061385 0.875000 0.875000
O O12 0.082911 0.825772 0.958654
#
# Coordination Sequence:
#
# PCOD9515219 Si02
#       6
#    32  16  32  32  32  32
#     4  11  23  40  67 105 132 174 227 279 348 419
#     4  12  23  52  68  98 138 194 242 284 349 410
#     4  11  24  45  71  97 141 184 221 296 355 413
#     4  10  20  43  69  91 134 183 219 276 355 418
#     4  12  26  44  71 102 137 181 240 290 351 414
#     4  10  22  43  67  95 136 181 221 284 351 409
#
# _framework density 22.408787
#
# number of rings (size 3 to 8) (size 9 to 14) (size 15 to 20)
#    0.000    1.091    5.455    1.364    2.545    0.000 
#    6.545    6.364    0.000    0.000    0.000    0.000 
#    0.000    0.000    0.000    0.000    0.000    0.000 
#
# Total GULP energy -244944.532322 kJ/mol
# GULP energy per Si atom -5566.921189 kJ/mol
# Density = 2.235778 g / cm^3
# Si number density = 22.408787 Si / 1000 Ang^3
#
#
#
# Elastic Constant Matrix: (Units=GPa)
#
#
# Indices 1 2 3 4 5 6 
#
# 1 144.6316 31.4929 6.8642 0.0000 0.0000 0.0000
# 2 31.4929 35.5709 -0.9864 0.0000 0.0000 0.0000
# 3 6.8642 -0.9864 70.6274 0.0000 0.0000 0.0000
# 4 0.0000 0.0000 0.0000 -0.2999 0.0000 0.0000
# 5 0.0000 0.0000 0.0000 0.0000 34.9823 0.0000
# 6 0.0000 0.0000 0.0000 0.0000 0.0000 48.3507
#
#
#
# Elastic Compliance Matrix: (Units=1/GPa)
#
#
# Indices 1 2 3 4 5 6 
#
# 1 0.008628 -0.007665 -0.000946 0.000000 0.000000 0.000000
# 2 -0.007665 0.034933 0.001233 0.000000 0.000000 0.000000
# 3 -0.000946 0.001233 0.014268 0.000000 0.000000 0.000000
# 4 0.000000 0.000000 0.000000 -3.334999 0.000000 0.000000
# 5 0.000000 0.000000 0.000000 0.000000 0.028586 0.000000
# 6 0.000000 0.000000 0.000000 0.000000 0.000000 0.020682
#
#
# Mechanical properties :
#
#
# Convention : Reuss Voigt Hill
#
# Bulk Modulus (GPa) = 23.21602 36.17459 29.69531
# Shear Modulus (GPa) = -1.56309 30.83726 14.63708
#
# Velocity S-wave (km/s) = -0.83609 3.71364 2.55852
# Velocity P-wave (km/s) = 3.07419 5.87931 4.69132
#
# Compressibility (1/GPa) = 0.04307370
#
# Stress axis : x y z
#
# Youngs Moduli (GPa) = 115.90116 28.62587 70.08727
#
# Poissons Ratio (x) = 0.21942 0.06628
# Poissons Ratio (y) = 0.88840 -0.08641
# Poissons Ratio (z) = 0.10960 -0.03529
#
# Static dielectric constant tensor:
#      x y z
#    x 1.886590 0.000000 0.000000 
#    y 0.000000 1.814350 0.000000 
#    z 0.000000 0.000000 1.813880 
# 
# From -- ./inp_files/59477.got.cif
#   From: 2010.05.17/outbox.cif.g08.bks.cpg/sg70_30_cif.got.tgz:59477.got - 2010.06.03 15:57:51.
