data_PCOD9515837
_publ_section_title
;
Structure prediction by ZEFSAII (Michael W. Deem and Ramdas Pophale) SiO2 
 PCOD9515837
Probable space group: F D D D
;
_chemical_formula_sum "Si O2"
_cell_formula_units_Z 224
_cell_length_a 30.341338
_cell_length_b 22.132794
_cell_length_c 17.324334
_cell_angle_alpha 90.000000
_cell_angle_beta 90.000000
_cell_angle_gamma 90.000000
_cell_volume 11633.958717
_symmetry_space_group_name_H-M "F D D D"
_symmetry_group_IT_number 70
_space_group.IT_coordinate_system_code '2'
_symmetry_cell_setting 'orthorhombic'
loop_
_space_group_symop_operation_xyz
x,y,z
1/4-x,1/4-y,z
x,1/4-y,1/4-z
1/4-x,y,1/4-z
-x,-y,-z
3/4+x,3/4+y,-z
-x,3/4+y,3/4+z
3/4+x,-y,3/4+z
x,1/2+y,1/2+z
1/4-x,3/4-y,1/2+z
x,3/4-y,3/4-z
1/4-x,1/2+y,3/4-z
-x,1/2-y,1/2-z
3/4+x,1/4+y,1/2-z
-x,1/4+y,1/4+z
3/4+x,1/2-y,1/4+z
1/2+x,y,1/2+z
3/4-x,1/4-y,1/2+z
1/2+x,1/4-y,3/4-z
3/4-x,y,3/4-z
1/2-x,-y,1/2-z
1/4+x,3/4+y,1/2-z
1/2-x,3/4+y,1/4+z
1/4+x,-y,1/4+z
1/2+x,1/2+y,z
3/4-x,3/4-y,z
1/2+x,3/4-y,1/4-z
3/4-x,1/2+y,1/4-z
1/2-x,1/2-y,-z
1/4+x,1/4+y,-z
1/2-x,1/4+y,3/4+z
1/4+x,1/2-y,3/4+z
loop_
_atom_site_type_symbol
_atom_site_label
_atom_site_fract_x
_atom_site_fract_y
_atom_site_fract_z
Si Si1 0.522881 0.495140 0.176724
Si Si2 0.166321 0.313869 0.424960
Si Si3 0.375000 0.094327 0.375000
Si Si4 0.796843 0.801712 0.663431
Si Si5 0.683219 0.804439 0.865007
Si Si6 0.037974 0.855603 0.170230
Si Si7 0.625000 0.125000 0.465971
Si Si8 0.412181 0.497115 0.970400
O O1 0.542412 0.532786 0.247434
O O2 0.473303 0.519041 0.172062
O O3 0.523177 0.423508 0.192227
O O4 0.550491 0.504184 0.096612
O O5 0.171450 0.375000 0.375000
O O6 0.186144 0.256857 0.381105
O O7 0.113526 0.303172 0.429601
O O8 0.192412 0.322662 0.504755
O O9 0.418646 0.133224 0.381815
O O10 0.375615 0.046991 0.445513
O O11 0.751407 0.823885 0.625270
O O12 0.834335 0.852904 0.663685
O O13 0.694824 0.875000 0.875000
O O14 0.678410 0.772782 0.948412
O O15 0.641896 0.181334 0.516656
#
# Coordination Sequence:
#
# PCOD9515837 Si02
#       8
#    32  32  16  32  32  32  16  32
#     4  11  26  41  63 103 134 172 220 272 329 404
#     4  11  22  46  67  93 126 176 223 279 338 399
#     4  10  22  41  64 100 123 174 212 272 328 388
#     4  12  26  42  67  98 127 177 226 270 345 395
#     4  11  24  39  67  96 133 173 221 274 330 402
#     4  11  24  42  70  92 134 165 226 280 327 402
#     4  12  24  43  62  96 135 182 212 266 327 412
#     4  11  23  41  64  92 140 175 212 266 332 400
#
# _framework density 19.253979000000001
#
# number of rings (size 3 to 8) (size 9 to 14) (size 15 to 20)
#    0.000    0.857    2.857    5.143    8.000    2.000 
#    0.000    0.000    0.000    0.000    0.000    0.000 
#    0.000    0.000    0.000    0.000    0.000    0.000 
#
# Total GULP energy -312880.366388 kJ/mol
# GULP energy per Si atom -5587.149400 kJ/mol
# Density = 1.921016 g / cm^3
# Si number density = 19.253979 Si / 1000 Ang^3
#
#
#
# Elastic Constant Matrix: (Units=GPa)
#
#
# Indices 1 2 3 4 5 6 
#
# 1 150.5304 60.7625 49.3363 0.0000 0.0000 0.0000
# 2 60.7625 76.6621 36.9333 0.0000 0.0000 0.0000
# 3 49.3363 36.9333 87.9536 0.0000 0.0000 0.0000
# 4 0.0000 0.0000 0.0000 30.4722 0.0000 0.0000
# 5 0.0000 0.0000 0.0000 0.0000 38.3374 0.0000
# 6 0.0000 0.0000 0.0000 0.0000 0.0000 34.6052
#
#
#
# Elastic Compliance Matrix: (Units=1/GPa)
#
#
# Indices 1 2 3 4 5 6 
#
# 1 0.010348 -0.006777 -0.002959 0.000000 0.000000 0.000000
# 2 -0.006777 0.020790 -0.004929 0.000000 0.000000 0.000000
# 3 -0.002959 -0.004929 0.015099 0.000000 0.000000 0.000000
# 4 0.000000 0.000000 0.000000 0.032817 0.000000 0.000000
# 5 0.000000 0.000000 0.000000 0.000000 0.026084 0.000000
# 6 0.000000 0.000000 0.000000 0.000000 0.000000 0.028897
#
#
# Mechanical properties :
#
#
# Convention : Reuss Voigt Hill
#
# Bulk Modulus (GPa) = 59.14217 67.69003 63.41610
# Shear Modulus (GPa) = 29.58554 31.89056 30.73805
#
# Velocity S-wave (km/s) = 3.92419 4.07419 3.99990
# Velocity P-wave (km/s) = 7.16351 7.57395 7.37159
#
# Compressibility (1/GPa) = 0.01690841
#
# Stress axis : x y z
#
# Youngs Moduli (GPa) = 96.63279 48.10020 66.22826
#
# Poissons Ratio (x) = 0.32595 0.19598
# Poissons Ratio (y) = 0.65484 0.32643
# Poissons Ratio (z) = 0.28596 0.23708
#
# Static dielectric constant tensor:
#      x y z
#    x 1.754030 0.000000 0.000000 
#    y 0.000000 1.653480 0.000000 
#    z 0.000000 0.000000 1.734590 
# 
# From -- ./inp_files/39908.got.cif
#   From: 2010.05.17/outbox.cif.g08.bks.cpg/sg70_20_cif.got.tgz:39908.got - 2010.06.03 15:57:51.
