data_PCOD9515990
_publ_section_title
;
Structure prediction by ZEFSAII (Michael W. Deem and Ramdas Pophale) SiO2 
 PCOD9515990
Probable space group: F D D D
;
_chemical_formula_sum "Si O2"
_cell_formula_units_Z 120
_cell_length_a 17.982885
_cell_length_b 25.424375
_cell_length_c 11.299473
_cell_angle_alpha 90.000000
_cell_angle_beta 90.000000
_cell_angle_gamma 90.000000
_cell_volume 5166.159867
_symmetry_space_group_name_H-M "F D D D"
_symmetry_group_IT_number 70
_space_group.IT_coordinate_system_code '2'
_symmetry_cell_setting 'orthorhombic'
loop_
_space_group_symop_operation_xyz
x,y,z
1/4-x,1/4-y,z
x,1/4-y,1/4-z
1/4-x,y,1/4-z
-x,-y,-z
3/4+x,3/4+y,-z
-x,3/4+y,3/4+z
3/4+x,-y,3/4+z
x,1/2+y,1/2+z
1/4-x,3/4-y,1/2+z
x,3/4-y,3/4-z
1/4-x,1/2+y,3/4-z
-x,1/2-y,1/2-z
3/4+x,1/4+y,1/2-z
-x,1/4+y,1/4+z
3/4+x,1/2-y,1/4+z
1/2+x,y,1/2+z
3/4-x,1/4-y,1/2+z
1/2+x,1/4-y,3/4-z
3/4-x,y,3/4-z
1/2-x,-y,1/2-z
1/4+x,3/4+y,1/2-z
1/2-x,3/4+y,1/4+z
1/4+x,-y,1/4+z
1/2+x,1/2+y,z
3/4-x,3/4-y,z
1/2+x,3/4-y,1/4-z
3/4-x,1/2+y,1/4-z
1/2-x,1/2-y,-z
1/4+x,1/4+y,-z
1/2-x,1/4+y,3/4+z
1/4+x,1/2-y,3/4+z
loop_
_atom_site_type_symbol
_atom_site_label
_atom_site_fract_x
_atom_site_fract_y
_atom_site_fract_z
Si Si1 0.169037 0.230342 0.457528
Si Si2 0.306338 0.293134 0.048030
Si Si3 0.625000 0.125000 0.625000
Si Si4 0.258862 0.874976 0.737832
Si Si5 0.375000 0.063266 0.875000
O O1 0.250000 0.250000 0.500000
O O2 0.138596 0.230794 0.324820
O O3 0.175741 0.168870 0.489402
O O4 0.136640 0.271260 0.729979
O O5 0.278773 0.320973 0.170642
O O6 0.250000 0.250000 0.000000
O O7 0.322186 0.339444 0.956325
O O8 0.193991 0.900689 0.658273
O O9 0.233790 0.875000 0.875000
#
# Coordination Sequence:
#
# PCOD9515990 Si02
#       5
#    32  32   8  32  16
#     4  10  22  44  70 103 147 205 257 314 392 484
#     4  12  28  47  80 112 158 209 262 340 420 482
#     4  12  28  54  74 116 168 198 268 344 424 478
#     4  11  24  46  71 111 159 206 266 328 399 492
#     4  10  24  39  71 108 150 196 270 320 388 468
#
# _framework density 23.228083999999999
#
# number of rings (size 3 to 8) (size 9 to 14) (size 15 to 20)
#    0.000    1.067    2.667    1.600    3.733   10.667 
#    0.000    0.000    0.000    0.000    0.000    0.000 
#    0.000    0.000    0.000    0.000    0.000    0.000 
#
# Total GULP energy -167254.982603 kJ/mol
# GULP energy per Si atom -5575.166087 kJ/mol
# Density = 2.317522 g / cm^3
# Si number density = 23.228084 Si / 1000 Ang^3
#
#
#
# Elastic Constant Matrix: (Units=GPa)
#
#
# Indices 1 2 3 4 5 6 
#
# 1 114.2201 79.3679 61.2866 0.0000 0.0000 0.0000
# 2 79.3679 142.8140 54.4258 0.0000 0.0000 0.0000
# 3 61.2866 54.4258 108.7250 0.0000 0.0000 0.0000
# 4 0.0000 0.0000 0.0000 59.4936 0.0000 0.0000
# 5 0.0000 0.0000 0.0000 0.0000 45.1967 0.0000
# 6 0.0000 0.0000 0.0000 0.0000 0.0000 38.6972
#
#
#
# Elastic Compliance Matrix: (Units=1/GPa)
#
#
# Indices 1 2 3 4 5 6 
#
# 1 0.016903 -0.007121 -0.005963 0.000000 0.000000 0.000000
# 2 -0.007121 0.011653 -0.001819 0.000000 0.000000 0.000000
# 3 -0.005963 -0.001819 0.013470 0.000000 0.000000 0.000000
# 4 0.000000 0.000000 0.000000 0.016809 0.000000 0.000000
# 5 0.000000 0.000000 0.000000 0.000000 0.022126 0.000000
# 6 0.000000 0.000000 0.000000 0.000000 0.000000 0.025842
#
#
# Mechanical properties :
#
#
# Convention : Reuss Voigt Hill
#
# Bulk Modulus (GPa) = 81.84410 83.99107 82.91759
# Shear Modulus (GPa) = 35.54143 40.05608 37.79875
#
# Velocity S-wave (km/s) = 3.91590 4.15718 4.03834
# Velocity P-wave (km/s) = 7.46707 7.69939 7.58412
#
# Compressibility (1/GPa) = 0.01221835
#
# Stress axis : x y z
#
# Youngs Moduli (GPa) = 59.16131 85.81545 74.24168
#
# Poissons Ratio (x) = 0.61110 0.44272
# Poissons Ratio (y) = 0.42130 0.13506
# Poissons Ratio (z) = 0.35279 0.15611
#
# Static dielectric constant tensor:
#      x y z
#    x 1.950390 0.000000 0.000000 
#    y 0.000000 1.948990 0.000000 
#    z 0.000000 0.000000 1.903170 
# 
# From -- ./inp_files/17388.got.cif
#   From: 2010.05.17/outbox.cif.g08.bks.cpg/sg70_9_cif.got.tgz:17388.got - 2010.06.03 15:57:51.
