data_PCOD9515842
_publ_section_title
;
Structure prediction by ZEFSAII (Michael W. Deem and Ramdas Pophale) SiO2 
 PCOD9515842
Probable space group: F D D D
;
_chemical_formula_sum "Si O2"
_cell_formula_units_Z 168
_cell_length_a 13.358743
_cell_length_b 22.050029
_cell_length_c 22.091842
_cell_angle_alpha 90.000000
_cell_angle_beta 90.000000
_cell_angle_gamma 90.000000
_cell_volume 6507.387793
_symmetry_space_group_name_H-M "F D D D"
_symmetry_group_IT_number 70
_space_group.IT_coordinate_system_code '2'
_symmetry_cell_setting 'orthorhombic'
loop_
_space_group_symop_operation_xyz
x,y,z
1/4-x,1/4-y,z
x,1/4-y,1/4-z
1/4-x,y,1/4-z
-x,-y,-z
3/4+x,3/4+y,-z
-x,3/4+y,3/4+z
3/4+x,-y,3/4+z
x,1/2+y,1/2+z
1/4-x,3/4-y,1/2+z
x,3/4-y,3/4-z
1/4-x,1/2+y,3/4-z
-x,1/2-y,1/2-z
3/4+x,1/4+y,1/2-z
-x,1/4+y,1/4+z
3/4+x,1/2-y,1/4+z
1/2+x,y,1/2+z
3/4-x,1/4-y,1/2+z
1/2+x,1/4-y,3/4-z
3/4-x,y,3/4-z
1/2-x,-y,1/2-z
1/4+x,3/4+y,1/2-z
1/2-x,3/4+y,1/4+z
1/4+x,-y,1/4+z
1/2+x,1/2+y,z
3/4-x,3/4-y,z
1/2+x,3/4-y,1/4-z
3/4-x,1/2+y,1/4-z
1/2-x,1/2-y,-z
1/4+x,1/4+y,-z
1/2-x,1/4+y,3/4+z
1/4+x,1/2-y,3/4+z
loop_
_atom_site_type_symbol
_atom_site_label
_atom_site_fract_x
_atom_site_fract_y
_atom_site_fract_z
Si Si1 0.310803 0.715334 0.066134
Si Si2 0.583905 0.934202 0.542975
Si Si3 0.240329 0.676429 0.734522
Si Si4 0.375000 0.375000 0.875000
Si Si5 0.118548 0.738013 0.816938
Si Si6 0.235096 0.150192 0.460728
O O1 0.413708 0.718451 0.027385
O O2 0.344035 0.712932 0.135628
O O3 0.257763 0.780717 0.062542
O O4 0.250728 0.661824 0.033269
O O5 0.530640 0.892707 0.492500
O O6 0.492501 0.963623 0.580285
O O7 0.676980 0.893205 0.563741
O O8 0.626828 0.988589 0.502380
O O9 0.183273 0.668610 0.671217
O O10 0.195484 0.684016 0.802771
O O11 0.125000 0.125000 0.447796
#
# Coordination Sequence:
#
# PCOD9515842 Si02
#       6
#    32  32  32   8  32  32
#     4  10  24  43  68  93 138 178 223 286 336 398
#     4  10  22  41  64  94 134 164 220 276 327 407
#     4  11  22  40  63  97 130 170 217 276 343 397
#     4  12  20  36  68  96 134 172 208 288 342 400
#     4  11  22  42  66 101 131 166 224 282 339 402
#     4  10  22  46  66  95 136 188 231 268 336 417
#
# _framework density 25.816811000000001
#
# number of rings (size 3 to 8) (size 9 to 14) (size 15 to 20)
#    0.000    1.524    1.905    2.286    2.667    3.810 
#    0.000   23.810    0.000    0.000    0.000    0.000 
#    0.000    0.000    0.000    0.000    0.000    0.000 
#
# Total GULP energy -234252.715661 kJ/mol
# GULP energy per Si atom -5577.445611 kJ/mol
# Density = 2.575805 g / cm^3
# Si number density = 25.816811 Si / 1000 Ang^3
#
#
#
# Elastic Constant Matrix: (Units=GPa)
#
#
# Indices 1 2 3 4 5 6 
#
# 1 99.6358 -3.2708 23.4725 0.0000 0.0000 0.0000
# 2 -3.2708 27.7546 6.0341 0.0000 0.0000 0.0000
# 3 23.4725 6.0341 103.3009 0.0000 0.0000 0.0000
# 4 0.0000 0.0000 0.0000 65.1730 0.0000 0.0000
# 5 0.0000 0.0000 0.0000 0.0000 28.6709 0.0000
# 6 0.0000 0.0000 0.0000 0.0000 0.0000 39.4319
#
#
#
# Elastic Compliance Matrix: (Units=1/GPa)
#
#
# Indices 1 2 3 4 5 6 
#
# 1 0.010693 0.001811 -0.002536 0.000000 0.000000 0.000000
# 2 0.001811 0.036800 -0.002561 0.000000 0.000000 0.000000
# 3 -0.002536 -0.002561 0.010406 0.000000 0.000000 0.000000
# 4 0.000000 0.000000 0.000000 0.015344 0.000000 0.000000
# 5 0.000000 0.000000 0.000000 0.000000 0.034879 0.000000
# 6 0.000000 0.000000 0.000000 0.000000 0.000000 0.025360
#
#
# Mechanical properties :
#
#
# Convention : Reuss Voigt Hill
#
# Bulk Modulus (GPa) = 19.48210 31.46255 25.47232
# Shear Modulus (GPa) = 31.81413 40.28554 36.04984
#
# Velocity S-wave (km/s) = 3.51423 3.95452 3.74086
# Velocity P-wave (km/s) = 4.90194 5.75016 5.34291
#
# Compressibility (1/GPa) = 0.05132917
#
# Stress axis : x y z
#
# Youngs Moduli (GPa) = 93.51594 27.17366 96.09640
#
# Poissons Ratio (x) = -0.04922 0.24366
# Poissons Ratio (y) = -0.16940 0.24612
# Poissons Ratio (z) = 0.23712 0.06960
#
# Static dielectric constant tensor:
#      x y z
#    x 2.118340 0.000000 0.000000 
#    y 0.000000 2.028590 0.000000 
#    z 0.000000 0.000000 2.163500 
# 
# From -- ./inp_files/51209.got.cif
#   From: 2010.05.17/outbox.cif.g08.bks.cpg/sg70_26_cif.got.tgz:51209.got - 2010.06.03 15:57:51.
