data_PCOD9515666
_publ_section_title
;
Structure prediction by ZEFSAII (Michael W. Deem and Ramdas Pophale) SiO2 
 PCOD9515666
Probable space group: F D D D
;
_chemical_formula_sum "Si O2"
_cell_formula_units_Z 136
_cell_length_a 11.582236
_cell_length_b 25.652633
_cell_length_c 18.577971
_cell_angle_alpha 90.000000
_cell_angle_beta 90.000000
_cell_angle_gamma 90.000000
_cell_volume 5519.791056
_symmetry_space_group_name_H-M "F D D D"
_symmetry_group_IT_number 70
_space_group.IT_coordinate_system_code '2'
_symmetry_cell_setting 'orthorhombic'
loop_
_space_group_symop_operation_xyz
x,y,z
1/4-x,1/4-y,z
x,1/4-y,1/4-z
1/4-x,y,1/4-z
-x,-y,-z
3/4+x,3/4+y,-z
-x,3/4+y,3/4+z
3/4+x,-y,3/4+z
x,1/2+y,1/2+z
1/4-x,3/4-y,1/2+z
x,3/4-y,3/4-z
1/4-x,1/2+y,3/4-z
-x,1/2-y,1/2-z
3/4+x,1/4+y,1/2-z
-x,1/4+y,1/4+z
3/4+x,1/2-y,1/4+z
1/2+x,y,1/2+z
3/4-x,1/4-y,1/2+z
1/2+x,1/4-y,3/4-z
3/4-x,y,3/4-z
1/2-x,-y,1/2-z
1/4+x,3/4+y,1/2-z
1/2-x,3/4+y,1/4+z
1/4+x,-y,1/4+z
1/2+x,1/2+y,z
3/4-x,3/4-y,z
1/2+x,3/4-y,1/4-z
3/4-x,1/2+y,1/4-z
1/2-x,1/2-y,-z
1/4+x,1/4+y,-z
1/2-x,1/4+y,3/4+z
1/4+x,1/2-y,3/4+z
loop_
_atom_site_type_symbol
_atom_site_label
_atom_site_fract_x
_atom_site_fract_y
_atom_site_fract_z
Si Si1 0.097211 0.681157 0.739309
Si Si2 0.648371 0.296546 0.705412
Si Si3 0.759119 0.705153 0.365992
Si Si4 0.132574 0.206373 0.515539
Si Si5 0.375000 0.375000 0.375000
O O1 0.125000 0.625000 0.707291
O O2 0.150811 0.732911 0.704205
O O3 0.156405 0.682177 0.818685
O O4 0.960168 0.688919 0.745102
O O5 0.625000 0.311927 0.625000
O O6 0.768115 0.319945 0.731724
O O7 0.816970 0.749808 0.314237
O O8 0.707233 0.720841 0.444352
O O9 0.875000 0.671002 0.375000
O O10 0.189456 0.165373 0.571171
#
# Coordination Sequence:
#
# PCOD9515666 Si02
#       5
#    32  32  32  32   8
#     4  10  23  40  64 104 134 185 241 292 362 444
#     4  10  21  45  69  92 144 185 232 302 364 431
#     4  11  23  43  71  97 144 188 236 295 369 434
#     4  11  25  45  70 103 139 187 236 301 363 431
#     4  12  28  44  68 108 138 172 246 296 360 430
#
# _framework density 24.638614
#
# number of rings (size 3 to 8) (size 9 to 14) (size 15 to 20)
#    0.000    1.412    3.529    0.706    1.647    3.294 
#    4.235    0.000    0.000    0.000    0.000    0.000 
#    0.000    0.000    0.000    0.000    0.000    0.000 
#
# Total GULP energy -189435.685804 kJ/mol
# GULP energy per Si atom -5571.637818 kJ/mol
# Density = 2.458254 g / cm^3
# Si number density = 24.638614 Si / 1000 Ang^3
#
#
#
# Elastic Constant Matrix: (Units=GPa)
#
#
# Indices 1 2 3 4 5 6 
#
# 1 108.9080 1.2222 38.8285 0.0000 0.0000 0.0000
# 2 1.2222 151.6282 47.2283 0.0000 0.0000 0.0000
# 3 38.8285 47.2283 158.6288 0.0000 0.0000 0.0000
# 4 0.0000 0.0000 0.0000 623.9685 0.0000 0.0000
# 5 0.0000 0.0000 0.0000 0.0000 21.8418 0.0000
# 6 0.0000 0.0000 0.0000 0.0000 0.0000 6.0278
#
#
#
# Elastic Compliance Matrix: (Units=1/GPa)
#
#
# Indices 1 2 3 4 5 6 
#
# 1 0.010139 0.000762 -0.002709 0.000000 0.000000 0.000000
# 2 0.000762 0.007326 -0.002368 0.000000 0.000000 0.000000
# 3 -0.002709 -0.002368 0.007672 0.000000 0.000000 0.000000
# 4 0.000000 0.000000 0.000000 0.001603 0.000000 0.000000
# 5 0.000000 0.000000 0.000000 0.000000 0.045784 0.000000
# 6 0.000000 0.000000 0.000000 0.000000 0.000000 0.165899
#
#
# Mechanical properties :
#
#
# Convention : Reuss Voigt Hill
#
# Bulk Modulus (GPa) = 60.57444 65.96923 63.27183
# Shear Modulus (GPa) = 19.79769 152.49333 86.14551
#
# Velocity S-wave (km/s) = 2.83772 7.87568 5.91942
# Velocity P-wave (km/s) = 5.94773 10.46588 8.51205
#
# Compressibility (1/GPa) = 0.01650861
#
# Stress axis : x y z
#
# Youngs Moduli (GPa) = 98.62682 136.49180 130.34388
#
# Poissons Ratio (x) = -0.10400 0.35306
# Poissons Ratio (y) = -0.07515 0.30863
# Poissons Ratio (z) = 0.26715 0.32319
#
# Static dielectric constant tensor:
#      x y z
#    x 2.086810 0.000000 0.000000 
#    y 0.000000 2.093560 0.000000 
#    z 0.000000 0.000000 2.078320 
# 
# From -- ./inp_files/41986.got.cif
#   From: 2010.05.17/outbox.cif.g08.bks.cpg/sg70_21_cif.got.tgz:41986.got - 2010.06.03 15:57:51.
