data_PCOD9515870
_publ_section_title
;
Structure prediction by ZEFSAII (Michael W. Deem and Ramdas Pophale) SiO2 
 PCOD9515870
Probable space group: F D D D
;
_chemical_formula_sum "Si O2"
_cell_formula_units_Z 208
_cell_length_a 17.413175
_cell_length_b 19.495559
_cell_length_c 25.361765
_cell_angle_alpha 90.000000
_cell_angle_beta 90.000000
_cell_angle_gamma 90.000000
_cell_volume 8609.801345
_symmetry_space_group_name_H-M "F D D D"
_symmetry_group_IT_number 70
_space_group.IT_coordinate_system_code '2'
_symmetry_cell_setting 'orthorhombic'
loop_
_space_group_symop_operation_xyz
x,y,z
1/4-x,1/4-y,z
x,1/4-y,1/4-z
1/4-x,y,1/4-z
-x,-y,-z
3/4+x,3/4+y,-z
-x,3/4+y,3/4+z
3/4+x,-y,3/4+z
x,1/2+y,1/2+z
1/4-x,3/4-y,1/2+z
x,3/4-y,3/4-z
1/4-x,1/2+y,3/4-z
-x,1/2-y,1/2-z
3/4+x,1/4+y,1/2-z
-x,1/4+y,1/4+z
3/4+x,1/2-y,1/4+z
1/2+x,y,1/2+z
3/4-x,1/4-y,1/2+z
1/2+x,1/4-y,3/4-z
3/4-x,y,3/4-z
1/2-x,-y,1/2-z
1/4+x,3/4+y,1/2-z
1/2-x,3/4+y,1/4+z
1/4+x,-y,1/4+z
1/2+x,1/2+y,z
3/4-x,3/4-y,z
1/2+x,3/4-y,1/4-z
3/4-x,1/2+y,1/4-z
1/2-x,1/2-y,-z
1/4+x,1/4+y,-z
1/2-x,1/4+y,3/4+z
1/4+x,1/2-y,3/4+z
loop_
_atom_site_type_symbol
_atom_site_label
_atom_site_fract_x
_atom_site_fract_y
_atom_site_fract_z
Si Si1 0.610960 0.783987 0.406733
Si Si2 0.433990 0.931216 0.501584
Si Si3 0.794896 0.264704 0.391402
Si Si4 0.202779 0.016078 0.923535
Si Si5 0.926720 0.076978 0.269860
Si Si6 0.280692 0.116520 0.836696
Si Si7 0.375000 0.375000 0.558693
O O1 0.529760 0.800904 0.380986
O O2 0.677803 0.795428 0.364241
O O3 0.613246 0.817289 0.463590
O O4 0.613077 0.700277 0.414016
O O5 0.375000 0.875000 0.477988
O O6 0.544064 0.017242 0.545260
O O7 0.377760 0.961224 0.547791
O O8 0.508487 0.886240 0.516661
O O9 0.875000 0.296081 0.375000
O O10 0.793847 0.190686 0.362629
O O11 0.269461 0.010640 0.967130
O O12 0.244562 0.070865 0.884080
O O13 0.859455 0.090238 0.311652
O O14 0.213847 0.115770 0.791496
#
# Coordination Sequence:
#
# PCOD9515870 Si02
#       7
#    32  32  32  32  32  32  16
#     4  10  23  40  65  91 137 175 222 282 329 391
#     4  10  24  40  61  92 145 178 219 271 340 396
#     4  11  22  38  63  95 129 183 224 271 332 410
#     4  10  22  42  61  94 138 179 214 282 330 388
#     4  11  23  41  65 103 126 181 234 268 331 410
#     4  10  22  41  69  95 129 170 232 273 325 406
#     4   8  20  40  62  92 121 166 211 274 332 378
#
# _framework density 24.158512000000002
#
# number of rings (size 3 to 8) (size 9 to 14) (size 15 to 20)
#    0.000    1.846    0.000    3.231   21.538    5.231 
#    5.538    0.000    0.000    0.000    0.000    1.077 
#    0.000    0.000    0.000    0.000    0.000    0.000 
#
# Total GULP energy -289678.507647 kJ/mol
# GULP energy per Si atom -5570.740532 kJ/mol
# Density = 2.410353 g / cm^3
# Si number density = 24.158512 Si / 1000 Ang^3
#
#
#
# Elastic Constant Matrix: (Units=GPa)
#
#
# Indices 1 2 3 4 5 6 
#
# 1 182.5789 38.4626 59.2874 0.0000 0.0000 0.0000
# 2 38.4626 78.9494 34.9168 0.0000 0.0000 0.0000
# 3 59.2874 34.9168 160.5299 0.0000 0.0000 0.0000
# 4 0.0000 0.0000 0.0000 20.8510 0.0000 0.0000
# 5 0.0000 0.0000 0.0000 0.0000 35.3573 0.0000
# 6 0.0000 0.0000 0.0000 0.0000 0.0000 -20.8028
#
#
#
# Elastic Compliance Matrix: (Units=1/GPa)
#
#
# Indices 1 2 3 4 5 6 
#
# 1 0.006600 -0.002365 -0.001923 0.000000 0.000000 0.000000
# 2 -0.002365 0.014862 -0.002359 0.000000 0.000000 0.000000
# 3 -0.001923 -0.002359 0.007453 0.000000 0.000000 0.000000
# 4 0.000000 0.000000 0.000000 0.047959 0.000000 0.000000
# 5 0.000000 0.000000 0.000000 0.000000 0.028283 0.000000
# 6 0.000000 0.000000 0.000000 0.000000 0.000000 -0.048070
#
#
# Mechanical properties :
#
#
# Convention : Reuss Voigt Hill
#
# Bulk Modulus (GPa) = 64.01969 76.37688 70.19828
# Shear Modulus (GPa) = 66.14914 26.37384 46.26149
#
# Velocity S-wave (km/s) = 5.23839 3.30767 4.38072
# Velocity P-wave (km/s) = 7.94638 6.80229 7.39649
#
# Compressibility (1/GPa) = 0.01562019
#
# Stress axis : x y z
#
# Youngs Moduli (GPa) = 151.52178 67.28651 134.17843
#
# Poissons Ratio (x) = 0.15911 0.25803
# Poissons Ratio (y) = 0.35831 0.31656
# Poissons Ratio (z) = 0.29139 0.15874
#
# Static dielectric constant tensor:
#      x y z
#    x 1.994330 0.000000 0.000000 
#    y 0.000000 1.994430 0.000000 
#    z 0.000000 0.000000 2.036780 
# 
# From -- ./inp_files/59793.got.cif
#   From: 2010.05.17/outbox.cif.g08.bks.cpg/sg70_30_cif.got.tgz:59793.got - 2010.06.03 15:57:51.
