data_PCOD9515444
_publ_section_title
;
Structure prediction by ZEFSAII (Michael W. Deem and Ramdas Pophale) SiO2 
 PCOD9515444
Probable space group: F D D D
;
_chemical_formula_sum "Si O2"
_cell_formula_units_Z 208
_cell_length_a 23.662563
_cell_length_b 27.174270
_cell_length_c 15.980272
_cell_angle_alpha 90.000000
_cell_angle_beta 90.000000
_cell_angle_gamma 90.000000
_cell_volume 10275.520656
_symmetry_space_group_name_H-M "F D D D"
_symmetry_group_IT_number 70
_space_group.IT_coordinate_system_code '2'
_symmetry_cell_setting 'orthorhombic'
loop_
_space_group_symop_operation_xyz
x,y,z
1/4-x,1/4-y,z
x,1/4-y,1/4-z
1/4-x,y,1/4-z
-x,-y,-z
3/4+x,3/4+y,-z
-x,3/4+y,3/4+z
3/4+x,-y,3/4+z
x,1/2+y,1/2+z
1/4-x,3/4-y,1/2+z
x,3/4-y,3/4-z
1/4-x,1/2+y,3/4-z
-x,1/2-y,1/2-z
3/4+x,1/4+y,1/2-z
-x,1/4+y,1/4+z
3/4+x,1/2-y,1/4+z
1/2+x,y,1/2+z
3/4-x,1/4-y,1/2+z
1/2+x,1/4-y,3/4-z
3/4-x,y,3/4-z
1/2-x,-y,1/2-z
1/4+x,3/4+y,1/2-z
1/2-x,3/4+y,1/4+z
1/4+x,-y,1/4+z
1/2+x,1/2+y,z
3/4-x,3/4-y,z
1/2+x,3/4-y,1/4-z
3/4-x,1/2+y,1/4-z
1/2-x,1/2-y,-z
1/4+x,1/4+y,-z
1/2-x,1/4+y,3/4+z
1/4+x,1/2-y,3/4+z
loop_
_atom_site_type_symbol
_atom_site_label
_atom_site_fract_x
_atom_site_fract_y
_atom_site_fract_z
Si Si1 0.577190 0.658915 0.403578
Si Si2 0.372856 0.172288 0.517034
Si Si3 0.024996 0.783748 0.661146
Si Si4 0.025661 0.931574 0.898054
Si Si5 0.625000 0.903735 0.625000
Si Si6 0.506605 0.098811 0.039626
Si Si7 0.398813 0.469483 0.462598
O O1 0.625000 0.625000 0.360433
O O2 0.537049 0.692333 0.348067
O O3 0.533952 0.627490 0.461225
O O4 0.614155 0.692317 0.465258
O O5 0.417574 0.181662 0.591075
O O6 0.393383 0.132191 0.450213
O O7 0.310544 0.154517 0.542011
O O8 0.362743 0.223545 0.471432
O O9 0.040821 0.799550 0.756937
O O10 0.071883 0.811316 0.605512
O O11 0.018211 0.726858 0.631191
O O12 0.004545 0.875000 0.875000
O O13 0.525007 0.125000 0.125000
O O14 0.536086 0.045788 0.035153
O O15 0.375000 0.451286 0.375000
#
# Coordination Sequence:
#
# PCOD9515444 Si02
#       7
#    32  32  32  32  16  32  32
#     4  10  21  39  65  94 136 181 220 267 338 412
#     4  12  23  39  64  97 131 173 223 283 337 412
#     4  11  24  45  68  99 136 183 230 291 346 420
#     4  11  24  45  70  93 130 182 231 289 355 404
#     4  12  24  40  69 100 129 172 234 286 356 412
#     4  11  22  35  60  95 133 168 214 259 329 413
#     4  11  21  37  59  96 134 177 209 267 341 413
#
# _framework density 20.242283
#
# number of rings (size 3 to 8) (size 9 to 14) (size 15 to 20)
#    0.000    0.923    6.923    0.923    0.000    0.000 
#    0.000    3.462    0.000    0.000    0.000    0.000 
#    0.000    0.000    0.000    0.000    0.000    0.000 
#
# Total GULP energy -289540.450876 kJ/mol
# GULP energy per Si atom -5568.085594 kJ/mol
# Density = 2.019621 g / cm^3
# Si number density = 20.242283 Si / 1000 Ang^3
#
#
#
# Elastic Constant Matrix: (Units=GPa)
#
#
# Indices 1 2 3 4 5 6 
#
# 1 81.9706 58.1001 25.3762 0.0000 0.0000 0.0000
# 2 58.1001 152.1577 24.6571 0.0000 0.0000 0.0000
# 3 25.3762 24.6571 65.3389 0.0000 0.0000 0.0000
# 4 0.0000 0.0000 0.0000 23.6863 0.0000 0.0000
# 5 0.0000 0.0000 0.0000 0.0000 -4.3076 0.0000
# 6 0.0000 0.0000 0.0000 0.0000 0.0000 39.4852
#
#
#
# Elastic Compliance Matrix: (Units=1/GPa)
#
#
# Indices 1 2 3 4 5 6 
#
# 1 0.017975 -0.006106 -0.004677 0.000000 0.000000 0.000000
# 2 -0.006106 0.009074 -0.001053 0.000000 0.000000 0.000000
# 3 -0.004677 -0.001053 0.017519 0.000000 0.000000 0.000000
# 4 0.000000 0.000000 0.000000 0.042218 0.000000 0.000000
# 5 0.000000 0.000000 0.000000 0.000000 -0.232148 0.000000
# 6 0.000000 0.000000 0.000000 0.000000 0.000000 0.025326
#
#
# Mechanical properties :
#
#
# Convention : Reuss Voigt Hill
#
# Bulk Modulus (GPa) = 47.85508 57.30380 52.57944
# Shear Modulus (GPa) = -55.92917 24.52837 -15.70040
#
# Velocity S-wave (km/s) = -5.26212 3.48478 -2.78802
# Velocity P-wave (km/s) = 3.63694 6.67548 3.95820
#
# Compressibility (1/GPa) = 0.02089642
#
# Stress axis : x y z
#
# Youngs Moduli (GPa) = 55.63256 110.20266 57.08209
#
# Poissons Ratio (x) = 0.67287 0.26697
# Poissons Ratio (y) = 0.33968 0.06011
# Poissons Ratio (z) = 0.26019 0.11605
#
# Static dielectric constant tensor:
#      x y z
#    x 1.753300 0.000000 0.000000 
#    y 0.000000 1.783850 0.000000 
#    z 0.000000 0.000000 1.753790 
# 
# From -- ./inp_files/37728.got.cif
#   From: 2010.05.17/outbox.cif.g08.bks.cpg/sg70_19_cif.got.tgz:37728.got - 2010.06.03 15:57:51.
