data_PCOD9515961
_publ_section_title
;
Structure prediction by ZEFSAII (Michael W. Deem and Ramdas Pophale) SiO2 
 PCOD9515961
Probable space group: F D D D
;
_chemical_formula_sum "Si O2"
_cell_formula_units_Z 176
_cell_length_a 29.949317
_cell_length_b 12.263547
_cell_length_c 21.012336
_cell_angle_alpha 90.000000
_cell_angle_beta 90.000000
_cell_angle_gamma 90.000000
_cell_volume 7717.512816
_symmetry_space_group_name_H-M "F D D D"
_symmetry_group_IT_number 70
_space_group.IT_coordinate_system_code '2'
_symmetry_cell_setting 'orthorhombic'
loop_
_space_group_symop_operation_xyz
x,y,z
1/4-x,1/4-y,z
x,1/4-y,1/4-z
1/4-x,y,1/4-z
-x,-y,-z
3/4+x,3/4+y,-z
-x,3/4+y,3/4+z
3/4+x,-y,3/4+z
x,1/2+y,1/2+z
1/4-x,3/4-y,1/2+z
x,3/4-y,3/4-z
1/4-x,1/2+y,3/4-z
-x,1/2-y,1/2-z
3/4+x,1/4+y,1/2-z
-x,1/4+y,1/4+z
3/4+x,1/2-y,1/4+z
1/2+x,y,1/2+z
3/4-x,1/4-y,1/2+z
1/2+x,1/4-y,3/4-z
3/4-x,y,3/4-z
1/2-x,-y,1/2-z
1/4+x,3/4+y,1/2-z
1/2-x,3/4+y,1/4+z
1/4+x,-y,1/4+z
1/2+x,1/2+y,z
3/4-x,3/4-y,z
1/2+x,3/4-y,1/4-z
3/4-x,1/2+y,1/4-z
1/2-x,1/2-y,-z
1/4+x,1/4+y,-z
1/2-x,1/4+y,3/4+z
1/4+x,1/2-y,3/4+z
loop_
_atom_site_type_symbol
_atom_site_label
_atom_site_fract_x
_atom_site_fract_y
_atom_site_fract_z
Si Si1 0.037361 0.541259 0.678731
Si Si2 0.875000 0.375000 0.502148
Si Si3 0.048620 0.251643 0.513239
Si Si4 0.185417 0.026831 0.789588
Si Si5 0.970715 0.704790 0.348514
Si Si6 0.142372 0.854260 0.441716
O O1 0.021627 0.625000 0.625000
O O2 0.082431 0.590985 0.709101
O O3 0.042455 0.422440 0.646809
O O4 0.000346 0.519310 0.733370
O O5 0.868027 0.270766 0.546974
O O6 0.073337 0.154769 0.474490
O O7 0.045145 0.234426 0.588281
O O8 0.077021 0.358558 0.499729
O O9 0.226253 0.028300 0.839317
O O10 0.201188 0.991253 0.719067
O O11 0.149509 0.937185 0.809484
O O12 0.166523 0.875000 0.375000
#
# Coordination Sequence:
#
# PCOD9515961 Si02
#       6
#    32  16  32  32  32  32
#     4  11  24  44  68 101 141 187 235 288 355 437
#     4  12  27  46  72  98 136 193 232 292 358 430
#     4  11  25  43  73 106 143 184 238 299 361 427
#     4  10  23  44  71 105 139 187 238 298 358 430
#     4  10  22  43  73 104 140 186 242 293 363 430
#     4  12  28  45  71 105 142 187 239 299 365 435
#
# _framework density 22.805275000000002
#
# number of rings (size 3 to 8) (size 9 to 14) (size 15 to 20)
#    0.000    1.091    1.818    3.000    5.091    5.091 
#    0.000    1.818    0.000    0.000    0.000    0.000 
#    0.000    0.000    0.000    0.000    0.000    0.000 
#
# Total GULP energy -245976.693462 kJ/mol
# GULP energy per Si atom -5590.379397 kJ/mol
# Density = 2.275337 g / cm^3
# Si number density = 22.805275 Si / 1000 Ang^3
#
#
#
# Elastic Constant Matrix: (Units=GPa)
#
#
# Indices 1 2 3 4 5 6 
#
# 1 90.5200 45.0103 21.3182 0.0000 0.0000 0.0000
# 2 45.0103 150.2529 30.7038 0.0000 0.0000 0.0000
# 3 21.3182 30.7038 108.7622 0.0000 0.0000 0.0000
# 4 0.0000 0.0000 0.0000 24.6780 0.0000 0.0000
# 5 0.0000 0.0000 0.0000 0.0000 19.3831 0.0000
# 6 0.0000 0.0000 0.0000 0.0000 0.0000 57.1825
#
#
#
# Elastic Compliance Matrix: (Units=1/GPa)
#
#
# Indices 1 2 3 4 5 6 
#
# 1 0.013227 -0.003643 -0.001564 0.000000 0.000000 0.000000
# 2 -0.003643 0.008066 -0.001563 0.000000 0.000000 0.000000
# 3 -0.001564 -0.001563 0.009942 0.000000 0.000000 0.000000
# 4 0.000000 0.000000 0.000000 0.040522 0.000000 0.000000
# 5 0.000000 0.000000 0.000000 0.000000 0.051591 0.000000
# 6 0.000000 0.000000 0.000000 0.000000 0.000000 0.017488
#
#
# Mechanical properties :
#
#
# Convention : Reuss Voigt Hill
#
# Bulk Modulus (GPa) = 56.51227 60.39997 58.45612
# Shear Modulus (GPa) = 31.19641 37.08223 34.13932
#
# Velocity S-wave (km/s) = 3.70259 4.03679 3.87330
# Velocity P-wave (km/s) = 6.56605 6.94767 6.75956
#
# Compressibility (1/GPa) = 0.01769527
#
# Stress axis : x y z
#
# Youngs Moduli (GPa) = 75.60311 123.97611 100.58099
#
# Poissons Ratio (x) = 0.45160 0.15733
# Poissons Ratio (y) = 0.27540 0.15722
# Poissons Ratio (z) = 0.11826 0.19378
#
# Static dielectric constant tensor:
#      x y z
#    x 1.857400 0.000000 0.000000 
#    y 0.000000 1.887400 0.000000 
#    z 0.000000 0.000000 1.809170 
# 
# From -- ./inp_files/54966.got.cif
#   From: 2010.05.17/outbox.cif.g08.bks.cpg/sg70_28_cif.got.tgz:54966.got - 2010.06.03 15:57:51.
