data_PCOD9515623
_publ_section_title
;
Structure prediction by ZEFSAII (Michael W. Deem and Ramdas Pophale) SiO2 
 PCOD9515623
Probable space group: F D D D
;
_chemical_formula_sum "Si O2"
_cell_formula_units_Z 160
_cell_length_a 21.687878
_cell_length_b 21.285067
_cell_length_c 14.327875
_cell_angle_alpha 90.000000
_cell_angle_beta 90.000000
_cell_angle_gamma 90.000000
_cell_volume 6614.147368
_symmetry_space_group_name_H-M "F D D D"
_symmetry_group_IT_number 70
_space_group.IT_coordinate_system_code '2'
_symmetry_cell_setting 'orthorhombic'
loop_
_space_group_symop_operation_xyz
x,y,z
1/4-x,1/4-y,z
x,1/4-y,1/4-z
1/4-x,y,1/4-z
-x,-y,-z
3/4+x,3/4+y,-z
-x,3/4+y,3/4+z
3/4+x,-y,3/4+z
x,1/2+y,1/2+z
1/4-x,3/4-y,1/2+z
x,3/4-y,3/4-z
1/4-x,1/2+y,3/4-z
-x,1/2-y,1/2-z
3/4+x,1/4+y,1/2-z
-x,1/4+y,1/4+z
3/4+x,1/2-y,1/4+z
1/2+x,y,1/2+z
3/4-x,1/4-y,1/2+z
1/2+x,1/4-y,3/4-z
3/4-x,y,3/4-z
1/2-x,-y,1/2-z
1/4+x,3/4+y,1/2-z
1/2-x,3/4+y,1/4+z
1/4+x,-y,1/4+z
1/2+x,1/2+y,z
3/4-x,3/4-y,z
1/2+x,3/4-y,1/4-z
3/4-x,1/2+y,1/4-z
1/2-x,1/2-y,-z
1/4+x,1/4+y,-z
1/2-x,1/4+y,3/4+z
1/4+x,1/2-y,3/4+z
loop_
_atom_site_type_symbol
_atom_site_label
_atom_site_fract_x
_atom_site_fract_y
_atom_site_fract_z
Si Si1 0.503683 0.817728 0.198704
Si Si2 0.581644 0.783606 0.809717
Si Si3 0.125000 0.529762 0.125000
Si Si4 0.977840 0.875000 0.375000
Si Si5 0.939524 0.625000 0.625000
Si Si6 0.622891 0.056551 0.801870
Si Si7 0.125000 0.966032 0.125000
O O1 0.500000 0.750000 0.250000
O O2 0.517898 0.864140 0.284679
O O3 0.438921 0.816591 0.146645
O O4 0.562416 0.822573 0.132761
O O5 0.596548 0.762020 0.706403
O O6 0.524926 0.831775 0.815647
O O7 0.642212 0.818063 0.853788
O O8 0.574576 0.721081 0.874300
O O9 0.070432 0.574106 0.165768
O O10 0.625000 0.125000 0.755518
O O11 0.621575 0.008189 0.716850
#
# Coordination Sequence:
#
# PCOD9515623 Si02
#       7
#    32  32  16  16  16  32  16
#     4  10  22  41  66  99 141 186 231 293 355 435
#     4  11  25  49  70 112 144 192 246 304 363 442
#     4  11  26  51  78 106 144 203 249 302 380 427
#     4  10  26  51  80 102 155 187 251 318 354 446
#     4  11  22  45  65 105 155 180 243 300 360 441
#     4  11  25  41  70 105 144 183 240 294 366 429
#     4  10  21  43  64 100 136 187 233 284 364 426
#
# _framework density 24.190570999999998
#
# number of rings (size 3 to 8) (size 9 to 14) (size 15 to 20)
#    0.000    1.400    4.000    0.900    8.400    4.000 
#    3.600    0.000    0.000    0.000    0.000    0.000 
#    0.000    0.000    0.000    0.000    0.000    0.000 
#
# Total GULP energy -223068.405279 kJ/mol
# GULP energy per Si atom -5576.710132 kJ/mol
# Density = 2.413551 g / cm^3
# Si number density = 24.190571 Si / 1000 Ang^3
#
#
#
# Elastic Constant Matrix: (Units=GPa)
#
#
# Indices 1 2 3 4 5 6 
#
# 1 131.6351 30.1338 43.4225 0.0000 0.0000 0.0000
# 2 30.1338 80.8380 40.8471 0.0000 0.0000 0.0000
# 3 43.4225 40.8471 123.6565 0.0000 0.0000 0.0000
# 4 0.0000 0.0000 0.0000 -6.5771 0.0000 0.0000
# 5 0.0000 0.0000 0.0000 0.0000 20.1162 0.0000
# 6 0.0000 0.0000 0.0000 0.0000 0.0000 -963.2889
#
#
#
# Elastic Compliance Matrix: (Units=1/GPa)
#
#
# Indices 1 2 3 4 5 6 
#
# 1 0.008874 -0.002081 -0.002429 0.000000 0.000000 0.000000
# 2 -0.002081 0.015337 -0.004335 0.000000 0.000000 0.000000
# 3 -0.002429 -0.004335 0.010372 0.000000 0.000000 0.000000
# 4 0.000000 0.000000 0.000000 -0.152043 0.000000 0.000000
# 5 0.000000 0.000000 0.000000 0.000000 0.049711 0.000000
# 6 0.000000 0.000000 0.000000 0.000000 0.000000 -0.001038
#
#
# Mechanical properties :
#
#
# Convention : Reuss Voigt Hill
#
# Bulk Modulus (GPa) = 59.19703 62.77073 60.98388
# Shear Modulus (GPa) = -109.97265 -175.16822 -142.57043
#
# Velocity S-wave (km/s) = -6.74979 -8.51874 -7.68533
# Velocity P-wave (km/s) = 6.01847 8.41153 7.31354
#
# Compressibility (1/GPa) = 0.01689274
#
# Stress axis : x y z
#
# Youngs Moduli (GPa) = 112.68481 65.20280 96.41356
#
# Poissons Ratio (x) = 0.13567 0.23418
# Poissons Ratio (y) = 0.23447 0.41800
# Poissons Ratio (z) = 0.27370 0.28269
#
# Static dielectric constant tensor:
#      x y z
#    x 2.019880 0.000000 0.000000 
#    y 0.000000 2.112300 0.000000 
#    z 0.000000 0.000000 1.873570 
# 
# From -- ./inp_files/36544.got.cif
#   From: 2010.05.17/outbox.cif.g08.bks.cpg/sg70_19_cif.got.tgz:36544.got - 2010.06.03 15:57:51.
