data_PCOD9515701
_publ_section_title
;
Structure prediction by ZEFSAII (Michael W. Deem and Ramdas Pophale) SiO2 
 PCOD9515701
Probable space group: F D D D
;
_chemical_formula_sum "Si O2"
_cell_formula_units_Z 208
_cell_length_a 29.248085
_cell_length_b 16.105782
_cell_length_c 20.783150
_cell_angle_alpha 90.000000
_cell_angle_beta 90.000000
_cell_angle_gamma 90.000000
_cell_volume 9790.178827
_symmetry_space_group_name_H-M "F D D D"
_symmetry_group_IT_number 70
_space_group.IT_coordinate_system_code '2'
_symmetry_cell_setting 'orthorhombic'
loop_
_space_group_symop_operation_xyz
x,y,z
1/4-x,1/4-y,z
x,1/4-y,1/4-z
1/4-x,y,1/4-z
-x,-y,-z
3/4+x,3/4+y,-z
-x,3/4+y,3/4+z
3/4+x,-y,3/4+z
x,1/2+y,1/2+z
1/4-x,3/4-y,1/2+z
x,3/4-y,3/4-z
1/4-x,1/2+y,3/4-z
-x,1/2-y,1/2-z
3/4+x,1/4+y,1/2-z
-x,1/4+y,1/4+z
3/4+x,1/2-y,1/4+z
1/2+x,y,1/2+z
3/4-x,1/4-y,1/2+z
1/2+x,1/4-y,3/4-z
3/4-x,y,3/4-z
1/2-x,-y,1/2-z
1/4+x,3/4+y,1/2-z
1/2-x,3/4+y,1/4+z
1/4+x,-y,1/4+z
1/2+x,1/2+y,z
3/4-x,3/4-y,z
1/2+x,3/4-y,1/4-z
3/4-x,1/2+y,1/4-z
1/2-x,1/2-y,-z
1/4+x,1/4+y,-z
1/2-x,1/4+y,3/4+z
1/4+x,1/2-y,3/4+z
loop_
_atom_site_type_symbol
_atom_site_label
_atom_site_fract_x
_atom_site_fract_y
_atom_site_fract_z
Si Si1 0.016223 0.283227 0.401197
Si Si2 0.972692 0.108098 0.386776
Si Si3 0.625000 0.625000 0.960774
Si Si4 0.813900 0.164004 0.020740
Si Si5 0.197233 0.241318 0.979559
Si Si6 0.582202 0.417871 0.732407
Si Si7 0.943323 0.994390 0.654511
O O1 0.001039 0.375000 0.375000
O O2 0.052148 0.253456 0.347145
O O3 0.044108 0.293422 0.468301
O O4 0.979320 0.208057 0.397269
O O5 0.966753 0.072260 0.458006
O O6 0.931599 0.074623 0.342098
O O7 0.016205 0.073236 0.347372
O O8 0.668333 0.661159 0.999084
O O9 0.646692 0.553549 0.917665
O O10 0.803975 0.215334 0.084503
O O11 0.806057 0.068388 0.043472
O O12 0.866001 0.186855 0.001257
O O13 0.250000 0.250000 0.000000
O O14 0.171836 0.319539 0.007889
#
# Coordination Sequence:
#
# PCOD9515701 Si02
#       7
#    32  32  16  32  32  32  32
#     4  10  22  36  64  91 128 168 213 258 322 393
#     4  12  23  43  63  94 131 173 208 267 339 389
#     4  12  20  38  70  97 123 168 222 268 322 396
#     4  11  25  42  65  93 128 167 217 273 323 384
#     4  11  20  37  61  95 128 165 211 265 321 389
#     4  11  22  40  62  93 129 166 208 263 329 392
#     4  11  24  42  67  95 122 169 226 267 315 397
#
# _framework density 21.245781999999998
#
# number of rings (size 3 to 8) (size 9 to 14) (size 15 to 20)
#    0.000    0.923    4.615    2.769    4.308    1.231 
#    0.000    0.000    0.000    1.846    0.000    0.000 
#    0.000    0.000    0.000    0.000    0.000    0.000 
#
# Total GULP energy -289835.068005 kJ/mol
# GULP energy per Si atom -5573.751308 kJ/mol
# Density = 2.119743 g / cm^3
# Si number density = 21.245782 Si / 1000 Ang^3
#
#
#
# Elastic Constant Matrix: (Units=GPa)
#
#
# Indices 1 2 3 4 5 6 
#
# 1 90.7863 25.9557 26.3871 0.0000 0.0000 0.0000
# 2 25.9557 65.6952 6.8149 0.0000 0.0000 0.0000
# 3 26.3871 6.8149 103.5044 0.0000 0.0000 0.0000
# 4 0.0000 0.0000 0.0000 3.7766 0.0000 0.0000
# 5 0.0000 0.0000 0.0000 0.0000 31.2135 0.0000
# 6 0.0000 0.0000 0.0000 0.0000 0.0000 30.0939
#
#
#
# Elastic Compliance Matrix: (Units=1/GPa)
#
#
# Indices 1 2 3 4 5 6 
#
# 1 0.013321 -0.004944 -0.003070 0.000000 0.000000 0.000000
# 2 -0.004944 0.017162 0.000131 0.000000 0.000000 0.000000
# 3 -0.003070 0.000131 0.010436 0.000000 0.000000 0.000000
# 4 0.000000 0.000000 0.000000 0.264787 0.000000 0.000000
# 5 0.000000 0.000000 0.000000 0.000000 0.032037 0.000000
# 6 0.000000 0.000000 0.000000 0.000000 0.000000 0.033229
#
#
# Mechanical properties :
#
#
# Convention : Reuss Voigt Hill
#
# Bulk Modulus (GPa) = 39.76208 42.03349 40.89779
# Shear Modulus (GPa) = 12.65424 26.40534 19.52979
#
# Velocity S-wave (km/s) = 2.44316 3.52923 3.03517
# Velocity P-wave (km/s) = 5.16862 6.03611 5.61913
#
# Compressibility (1/GPa) = 0.02514959
#
# Stress axis : x y z
#
# Youngs Moduli (GPa) = 75.06983 58.26894 95.82591
#
# Poissons Ratio (x) = 0.28811 0.29423
# Poissons Ratio (y) = 0.37118 -0.01251
# Poissons Ratio (z) = 0.23050 -0.00761
#
# Static dielectric constant tensor:
#      x y z
#    x 1.883140 0.000000 0.000000 
#    y 0.000000 1.825030 0.000000 
#    z 0.000000 0.000000 1.835740 
# 
# From -- ./inp_files/36887.got.cif
#   From: 2010.05.17/outbox.cif.g08.bks.cpg/sg70_19_cif.got.tgz:36887.got - 2010.06.03 15:57:51.
