data_PCOD9515947
_publ_section_title
;
Structure prediction by ZEFSAII (Michael W. Deem and Ramdas Pophale) SiO2 
 PCOD9515947
Probable space group: F D D D
;
_chemical_formula_sum "Si O2"
_cell_formula_units_Z 176
_cell_length_a 11.514154
_cell_length_b 26.162683
_cell_length_c 27.549451
_cell_angle_alpha 90.000000
_cell_angle_beta 90.000000
_cell_angle_gamma 90.000000
_cell_volume 8299.028607
_symmetry_space_group_name_H-M "F D D D"
_symmetry_group_IT_number 70
_space_group.IT_coordinate_system_code '2'
_symmetry_cell_setting 'orthorhombic'
loop_
_space_group_symop_operation_xyz
x,y,z
1/4-x,1/4-y,z
x,1/4-y,1/4-z
1/4-x,y,1/4-z
-x,-y,-z
3/4+x,3/4+y,-z
-x,3/4+y,3/4+z
3/4+x,-y,3/4+z
x,1/2+y,1/2+z
1/4-x,3/4-y,1/2+z
x,3/4-y,3/4-z
1/4-x,1/2+y,3/4-z
-x,1/2-y,1/2-z
3/4+x,1/4+y,1/2-z
-x,1/4+y,1/4+z
3/4+x,1/2-y,1/4+z
1/2+x,y,1/2+z
3/4-x,1/4-y,1/2+z
1/2+x,1/4-y,3/4-z
3/4-x,y,3/4-z
1/2-x,-y,1/2-z
1/4+x,3/4+y,1/2-z
1/2-x,3/4+y,1/4+z
1/4+x,-y,1/4+z
1/2+x,1/2+y,z
3/4-x,3/4-y,z
1/2+x,3/4-y,1/4-z
3/4-x,1/2+y,1/4-z
1/2-x,1/2-y,-z
1/4+x,1/4+y,-z
1/2-x,1/4+y,3/4+z
1/4+x,1/2-y,3/4+z
loop_
_atom_site_type_symbol
_atom_site_label
_atom_site_fract_x
_atom_site_fract_y
_atom_site_fract_z
Si Si1 0.422672 0.125000 0.625000
Si Si2 0.250722 0.118124 0.794445
Si Si3 0.748121 0.727795 0.396332
Si Si4 0.169637 0.978621 0.032370
Si Si5 0.110855 0.803873 0.288631
Si Si6 0.688205 0.974688 0.822960
O O1 0.356014 0.155604 0.582925
O O2 0.481578 0.078905 0.595779
O O3 0.235681 0.081702 0.840757
O O4 0.289897 0.175264 0.804866
O O5 0.335168 0.086581 0.759058
O O6 0.125000 0.125000 0.769593
O O7 0.875000 0.737554 0.375000
O O8 0.731005 0.760570 0.445570
O O9 0.646382 0.746725 0.360610
O O10 0.267255 0.022911 0.035637
O O11 0.136213 0.967784 0.976236
O O12 0.052626 0.994988 0.058977
#
# Coordination Sequence:
#
# PCOD9515947 Si02
#       6
#    16  32  32  32  32  32
#     4  10  22  43  69 100 130 176 241 283 336 404
#     4  12  25  43  70 102 140 183 225 286 366 415
#     4  11  25  42  67 101 140 178 231 290 345 421
#     4  11  24  47  70  98 140 184 232 288 357 427
#     4  11  24  43  71 100 134 182 233 294 343 417
#     4  10  24  46  70 101 137 183 237 290 349 420
#
# _framework density 21.207301000000001
#
# number of rings (size 3 to 8) (size 9 to 14) (size 15 to 20)
#    0.000    1.091    3.636    1.636    2.545    5.818 
#    0.000    5.909    0.000    0.000    0.000    0.000 
#    0.000    0.000    0.000    0.000    0.000    0.000 
#
# Total GULP energy -245744.744168 kJ/mol
# GULP energy per Si atom -5585.107822 kJ/mol
# Density = 2.115903 g / cm^3
# Si number density = 21.207301 Si / 1000 Ang^3
#
#
#
# Elastic Constant Matrix: (Units=GPa)
#
#
# Indices 1 2 3 4 5 6 
#
# 1 97.3109 42.6021 31.3487 0.0000 0.0000 0.0000
# 2 42.6021 133.5791 43.4103 0.0000 0.0000 0.0000
# 3 31.3487 43.4103 83.6447 0.0000 0.0000 0.0000
# 4 0.0000 0.0000 0.0000 34.5679 0.0000 0.0000
# 5 0.0000 0.0000 0.0000 0.0000 21.2602 0.0000
# 6 0.0000 0.0000 0.0000 0.0000 0.0000 23.5043
#
#
#
# Elastic Compliance Matrix: (Units=1/GPa)
#
#
# Indices 1 2 3 4 5 6 
#
# 1 0.012608 -0.002990 -0.003174 0.000000 0.000000 0.000000
# 2 -0.002990 0.009714 -0.003921 0.000000 0.000000 0.000000
# 3 -0.003174 -0.003921 0.015180 0.000000 0.000000 0.000000
# 4 0.000000 0.000000 0.000000 0.028929 0.000000 0.000000
# 5 0.000000 0.000000 0.000000 0.000000 0.047036 0.000000
# 6 0.000000 0.000000 0.000000 0.000000 0.000000 0.042545
#
#
# Mechanical properties :
#
#
# Convention : Reuss Voigt Hill
#
# Bulk Modulus (GPa) = 57.69359 61.02856 59.36107
# Shear Modulus (GPa) = 27.47902 29.01138 28.24520
#
# Velocity S-wave (km/s) = 3.60354 3.70265 3.65343
# Velocity P-wave (km/s) = 6.67665 6.86433 6.77114
#
# Compressibility (1/GPa) = 0.01733295
#
# Stress axis : x y z
#
# Youngs Moduli (GPa) = 79.31785 102.94565 65.87782
#
# Poissons Ratio (x) = 0.30776 0.20907
# Poissons Ratio (y) = 0.23712 0.25830
# Poissons Ratio (z) = 0.25172 0.40364
#
# Static dielectric constant tensor:
#      x y z
#    x 1.748320 0.000000 0.000000 
#    y 0.000000 1.770210 0.000000 
#    z 0.000000 0.000000 1.811880 
# 
# From -- ./inp_files/54959.got.cif
#   From: 2010.05.17/outbox.cif.g08.bks.cpg/sg70_28_cif.got.tgz:54959.got - 2010.06.03 15:57:51.
