data_PCOD9515377
_publ_section_title
;
Structure prediction by ZEFSAII (Michael W. Deem and Ramdas Pophale) SiO2 
 PCOD9515377
Probable space group: F D D D
;
_chemical_formula_sum "Si O2"
_cell_formula_units_Z 160
_cell_length_a 25.448056
_cell_length_b 25.581037
_cell_length_c 10.082244
_cell_angle_alpha 90.000000
_cell_angle_beta 90.000000
_cell_angle_gamma 90.000000
_cell_volume 6563.416450
_symmetry_space_group_name_H-M "F D D D"
_symmetry_group_IT_number 70
_space_group.IT_coordinate_system_code '2'
_symmetry_cell_setting 'orthorhombic'
loop_
_space_group_symop_operation_xyz
x,y,z
1/4-x,1/4-y,z
x,1/4-y,1/4-z
1/4-x,y,1/4-z
-x,-y,-z
3/4+x,3/4+y,-z
-x,3/4+y,3/4+z
3/4+x,-y,3/4+z
x,1/2+y,1/2+z
1/4-x,3/4-y,1/2+z
x,3/4-y,3/4-z
1/4-x,1/2+y,3/4-z
-x,1/2-y,1/2-z
3/4+x,1/4+y,1/2-z
-x,1/4+y,1/4+z
3/4+x,1/2-y,1/4+z
1/2+x,y,1/2+z
3/4-x,1/4-y,1/2+z
1/2+x,1/4-y,3/4-z
3/4-x,y,3/4-z
1/2-x,-y,1/2-z
1/4+x,3/4+y,1/2-z
1/2-x,3/4+y,1/4+z
1/4+x,-y,1/4+z
1/2+x,1/2+y,z
3/4-x,3/4-y,z
1/2+x,3/4-y,1/4-z
3/4-x,1/2+y,1/4-z
1/2-x,1/2-y,-z
1/4+x,1/4+y,-z
1/2-x,1/4+y,3/4+z
1/4+x,1/2-y,3/4+z
loop_
_atom_site_type_symbol
_atom_site_label
_atom_site_fract_x
_atom_site_fract_y
_atom_site_fract_z
Si Si1 0.168514 0.574193 0.014585
Si Si2 0.248718 0.164596 0.420032
Si Si3 0.664365 0.528377 0.246649
Si Si4 0.478480 0.224995 0.080321
Si Si5 0.967574 0.568172 0.461440
O O1 0.043320 0.626393 0.982214
O O2 0.144345 0.558588 0.874816
O O3 0.125000 0.576918 0.125000
O O4 0.208702 0.529915 0.061553
O O5 0.219993 0.214522 0.358124
O O6 0.282419 0.188280 0.542723
O O7 0.280188 0.130177 0.311490
O O8 0.673953 0.467007 0.282637
O O9 0.724559 0.551206 0.233257
O O10 0.625000 0.535857 0.125000
O O11 0.458726 0.203918 0.939890
#
# Coordination Sequence:
#
# PCOD9515377 Si02
#       5
#    32  32  32  32  32
#     4  10  21  38  60  92 130 161 204 268 319 372
#     4   9  18  34  59  86 117 163 207 249 315 378
#     4   9  19  37  60  86 122 165 204 254 318 379
#     4   9  18  34  59  88 118 160 206 255 317 374
#     4   9  18  36  58  85 123 160 203 258 313 379
#
# _framework density 24.377547
#
# number of rings (size 3 to 8) (size 9 to 14) (size 15 to 20)
#    0.000    3.200    0.000    2.400    0.000    4.800 
#    0.000   21.000    0.000    8.400    0.000    0.000 
#    0.000    0.000    0.000    0.000    0.000    0.000 
#
# Total GULP energy -223114.164037 kJ/mol
# GULP energy per Si atom -5577.854101 kJ/mol
# Density = 2.432206 g / cm^3
# Si number density = 24.377547 Si / 1000 Ang^3
#
#
#
# Elastic Constant Matrix: (Units=GPa)
#
#
# Indices 1 2 3 4 5 6 
#
# 1 43.5141 23.7623 30.7144 -0.0001 -0.0001 0.0000
# 2 23.7623 160.4105 41.7360 0.0001 -0.0003 0.0000
# 3 30.7144 41.7360 76.3357 0.0002 -0.0008 0.0000
# 4 -0.0001 0.0001 0.0002 26.0643 -0.0002 0.0000
# 5 -0.0001 -0.0003 -0.0008 -0.0002 25.7880 0.0001
# 6 0.0000 0.0000 0.0000 0.0000 0.0001 14.7788
#
#
#
# Elastic Compliance Matrix: (Units=1/GPa)
#
#
# Indices 1 2 3 4 5 6 
#
# 1 0.032465 -0.001644 -0.012163 0.000000 0.000000 0.000000
# 2 -0.001644 0.007351 -0.003358 0.000000 0.000000 0.000000
# 3 -0.012163 -0.003358 0.019830 0.000000 0.000000 0.000000
# 4 0.000000 0.000000 0.000000 0.038367 0.000000 0.000000
# 5 0.000000 0.000000 0.000000 0.000000 0.038778 0.000000
# 6 0.000000 0.000000 0.000000 0.000000 0.000000 0.067665
#
#
# Mechanical properties :
#
#
# Convention : Reuss Voigt Hill
#
# Bulk Modulus (GPa) = 39.50250 52.52062 46.01156
# Shear Modulus (GPa) = 20.22462 25.59606 22.91034
#
# Velocity S-wave (km/s) = 2.88347 3.24386 3.06896
# Velocity P-wave (km/s) = 5.22738 5.96839 5.61013
#
# Compressibility (1/GPa) = 0.02531485
#
# Stress axis : x y z
#
# Youngs Moduli (GPa) = 30.80285 136.03262 50.42913
#
# Poissons Ratio (x) = 0.22369 0.61339
# Poissons Ratio (y) = 0.05065 0.16932
# Poissons Ratio (z) = 0.37467 0.45674
#
# Static dielectric constant tensor:
#      x y z
#    x 2.006080 0.000000 0.000000 
#    y 0.000000 2.090610 0.000000 
#    z 0.000000 0.000000 2.068860 
# 
# From -- ./inp_files/20837.got.cif
#   From: 2010.05.17/outbox.cif.g08.bks.cpg/sg70_11_cif.got.tgz:20837.got - 2010.06.03 15:57:51.
