data_PCOD9515472
_publ_section_title
;
Structure prediction by ZEFSAII (Michael W. Deem and Ramdas Pophale) SiO2 
 PCOD9515472
Probable space group: F D D D
;
_chemical_formula_sum "Si O2"
_cell_formula_units_Z 160
_cell_length_a 11.280837
_cell_length_b 24.796575
_cell_length_c 26.745257
_cell_angle_alpha 90.000000
_cell_angle_beta 90.000000
_cell_angle_gamma 90.000000
_cell_volume 7481.346989
_symmetry_space_group_name_H-M "F D D D"
_symmetry_group_IT_number 70
_space_group.IT_coordinate_system_code '2'
_symmetry_cell_setting 'orthorhombic'
loop_
_space_group_symop_operation_xyz
x,y,z
1/4-x,1/4-y,z
x,1/4-y,1/4-z
1/4-x,y,1/4-z
-x,-y,-z
3/4+x,3/4+y,-z
-x,3/4+y,3/4+z
3/4+x,-y,3/4+z
x,1/2+y,1/2+z
1/4-x,3/4-y,1/2+z
x,3/4-y,3/4-z
1/4-x,1/2+y,3/4-z
-x,1/2-y,1/2-z
3/4+x,1/4+y,1/2-z
-x,1/4+y,1/4+z
3/4+x,1/2-y,1/4+z
1/2+x,y,1/2+z
3/4-x,1/4-y,1/2+z
1/2+x,1/4-y,3/4-z
3/4-x,y,3/4-z
1/2-x,-y,1/2-z
1/4+x,3/4+y,1/2-z
1/2-x,3/4+y,1/4+z
1/4+x,-y,1/4+z
1/2+x,1/2+y,z
3/4-x,3/4-y,z
1/2+x,3/4-y,1/4-z
3/4-x,1/2+y,1/4-z
1/2-x,1/2-y,-z
1/4+x,1/4+y,-z
1/2-x,1/4+y,3/4+z
1/4+x,1/2-y,3/4+z
loop_
_atom_site_type_symbol
_atom_site_label
_atom_site_fract_x
_atom_site_fract_y
_atom_site_fract_z
Si Si1 0.875000 0.088670 0.875000
Si Si2 0.861809 0.649144 0.177758
Si Si3 0.772736 0.058693 0.270781
Si Si4 0.481317 0.819512 0.570005
Si Si5 0.332860 0.473473 0.590896
Si Si6 0.875000 0.375000 0.478135
O O1 0.975225 0.125001 0.902443
O O2 0.799133 0.049758 0.909973
O O3 0.905274 0.625000 0.125000
O O4 0.948326 0.649736 0.226280
O O5 0.833783 0.713008 0.171182
O O6 0.741230 0.618509 0.194170
O O7 0.888605 0.049822 0.304940
O O8 0.658788 0.065371 0.304846
O O9 0.750000 0.000000 0.250000
O O10 0.402374 0.783943 0.606537
O O11 0.412214 0.829030 0.518073
#
# Coordination Sequence:
#
# PCOD9515472 Si02
#       6
#    16  32  32  32  32  16
#     4  12  22  34  65  98 129 160 210 270 328 372
#     4  10  23  42  66  90 133 180 212 263 323 389
#     4   9  20  40  66  92 126 173 213 266 323 382
#     4  11  20  39  65  93 131 164 213 276 324 377
#     4  11  22  39  65  97 129 170 221 264 329 385
#     4  10  21  40  62  92 136 168 205 262 332 382
#
# _framework density 21.386524000000001
#
# number of rings (size 3 to 8) (size 9 to 14) (size 15 to 20)
#    0.000    1.600    4.000    0.300    2.800    0.000 
#    0.000   16.000    0.000   10.800    0.000    0.000 
#    0.000    0.000    0.000    0.000    0.000    0.000 
#
# Total GULP energy -222820.498770 kJ/mol
# GULP energy per Si atom -5570.512469 kJ/mol
# Density = 2.133785 g / cm^3
# Si number density = 21.386524 Si / 1000 Ang^3
#
#
#
# Elastic Constant Matrix: (Units=GPa)
#
#
# Indices 1 2 3 4 5 6 
#
# 1 89.5744 17.9386 27.8441 0.0000 0.0000 0.0000
# 2 17.9386 58.6066 3.7174 0.0000 0.0000 0.0000
# 3 27.8441 3.7174 87.7029 0.0000 0.0000 0.0000
# 4 0.0000 0.0000 0.0000 14.0309 0.0000 0.0000
# 5 0.0000 0.0000 0.0000 0.0000 4.0127 0.0000
# 6 0.0000 0.0000 0.0000 0.0000 0.0000 19.4552
#
#
#
# Elastic Compliance Matrix: (Units=1/GPa)
#
#
# Indices 1 2 3 4 5 6 
#
# 1 0.013170 -0.003776 -0.004021 0.000000 0.000000 0.000000
# 2 -0.003776 0.018192 0.000428 0.000000 0.000000 0.000000
# 3 -0.004021 0.000428 0.012661 0.000000 0.000000 0.000000
# 4 0.000000 0.000000 0.000000 0.071271 0.000000 0.000000
# 5 0.000000 0.000000 0.000000 0.000000 0.249207 0.000000
# 6 0.000000 0.000000 0.000000 0.000000 0.000000 0.051400
#
#
# Mechanical properties :
#
#
# Convention : Reuss Voigt Hill
#
# Bulk Modulus (GPa) = 34.14918 37.20933 35.67925
# Shear Modulus (GPa) = 11.35330 19.92535 15.63932
#
# Velocity S-wave (km/s) = 2.30654 3.05565 2.70713
# Velocity P-wave (km/s) = 4.80581 5.46677 5.14691
#
# Compressibility (1/GPa) = 0.02928328
#
# Stress axis : x y z
#
# Youngs Moduli (GPa) = 75.92947 54.97042 78.98481
#
# Poissons Ratio (x) = 0.20757 0.31762
# Poissons Ratio (y) = 0.28672 -0.03379
# Poissons Ratio (z) = 0.30533 -0.02351
#
# Static dielectric constant tensor:
#      x y z
#    x 1.781380 0.000000 0.000000 
#    y 0.000000 1.641210 0.000000 
#    z 0.000000 0.000000 1.916240 
# 
# From -- ./inp_files/22220.got.cif
#   From: 2010.05.17/outbox.cif.g08.bks.cpg/sg70_12_cif.got.tgz:22220.got - 2010.06.03 15:57:51.
