data_PCOD9515249
_publ_section_title
;
Structure prediction by ZEFSAII (Michael W. Deem and Ramdas Pophale) SiO2 
 PCOD9515249
Probable space group: F D D D
;
_chemical_formula_sum "Si O2"
_cell_formula_units_Z 168
_cell_length_a 24.551389
_cell_length_b 15.430316
_cell_length_c 19.651185
_cell_angle_alpha 90.000000
_cell_angle_beta 90.000000
_cell_angle_gamma 90.000000
_cell_volume 7444.570239
_symmetry_space_group_name_H-M "F D D D"
_symmetry_group_IT_number 70
_space_group.IT_coordinate_system_code '2'
_symmetry_cell_setting 'orthorhombic'
loop_
_space_group_symop_operation_xyz
x,y,z
1/4-x,1/4-y,z
x,1/4-y,1/4-z
1/4-x,y,1/4-z
-x,-y,-z
3/4+x,3/4+y,-z
-x,3/4+y,3/4+z
3/4+x,-y,3/4+z
x,1/2+y,1/2+z
1/4-x,3/4-y,1/2+z
x,3/4-y,3/4-z
1/4-x,1/2+y,3/4-z
-x,1/2-y,1/2-z
3/4+x,1/4+y,1/2-z
-x,1/4+y,1/4+z
3/4+x,1/2-y,1/4+z
1/2+x,y,1/2+z
3/4-x,1/4-y,1/2+z
1/2+x,1/4-y,3/4-z
3/4-x,y,3/4-z
1/2-x,-y,1/2-z
1/4+x,3/4+y,1/2-z
1/2-x,3/4+y,1/4+z
1/4+x,-y,1/4+z
1/2+x,1/2+y,z
3/4-x,3/4-y,z
1/2+x,3/4-y,1/4-z
3/4-x,1/2+y,1/4-z
1/2-x,1/2-y,-z
1/4+x,1/4+y,-z
1/2-x,1/4+y,3/4+z
1/4+x,1/2-y,3/4+z
loop_
_atom_site_type_symbol
_atom_site_label
_atom_site_fract_x
_atom_site_fract_y
_atom_site_fract_z
Si Si1 0.181848 0.967182 0.698702
Si Si2 0.319689 0.319248 0.958613
Si Si3 0.716215 0.969616 0.355515
Si Si4 0.606140 0.531482 0.892175
Si Si5 0.220078 0.875000 0.375000
Si Si6 0.875000 0.679221 0.875000
Si Si7 0.625000 0.625000 0.625000
O O1 0.195034 0.968222 0.777981
O O2 0.146062 0.884344 0.683131
O O3 0.235125 0.962084 0.649908
O O4 0.155132 0.057257 0.675095
O O5 0.375000 0.375000 0.947487
O O6 0.262585 0.360684 0.937062
O O7 0.328690 0.237941 0.908863
O O8 0.324268 0.298752 0.037976
O O9 0.737484 0.875000 0.375000
O O10 0.665692 0.989823 0.403979
O O11 0.625000 0.625000 0.860865
O O12 0.568726 0.457554 0.858021
#
# Coordination Sequence:
#
# PCOD9515249 Si02
#       7
#    32  32  32  32  16  16   8
#     4  10  24  39  71  93 137 185 231 293 351 417
#     4  11  23  46  68  99 143 179 231 292 354 423
#     4  11  22  46  63  98 139 181 231 294 352 421
#     4  11  27  43  68 104 139 185 238 285 356 425
#     4  12  23  47  70 102 143 187 232 296 350 420
#     4  11  21  41  67 102 128 184 235 281 353 419
#     4  10  20  46  58 100 132 180 242 282 350 430
#
# _framework density 22.566782
#
# number of rings (size 3 to 8) (size 9 to 14) (size 15 to 20)
#    0.000    1.143    3.810    1.714    4.000    0.000 
#    0.000    0.000    0.000    0.000    0.000    0.000 
#    0.000    0.000    0.000    0.000    0.000    0.000 
#
# Total GULP energy -234293.514091 kJ/mol
# GULP energy per Si atom -5578.417002 kJ/mol
# Density = 2.251542 g / cm^3
# Si number density = 22.566782 Si / 1000 Ang^3
#
#
#
# Elastic Constant Matrix: (Units=GPa)
#
#
# Indices 1 2 3 4 5 6 
#
# 1 91.4695 46.3236 8.2364 0.0000 0.0000 0.0000
# 2 46.3236 127.3583 20.6850 0.0000 0.0000 0.0000
# 3 8.2364 20.6850 61.9538 0.0000 0.0000 0.0000
# 4 0.0000 0.0000 0.0000 -23.3410 0.0000 0.0000
# 5 0.0000 0.0000 0.0000 0.0000 19.7494 0.0000
# 6 0.0000 0.0000 0.0000 0.0000 0.0000 36.4724
#
#
#
# Elastic Compliance Matrix: (Units=1/GPa)
#
#
# Indices 1 2 3 4 5 6 
#
# 1 0.013403 -0.004848 -0.000163 0.000000 0.000000 0.000000
# 2 -0.004848 0.010056 -0.002713 0.000000 0.000000 0.000000
# 3 -0.000163 -0.002713 0.017069 0.000000 0.000000 0.000000
# 4 0.000000 0.000000 0.000000 -0.042843 0.000000 0.000000
# 5 0.000000 0.000000 0.000000 0.000000 0.050635 0.000000
# 6 0.000000 0.000000 0.000000 0.000000 0.000000 0.027418
#
#
# Mechanical properties :
#
#
# Convention : Reuss Voigt Hill
#
# Bulk Modulus (GPa) = 39.87484 47.91908 43.89696
# Shear Modulus (GPa) = 50.22857 20.27860 35.25358
#
# Velocity S-wave (km/s) = 4.72293 3.00092 3.95674
# Velocity P-wave (km/s) = 6.88836 5.76956 6.35363
#
# Compressibility (1/GPa) = 0.02507847
#
# Stress axis : x y z
#
# Youngs Moduli (GPa) = 74.61164 99.44324 58.58744
#
# Poissons Ratio (x) = 0.48215 0.00955
# Poissons Ratio (y) = 0.36175 0.15894
# Poissons Ratio (z) = 0.01216 0.26978
#
# Static dielectric constant tensor:
#      x y z
#    x 1.888770 0.000000 0.000000 
#    y 0.000000 1.872190 0.000000 
#    z 0.000000 0.000000 1.834260 
# 
# From -- ./inp_files/46796.got.cif
#   From: 2010.05.17/outbox.cif.g08.bks.cpg/sg70_24_cif.got.tgz:46796.got - 2010.06.03 15:57:51.
