data_PCOD9515839
_publ_section_title
;
Structure prediction by ZEFSAII (Michael W. Deem and Ramdas Pophale) SiO2 
 PCOD9515839
Probable space group: F D D D
;
_chemical_formula_sum "Si O2"
_cell_formula_units_Z 160
_cell_length_a 21.695570
_cell_length_b 15.825612
_cell_length_c 19.839095
_cell_angle_alpha 90.000000
_cell_angle_beta 90.000000
_cell_angle_gamma 90.000000
_cell_volume 6811.667423
_symmetry_space_group_name_H-M "F D D D"
_symmetry_group_IT_number 70
_space_group.IT_coordinate_system_code '2'
_symmetry_cell_setting 'orthorhombic'
loop_
_space_group_symop_operation_xyz
x,y,z
1/4-x,1/4-y,z
x,1/4-y,1/4-z
1/4-x,y,1/4-z
-x,-y,-z
3/4+x,3/4+y,-z
-x,3/4+y,3/4+z
3/4+x,-y,3/4+z
x,1/2+y,1/2+z
1/4-x,3/4-y,1/2+z
x,3/4-y,3/4-z
1/4-x,1/2+y,3/4-z
-x,1/2-y,1/2-z
3/4+x,1/4+y,1/2-z
-x,1/4+y,1/4+z
3/4+x,1/2-y,1/4+z
1/2+x,y,1/2+z
3/4-x,1/4-y,1/2+z
1/2+x,1/4-y,3/4-z
3/4-x,y,3/4-z
1/2-x,-y,1/2-z
1/4+x,3/4+y,1/2-z
1/2-x,3/4+y,1/4+z
1/4+x,-y,1/4+z
1/2+x,1/2+y,z
3/4-x,3/4-y,z
1/2+x,3/4-y,1/4-z
3/4-x,1/2+y,1/4-z
1/2-x,1/2-y,-z
1/4+x,1/4+y,-z
1/2-x,1/4+y,3/4+z
1/4+x,1/2-y,3/4+z
loop_
_atom_site_type_symbol
_atom_site_label
_atom_site_fract_x
_atom_site_fract_y
_atom_site_fract_z
Si Si1 0.452929 0.673946 0.266275
Si Si2 0.778766 0.341656 0.016561
Si Si3 0.723378 0.625000 0.625000
Si Si4 0.992652 0.125000 0.125000
Si Si5 0.821811 0.511933 0.455292
Si Si6 0.040478 0.048896 0.342894
O O1 0.500000 0.750000 0.250000
O O2 0.448673 0.637288 0.190150
O O3 0.389928 0.701064 0.301476
O O4 0.484967 0.607100 0.315628
O O5 0.725551 0.411302 0.030777
O O6 0.814596 0.334926 0.086801
O O7 0.750000 0.250000 0.000000
O O8 0.810218 0.365106 0.946178
O O9 0.765480 0.706809 0.637585
O O10 0.038926 0.199759 0.098789
O O11 0.830353 0.460238 0.525832
#
# Coordination Sequence:
#
# PCOD9515839 Si02
#       6
#    32  32  16  16  32  32
#     4  11  24  39  61  95 132 177 228 272 336 418
#     4   9  17  33  61  90 119 162 211 258 323 393
#     4   8  16  33  58  86 118 155 198 262 322 372
#     4  10  24  42  64  95 132 177 232 282 338 422
#     4  10  22  41  64  90 131 173 212 279 344 397
#     4   9  19  35  59  90 122 167 218 265 328 402
#
# _framework density 23.489108000000002
#
# number of rings (size 3 to 8) (size 9 to 14) (size 15 to 20)
#    0.000    2.400    0.000    1.200    0.000   12.000 
#    0.000    0.000    0.000   40.800    0.000    0.000 
#    0.000    1.600    0.000    0.000    0.000    0.000 
#
# Total GULP energy -222948.103732 kJ/mol
# GULP energy per Si atom -5573.702593 kJ/mol
# Density = 2.343565 g / cm^3
# Si number density = 23.489108 Si / 1000 Ang^3
#
#
#
# Elastic Constant Matrix: (Units=GPa)
#
#
# Indices 1 2 3 4 5 6 
#
# 1 91.2984 70.2425 12.1025 0.0000 0.0000 0.0000
# 2 70.2425 137.1771 40.3675 0.0000 0.0000 0.0000
# 3 12.1025 40.3675 212.5835 0.0000 0.0000 0.0000
# 4 0.0000 0.0000 0.0000 55.8163 0.0000 0.0000
# 5 0.0000 0.0000 0.0000 0.0000 4.8246 0.0000
# 6 0.0000 0.0000 0.0000 0.0000 0.0000 -35.5562
#
#
#
# Elastic Compliance Matrix: (Units=1/GPa)
#
#
# Indices 1 2 3 4 5 6 
#
# 1 0.018194 -0.009545 0.000777 0.000000 0.000000 0.000000
# 2 -0.009545 0.012729 -0.001874 0.000000 0.000000 0.000000
# 3 0.000777 -0.001874 0.005016 0.000000 0.000000 0.000000
# 4 0.000000 0.000000 0.000000 0.017916 0.000000 0.000000
# 5 0.000000 0.000000 0.000000 0.000000 0.207270 0.000000
# 6 0.000000 0.000000 0.000000 0.000000 0.000000 -0.028124
#
#
# Mechanical properties :
#
#
# Convention : Reuss Voigt Hill
#
# Bulk Modulus (GPa) = 68.23866 76.27601 72.25734
# Shear Modulus (GPa) = 19.29256 26.24003 22.76630
#
# Velocity S-wave (km/s) = 2.86901 3.34595 3.11662
# Velocity P-wave (km/s) = 6.33161 6.88989 6.61664
#
# Compressibility (1/GPa) = 0.01465445
#
# Stress axis : x y z
#
# Youngs Moduli (GPa) = 54.96442 78.56292 199.37773
#
# Poissons Ratio (x) = 0.74986 -0.15485
# Poissons Ratio (y) = 0.52462 0.37357
# Poissons Ratio (z) = -0.04269 0.14720
#
# Static dielectric constant tensor:
#      x y z
#    x 1.934190 0.000000 0.000000 
#    y 0.000000 1.946030 0.000000 
#    z 0.000000 0.000000 2.020090 
# 
# From -- ./inp_files/45829.got.cif
#   From: 2010.05.17/outbox.cif.g08.bks.cpg/sg70_23_cif.got.tgz:45829.got - 2010.06.03 15:57:51.
