data_PCOD9515779
_publ_section_title
;
Structure prediction by ZEFSAII (Michael W. Deem and Ramdas Pophale) SiO2 
 PCOD9515779
Probable space group: F D D D
;
_chemical_formula_sum "Si O2"
_cell_formula_units_Z 176
_cell_length_a 30.819318
_cell_length_b 11.209723
_cell_length_c 21.622982
_cell_angle_alpha 90.000000
_cell_angle_beta 90.000000
_cell_angle_gamma 90.000000
_cell_volume 7470.221715
_symmetry_space_group_name_H-M "F D D D"
_symmetry_group_IT_number 70
_space_group.IT_coordinate_system_code '2'
_symmetry_cell_setting 'orthorhombic'
loop_
_space_group_symop_operation_xyz
x,y,z
1/4-x,1/4-y,z
x,1/4-y,1/4-z
1/4-x,y,1/4-z
-x,-y,-z
3/4+x,3/4+y,-z
-x,3/4+y,3/4+z
3/4+x,-y,3/4+z
x,1/2+y,1/2+z
1/4-x,3/4-y,1/2+z
x,3/4-y,3/4-z
1/4-x,1/2+y,3/4-z
-x,1/2-y,1/2-z
3/4+x,1/4+y,1/2-z
-x,1/4+y,1/4+z
3/4+x,1/2-y,1/4+z
1/2+x,y,1/2+z
3/4-x,1/4-y,1/2+z
1/2+x,1/4-y,3/4-z
3/4-x,y,3/4-z
1/2-x,-y,1/2-z
1/4+x,3/4+y,1/2-z
1/2-x,3/4+y,1/4+z
1/4+x,-y,1/4+z
1/2+x,1/2+y,z
3/4-x,3/4-y,z
1/2+x,3/4-y,1/4-z
3/4-x,1/2+y,1/4-z
1/2-x,1/2-y,-z
1/4+x,1/4+y,-z
1/2-x,1/4+y,3/4+z
1/4+x,1/2-y,3/4+z
loop_
_atom_site_type_symbol
_atom_site_label
_atom_site_fract_x
_atom_site_fract_y
_atom_site_fract_z
Si Si1 0.902018 0.993852 0.211167
Si Si2 0.766991 0.259913 0.618114
Si Si3 0.040050 0.387753 0.714836
Si Si4 0.294476 0.874355 0.947623
Si Si5 0.175020 0.083407 0.953862
Si Si6 0.342517 0.125000 0.625000
O O1 0.875000 0.875000 0.199587
O O2 0.942840 0.991322 0.165619
O O3 0.922827 0.976830 0.278563
O O4 0.872716 0.099100 0.184367
O O5 0.730676 0.344461 0.647344
O O6 0.789648 0.311176 0.556155
O O7 0.750263 0.125000 0.625000
O O8 0.062108 0.257939 0.716312
O O9 0.066625 0.503562 0.735713
O O10 0.000441 0.384693 0.764601
O O11 0.288227 0.875000 0.875000
O O12 0.125000 0.125000 0.950697
O O13 0.182890 0.992023 0.895862
#
# Coordination Sequence:
#
# PCOD9515779 Si02
#       6
#    32  32  32  32  32  16
#     4  11  19  35  59  94 125 165 209 274 324 400
#     4  11  21  39  61  91 130 170 218 273 338 402
#     4  10  24  37  63  96 126 174 219 278 340 396
#     4  10  22  40  61  94 135 170 215 269 347 403
#     4  12  23  38  66  95 130 171 226 284 336 401
#     4  12  20  36  64 100 126 164 226 280 338 378
#
# _framework density 23.560210000000001
#
# number of rings (size 3 to 8) (size 9 to 14) (size 15 to 20)
#    0.000    1.091    4.545    2.182    6.364    1.091 
#    0.000    1.818    0.000    2.727    0.000    0.000 
#    0.000    0.000    0.000    0.000    0.000    0.000 
#
# Total GULP energy -245703.643984 kJ/mol
# GULP energy per Si atom -5584.173727 kJ/mol
# Density = 2.350659 g / cm^3
# Si number density = 23.560210 Si / 1000 Ang^3
#
#
#
# Elastic Constant Matrix: (Units=GPa)
#
#
# Indices 1 2 3 4 5 6 
#
# 1 37.7100 27.4008 24.9278 0.0000 0.0000 0.0000
# 2 27.4008 103.0208 20.0085 0.0000 0.0000 0.0000
# 3 24.9278 20.0085 61.0424 0.0000 0.0000 0.0000
# 4 0.0000 0.0000 0.0000 33.0119 0.0000 0.0000
# 5 0.0000 0.0000 0.0000 0.0000 27.6903 0.0000
# 6 0.0000 0.0000 0.0000 0.0000 0.0000 37.1995
#
#
#
# Elastic Compliance Matrix: (Units=1/GPa)
#
#
# Indices 1 2 3 4 5 6 
#
# 1 0.042200 -0.008413 -0.014476 0.000000 0.000000 0.000000
# 2 -0.008413 0.012044 -0.000512 0.000000 0.000000 0.000000
# 3 -0.014476 -0.000512 0.022461 0.000000 0.000000 0.000000
# 4 0.000000 0.000000 0.000000 0.030292 0.000000 0.000000
# 5 0.000000 0.000000 0.000000 0.000000 0.036114 0.000000
# 6 0.000000 0.000000 0.000000 0.000000 0.000000 0.026882
#
#
# Mechanical properties :
#
#
# Convention : Reuss Voigt Hill
#
# Bulk Modulus (GPa) = 33.44032 38.49417 35.96725
# Shear Modulus (GPa) = 22.04957 28.20942 25.12950
#
# Velocity S-wave (km/s) = 3.06254 3.46400 3.26944
# Velocity P-wave (km/s) = 5.17010 5.68975 5.43613
#
# Compressibility (1/GPa) = 0.02990402
#
# Stress axis : x y z
#
# Youngs Moduli (GPa) = 23.69679 83.03027 44.52098
#
# Poissons Ratio (x) = 0.69850 0.64447
# Poissons Ratio (y) = 0.19935 0.02281
# Poissons Ratio (z) = 0.34302 0.04253
#
# Static dielectric constant tensor:
#      x y z
#    x 1.915620 0.000000 0.000000 
#    y 0.000000 1.976140 0.000000 
#    z 0.000000 0.000000 1.899740 
# 
# From -- ./inp_files/54995.got.cif
#   From: 2010.05.17/outbox.cif.g08.bks.cpg/sg70_28_cif.got.tgz:54995.got - 2010.06.03 15:57:51.
