data_PCOD9515515
_publ_section_title
;
Structure prediction by ZEFSAII (Michael W. Deem and Ramdas Pophale) SiO2 
 PCOD9515515
Probable space group: F D D D
;
_chemical_formula_sum "Si O2"
_cell_formula_units_Z 144
_cell_length_a 20.704115
_cell_length_b 16.380359
_cell_length_c 20.253142
_cell_angle_alpha 90.000000
_cell_angle_beta 90.000000
_cell_angle_gamma 90.000000
_cell_volume 6868.667519
_symmetry_space_group_name_H-M "F D D D"
_symmetry_group_IT_number 70
_space_group.IT_coordinate_system_code '2'
_symmetry_cell_setting 'orthorhombic'
loop_
_space_group_symop_operation_xyz
x,y,z
1/4-x,1/4-y,z
x,1/4-y,1/4-z
1/4-x,y,1/4-z
-x,-y,-z
3/4+x,3/4+y,-z
-x,3/4+y,3/4+z
3/4+x,-y,3/4+z
x,1/2+y,1/2+z
1/4-x,3/4-y,1/2+z
x,3/4-y,3/4-z
1/4-x,1/2+y,3/4-z
-x,1/2-y,1/2-z
3/4+x,1/4+y,1/2-z
-x,1/4+y,1/4+z
3/4+x,1/2-y,1/4+z
1/2+x,y,1/2+z
3/4-x,1/4-y,1/2+z
1/2+x,1/4-y,3/4-z
3/4-x,y,3/4-z
1/2-x,-y,1/2-z
1/4+x,3/4+y,1/2-z
1/2-x,3/4+y,1/4+z
1/4+x,-y,1/4+z
1/2+x,1/2+y,z
3/4-x,3/4-y,z
1/2+x,3/4-y,1/4-z
3/4-x,1/2+y,1/4-z
1/2-x,1/2-y,-z
1/4+x,1/4+y,-z
1/2-x,1/4+y,3/4+z
1/4+x,1/2-y,3/4+z
loop_
_atom_site_type_symbol
_atom_site_label
_atom_site_fract_x
_atom_site_fract_y
_atom_site_fract_z
Si Si1 0.556960 0.008823 0.714933
Si Si2 0.762463 0.870818 0.609995
Si Si3 0.781488 0.957755 0.416474
Si Si4 0.875000 0.375000 0.743910
Si Si5 0.448709 0.320075 0.750709
O O1 0.534010 0.946099 0.659517
O O2 0.526734 0.969549 0.781205
O O3 0.618062 0.030778 0.525431
O O4 0.529419 0.100760 0.707374
O O5 0.721631 0.789667 0.624037
O O6 0.814504 0.853410 0.552479
O O7 0.801894 0.895927 0.675681
O O8 0.773322 0.875000 0.375000
O O9 0.846911 0.945675 0.458825
O O10 0.500000 0.250000 0.750000
#
# Coordination Sequence:
#
# PCOD9515515 Si02
#       5
#    32  32  32  16  32
#     4   9  21  41  63  92 127 167 212 265 326 382
#     4  10  21  42  65  94 129 171 210 270 324 388
#     4  10  21  41  61  97 131 169 216 268 321 390
#     4  10  21  40  68  92 134 171 208 274 328 392
#     4  10  21  42  64  94 128 164 216 268 321 394
#
# _framework density 20.964765
#
# number of rings (size 3 to 8) (size 9 to 14) (size 15 to 20)
#    0.000    2.222    0.000    3.000    0.000    5.333 
#   36.000    2.222    0.000    0.000    0.000    0.000 
#    0.000    0.000    0.000    0.000    0.000    0.000 
#
# Total GULP energy -200876.881453 kJ/mol
# GULP energy per Si atom -5579.913374 kJ/mol
# Density = 2.091705 g / cm^3
# Si number density = 20.964765 Si / 1000 Ang^3
#
#
#
# Elastic Constant Matrix: (Units=GPa)
#
#
# Indices 1 2 3 4 5 6 
#
# 1 87.0051 78.2547 38.5901 0.0000 0.0000 0.0000
# 2 78.2547 177.7418 66.0714 0.0000 0.0000 0.0000
# 3 38.5901 66.0714 84.0561 0.0000 0.0000 0.0000
# 4 0.0000 0.0000 0.0000 33.0412 0.0000 0.0000
# 5 0.0000 0.0000 0.0000 0.0000 25.2897 0.0000
# 6 0.0000 0.0000 0.0000 0.0000 0.0000 36.5559
#
#
#
# Elastic Compliance Matrix: (Units=1/GPa)
#
#
# Indices 1 2 3 4 5 6 
#
# 1 0.019595 -0.007464 -0.003129 0.000000 0.000000 0.000000
# 2 -0.007464 0.010792 -0.005056 0.000000 0.000000 0.000000
# 3 -0.003129 -0.005056 0.017308 0.000000 0.000000 0.000000
# 4 0.000000 0.000000 0.000000 0.030265 0.000000 0.000000
# 5 0.000000 0.000000 0.000000 0.000000 0.039542 0.000000
# 6 0.000000 0.000000 0.000000 0.000000 0.000000 0.027355
#
#
# Mechanical properties :
#
#
# Convention : Reuss Voigt Hill
#
# Bulk Modulus (GPa) = 60.99006 79.40392 70.19699
# Shear Modulus (GPa) = 27.53008 30.03647 28.78328
#
# Velocity S-wave (km/s) = 3.62769 3.78922 3.70933
# Velocity P-wave (km/s) = 6.83386 7.55655 7.20427
#
# Compressibility (1/GPa) = 0.01639611
#
# Stress axis : x y z
#
# Youngs Moduli (GPa) = 51.03469 92.66360 57.77792
#
# Poissons Ratio (x) = 0.69162 0.18079
# Poissons Ratio (y) = 0.38091 0.29213
# Poissons Ratio (z) = 0.15969 0.46852
#
# Static dielectric constant tensor:
#      x y z
#    x 1.744740 0.000000 0.000000 
#    y 0.000000 1.732180 0.000000 
#    z 0.000000 0.000000 1.844210 
# 
# From -- ./inp_files/35009.got.cif
#   From: 2010.05.17/outbox.cif.g08.bks.cpg/sg70_18_cif.got.tgz:35009.got - 2010.06.03 15:57:51.
