data_PCOD9515908
_publ_section_title
;
Structure prediction by ZEFSAII (Michael W. Deem and Ramdas Pophale) SiO2 
 PCOD9515908
Probable space group: F D D D
;
_chemical_formula_sum "Si O2"
_cell_formula_units_Z 96
_cell_length_a 12.406425
_cell_length_b 11.840500
_cell_length_c 24.824698
_cell_angle_alpha 90.000000
_cell_angle_beta 90.000000
_cell_angle_gamma 90.000000
_cell_volume 3646.705319
_symmetry_space_group_name_H-M "F D D D"
_symmetry_group_IT_number 70
_space_group.IT_coordinate_system_code '2'
_symmetry_cell_setting 'orthorhombic'
loop_
_space_group_symop_operation_xyz
x,y,z
1/4-x,1/4-y,z
x,1/4-y,1/4-z
1/4-x,y,1/4-z
-x,-y,-z
3/4+x,3/4+y,-z
-x,3/4+y,3/4+z
3/4+x,-y,3/4+z
x,1/2+y,1/2+z
1/4-x,3/4-y,1/2+z
x,3/4-y,3/4-z
1/4-x,1/2+y,3/4-z
-x,1/2-y,1/2-z
3/4+x,1/4+y,1/2-z
-x,1/4+y,1/4+z
3/4+x,1/2-y,1/4+z
1/2+x,y,1/2+z
3/4-x,1/4-y,1/2+z
1/2+x,1/4-y,3/4-z
3/4-x,y,3/4-z
1/2-x,-y,1/2-z
1/4+x,3/4+y,1/2-z
1/2-x,3/4+y,1/4+z
1/4+x,-y,1/4+z
1/2+x,1/2+y,z
3/4-x,3/4-y,z
1/2+x,3/4-y,1/4-z
3/4-x,1/2+y,1/4-z
1/2-x,1/2-y,-z
1/4+x,1/4+y,-z
1/2-x,1/4+y,3/4+z
1/4+x,1/2-y,3/4+z
loop_
_atom_site_type_symbol
_atom_site_label
_atom_site_fract_x
_atom_site_fract_y
_atom_site_fract_z
Si Si1 0.673242 0.996715 0.377508
Si Si2 0.571648 0.862687 0.068378
Si Si3 0.263940 0.442701 0.007022
O O1 0.625000 0.125000 0.380640
O O2 0.763650 0.019556 0.331902
O O3 0.726497 0.990581 0.436796
O O4 0.616037 0.875000 0.375000
O O5 0.625000 0.825474 0.125000
O O6 0.490229 0.771228 0.043950
O O7 0.662365 0.865801 0.022313
O O8 0.375000 0.375000 0.997145
#
# Coordination Sequence:
#
# PCOD9515908 Si02
#       3
#    32  32  32
#     4  10  24  46  71 105 148 189 245 303 360 436
#     4  10  23  43  69 107 144 196 242 299 366 432
#     4  10  22  42  68 104 148 186 248 307 353 437
#
# _framework density 26.325130999999999
#
# number of rings (size 3 to 8) (size 9 to 14) (size 15 to 20)
#    0.000    2.000    0.000    1.000    4.667    8.000 
#    0.000    0.000    0.000    0.000    0.000    0.000 
#    0.000    0.000    0.000    0.000    0.000    0.000 
#
# Total GULP energy -133861.865652 kJ/mol
# GULP energy per Si atom -5577.577735 kJ/mol
# Density = 2.626521 g / cm^3
# Si number density = 26.325131 Si / 1000 Ang^3
#
#
#
# Elastic Constant Matrix: (Units=GPa)
#
#
# Indices 1 2 3 4 5 6 
#
# 1 75.3553 51.3573 31.4409 0.0000 0.0000 0.0000
# 2 51.3573 193.1350 78.1077 0.0000 0.0000 0.0000
# 3 31.4409 78.1077 91.8126 0.0000 0.0000 0.0000
# 4 0.0000 0.0000 0.0000 -36.6785 0.0000 0.0000
# 5 0.0000 0.0000 0.0000 0.0000 20.8555 0.0000
# 6 0.0000 0.0000 0.0000 0.0000 0.0000 24.6762
#
#
#
# Elastic Compliance Matrix: (Units=1/GPa)
#
#
# Indices 1 2 3 4 5 6 
#
# 1 0.016720 -0.003248 -0.002963 0.000000 0.000000 0.000000
# 2 -0.003248 0.008524 -0.006140 0.000000 0.000000 0.000000
# 3 -0.002963 -0.006140 0.017130 0.000000 0.000000 0.000000
# 4 0.000000 0.000000 0.000000 -0.027264 0.000000 0.000000
# 5 0.000000 0.000000 0.000000 0.000000 0.047949 0.000000
# 6 0.000000 0.000000 0.000000 0.000000 0.000000 0.040525
#
#
# Mechanical properties :
#
#
# Convention : Reuss Voigt Hill
#
# Bulk Modulus (GPa) = 56.58186 75.79050 66.18618
# Shear Modulus (GPa) = 37.26449 15.06378 26.16413
#
# Velocity S-wave (km/s) = 3.76646 2.39471 3.15601
# Velocity P-wave (km/s) = 6.36043 6.04143 6.20298
#
# Compressibility (1/GPa) = 0.01767351
#
# Stress axis : x y z
#
# Youngs Moduli (GPa) = 59.80795 117.30976 58.37870
#
# Poissons Ratio (x) = 0.38102 0.17295
# Poissons Ratio (y) = 0.19426 0.35843
# Poissons Ratio (z) = 0.17719 0.72025
#
# Static dielectric constant tensor:
#      x y z
#    x 2.388600 0.000000 0.000000 
#    y 0.000000 2.113080 0.000000 
#    z 0.000000 0.000000 1.971650 
# 
# From -- ./inp_files/30597.got.cif
#   From: 2010.05.17/outbox.cif.g08.bks.cpg/sg70_16_cif.got.tgz:30597.got - 2010.06.03 15:57:51.
