data_PCOD9515411
_publ_section_title
;
Structure prediction by ZEFSAII (Michael W. Deem and Ramdas Pophale) SiO2 
 PCOD9515411
Probable space group: F D D D
;
_chemical_formula_sum "Si O2"
_cell_formula_units_Z 144
_cell_length_a 17.432002
_cell_length_b 13.370016
_cell_length_c 27.781417
_cell_angle_alpha 90.000000
_cell_angle_beta 90.000000
_cell_angle_gamma 90.000000
_cell_volume 6474.907781
_symmetry_space_group_name_H-M "F D D D"
_symmetry_group_IT_number 70
_space_group.IT_coordinate_system_code '2'
_symmetry_cell_setting 'orthorhombic'
loop_
_space_group_symop_operation_xyz
x,y,z
1/4-x,1/4-y,z
x,1/4-y,1/4-z
1/4-x,y,1/4-z
-x,-y,-z
3/4+x,3/4+y,-z
-x,3/4+y,3/4+z
3/4+x,-y,3/4+z
x,1/2+y,1/2+z
1/4-x,3/4-y,1/2+z
x,3/4-y,3/4-z
1/4-x,1/2+y,3/4-z
-x,1/2-y,1/2-z
3/4+x,1/4+y,1/2-z
-x,1/4+y,1/4+z
3/4+x,1/2-y,1/4+z
1/2+x,y,1/2+z
3/4-x,1/4-y,1/2+z
1/2+x,1/4-y,3/4-z
3/4-x,y,3/4-z
1/2-x,-y,1/2-z
1/4+x,3/4+y,1/2-z
1/2-x,3/4+y,1/4+z
1/4+x,-y,1/4+z
1/2+x,1/2+y,z
3/4-x,3/4-y,z
1/2+x,3/4-y,1/4-z
3/4-x,1/2+y,1/4-z
1/2-x,1/2-y,-z
1/4+x,1/4+y,-z
1/2-x,1/4+y,3/4+z
1/4+x,1/2-y,3/4+z
loop_
_atom_site_type_symbol
_atom_site_label
_atom_site_fract_x
_atom_site_fract_y
_atom_site_fract_z
Si Si1 0.821403 0.634954 0.418723
Si Si2 0.707213 0.077177 0.212628
Si Si3 0.758629 0.562513 0.076745
Si Si4 0.140573 0.416433 0.473938
Si Si5 0.875000 0.875000 0.997297
O O1 0.875000 0.606277 0.375000
O O2 0.802878 0.752446 0.417797
O O3 0.751888 0.556364 0.417736
O O4 0.863579 0.615300 0.469844
O O5 0.625000 0.125000 0.225858
O O6 0.770738 0.162692 0.208158
O O7 0.750000 0.000000 0.250000
O O8 0.742920 0.625000 0.125000
O O9 0.841809 0.591050 0.057567
O O10 0.696477 0.597228 0.036883
O O11 0.108007 0.527748 0.471191
#
# Coordination Sequence:
#
# PCOD9515411 Si02
#       5
#    32  32  32  32  16
#     4  10  23  42  71  97 137 182 226 282 352 415
#     4  10  24  43  72 100 139 177 238 282 355 415
#     4  11  22  42  65 105 138 178 231 288 344 415
#     4  10  23  41  70  99 137 179 236 283 345 412
#     4  10  21  38  68  96 138 180 226 284 355 408
#
# _framework density 22.239699000000002
#
# number of rings (size 3 to 8) (size 9 to 14) (size 15 to 20)
#    0.000    1.778    0.000    3.667   18.667    0.444 
#    4.000    0.000    0.000    0.000    0.000    0.000 
#    0.000    0.000    0.000    0.000    0.000    0.000 
#
# Total GULP energy -201016.244916 kJ/mol
# GULP energy per Si atom -5583.784581 kJ/mol
# Density = 2.218908 g / cm^3
# Si number density = 22.239699 Si / 1000 Ang^3
#
#
#
# Elastic Constant Matrix: (Units=GPa)
#
#
# Indices 1 2 3 4 5 6 
#
# 1 128.9817 30.7877 22.5497 0.0000 0.0000 0.0000
# 2 30.7877 108.7088 41.9935 0.0000 0.0000 0.0000
# 3 22.5497 41.9935 38.0425 0.0000 0.0000 0.0000
# 4 0.0000 0.0000 0.0000 15.2637 0.0000 0.0000
# 5 0.0000 0.0000 0.0000 0.0000 15.2797 0.0000
# 6 0.0000 0.0000 0.0000 0.0000 0.0000 30.1887
#
#
#
# Elastic Compliance Matrix: (Units=1/GPa)
#
#
# Indices 1 2 3 4 5 6 
#
# 1 0.008691 -0.000822 -0.004245 0.000000 0.000000 0.000000
# 2 -0.000822 0.016115 -0.017302 0.000000 0.000000 0.000000
# 3 -0.004245 -0.017302 0.047901 0.000000 0.000000 0.000000
# 4 0.000000 0.000000 0.000000 0.065515 0.000000 0.000000
# 5 0.000000 0.000000 0.000000 0.000000 0.065446 0.000000
# 6 0.000000 0.000000 0.000000 0.000000 0.000000 0.033125
#
#
# Mechanical properties :
#
#
# Convention : Reuss Voigt Hill
#
# Bulk Modulus (GPa) = 35.75106 51.82166 43.78636
# Shear Modulus (GPa) = 17.19078 24.17323 20.68200
#
# Velocity S-wave (km/s) = 2.78326 3.30045 3.05283
# Velocity P-wave (km/s) = 5.14188 6.15435 5.67076
#
# Compressibility (1/GPa) = 0.02797120
#
# Stress axis : x y z
#
# Youngs Moduli (GPa) = 115.05785 62.05320 20.87637
#
# Poissons Ratio (x) = 0.05100 0.08861
# Poissons Ratio (y) = 0.09456 0.36120
# Poissons Ratio (z) = 0.48837 1.07363
#
# Static dielectric constant tensor:
#      x y z
#    x 1.833360 0.000000 0.000000 
#    y 0.000000 1.959830 0.000000 
#    z 0.000000 0.000000 1.830390 
# 
# From -- ./inp_files/66474.got.cif
#   From: 2010.05.17/outbox.cif.g08.bks.cpg/sg70_34_cif.got.tgz:66474.got - 2010.06.03 15:57:51.
