data_PCOD9515551
_publ_section_title
;
Structure prediction by ZEFSAII (Michael W. Deem and Ramdas Pophale) SiO2 
 PCOD9515551
Probable space group: F D D D
;
_chemical_formula_sum "Si O2"
_cell_formula_units_Z 96
_cell_length_a 22.603888
_cell_length_b 14.157054
_cell_length_c 11.918819
_cell_angle_alpha 90.000000
_cell_angle_beta 90.000000
_cell_angle_gamma 90.000000
_cell_volume 3814.075274
_symmetry_space_group_name_H-M "F D D D"
_symmetry_group_IT_number 70
_space_group.IT_coordinate_system_code '2'
_symmetry_cell_setting 'orthorhombic'
loop_
_space_group_symop_operation_xyz
x,y,z
1/4-x,1/4-y,z
x,1/4-y,1/4-z
1/4-x,y,1/4-z
-x,-y,-z
3/4+x,3/4+y,-z
-x,3/4+y,3/4+z
3/4+x,-y,3/4+z
x,1/2+y,1/2+z
1/4-x,3/4-y,1/2+z
x,3/4-y,3/4-z
1/4-x,1/2+y,3/4-z
-x,1/2-y,1/2-z
3/4+x,1/4+y,1/2-z
-x,1/4+y,1/4+z
3/4+x,1/2-y,1/4+z
1/2+x,y,1/2+z
3/4-x,1/4-y,1/2+z
1/2+x,1/4-y,3/4-z
3/4-x,y,3/4-z
1/2-x,-y,1/2-z
1/4+x,3/4+y,1/2-z
1/2-x,3/4+y,1/4+z
1/4+x,-y,1/4+z
1/2+x,1/2+y,z
3/4-x,3/4-y,z
1/2+x,3/4-y,1/4-z
3/4-x,1/2+y,1/4-z
1/2-x,1/2-y,-z
1/4+x,1/4+y,-z
1/2-x,1/4+y,3/4+z
1/4+x,1/2-y,3/4+z
loop_
_atom_site_type_symbol
_atom_site_label
_atom_site_fract_x
_atom_site_fract_y
_atom_site_fract_z
Si Si1 0.449608 0.634071 0.329012
Si Si2 0.068990 0.687366 0.498647
Si Si3 0.832197 0.194136 0.038895
O O1 0.510131 0.625885 0.262418
O O2 0.442018 0.727108 0.409809
O O3 0.449843 0.548915 0.420709
O O4 0.394228 0.607724 0.248443
O O5 0.125000 0.625000 0.524986
O O6 0.086339 0.719288 0.371333
O O7 0.798830 0.125000 0.125000
#
# Coordination Sequence:
#
# PCOD9515551 Si02
#       3
#    32  32  32
#     4  10  21  41  66  98 135 173 224 278 331 402
#     4  11  22  40  69 101 133 179 225 278 337 395
#     4   9  20  41  64  94 134 173 217 276 334 397
#
# _framework density 25.169926
#
# number of rings (size 3 to 8) (size 9 to 14) (size 15 to 20)
#    0.000    2.000    0.000    3.000    0.000    0.000 
#    0.000   53.333    0.000   12.000    0.000    0.000 
#    0.000    0.000    0.000    0.000    0.000    0.000 
#
# Total GULP energy -133634.486399 kJ/mol
# GULP energy per Si atom -5568.103600 kJ/mol
# Density = 2.511264 g / cm^3
# Si number density = 25.169926 Si / 1000 Ang^3
#
#
#
# Elastic Constant Matrix: (Units=GPa)
#
#
# Indices 1 2 3 4 5 6 
#
# 1 193.6185 64.0119 45.4552 0.0000 0.0000 0.0000
# 2 64.0119 95.9420 55.8405 0.0000 0.0000 0.0000
# 3 45.4552 55.8405 182.4613 0.0000 0.0000 0.0000
# 4 0.0000 0.0000 0.0000 66.3399 0.0000 0.0000
# 5 0.0000 0.0000 0.0000 0.0000 5.7643 0.0000
# 6 0.0000 0.0000 0.0000 0.0000 0.0000 39.3691
#
#
#
# Elastic Compliance Matrix: (Units=1/GPa)
#
#
# Indices 1 2 3 4 5 6 
#
# 1 0.006646 -0.004223 -0.000363 0.000000 0.000000 0.000000
# 2 -0.004223 0.015365 -0.003650 0.000000 0.000000 0.000000
# 3 -0.000363 -0.003650 0.006688 0.000000 0.000000 0.000000
# 4 0.000000 0.000000 0.000000 0.015074 0.000000 0.000000
# 5 0.000000 0.000000 0.000000 0.000000 0.173481 0.000000
# 6 0.000000 0.000000 0.000000 0.000000 0.000000 0.025401
#
#
# Mechanical properties :
#
#
# Convention : Reuss Voigt Hill
#
# Bulk Modulus (GPa) = 81.78972 89.18188 85.48580
# Shear Modulus (GPa) = 18.99675 42.74228 30.86951
#
# Velocity S-wave (km/s) = 2.75023 4.12533 3.50586
# Velocity P-wave (km/s) = 6.53074 7.62889 7.10108
#
# Compressibility (1/GPa) = 0.01222647
#
# Stress axis : x y z
#
# Youngs Moduli (GPa) = 150.46194 65.08322 149.51543
#
# Poissons Ratio (x) = 0.27483 0.05433
# Poissons Ratio (y) = 0.63537 0.54578
# Poissons Ratio (z) = 0.05467 0.23757
#
# Static dielectric constant tensor:
#      x y z
#    x 2.018680 0.000000 0.000000 
#    y 0.000000 2.257900 0.000000 
#    z 0.000000 0.000000 2.031140 
# 
# From -- ./inp_files/15825.got.cif
#   From: 2010.05.17/outbox.cif.g08.bks.cpg/sg70_8_cif.got.tgz:15825.got - 2010.06.03 15:57:51.
