data_PCOD9515086
_publ_section_title
;
Structure prediction by ZEFSAII (Michael W. Deem and Ramdas Pophale) SiO2 
 PCOD9515086
Probable space group: F D D D
;
_chemical_formula_sum "Si O2"
_cell_formula_units_Z 160
_cell_length_a 16.400675
_cell_length_b 15.160112
_cell_length_c 24.723681
_cell_angle_alpha 90.000000
_cell_angle_beta 90.000000
_cell_angle_gamma 90.000000
_cell_volume 6147.198877
_symmetry_space_group_name_H-M "F D D D"
_symmetry_group_IT_number 70
_space_group.IT_coordinate_system_code '2'
_symmetry_cell_setting 'orthorhombic'
loop_
_space_group_symop_operation_xyz
x,y,z
1/4-x,1/4-y,z
x,1/4-y,1/4-z
1/4-x,y,1/4-z
-x,-y,-z
3/4+x,3/4+y,-z
-x,3/4+y,3/4+z
3/4+x,-y,3/4+z
x,1/2+y,1/2+z
1/4-x,3/4-y,1/2+z
x,3/4-y,3/4-z
1/4-x,1/2+y,3/4-z
-x,1/2-y,1/2-z
3/4+x,1/4+y,1/2-z
-x,1/4+y,1/4+z
3/4+x,1/2-y,1/4+z
1/2+x,y,1/2+z
3/4-x,1/4-y,1/2+z
1/2+x,1/4-y,3/4-z
3/4-x,y,3/4-z
1/2-x,-y,1/2-z
1/4+x,3/4+y,1/2-z
1/2-x,3/4+y,1/4+z
1/4+x,-y,1/4+z
1/2+x,1/2+y,z
3/4-x,3/4-y,z
1/2+x,3/4-y,1/4-z
3/4-x,1/2+y,1/4-z
1/2-x,1/2-y,-z
1/4+x,1/4+y,-z
1/2-x,1/4+y,3/4+z
1/4+x,1/2-y,3/4+z
loop_
_atom_site_type_symbol
_atom_site_label
_atom_site_fract_x
_atom_site_fract_y
_atom_site_fract_z
Si Si1 0.456989 0.332057 0.301974
Si Si2 0.651648 0.724083 0.433981
Si Si3 0.442233 0.993549 0.224319
Si Si4 0.983540 0.806194 0.696231
Si Si5 0.477516 0.285244 0.906675
O O1 0.375000 0.375000 0.323788
O O2 0.423125 0.284433 0.247754
O O3 0.514324 0.267313 0.337379
O O4 0.516486 0.412879 0.285145
O O5 0.625000 0.625000 0.417490
O O6 0.572149 0.783259 0.425640
O O7 0.361300 0.974352 0.189512
O O8 0.495538 0.907961 0.210274
O O9 0.427129 0.982518 0.288997
O O10 0.028883 0.785682 0.640865
O O11 0.000000 0.750000 0.750000
O O12 0.461339 0.375000 0.875000
#
# Coordination Sequence:
#
# PCOD9515086 Si02
#       5
#    32  32  32  32  32
#     4  10  20  39  71 104 144 185 241 311 384 448
#     4  10  21  38  67 105 134 193 246 296 379 470
#     4  11  24  43  69 104 144 184 250 312 374 464
#     4  11  26  43  68 100 142 189 249 307 373 460
#     4  12  23  44  72 102 142 200 245 311 393 453
#
# _framework density 26.028115
#
# number of rings (size 3 to 8) (size 9 to 14) (size 15 to 20)
#    0.000    1.200    6.000    1.200    2.800    0.800 
#    0.000    0.000    0.000    5.400    0.000    0.000 
#    0.000    0.000    0.000    0.000    0.000    0.000 
#
# Total GULP energy -223774.793277 kJ/mol
# GULP energy per Si atom -5594.369832 kJ/mol
# Density = 2.596887 g / cm^3
# Si number density = 26.028115 Si / 1000 Ang^3
#
#
#
# Elastic Constant Matrix: (Units=GPa)
#
#
# Indices 1 2 3 4 5 6 
#
# 1 146.2024 38.5523 18.5525 0.0000 0.0000 0.0000
# 2 38.5523 128.9832 33.6585 0.0000 0.0000 0.0000
# 3 18.5525 33.6585 144.0916 0.0000 0.0000 0.0000
# 4 0.0000 0.0000 0.0000 12.6905 0.0000 0.0000
# 5 0.0000 0.0000 0.0000 0.0000 45.7012 0.0000
# 6 0.0000 0.0000 0.0000 0.0000 0.0000 43.1487
#
#
#
# Elastic Compliance Matrix: (Units=1/GPa)
#
#
# Indices 1 2 3 4 5 6 
#
# 1 0.007455 -0.002106 -0.000468 0.000000 0.000000 0.000000
# 2 -0.002106 0.008851 -0.001796 0.000000 0.000000 0.000000
# 3 -0.000468 -0.001796 0.007420 0.000000 0.000000 0.000000
# 4 0.000000 0.000000 0.000000 0.078799 0.000000 0.000000
# 5 0.000000 0.000000 0.000000 0.000000 0.021881 0.000000
# 6 0.000000 0.000000 0.000000 0.000000 0.000000 0.023176
#
#
# Mechanical properties :
#
#
# Convention : Reuss Voigt Hill
#
# Bulk Modulus (GPa) = 66.73312 66.75597 66.74455
# Shear Modulus (GPa) = 30.99478 42.20902 36.60190
#
# Velocity S-wave (km/s) = 3.45457 4.03137 3.75406
# Velocity P-wave (km/s) = 6.45032 6.88277 6.67005
#
# Compressibility (1/GPa) = 0.01498506
#
# Stress axis : x y z
#
# Youngs Moduli (GPa) = 134.14643 112.97905 134.77292
#
# Poissons Ratio (x) = 0.23794 0.06305
# Poissons Ratio (y) = 0.28252 0.24211
# Poissons Ratio (z) = 0.06276 0.20296
#
# Static dielectric constant tensor:
#      x y z
#    x 2.180040 0.000000 0.000000 
#    y 0.000000 2.079850 0.000000 
#    z 0.000000 0.000000 2.044190 
# 
# From -- ./inp_files/59393.got.cif
#   From: 2010.05.17/outbox.cif.g08.bks.cpg/sg70_30_cif.got.tgz:59393.got - 2010.06.03 15:57:51.
