data_PCOD9515094
_publ_section_title
;
Structure prediction by ZEFSAII (Michael W. Deem and Ramdas Pophale) SiO2 
 PCOD9515094
Probable space group: F D D D
;
_chemical_formula_sum "Si O2"
_cell_formula_units_Z 168
_cell_length_a 16.568567
_cell_length_b 21.368689
_cell_length_c 19.376293
_cell_angle_alpha 90.000000
_cell_angle_beta 90.000000
_cell_angle_gamma 90.000000
_cell_volume 6860.148546
_symmetry_space_group_name_H-M "F D D D"
_symmetry_group_IT_number 70
_space_group.IT_coordinate_system_code '2'
_symmetry_cell_setting 'orthorhombic'
loop_
_space_group_symop_operation_xyz
x,y,z
1/4-x,1/4-y,z
x,1/4-y,1/4-z
1/4-x,y,1/4-z
-x,-y,-z
3/4+x,3/4+y,-z
-x,3/4+y,3/4+z
3/4+x,-y,3/4+z
x,1/2+y,1/2+z
1/4-x,3/4-y,1/2+z
x,3/4-y,3/4-z
1/4-x,1/2+y,3/4-z
-x,1/2-y,1/2-z
3/4+x,1/4+y,1/2-z
-x,1/4+y,1/4+z
3/4+x,1/2-y,1/4+z
1/2+x,y,1/2+z
3/4-x,1/4-y,1/2+z
1/2+x,1/4-y,3/4-z
3/4-x,y,3/4-z
1/2-x,-y,1/2-z
1/4+x,3/4+y,1/2-z
1/2-x,3/4+y,1/4+z
1/4+x,-y,1/4+z
1/2+x,1/2+y,z
3/4-x,3/4-y,z
1/2+x,3/4-y,1/4-z
3/4-x,1/2+y,1/4-z
1/2-x,1/2-y,-z
1/4+x,1/4+y,-z
1/2-x,1/4+y,3/4+z
1/4+x,1/2-y,3/4+z
loop_
_atom_site_type_symbol
_atom_site_label
_atom_site_fract_x
_atom_site_fract_y
_atom_site_fract_z
Si Si1 0.710316 0.654491 0.450278
Si Si2 0.253430 0.468030 0.343695
Si Si3 0.100092 0.692875 0.544657
Si Si4 0.625000 0.125000 0.125000
Si Si5 0.574418 0.919350 0.312209
Si Si6 0.862267 0.175875 0.293608
O O1 0.625000 0.625000 0.429836
O O2 0.704430 0.693856 0.522164
O O3 0.750686 0.707022 0.400547
O O4 0.771407 0.598559 0.463561
O O5 0.306046 0.427470 0.397265
O O6 0.159225 0.449265 0.335761
O O7 0.125000 0.625000 0.515020
O O8 0.125000 0.690834 0.625000
O O9 0.135508 0.756310 0.512764
O O10 0.004789 0.707768 0.544995
O O11 0.549025 0.875000 0.375000
O O12 0.588859 0.876745 0.245912
O O13 0.875000 0.177707 0.375000
#
# Coordination Sequence:
#
# PCOD9515094 Si02
#       6
#    32  32  32   8  32  32
#     4  10  20  40  61  87 125 171 208 264 323 392
#     4  10  22  35  62  92 124 164 214 265 320 392
#     4  10  20  41  67  92 129 171 224 277 324 398
#     4  12  20  36  56  96 126 160 218 260 326 388
#     4  11  21  42  66  95 123 175 221 267 334 398
#     4  10  24  42  61  96 136 169 213 280 339 391
#
# _framework density 24.489265
#
# number of rings (size 3 to 8) (size 9 to 14) (size 15 to 20)
#    0.000    1.714    3.810    1.143    1.333    0.762 
#    3.429    0.952    0.000    0.000    0.000    0.000 
#    0.000    0.000    0.000    0.000    0.000    0.000 
#
# Total GULP energy -234124.095841 kJ/mol
# GULP energy per Si atom -5574.383234 kJ/mol
# Density = 2.443353 g / cm^3
# Si number density = 24.489265 Si / 1000 Ang^3
#
#
#
# Elastic Constant Matrix: (Units=GPa)
#
#
# Indices 1 2 3 4 5 6 
#
# 1 129.7932 51.1903 7.5754 0.0000 0.0000 0.0000
# 2 51.1903 173.7362 15.7516 0.0000 0.0000 0.0000
# 3 7.5754 15.7516 49.4384 0.0000 0.0000 0.0000
# 4 0.0000 0.0000 0.0000 -5.9158 0.0000 0.0000
# 5 0.0000 0.0000 0.0000 0.0000 13.7623 0.0000
# 6 0.0000 0.0000 0.0000 0.0000 0.0000 27.2609
#
#
#
# Elastic Compliance Matrix: (Units=1/GPa)
#
#
# Indices 1 2 3 4 5 6 
#
# 1 0.008731 -0.002524 -0.000534 0.000000 0.000000 0.000000
# 2 -0.002524 0.006657 -0.001734 0.000000 0.000000 0.000000
# 3 -0.000534 -0.001734 0.020861 0.000000 0.000000 0.000000
# 4 0.000000 0.000000 0.000000 -0.169040 0.000000 0.000000
# 5 0.000000 0.000000 0.000000 0.000000 0.072662 0.000000
# 6 0.000000 0.000000 0.000000 0.000000 0.000000 0.036683
#
#
# Mechanical properties :
#
#
# Convention : Reuss Voigt Hill
#
# Bulk Modulus (GPa) = 37.50157 55.77804 46.63981
# Shear Modulus (GPa) = -1005.36727 25.58485 -489.89121
#
# Velocity S-wave (km/s) = -20.28362 3.23575 -14.15901
# Velocity P-wave (km/s) = 23.09156 6.06515 15.75490
#
# Compressibility (1/GPa) = 0.02666555
#
# Stress axis : x y z
#
# Youngs Moduli (GPa) = 114.53097 150.22174 47.93521
#
# Poissons Ratio (x) = 0.37919 0.02558
# Poissons Ratio (y) = 0.28910 0.08313
# Poissons Ratio (z) = 0.06112 0.26051
#
# Static dielectric constant tensor:
#      x y z
#    x 1.989280 0.000000 0.000000 
#    y 0.000000 2.061130 0.000000 
#    z 0.000000 0.000000 2.105360 
# 
# From -- ./inp_files/58458.got.cif
#   From: 2010.05.17/outbox.cif.g08.bks.cpg/sg70_30_cif.got.tgz:58458.got - 2010.06.03 15:57:51.
