data_PCOD9515911
_publ_section_title
;
Structure prediction by ZEFSAII (Michael W. Deem and Ramdas Pophale) SiO2 
 PCOD9515911
Probable space group: F D D D
;
_chemical_formula_sum "Si O2"
_cell_formula_units_Z 192
_cell_length_a 17.874311
_cell_length_b 15.855054
_cell_length_c 29.966931
_cell_angle_alpha 90.000000
_cell_angle_beta 90.000000
_cell_angle_gamma 90.000000
_cell_volume 8492.573290
_symmetry_space_group_name_H-M "F D D D"
_symmetry_group_IT_number 70
_space_group.IT_coordinate_system_code '2'
_symmetry_cell_setting 'orthorhombic'
loop_
_space_group_symop_operation_xyz
x,y,z
1/4-x,1/4-y,z
x,1/4-y,1/4-z
1/4-x,y,1/4-z
-x,-y,-z
3/4+x,3/4+y,-z
-x,3/4+y,3/4+z
3/4+x,-y,3/4+z
x,1/2+y,1/2+z
1/4-x,3/4-y,1/2+z
x,3/4-y,3/4-z
1/4-x,1/2+y,3/4-z
-x,1/2-y,1/2-z
3/4+x,1/4+y,1/2-z
-x,1/4+y,1/4+z
3/4+x,1/2-y,1/4+z
1/2+x,y,1/2+z
3/4-x,1/4-y,1/2+z
1/2+x,1/4-y,3/4-z
3/4-x,y,3/4-z
1/2-x,-y,1/2-z
1/4+x,3/4+y,1/2-z
1/2-x,3/4+y,1/4+z
1/4+x,-y,1/4+z
1/2+x,1/2+y,z
3/4-x,3/4-y,z
1/2+x,3/4-y,1/4-z
3/4-x,1/2+y,1/4-z
1/2-x,1/2-y,-z
1/4+x,1/4+y,-z
1/2-x,1/4+y,3/4+z
1/4+x,1/2-y,3/4+z
loop_
_atom_site_type_symbol
_atom_site_label
_atom_site_fract_x
_atom_site_fract_y
_atom_site_fract_z
Si Si1 0.524965 0.564202 0.038144
Si Si2 0.125000 0.495490 0.125000
Si Si3 0.788425 0.433794 0.628914
Si Si4 0.440198 0.002478 0.617718
Si Si5 0.625000 0.625000 0.702043
Si Si6 0.188812 0.007067 0.050913
Si Si7 0.005494 0.654984 0.269727
O O1 0.465102 0.561720 0.077858
O O2 0.602571 0.530326 0.060396
O O3 0.536153 0.660719 0.022222
O O4 0.500000 0.500000 0.000000
O O5 0.203026 0.451141 0.116585
O O6 0.142583 0.549608 0.168850
O O7 0.803923 0.345954 0.604343
O O8 0.850302 0.507117 0.623895
O O9 0.792510 0.415610 0.681957
O O10 0.500899 0.008197 0.658252
O O11 0.556953 0.606278 0.734521
O O12 0.190287 0.913331 0.029478
O O13 0.000000 0.750000 0.250000
#
# Coordination Sequence:
#
# PCOD9515911 Si02
#       7
#    32  16  32  32  16  32  32
#     4  11  25  43  67 101 135 178 233 285 350 401
#     4  11  24  42  62 100 143 178 214 293 358 408
#     4  10  23  42  68 102 134 176 239 277 348 423
#     4  10  22  42  68  97 134 180 228 281 334 424
#     4  11  24  42  62  96 140 172 232 278 342 432
#     4  10  24  44  67  99 135 178 235 280 339 426
#     4  11  22  42  70  97 132 181 227 284 344 415
#
# _framework density 22.607987999999999
#
# number of rings (size 3 to 8) (size 9 to 14) (size 15 to 20)
#    0.000    1.500    1.667    3.000    4.667    9.333 
#    6.000    0.000    0.000    0.000    0.000    0.000 
#    0.000    0.000    0.000    0.000    0.000    0.000 
#
# Total GULP energy -267306.966420 kJ/mol
# GULP energy per Si atom -5568.895134 kJ/mol
# Density = 2.255653 g / cm^3
# Si number density = 22.607988 Si / 1000 Ang^3
#
#
#
# Elastic Constant Matrix: (Units=GPa)
#
#
# Indices 1 2 3 4 5 6 
#
# 1 118.9487 21.2688 1.4758 0.0000 0.0000 0.0000
# 2 21.2688 114.6892 4.0258 0.0000 0.0000 0.0000
# 3 1.4758 4.0258 42.6306 0.0000 0.0000 0.0000
# 4 0.0000 0.0000 0.0000 20.0659 0.0000 0.0000
# 5 0.0000 0.0000 0.0000 0.0000 19.5010 0.0000
# 6 0.0000 0.0000 0.0000 0.0000 0.0000 36.4770
#
#
#
# Elastic Compliance Matrix: (Units=1/GPa)
#
#
# Indices 1 2 3 4 5 6 
#
# 1 0.008696 -0.001607 -0.000149 0.000000 0.000000 0.000000
# 2 -0.001607 0.009045 -0.000799 0.000000 0.000000 0.000000
# 3 -0.000149 -0.000799 0.023538 0.000000 0.000000 0.000000
# 4 0.000000 0.000000 0.000000 0.049836 0.000000 0.000000
# 5 0.000000 0.000000 0.000000 0.000000 0.051279 0.000000
# 6 0.000000 0.000000 0.000000 0.000000 0.000000 0.027415
#
#
# Mechanical properties :
#
#
# Convention : Reuss Voigt Hill
#
# Bulk Modulus (GPa) = 27.64799 36.64548 32.14674
# Shear Modulus (GPa) = 26.74139 31.84199 29.29169
#
# Velocity S-wave (km/s) = 3.44296 3.75699 3.60340
# Velocity P-wave (km/s) = 5.29728 5.92151 5.61807
#
# Compressibility (1/GPa) = 0.03616900
#
# Stress axis : x y z
#
# Youngs Moduli (GPa) = 114.99192 110.55412 42.48467
#
# Poissons Ratio (x) = 0.17771 0.00634
# Poissons Ratio (y) = 0.18484 0.03393
# Poissons Ratio (z) = 0.01716 0.08828
#
# Static dielectric constant tensor:
#      x y z
#    x 2.327600 0.000000 0.000000 
#    y 0.000000 1.918030 0.000000 
#    z 0.000000 0.000000 1.822040 
# 
# From -- ./inp_files/66725.got.cif
#   From: 2010.05.17/outbox.cif.g08.bks.cpg/sg70_34_cif.got.tgz:66725.got - 2010.06.03 15:57:51.
