data_PCOD9515098
_publ_section_title
;
Structure prediction by ZEFSAII (Michael W. Deem and Ramdas Pophale) SiO2 
 PCOD9515098
Probable space group: F D D D
;
_chemical_formula_sum "Si O2"
_cell_formula_units_Z 152
_cell_length_a 21.806624
_cell_length_b 13.012508
_cell_length_c 21.402229
_cell_angle_alpha 90.000000
_cell_angle_beta 90.000000
_cell_angle_gamma 90.000000
_cell_volume 6073.072301
_symmetry_space_group_name_H-M "F D D D"
_symmetry_group_IT_number 70
_space_group.IT_coordinate_system_code '2'
_symmetry_cell_setting 'orthorhombic'
loop_
_space_group_symop_operation_xyz
x,y,z
1/4-x,1/4-y,z
x,1/4-y,1/4-z
1/4-x,y,1/4-z
-x,-y,-z
3/4+x,3/4+y,-z
-x,3/4+y,3/4+z
3/4+x,-y,3/4+z
x,1/2+y,1/2+z
1/4-x,3/4-y,1/2+z
x,3/4-y,3/4-z
1/4-x,1/2+y,3/4-z
-x,1/2-y,1/2-z
3/4+x,1/4+y,1/2-z
-x,1/4+y,1/4+z
3/4+x,1/2-y,1/4+z
1/2+x,y,1/2+z
3/4-x,1/4-y,1/2+z
1/2+x,1/4-y,3/4-z
3/4-x,y,3/4-z
1/2-x,-y,1/2-z
1/4+x,3/4+y,1/2-z
1/2-x,3/4+y,1/4+z
1/4+x,-y,1/4+z
1/2+x,1/2+y,z
3/4-x,3/4-y,z
1/2+x,3/4-y,1/4-z
3/4-x,1/2+y,1/4-z
1/2-x,1/2-y,-z
1/4+x,1/4+y,-z
1/2-x,1/4+y,3/4+z
1/4+x,1/2-y,3/4+z
loop_
_atom_site_type_symbol
_atom_site_label
_atom_site_fract_x
_atom_site_fract_y
_atom_site_fract_z
Si Si1 0.286474 0.645707 0.694498
Si Si2 0.927490 0.426646 0.501931
Si Si3 0.918388 0.706273 0.181437
Si Si4 0.790604 0.557152 0.820112
Si Si5 0.875000 0.375000 0.875000
Si Si6 0.625000 0.975255 0.625000
O O1 0.263643 0.625000 0.625000
O O2 0.305129 0.531539 0.715808
O O3 0.229067 0.659525 0.739740
O O4 0.345425 0.719193 0.694978
O O5 0.875000 0.375000 0.542067
O O6 0.898286 0.465087 0.436033
O O7 0.920045 0.625000 0.125000
O O8 0.946094 0.668404 0.247626
O O9 0.968671 0.792995 0.166225
O O10 0.829633 0.453030 0.837122
O O11 0.818933 0.650040 0.858496
#
# Coordination Sequence:
#
# PCOD9515098 Si02
#       6
#    32  32  32  32   8  16
#     4  10  22  44  64  97 131 166 222 280 333 385
#     4  11  23  44  71  94 131 182 226 274 330 402
#     4  10  20  42  62  92 136 172 215 278 332 398
#     4  10  21  39  66  96 137 180 220 270 339 397
#     4  10  20  40  62 104 126 188 236 258 320 446
#     4  11  21  41  67 104 128 188 225 275 319 425
#
# _framework density 25.028517999999998
#
# number of rings (size 3 to 8) (size 9 to 14) (size 15 to 20)
#    0.000    1.684    3.158    1.579    0.000    0.000 
#   18.947    6.316    0.000    0.000    0.000    0.000 
#    0.000    0.000    0.000    0.000    0.000    0.000 
#
# Total GULP energy -212210.786516 kJ/mol
# GULP energy per Si atom -5584.494382 kJ/mol
# Density = 2.497155 g / cm^3
# Si number density = 25.028518 Si / 1000 Ang^3
#
#
#
# Elastic Constant Matrix: (Units=GPa)
#
#
# Indices 1 2 3 4 5 6 
#
# 1 184.4239 44.0581 1.0339 0.0000 0.0000 0.0000
# 2 44.0581 91.4119 35.4864 0.0000 0.0000 0.0000
# 3 1.0339 35.4864 79.1334 0.0000 0.0000 0.0000
# 4 0.0000 0.0000 0.0000 -45.5242 0.0000 0.0000
# 5 0.0000 0.0000 0.0000 0.0000 18.9821 0.0000
# 6 0.0000 0.0000 0.0000 0.0000 0.0000 37.5780
#
#
#
# Elastic Compliance Matrix: (Units=1/GPa)
#
#
# Indices 1 2 3 4 5 6 
#
# 1 0.006280 -0.003626 0.001544 0.000000 0.000000 0.000000
# 2 -0.003626 0.015339 -0.006831 0.000000 0.000000 0.000000
# 3 0.001544 -0.006831 0.015680 0.000000 0.000000 0.000000
# 4 0.000000 0.000000 0.000000 -0.021966 0.000000 0.000000
# 5 0.000000 0.000000 0.000000 0.000000 0.052681 0.000000
# 6 0.000000 0.000000 0.000000 0.000000 0.000000 0.026611
#
#
# Mechanical properties :
#
#
# Convention : Reuss Voigt Hill
#
# Bulk Modulus (GPa) = 51.35471 57.34734 54.35102
# Shear Modulus (GPa) = 42.03702 20.49991 31.26847
#
# Velocity S-wave (km/s) = 4.10270 2.86503 3.53840
# Velocity P-wave (km/s) = 6.55788 5.82298 6.20133
#
# Compressibility (1/GPa) = 0.01947241
#
# Stress axis : x y z
#
# Youngs Moduli (GPa) = 159.23809 65.19279 63.77504
#
# Poissons Ratio (x) = 0.23640 -0.09847
# Poissons Ratio (y) = 0.57742 0.43566
# Poissons Ratio (z) = -0.24587 0.44535
#
# Static dielectric constant tensor:
#      x y z
#    x 2.218230 0.000000 0.000000 
#    y 0.000000 2.002840 0.000000 
#    z 0.000000 0.000000 1.929960 
# 
# From -- ./inp_files/53568.got.cif
#   From: 2010.05.17/outbox.cif.g08.bks.cpg/sg70_27_cif.got.tgz:53568.got - 2010.06.03 15:57:51.
