data_PCOD9515347
_publ_section_title
;
Structure prediction by ZEFSAII (Michael W. Deem and Ramdas Pophale) SiO2 
 PCOD9515347
Probable space group: F D D D
;
_chemical_formula_sum "Si O2"
_cell_formula_units_Z 176
_cell_length_a 14.124399
_cell_length_b 29.428523
_cell_length_c 20.477491
_cell_angle_alpha 90.000000
_cell_angle_beta 90.000000
_cell_angle_gamma 90.000000
_cell_volume 8511.678022
_symmetry_space_group_name_H-M "F D D D"
_symmetry_group_IT_number 70
_space_group.IT_coordinate_system_code '2'
_symmetry_cell_setting 'orthorhombic'
loop_
_space_group_symop_operation_xyz
x,y,z
1/4-x,1/4-y,z
x,1/4-y,1/4-z
1/4-x,y,1/4-z
-x,-y,-z
3/4+x,3/4+y,-z
-x,3/4+y,3/4+z
3/4+x,-y,3/4+z
x,1/2+y,1/2+z
1/4-x,3/4-y,1/2+z
x,3/4-y,3/4-z
1/4-x,1/2+y,3/4-z
-x,1/2-y,1/2-z
3/4+x,1/4+y,1/2-z
-x,1/4+y,1/4+z
3/4+x,1/2-y,1/4+z
1/2+x,y,1/2+z
3/4-x,1/4-y,1/2+z
1/2+x,1/4-y,3/4-z
3/4-x,y,3/4-z
1/2-x,-y,1/2-z
1/4+x,3/4+y,1/2-z
1/2-x,3/4+y,1/4+z
1/4+x,-y,1/4+z
1/2+x,1/2+y,z
3/4-x,3/4-y,z
1/2+x,3/4-y,1/4-z
3/4-x,1/2+y,1/4-z
1/2-x,1/2-y,-z
1/4+x,1/4+y,-z
1/2-x,1/4+y,3/4+z
1/4+x,1/2-y,3/4+z
loop_
_atom_site_type_symbol
_atom_site_label
_atom_site_fract_x
_atom_site_fract_y
_atom_site_fract_z
Si Si1 0.875000 0.239830 0.875000
Si Si2 0.875000 0.875000 0.033588
Si Si3 0.125000 0.125000 0.739844
Si Si4 0.375000 0.663794 0.375000
Si Si5 0.932156 0.165411 0.972838
Si Si6 0.175047 0.055050 0.398002
Si Si7 0.726885 0.375000 0.875000
Si Si8 0.814060 0.713115 0.585363
O O1 0.938462 0.205902 0.919192
O O2 0.796239 0.270131 0.912782
O O3 0.782107 0.896451 0.999035
O O4 0.848313 0.834547 0.083754
O O5 0.140024 0.167110 0.788505
O O6 0.210207 0.118262 0.689383
O O7 0.357208 0.628486 0.434510
O O8 0.287925 0.694648 0.353666
O O9 0.858811 0.188769 0.022023
O O10 0.126909 0.006571 0.399299
O O11 0.674694 0.327800 0.863082
#
# Coordination Sequence:
#
# PCOD9515347 Si02
#       8
#    16  16  16  16  32  32  16  32
#     4  11  22  37  62  97 128 165 210 275 323 388
#     4   9  18  41  60  92 124 161 214 273 308 380
#     4  10  22  39  60  90 122 161 200 262 330 374
#     4   9  20  40  60  88 120 160 218 276 311 372
#     4  10  21  37  63  92 127 166 215 265 327 384
#     4  10  21  37  65  88 119 164 215 263 314 380
#     4  11  26  38  52  91 138 166 192 263 330 383
#     4  12  25  38  60  94 131 173 211 262 331 386
#
# _framework density 20.677475000000001
#
# number of rings (size 3 to 8) (size 9 to 14) (size 15 to 20)
#    0.000    1.636    1.818    2.727   10.182    0.000 
#    0.000    1.818    0.000    5.455    0.000    0.000 
#    0.000    0.000    0.000    0.000    0.000    0.000 
#
# Total GULP energy -245175.568218 kJ/mol
# GULP energy per Si atom -5572.172005 kJ/mol
# Density = 2.063041 g / cm^3
# Si number density = 20.677475 Si / 1000 Ang^3
#
#
#
# Elastic Constant Matrix: (Units=GPa)
#
#
# Indices 1 2 3 4 5 6 
#
# 1 129.9439 86.8926 40.6664 0.0000 0.0000 0.0000
# 2 86.8926 173.0235 29.6703 0.0000 0.0000 0.0000
# 3 40.6664 29.6703 44.8570 0.0000 0.0000 0.0000
# 4 0.0000 0.0000 0.0000 -57.7183 0.0000 0.0000
# 5 0.0000 0.0000 0.0000 0.0000 19.2604 0.0000
# 6 0.0000 0.0000 0.0000 0.0000 0.0000 22.2282
#
#
#
# Elastic Compliance Matrix: (Units=1/GPa)
#
#
# Indices 1 2 3 4 5 6 
#
# 1 0.014365 -0.005618 -0.009307 0.000000 0.000000 0.000000
# 2 -0.005618 0.008716 -0.000672 0.000000 0.000000 0.000000
# 3 -0.009307 -0.000672 0.031175 0.000000 0.000000 0.000000
# 4 0.000000 0.000000 0.000000 -0.017326 0.000000 0.000000
# 5 0.000000 0.000000 0.000000 0.000000 0.051920 0.000000
# 6 0.000000 0.000000 0.000000 0.000000 0.000000 0.044988
#
#
# Mechanical properties :
#
#
# Convention : Reuss Voigt Hill
#
# Bulk Modulus (GPa) = 43.36112 73.58699 58.47406
# Shear Modulus (GPa) = 28.94847 9.46041 19.20444
#
# Velocity S-wave (km/s) = 3.74572 2.14130 3.05086
# Velocity P-wave (km/s) = 6.30261 6.46365 6.38364
#
# Compressibility (1/GPa) = 0.02306213
#
# Stress axis : x y z
#
# Youngs Moduli (GPa) = 69.61281 114.72815 32.07688
#
# Poissons Ratio (x) = 0.64457 0.29854
# Poissons Ratio (y) = 0.39110 0.02155
# Poissons Ratio (z) = 0.64789 0.07709
#
# Static dielectric constant tensor:
#      x y z
#    x 1.830690 0.000000 0.000000 
#    y 0.000000 1.810850 0.000000 
#    z 0.000000 0.000000 1.800930 
# 
# From -- ./inp_files/29091.got.cif
#   From: 2010.05.17/outbox.cif.g08.bks.cpg/sg70_15_cif.got.tgz:29091.got - 2010.06.03 15:57:51.
