data_PCOD9515508
_publ_section_title
;
Structure prediction by ZEFSAII (Michael W. Deem and Ramdas Pophale) SiO2 
 PCOD9515508
Probable space group: F D D D
;
_chemical_formula_sum "Si O2"
_cell_formula_units_Z 200
_cell_length_a 24.554632
_cell_length_b 20.222470
_cell_length_c 18.070953
_cell_angle_alpha 90.000000
_cell_angle_beta 90.000000
_cell_angle_gamma 90.000000
_cell_volume 8973.227650
_symmetry_space_group_name_H-M "F D D D"
_symmetry_group_IT_number 70
_space_group.IT_coordinate_system_code '2'
_symmetry_cell_setting 'orthorhombic'
loop_
_space_group_symop_operation_xyz
x,y,z
1/4-x,1/4-y,z
x,1/4-y,1/4-z
1/4-x,y,1/4-z
-x,-y,-z
3/4+x,3/4+y,-z
-x,3/4+y,3/4+z
3/4+x,-y,3/4+z
x,1/2+y,1/2+z
1/4-x,3/4-y,1/2+z
x,3/4-y,3/4-z
1/4-x,1/2+y,3/4-z
-x,1/2-y,1/2-z
3/4+x,1/4+y,1/2-z
-x,1/4+y,1/4+z
3/4+x,1/2-y,1/4+z
1/2+x,y,1/2+z
3/4-x,1/4-y,1/2+z
1/2+x,1/4-y,3/4-z
3/4-x,y,3/4-z
1/2-x,-y,1/2-z
1/4+x,3/4+y,1/2-z
1/2-x,3/4+y,1/4+z
1/4+x,-y,1/4+z
1/2+x,1/2+y,z
3/4-x,3/4-y,z
1/2+x,3/4-y,1/4-z
3/4-x,1/2+y,1/4-z
1/2-x,1/2-y,-z
1/4+x,1/4+y,-z
1/2-x,1/4+y,3/4+z
1/4+x,1/2-y,3/4+z
loop_
_atom_site_type_symbol
_atom_site_label
_atom_site_fract_x
_atom_site_fract_y
_atom_site_fract_z
Si Si1 0.547360 0.210851 0.023309
Si Si2 0.576498 0.389594 0.720775
Si Si3 0.067692 0.253619 0.908884
Si Si4 0.625000 0.952316 0.625000
Si Si5 0.032315 0.641340 0.866122
Si Si6 0.358331 0.625000 0.625000
Si Si7 0.125000 0.125000 0.625000
Si Si8 0.101036 0.194802 0.228421
O O1 0.575805 0.282318 0.022304
O O2 0.490464 0.218673 0.066654
O O3 0.586424 0.165760 0.070999
O O4 0.537031 0.183106 0.940894
O O5 0.629824 0.352278 0.690489
O O6 0.528177 0.371446 0.664681
O O7 0.570491 0.364194 0.804044
O O8 0.059138 0.181672 0.870489
O O9 0.102949 0.310170 0.868374
O O10 0.099011 0.233249 0.983630
O O11 0.666619 0.005929 0.662448
O O12 0.061504 0.677717 0.796710
O O13 0.125000 0.125000 0.202870
#
# Coordination Sequence:
#
# PCOD9515508 Si02
#       8
#    32  32  32  16  32  16   8  32
#     4  11  25  48  70 104 143 185 250 301 368 441
#     4  11  26  44  69 106 144 188 236 309 362 435
#     4  10  22  44  68 101 136 189 242 295 367 431
#     4  12  22  42  64 100 142 184 234 294 358 432
#     4  10  24  45  72  99 142 190 239 304 361 436
#     4  12  23  44  70 103 143 190 238 299 374 442
#     4  12  28  44  76 110 136 198 242 306 364 432
#     4  10  21  40  67 100 133 189 234 289 362 433
#
# _framework density 22.288523999999999
#
# number of rings (size 3 to 8) (size 9 to 14) (size 15 to 20)
#    0.000    1.280    1.600    3.120    5.600    0.640 
#    8.640    2.400    0.000    0.000    0.000    0.000 
#    0.000    0.000    0.000    0.000    0.000    0.000 
#
# Total GULP energy -278839.090517 kJ/mol
# GULP energy per Si atom -5576.781810 kJ/mol
# Density = 2.223779 g / cm^3
# Si number density = 22.288524 Si / 1000 Ang^3
#
#
#
# Elastic Constant Matrix: (Units=GPa)
#
#
# Indices 1 2 3 4 5 6 
#
# 1 79.8519 53.6527 35.4571 0.0000 0.0000 0.0000
# 2 53.6527 177.4401 67.1236 0.0000 0.0000 0.0000
# 3 35.4571 67.1236 143.3017 0.0000 0.0000 0.0000
# 4 0.0000 0.0000 0.0000 42.5695 0.0000 0.0000
# 5 0.0000 0.0000 0.0000 0.0000 3.0299 0.0000
# 6 0.0000 0.0000 0.0000 0.0000 0.0000 45.4645
#
#
#
# Elastic Compliance Matrix: (Units=1/GPa)
#
#
# Indices 1 2 3 4 5 6 
#
# 1 0.016213 -0.004114 -0.002085 0.000000 0.000000 0.000000
# 2 -0.004114 0.007893 -0.002679 0.000000 0.000000 0.000000
# 3 -0.002085 -0.002679 0.008749 0.000000 0.000000 0.000000
# 4 0.000000 0.000000 0.000000 0.023491 0.000000 0.000000
# 5 0.000000 0.000000 0.000000 0.000000 0.330042 0.000000
# 6 0.000000 0.000000 0.000000 0.000000 0.000000 0.021995
#
#
# Mechanical properties :
#
#
# Convention : Reuss Voigt Hill
#
# Bulk Modulus (GPa) = 66.22648 79.22895 72.72772
# Shear Modulus (GPa) = 11.59630 34.50347 23.04988
#
# Velocity S-wave (km/s) = 2.28344 3.93878 3.21932
# Velocity P-wave (km/s) = 6.06052 7.50396 6.82053
#
# Compressibility (1/GPa) = 0.01509970
#
# Stress axis : x y z
#
# Youngs Moduli (GPa) = 61.67944 126.69230 114.29715
#
# Poissons Ratio (x) = 0.52117 0.23827
# Poissons Ratio (y) = 0.25373 0.30624
# Poissons Ratio (z) = 0.12858 0.33945
#
# Static dielectric constant tensor:
#      x y z
#    x 1.877230 0.000000 0.000000 
#    y 0.000000 1.864080 0.000000 
#    z 0.000000 0.000000 1.780880 
# 
# From -- ./inp_files/38784.got.cif
#   From: 2010.05.17/outbox.cif.g08.bks.cpg/sg70_20_cif.got.tgz:38784.got - 2010.06.03 15:57:51.
