data_PCOD9515461
_publ_section_title
;
Structure prediction by ZEFSAII (Michael W. Deem and Ramdas Pophale) SiO2 
 PCOD9515461
Probable space group: F D D D
;
_chemical_formula_sum "Si O2"
_cell_formula_units_Z 112
_cell_length_a 11.825858
_cell_length_b 15.427880
_cell_length_c 27.305610
_cell_angle_alpha 90.000000
_cell_angle_beta 90.000000
_cell_angle_gamma 90.000000
_cell_volume 4981.851698
_symmetry_space_group_name_H-M "F D D D"
_symmetry_group_IT_number 70
_space_group.IT_coordinate_system_code '2'
_symmetry_cell_setting 'orthorhombic'
loop_
_space_group_symop_operation_xyz
x,y,z
1/4-x,1/4-y,z
x,1/4-y,1/4-z
1/4-x,y,1/4-z
-x,-y,-z
3/4+x,3/4+y,-z
-x,3/4+y,3/4+z
3/4+x,-y,3/4+z
x,1/2+y,1/2+z
1/4-x,3/4-y,1/2+z
x,3/4-y,3/4-z
1/4-x,1/2+y,3/4-z
-x,1/2-y,1/2-z
3/4+x,1/4+y,1/2-z
-x,1/4+y,1/4+z
3/4+x,1/2-y,1/4+z
1/2+x,y,1/2+z
3/4-x,1/4-y,1/2+z
1/2+x,1/4-y,3/4-z
3/4-x,y,3/4-z
1/2-x,-y,1/2-z
1/4+x,3/4+y,1/2-z
1/2-x,3/4+y,1/4+z
1/4+x,-y,1/4+z
1/2+x,1/2+y,z
3/4-x,3/4-y,z
1/2+x,3/4-y,1/4-z
3/4-x,1/2+y,1/4-z
1/2-x,1/2-y,-z
1/4+x,1/4+y,-z
1/2-x,1/4+y,3/4+z
1/4+x,1/2-y,3/4+z
loop_
_atom_site_type_symbol
_atom_site_label
_atom_site_fract_x
_atom_site_fract_y
_atom_site_fract_z
Si Si1 0.993870 0.984975 0.634551
Si Si2 0.367235 0.503467 0.219874
Si Si3 0.625000 0.625000 0.294291
Si Si4 0.834382 0.559659 0.520370
O O1 0.125000 0.995101 0.625000
O O2 0.974910 0.898047 0.666983
O O3 0.918361 0.987045 0.586013
O O4 0.956954 0.058373 0.673081
O O5 0.250000 0.500000 0.250000
O O6 0.470921 0.443735 0.237315
O O7 0.404437 0.602538 0.232804
O O8 0.640289 0.535242 0.265699
#
# Coordination Sequence:
#
# PCOD9515461 Si02
#       4
#    32  32  16  32
#     4  10  21  40  60  87 126 161 206 271 312 368
#     4  12  22  35  63  93 122 163 209 262 325 378
#     4   8  22  42  56  86 127 167 206 264 310 388
#     4  10  24  37  60  90 124 165 207 263 312 388
#
# _framework density 22.4816
#
# number of rings (size 3 to 8) (size 9 to 14) (size 15 to 20)
#    1.714    0.000    2.857    1.714    4.000    2.286 
#    0.000    0.000    0.000    0.000    0.000    0.000 
#    0.000    0.000    0.000    0.000    0.000    0.000 
#
# Total GULP energy -156025.435392 kJ/mol
# GULP energy per Si atom -5572.336978 kJ/mol
# Density = 2.243043 g / cm^3
# Si number density = 22.481600 Si / 1000 Ang^3
#
#
#
# Elastic Constant Matrix: (Units=GPa)
#
#
# Indices 1 2 3 4 5 6 
#
# 1 44.0687 27.8295 38.4835 0.0000 0.0000 0.0000
# 2 27.8295 103.3608 -13.2232 0.0000 0.0000 0.0000
# 3 38.4835 -13.2232 124.6418 0.0000 0.0000 0.0000
# 4 0.0000 0.0000 0.0000 27.4986 0.0000 0.0000
# 5 0.0000 0.0000 0.0000 0.0000 39.5341 0.0000
# 6 0.0000 0.0000 0.0000 0.0000 0.0000 40.2696
#
#
#
# Elastic Compliance Matrix: (Units=1/GPa)
#
#
# Indices 1 2 3 4 5 6 
#
# 1 0.045048 -0.014100 -0.015405 0.000000 0.000000 0.000000
# 2 -0.014100 0.014221 0.005862 0.000000 0.000000 0.000000
# 3 -0.015405 0.005862 0.013401 0.000000 0.000000 0.000000
# 4 0.000000 0.000000 0.000000 0.036365 0.000000 0.000000
# 5 0.000000 0.000000 0.000000 0.000000 0.025295 0.000000
# 6 0.000000 0.000000 0.000000 0.000000 0.000000 0.024833
#
#
# Mechanical properties :
#
#
# Convention : Reuss Voigt Hill
#
# Bulk Modulus (GPa) = 39.39221 42.02788 40.71005
# Shear Modulus (GPa) = 23.26564 36.05924 29.66244
#
# Velocity S-wave (km/s) = 3.22044 4.00927 3.63631
# Velocity P-wave (km/s) = 5.60253 6.33777 5.98145
#
# Compressibility (1/GPa) = 0.02538573
#
# Stress axis : x y z
#
# Youngs Moduli (GPa) = 22.19854 70.31809 74.62080
#
# Poissons Ratio (x) = 0.99147 1.14950
# Poissons Ratio (y) = 0.31299 -0.43743
# Poissons Ratio (z) = 0.34196 -0.41221
#
# Static dielectric constant tensor:
#      x y z
#    x 1.892200 0.000000 0.000000 
#    y 0.000000 1.967230 0.000000 
#    z 0.000000 0.000000 1.825130 
# 
# From -- ./inp_files/25340.got.cif
#   From: 2010.05.17/outbox.cif.g08.bks.cpg/sg70_13_cif.got.tgz:25340.got - 2010.06.03 15:57:51.
