data_PCOD9515466
_publ_section_title
;
Structure prediction by ZEFSAII (Michael W. Deem and Ramdas Pophale) SiO2 
 PCOD9515466
Probable space group: F D D D
;
_chemical_formula_sum "Si O2"
_cell_formula_units_Z 168
_cell_length_a 26.666435
_cell_length_b 20.380252
_cell_length_c 13.735539
_cell_angle_alpha 90.000000
_cell_angle_beta 90.000000
_cell_angle_gamma 90.000000
_cell_volume 7464.835047
_symmetry_space_group_name_H-M "F D D D"
_symmetry_group_IT_number 70
_space_group.IT_coordinate_system_code '2'
_symmetry_cell_setting 'orthorhombic'
loop_
_space_group_symop_operation_xyz
x,y,z
1/4-x,1/4-y,z
x,1/4-y,1/4-z
1/4-x,y,1/4-z
-x,-y,-z
3/4+x,3/4+y,-z
-x,3/4+y,3/4+z
3/4+x,-y,3/4+z
x,1/2+y,1/2+z
1/4-x,3/4-y,1/2+z
x,3/4-y,3/4-z
1/4-x,1/2+y,3/4-z
-x,1/2-y,1/2-z
3/4+x,1/4+y,1/2-z
-x,1/4+y,1/4+z
3/4+x,1/2-y,1/4+z
1/2+x,y,1/2+z
3/4-x,1/4-y,1/2+z
1/2+x,1/4-y,3/4-z
3/4-x,y,3/4-z
1/2-x,-y,1/2-z
1/4+x,3/4+y,1/2-z
1/2-x,3/4+y,1/4+z
1/4+x,-y,1/4+z
1/2+x,1/2+y,z
3/4-x,3/4-y,z
1/2+x,3/4-y,1/4-z
3/4-x,1/2+y,1/4-z
1/2-x,1/2-y,-z
1/4+x,1/4+y,-z
1/2-x,1/4+y,3/4+z
1/4+x,1/2-y,3/4+z
loop_
_atom_site_type_symbol
_atom_site_label
_atom_site_fract_x
_atom_site_fract_y
_atom_site_fract_z
Si Si1 0.256089 0.694995 0.374094
Si Si2 0.125000 0.625000 0.125000
Si Si3 0.258022 0.198407 0.412358
Si Si4 0.684716 0.560474 0.192771
Si Si5 0.921277 0.491470 0.761637
Si Si6 0.854831 0.301659 0.142925
O O1 0.263829 0.628424 0.314017
O O2 0.302132 0.743101 0.388906
O O3 0.230205 0.679050 0.478763
O O4 0.215089 0.736243 0.316249
O O5 0.089364 0.576816 0.184369
O O6 0.250000 0.250000 0.500000
O O7 0.306723 0.213586 0.346449
O O8 0.204890 0.201667 0.353821
O O9 0.682005 0.625000 0.125000
O O10 0.635185 0.545911 0.256822
O O11 0.872961 0.498607 0.691617
O O12 0.875000 0.375000 0.113002
#
# Coordination Sequence:
#
# PCOD9515466 Si02
#       6
#    32   8  32  32  32  32
#     4  10  21  40  62 104 140 174 236 287 354 427
#     4  12  20  40  72  92 122 200 226 284 344 428
#     4  12  24  41  72 104 138 184 241 301 359 434
#     4  10  21  40  70  99 136 187 227 292 351 431
#     4  11  21  38  69  96 135 177 237 286 346 423
#     4  11  22  45  67 101 134 183 245 285 347 455
#
# _framework density 22.505521000000002
#
# number of rings (size 3 to 8) (size 9 to 14) (size 15 to 20)
#    0.000    1.143    4.762    3.429    0.000    0.381 
#    0.000    0.000   20.952    0.000    0.000    0.000 
#    0.000    0.000    0.000    0.000    0.000    0.000 
#
# Total GULP energy -234262.343039 kJ/mol
# GULP energy per Si atom -5577.674834 kJ/mol
# Density = 2.245430 g / cm^3
# Si number density = 22.505521 Si / 1000 Ang^3
#
#
#
# Elastic Constant Matrix: (Units=GPa)
#
#
# Indices 1 2 3 4 5 6 
#
# 1 95.5814 29.4647 27.5464 0.0000 0.0000 0.0000
# 2 29.4647 76.6730 27.8478 0.0000 0.0000 0.0000
# 3 27.5464 27.8478 81.9264 0.0000 0.0000 0.0000
# 4 0.0000 0.0000 0.0000 37.3810 0.0000 0.0000
# 5 0.0000 0.0000 0.0000 0.0000 30.8073 0.0000
# 6 0.0000 0.0000 0.0000 0.0000 0.0000 33.1262
#
#
#
# Elastic Compliance Matrix: (Units=1/GPa)
#
#
# Indices 1 2 3 4 5 6 
#
# 1 0.012452 -0.003724 -0.002921 0.000000 0.000000 0.000000
# 2 -0.003724 0.015993 -0.004184 0.000000 0.000000 0.000000
# 3 -0.002921 -0.004184 0.014610 0.000000 0.000000 0.000000
# 4 0.000000 0.000000 0.000000 0.026752 0.000000 0.000000
# 5 0.000000 0.000000 0.000000 0.000000 0.032460 0.000000
# 6 0.000000 0.000000 0.000000 0.000000 0.000000 0.030188
#
#
# Mechanical properties :
#
#
# Convention : Reuss Voigt Hill
#
# Bulk Modulus (GPa) = 46.73503 47.09986 46.91744
# Shear Modulus (GPa) = 31.00851 31.55100 31.27975
#
# Velocity S-wave (km/s) = 3.71592 3.74829 3.73214
# Velocity P-wave (km/s) = 6.26274 6.30131 6.28205
#
# Compressibility (1/GPa) = 0.02139723
#
# Stress axis : x y z
#
# Youngs Moduli (GPa) = 80.30719 62.52614 68.44440
#
# Poissons Ratio (x) = 0.23287 0.19992
# Poissons Ratio (y) = 0.29909 0.28638
# Poissons Ratio (z) = 0.23457 0.26161
#
# Static dielectric constant tensor:
#      x y z
#    x 1.866890 0.000000 0.000000 
#    y 0.000000 1.851680 0.000000 
#    z 0.000000 0.000000 2.220040 
# 
# From -- ./inp_files/29872.got.cif
#   From: 2010.05.17/outbox.cif.g08.bks.cpg/sg70_15_cif.got.tgz:29872.got - 2010.06.03 15:57:51.
