data_PCOD9515748
_publ_section_title
;
Structure prediction by ZEFSAII (Michael W. Deem and Ramdas Pophale) SiO2 
 PCOD9515748
Probable space group: F D D D
;
_chemical_formula_sum "Si O2"
_cell_formula_units_Z 168
_cell_length_a 23.343334
_cell_length_b 18.978540
_cell_length_c 16.796321
_cell_angle_alpha 90.000000
_cell_angle_beta 90.000000
_cell_angle_gamma 90.000000
_cell_volume 7441.146408
_symmetry_space_group_name_H-M "F D D D"
_symmetry_group_IT_number 70
_space_group.IT_coordinate_system_code '2'
_symmetry_cell_setting 'orthorhombic'
loop_
_space_group_symop_operation_xyz
x,y,z
1/4-x,1/4-y,z
x,1/4-y,1/4-z
1/4-x,y,1/4-z
-x,-y,-z
3/4+x,3/4+y,-z
-x,3/4+y,3/4+z
3/4+x,-y,3/4+z
x,1/2+y,1/2+z
1/4-x,3/4-y,1/2+z
x,3/4-y,3/4-z
1/4-x,1/2+y,3/4-z
-x,1/2-y,1/2-z
3/4+x,1/4+y,1/2-z
-x,1/4+y,1/4+z
3/4+x,1/2-y,1/4+z
1/2+x,y,1/2+z
3/4-x,1/4-y,1/2+z
1/2+x,1/4-y,3/4-z
3/4-x,y,3/4-z
1/2-x,-y,1/2-z
1/4+x,3/4+y,1/2-z
1/2-x,3/4+y,1/4+z
1/4+x,-y,1/4+z
1/2+x,1/2+y,z
3/4-x,3/4-y,z
1/2+x,3/4-y,1/4-z
3/4-x,1/2+y,1/4-z
1/2-x,1/2-y,-z
1/4+x,1/4+y,-z
1/2-x,1/4+y,3/4+z
1/4+x,1/2-y,3/4+z
loop_
_atom_site_type_symbol
_atom_site_label
_atom_site_fract_x
_atom_site_fract_y
_atom_site_fract_z
Si Si1 0.476055 0.926217 0.605879
Si Si2 0.192044 0.425340 0.506428
Si Si3 0.375000 0.375000 0.875000
Si Si4 0.668961 0.746558 0.026429
Si Si5 0.796892 0.769391 0.610031
Si Si6 0.167872 0.983980 0.698666
O O1 0.497931 0.934482 0.696774
O O2 0.429880 0.978107 0.566560
O O3 0.456442 0.845357 0.597059
O O4 0.533120 0.948242 0.555666
O O5 0.143765 0.474867 0.543084
O O6 0.192070 0.453647 0.417265
O O7 0.169474 0.347232 0.522770
O O8 0.332477 0.327847 0.928660
O O9 0.836974 0.775680 0.531921
O O10 0.732022 0.753880 0.582057
O O11 0.125000 0.995572 0.625000
#
# Coordination Sequence:
#
# PCOD9515748 Si02
#       6
#    32  32   8  32  32  32
#     4  10  22  39  59  94 135 166 223 269 332 405
#     4  11  20  40  64  92 130 172 215 280 337 404
#     4  12  20  36  64  92 128 176 224 272 352 412
#     4  11  22  37  62  93 131 179 213 274 345 409
#     4  10  22  39  65  96 129 173 222 277 337 408
#     4  10  22  42  68  94 129 172 227 277 338 400
#
# _framework density 22.577165999999998
#
# number of rings (size 3 to 8) (size 9 to 14) (size 15 to 20)
#    0.000    1.524    1.905    4.000    0.000    1.524 
#    0.000    3.810    0.000   13.714    0.000    0.000 
#    0.000    0.000    0.000    0.000    0.000    0.000 
#
# Total GULP energy -234270.500117 kJ/mol
# GULP energy per Si atom -5577.869050 kJ/mol
# Density = 2.252578 g / cm^3
# Si number density = 22.577166 Si / 1000 Ang^3
#
#
#
# Elastic Constant Matrix: (Units=GPa)
#
#
# Indices 1 2 3 4 5 6 
#
# 1 51.4947 18.8327 32.5030 0.0000 0.0000 0.0000
# 2 18.8327 75.7724 45.8437 0.0000 0.0000 0.0000
# 3 32.5030 45.8437 109.8505 0.0000 0.0000 0.0000
# 4 0.0000 0.0000 0.0000 30.6374 0.0000 0.0000
# 5 0.0000 0.0000 0.0000 0.0000 25.4073 0.0000
# 6 0.0000 0.0000 0.0000 0.0000 0.0000 20.1154
#
#
#
# Elastic Compliance Matrix: (Units=1/GPa)
#
#
# Indices 1 2 3 4 5 6 
#
# 1 0.024162 -0.002247 -0.006211 0.000000 0.000000 0.000000
# 2 -0.002247 0.017864 -0.006790 0.000000 0.000000 0.000000
# 3 -0.006211 -0.006790 0.013775 0.000000 0.000000 0.000000
# 4 0.000000 0.000000 0.000000 0.032640 0.000000 0.000000
# 5 0.000000 0.000000 0.000000 0.000000 0.039359 0.000000
# 6 0.000000 0.000000 0.000000 0.000000 0.000000 0.049713
#
#
# Mechanical properties :
#
#
# Convention : Reuss Voigt Hill
#
# Bulk Modulus (GPa) = 39.52067 47.94180 43.73124
# Shear Modulus (GPa) = 23.10059 24.56124 23.83091
#
# Velocity S-wave (km/s) = 3.20219 3.30188 3.25242
# Velocity P-wave (km/s) = 5.58702 5.98475 5.78930
#
# Compressibility (1/GPa) = 0.02530322
#
# Stress axis : x y z
#
# Youngs Moduli (GPa) = 41.38764 55.97777 72.59605
#
# Poissons Ratio (x) = 0.12580 0.45091
# Poissons Ratio (y) = 0.09301 0.49295
# Poissons Ratio (z) = 0.25707 0.38011
#
# Static dielectric constant tensor:
#      x y z
#    x 1.835360 0.000000 0.000000 
#    y 0.000000 1.846070 0.000000 
#    z 0.000000 0.000000 1.968980 
# 
# From -- ./inp_files/29851.got.cif
#   From: 2010.05.17/outbox.cif.g08.bks.cpg/sg70_15_cif.got.tgz:29851.got - 2010.06.03 15:57:51.
