data_PCOD9515399
_publ_section_title
;
Structure prediction by ZEFSAII (Michael W. Deem and Ramdas Pophale) SiO2 
 PCOD9515399
Probable space group: F D D D
;
_chemical_formula_sum "Si O2"
_cell_formula_units_Z 160
_cell_length_a 24.503652
_cell_length_b 11.600207
_cell_length_c 24.345972
_cell_angle_alpha 90.000000
_cell_angle_beta 90.000000
_cell_angle_gamma 90.000000
_cell_volume 6920.280105
_symmetry_space_group_name_H-M "F D D D"
_symmetry_group_IT_number 70
_space_group.IT_coordinate_system_code '2'
_symmetry_cell_setting 'orthorhombic'
loop_
_space_group_symop_operation_xyz
x,y,z
1/4-x,1/4-y,z
x,1/4-y,1/4-z
1/4-x,y,1/4-z
-x,-y,-z
3/4+x,3/4+y,-z
-x,3/4+y,3/4+z
3/4+x,-y,3/4+z
x,1/2+y,1/2+z
1/4-x,3/4-y,1/2+z
x,3/4-y,3/4-z
1/4-x,1/2+y,3/4-z
-x,1/2-y,1/2-z
3/4+x,1/4+y,1/2-z
-x,1/4+y,1/4+z
3/4+x,1/2-y,1/4+z
1/2+x,y,1/2+z
3/4-x,1/4-y,1/2+z
1/2+x,1/4-y,3/4-z
3/4-x,y,3/4-z
1/2-x,-y,1/2-z
1/4+x,3/4+y,1/2-z
1/2-x,3/4+y,1/4+z
1/4+x,-y,1/4+z
1/2+x,1/2+y,z
3/4-x,3/4-y,z
1/2+x,3/4-y,1/4-z
3/4-x,1/2+y,1/4-z
1/2-x,1/2-y,-z
1/4+x,1/4+y,-z
1/2-x,1/4+y,3/4+z
1/4+x,1/2-y,3/4+z
loop_
_atom_site_type_symbol
_atom_site_label
_atom_site_fract_x
_atom_site_fract_y
_atom_site_fract_z
Si Si1 0.687290 0.661364 0.686609
Si Si2 0.990089 0.892324 0.666680
Si Si3 0.498476 0.847997 0.043783
Si Si4 0.053784 0.399120 0.435385
Si Si5 0.599456 0.507247 0.248501
O O1 0.625000 0.625000 0.694961
O O2 0.703090 0.625000 0.625000
O O3 0.703979 0.795790 0.683588
O O4 0.721897 0.608135 0.736962
O O5 0.987612 0.756810 0.680130
O O6 0.941562 0.950207 0.702320
O O7 0.981875 0.905659 0.601111
O O8 0.475844 0.717143 0.048287
O O9 0.563103 0.826578 0.038949
O O10 0.077510 0.375000 0.375000
O O11 0.101888 0.437332 0.474492
O O12 0.625000 0.625000 0.223613
#
# Coordination Sequence:
#
# PCOD9515399 Si02
#       5
#    32  32  32  32  32
#     4  10  23  39  54  83 121 157 197 236 288 356
#     4   9  20  39  59  84 120 152 195 252 293 345
#     4  10  21  38  64  88 116 157 197 243 301 357
#     4   9  19  37  63  90 112 149 202 251 299 346
#     4   9  19  33  54  86 119 148 187 239 288 341
#
# _framework density 23.120450999999999
#
# number of rings (size 3 to 8) (size 9 to 14) (size 15 to 20)
#    0.000    2.600    0.000    0.000    0.000   18.400 
#    0.000    0.000    0.000   11.400    0.000    0.000 
#    0.000    0.000    0.000    0.000    0.000    0.000 
#
# Total GULP energy -223424.230227 kJ/mol
# GULP energy per Si atom -5585.605756 kJ/mol
# Density = 2.306783 g / cm^3
# Si number density = 23.120451 Si / 1000 Ang^3
#
#
#
# Elastic Constant Matrix: (Units=GPa)
#
#
# Indices 1 2 3 4 5 6 
#
# 1 83.1313 34.6736 8.1170 0.0000 0.0000 0.0000
# 2 34.6736 45.0838 -12.7513 0.0000 0.0000 0.0000
# 3 8.1170 -12.7513 106.6255 0.0000 0.0000 0.0000
# 4 0.0000 0.0000 0.0000 18.4193 0.0000 0.0000
# 5 0.0000 0.0000 0.0000 0.0000 6.8201 0.0000
# 6 0.0000 0.0000 0.0000 0.0000 0.0000 33.2165
#
#
#
# Elastic Compliance Matrix: (Units=1/GPa)
#
#
# Indices 1 2 3 4 5 6 
#
# 1 0.018746 -0.015340 -0.003261 0.000000 0.000000 0.000000
# 2 -0.015340 0.035510 0.005414 0.000000 0.000000 0.000000
# 3 -0.003261 0.005414 0.010274 0.000000 0.000000 0.000000
# 4 0.000000 0.000000 0.000000 0.054291 0.000000 0.000000
# 5 0.000000 0.000000 0.000000 0.000000 0.146626 0.000000
# 6 0.000000 0.000000 0.000000 0.000000 0.000000 0.030106
#
#
# Mechanical properties :
#
#
# Convention : Reuss Voigt Hill
#
# Bulk Modulus (GPa) = 26.20791 32.76882 29.48837
# Shear Modulus (GPa) = 14.94123 25.34460 20.14292
#
# Velocity S-wave (km/s) = 2.54487 3.31448 2.95484
# Velocity P-wave (km/s) = 4.47159 5.37137 4.94200
#
# Compressibility (1/GPa) = 0.03815641
#
# Stress axis : x y z
#
# Youngs Moduli (GPa) = 53.34558 28.16116 97.32929
#
# Poissons Ratio (x) = 0.43198 0.31744
# Poissons Ratio (y) = 0.81830 -0.52697
# Poissons Ratio (z) = 0.17399 -0.15247
#
# Static dielectric constant tensor:
#      x y z
#    x 1.837520 0.000000 0.000000 
#    y 0.000000 1.921140 0.000000 
#    z 0.000000 0.000000 1.914410 
# 
# From -- ./inp_files/20831.got.cif
#   From: 2010.05.17/outbox.cif.g08.bks.cpg/sg70_11_cif.got.tgz:20831.got - 2010.06.03 15:57:51.
