data_PCOD9515032
_publ_section_title
;
Structure prediction by ZEFSAII (Michael W. Deem and Ramdas Pophale) SiO2 
 PCOD9515032
Probable space group: F D D D
;
_chemical_formula_sum "Si O2"
_cell_formula_units_Z 160
_cell_length_a 25.723792
_cell_length_b 12.494499
_cell_length_c 20.920408
_cell_angle_alpha 90.000000
_cell_angle_beta 90.000000
_cell_angle_gamma 90.000000
_cell_volume 6723.942424
_symmetry_space_group_name_H-M "F D D D"
_symmetry_group_IT_number 70
_space_group.IT_coordinate_system_code '2'
_symmetry_cell_setting 'orthorhombic'
loop_
_space_group_symop_operation_xyz
x,y,z
1/4-x,1/4-y,z
x,1/4-y,1/4-z
1/4-x,y,1/4-z
-x,-y,-z
3/4+x,3/4+y,-z
-x,3/4+y,3/4+z
3/4+x,-y,3/4+z
x,1/2+y,1/2+z
1/4-x,3/4-y,1/2+z
x,3/4-y,3/4-z
1/4-x,1/2+y,3/4-z
-x,1/2-y,1/2-z
3/4+x,1/4+y,1/2-z
-x,1/4+y,1/4+z
3/4+x,1/2-y,1/4+z
1/2+x,y,1/2+z
3/4-x,1/4-y,1/2+z
1/2+x,1/4-y,3/4-z
3/4-x,y,3/4-z
1/2-x,-y,1/2-z
1/4+x,3/4+y,1/2-z
1/2-x,3/4+y,1/4+z
1/4+x,-y,1/4+z
1/2+x,1/2+y,z
3/4-x,3/4-y,z
1/2+x,3/4-y,1/4-z
3/4-x,1/2+y,1/4-z
1/2-x,1/2-y,-z
1/4+x,1/4+y,-z
1/2-x,1/4+y,3/4+z
1/4+x,1/2-y,3/4+z
loop_
_atom_site_type_symbol
_atom_site_label
_atom_site_fract_x
_atom_site_fract_y
_atom_site_fract_z
Si Si1 0.830215 0.088281 0.012799
Si Si2 0.375000 0.375000 0.765298
Si Si3 0.721641 0.385991 0.118701
Si Si4 0.711276 0.625000 0.125000
Si Si5 0.287877 0.941371 0.940427
Si Si6 0.671481 0.066713 0.312319
O O1 0.772190 0.062802 0.037863
O O2 0.845133 0.196417 0.047889
O O3 0.820934 0.112674 0.937600
O O4 0.867101 0.986702 0.020596
O O5 0.325385 0.379441 0.812486
O O6 0.738488 0.509542 0.126763
O O7 0.699939 0.316303 0.177298
O O8 0.772685 0.322062 0.095873
O O9 0.296150 0.875000 0.875000
O O10 0.318649 0.882683 0.996694
O O11 0.625000 0.125000 0.347966
#
# Coordination Sequence:
#
# PCOD9515032 Si02
#       6
#    32  16  32  16  32  32
#     4  10  20  39  58  83 124 151 191 247 297 344
#     4   9  20  38  58  90 118 154 196 244 285 346
#     4  10  20  41  59  83 118 157 196 238 302 358
#     4   9  20  38  64  84 118 160 194 240 290 355
#     4  11  19  38  63  82 110 162 195 234 306 351
#     4  11  23  37  58  89 121 145 194 262 288 342
#
# _framework density 23.795563000000001
#
# number of rings (size 3 to 8) (size 9 to 14) (size 15 to 20)
#    0.000    1.800    4.000    1.200    2.800    0.400 
#    5.400    3.000    0.000    0.000    0.000    0.000 
#    0.000    0.000    0.000    0.000    0.000    0.000 
#
# Total GULP energy -223658.722063 kJ/mol
# GULP energy per Si atom -5591.468052 kJ/mol
# Density = 2.374140 g / cm^3
# Si number density = 23.795563 Si / 1000 Ang^3
#
#
#
# Elastic Constant Matrix: (Units=GPa)
#
#
# Indices 1 2 3 4 5 6 
#
# 1 52.6405 37.1246 4.4064 0.0000 0.0000 0.0000
# 2 37.1246 228.7039 31.7577 0.0000 0.0000 0.0000
# 3 4.4064 31.7577 62.7218 0.0000 0.0000 0.0000
# 4 0.0000 0.0000 0.0000 28.9705 0.0000 0.0000
# 5 0.0000 0.0000 0.0000 0.0000 -15.6861 0.0000
# 6 0.0000 0.0000 0.0000 0.0000 0.0000 37.3236
#
#
#
# Elastic Compliance Matrix: (Units=1/GPa)
#
#
# Indices 1 2 3 4 5 6 
#
# 1 0.021457 -0.003521 0.000276 0.000000 0.000000 0.000000
# 2 -0.003521 0.005281 -0.002427 0.000000 0.000000 0.000000
# 3 0.000276 -0.002427 0.017153 0.000000 0.000000 0.000000
# 4 0.000000 0.000000 0.000000 0.034518 0.000000 0.000000
# 5 0.000000 0.000000 0.000000 0.000000 -0.063751 0.000000
# 6 0.000000 0.000000 0.000000 0.000000 0.000000 0.026793
#
#
# Mechanical properties :
#
#
# Convention : Reuss Voigt Hill
#
# Bulk Modulus (GPa) = 30.72559 54.51593 42.62076
# Shear Modulus (GPa) = 78.56209 28.17345 53.36777
#
# Velocity S-wave (km/s) = 5.75214 3.44463 4.74092
# Velocity P-wave (km/s) = 7.55358 6.22740 6.92232
#
# Compressibility (1/GPa) = 0.03254616
#
# Stress axis : x y z
#
# Youngs Moduli (GPa) = 46.60455 189.35757 58.29994
#
# Poissons Ratio (x) = 0.66679 -0.01606
# Poissons Ratio (y) = 0.16411 0.14147
# Poissons Ratio (z) = -0.01284 0.45948
#
# Static dielectric constant tensor:
#      x y z
#    x 1.884000 0.000000 0.000000 
#    y 0.000000 1.950620 0.000000 
#    z 0.000000 0.000000 1.936580 
# 
# From -- ./inp_files/21109.got.cif
#   From: 2010.05.17/outbox.cif.g08.bks.cpg/sg70_11_cif.got.tgz:21109.got - 2010.06.03 15:57:51.
