data_PCOD9515793
_publ_section_title
;
Structure prediction by ZEFSAII (Michael W. Deem and Ramdas Pophale) SiO2 
 PCOD9515793
Probable space group: F D D D
;
_chemical_formula_sum "Si O2"
_cell_formula_units_Z 128
_cell_length_a 13.614767
_cell_length_b 20.908782
_cell_length_c 22.055521
_cell_angle_alpha 90.000000
_cell_angle_beta 90.000000
_cell_angle_gamma 90.000000
_cell_volume 6278.505357
_symmetry_space_group_name_H-M "F D D D"
_symmetry_group_IT_number 70
_space_group.IT_coordinate_system_code '2'
_symmetry_cell_setting 'orthorhombic'
loop_
_space_group_symop_operation_xyz
x,y,z
1/4-x,1/4-y,z
x,1/4-y,1/4-z
1/4-x,y,1/4-z
-x,-y,-z
3/4+x,3/4+y,-z
-x,3/4+y,3/4+z
3/4+x,-y,3/4+z
x,1/2+y,1/2+z
1/4-x,3/4-y,1/2+z
x,3/4-y,3/4-z
1/4-x,1/2+y,3/4-z
-x,1/2-y,1/2-z
3/4+x,1/4+y,1/2-z
-x,1/4+y,1/4+z
3/4+x,1/2-y,1/4+z
1/2+x,y,1/2+z
3/4-x,1/4-y,1/2+z
1/2+x,1/4-y,3/4-z
3/4-x,y,3/4-z
1/2-x,-y,1/2-z
1/4+x,3/4+y,1/2-z
1/2-x,3/4+y,1/4+z
1/4+x,-y,1/4+z
1/2+x,1/2+y,z
3/4-x,3/4-y,z
1/2+x,3/4-y,1/4-z
3/4-x,1/2+y,1/4-z
1/2-x,1/2-y,-z
1/4+x,1/4+y,-z
1/2-x,1/4+y,3/4+z
1/4+x,1/2-y,3/4+z
loop_
_atom_site_type_symbol
_atom_site_label
_atom_site_fract_x
_atom_site_fract_y
_atom_site_fract_z
Si Si1 0.375000 0.672419 0.875000
Si Si2 0.875000 0.375000 0.375000
Si Si3 0.228287 0.771366 0.431967
Si Si4 0.526814 0.669147 0.424307
Si Si5 0.999905 0.275774 0.947254
Si Si6 0.125000 0.125000 0.625000
O O1 0.435997 0.629745 0.827809
O O2 0.296886 0.714118 0.836168
O O3 0.802614 0.422046 0.337243
O O4 0.250000 0.750000 0.500000
O O5 0.235481 0.712017 0.385623
O O6 0.113050 0.787175 0.431849
O O7 0.625000 0.625000 0.425240
O O8 0.519376 0.717543 0.481027
O O9 0.940869 0.332950 0.917825
#
# Coordination Sequence:
#
# PCOD9515793 Si02
#       6
#    16   8  32  32  32   8
#     4  11  25  45  72 103 147 185 244 300 358 433
#     4  12  28  48  72 106 150 188 238 296 360 442
#     4  12  27  46  72 103 144 191 239 293 365 431
#     4  12  25  46  72 107 144 192 241 299 365 432
#     4  11  24  43  70 101 139 186 239 297 360 421
#     4  10  22  40  64 102 132 178 234 292 352 420
#
# _framework density 20.387018000000001
#
# number of rings (size 3 to 8) (size 9 to 14) (size 15 to 20)
#    0.000    0.500    3.750    4.500    1.750    9.000 
#    0.000    0.000    0.000    0.000    0.000    0.000 
#    0.000    0.000    0.000    0.000    0.000    0.000 
#
# Total GULP energy -178838.934281 kJ/mol
# GULP energy per Si atom -5588.716696 kJ/mol
# Density = 2.034062 g / cm^3
# Si number density = 20.387018 Si / 1000 Ang^3
#
#
#
# Elastic Constant Matrix: (Units=GPa)
#
#
# Indices 1 2 3 4 5 6 
#
# 1 179.4945 58.2786 39.4485 0.0000 0.0000 0.0000
# 2 58.2786 86.5189 47.8738 0.0000 0.0000 0.0000
# 3 39.4485 47.8738 142.6930 0.0000 0.0000 0.0000
# 4 0.0000 0.0000 0.0000 34.2279 0.0000 0.0000
# 5 0.0000 0.0000 0.0000 0.0000 25.2684 0.0000
# 6 0.0000 0.0000 0.0000 0.0000 0.0000 62.1861
#
#
#
# Elastic Compliance Matrix: (Units=1/GPa)
#
#
# Indices 1 2 3 4 5 6 
#
# 1 0.007153 -0.004573 -0.000443 0.000000 0.000000 0.000000
# 2 -0.004573 0.017117 -0.004478 0.000000 0.000000 0.000000
# 3 -0.000443 -0.004478 0.008633 0.000000 0.000000 0.000000
# 4 0.000000 0.000000 0.000000 0.029216 0.000000 0.000000
# 5 0.000000 0.000000 0.000000 0.000000 0.039575 0.000000
# 6 0.000000 0.000000 0.000000 0.000000 0.000000 0.016081
#
#
# Mechanical properties :
#
#
# Convention : Reuss Voigt Hill
#
# Bulk Modulus (GPa) = 71.87290 77.76757 74.82023
# Shear Modulus (GPa) = 35.35998 41.87685 38.61841
#
# Velocity S-wave (km/s) = 4.16917 4.53713 4.35704
# Velocity P-wave (km/s) = 7.64897 8.10406 7.87980
#
# Compressibility (1/GPa) = 0.01391345
#
# Stress axis : x y z
#
# Youngs Moduli (GPa) = 139.79207 58.42240 115.83310
#
# Poissons Ratio (x) = 0.26718 0.05135
# Poissons Ratio (y) = 0.63930 0.51874
# Poissons Ratio (z) = 0.06197 0.26164
#
# Static dielectric constant tensor:
#      x y z
#    x 1.672520 0.000000 0.000000 
#    y 0.000000 1.709270 0.000000 
#    z 0.000000 0.000000 1.766050 
# 
# From -- ./inp_files/42584.got.cif
#   From: 2010.05.17/outbox.cif.g08.bks.cpg/sg70_22_cif.got.tgz:42584.got - 2010.06.03 15:57:51.
