data_PCOD9515810
_publ_section_title
;
Structure prediction by ZEFSAII (Michael W. Deem and Ramdas Pophale) SiO2 
 PCOD9515810
Probable space group: F D D D
;
_chemical_formula_sum "Si O2"
_cell_formula_units_Z 176
_cell_length_a 12.772895
_cell_length_b 32.273327
_cell_length_c 21.129350
_cell_angle_alpha 90.000000
_cell_angle_beta 90.000000
_cell_angle_gamma 90.000000
_cell_volume 8710.021309
_symmetry_space_group_name_H-M "F D D D"
_symmetry_group_IT_number 70
_space_group.IT_coordinate_system_code '2'
_symmetry_cell_setting 'orthorhombic'
loop_
_space_group_symop_operation_xyz
x,y,z
1/4-x,1/4-y,z
x,1/4-y,1/4-z
1/4-x,y,1/4-z
-x,-y,-z
3/4+x,3/4+y,-z
-x,3/4+y,3/4+z
3/4+x,-y,3/4+z
x,1/2+y,1/2+z
1/4-x,3/4-y,1/2+z
x,3/4-y,3/4-z
1/4-x,1/2+y,3/4-z
-x,1/2-y,1/2-z
3/4+x,1/4+y,1/2-z
-x,1/4+y,1/4+z
3/4+x,1/2-y,1/4+z
1/2+x,y,1/2+z
3/4-x,1/4-y,1/2+z
1/2+x,1/4-y,3/4-z
3/4-x,y,3/4-z
1/2-x,-y,1/2-z
1/4+x,3/4+y,1/2-z
1/2-x,3/4+y,1/4+z
1/4+x,-y,1/4+z
1/2+x,1/2+y,z
3/4-x,3/4-y,z
1/2+x,3/4-y,1/4-z
3/4-x,1/2+y,1/4-z
1/2-x,1/2-y,-z
1/4+x,1/4+y,-z
1/2-x,1/4+y,3/4+z
1/4+x,1/2-y,3/4+z
loop_
_atom_site_type_symbol
_atom_site_label
_atom_site_fract_x
_atom_site_fract_y
_atom_site_fract_z
Si Si1 0.483368 0.889435 0.482331
Si Si2 0.963691 0.599042 0.185066
Si Si3 0.431855 0.273385 0.812167
Si Si4 0.875000 0.875000 0.541902
Si Si5 0.494900 0.079999 0.853427
Si Si6 0.088300 0.494528 0.807051
O O1 0.375000 0.875000 0.450407
O O2 0.595169 0.884895 0.448893
O O3 0.464596 0.938627 0.483520
O O4 0.489636 0.863881 0.547545
O O5 0.002307 0.625000 0.125000
O O6 0.957313 0.549783 0.172764
O O7 0.035913 0.606741 0.245932
O O8 0.375000 0.287760 0.875000
O O9 0.355382 0.245884 0.769186
O O10 0.541815 0.253197 0.831743
O O11 0.819796 0.842047 0.588288
O O12 0.375000 0.081551 0.875000
O O13 0.523686 0.034372 0.828237
#
# Coordination Sequence:
#
# PCOD9515810 Si02
#       6
#    32  32  32  16  32  32
#     4  11  22  41  70 102 138 174 229 283 347 409
#     4  11  27  46  68  96 141 187 228 277 348 413
#     4  10  22  40  67 102 141 174 216 284 351 401
#     4  12  25  46  72  98 135 188 220 288 344 414
#     4  12  24  45  71 102 136 178 235 288 345 413
#     4  10  24  44  63 104 134 174 227 281 332 413
#
# _framework density 20.206609
#
# number of rings (size 3 to 8) (size 9 to 14) (size 15 to 20)
#    0.000    1.091    4.545    0.273    7.636    1.455 
#    0.000    1.818    0.000    0.000    0.000    0.000 
#    0.000    0.000    0.000    0.000    0.000    0.000 
#
# Total GULP energy -245483.307521 kJ/mol
# GULP energy per Si atom -5579.166080 kJ/mol
# Density = 2.016062 g / cm^3
# Si number density = 20.206609 Si / 1000 Ang^3
#
#
#
# Elastic Constant Matrix: (Units=GPa)
#
#
# Indices 1 2 3 4 5 6 
#
# 1 124.8097 41.6444 43.7457 0.0000 0.0000 0.0000
# 2 41.6444 114.6304 69.7292 0.0000 0.0000 0.0000
# 3 43.7457 69.7292 117.6906 0.0000 0.0000 0.0000
# 4 0.0000 0.0000 0.0000 20.7152 0.0000 0.0000
# 5 0.0000 0.0000 0.0000 0.0000 10.9053 0.0000
# 6 0.0000 0.0000 0.0000 0.0000 0.0000 25.6958
#
#
#
# Elastic Compliance Matrix: (Units=1/GPa)
#
#
# Indices 1 2 3 4 5 6 
#
# 1 0.009508 -0.002039 -0.002326 0.000000 0.000000 0.000000
# 2 -0.002039 0.014077 -0.007582 0.000000 0.000000 0.000000
# 3 -0.002326 -0.007582 0.013854 0.000000 0.000000 0.000000
# 4 0.000000 0.000000 0.000000 0.048274 0.000000 0.000000
# 5 0.000000 0.000000 0.000000 0.000000 0.091699 0.000000
# 6 0.000000 0.000000 0.000000 0.000000 0.000000 0.038917
#
#
# Mechanical properties :
#
#
# Convention : Reuss Voigt Hill
#
# Bulk Modulus (GPa) = 73.83554 74.15214 73.99384
# Shear Modulus (GPa) = 20.43012 24.93069 22.68040
#
# Velocity S-wave (km/s) = 3.18317 3.51634 3.35390
# Velocity P-wave (km/s) = 7.08023 7.29814 7.19001
#
# Compressibility (1/GPa) = 0.01354361
#
# Stress axis : x y z
#
# Youngs Moduli (GPa) = 105.17631 71.03899 72.18322
#
# Poissons Ratio (x) = 0.14487 0.16788
# Poissons Ratio (y) = 0.21449 0.54731
# Poissons Ratio (z) = 0.24462 0.53863
#
# Static dielectric constant tensor:
#      x y z
#    x 1.740040 0.000000 0.000000 
#    y 0.000000 1.742230 0.000000 
#    z 0.000000 0.000000 1.704680 
# 
# From -- ./inp_files/50400.got.cif
#   From: 2010.05.17/outbox.cif.g08.bks.cpg/sg70_26_cif.got.tgz:50400.got - 2010.06.03 15:57:51.
