data_PCOD9515430
_publ_section_title
;
Structure prediction by ZEFSAII (Michael W. Deem and Ramdas Pophale) SiO2 
 PCOD9515430
Probable space group: F D D D
;
_chemical_formula_sum "Si O2"
_cell_formula_units_Z 144
_cell_length_a 9.084644
_cell_length_b 34.520585
_cell_length_c 19.961525
_cell_angle_alpha 90.000000
_cell_angle_beta 90.000000
_cell_angle_gamma 90.000000
_cell_volume 6260.078470
_symmetry_space_group_name_H-M "F D D D"
_symmetry_group_IT_number 70
_space_group.IT_coordinate_system_code '2'
_symmetry_cell_setting 'orthorhombic'
loop_
_space_group_symop_operation_xyz
x,y,z
1/4-x,1/4-y,z
x,1/4-y,1/4-z
1/4-x,y,1/4-z
-x,-y,-z
3/4+x,3/4+y,-z
-x,3/4+y,3/4+z
3/4+x,-y,3/4+z
x,1/2+y,1/2+z
1/4-x,3/4-y,1/2+z
x,3/4-y,3/4-z
1/4-x,1/2+y,3/4-z
-x,1/2-y,1/2-z
3/4+x,1/4+y,1/2-z
-x,1/4+y,1/4+z
3/4+x,1/2-y,1/4+z
1/2+x,y,1/2+z
3/4-x,1/4-y,1/2+z
1/2+x,1/4-y,3/4-z
3/4-x,y,3/4-z
1/2-x,-y,1/2-z
1/4+x,3/4+y,1/2-z
1/2-x,3/4+y,1/4+z
1/4+x,-y,1/4+z
1/2+x,1/2+y,z
3/4-x,3/4-y,z
1/2+x,3/4-y,1/4-z
3/4-x,1/2+y,1/4-z
1/2-x,1/2-y,-z
1/4+x,1/4+y,-z
1/2-x,1/4+y,3/4+z
1/4+x,1/2-y,3/4+z
loop_
_atom_site_type_symbol
_atom_site_label
_atom_site_fract_x
_atom_site_fract_y
_atom_site_fract_z
Si Si1 0.571635 0.460316 0.789568
Si Si2 0.156472 0.045693 0.493085
Si Si3 0.026029 0.863996 0.037711
Si Si4 0.363239 0.087650 0.165147
Si Si5 0.125000 0.125000 0.418534
O O1 0.748027 0.459983 0.778053
O O2 0.528785 0.504730 0.781330
O O3 0.512222 0.430516 0.733689
O O4 0.540175 0.440265 0.860693
O O5 0.260741 0.064132 0.548701
O O6 0.139703 0.077126 0.435142
O O7 0.016875 0.892569 0.973618
O O8 0.875000 0.875000 0.081950
O O9 0.188919 0.870694 0.064850
O O10 0.423542 0.125000 0.125000
#
# Coordination Sequence:
#
# PCOD9515430 Si02
#       5
#    32  32  32  32  16
#     4  10  23  39  61  90 122 156 203 255 302 356
#     4  11  23  38  63  93 120 155 201 262 304 351
#     4   9  22  41  60  85 123 164 199 239 305 368
#     4  10  21  39  62  87 118 158 203 244 297 364
#     4  10  22  40  60  90 122 160 204 240 310 374
#
# _framework density 23.002907
#
# number of rings (size 3 to 8) (size 9 to 14) (size 15 to 20)
#    0.667    1.333    0.000    3.333    3.111   10.222 
#    0.000    6.667    0.000    0.000    0.000    0.000 
#    0.000    0.000    0.000    0.000    0.000    0.000 
#
# Total GULP energy -200537.257713 kJ/mol
# GULP energy per Si atom -5570.479381 kJ/mol
# Density = 2.295055 g / cm^3
# Si number density = 23.002907 Si / 1000 Ang^3
#
#
#
# Elastic Constant Matrix: (Units=GPa)
#
#
# Indices 1 2 3 4 5 6 
#
# 1 106.1819 96.5713 54.9325 0.0000 0.0000 0.0000
# 2 96.5713 208.3261 92.8168 0.0000 0.0000 0.0000
# 3 54.9325 92.8168 147.7946 0.0000 0.0000 0.0000
# 4 0.0000 0.0000 0.0000 15.6751 0.0000 0.0000
# 5 0.0000 0.0000 0.0000 0.0000 -13.5170 0.0000
# 6 0.0000 0.0000 0.0000 0.0000 0.0000 -14.6625
#
#
#
# Elastic Compliance Matrix: (Units=1/GPa)
#
#
# Indices 1 2 3 4 5 6 
#
# 1 0.016643 -0.006886 -0.001862 0.000000 0.000000 0.000000
# 2 -0.006886 0.009514 -0.003416 0.000000 0.000000 0.000000
# 3 -0.001862 -0.003416 0.009603 0.000000 0.000000 0.000000
# 4 0.000000 0.000000 0.000000 0.063795 0.000000 0.000000
# 5 0.000000 0.000000 0.000000 0.000000 -0.073981 0.000000
# 6 0.000000 0.000000 0.000000 0.000000 0.000000 -0.068201
#
#
# Mechanical properties :
#
#
# Convention : Reuss Voigt Hill
#
# Bulk Modulus (GPa) = 87.45512 105.66042 96.55777
# Shear Modulus (GPa) = -345.09827 12.03124 -166.53351
#
# Velocity S-wave (km/s) = -12.26171 2.28947 -8.51786
# Velocity P-wave (km/s) = 12.74222 7.28163 7.39399
#
# Compressibility (1/GPa) = 0.01143444
#
# Stress axis : x y z
#
# Youngs Moduli (GPa) = 60.08359 105.11002 104.13304
#
# Poissons Ratio (x) = 0.72376 0.19387
# Poissons Ratio (y) = 0.41372 0.35567
# Poissons Ratio (z) = 0.11186 0.35900
#
# Static dielectric constant tensor:
#      x y z
#    x 1.883320 0.000000 0.000000 
#    y 0.000000 1.784150 0.000000 
#    z 0.000000 0.000000 1.813160 
# 
# From -- ./inp_files/63847.got.cif
#   From: 2010.05.17/outbox.cif.g08.bks.cpg/sg70_32_cif.got.tgz:63847.got - 2010.06.03 15:57:51.
