data_PCOD9515513
_publ_section_title
;
Structure prediction by ZEFSAII (Michael W. Deem and Ramdas Pophale) SiO2 
 PCOD9515513
Probable space group: F D D D
;
_chemical_formula_sum "Si O2"
_cell_formula_units_Z 112
_cell_length_a 24.765551
_cell_length_b 8.513421
_cell_length_c 21.794846
_cell_angle_alpha 90.000000
_cell_angle_beta 90.000000
_cell_angle_gamma 90.000000
_cell_volume 4595.215784
_symmetry_space_group_name_H-M "F D D D"
_symmetry_group_IT_number 70
_space_group.IT_coordinate_system_code '2'
_symmetry_cell_setting 'orthorhombic'
loop_
_space_group_symop_operation_xyz
x,y,z
1/4-x,1/4-y,z
x,1/4-y,1/4-z
1/4-x,y,1/4-z
-x,-y,-z
3/4+x,3/4+y,-z
-x,3/4+y,3/4+z
3/4+x,-y,3/4+z
x,1/2+y,1/2+z
1/4-x,3/4-y,1/2+z
x,3/4-y,3/4-z
1/4-x,1/2+y,3/4-z
-x,1/2-y,1/2-z
3/4+x,1/4+y,1/2-z
-x,1/4+y,1/4+z
3/4+x,1/2-y,1/4+z
1/2+x,y,1/2+z
3/4-x,1/4-y,1/2+z
1/2+x,1/4-y,3/4-z
3/4-x,y,3/4-z
1/2-x,-y,1/2-z
1/4+x,3/4+y,1/2-z
1/2-x,3/4+y,1/4+z
1/4+x,-y,1/4+z
1/2+x,1/2+y,z
3/4-x,3/4-y,z
1/2+x,3/4-y,1/4-z
3/4-x,1/2+y,1/4-z
1/2-x,1/2-y,-z
1/4+x,1/4+y,-z
1/2-x,1/4+y,3/4+z
1/4+x,1/2-y,3/4+z
loop_
_atom_site_type_symbol
_atom_site_label
_atom_site_fract_x
_atom_site_fract_y
_atom_site_fract_z
Si Si1 0.568685 0.430328 0.744495
Si Si2 0.125000 0.125000 0.850407
Si Si3 0.035265 0.125000 0.125000
Si Si4 0.625000 0.382656 0.125000
Si Si5 0.290326 0.878986 0.197303
O O1 0.593973 0.509898 0.804024
O O2 0.600968 0.460796 0.682209
O O3 0.505817 0.472820 0.730488
O O4 0.572050 0.241624 0.755693
O O5 0.080060 0.193785 0.897300
O O6 0.076889 0.255959 0.099598
O O7 0.994990 0.236156 0.162986
#
# Coordination Sequence:
#
# PCOD9515513 Si02
#       5
#    32  16  16  16  32
#     4  10  22  40  66  98 134 172 223 278 333 411
#     4  12  22  41  72  99 138 174 222 286 344 388
#     4   9  16  38  62  88 120 164 234 261 308 404
#     4   9  20  35  66  98 124 171 218 275 340 380
#     4  10  21  40  67  96 126 174 226 272 333 399
#
# _framework density 24.373175
#
# number of rings (size 3 to 8) (size 9 to 14) (size 15 to 20)
#    0.000    2.000    2.857    0.000    0.000    7.429 
#    0.000    5.714   18.857    0.000    0.000    0.000 
#    0.000    0.000    0.000    0.000    0.000    0.000 
#
# Total GULP energy -156155.483329 kJ/mol
# GULP energy per Si atom -5576.981547 kJ/mol
# Density = 2.431770 g / cm^3
# Si number density = 24.373175 Si / 1000 Ang^3
#
#
#
# Elastic Constant Matrix: (Units=GPa)
#
#
# Indices 1 2 3 4 5 6 
#
# 1 147.8336 42.6913 92.6178 0.0000 0.0000 0.0000
# 2 42.6913 45.6069 23.9490 0.0000 0.0000 0.0000
# 3 92.6178 23.9490 146.1415 0.0000 0.0000 0.0000
# 4 0.0000 0.0000 0.0000 31.9758 0.0000 0.0000
# 5 0.0000 0.0000 0.0000 0.0000 68.8252 0.0000
# 6 0.0000 0.0000 0.0000 0.0000 0.0000 18.6595
#
#
#
# Elastic Compliance Matrix: (Units=1/GPa)
#
#
# Indices 1 2 3 4 5 6 
#
# 1 0.014089 -0.009300 -0.007405 0.000000 0.000000 0.000000
# 2 -0.009300 0.030130 0.000956 0.000000 0.000000 0.000000
# 3 -0.007405 0.000956 0.011379 0.000000 0.000000 0.000000
# 4 0.000000 0.000000 0.000000 0.031274 0.000000 0.000000
# 5 0.000000 0.000000 0.000000 0.000000 0.014530 0.000000
# 6 0.000000 0.000000 0.000000 0.000000 0.000000 0.053592
#
#
# Mechanical properties :
#
#
# Convention : Reuss Voigt Hill
#
# Bulk Modulus (GPa) = 41.49282 73.12203 57.30743
# Shear Modulus (GPa) = 25.70374 35.91370 30.80872
#
# Velocity S-wave (km/s) = 3.25097 3.84277 3.55919
# Velocity P-wave (km/s) = 5.58146 7.05375 6.36035
#
# Compressibility (1/GPa) = 0.02410055
#
# Stress axis : x y z
#
# Youngs Moduli (GPa) = 70.97569 33.18979 87.88136
#
# Poissons Ratio (x) = 0.30867 0.65077
# Poissons Ratio (y) = 0.66008 -0.08405
# Poissons Ratio (z) = 0.52558 -0.03174
#
# Static dielectric constant tensor:
#      x y z
#    x 2.015900 0.000000 0.000000 
#    y 0.000000 1.965460 0.000000 
#    z 0.000000 0.000000 2.100950 
# 
# From -- ./inp_files/38266.got.cif
#   From: 2010.05.17/outbox.cif.g08.bks.cpg/sg70_20_cif.got.tgz:38266.got - 2010.06.03 15:57:51.
