data_PCOD9515533
_publ_section_title
;
Structure prediction by ZEFSAII (Michael W. Deem and Ramdas Pophale) SiO2 
 PCOD9515533
Probable space group: F D D D
;
_chemical_formula_sum "Si O2"
_cell_formula_units_Z 160
_cell_length_a 25.877592
_cell_length_b 10.927518
_cell_length_c 23.707586
_cell_angle_alpha 90.000000
_cell_angle_beta 90.000000
_cell_angle_gamma 90.000000
_cell_volume 6703.980254
_symmetry_space_group_name_H-M "F D D D"
_symmetry_group_IT_number 70
_space_group.IT_coordinate_system_code '2'
_symmetry_cell_setting 'orthorhombic'
loop_
_space_group_symop_operation_xyz
x,y,z
1/4-x,1/4-y,z
x,1/4-y,1/4-z
1/4-x,y,1/4-z
-x,-y,-z
3/4+x,3/4+y,-z
-x,3/4+y,3/4+z
3/4+x,-y,3/4+z
x,1/2+y,1/2+z
1/4-x,3/4-y,1/2+z
x,3/4-y,3/4-z
1/4-x,1/2+y,3/4-z
-x,1/2-y,1/2-z
3/4+x,1/4+y,1/2-z
-x,1/4+y,1/4+z
3/4+x,1/2-y,1/4+z
1/2+x,y,1/2+z
3/4-x,1/4-y,1/2+z
1/2+x,1/4-y,3/4-z
3/4-x,y,3/4-z
1/2-x,-y,1/2-z
1/4+x,3/4+y,1/2-z
1/2-x,3/4+y,1/4+z
1/4+x,-y,1/4+z
1/2+x,1/2+y,z
3/4-x,3/4-y,z
1/2+x,3/4-y,1/4-z
3/4-x,1/2+y,1/4-z
1/2-x,1/2-y,-z
1/4+x,1/4+y,-z
1/2-x,1/4+y,3/4+z
1/4+x,1/2-y,3/4+z
loop_
_atom_site_type_symbol
_atom_site_label
_atom_site_fract_x
_atom_site_fract_y
_atom_site_fract_z
Si Si1 0.341239 0.754072 0.486231
Si Si2 0.677739 0.875000 0.375000
Si Si3 0.183891 0.817719 0.004108
Si Si4 0.036912 0.072039 0.780281
Si Si5 0.262593 0.682503 0.564280
Si Si6 0.625000 0.625000 0.869645
O O1 0.375000 0.875000 0.477854
O O2 0.379934 0.637712 0.485885
O O3 0.308577 0.770339 0.544641
O O4 0.294012 0.760961 0.441864
O O5 0.699634 0.838761 0.437324
O O6 0.648047 0.751342 0.357103
O O7 0.187069 0.671096 0.011894
O O8 0.229496 0.875602 0.040917
O O9 0.078375 0.075299 0.830000
O O10 0.023670 0.930227 0.770553
O O11 0.267653 0.625000 0.625000
#
# Coordination Sequence:
#
# PCOD9515533 Si02
#       6
#    32  16  32  32  32  16
#     4  11  24  43  64 101 138 181 230 295 349 419
#     4  10  22  36  64  93 124 167 224 286 330 410
#     4  10  22  40  64  92 129 173 223 284 342 411
#     4  10  21  41  62  92 130 172 226 272 349 409
#     4  11  25  43  68 100 141 185 233 287 361 429
#     4  10  22  36  62  95 124 172 219 282 340 412
#
# _framework density 23.866419
#
# number of rings (size 3 to 8) (size 9 to 14) (size 15 to 20)
#    0.000    1.600    2.000    2.400    7.000    2.000 
#    0.000    0.000    0.000    0.600    0.000    0.000 
#    0.000    0.000    0.000    0.000    0.000    0.000 
#
# Total GULP energy -222716.867032 kJ/mol
# GULP energy per Si atom -5567.921676 kJ/mol
# Density = 2.381210 g / cm^3
# Si number density = 23.866419 Si / 1000 Ang^3
#
#
#
# Elastic Constant Matrix: (Units=GPa)
#
#
# Indices 1 2 3 4 5 6 
#
# 1 171.8670 36.1401 14.6932 0.0000 0.0000 0.0000
# 2 36.1401 142.4842 -4.8318 0.0000 0.0000 0.0000
# 3 14.6932 -4.8318 34.5095 0.0000 0.0000 0.0000
# 4 0.0000 0.0000 0.0000 27.5265 0.0000 0.0000
# 5 0.0000 0.0000 0.0000 0.0000 13.5234 0.0000
# 6 0.0000 0.0000 0.0000 0.0000 0.0000 44.6394
#
#
#
# Elastic Compliance Matrix: (Units=1/GPa)
#
#
# Indices 1 2 3 4 5 6 
#
# 1 0.006438 -0.001734 -0.002984 0.000000 0.000000 0.000000
# 2 -0.001734 0.007519 0.001791 0.000000 0.000000 0.000000
# 3 -0.002984 0.001791 0.030499 0.000000 0.000000 0.000000
# 4 0.000000 0.000000 0.000000 0.036329 0.000000 0.000000
# 5 0.000000 0.000000 0.000000 0.000000 0.073946 0.000000
# 6 0.000000 0.000000 0.000000 0.000000 0.000000 0.022402
#
#
# Mechanical properties :
#
#
# Convention : Reuss Voigt Hill
#
# Bulk Modulus (GPa) = 25.90552 48.98485 37.44518
# Shear Modulus (GPa) = 25.52920 37.32845 31.42883
#
# Velocity S-wave (km/s) = 3.27413 3.95911 3.63280
# Velocity P-wave (km/s) = 5.01709 6.43961 5.77233
#
# Compressibility (1/GPa) = 0.03860182
#
# Stress axis : x y z
#
# Youngs Moduli (GPa) = 155.32209 132.99757 32.78810
#
# Poissons Ratio (x) = 0.23065 0.09784
# Poissons Ratio (y) = 0.26936 -0.05873
# Poissons Ratio (z) = 0.46349 -0.23822
#
# Static dielectric constant tensor:
#      x y z
#    x 1.956580 0.000000 0.000000 
#    y 0.000000 2.016050 0.000000 
#    z 0.000000 0.000000 2.018020 
# 
# From -- ./inp_files/61620.got.cif
#   From: 2010.05.17/outbox.cif.g08.bks.cpg/sg70_31_cif.got.tgz:61620.got - 2010.06.03 15:57:51.
