data_PCOD9515453
_publ_section_title
;
Structure prediction by ZEFSAII (Michael W. Deem and Ramdas Pophale) SiO2 
 PCOD9515453
Probable space group: F D D D
;
_chemical_formula_sum "Si O2"
_cell_formula_units_Z 80
_cell_length_a 24.555506
_cell_length_b 5.242853
_cell_length_c 26.508018
_cell_angle_alpha 90.000000
_cell_angle_beta 90.000000
_cell_angle_gamma 90.000000
_cell_volume 3412.666315
_symmetry_space_group_name_H-M "F D D D"
_symmetry_group_IT_number 70
_space_group.IT_coordinate_system_code '2'
_symmetry_cell_setting 'orthorhombic'
loop_
_space_group_symop_operation_xyz
x,y,z
1/4-x,1/4-y,z
x,1/4-y,1/4-z
1/4-x,y,1/4-z
-x,-y,-z
3/4+x,3/4+y,-z
-x,3/4+y,3/4+z
3/4+x,-y,3/4+z
x,1/2+y,1/2+z
1/4-x,3/4-y,1/2+z
x,3/4-y,3/4-z
1/4-x,1/2+y,3/4-z
-x,1/2-y,1/2-z
3/4+x,1/4+y,1/2-z
-x,1/4+y,1/4+z
3/4+x,1/2-y,1/4+z
1/2+x,y,1/2+z
3/4-x,1/4-y,1/2+z
1/2+x,1/4-y,3/4-z
3/4-x,y,3/4-z
1/2-x,-y,1/2-z
1/4+x,3/4+y,1/2-z
1/2-x,3/4+y,1/4+z
1/4+x,-y,1/4+z
1/2+x,1/2+y,z
3/4-x,3/4-y,z
1/2+x,3/4-y,1/4-z
3/4-x,1/2+y,1/4-z
1/2-x,1/2-y,-z
1/4+x,1/4+y,-z
1/2-x,1/4+y,3/4+z
1/4+x,1/2-y,3/4+z
loop_
_atom_site_type_symbol
_atom_site_label
_atom_site_fract_x
_atom_site_fract_y
_atom_site_fract_z
Si Si1 0.875000 0.875000 0.090967
Si Si2 0.037649 0.750065 0.494704
Si Si3 0.935494 0.117894 0.852996
O O1 0.861924 0.625000 0.125000
O O2 0.924275 0.788138 0.053730
O O3 0.072675 0.807019 0.544650
O O4 0.000000 0.500000 0.500000
O O5 0.000000 0.000000 0.500000
O O6 0.961947 0.375000 0.875000
O O7 0.875000 0.124488 0.875000
O O8 0.966715 0.875000 0.875000
#
# Coordination Sequence:
#
# PCOD9515453 Si02
#       3
#    16  32  32
#     4  12  28  50  73 106 157 208 250 312 390 462
#     4  12  27  46  72 106 143 189 247 306 370 449
#     4  10  21  39  67  98 129 169 223 287 349 409
#
# _framework density 23.442081000000002
#
# number of rings (size 3 to 8) (size 9 to 14) (size 15 to 20)
#    0.000    0.800    0.000    7.200    0.000   16.000 
#    0.000    0.000    0.000    0.000    0.000    0.000 
#    0.000    0.000    0.000    0.000    0.000    0.000 
#
# Total GULP energy -111614.343310 kJ/mol
# GULP energy per Si atom -5580.717166 kJ/mol
# Density = 2.338873 g / cm^3
# Si number density = 23.442081 Si / 1000 Ang^3
#
#
#
# Elastic Constant Matrix: (Units=GPa)
#
#
# Indices 1 2 3 4 5 6 
#
# 1 111.9664 58.2448 76.7362 -0.0014 0.0102 0.0017
# 2 58.2448 277.6723 84.3489 -0.0015 0.0316 0.0015
# 3 76.7362 84.3489 208.4954 -0.0010 0.0120 0.0008
# 4 -0.0014 -0.0015 -0.0010 50.5303 0.0188 0.0027
# 5 0.0102 0.0316 0.0120 0.0188 70.1593 -0.0160
# 6 0.0017 0.0015 0.0008 0.0027 -0.0160 27.4029
#
#
#
# Elastic Compliance Matrix: (Units=1/GPa)
#
#
# Indices 1 2 3 4 5 6 
#
# 1 0.012394 -0.001384 -0.004001 0.000000 0.000000 -0.000001
# 2 -0.001384 0.004261 -0.001214 0.000000 -0.000002 0.000000
# 3 -0.004001 -0.001214 0.006760 0.000000 0.000000 0.000000
# 4 0.000000 0.000000 0.000000 0.019790 -0.000005 -0.000002
# 5 0.000000 -0.000002 0.000000 -0.000005 0.014253 0.000008
# 6 -0.000001 0.000000 0.000000 -0.000002 0.000008 0.036493
#
#
# Mechanical properties :
#
#
# Convention : Reuss Voigt Hill
#
# Bulk Modulus (GPa) = 97.89770 115.19933 106.54851
# Shear Modulus (GPa) = 45.22631 54.87210 50.04921
#
# Velocity S-wave (km/s) = 4.39712 4.84338 4.62564
# Velocity P-wave (km/s) = 8.22385 8.97366 8.60693
#
# Compressibility (1/GPa) = 0.01021474
#
# Stress axis : x y z
#
# Youngs Moduli (GPa) = 80.68605 234.71116 147.92409
#
# Poissons Ratio (x) = 0.32488 0.59192
# Poissons Ratio (y) = 0.11168 0.17961
# Poissons Ratio (z) = 0.32286 0.28499
#
# Static dielectric constant tensor:
#      x y z
#    x 2.305520 -0.000760 0.000000 
#    y -0.000760 -1.366060 -0.000030 
#    z 0.000000 -0.000030 1.980490 
# 
# From -- ./inp_files/2453.got.cif
#   From: 2010.05.17/outbox.cif.g08.bks.cpg/sg70_2_cif.got.tgz:2453.got - 2010.06.03 15:57:51.
