data_PCOD9516017
_publ_section_title
;
Structure prediction by ZEFSAII (Michael W. Deem and Ramdas Pophale) SiO2 
 PCOD9516017
Probable space group: F D D D
;
_chemical_formula_sum "Si O2"
_cell_formula_units_Z 80
_cell_length_a 10.366929
_cell_length_b 14.721039
_cell_length_c 20.450798
_cell_angle_alpha 90.000000
_cell_angle_beta 90.000000
_cell_angle_gamma 90.000000
_cell_volume 3121.036491
_symmetry_space_group_name_H-M "F D D D"
_symmetry_group_IT_number 70
_space_group.IT_coordinate_system_code '2'
_symmetry_cell_setting 'orthorhombic'
loop_
_space_group_symop_operation_xyz
x,y,z
1/4-x,1/4-y,z
x,1/4-y,1/4-z
1/4-x,y,1/4-z
-x,-y,-z
3/4+x,3/4+y,-z
-x,3/4+y,3/4+z
3/4+x,-y,3/4+z
x,1/2+y,1/2+z
1/4-x,3/4-y,1/2+z
x,3/4-y,3/4-z
1/4-x,1/2+y,3/4-z
-x,1/2-y,1/2-z
3/4+x,1/4+y,1/2-z
-x,1/4+y,1/4+z
3/4+x,1/2-y,1/4+z
1/2+x,y,1/2+z
3/4-x,1/4-y,1/2+z
1/2+x,1/4-y,3/4-z
3/4-x,y,3/4-z
1/2-x,-y,1/2-z
1/4+x,3/4+y,1/2-z
1/2-x,3/4+y,1/4+z
1/4+x,-y,1/4+z
1/2+x,1/2+y,z
3/4-x,3/4-y,z
1/2+x,3/4-y,1/4-z
3/4-x,1/2+y,1/4-z
1/2-x,1/2-y,-z
1/4+x,1/4+y,-z
1/2-x,1/4+y,3/4+z
1/4+x,1/2-y,3/4+z
loop_
_atom_site_type_symbol
_atom_site_label
_atom_site_fract_x
_atom_site_fract_y
_atom_site_fract_z
Si Si1 0.234001 0.895182 0.738368
Si Si2 0.890405 0.625000 0.625000
Si Si3 0.756805 0.302857 0.569606
O O1 0.375000 0.875000 0.712798
O O2 0.198241 0.861586 0.811189
O O3 0.123870 0.862128 0.689645
O O4 0.250000 0.000000 0.750000
O O5 0.973969 0.531032 0.621692
O O6 0.875000 0.375000 0.570126
O O7 0.750000 0.250000 0.500000
#
# Coordination Sequence:
#
# PCOD9516017 Si02
#       3
#    32  16  32
#     4  11  23  43  69 104 145 186 241 313 378 447
#     4  10  23  44  71 100 145 208 251 294 375 464
#     4  10  22  45  72 104 147 195 251 309 373 459
#
# _framework density 25.63251
#
# number of rings (size 3 to 8) (size 9 to 14) (size 15 to 20)
#    0.000    1.600    0.000    5.400    0.000    1.600 
#    0.000   48.000    0.000    0.000    0.000    0.000 
#    0.000    0.000    0.000    0.000    0.000    0.000 
#
# Total GULP energy -111622.051754 kJ/mol
# GULP energy per Si atom -5581.102588 kJ/mol
# Density = 2.557417 g / cm^3
# Si number density = 25.632510 Si / 1000 Ang^3
#
#
#
# Elastic Constant Matrix: (Units=GPa)
#
#
# Indices 1 2 3 4 5 6 
#
# 1 276.6001 108.7799 48.9629 0.0000 0.0000 0.0000
# 2 108.7799 206.0984 16.9674 0.0000 0.0000 0.0000
# 3 48.9629 16.9674 167.9051 0.0000 0.0000 0.0000
# 4 0.0000 0.0000 0.0000 49.5393 0.0000 0.0000
# 5 0.0000 0.0000 0.0000 0.0000 -73.0677 0.0000
# 6 0.0000 0.0000 0.0000 0.0000 0.0000 54.6263
#
#
#
# Elastic Compliance Matrix: (Units=1/GPa)
#
#
# Indices 1 2 3 4 5 6 
#
# 1 0.004772 -0.002424 -0.001146 0.000000 0.000000 0.000000
# 2 -0.002424 0.006124 0.000088 0.000000 0.000000 0.000000
# 3 -0.001146 0.000088 0.006281 0.000000 0.000000 0.000000
# 4 0.000000 0.000000 0.000000 0.020186 0.000000 0.000000
# 5 0.000000 0.000000 0.000000 0.000000 -0.013686 0.000000
# 6 0.000000 0.000000 0.000000 0.000000 0.000000 0.018306
#
#
# Mechanical properties :
#
#
# Convention : Reuss Voigt Hill
#
# Bulk Modulus (GPa) = 97.92492 111.11378 104.51935
# Shear Modulus (GPa) = 95.50661 37.94582 66.72622
#
# Velocity S-wave (km/s) = 6.11072 3.85174 5.10768
# Velocity P-wave (km/s) = 9.38478 7.95136 8.69765
#
# Compressibility (1/GPa) = 0.01021191
#
# Stress axis : x y z
#
# Youngs Moduli (GPa) = 209.57281 163.28510 159.20578
#
# Poissons Ratio (x) = 0.39582 0.18253
# Poissons Ratio (y) = 0.50802 -0.01401
# Poissons Ratio (z) = 0.24027 -0.01437
#
# Static dielectric constant tensor:
#      x y z
#    x 1.876660 0.000000 0.000000 
#    y 0.000000 1.501180 0.000000 
#    z 0.000000 0.000000 1.356640 
# 
# From -- ./inp_files/15585.got.cif
#   From: 2010.05.17/outbox.cif.g08.bks.cpg/sg70_8_cif.got.tgz:15585.got - 2010.06.03 15:57:51.
