data_PCOD9516058
_publ_section_title
;
Structure prediction by ZEFSAII (Michael W. Deem and Ramdas Pophale) SiO2 
 PCOD9516058
Probable space group: F D D D
;
_chemical_formula_sum "Si O2"
_cell_formula_units_Z 160
_cell_length_a 17.333752
_cell_length_b 22.708045
_cell_length_c 17.161949
_cell_angle_alpha 90.000000
_cell_angle_beta 90.000000
_cell_angle_gamma 90.000000
_cell_volume 6755.211204
_symmetry_space_group_name_H-M "F D D D"
_symmetry_group_IT_number 70
_space_group.IT_coordinate_system_code '2'
_symmetry_cell_setting 'orthorhombic'
loop_
_space_group_symop_operation_xyz
x,y,z
1/4-x,1/4-y,z
x,1/4-y,1/4-z
1/4-x,y,1/4-z
-x,-y,-z
3/4+x,3/4+y,-z
-x,3/4+y,3/4+z
3/4+x,-y,3/4+z
x,1/2+y,1/2+z
1/4-x,3/4-y,1/2+z
x,3/4-y,3/4-z
1/4-x,1/2+y,3/4-z
-x,1/2-y,1/2-z
3/4+x,1/4+y,1/2-z
-x,1/4+y,1/4+z
3/4+x,1/2-y,1/4+z
1/2+x,y,1/2+z
3/4-x,1/4-y,1/2+z
1/2+x,1/4-y,3/4-z
3/4-x,y,3/4-z
1/2-x,-y,1/2-z
1/4+x,3/4+y,1/2-z
1/2-x,3/4+y,1/4+z
1/4+x,-y,1/4+z
1/2+x,1/2+y,z
3/4-x,3/4-y,z
1/2+x,3/4-y,1/4-z
3/4-x,1/2+y,1/4-z
1/2-x,1/2-y,-z
1/4+x,1/4+y,-z
1/2-x,1/4+y,3/4+z
1/4+x,1/2-y,3/4+z
loop_
_atom_site_type_symbol
_atom_site_label
_atom_site_fract_x
_atom_site_fract_y
_atom_site_fract_z
Si Si1 0.805160 0.829590 0.005089
Si Si2 0.281883 0.065399 0.512433
Si Si3 0.375000 0.375000 0.225052
Si Si4 0.125000 0.501008 0.625000
Si Si5 0.914790 0.599494 0.710040
Si Si6 0.634277 0.513419 0.863228
O O1 0.875000 0.875000 0.006069
O O2 0.819314 0.792273 0.926979
O O3 0.728643 0.868599 0.012242
O O4 0.819869 0.785284 0.075702
O O5 0.194106 0.088140 0.514125
O O6 0.320912 0.034383 0.436266
O O7 0.332409 0.124225 0.520261
O O8 0.304598 0.023350 0.585379
O O9 0.334758 0.426591 0.174196
O O10 0.935340 0.625000 0.625000
O O11 0.905312 0.530086 0.699464
#
# Coordination Sequence:
#
# PCOD9516058 Si02
#       6
#    32  32  16  16  32  32
#     4  11  22  37  69 108 143 181 222 278 361 423
#     4  10  26  44  68 100 140 183 233 283 346 415
#     4  12  26  46  73 101 136 186 240 288 346 418
#     4  10  23  38  68 110 144 183 214 284 358 430
#     4  10  23  42  66  98 143 181 224 285 348 415
#     4  10  25  44  71 100 144 181 234 292 340 416
#
# _framework density 23.685417999999999
#
# number of rings (size 3 to 8) (size 9 to 14) (size 15 to 20)
#    0.000    1.600    1.000    1.500   14.000    4.800 
#    0.000    4.500    4.400    0.000    0.000    0.000 
#    0.000    0.000    0.000    0.000    0.000    0.000 
#
# Total GULP energy -223536.461787 kJ/mol
# GULP energy per Si atom -5588.411545 kJ/mol
# Density = 2.363151 g / cm^3
# Si number density = 23.685418 Si / 1000 Ang^3
#
#
#
# Elastic Constant Matrix: (Units=GPa)
#
#
# Indices 1 2 3 4 5 6 
#
# 1 152.2665 63.8254 28.6060 0.0000 0.0000 0.0000
# 2 63.8254 181.5476 42.1118 0.0000 0.0000 0.0000
# 3 28.6060 42.1118 28.8221 0.0000 0.0000 0.0000
# 4 0.0000 0.0000 0.0000 36.6687 0.0000 0.0000
# 5 0.0000 0.0000 0.0000 0.0000 11.3792 0.0000
# 6 0.0000 0.0000 0.0000 0.0000 0.0000 33.0843
#
#
#
# Elastic Compliance Matrix: (Units=1/GPa)
#
#
# Indices 1 2 3 4 5 6 
#
# 1 0.008345 -0.001532 -0.006044 0.000000 0.000000 0.000000
# 2 -0.001532 0.008613 -0.011064 0.000000 0.000000 0.000000
# 3 -0.006044 -0.011064 0.056861 0.000000 0.000000 0.000000
# 4 0.000000 0.000000 0.000000 0.027271 0.000000 0.000000
# 5 0.000000 0.000000 0.000000 0.000000 0.087879 0.000000
# 6 0.000000 0.000000 0.000000 0.000000 0.000000 0.030226
#
#
# Mechanical properties :
#
#
# Convention : Reuss Voigt Hill
#
# Bulk Modulus (GPa) = 27.36889 70.19141 48.78015
# Shear Modulus (GPa) = 18.61115 31.43265 25.02190
#
# Velocity S-wave (km/s) = 2.80619 3.64687 3.25380
# Velocity P-wave (km/s) = 4.69892 6.88710 5.89542
#
# Compressibility (1/GPa) = 0.03653784
#
# Stress axis : x y z
#
# Youngs Moduli (GPa) = 119.83140 116.10083 17.58678
#
# Poissons Ratio (x) = 0.17784 0.10630
# Poissons Ratio (y) = 0.18355 0.19459
# Poissons Ratio (z) = 0.72432 1.28459
#
# Static dielectric constant tensor:
#      x y z
#    x 1.916650 0.000000 0.000000 
#    y 0.000000 1.975370 0.000000 
#    z 0.000000 0.000000 1.987130 
# 
# From -- ./inp_files/43694.got.cif
#   From: 2010.05.17/outbox.cif.g08.bks.cpg/sg70_22_cif.got.tgz:43694.got - 2010.06.03 15:57:51.
