data_PCOD9516264
_publ_section_title
;
Structure prediction by ZEFSAII (Michael W. Deem and Ramdas Pophale) SiO2 
 PCOD9516264
Probable space group: F D D D
;
_chemical_formula_sum "Si O2"
_cell_formula_units_Z 176
_cell_length_a 28.199389
_cell_length_b 15.225979
_cell_length_c 15.659688
_cell_angle_alpha 90.000000
_cell_angle_beta 90.000000
_cell_angle_gamma 90.000000
_cell_volume 6723.695391
_symmetry_space_group_name_H-M "F D D D"
_symmetry_group_IT_number 70
_space_group.IT_coordinate_system_code '2'
_symmetry_cell_setting 'orthorhombic'
loop_
_space_group_symop_operation_xyz
x,y,z
1/4-x,1/4-y,z
x,1/4-y,1/4-z
1/4-x,y,1/4-z
-x,-y,-z
3/4+x,3/4+y,-z
-x,3/4+y,3/4+z
3/4+x,-y,3/4+z
x,1/2+y,1/2+z
1/4-x,3/4-y,1/2+z
x,3/4-y,3/4-z
1/4-x,1/2+y,3/4-z
-x,1/2-y,1/2-z
3/4+x,1/4+y,1/2-z
-x,1/4+y,1/4+z
3/4+x,1/2-y,1/4+z
1/2+x,y,1/2+z
3/4-x,1/4-y,1/2+z
1/2+x,1/4-y,3/4-z
3/4-x,y,3/4-z
1/2-x,-y,1/2-z
1/4+x,3/4+y,1/2-z
1/2-x,3/4+y,1/4+z
1/4+x,-y,1/4+z
1/2+x,1/2+y,z
3/4-x,3/4-y,z
1/2+x,3/4-y,1/4-z
3/4-x,1/2+y,1/4-z
1/2-x,1/2-y,-z
1/4+x,1/4+y,-z
1/2-x,1/4+y,3/4+z
1/4+x,1/2-y,3/4+z
loop_
_atom_site_type_symbol
_atom_site_label
_atom_site_fract_x
_atom_site_fract_y
_atom_site_fract_z
Si Si1 0.841999 0.789377 0.493696
Si Si2 0.719357 0.437711 0.155941
Si Si3 0.125000 0.625000 0.810655
Si Si4 0.942050 0.528674 0.598127
Si Si5 0.459092 0.973105 0.177623
Si Si6 0.234348 0.125000 0.625000
Si Si7 0.125000 0.397529 0.125000
O O1 0.875000 0.875000 0.489120
O O2 0.815766 0.772140 0.583216
O O3 0.799276 0.809064 0.427149
O O4 0.874554 0.710899 0.457558
O O5 0.701484 0.472794 0.247046
O O6 0.756297 0.505265 0.113304
O O7 0.750512 0.350744 0.173484
O O8 0.671540 0.409335 0.111668
O O9 0.093995 0.698724 0.861290
O O10 0.165812 0.683380 0.766301
O O11 0.926010 0.625000 0.625000
O O12 0.482873 0.067597 0.187921
#
# Coordination Sequence:
#
# PCOD9516264 Si02
#       7
#    32  32  16  32  32  16  16
#     4  12  22  41  64  97 141 181 223 285 359 411
#     4  10  24  46  66 100 140 180 238 278 354 427
#     4  10  24  42  68 106 128 178 244 282 348 418
#     4  10  24  49  73  98 140 190 229 304 353 411
#     4  11  24  41  65  99 138 180 227 284 346 430
#     4  12  23  38  60 100 136 182 222 281 352 412
#     4  12  23  40  65 102 138 182 226 294 342 428
#
# _framework density 26.176082000000001
#
# number of rings (size 3 to 8) (size 9 to 14) (size 15 to 20)
#    0.000    1.091    4.545    0.545    3.818    2.909 
#    9.818    0.000    0.000    0.000    0.000    0.000 
#    0.000    0.000    0.000    0.000    0.000    0.000 
#
# Total GULP energy -246186.560057 kJ/mol
# GULP energy per Si atom -5595.149092 kJ/mol
# Density = 2.611650 g / cm^3
# Si number density = 26.176082 Si / 1000 Ang^3
#
#
#
# Elastic Constant Matrix: (Units=GPa)
#
#
# Indices 1 2 3 4 5 6 
#
# 1 164.7938 62.0292 3.0470 0.0000 0.0000 0.0000
# 2 62.0292 148.7037 16.1496 0.0000 0.0000 0.0000
# 3 3.0470 16.1496 64.9882 0.0000 0.0000 0.0000
# 4 0.0000 0.0000 0.0000 35.4829 0.0000 0.0000
# 5 0.0000 0.0000 0.0000 0.0000 18.2505 0.0000
# 6 0.0000 0.0000 0.0000 0.0000 0.0000 40.5337
#
#
#
# Elastic Compliance Matrix: (Units=1/GPa)
#
#
# Indices 1 2 3 4 5 6 
#
# 1 0.007210 -0.003053 0.000421 0.000000 0.000000 0.000000
# 2 -0.003053 0.008204 -0.001896 0.000000 0.000000 0.000000
# 3 0.000421 -0.001896 0.015839 0.000000 0.000000 0.000000
# 4 0.000000 0.000000 0.000000 0.028183 0.000000 0.000000
# 5 0.000000 0.000000 0.000000 0.000000 0.054793 0.000000
# 6 0.000000 0.000000 0.000000 0.000000 0.000000 0.024671
#
#
# Mechanical properties :
#
#
# Convention : Reuss Voigt Hill
#
# Bulk Modulus (GPa) = 45.05207 60.10416 52.57811
# Shear Modulus (GPa) = 32.18461 38.67074 35.42767
#
# Velocity S-wave (km/s) = 3.51029 3.84778 3.68290
# Velocity P-wave (km/s) = 5.80328 6.53849 6.18182
#
# Compressibility (1/GPa) = 0.02219654
#
# Stress axis : x y z
#
# Youngs Moduli (GPa) = 138.70406 121.88913 63.13631
#
# Poissons Ratio (x) = 0.37213 -0.02656
# Poissons Ratio (y) = 0.42347 0.11968
# Poissons Ratio (z) = -0.05835 0.23105
#
# Static dielectric constant tensor:
#      x y z
#    x 2.105880 0.000000 0.000000 
#    y 0.000000 2.017460 0.000000 
#    z 0.000000 0.000000 2.200960 
# 
# From -- ./inp_files/54347.got.cif
#   From: 2010.05.17/outbox.cif.g08.bks.cpg/sg70_28_cif.got.tgz:54347.got - 2010.06.03 15:57:51.
