data_PCOD9516927
_publ_section_title
;
Structure prediction by ZEFSAII (Michael W. Deem and Ramdas Pophale) SiO2 
 PCOD9516927
Probable space group: F D D D
;
_chemical_formula_sum "Si O2"
_cell_formula_units_Z 192
_cell_length_a 24.630601
_cell_length_b 27.311795
_cell_length_c 12.307947
_cell_angle_alpha 90.000000
_cell_angle_beta 90.000000
_cell_angle_gamma 90.000000
_cell_volume 8279.628874
_symmetry_space_group_name_H-M "F D D D"
_symmetry_group_IT_number 70
_space_group.IT_coordinate_system_code '2'
_symmetry_cell_setting 'orthorhombic'
loop_
_space_group_symop_operation_xyz
x,y,z
1/4-x,1/4-y,z
x,1/4-y,1/4-z
1/4-x,y,1/4-z
-x,-y,-z
3/4+x,3/4+y,-z
-x,3/4+y,3/4+z
3/4+x,-y,3/4+z
x,1/2+y,1/2+z
1/4-x,3/4-y,1/2+z
x,3/4-y,3/4-z
1/4-x,1/2+y,3/4-z
-x,1/2-y,1/2-z
3/4+x,1/4+y,1/2-z
-x,1/4+y,1/4+z
3/4+x,1/2-y,1/4+z
1/2+x,y,1/2+z
3/4-x,1/4-y,1/2+z
1/2+x,1/4-y,3/4-z
3/4-x,y,3/4-z
1/2-x,-y,1/2-z
1/4+x,3/4+y,1/2-z
1/2-x,3/4+y,1/4+z
1/4+x,-y,1/4+z
1/2+x,1/2+y,z
3/4-x,3/4-y,z
1/2+x,3/4-y,1/4-z
3/4-x,1/2+y,1/4-z
1/2-x,1/2-y,-z
1/4+x,1/4+y,-z
1/2-x,1/4+y,3/4+z
1/4+x,1/2-y,3/4+z
loop_
_atom_site_type_symbol
_atom_site_label
_atom_site_fract_x
_atom_site_fract_y
_atom_site_fract_z
Si Si1 0.577709 0.058002 0.795059
Si Si2 0.098157 0.037600 0.770270
Si Si3 0.333392 0.554975 0.221708
Si Si4 0.232236 0.288444 0.267829
Si Si5 0.422617 0.125000 0.625000
Si Si6 0.375000 0.375000 0.875000
Si Si7 0.625000 0.125000 0.125000
Si Si8 0.475397 0.618352 0.359771
O O1 0.633861 0.055346 0.861302
O O2 0.586650 0.091342 0.693938
O O3 0.529769 0.084849 0.861722
O O4 0.561799 0.004127 0.756601
O O5 0.093312 0.086847 0.699623
O O6 0.040305 0.013205 0.752839
O O7 0.146615 0.999366 0.745621
O O8 0.381655 0.579885 0.151537
O O9 0.319071 0.586075 0.326854
O O10 0.281019 0.555101 0.141398
O O11 0.229584 0.332449 0.181932
O O12 0.457246 0.130110 0.736045
#
# Coordination Sequence:
#
# PCOD9516927 Si02
#       8
#    32  32  32  32  16   8   8  32
#     4  11  27  47  74 107 148 204 250 316 383 450
#     4  11  27  45  70 109 149 192 251 310 387 451
#     4  11  26  46  72 108 152 194 247 317 381 450
#     4  11  25  46  76 110 148 199 255 317 381 463
#     4  12  25  43  74 107 149 204 242 324 388 426
#     4  12  24  52  72  96 154 200 254 310 368 464
#     4  12  26  38  72 100 146 200 226 306 376 460
#     4  12  25  47  74 110 151 195 257 312 376 467
#
# _framework density 23.189444999999999
#
# number of rings (size 3 to 8) (size 9 to 14) (size 15 to 20)
#    0.000    0.667    1.667    4.500    9.333    4.000 
#    0.000    5.000    0.000    0.000    0.000    0.000 
#    0.000    0.000    0.000    0.000    0.000    0.000 
#
# Total GULP energy -268410.870339 kJ/mol
# GULP energy per Si atom -5591.893132 kJ/mol
# Density = 2.313666 g / cm^3
# Si number density = 23.189445 Si / 1000 Ang^3
#
#
#
# Elastic Constant Matrix: (Units=GPa)
#
#
# Indices 1 2 3 4 5 6 
#
# 1 90.2838 6.9993 42.6548 0.0000 0.0000 0.0000
# 2 6.9993 110.9628 40.3086 0.0000 0.0000 0.0000
# 3 42.6548 40.3086 135.2748 0.0000 0.0000 0.0000
# 4 0.0000 0.0000 0.0000 32.1475 0.0000 0.0000
# 5 0.0000 0.0000 0.0000 0.0000 38.3054 0.0000
# 6 0.0000 0.0000 0.0000 0.0000 0.0000 19.5573
#
#
#
# Elastic Compliance Matrix: (Units=1/GPa)
#
#
# Indices 1 2 3 4 5 6 
#
# 1 0.013071 0.000754 -0.004346 0.000000 0.000000 0.000000
# 2 0.000754 0.010149 -0.003262 0.000000 0.000000 0.000000
# 3 -0.004346 -0.003262 0.009735 0.000000 0.000000 0.000000
# 4 0.000000 0.000000 0.000000 0.031107 0.000000 0.000000
# 5 0.000000 0.000000 0.000000 0.000000 0.026106 0.000000
# 6 0.000000 0.000000 0.000000 0.000000 0.000000 0.051132
#
#
# Mechanical properties :
#
#
# Convention : Reuss Voigt Hill
#
# Bulk Modulus (GPa) = 51.95562 57.38296 54.66929
# Shear Modulus (GPa) = 30.97431 34.43928 32.70680
#
# Velocity S-wave (km/s) = 3.65870 3.85792 3.75963
# Velocity P-wave (km/s) = 6.34835 6.68159 6.51710
#
# Compressibility (1/GPa) = 0.01924719
#
# Stress axis : x y z
#
# Youngs Moduli (GPa) = 76.50439 98.52742 102.72323
#
# Poissons Ratio (x) = -0.07433 0.44647
# Poissons Ratio (y) = -0.05771 0.33510
# Poissons Ratio (z) = 0.33252 0.32141
#
# Static dielectric constant tensor:
#      x y z
#    x 1.898700 0.000000 0.000000 
#    y 0.000000 1.977430 0.000000 
#    z 0.000000 0.000000 1.848890 
# 
# From -- ./inp_files/21260.got.cif
#   From: 2010.05.17/outbox.cif.g08.bks.cpg/sg70_11_cif.got.tgz:21260.got - 2010.06.03 15:57:51.
