data_PCOD9516909
_publ_section_title
;
Structure prediction by ZEFSAII (Michael W. Deem and Ramdas Pophale) SiO2 
 PCOD9516909
Probable space group: F D D D
;
_chemical_formula_sum "Si O2"
_cell_formula_units_Z 176
_cell_length_a 28.777987
_cell_length_b 25.189170
_cell_length_c 10.858121
_cell_angle_alpha 90.000000
_cell_angle_beta 90.000000
_cell_angle_gamma 90.000000
_cell_volume 7870.982495
_symmetry_space_group_name_H-M "F D D D"
_symmetry_group_IT_number 70
_space_group.IT_coordinate_system_code '2'
_symmetry_cell_setting 'orthorhombic'
loop_
_space_group_symop_operation_xyz
x,y,z
1/4-x,1/4-y,z
x,1/4-y,1/4-z
1/4-x,y,1/4-z
-x,-y,-z
3/4+x,3/4+y,-z
-x,3/4+y,3/4+z
3/4+x,-y,3/4+z
x,1/2+y,1/2+z
1/4-x,3/4-y,1/2+z
x,3/4-y,3/4-z
1/4-x,1/2+y,3/4-z
-x,1/2-y,1/2-z
3/4+x,1/4+y,1/2-z
-x,1/4+y,1/4+z
3/4+x,1/2-y,1/4+z
1/2+x,y,1/2+z
3/4-x,1/4-y,1/2+z
1/2+x,1/4-y,3/4-z
3/4-x,y,3/4-z
1/2-x,-y,1/2-z
1/4+x,3/4+y,1/2-z
1/2-x,3/4+y,1/4+z
1/4+x,-y,1/4+z
1/2+x,1/2+y,z
3/4-x,3/4-y,z
1/2+x,3/4-y,1/4-z
3/4-x,1/2+y,1/4-z
1/2-x,1/2-y,-z
1/4+x,1/4+y,-z
1/2-x,1/4+y,3/4+z
1/4+x,1/2-y,3/4+z
loop_
_atom_site_type_symbol
_atom_site_label
_atom_site_fract_x
_atom_site_fract_y
_atom_site_fract_z
Si Si1 0.224751 0.625000 0.625000
Si Si2 0.485428 0.088343 0.385281
Si Si3 0.822887 0.874128 0.522184
Si Si4 0.180411 0.010023 0.106082
Si Si5 0.594054 0.399452 0.504151
Si Si6 0.048160 0.004440 0.427919
O O1 0.256296 0.624915 0.503857
O O2 0.194893 0.570793 0.631619
O O3 0.536824 0.083100 0.325690
O O4 0.454070 0.119403 0.286193
O O5 0.459385 0.034972 0.428653
O O6 0.823211 0.875000 0.375000
O O7 0.875000 0.875000 0.571814
O O8 0.808197 0.815815 0.558383
O O9 0.125000 0.003609 0.125000
O O10 0.197706 0.995577 0.968060
O O11 0.625000 0.390287 0.625000
O O12 0.612072 0.375000 0.375000
O O13 0.583324 0.461664 0.486455
O O14 0.000000 0.000000 0.500000
#
# Coordination Sequence:
#
# PCOD9516909 Si02
#       6
#    16  32  32  32  32  32
#     4  12  27  46  70 110 150 200 258 312 379 466
#     4  12  25  48  74 108 150 198 246 318 375 460
#     4  11  25  44  73 109 146 189 258 313 376 450
#     4  12  27  47  77 107 154 201 256 313 390 459
#     4  12  27  47  77 109 155 199 253 313 387 463
#     4  12  24  48  75 109 146 206 246 316 384 456
#
# _framework density 22.360613000000001
#
# number of rings (size 3 to 8) (size 9 to 14) (size 15 to 20)
#    0.000    0.182    5.455    3.000    6.364    0.000 
#    0.000    0.000    0.000    0.000    0.000    0.000 
#    0.000    0.000    0.000    0.000    0.000    0.000 
#
# Total GULP energy -245869.698185 kJ/mol
# GULP energy per Si atom -5587.947686 kJ/mol
# Density = 2.230972 g / cm^3
# Si number density = 22.360613 Si / 1000 Ang^3
#
#
#
# Elastic Constant Matrix: (Units=GPa)
#
#
# Indices 1 2 3 4 5 6 
#
# 1 123.7401 48.7125 29.2988 0.0003 -0.0001 -0.0001
# 2 48.7125 116.2521 -1.9130 -0.0002 0.0003 0.0002
# 3 29.2988 -1.9130 112.5860 -0.0009 0.0008 0.0006
# 4 0.0003 -0.0002 -0.0009 34.8729 0.0005 0.0004
# 5 -0.0001 0.0003 0.0008 0.0005 37.2564 -0.0003
# 6 -0.0001 0.0002 0.0006 0.0004 -0.0003 30.6705
#
#
#
# Elastic Compliance Matrix: (Units=1/GPa)
#
#
# Indices 1 2 3 4 5 6 
#
# 1 0.010496 -0.004444 -0.002807 0.000000 0.000000 0.000000
# 2 -0.004444 0.010486 0.001335 0.000000 0.000000 0.000000
# 3 -0.002807 0.001335 0.009635 0.000000 0.000000 0.000000
# 4 0.000000 0.000000 0.000000 0.028676 0.000000 0.000000
# 5 0.000000 0.000000 0.000000 0.000000 0.026841 0.000000
# 6 0.000000 0.000000 0.000000 0.000000 0.000000 0.032605
#
#
# Mechanical properties :
#
#
# Convention : Reuss Voigt Hill
#
# Bulk Modulus (GPa) = 53.23551 56.08609 54.66080
# Shear Modulus (GPa) = 36.54115 38.99195 37.76655
#
# Velocity S-wave (km/s) = 4.04688 4.18039 4.11417
# Velocity P-wave (km/s) = 6.75986 6.95973 6.86052
#
# Compressibility (1/GPa) = 0.01878445
#
# Stress axis : x y z
#
# Youngs Moduli (GPa) = 95.27858 95.36396 103.78601
#
# Poissons Ratio (x) = 0.42381 0.29131
# Poissons Ratio (y) = 0.42343 -0.13852
# Poissons Ratio (z) = 0.26743 -0.12728
#
# Static dielectric constant tensor:
#      x y z
#    x 1.833240 0.000000 0.000000 
#    y 0.000000 1.845500 0.000000 
#    z 0.000000 0.000000 1.476030 
# 
# From -- ./inp_files/20999.got.cif
#   From: 2010.05.17/outbox.cif.g08.bks.cpg/sg70_11_cif.got.tgz:20999.got - 2010.06.03 15:57:51.
