data_PCOD9516771
_publ_section_title
;
Structure prediction by ZEFSAII (Michael W. Deem and Ramdas Pophale) SiO2 
 PCOD9516771
Probable space group: F D D D
;
_chemical_formula_sum "Si O2"
_cell_formula_units_Z 112
_cell_length_a 12.475273
_cell_length_b 14.140631
_cell_length_c 26.491796
_cell_angle_alpha 90.000000
_cell_angle_beta 90.000000
_cell_angle_gamma 90.000000
_cell_volume 4673.370898
_symmetry_space_group_name_H-M "F D D D"
_symmetry_group_IT_number 70
_space_group.IT_coordinate_system_code '2'
_symmetry_cell_setting 'orthorhombic'
loop_
_space_group_symop_operation_xyz
x,y,z
1/4-x,1/4-y,z
x,1/4-y,1/4-z
1/4-x,y,1/4-z
-x,-y,-z
3/4+x,3/4+y,-z
-x,3/4+y,3/4+z
3/4+x,-y,3/4+z
x,1/2+y,1/2+z
1/4-x,3/4-y,1/2+z
x,3/4-y,3/4-z
1/4-x,1/2+y,3/4-z
-x,1/2-y,1/2-z
3/4+x,1/4+y,1/2-z
-x,1/4+y,1/4+z
3/4+x,1/2-y,1/4+z
1/2+x,y,1/2+z
3/4-x,1/4-y,1/2+z
1/2+x,1/4-y,3/4-z
3/4-x,y,3/4-z
1/2-x,-y,1/2-z
1/4+x,3/4+y,1/2-z
1/2-x,3/4+y,1/4+z
1/4+x,-y,1/4+z
1/2+x,1/2+y,z
3/4-x,3/4-y,z
1/2+x,3/4-y,1/4-z
3/4-x,1/2+y,1/4-z
1/2-x,1/2-y,-z
1/4+x,1/4+y,-z
1/2-x,1/4+y,3/4+z
1/4+x,1/2-y,3/4+z
loop_
_atom_site_type_symbol
_atom_site_label
_atom_site_fract_x
_atom_site_fract_y
_atom_site_fract_z
Si Si1 0.986506 0.770299 0.396779
Si Si2 0.875000 0.375000 0.656624
Si Si3 0.495111 0.399635 0.736299
Si Si4 0.670026 0.772001 0.182200
O O1 0.992995 0.875000 0.375000
O O2 0.875000 0.729742 0.375000
O O3 0.977430 0.746162 0.455788
O O4 0.087809 0.714433 0.375802
O O5 0.767803 0.345840 0.684694
O O6 0.375000 0.375000 0.720164
O O7 0.476802 0.428025 0.794553
O O8 0.576044 0.317788 0.717552
O O9 0.625000 0.761080 0.125000
#
# Coordination Sequence:
#
# PCOD9516771 Si02
#       4
#    32  16  32  32
#     4  11  23  44  78 111 155 207 259 316 390 456
#     4  12  22  48  76 104 172 186 252 326 388 448
#     4  12  25  49  75 108 155 207 259 317 384 463
#     4  12  27  48  75 113 154 204 253 327 381 460
#
# _framework density 23.965572000000002
#
# number of rings (size 3 to 8) (size 9 to 14) (size 15 to 20)
#    0.000    0.286    7.143    0.857    4.000    4.000 
#    0.000    0.000    0.000    0.000    0.000    0.000 
#    0.000    0.000    0.000    0.000    0.000    0.000 
#
# Total GULP energy -156179.246950 kJ/mol
# GULP energy per Si atom -5577.830248 kJ/mol
# Density = 2.391102 g / cm^3
# Si number density = 23.965572 Si / 1000 Ang^3
#
#
#
# Elastic Constant Matrix: (Units=GPa)
#
#
# Indices 1 2 3 4 5 6 
#
# 1 151.3593 13.1447 44.2964 0.0000 0.0000 0.0000
# 2 13.1447 59.6657 37.3181 0.0000 0.0000 0.0000
# 3 44.2964 37.3181 130.1963 0.0000 0.0000 0.0000
# 4 0.0000 0.0000 0.0000 29.1572 0.0000 0.0000
# 5 0.0000 0.0000 0.0000 0.0000 25.4689 0.0000
# 6 0.0000 0.0000 0.0000 0.0000 0.0000 45.6450
#
#
#
# Elastic Compliance Matrix: (Units=1/GPa)
#
#
# Indices 1 2 3 4 5 6 
#
# 1 0.007338 -0.000067 -0.002477 0.000000 0.000000 0.000000
# 2 -0.000067 0.020422 -0.005831 0.000000 0.000000 0.000000
# 3 -0.002477 -0.005831 0.010195 0.000000 0.000000 0.000000
# 4 0.000000 0.000000 0.000000 0.034297 0.000000 0.000000
# 5 0.000000 0.000000 0.000000 0.000000 0.039264 0.000000
# 6 0.000000 0.000000 0.000000 0.000000 0.000000 0.021908
#
#
# Mechanical properties :
#
#
# Convention : Reuss Voigt Hill
#
# Bulk Modulus (GPa) = 47.16078 58.97109 53.06593
# Shear Modulus (GPa) = 31.79842 36.48501 34.14172
#
# Velocity S-wave (km/s) = 3.64653 3.90602 3.77850
# Velocity P-wave (km/s) = 6.11971 6.70840 6.42081
#
# Compressibility (1/GPa) = 0.02120406
#
# Stress axis : x y z
#
# Youngs Moduli (GPa) = 136.28429 48.96779 98.08977
#
# Poissons Ratio (x) = 0.00329 0.24299
# Poissons Ratio (y) = 0.00915 0.57192
# Poissons Ratio (z) = 0.33761 0.28551
#
# Static dielectric constant tensor:
#      x y z
#    x 1.891370 0.000000 0.000000 
#    y 0.000000 2.012020 0.000000 
#    z 0.000000 0.000000 2.011580 
# 
# From -- ./inp_files/21733.got.cif
#   From: 2010.05.17/outbox.cif.g08.bks.cpg/sg70_11_cif.got.tgz:21733.got - 2010.06.03 15:57:51.
