data_PCOD9516260
_publ_section_title
;
Structure prediction by ZEFSAII (Michael W. Deem and Ramdas Pophale) SiO2 
 PCOD9516260
Probable space group: F D D D
;
_chemical_formula_sum "Si O2"
_cell_formula_units_Z 80
_cell_length_a 19.582163
_cell_length_b 14.285046
_cell_length_c 11.564979
_cell_angle_alpha 90.000000
_cell_angle_beta 90.000000
_cell_angle_gamma 90.000000
_cell_volume 3235.095853
_symmetry_space_group_name_H-M "F D D D"
_symmetry_group_IT_number 70
_space_group.IT_coordinate_system_code '2'
_symmetry_cell_setting 'orthorhombic'
loop_
_space_group_symop_operation_xyz
x,y,z
1/4-x,1/4-y,z
x,1/4-y,1/4-z
1/4-x,y,1/4-z
-x,-y,-z
3/4+x,3/4+y,-z
-x,3/4+y,3/4+z
3/4+x,-y,3/4+z
x,1/2+y,1/2+z
1/4-x,3/4-y,1/2+z
x,3/4-y,3/4-z
1/4-x,1/2+y,3/4-z
-x,1/2-y,1/2-z
3/4+x,1/4+y,1/2-z
-x,1/4+y,1/4+z
3/4+x,1/2-y,1/4+z
1/2+x,y,1/2+z
3/4-x,1/4-y,1/2+z
1/2+x,1/4-y,3/4-z
3/4-x,y,3/4-z
1/2-x,-y,1/2-z
1/4+x,3/4+y,1/2-z
1/2-x,3/4+y,1/4+z
1/4+x,-y,1/4+z
1/2+x,1/2+y,z
3/4-x,3/4-y,z
1/2+x,3/4-y,1/4-z
3/4-x,1/2+y,1/4-z
1/2-x,1/2-y,-z
1/4+x,1/4+y,-z
1/2-x,1/4+y,3/4+z
1/4+x,1/2-y,3/4+z
loop_
_atom_site_type_symbol
_atom_site_label
_atom_site_fract_x
_atom_site_fract_y
_atom_site_fract_z
Si Si1 0.296668 0.641778 0.373515
Si Si2 0.674796 0.375000 0.375000
Si Si3 0.577229 0.212396 0.425658
O O1 0.375000 0.607043 0.375000
O O2 0.284114 0.653946 0.511198
O O3 0.299492 0.729930 0.287349
O O4 0.234290 0.574106 0.346141
O O5 0.624995 0.286201 0.359077
O O6 0.625000 0.125000 0.459401
#
# Coordination Sequence:
#
# PCOD9516260 Si02
#       3
#    32  16  32
#     4  10  24  42  66  98 133 173 221 270 329 393
#     4  10  24  42  66 100 136 176 222 272 334 398
#     4  11  24  44  70  99 135 176 222 276 331 395
#
# _framework density 24.728788999999999
#
# number of rings (size 3 to 8) (size 9 to 14) (size 15 to 20)
#    0.000    1.600    0.000    2.400    0.000   31.200 
#    0.000    5.000    0.000    2.400    0.000    0.000 
#    0.000    0.000    0.000    0.000    0.000    0.000 
#
# Total GULP energy -111682.718281 kJ/mol
# GULP energy per Si atom -5584.135914 kJ/mol
# Density = 2.467250 g / cm^3
# Si number density = 24.728789 Si / 1000 Ang^3
#
#
#
# Elastic Constant Matrix: (Units=GPa)
#
#
# Indices 1 2 3 4 5 6 
#
# 1 106.5204 66.5111 3.2917 0.0000 0.0000 0.0000
# 2 66.5111 177.4737 74.7190 0.0000 0.0000 0.0000
# 3 3.2917 74.7190 127.9055 0.0000 0.0000 0.0000
# 4 0.0000 0.0000 0.0000 52.8619 0.0000 0.0000
# 5 0.0000 0.0000 0.0000 0.0000 10.9064 0.0000
# 6 0.0000 0.0000 0.0000 0.0000 0.0000 73.6893
#
#
#
# Elastic Compliance Matrix: (Units=1/GPa)
#
#
# Indices 1 2 3 4 5 6 
#
# 1 0.013287 -0.006413 0.003404 0.000000 0.000000 0.000000
# 2 -0.006413 0.010567 -0.006008 0.000000 0.000000 0.000000
# 3 0.003404 -0.006008 0.011240 0.000000 0.000000 0.000000
# 4 0.000000 0.000000 0.000000 0.018917 0.000000 0.000000
# 5 0.000000 0.000000 0.000000 0.000000 0.091689 0.000000
# 6 0.000000 0.000000 0.000000 0.000000 0.000000 0.013570
#
#
# Mechanical properties :
#
#
# Convention : Reuss Voigt Hill
#
# Bulk Modulus (GPa) = 58.61215 77.88255 68.24735
# Shear Modulus (GPa) = 27.32363 45.31671 36.32017
#
# Velocity S-wave (km/s) = 3.32766 4.28547 3.83657
# Velocity P-wave (km/s) = 6.20628 7.48666 6.87633
#
# Compressibility (1/GPa) = 0.01706131
#
# Stress axis : x y z
#
# Youngs Moduli (GPa) = 75.26339 94.63098 88.96429
#
# Poissons Ratio (x) = 0.60683 -0.30285
# Poissons Ratio (y) = 0.48263 0.53451
# Poissons Ratio (z) = -0.25621 0.56856
#
# Static dielectric constant tensor:
#      x y z
#    x 2.013030 0.000000 0.000000 
#    y 0.000000 1.957360 0.000000 
#    z 0.000000 0.000000 2.059810 
# 
# From -- ./inp_files/14544.got.cif
#   From: 2010.05.17/outbox.cif.g08.bks.cpg/sg70_8_cif.got.tgz:14544.got - 2010.06.03 15:57:51.
