data_PCOD9516855
_publ_section_title
;
Structure prediction by ZEFSAII (Michael W. Deem and Ramdas Pophale) SiO2 
 PCOD9516855
Probable space group: F D D D
;
_chemical_formula_sum "Si O2"
_cell_formula_units_Z 112
_cell_length_a 20.296895
_cell_length_b 18.649868
_cell_length_c 13.788381
_cell_angle_alpha 90.000000
_cell_angle_beta 90.000000
_cell_angle_gamma 90.000000
_cell_volume 5219.376702
_symmetry_space_group_name_H-M "F D D D"
_symmetry_group_IT_number 70
_space_group.IT_coordinate_system_code '2'
_symmetry_cell_setting 'orthorhombic'
loop_
_space_group_symop_operation_xyz
x,y,z
1/4-x,1/4-y,z
x,1/4-y,1/4-z
1/4-x,y,1/4-z
-x,-y,-z
3/4+x,3/4+y,-z
-x,3/4+y,3/4+z
3/4+x,-y,3/4+z
x,1/2+y,1/2+z
1/4-x,3/4-y,1/2+z
x,3/4-y,3/4-z
1/4-x,1/2+y,3/4-z
-x,1/2-y,1/2-z
3/4+x,1/4+y,1/2-z
-x,1/4+y,1/4+z
3/4+x,1/2-y,1/4+z
1/2+x,y,1/2+z
3/4-x,1/4-y,1/2+z
1/2+x,1/4-y,3/4-z
3/4-x,y,3/4-z
1/2-x,-y,1/2-z
1/4+x,3/4+y,1/2-z
1/2-x,3/4+y,1/4+z
1/4+x,-y,1/4+z
1/2+x,1/2+y,z
3/4-x,3/4-y,z
1/2+x,3/4-y,1/4-z
3/4-x,1/2+y,1/4-z
1/2-x,1/2-y,-z
1/4+x,1/4+y,-z
1/2-x,1/4+y,3/4+z
1/4+x,1/2-y,3/4+z
loop_
_atom_site_type_symbol
_atom_site_label
_atom_site_fract_x
_atom_site_fract_y
_atom_site_fract_z
Si Si1 0.125000 0.751789 0.625000
Si Si2 0.065250 0.179001 0.959692
Si Si3 0.426137 0.626153 0.241700
Si Si4 0.046697 0.446799 0.936929
O O1 0.073241 0.703042 0.570327
O O2 0.160300 0.799152 0.543762
O O3 0.125000 0.125000 0.936729
O O4 0.072412 0.248719 0.893939
O O5 0.991161 0.150617 0.953367
O O6 0.436658 0.625000 0.125000
O O7 0.358297 0.580648 0.250833
O O8 0.022118 0.375000 0.875000
O O9 0.000000 0.500000 0.000000
#
# Coordination Sequence:
#
# PCOD9516855 Si02
#       4
#    16  32  32  32
#     4  12  23  46  70 102 145 184 240 306 361 438
#     4  12  27  42  74 111 143 190 249 301 374 448
#     4  11  24  45  70 103 147 189 240 308 369 443
#     4  11  25  50  74 109 150 200 253 309 380 455
#
# _framework density 21.458500999999998
#
# number of rings (size 3 to 8) (size 9 to 14) (size 15 to 20)
#    0.000    0.571    5.714    3.857    4.000    2.286 
#    0.000    1.429    0.000    0.000    0.000    0.000 
#    0.000    0.000    0.000    0.000    0.000    0.000 
#
# Total GULP energy -156115.505372 kJ/mol
# GULP energy per Si atom -5575.553763 kJ/mol
# Density = 2.140966 g / cm^3
# Si number density = 21.458501 Si / 1000 Ang^3
#
#
#
# Elastic Constant Matrix: (Units=GPa)
#
#
# Indices 1 2 3 4 5 6 
#
# 1 110.3795 48.6352 12.0807 0.0000 0.0000 0.0000
# 2 48.6352 138.8362 43.2979 0.0000 0.0000 0.0000
# 3 12.0807 43.2979 75.3043 0.0000 0.0000 0.0000
# 4 0.0000 0.0000 0.0000 50.6468 0.0000 0.0000
# 5 0.0000 0.0000 0.0000 0.0000 33.2866 0.0000
# 6 0.0000 0.0000 0.0000 0.0000 0.0000 18.3670
#
#
#
# Elastic Compliance Matrix: (Units=1/GPa)
#
#
# Indices 1 2 3 4 5 6 
#
# 1 0.010731 -0.003926 0.000536 0.000000 0.000000 0.000000
# 2 -0.003926 0.010213 -0.005242 0.000000 0.000000 0.000000
# 3 0.000536 -0.005242 0.016208 0.000000 0.000000 0.000000
# 4 0.000000 0.000000 0.000000 0.019745 0.000000 0.000000
# 5 0.000000 0.000000 0.000000 0.000000 0.030042 0.000000
# 6 0.000000 0.000000 0.000000 0.000000 0.000000 0.054445
#
#
# Mechanical properties :
#
#
# Convention : Reuss Voigt Hill
#
# Bulk Modulus (GPa) = 50.28559 59.17193 54.72876
# Shear Modulus (GPa) = 30.25210 35.16050 32.70630
#
# Velocity S-wave (km/s) = 3.75880 4.05227 3.90829
# Velocity P-wave (km/s) = 6.50560 7.03772 6.77688
#
# Compressibility (1/GPa) = 0.01988641
#
# Stress axis : x y z
#
# Youngs Moduli (GPa) = 93.18816 97.91421 61.69922
#
# Poissons Ratio (x) = 0.38444 -0.03307
# Poissons Ratio (y) = 0.36588 0.32345
# Poissons Ratio (z) = -0.04995 0.51330
#
# Static dielectric constant tensor:
#      x y z
#    x 1.945720 0.000000 0.000000 
#    y 0.000000 1.798720 0.000000 
#    z 0.000000 0.000000 1.849170 
# 
# From -- ./inp_files/28293.got.cif
#   From: 2010.05.17/outbox.cif.g08.bks.cpg/sg70_15_cif.got.tgz:28293.got - 2010.06.03 15:57:51.
