data_PCOD9516101
_publ_section_title
;
Structure prediction by ZEFSAII (Michael W. Deem and Ramdas Pophale) SiO2 
 PCOD9516101
Probable space group: F D D D
;
_chemical_formula_sum "Si O2"
_cell_formula_units_Z 112
_cell_length_a 5.375720
_cell_length_b 28.291560
_cell_length_c 31.210365
_cell_angle_alpha 90.000000
_cell_angle_beta 90.000000
_cell_angle_gamma 90.000000
_cell_volume 4746.706541
_symmetry_space_group_name_H-M "F D D D"
_symmetry_group_IT_number 70
_space_group.IT_coordinate_system_code '2'
_symmetry_cell_setting 'orthorhombic'
loop_
_space_group_symop_operation_xyz
x,y,z
1/4-x,1/4-y,z
x,1/4-y,1/4-z
1/4-x,y,1/4-z
-x,-y,-z
3/4+x,3/4+y,-z
-x,3/4+y,3/4+z
3/4+x,-y,3/4+z
x,1/2+y,1/2+z
1/4-x,3/4-y,1/2+z
x,3/4-y,3/4-z
1/4-x,1/2+y,3/4-z
-x,1/2-y,1/2-z
3/4+x,1/4+y,1/2-z
-x,1/4+y,1/4+z
3/4+x,1/2-y,1/4+z
1/2+x,y,1/2+z
3/4-x,1/4-y,1/2+z
1/2+x,1/4-y,3/4-z
3/4-x,y,3/4-z
1/2-x,-y,1/2-z
1/4+x,3/4+y,1/2-z
1/2-x,3/4+y,1/4+z
1/4+x,-y,1/4+z
1/2+x,1/2+y,z
3/4-x,3/4-y,z
1/2+x,3/4-y,1/4-z
3/4-x,1/2+y,1/4-z
1/2-x,1/2-y,-z
1/4+x,1/4+y,-z
1/2-x,1/4+y,3/4+z
1/4+x,1/2-y,3/4+z
loop_
_atom_site_type_symbol
_atom_site_label
_atom_site_fract_x
_atom_site_fract_y
_atom_site_fract_z
Si Si1 0.180306 0.469150 0.676271
Si Si2 0.875000 0.375000 0.963005
Si Si3 0.976245 0.925365 0.922758
Si Si4 0.446880 0.049303 0.974316
O O1 0.125000 0.467640 0.625000
O O2 0.165668 0.524076 0.691870
O O3 0.449765 0.453069 0.694462
O O4 0.948042 0.443176 0.697032
O O5 0.764525 0.415238 0.931482
O O6 0.049667 0.406120 0.994014
O O7 0.875000 0.928735 0.875000
O O8 0.875000 0.875000 0.937635
O O9 0.500000 0.000000 0.000000
#
# Coordination Sequence:
#
# PCOD9516101 Si02
#       4
#    32  16  32  32
#     4  11  25  48  73 102 144 195 243 296 365 433
#     4  12  26  41  74 108 148 188 244 306 376 428
#     4  10  23  41  67 103 147 186 234 297 374 451
#     4  12  25  45  73 108 147 187 242 301 363 438
#
# _framework density 23.595306999999998
#
# number of rings (size 3 to 8) (size 9 to 14) (size 15 to 20)
#    0.000    0.857    2.857    3.429    4.000    2.286 
#    5.143    2.857    0.000    0.000    0.000    0.000 
#    0.000    0.000    0.000    0.000    0.000    0.000 
#
# Total GULP energy -156029.621910 kJ/mol
# GULP energy per Si atom -5572.486497 kJ/mol
# Density = 2.354160 g / cm^3
# Si number density = 23.595307 Si / 1000 Ang^3
#
#
#
# Elastic Constant Matrix: (Units=GPa)
#
#
# Indices 1 2 3 4 5 6 
#
# 1 172.0786 36.4211 87.1458 0.0000 0.0000 0.0000
# 2 36.4211 75.2807 40.6056 0.0000 0.0000 0.0000
# 3 87.1458 40.6056 112.8262 0.0000 0.0000 0.0000
# 4 0.0000 0.0000 0.0000 42.1596 0.0000 0.0000
# 5 0.0000 0.0000 0.0000 0.0000 41.5338 0.0000
# 6 0.0000 0.0000 0.0000 0.0000 0.0000 34.6693
#
#
#
# Elastic Compliance Matrix: (Units=1/GPa)
#
#
# Indices 1 2 3 4 5 6 
#
# 1 0.009583 -0.000799 -0.007115 0.000000 0.000000 0.000000
# 2 -0.000799 0.016550 -0.005339 0.000000 0.000000 0.000000
# 3 -0.007115 -0.005339 0.016280 0.000000 0.000000 0.000000
# 4 0.000000 0.000000 0.000000 0.023719 0.000000 0.000000
# 5 0.000000 0.000000 0.000000 0.000000 0.024077 0.000000
# 6 0.000000 0.000000 0.000000 0.000000 0.000000 0.028844
#
#
# Mechanical properties :
#
#
# Convention : Reuss Voigt Hill
#
# Bulk Modulus (GPa) = 62.86152 76.50339 69.68245
# Shear Modulus (GPa) = 33.14292 36.74008 34.94150
#
# Velocity S-wave (km/s) = 3.75192 3.95028 3.85238
# Velocity P-wave (km/s) = 6.74304 7.30067 7.02739
#
# Compressibility (1/GPa) = 0.01590798
#
# Stress axis : x y z
#
# Youngs Moduli (GPa) = 104.34644 60.42277 61.42510
#
# Poissons Ratio (x) = 0.04828 0.43702
# Poissons Ratio (y) = 0.08337 0.32796
# Poissons Ratio (z) = 0.74239 0.32261
#
# Static dielectric constant tensor:
#      x y z
#    x -17.698900 0.000000 0.000000 
#    y 0.000000 1.847690 0.000000 
#    z 0.000000 0.000000 1.929730 
# 
# From -- ./inp_files/62920.got.cif
#   From: 2010.05.17/outbox.cif.g08.bks.cpg/sg70_32_cif.got.tgz:62920.got - 2010.06.03 15:57:51.
