data_PCOD9516770
_publ_section_title
;
Structure prediction by ZEFSAII (Michael W. Deem and Ramdas Pophale) SiO2 
 PCOD9516770
Probable space group: F D D D
;
_chemical_formula_sum "Si O2"
_cell_formula_units_Z 96
_cell_length_a 23.172040
_cell_length_b 16.898559
_cell_length_c 11.239560
_cell_angle_alpha 90.000000
_cell_angle_beta 90.000000
_cell_angle_gamma 90.000000
_cell_volume 4401.120424
_symmetry_space_group_name_H-M "F D D D"
_symmetry_group_IT_number 70
_space_group.IT_coordinate_system_code '2'
_symmetry_cell_setting 'orthorhombic'
loop_
_space_group_symop_operation_xyz
x,y,z
1/4-x,1/4-y,z
x,1/4-y,1/4-z
1/4-x,y,1/4-z
-x,-y,-z
3/4+x,3/4+y,-z
-x,3/4+y,3/4+z
3/4+x,-y,3/4+z
x,1/2+y,1/2+z
1/4-x,3/4-y,1/2+z
x,3/4-y,3/4-z
1/4-x,1/2+y,3/4-z
-x,1/2-y,1/2-z
3/4+x,1/4+y,1/2-z
-x,1/4+y,1/4+z
3/4+x,1/2-y,1/4+z
1/2+x,y,1/2+z
3/4-x,1/4-y,1/2+z
1/2+x,1/4-y,3/4-z
3/4-x,y,3/4-z
1/2-x,-y,1/2-z
1/4+x,3/4+y,1/2-z
1/2-x,3/4+y,1/4+z
1/4+x,-y,1/4+z
1/2+x,1/2+y,z
3/4-x,3/4-y,z
1/2+x,3/4-y,1/4-z
3/4-x,1/2+y,1/4-z
1/2-x,1/2-y,-z
1/4+x,1/4+y,-z
1/2-x,1/4+y,3/4+z
1/4+x,1/2-y,3/4+z
loop_
_atom_site_type_symbol
_atom_site_label
_atom_site_fract_x
_atom_site_fract_y
_atom_site_fract_z
Si Si1 0.466235 0.987100 0.624322
Si Si2 0.657771 0.288288 0.928799
Si Si3 0.764349 0.066657 0.389196
O O1 0.490235 0.900205 0.657274
O O2 0.500000 0.000000 0.500000
O O3 0.396454 0.986684 0.632542
O O4 0.477413 0.056984 0.719717
O O5 0.648742 0.375000 0.875000
O O6 0.715816 0.248651 0.881553
O O7 0.677485 0.297336 0.066745
#
# Coordination Sequence:
#
# PCOD9516770 Si02
#       3
#    32  32  32
#     4  12  25  43  70 105 149 194 244 310 385 456
#     4  11  23  44  72  99 143 194 250 315 372 449
#     4  11  24  45  68 106 141 192 256 298 377 455
#
# _framework density 21.812628
#
# number of rings (size 3 to 8) (size 9 to 14) (size 15 to 20)
#    0.000    0.667    3.333    5.000    0.000    1.333 
#    0.000    6.667    0.000    0.000    0.000    0.000 
#    0.000    0.000    0.000    0.000    0.000    0.000 
#
# Total GULP energy -133646.779769 kJ/mol
# GULP energy per Si atom -5568.615824 kJ/mol
# Density = 2.176298 g / cm^3
# Si number density = 21.812628 Si / 1000 Ang^3
#
#
#
# Elastic Constant Matrix: (Units=GPa)
#
#
# Indices 1 2 3 4 5 6 
#
# 1 151.7350 5.4605 77.9356 0.0000 0.0000 0.0000
# 2 5.4605 55.1036 32.1004 0.0000 0.0000 0.0000
# 3 77.9356 32.1004 154.5087 0.0000 0.0000 0.0000
# 4 0.0000 0.0000 0.0000 27.9658 0.0000 0.0000
# 5 0.0000 0.0000 0.0000 0.0000 49.5216 0.0000
# 6 0.0000 0.0000 0.0000 0.0000 0.0000 56.6012
#
#
#
# Elastic Compliance Matrix: (Units=1/GPa)
#
#
# Indices 1 2 3 4 5 6 
#
# 1 0.009087 0.002013 -0.005002 0.000000 0.000000 0.000000
# 2 0.002013 0.021093 -0.005398 0.000000 0.000000 0.000000
# 3 -0.005002 -0.005398 0.010117 0.000000 0.000000 0.000000
# 4 0.000000 0.000000 0.000000 0.035758 0.000000 0.000000
# 5 0.000000 0.000000 0.000000 0.000000 0.020193 0.000000
# 6 0.000000 0.000000 0.000000 0.000000 0.000000 0.017667
#
#
# Mechanical properties :
#
#
# Convention : Reuss Voigt Hill
#
# Bulk Modulus (GPa) = 42.51029 65.81559 54.16294
# Shear Modulus (GPa) = 36.09362 43.20777 39.65069
#
# Velocity S-wave (km/s) = 4.07223 4.45551 4.26818
# Velocity P-wave (km/s) = 6.45305 7.53044 7.01247
#
# Compressibility (1/GPa) = 0.02352372
#
# Stress axis : x y z
#
# Youngs Moduli (GPa) = 110.04590 47.41008 98.84780
#
# Poissons Ratio (x) = -0.09545 0.49443
# Poissons Ratio (y) = -0.22156 0.53355
# Poissons Ratio (z) = 0.55044 0.25591
#
# Static dielectric constant tensor:
#      x y z
#    x 1.798010 0.000000 0.000000 
#    y 0.000000 1.765460 0.000000 
#    z 0.000000 0.000000 1.936500 
# 
# From -- ./inp_files/15798.got.cif
#   From: 2010.05.17/outbox.cif.g08.bks.cpg/sg70_8_cif.got.tgz:15798.got - 2010.06.03 15:57:51.
