data_PCOD9516138
_publ_section_title
;
Structure prediction by ZEFSAII (Michael W. Deem and Ramdas Pophale) SiO2 
 PCOD9516138
Probable space group: F D D D
;
_chemical_formula_sum "Si O2"
_cell_formula_units_Z 224
_cell_length_a 18.645393
_cell_length_b 28.108801
_cell_length_c 18.238129
_cell_angle_alpha 90.000000
_cell_angle_beta 90.000000
_cell_angle_gamma 90.000000
_cell_volume 9558.596869
_symmetry_space_group_name_H-M "F D D D"
_symmetry_group_IT_number 70
_space_group.IT_coordinate_system_code '2'
_symmetry_cell_setting 'orthorhombic'
loop_
_space_group_symop_operation_xyz
x,y,z
1/4-x,1/4-y,z
x,1/4-y,1/4-z
1/4-x,y,1/4-z
-x,-y,-z
3/4+x,3/4+y,-z
-x,3/4+y,3/4+z
3/4+x,-y,3/4+z
x,1/2+y,1/2+z
1/4-x,3/4-y,1/2+z
x,3/4-y,3/4-z
1/4-x,1/2+y,3/4-z
-x,1/2-y,1/2-z
3/4+x,1/4+y,1/2-z
-x,1/4+y,1/4+z
3/4+x,1/2-y,1/4+z
1/2+x,y,1/2+z
3/4-x,1/4-y,1/2+z
1/2+x,1/4-y,3/4-z
3/4-x,y,3/4-z
1/2-x,-y,1/2-z
1/4+x,3/4+y,1/2-z
1/2-x,3/4+y,1/4+z
1/4+x,-y,1/4+z
1/2+x,1/2+y,z
3/4-x,3/4-y,z
1/2+x,3/4-y,1/4-z
3/4-x,1/2+y,1/4-z
1/2-x,1/2-y,-z
1/4+x,1/4+y,-z
1/2-x,1/4+y,3/4+z
1/4+x,1/2-y,3/4+z
loop_
_atom_site_type_symbol
_atom_site_label
_atom_site_fract_x
_atom_site_fract_y
_atom_site_fract_z
Si Si1 0.717345 0.994691 0.844256
Si Si2 0.227252 0.852213 0.799026
Si Si3 0.981855 0.749235 0.489307
Si Si4 0.999726 0.388473 0.106484
Si Si5 0.914553 0.160455 0.256449
Si Si6 0.391387 0.927571 0.211829
Si Si7 0.125000 0.792537 0.125000
Si Si8 0.625000 0.273466 0.625000
O O1 0.675756 0.037754 0.803162
O O2 0.803802 0.998155 0.848348
O O3 0.699306 0.946068 0.802313
O O4 0.699469 0.002090 0.929300
O O5 0.254354 0.875000 0.875000
O O6 0.234536 0.795024 0.801444
O O7 0.265324 0.864138 0.721274
O O8 0.143897 0.869372 0.788451
O O9 0.917053 0.734692 0.437286
O O10 0.045450 0.709429 0.497542
O O11 0.032666 0.362359 0.181635
O O12 0.063341 0.424911 0.090497
O O13 0.928677 0.413546 0.135255
O O14 0.860719 0.191313 0.307980
O O15 0.375000 0.875000 0.246547
#
# Coordination Sequence:
#
# PCOD9516138 Si02
#       8
#    32  32  32  32  32  32  16  16
#     4  12  25  42  75 107 140 193 248 305 371 450
#     4  12  24  42  70 104 141 187 252 302 362 446
#     4  11  25  47  67 108 146 188 248 308 364 439
#     4  11  23  45  71 100 144 194 240 303 377 437
#     4  12  22  43  71 103 140 190 242 298 372 440
#     4  11  24  43  71 106 144 190 243 301 369 442
#     4  10  23  42  71  88 142 192 227 294 376 431
#     4  12  21  40  68  98 141 184 232 292 373 439
#
# _framework density 23.434401000000001
#
# number of rings (size 3 to 8) (size 9 to 14) (size 15 to 20)
#    0.000    0.571    5.714    2.143    2.000    2.286 
#    0.000    4.643    0.000    7.714    0.000    0.000 
#    0.000    0.000    0.000    0.000    0.000    0.000 
#
# Total GULP energy -312087.731508 kJ/mol
# GULP energy per Si atom -5572.995205 kJ/mol
# Density = 2.338106 g / cm^3
# Si number density = 23.434401 Si / 1000 Ang^3
#
#
#
# Elastic Constant Matrix: (Units=GPa)
#
#
# Indices 1 2 3 4 5 6 
#
# 1 83.7949 15.7444 31.5365 0.0000 0.0000 0.0000
# 2 15.7444 79.7045 54.8746 0.0000 0.0000 0.0000
# 3 31.5365 54.8746 147.5420 0.0000 0.0000 0.0000
# 4 0.0000 0.0000 0.0000 16.2941 0.0000 0.0000
# 5 0.0000 0.0000 0.0000 0.0000 17.5998 0.0000
# 6 0.0000 0.0000 0.0000 0.0000 0.0000 20.3010
#
#
#
# Elastic Compliance Matrix: (Units=1/GPa)
#
#
# Indices 1 2 3 4 5 6 
#
# 1 0.013024 -0.000882 -0.002456 0.000000 0.000000 0.000000
# 2 -0.000882 0.016924 -0.006106 0.000000 0.000000 0.000000
# 3 -0.002456 -0.006106 0.009574 0.000000 0.000000 0.000000
# 4 0.000000 0.000000 0.000000 0.061372 0.000000 0.000000
# 5 0.000000 0.000000 0.000000 0.000000 0.056819 0.000000
# 6 0.000000 0.000000 0.000000 0.000000 0.000000 0.049259
#
#
# Mechanical properties :
#
#
# Convention : Reuss Voigt Hill
#
# Bulk Modulus (GPa) = 48.46295 57.26139 52.86217
# Shear Modulus (GPa) = 21.48346 24.76470 23.12408
#
# Velocity S-wave (km/s) = 3.03107 3.25432 3.14468
# Velocity P-wave (km/s) = 5.74239 6.21358 5.98263
#
# Compressibility (1/GPa) = 0.02063432
#
# Stress axis : x y z
#
# Youngs Moduli (GPa) = 76.78226 59.08600 104.45308
#
# Poissons Ratio (x) = 0.05211 0.25651
# Poissons Ratio (y) = 0.06771 0.63781
# Poissons Ratio (z) = 0.18856 0.36079
#
# Static dielectric constant tensor:
#      x y z
#    x 1.944420 0.000000 0.000000 
#    y 0.000000 2.022900 0.000000 
#    z 0.000000 0.000000 1.906670 
# 
# From -- ./inp_files/36925.got.cif
#   From: 2010.05.17/outbox.cif.g08.bks.cpg/sg70_19_cif.got.tgz:36925.got - 2010.06.03 15:57:51.
