data_PCOD9516525
_publ_section_title
;
Structure prediction by ZEFSAII (Michael W. Deem and Ramdas Pophale) SiO2 
 PCOD9516525
Probable space group: F D D D
;
_chemical_formula_sum "Si O2"
_cell_formula_units_Z 160
_cell_length_a 11.196874
_cell_length_b 20.036651
_cell_length_c 34.454575
_cell_angle_alpha 90.000000
_cell_angle_beta 90.000000
_cell_angle_gamma 90.000000
_cell_volume 7729.810052
_symmetry_space_group_name_H-M "F D D D"
_symmetry_group_IT_number 70
_space_group.IT_coordinate_system_code '2'
_symmetry_cell_setting 'orthorhombic'
loop_
_space_group_symop_operation_xyz
x,y,z
1/4-x,1/4-y,z
x,1/4-y,1/4-z
1/4-x,y,1/4-z
-x,-y,-z
3/4+x,3/4+y,-z
-x,3/4+y,3/4+z
3/4+x,-y,3/4+z
x,1/2+y,1/2+z
1/4-x,3/4-y,1/2+z
x,3/4-y,3/4-z
1/4-x,1/2+y,3/4-z
-x,1/2-y,1/2-z
3/4+x,1/4+y,1/2-z
-x,1/4+y,1/4+z
3/4+x,1/2-y,1/4+z
1/2+x,y,1/2+z
3/4-x,1/4-y,1/2+z
1/2+x,1/4-y,3/4-z
3/4-x,y,3/4-z
1/2-x,-y,1/2-z
1/4+x,3/4+y,1/2-z
1/2-x,3/4+y,1/4+z
1/4+x,-y,1/4+z
1/2+x,1/2+y,z
3/4-x,3/4-y,z
1/2+x,3/4-y,1/4-z
3/4-x,1/2+y,1/4-z
1/2-x,1/2-y,-z
1/4+x,1/4+y,-z
1/2-x,1/4+y,3/4+z
1/4+x,1/2-y,3/4+z
loop_
_atom_site_type_symbol
_atom_site_label
_atom_site_fract_x
_atom_site_fract_y
_atom_site_fract_z
Si Si1 0.132423 0.266892 0.284427
Si Si2 0.015224 0.299106 0.882854
Si Si3 0.110829 0.548143 0.710482
Si Si4 0.750263 0.395564 0.755094
Si Si5 0.111918 0.239690 0.807773
O O1 0.204069 0.276121 0.323919
O O2 0.165185 0.205192 0.256936
O O3 0.166750 0.330912 0.257371
O O4 0.992499 0.267277 0.294023
O O5 0.061214 0.375000 0.875000
O O6 0.875000 0.300334 0.875000
O O7 0.069950 0.249125 0.851392
O O8 0.125000 0.625000 0.697295
O O9 0.004292 0.504281 0.692254
O O10 0.875000 0.375000 0.775148
O O11 0.797186 0.428118 0.714703
O O12 0.687017 0.449834 0.781405
#
# Coordination Sequence:
#
# PCOD9516525 Si02
#       5
#    32  32  32  32  32
#     4  11  23  38  61  90 122 158 203 256 307 362
#     4  11  22  36  57  90 122 152 196 260 308 348
#     4  11  22  39  60  86 119 163 206 244 300 375
#     4  11  20  37  61  88 117 156 206 248 293 372
#     4  11  23  35  63  90 118 160 202 251 307 366
#
# _framework density 20.699086000000001
#
# number of rings (size 3 to 8) (size 9 to 14) (size 15 to 20)
#    0.000    1.000    6.000    1.200    2.800    0.800 
#    0.000    3.000    0.000    0.000    0.000    0.000 
#    0.000    0.000    0.000    0.000    0.000    0.000 
#
# Total GULP energy -223012.374102 kJ/mol
# GULP energy per Si atom -5575.309353 kJ/mol
# Density = 2.065197 g / cm^3
# Si number density = 20.699086 Si / 1000 Ang^3
#
#
#
# Elastic Constant Matrix: (Units=GPa)
#
#
# Indices 1 2 3 4 5 6 
#
# 1 120.8325 8.9743 31.4004 0.0000 0.0000 0.0000
# 2 8.9743 46.3335 25.9737 0.0000 0.0000 0.0000
# 3 31.4004 25.9737 97.3771 0.0000 0.0000 0.0000
# 4 0.0000 0.0000 0.0000 -10.3473 0.0000 0.0000
# 5 0.0000 0.0000 0.0000 0.0000 38.0357 0.0000
# 6 0.0000 0.0000 0.0000 0.0000 0.0000 25.4474
#
#
#
# Elastic Compliance Matrix: (Units=1/GPa)
#
#
# Indices 1 2 3 4 5 6 
#
# 1 0.009034 -0.000137 -0.002876 0.000000 0.000000 0.000000
# 2 -0.000137 0.025379 -0.006725 0.000000 0.000000 0.000000
# 3 -0.002876 -0.006725 0.012991 0.000000 0.000000 0.000000
# 4 0.000000 0.000000 0.000000 -0.096644 0.000000 0.000000
# 5 0.000000 0.000000 0.000000 0.000000 0.026291 0.000000
# 6 0.000000 0.000000 0.000000 0.000000 0.000000 0.039297
#
#
# Mechanical properties :
#
#
# Convention : Reuss Voigt Hill
#
# Bulk Modulus (GPa) = 35.80912 44.13778 39.97345
# Shear Modulus (GPa) = 110.78086 23.84014 67.31050
#
# Velocity S-wave (km/s) = 7.32365 3.39742 5.70869
# Velocity P-wave (km/s) = 9.42613 6.06299 7.92502
#
# Compressibility (1/GPa) = 0.02792585
#
# Stress axis : x y z
#
# Youngs Moduli (GPa) = 110.69794 39.40217 76.97799
#
# Poissons Ratio (x) = 0.00541 0.22142
# Poissons Ratio (y) = 0.01519 0.51770
# Poissons Ratio (z) = 0.31841 0.26499
#
# Static dielectric constant tensor:
#      x y z
#    x 1.764370 0.000000 0.000000 
#    y 0.000000 1.816420 0.000000 
#    z 0.000000 0.000000 1.732950 
# 
# From -- ./inp_files/22156.got.cif
#   From: 2010.05.17/outbox.cif.g08.bks.cpg/sg70_12_cif.got.tgz:22156.got - 2010.06.03 15:57:51.
