data_PCOD9516577
_publ_section_title
;
Structure prediction by ZEFSAII (Michael W. Deem and Ramdas Pophale) SiO2 
 PCOD9516577
Probable space group: F D D D
;
_chemical_formula_sum "Si O2"
_cell_formula_units_Z 208
_cell_length_a 17.965259
_cell_length_b 21.233146
_cell_length_c 22.199797
_cell_angle_alpha 90.000000
_cell_angle_beta 90.000000
_cell_angle_gamma 90.000000
_cell_volume 8468.311637
_symmetry_space_group_name_H-M "F D D D"
_symmetry_group_IT_number 70
_space_group.IT_coordinate_system_code '2'
_symmetry_cell_setting 'orthorhombic'
loop_
_space_group_symop_operation_xyz
x,y,z
1/4-x,1/4-y,z
x,1/4-y,1/4-z
1/4-x,y,1/4-z
-x,-y,-z
3/4+x,3/4+y,-z
-x,3/4+y,3/4+z
3/4+x,-y,3/4+z
x,1/2+y,1/2+z
1/4-x,3/4-y,1/2+z
x,3/4-y,3/4-z
1/4-x,1/2+y,3/4-z
-x,1/2-y,1/2-z
3/4+x,1/4+y,1/2-z
-x,1/4+y,1/4+z
3/4+x,1/2-y,1/4+z
1/2+x,y,1/2+z
3/4-x,1/4-y,1/2+z
1/2+x,1/4-y,3/4-z
3/4-x,y,3/4-z
1/2-x,-y,1/2-z
1/4+x,3/4+y,1/2-z
1/2-x,3/4+y,1/4+z
1/4+x,-y,1/4+z
1/2+x,1/2+y,z
3/4-x,3/4-y,z
1/2+x,3/4-y,1/4-z
3/4-x,1/2+y,1/4-z
1/2-x,1/2-y,-z
1/4+x,1/4+y,-z
1/2-x,1/4+y,3/4+z
1/4+x,1/2-y,3/4+z
loop_
_atom_site_type_symbol
_atom_site_label
_atom_site_fract_x
_atom_site_fract_y
_atom_site_fract_z
Si Si1 0.841950 0.219430 0.600874
Si Si2 0.198297 0.461137 0.657911
Si Si3 0.355289 0.447564 0.992696
Si Si4 0.708040 0.887636 0.990413
Si Si5 0.961176 0.625000 0.125000
Si Si6 0.702746 0.094318 0.241376
Si Si7 0.918061 0.706550 0.311110
O O1 0.771450 0.260120 0.623458
O O2 0.883130 0.264241 0.553308
O O3 0.807304 0.160307 0.563785
O O4 0.908441 0.185920 0.636602
O O5 0.125000 0.433791 0.625000
O O6 0.157765 0.517686 0.694726
O O7 0.227733 0.409148 0.704367
O O8 0.375000 0.375000 0.997385
O O9 0.269217 0.439884 0.976605
O O10 0.636596 0.923835 0.013789
O O11 0.008241 0.616544 0.186503
O O12 0.625000 0.125000 0.259130
O O13 0.755712 0.082798 0.299372
O O14 0.685786 0.027238 0.209921
O O15 0.875000 0.707610 0.375000
#
# Coordination Sequence:
#
# PCOD9516577 Si02
#       7
#    32  32  32  32  16  32  32
#     4  11  24  41  66 100 138 180 242 288 361 435
#     4  11  24  39  62 100 135 178 233 290 355 435
#     4  11  21  40  68  91 133 184 225 287 360 431
#     4  11  22  44  64  96 139 181 228 296 363 433
#     4  12  25  46  71 106 140 198 246 312 363 442
#     4  11  26  48  74 107 144 190 251 306 369 445
#     4  11  25  46  75 105 143 190 243 307 373 436
#
# _framework density 24.562156000000002
#
# number of rings (size 3 to 8) (size 9 to 14) (size 15 to 20)
#    0.000    0.923    4.615    2.538    6.462    0.308 
#    0.000    5.385    0.000    0.000    0.000    0.000 
#    0.000    0.000    0.000    0.000    0.000    0.000 
#
# Total GULP energy -290672.392910 kJ/mol
# GULP energy per Si atom -5589.853710 kJ/mol
# Density = 2.450625 g / cm^3
# Si number density = 24.562156 Si / 1000 Ang^3
#
#
#
# Elastic Constant Matrix: (Units=GPa)
#
#
# Indices 1 2 3 4 5 6 
#
# 1 120.0503 31.1924 18.0257 0.0000 0.0000 0.0000
# 2 31.1924 62.7571 24.3430 0.0000 0.0000 0.0000
# 3 18.0257 24.3430 85.7936 0.0000 0.0000 0.0000
# 4 0.0000 0.0000 0.0000 -3.4350 0.0000 0.0000
# 5 0.0000 0.0000 0.0000 0.0000 22.5190 0.0000
# 6 0.0000 0.0000 0.0000 0.0000 0.0000 147.4060
#
#
#
# Elastic Compliance Matrix: (Units=1/GPa)
#
#
# Indices 1 2 3 4 5 6 
#
# 1 0.009607 -0.004486 -0.000746 0.000000 0.000000 0.000000
# 2 -0.004486 0.020000 -0.004732 0.000000 0.000000 0.000000
# 3 -0.000746 -0.004732 0.013155 0.000000 0.000000 0.000000
# 4 0.000000 0.000000 0.000000 -0.291125 0.000000 0.000000
# 5 0.000000 0.000000 0.000000 0.000000 0.044407 0.000000
# 6 0.000000 0.000000 0.000000 0.000000 0.000000 0.006784
#
#
# Mechanical properties :
#
#
# Convention : Reuss Voigt Hill
#
# Bulk Modulus (GPa) = 43.79306 46.19145 44.99226
# Shear Modulus (GPa) = -29.47549 46.30068 8.41259
#
# Velocity S-wave (km/s) = -3.46791 4.34642 1.85269
# Velocity P-wave (km/s) = 1.35387 6.63590 4.78896
#
# Compressibility (1/GPa) = 0.02283467
#
# Stress axis : x y z
#
# Youngs Moduli (GPa) = 104.08657 50.00083 76.01521
#
# Poissons Ratio (x) = 0.22430 0.05669
# Poissons Ratio (y) = 0.46693 0.35972
# Poissons Ratio (z) = 0.07762 0.23661
#
# Static dielectric constant tensor:
#      x y z
#    x 1.394360 0.000000 0.000000 
#    y 0.000000 1.922800 0.000000 
#    z 0.000000 0.000000 2.000650 
# 
# From -- ./inp_files/59627.got.cif
#   From: 2010.05.17/outbox.cif.g08.bks.cpg/sg70_30_cif.got.tgz:59627.got - 2010.06.03 15:57:51.
