data_PCOD9516047
_publ_section_title
;
Structure prediction by ZEFSAII (Michael W. Deem and Ramdas Pophale) SiO2 
 PCOD9516047
Probable space group: F D D D
;
_chemical_formula_sum "Si O2"
_cell_formula_units_Z 136
_cell_length_a 31.976397
_cell_length_b 11.752855
_cell_length_c 17.790317
_cell_angle_alpha 90.000000
_cell_angle_beta 90.000000
_cell_angle_gamma 90.000000
_cell_volume 6685.849435
_symmetry_space_group_name_H-M "F D D D"
_symmetry_group_IT_number 70
_space_group.IT_coordinate_system_code '2'
_symmetry_cell_setting 'orthorhombic'
loop_
_space_group_symop_operation_xyz
x,y,z
1/4-x,1/4-y,z
x,1/4-y,1/4-z
1/4-x,y,1/4-z
-x,-y,-z
3/4+x,3/4+y,-z
-x,3/4+y,3/4+z
3/4+x,-y,3/4+z
x,1/2+y,1/2+z
1/4-x,3/4-y,1/2+z
x,3/4-y,3/4-z
1/4-x,1/2+y,3/4-z
-x,1/2-y,1/2-z
3/4+x,1/4+y,1/2-z
-x,1/4+y,1/4+z
3/4+x,1/2-y,1/4+z
1/2+x,y,1/2+z
3/4-x,1/4-y,1/2+z
1/2+x,1/4-y,3/4-z
3/4-x,y,3/4-z
1/2-x,-y,1/2-z
1/4+x,3/4+y,1/2-z
1/2-x,3/4+y,1/4+z
1/4+x,-y,1/4+z
1/2+x,1/2+y,z
3/4-x,3/4-y,z
1/2+x,3/4-y,1/4-z
3/4-x,1/2+y,1/4-z
1/2-x,1/2-y,-z
1/4+x,1/4+y,-z
1/2-x,1/4+y,3/4+z
1/4+x,1/2-y,3/4+z
loop_
_atom_site_type_symbol
_atom_site_label
_atom_site_fract_x
_atom_site_fract_y
_atom_site_fract_z
Si Si1 0.186302 0.819085 0.170643
Si Si2 0.625000 0.625000 0.625000
Si Si3 0.417873 0.975462 0.312149
Si Si4 0.271925 0.893728 0.207370
Si Si5 0.652444 0.795830 0.942452
O O1 0.157941 0.707483 0.166604
O O2 0.236632 0.825549 0.161704
O O3 0.177265 0.870453 0.252200
O O4 0.170547 0.908214 0.107976
O O5 0.414130 0.875000 0.375000
O O6 0.459799 0.941841 0.269099
O O7 0.382821 0.993017 0.247480
O O8 0.250000 0.000000 0.250000
O O9 0.313119 0.950453 0.168551
O O10 0.636253 0.875000 0.875000
#
# Coordination Sequence:
#
# PCOD9516047 Si02
#       5
#    32   8  32  32  32
#     4  11  25  44  71  97 139 193 237 286 360 442
#     4  12  24  52  66  92 140 204 238 266 360 456
#     4  12  22  44  79 106 131 191 255 298 353 440
#     4  10  23  37  71 108 136 166 238 309 359 406
#     4  11  24  40  66 107 143 174 229 306 369 410
#
# _framework density 20.341469
#
# number of rings (size 3 to 8) (size 9 to 14) (size 15 to 20)
#    0.000    0.941    7.059    0.706    9.882    0.000 
#    6.353    1.176    0.000    0.000    0.000    0.000 
#    0.000    0.000    0.000    0.000    0.000    0.000 
#
# Total GULP energy -189276.058236 kJ/mol
# GULP energy per Si atom -5566.942889 kJ/mol
# Density = 2.029517 g / cm^3
# Si number density = 20.341469 Si / 1000 Ang^3
#
#
#
# Elastic Constant Matrix: (Units=GPa)
#
#
# Indices 1 2 3 4 5 6 
#
# 1 151.6467 49.2723 48.3015 0.0000 0.0000 0.0000
# 2 49.2723 96.3664 38.8195 0.0000 0.0000 0.0000
# 3 48.3015 38.8195 82.5553 0.0000 0.0000 0.0000
# 4 0.0000 0.0000 0.0000 28.9071 0.0000 0.0000
# 5 0.0000 0.0000 0.0000 0.0000 33.1553 0.0000
# 6 0.0000 0.0000 0.0000 0.0000 0.0000 42.5561
#
#
#
# Elastic Compliance Matrix: (Units=1/GPa)
#
#
# Indices 1 2 3 4 5 6 
#
# 1 0.008745 -0.002973 -0.003718 0.000000 0.000000 0.000000
# 2 -0.002973 0.013813 -0.004756 0.000000 0.000000 0.000000
# 3 -0.003718 -0.004756 0.016525 0.000000 0.000000 0.000000
# 4 0.000000 0.000000 0.000000 0.034594 0.000000 0.000000
# 5 0.000000 0.000000 0.000000 0.000000 0.030161 0.000000
# 6 0.000000 0.000000 0.000000 0.000000 0.000000 0.023498
#
#
# Mechanical properties :
#
#
# Convention : Reuss Voigt Hill
#
# Bulk Modulus (GPa) = 61.77346 67.03946 64.40646
# Shear Modulus (GPa) = 32.12836 33.86871 32.99853
#
# Velocity S-wave (km/s) = 3.97854 4.08488 4.03206
# Velocity P-wave (km/s) = 7.17908 7.43484 7.30808
#
# Compressibility (1/GPa) = 0.01618818
#
# Stress axis : x y z
#
# Youngs Moduli (GPa) = 114.35559 72.39536 60.51538
#
# Poissons Ratio (x) = 0.21526 0.22501
# Poissons Ratio (y) = 0.34002 0.28779
# Poissons Ratio (z) = 0.42520 0.34428
#
# Static dielectric constant tensor:
#      x y z
#    x 1.824690 0.000000 0.000000 
#    y 0.000000 1.765310 0.000000 
#    z 0.000000 0.000000 1.697420 
# 
# From -- ./inp_files/47480.got.cif
#   From: 2010.05.17/outbox.cif.g08.bks.cpg/sg70_24_cif.got.tgz:47480.got - 2010.06.03 15:57:51.
