data_PCOD9516458
_publ_section_title
;
Structure prediction by ZEFSAII (Michael W. Deem and Ramdas Pophale) SiO2 
 PCOD9516458
Probable space group: F D D D
;
_chemical_formula_sum "Si O2"
_cell_formula_units_Z 120
_cell_length_a 16.373798
_cell_length_b 9.693522
_cell_length_c 27.900707
_cell_angle_alpha 90.000000
_cell_angle_beta 90.000000
_cell_angle_gamma 90.000000
_cell_volume 4428.393830
_symmetry_space_group_name_H-M "F D D D"
_symmetry_group_IT_number 70
_space_group.IT_coordinate_system_code '2'
_symmetry_cell_setting 'orthorhombic'
loop_
_space_group_symop_operation_xyz
x,y,z
1/4-x,1/4-y,z
x,1/4-y,1/4-z
1/4-x,y,1/4-z
-x,-y,-z
3/4+x,3/4+y,-z
-x,3/4+y,3/4+z
3/4+x,-y,3/4+z
x,1/2+y,1/2+z
1/4-x,3/4-y,1/2+z
x,3/4-y,3/4-z
1/4-x,1/2+y,3/4-z
-x,1/2-y,1/2-z
3/4+x,1/4+y,1/2-z
-x,1/4+y,1/4+z
3/4+x,1/2-y,1/4+z
1/2+x,y,1/2+z
3/4-x,1/4-y,1/2+z
1/2+x,1/4-y,3/4-z
3/4-x,y,3/4-z
1/2-x,-y,1/2-z
1/4+x,3/4+y,1/2-z
1/2-x,3/4+y,1/4+z
1/4+x,-y,1/4+z
1/2+x,1/2+y,z
3/4-x,3/4-y,z
1/2+x,3/4-y,1/4-z
3/4-x,1/2+y,1/4-z
1/2-x,1/2-y,-z
1/4+x,1/4+y,-z
1/2-x,1/4+y,3/4+z
1/4+x,1/2-y,3/4+z
loop_
_atom_site_type_symbol
_atom_site_label
_atom_site_fract_x
_atom_site_fract_y
_atom_site_fract_z
Si Si1 0.443578 0.695141 0.466509
Si Si2 0.875000 0.375000 0.875000
Si Si3 0.520096 0.751391 0.194058
Si Si4 0.625000 0.625000 0.882170
Si Si5 0.465081 0.689779 0.688387
O O1 0.356326 0.667435 0.441526
O O2 0.216766 0.586871 0.560456
O O3 0.432112 0.676805 0.524645
O O4 0.516474 0.588035 0.462619
O O5 0.947344 0.342205 0.835163
O O6 0.500000 0.750000 0.250000
O O7 0.453283 0.823927 0.162051
O O8 0.597754 0.755612 0.850876
#
# Coordination Sequence:
#
# PCOD9516458 Si02
#       5
#    32   8  32  16  32
#     4  10  26  52  77 110 166 210 266 322 442 473
#     4  12  28  46  72 106 168 190 272 324 400 452
#     4  11  26  49  78 113 158 217 261 341 404 497
#     4  12  28  51  86 120 163 207 302 330 405 478
#     4  11  28  48  79 120 155 211 265 350 392 500
#
# _framework density 27.097863
#
# number of rings (size 3 to 8) (size 9 to 14) (size 15 to 20)
#    0.000    1.067    0.000    3.200   14.933    3.200 
#    0.000    2.667    0.000    3.200    0.000    0.000 
#    0.000    0.000    0.000    0.000    0.000    0.000 
#
# Total GULP energy -167285.433805 kJ/mol
# GULP energy per Si atom -5576.181127 kJ/mol
# Density = 2.703619 g / cm^3
# Si number density = 27.097863 Si / 1000 Ang^3
#
#
#
# Elastic Constant Matrix: (Units=GPa)
#
#
# Indices 1 2 3 4 5 6 
#
# 1 195.4214 51.5054 74.7174 0.0000 0.0000 0.0000
# 2 51.5054 104.4157 37.0809 0.0000 0.0000 0.0000
# 3 74.7174 37.0809 108.1331 0.0000 0.0000 0.0000
# 4 0.0000 0.0000 0.0000 -3.9823 0.0000 0.0000
# 5 0.0000 0.0000 0.0000 0.0000 29.2424 0.0000
# 6 0.0000 0.0000 0.0000 0.0000 0.0000 50.7212
#
#
#
# Elastic Compliance Matrix: (Units=1/GPa)
#
#
# Indices 1 2 3 4 5 6 
#
# 1 0.007327 -0.002068 -0.004353 0.000000 0.000000 0.000000
# 2 -0.002068 0.011489 -0.002511 0.000000 0.000000 0.000000
# 3 -0.004353 -0.002511 0.013117 0.000000 0.000000 0.000000
# 4 0.000000 0.000000 0.000000 -0.251113 0.000000 0.000000
# 5 0.000000 0.000000 0.000000 0.000000 0.034197 0.000000
# 6 0.000000 0.000000 0.000000 0.000000 0.000000 0.019716
#
#
# Mechanical properties :
#
#
# Convention : Reuss Voigt Hill
#
# Bulk Modulus (GPa) = 71.08300 81.61974 76.35137
# Shear Modulus (GPa) = -35.03504 31.50737 -1.76384
#
# Velocity S-wave (km/s) = -3.59960 3.41358 -0.80767
# Velocity P-wave (km/s) = 3.00212 6.76183 5.23140
#
# Compressibility (1/GPa) = 0.01406806
#
# Stress axis : x y z
#
# Youngs Moduli (GPa) = 136.48760 87.04082 76.23729
#
# Poissons Ratio (x) = 0.18000 0.33189
# Poissons Ratio (y) = 0.28226 0.19142
# Poissons Ratio (z) = 0.59418 0.21854
#
# Static dielectric constant tensor:
#      x y z
#    x 2.061680 0.000000 0.000000 
#    y 0.000000 2.111860 0.000000 
#    z 0.000000 0.000000 2.534460 
# 
# From -- ./inp_files/65523.got.cif
#   From: 2010.05.17/outbox.cif.g08.bks.cpg/sg70_33_cif.got.tgz:65523.got - 2010.06.03 15:57:51.
