data_PCOD9516202
_publ_section_title
;
Structure prediction by ZEFSAII (Michael W. Deem and Ramdas Pophale) SiO2 
 PCOD9516202
Probable space group: F D D D
;
_chemical_formula_sum "Si O2"
_cell_formula_units_Z 128
_cell_length_a 18.518300
_cell_length_b 14.593894
_cell_length_c 21.934355
_cell_angle_alpha 90.000000
_cell_angle_beta 90.000000
_cell_angle_gamma 90.000000
_cell_volume 5927.849529
_symmetry_space_group_name_H-M "F D D D"
_symmetry_group_IT_number 70
_space_group.IT_coordinate_system_code '2'
_symmetry_cell_setting 'orthorhombic'
loop_
_space_group_symop_operation_xyz
x,y,z
1/4-x,1/4-y,z
x,1/4-y,1/4-z
1/4-x,y,1/4-z
-x,-y,-z
3/4+x,3/4+y,-z
-x,3/4+y,3/4+z
3/4+x,-y,3/4+z
x,1/2+y,1/2+z
1/4-x,3/4-y,1/2+z
x,3/4-y,3/4-z
1/4-x,1/2+y,3/4-z
-x,1/2-y,1/2-z
3/4+x,1/4+y,1/2-z
-x,1/4+y,1/4+z
3/4+x,1/2-y,1/4+z
1/2+x,y,1/2+z
3/4-x,1/4-y,1/2+z
1/2+x,1/4-y,3/4-z
3/4-x,y,3/4-z
1/2-x,-y,1/2-z
1/4+x,3/4+y,1/2-z
1/2-x,3/4+y,1/4+z
1/4+x,-y,1/4+z
1/2+x,1/2+y,z
3/4-x,3/4-y,z
1/2+x,3/4-y,1/4-z
3/4-x,1/2+y,1/4-z
1/2-x,1/2-y,-z
1/4+x,1/4+y,-z
1/2-x,1/4+y,3/4+z
1/4+x,1/2-y,3/4+z
loop_
_atom_site_type_symbol
_atom_site_label
_atom_site_fract_x
_atom_site_fract_y
_atom_site_fract_z
Si Si1 0.604736 0.265416 0.876452
Si Si2 0.776558 0.733263 0.786800
Si Si3 0.625000 0.366713 0.125000
Si Si4 0.238259 0.533122 0.097415
Si Si5 0.375000 0.375000 0.730372
O O1 0.593367 0.375000 0.875000
O O2 0.548482 0.232674 0.926959
O O3 0.690908 0.254494 0.886408
O O4 0.594668 0.205345 0.814506
O O5 0.834795 0.678280 0.825714
O O6 0.765386 0.692419 0.719923
O O7 0.811707 0.832473 0.771663
O O8 0.566411 0.300181 0.094454
O O9 0.206431 0.625000 0.125000
#
# Coordination Sequence:
#
# PCOD9516202 Si02
#       5
#    32  32  16  32  16
#     4  10  23  45  73 100 142 184 233 287 360 415
#     4  11  25  43  74 100 148 182 230 301 355 420
#     4  12  27  45  70 110 138 188 244 282 364 426
#     4  10  25  49  68 106 136 190 242 295 344 426
#     4  10  24  45  66 114 137 184 244 284 354 424
#
# _framework density 21.59299
#
# number of rings (size 3 to 8) (size 9 to 14) (size 15 to 20)
#    0.000    1.500    0.000    3.375   14.000    2.000 
#    9.000    0.000    0.000    0.000    0.000    0.000 
#    0.000    0.000    0.000    0.000    0.000    0.000 
#
# Total GULP energy -178705.357009 kJ/mol
# GULP energy per Si atom -5584.542407 kJ/mol
# Density = 2.154384 g / cm^3
# Si number density = 21.592990 Si / 1000 Ang^3
#
#
#
# Elastic Constant Matrix: (Units=GPa)
#
#
# Indices 1 2 3 4 5 6 
#
# 1 130.0654 42.2163 64.1994 0.0000 0.0000 0.0000
# 2 42.2163 110.2692 46.7115 0.0000 0.0000 0.0000
# 3 64.1994 46.7115 100.5813 0.0000 0.0000 0.0000
# 4 0.0000 0.0000 0.0000 -24.1503 0.0000 0.0000
# 5 0.0000 0.0000 0.0000 0.0000 24.9654 0.0000
# 6 0.0000 0.0000 0.0000 0.0000 0.0000 17.9517
#
#
#
# Elastic Compliance Matrix: (Units=1/GPa)
#
#
# Indices 1 2 3 4 5 6 
#
# 1 0.011448 -0.001603 -0.006563 0.000000 0.000000 0.000000
# 2 -0.001603 0.011514 -0.004324 0.000000 0.000000 0.000000
# 3 -0.006563 -0.004324 0.016139 0.000000 0.000000 0.000000
# 4 0.000000 0.000000 0.000000 -0.041407 0.000000 0.000000
# 5 0.000000 0.000000 0.000000 0.000000 0.040055 0.000000
# 6 0.000000 0.000000 0.000000 0.000000 0.000000 0.055705
#
#
# Mechanical properties :
#
#
# Convention : Reuss Voigt Hill
#
# Bulk Modulus (GPa) = 70.81207 71.90779 71.35993
# Shear Modulus (GPa) = 40.60369 16.27260 28.43814
#
# Velocity S-wave (km/s) = 4.34107 2.74817 3.63300
# Velocity P-wave (km/s) = 7.61523 6.59118 7.12164
#
# Compressibility (1/GPa) = 0.01412189
#
# Stress axis : x y z
#
# Youngs Moduli (GPa) = 87.35171 86.84941 61.96036
#
# Poissons Ratio (x) = 0.13920 0.40663
# Poissons Ratio (y) = 0.14001 0.26794
# Poissons Ratio (z) = 0.57326 0.37557
#
# Static dielectric constant tensor:
#      x y z
#    x 1.805850 0.000000 0.000000 
#    y 0.000000 1.807990 0.000000 
#    z 0.000000 0.000000 1.750850 
# 
# From -- ./inp_files/27315.got.cif
#   From: 2010.05.17/outbox.cif.g08.bks.cpg/sg70_14_cif.got.tgz:27315.got - 2010.06.03 15:57:51.
