data_PCOD9516859
_publ_section_title
;
Structure prediction by ZEFSAII (Michael W. Deem and Ramdas Pophale) SiO2 
 PCOD9516859
Probable space group: F D D D
;
_chemical_formula_sum "Si O2"
_cell_formula_units_Z 208
_cell_length_a 24.571378
_cell_length_b 16.811099
_cell_length_c 20.933395
_cell_angle_alpha 90.000000
_cell_angle_beta 90.000000
_cell_angle_gamma 90.000000
_cell_volume 8646.996579
_symmetry_space_group_name_H-M "F D D D"
_symmetry_group_IT_number 70
_space_group.IT_coordinate_system_code '2'
_symmetry_cell_setting 'orthorhombic'
loop_
_space_group_symop_operation_xyz
x,y,z
1/4-x,1/4-y,z
x,1/4-y,1/4-z
1/4-x,y,1/4-z
-x,-y,-z
3/4+x,3/4+y,-z
-x,3/4+y,3/4+z
3/4+x,-y,3/4+z
x,1/2+y,1/2+z
1/4-x,3/4-y,1/2+z
x,3/4-y,3/4-z
1/4-x,1/2+y,3/4-z
-x,1/2-y,1/2-z
3/4+x,1/4+y,1/2-z
-x,1/4+y,1/4+z
3/4+x,1/2-y,1/4+z
1/2+x,y,1/2+z
3/4-x,1/4-y,1/2+z
1/2+x,1/4-y,3/4-z
3/4-x,y,3/4-z
1/2-x,-y,1/2-z
1/4+x,3/4+y,1/2-z
1/2-x,3/4+y,1/4+z
1/4+x,-y,1/4+z
1/2+x,1/2+y,z
3/4-x,3/4-y,z
1/2+x,3/4-y,1/4-z
3/4-x,1/2+y,1/4-z
1/2-x,1/2-y,-z
1/4+x,1/4+y,-z
1/2-x,1/4+y,3/4+z
1/4+x,1/2-y,3/4+z
loop_
_atom_site_type_symbol
_atom_site_label
_atom_site_fract_x
_atom_site_fract_y
_atom_site_fract_z
Si Si1 0.403390 0.148744 0.551736
Si Si2 0.660509 0.722360 0.389787
Si Si3 0.625000 0.125000 0.782683
Si Si4 0.244515 0.571516 0.070209
Si Si5 0.247891 0.351891 0.181179
Si Si6 0.168949 0.430303 0.078105
Si Si7 0.972552 0.914901 0.811539
O O1 0.388662 0.125000 0.625000
O O2 0.374523 0.235468 0.555872
O O3 0.391117 0.127153 0.477496
O O4 0.467699 0.129378 0.549924
O O5 0.620803 0.698996 0.331185
O O6 0.705512 0.779628 0.357075
O O7 0.694834 0.646427 0.415575
O O8 0.678871 0.144719 0.742777
O O9 0.218079 0.625000 0.125000
O O10 0.204853 0.500881 0.048555
O O11 0.262168 0.619013 0.006868
O O12 0.208562 0.384192 0.126010
O O13 0.237135 0.257325 0.178016
O O14 0.125000 0.466897 0.125000
O O15 0.949598 0.875000 0.875000
#
# Coordination Sequence:
#
# PCOD9516859 Si02
#       7
#    32  32  16  32  32  32  32
#     4  11  25  46  72 108 154 194 256 309 381 454
#     4  11  25  43  78 104 144 207 249 307 383 457
#     4  12  23  44  72 110 139 194 254 298 388 458
#     4  11  25  47  74 105 151 195 256 311 378 459
#     4  11  24  50  72 104 152 194 252 319 377 456
#     4  11  27  44  69 110 148 195 252 317 385 450
#     4  11  24  45  71 106 149 189 247 315 372 467
#
# _framework density 24.054596
#
# number of rings (size 3 to 8) (size 9 to 14) (size 15 to 20)
#    0.000    0.923    3.077    2.538    6.462    4.000 
#    0.000    3.846    0.000    0.000    0.000    0.000 
#    0.000    0.000    0.000    0.000    0.000    0.000 
#
# Total GULP energy -289745.336659 kJ/mol
# GULP energy per Si atom -5572.025705 kJ/mol
# Density = 2.399985 g / cm^3
# Si number density = 24.054596 Si / 1000 Ang^3
#
#
#
# Elastic Constant Matrix: (Units=GPa)
#
#
# Indices 1 2 3 4 5 6 
#
# 1 97.4373 21.7624 28.2712 0.0000 0.0000 0.0000
# 2 21.7624 47.3497 34.2451 0.0000 0.0000 0.0000
# 3 28.2712 34.2451 178.6621 0.0000 0.0000 0.0000
# 4 0.0000 0.0000 0.0000 37.6894 0.0000 0.0000
# 5 0.0000 0.0000 0.0000 0.0000 45.0714 0.0000
# 6 0.0000 0.0000 0.0000 0.0000 0.0000 18.8515
#
#
#
# Elastic Compliance Matrix: (Units=1/GPa)
#
#
# Indices 1 2 3 4 5 6 
#
# 1 0.011572 -0.004637 -0.000942 0.000000 0.000000 0.000000
# 2 -0.004637 0.026377 -0.004322 0.000000 0.000000 0.000000
# 3 -0.000942 -0.004322 0.006575 0.000000 0.000000 0.000000
# 4 0.000000 0.000000 0.000000 0.026533 0.000000 0.000000
# 5 0.000000 0.000000 0.000000 0.000000 0.022187 0.000000
# 6 0.000000 0.000000 0.000000 0.000000 0.000000 0.053046
#
#
# Mechanical properties :
#
#
# Convention : Reuss Voigt Hill
#
# Bulk Modulus (GPa) = 40.45226 54.66738 47.55982
# Shear Modulus (GPa) = 28.68086 36.26716 32.47401
#
# Velocity S-wave (km/s) = 3.45675 3.88713 3.67824
# Velocity P-wave (km/s) = 5.72586 6.55149 6.15254
#
# Compressibility (1/GPa) = 0.02472050
#
# Stress axis : x y z
#
# Youngs Moduli (GPa) = 86.41461 37.91248 152.09855
#
# Poissons Ratio (x) = 0.17581 0.14333
# Poissons Ratio (y) = 0.40072 0.65736
# Poissons Ratio (z) = 0.08143 0.16386
#
# Static dielectric constant tensor:
#      x y z
#    x 1.943990 0.000000 0.000000 
#    y 0.000000 2.046690 0.000000 
#    z 0.000000 0.000000 1.970750 
# 
# From -- ./inp_files/46967.got.cif
#   From: 2010.05.17/outbox.cif.g08.bks.cpg/sg70_24_cif.got.tgz:46967.got - 2010.06.03 15:57:51.
