data_PCOD9516229
_publ_section_title
;
Structure prediction by ZEFSAII (Michael W. Deem and Ramdas Pophale) SiO2 
 PCOD9516229
Probable space group: F D D D
;
_chemical_formula_sum "Si O2"
_cell_formula_units_Z 96
_cell_length_a 11.352457
_cell_length_b 25.711298
_cell_length_c 12.124578
_cell_angle_alpha 90.000000
_cell_angle_beta 90.000000
_cell_angle_gamma 90.000000
_cell_volume 3538.999484
_symmetry_space_group_name_H-M "F D D D"
_symmetry_group_IT_number 70
_space_group.IT_coordinate_system_code '2'
_symmetry_cell_setting 'orthorhombic'
loop_
_space_group_symop_operation_xyz
x,y,z
1/4-x,1/4-y,z
x,1/4-y,1/4-z
1/4-x,y,1/4-z
-x,-y,-z
3/4+x,3/4+y,-z
-x,3/4+y,3/4+z
3/4+x,-y,3/4+z
x,1/2+y,1/2+z
1/4-x,3/4-y,1/2+z
x,3/4-y,3/4-z
1/4-x,1/2+y,3/4-z
-x,1/2-y,1/2-z
3/4+x,1/4+y,1/2-z
-x,1/4+y,1/4+z
3/4+x,1/2-y,1/4+z
1/2+x,y,1/2+z
3/4-x,1/4-y,1/2+z
1/2+x,1/4-y,3/4-z
3/4-x,y,3/4-z
1/2-x,-y,1/2-z
1/4+x,3/4+y,1/2-z
1/2-x,3/4+y,1/4+z
1/4+x,-y,1/4+z
1/2+x,1/2+y,z
3/4-x,3/4-y,z
1/2+x,3/4-y,1/4-z
3/4-x,1/2+y,1/4-z
1/2-x,1/2-y,-z
1/4+x,1/4+y,-z
1/2-x,1/4+y,3/4+z
1/4+x,1/2-y,3/4+z
loop_
_atom_site_type_symbol
_atom_site_label
_atom_site_fract_x
_atom_site_fract_y
_atom_site_fract_z
Si Si1 0.353760 0.672624 0.184704
Si Si2 0.006279 0.221936 0.917312
Si Si3 0.625000 0.625000 0.443692
Si Si4 0.875000 0.510888 0.375000
O O1 0.415895 0.625000 0.125000
O O2 0.299232 0.721960 0.120797
O O3 0.237277 0.645585 0.237522
O O4 0.427456 0.699924 0.282643
O O5 0.079392 0.173640 0.875046
O O6 0.875000 0.214223 0.875000
O O7 0.034701 0.229308 0.048667
#
# Coordination Sequence:
#
# PCOD9516229 Si02
#       4
#    32  32  16  16
#     4  10  23  47  75 114 162 218 290 341 420 520
#     4  10  24  47  77 116 171 223 284 356 425 512
#     4  12  25  43  78 118 160 232 289 337 444 512
#     4   8  24  49  70 124 164 219 296 338 438 516
#
# _framework density 27.126311999999999
#
# number of rings (size 3 to 8) (size 9 to 14) (size 15 to 20)
#    2.000    0.000    0.000    2.500    2.333    7.333 
#    0.000    0.000    7.333    0.000    0.000    0.000 
#    0.000    0.000    0.000    0.000    0.000    0.000 
#
# Total GULP energy -134336.786169 kJ/mol
# GULP energy per Si atom -5597.366090 kJ/mol
# Density = 2.706457 g / cm^3
# Si number density = 27.126312 Si / 1000 Ang^3
#
#
#
# Elastic Constant Matrix: (Units=GPa)
#
#
# Indices 1 2 3 4 5 6 
#
# 1 139.8141 58.2353 58.0133 0.0000 0.0000 0.0000
# 2 58.2353 254.7423 76.0385 0.0000 0.0000 0.0000
# 3 58.0133 76.0385 155.2252 0.0000 0.0000 0.0000
# 4 0.0000 0.0000 0.0000 57.8120 0.0000 0.0000
# 5 0.0000 0.0000 0.0000 0.0000 34.3552 0.0000
# 6 0.0000 0.0000 0.0000 0.0000 0.0000 43.7885
#
#
#
# Elastic Compliance Matrix: (Units=1/GPa)
#
#
# Indices 1 2 3 4 5 6 
#
# 1 0.008768 -0.001202 -0.002688 0.000000 0.000000 0.000000
# 2 -0.001202 0.004763 -0.001884 0.000000 0.000000 0.000000
# 3 -0.002688 -0.001884 0.008370 0.000000 0.000000 0.000000
# 4 0.000000 0.000000 0.000000 0.017297 0.000000 0.000000
# 5 0.000000 0.000000 0.000000 0.000000 0.029108 0.000000
# 6 0.000000 0.000000 0.000000 0.000000 0.000000 0.022837
#
#
# Mechanical properties :
#
#
# Convention : Reuss Voigt Hill
#
# Bulk Modulus (GPa) = 96.59362 103.81731 100.20546
# Shear Modulus (GPa) = 47.10667 51.02411 49.06539
#
# Velocity S-wave (km/s) = 4.17174 4.34173 4.25758
# Velocity P-wave (km/s) = 7.67402 7.96801 7.82240
#
# Compressibility (1/GPa) = 0.01035265
#
# Stress axis : x y z
#
# Youngs Moduli (GPa) = 114.04472 209.96826 119.47831
#
# Poissons Ratio (x) = 0.25240 0.32119
# Poissons Ratio (y) = 0.13709 0.22507
# Poissons Ratio (z) = 0.30658 0.39553
#
# Static dielectric constant tensor:
#      x y z
#    x 2.216850 0.000000 0.000000 
#    y 0.000000 2.050930 0.000000 
#    z 0.000000 0.000000 2.273710 
# 
# From -- ./inp_files/24413.got.cif
#   From: 2010.05.17/outbox.cif.g08.bks.cpg/sg70_13_cif.got.tgz:24413.got - 2010.06.03 15:57:51.
