data_PCOD9516094
_publ_section_title
;
Structure prediction by ZEFSAII (Michael W. Deem and Ramdas Pophale) SiO2 
 PCOD9516094
Probable space group: F D D D
;
_chemical_formula_sum "Si O2"
_cell_formula_units_Z 136
_cell_length_a 17.161096
_cell_length_b 17.720923
_cell_length_c 22.352759
_cell_angle_alpha 90.000000
_cell_angle_beta 90.000000
_cell_angle_gamma 90.000000
_cell_volume 6797.707840
_symmetry_space_group_name_H-M "F D D D"
_symmetry_group_IT_number 70
_space_group.IT_coordinate_system_code '2'
_symmetry_cell_setting 'orthorhombic'
loop_
_space_group_symop_operation_xyz
x,y,z
1/4-x,1/4-y,z
x,1/4-y,1/4-z
1/4-x,y,1/4-z
-x,-y,-z
3/4+x,3/4+y,-z
-x,3/4+y,3/4+z
3/4+x,-y,3/4+z
x,1/2+y,1/2+z
1/4-x,3/4-y,1/2+z
x,3/4-y,3/4-z
1/4-x,1/2+y,3/4-z
-x,1/2-y,1/2-z
3/4+x,1/4+y,1/2-z
-x,1/4+y,1/4+z
3/4+x,1/2-y,1/4+z
1/2+x,y,1/2+z
3/4-x,1/4-y,1/2+z
1/2+x,1/4-y,3/4-z
3/4-x,y,3/4-z
1/2-x,-y,1/2-z
1/4+x,3/4+y,1/2-z
1/2-x,3/4+y,1/4+z
1/4+x,-y,1/4+z
1/2+x,1/2+y,z
3/4-x,3/4-y,z
1/2+x,3/4-y,1/4-z
3/4-x,1/2+y,1/4-z
1/2-x,1/2-y,-z
1/4+x,1/4+y,-z
1/2-x,1/4+y,3/4+z
1/4+x,1/2-y,3/4+z
loop_
_atom_site_type_symbol
_atom_site_label
_atom_site_fract_x
_atom_site_fract_y
_atom_site_fract_z
Si Si1 0.714720 0.749426 0.698982
Si Si2 0.625000 0.625000 0.625000
Si Si3 0.625000 0.625000 0.040716
Si Si4 0.992091 0.998023 0.832221
Si Si5 0.875000 0.125661 0.375000
Si Si6 0.640340 0.042851 0.823214
O O1 0.677180 0.678019 0.666846
O O2 0.710014 0.746320 0.770610
O O3 0.671364 0.822325 0.671283
O O4 0.806516 0.754916 0.684257
O O5 0.686060 0.573798 0.074973
O O6 0.667486 0.681759 0.993292
O O7 0.936330 0.070268 0.841656
O O8 0.048899 0.996170 0.888789
O O9 0.625000 0.125000 0.853904
#
# Coordination Sequence:
#
# PCOD9516094 Si02
#       6
#    32   8  16  32  16  32
#     4  10  23  41  60  92 125 155 204 260 301 359
#     4  10  24  38  60  94 124 150 212 250 308 370
#     4   8  20  38  56  98 124 150 208 258 288 360
#     4  11  20  39  65  83 122 169 197 245 314 356
#     4  11  22  40  62  89 122 164 202 255 300 368
#     4   9  18  40  62  87 122 155 203 247 298 357
#
# _framework density 20.006744000000001
#
# number of rings (size 3 to 8) (size 9 to 14) (size 15 to 20)
#    0.706    1.412    2.353    0.000    1.647    2.353 
#    0.000   30.588    0.000    0.000    0.000    0.000 
#    0.000    0.000    0.000    0.000    0.000    0.000 
#
# Total GULP energy -189804.444808 kJ/mol
# GULP energy per Si atom -5582.483671 kJ/mol
# Density = 1.996121 g / cm^3
# Si number density = 20.006744 Si / 1000 Ang^3
#
#
#
# Elastic Constant Matrix: (Units=GPa)
#
#
# Indices 1 2 3 4 5 6 
#
# 1 78.5832 47.8266 43.7325 0.0000 0.0000 0.0000
# 2 47.8266 101.2558 54.9857 0.0000 0.0000 0.0000
# 3 43.7325 54.9857 116.6661 0.0000 0.0000 0.0000
# 4 0.0000 0.0000 0.0000 21.7321 0.0000 0.0000
# 5 0.0000 0.0000 0.0000 0.0000 30.6242 0.0000
# 6 0.0000 0.0000 0.0000 0.0000 0.0000 17.1174
#
#
#
# Elastic Compliance Matrix: (Units=1/GPa)
#
#
# Indices 1 2 3 4 5 6 
#
# 1 0.019099 -0.006899 -0.003908 0.000000 0.000000 0.000000
# 2 -0.006899 0.015765 -0.004844 0.000000 0.000000 0.000000
# 3 -0.003908 -0.004844 0.012319 0.000000 0.000000 0.000000
# 4 0.000000 0.000000 0.000000 0.046015 0.000000 0.000000
# 5 0.000000 0.000000 0.000000 0.000000 0.032654 0.000000
# 6 0.000000 0.000000 0.000000 0.000000 0.000000 0.058420
#
#
# Mechanical properties :
#
#
# Convention : Reuss Voigt Hill
#
# Bulk Modulus (GPa) = 62.96558 65.51052 64.23805
# Shear Modulus (GPa) = 22.63796 23.89209 23.26502
#
# Velocity S-wave (km/s) = 3.36745 3.45947 3.41377
# Velocity P-wave (km/s) = 6.83082 6.98374 6.90770
#
# Compressibility (1/GPa) = 0.01588169
#
# Stress axis : x y z
#
# Youngs Moduli (GPa) = 52.35917 63.43089 81.17309
#
# Poissons Ratio (x) = 0.43761 0.31720
# Poissons Ratio (y) = 0.36123 0.39321
# Poissons Ratio (z) = 0.20460 0.30727
#
# Static dielectric constant tensor:
#      x y z
#    x 1.694260 0.000000 0.000000 
#    y 0.000000 1.720600 0.000000 
#    z 0.000000 0.000000 1.742800 
# 
# From -- ./inp_files/43474.got.cif
#   From: 2010.05.17/outbox.cif.g08.bks.cpg/sg70_22_cif.got.tgz:43474.got - 2010.06.03 15:57:51.
