data_PCOD9516152
_publ_section_title
;
Structure prediction by ZEFSAII (Michael W. Deem and Ramdas Pophale) SiO2 
 PCOD9516152
Probable space group: F D D D
;
_chemical_formula_sum "Si O2"
_cell_formula_units_Z 216
_cell_length_a 28.619153
_cell_length_b 31.476947
_cell_length_c 11.160265
_cell_angle_alpha 90.000000
_cell_angle_beta 90.000000
_cell_angle_gamma 90.000000
_cell_volume 10053.652877
_symmetry_space_group_name_H-M "F D D D"
_symmetry_group_IT_number 70
_space_group.IT_coordinate_system_code '2'
_symmetry_cell_setting 'orthorhombic'
loop_
_space_group_symop_operation_xyz
x,y,z
1/4-x,1/4-y,z
x,1/4-y,1/4-z
1/4-x,y,1/4-z
-x,-y,-z
3/4+x,3/4+y,-z
-x,3/4+y,3/4+z
3/4+x,-y,3/4+z
x,1/2+y,1/2+z
1/4-x,3/4-y,1/2+z
x,3/4-y,3/4-z
1/4-x,1/2+y,3/4-z
-x,1/2-y,1/2-z
3/4+x,1/4+y,1/2-z
-x,1/4+y,1/4+z
3/4+x,1/2-y,1/4+z
1/2+x,y,1/2+z
3/4-x,1/4-y,1/2+z
1/2+x,1/4-y,3/4-z
3/4-x,y,3/4-z
1/2-x,-y,1/2-z
1/4+x,3/4+y,1/2-z
1/2-x,3/4+y,1/4+z
1/4+x,-y,1/4+z
1/2+x,1/2+y,z
3/4-x,3/4-y,z
1/2+x,3/4-y,1/4-z
3/4-x,1/2+y,1/4-z
1/2-x,1/2-y,-z
1/4+x,1/4+y,-z
1/2-x,1/4+y,3/4+z
1/4+x,1/2-y,3/4+z
loop_
_atom_site_type_symbol
_atom_site_label
_atom_site_fract_x
_atom_site_fract_y
_atom_site_fract_z
Si Si1 0.881002 0.484334 0.062436
Si Si2 0.178445 0.199436 0.028777
Si Si3 0.375000 0.875000 0.375000
Si Si4 0.270514 0.082696 0.830823
Si Si5 0.939109 0.923974 0.393074
Si Si6 0.711593 0.235840 0.770650
Si Si7 0.742772 0.682439 0.837606
Si Si8 0.875000 0.696292 0.375000
O O1 0.850579 0.475218 0.180265
O O2 0.930592 0.498771 0.116723
O O3 0.900735 0.446362 0.977085
O O4 0.860706 0.521736 0.981911
O O5 0.156285 0.153106 0.038184
O O6 0.181541 0.214362 0.164597
O O7 0.229132 0.194931 0.971763
O O8 0.239378 0.071636 0.712155
O O9 0.248363 0.049870 0.930266
O O10 0.259380 0.133481 0.841459
O O11 0.326956 0.077262 0.835484
O O12 0.928187 0.875000 0.375000
O O13 0.949093 0.937826 0.256154
O O14 0.725851 0.280029 0.711409
#
# Coordination Sequence:
#
# PCOD9516152 Si02
#       8
#    32  32   8  32  32  32  32  16
#     4  11  22  40  64  99 130 169 213 272 337 395
#     4  12  24  40  64  95 129 174 213 273 331 400
#     4  12  24  40  58  90 140 164 212 282 334 376
#     4  10  23  43  66  95 128 174 220 277 331 393
#     4   9  20  39  65  96 127 163 211 271 339 394
#     4  11  22  44  66  92 134 176 219 266 336 406
#     4  11  23  40  69  92 128 176 223 264 329 409
#     4  12  24  42  64  92 132 166 224 278 330 384
#
# _framework density 21.484728
#
# number of rings (size 3 to 8) (size 9 to 14) (size 15 to 20)
#    0.000    1.185    1.481    4.889    4.148    2.370 
#    2.667    2.222    9.778    0.000    0.000    0.000 
#    0.000    0.000    0.000    0.000    0.000    0.000 
#
# Total GULP energy -300822.244521 kJ/mol
# GULP energy per Si atom -5570.782306 kJ/mol
# Density = 2.143583 g / cm^3
# Si number density = 21.484728 Si / 1000 Ang^3
#
#
#
# Elastic Constant Matrix: (Units=GPa)
#
#
# Indices 1 2 3 4 5 6 
#
# 1 83.2458 19.6446 21.4867 0.0003 0.0000 -0.0020
# 2 19.6446 79.4603 17.7103 0.0001 0.0002 -0.0020
# 3 21.4867 17.7103 85.2227 0.0004 -0.0003 -0.0051
# 4 0.0003 0.0001 0.0004 16.8463 -0.0002 -0.0029
# 5 0.0000 0.0002 -0.0003 -0.0002 24.8229 0.0034
# 6 -0.0020 -0.0020 -0.0051 -0.0029 0.0034 -12.0897
#
#
#
# Elastic Compliance Matrix: (Units=1/GPa)
#
#
# Indices 1 2 3 4 5 6 
#
# 1 0.013371 -0.002678 -0.002815 0.000000 0.000000 -0.000001
# 2 -0.002678 0.013733 -0.002179 0.000000 0.000000 -0.000001
# 3 -0.002815 -0.002179 0.012896 0.000000 0.000000 -0.000005
# 4 0.000000 0.000000 0.000000 0.059360 0.000000 -0.000014
# 5 0.000000 0.000000 0.000000 0.000000 0.040285 0.000011
# 6 -0.000001 -0.000001 -0.000005 -0.000014 0.000011 -0.082715
#
#
# Mechanical properties :
#
#
# Convention : Reuss Voigt Hill
#
# Bulk Modulus (GPa) = 40.55625 40.62356 40.58991
# Shear Modulus (GPa) = 62.11760 18.52173 40.31966
#
# Velocity S-wave (km/s) = 5.38286 2.93932 4.33675
# Velocity P-wave (km/s) = 7.58626 5.51984 6.63400
#
# Compressibility (1/GPa) = 0.02465711
#
# Stress axis : x y z
#
# Youngs Moduli (GPa) = 74.78795 72.81937 77.54157
#
# Poissons Ratio (x) = 0.19504 0.21825
# Poissons Ratio (y) = 0.20031 0.16893
# Poissons Ratio (z) = 0.21050 0.15864
#
# Static dielectric constant tensor:
#      x y z
#    x 1.904990 0.000000 0.000000 
#    y 0.000000 1.777030 0.000000 
#    z 0.000000 0.000000 1.906530 
# 
# From -- ./inp_files/22671.got.cif
#   From: 2010.05.17/outbox.cif.g08.bks.cpg/sg70_12_cif.got.tgz:22671.got - 2010.06.03 15:57:51.
