data_PCOD9516505
_publ_section_title
;
Structure prediction by ZEFSAII (Michael W. Deem and Ramdas Pophale) SiO2 
 PCOD9516505
Probable space group: F D D D
;
_chemical_formula_sum "Si O2"
_cell_formula_units_Z 160
_cell_length_a 8.249707
_cell_length_b 26.931484
_cell_length_c 29.063365
_cell_angle_alpha 90.000000
_cell_angle_beta 90.000000
_cell_angle_gamma 90.000000
_cell_volume 6457.206946
_symmetry_space_group_name_H-M "F D D D"
_symmetry_group_IT_number 70
_space_group.IT_coordinate_system_code '2'
_symmetry_cell_setting 'orthorhombic'
loop_
_space_group_symop_operation_xyz
x,y,z
1/4-x,1/4-y,z
x,1/4-y,1/4-z
1/4-x,y,1/4-z
-x,-y,-z
3/4+x,3/4+y,-z
-x,3/4+y,3/4+z
3/4+x,-y,3/4+z
x,1/2+y,1/2+z
1/4-x,3/4-y,1/2+z
x,3/4-y,3/4-z
1/4-x,1/2+y,3/4-z
-x,1/2-y,1/2-z
3/4+x,1/4+y,1/2-z
-x,1/4+y,1/4+z
3/4+x,1/2-y,1/4+z
1/2+x,y,1/2+z
3/4-x,1/4-y,1/2+z
1/2+x,1/4-y,3/4-z
3/4-x,y,3/4-z
1/2-x,-y,1/2-z
1/4+x,3/4+y,1/2-z
1/2-x,3/4+y,1/4+z
1/4+x,-y,1/4+z
1/2+x,1/2+y,z
3/4-x,3/4-y,z
1/2+x,3/4-y,1/4-z
3/4-x,1/2+y,1/4-z
1/2-x,1/2-y,-z
1/4+x,1/4+y,-z
1/2-x,1/4+y,3/4+z
1/4+x,1/2-y,3/4+z
loop_
_atom_site_type_symbol
_atom_site_label
_atom_site_fract_x
_atom_site_fract_y
_atom_site_fract_z
Si Si1 0.996068 0.089861 0.739291
Si Si2 0.057427 0.009184 0.205155
Si Si3 0.811516 0.982688 0.323237
Si Si4 0.459137 0.076507 0.773597
Si Si5 0.125000 0.794607 0.625000
Si Si6 0.125000 0.625000 0.391079
O O1 0.125000 0.125000 0.764866
O O2 0.089106 0.065734 0.695467
O O3 0.853729 0.130117 0.739907
O O4 0.958052 0.042424 0.768737
O O5 0.882985 0.023567 0.182243
O O6 0.097232 0.049811 0.243186
O O7 0.177414 0.993311 0.164963
O O8 0.875000 0.992731 0.375000
O O9 0.849863 0.029317 0.289103
O O10 0.503205 0.099970 0.822341
O O11 0.275819 0.831664 0.634355
#
# Coordination Sequence:
#
# PCOD9516505 Si02
#       6
#    32  32  32  32  16  16
#     4  11  19  40  68  96 129 173 228 274 333 420
#     4  11  23  42  67  97 137 175 225 286 346 407
#     4  11  23  38  67 102 136 173 228 292 339 403
#     4  11  23  44  67  96 132 185 225 274 350 419
#     4  12  28  42  68 107 138 176 235 296 346 412
#     4  12  28  44  72  99 136 182 227 288 346 424
#
# _framework density 24.778514999999999
#
# number of rings (size 3 to 8) (size 9 to 14) (size 15 to 20)
#    0.000    0.800    6.000    2.400    5.600    1.200 
#    3.600    0.000    0.000    0.000    0.000    0.000 
#    0.000    0.000    0.000    0.000    0.000    0.000 
#
# Total GULP energy -223060.026532 kJ/mol
# GULP energy per Si atom -5576.500663 kJ/mol
# Density = 2.472212 g / cm^3
# Si number density = 24.778515 Si / 1000 Ang^3
#
#
#
# Elastic Constant Matrix: (Units=GPa)
#
#
# Indices 1 2 3 4 5 6 
#
# 1 64.0400 36.5745 21.6971 0.0000 0.0000 0.0000
# 2 36.5745 155.7003 37.8524 0.0000 0.0000 0.0000
# 3 21.6971 37.8524 93.1480 0.0000 0.0000 0.0000
# 4 0.0000 0.0000 0.0000 24.4616 0.0000 0.0000
# 5 0.0000 0.0000 0.0000 0.0000 30.6973 0.0000
# 6 0.0000 0.0000 0.0000 0.0000 0.0000 28.4534
#
#
#
# Elastic Compliance Matrix: (Units=1/GPa)
#
#
# Indices 1 2 3 4 5 6 
#
# 1 0.018693 -0.003698 -0.002852 0.000000 0.000000 0.000000
# 2 -0.003698 0.007858 -0.002332 0.000000 0.000000 0.000000
# 3 -0.002852 -0.002332 0.012347 0.000000 0.000000 0.000000
# 4 0.000000 0.000000 0.000000 0.040880 0.000000 0.000000
# 5 0.000000 0.000000 0.000000 0.000000 0.032576 0.000000
# 6 0.000000 0.000000 0.000000 0.000000 0.000000 0.035145
#
#
# Mechanical properties :
#
#
# Convention : Reuss Voigt Hill
#
# Bulk Modulus (GPa) = 47.31235 56.12626 51.71930
# Shear Modulus (GPa) = 29.01766 31.17341 30.09553
#
# Velocity S-wave (km/s) = 3.42582 3.55079 3.48887
# Velocity P-wave (km/s) = 5.89779 6.28579 6.09488
#
# Compressibility (1/GPa) = 0.02113613
#
# Stress axis : x y z
#
# Youngs Moduli (GPa) = 53.49513 127.25632 80.98834
#
# Poissons Ratio (x) = 0.47058 0.23094
# Poissons Ratio (y) = 0.19782 0.18886
# Poissons Ratio (z) = 0.15255 0.29676
#
# Static dielectric constant tensor:
#      x y z
#    x 2.320320 0.000000 0.000000 
#    y 0.000000 1.995230 0.000000 
#    z 0.000000 0.000000 1.964480 
# 
# From -- ./inp_files/50356.got.cif
#   From: 2010.05.17/outbox.cif.g08.bks.cpg/sg70_26_cif.got.tgz:50356.got - 2010.06.03 15:57:51.
