data_PCOD9516493
_publ_section_title
;
Structure prediction by ZEFSAII (Michael W. Deem and Ramdas Pophale) SiO2 
 PCOD9516493
Probable space group: F D D D
;
_chemical_formula_sum "Si O2"
_cell_formula_units_Z 184
_cell_length_a 16.469177
_cell_length_b 25.337460
_cell_length_c 21.711034
_cell_angle_alpha 90.000000
_cell_angle_beta 90.000000
_cell_angle_gamma 90.000000
_cell_volume 9059.734708
_symmetry_space_group_name_H-M "F D D D"
_symmetry_group_IT_number 70
_space_group.IT_coordinate_system_code '2'
_symmetry_cell_setting 'orthorhombic'
loop_
_space_group_symop_operation_xyz
x,y,z
1/4-x,1/4-y,z
x,1/4-y,1/4-z
1/4-x,y,1/4-z
-x,-y,-z
3/4+x,3/4+y,-z
-x,3/4+y,3/4+z
3/4+x,-y,3/4+z
x,1/2+y,1/2+z
1/4-x,3/4-y,1/2+z
x,3/4-y,3/4-z
1/4-x,1/2+y,3/4-z
-x,1/2-y,1/2-z
3/4+x,1/4+y,1/2-z
-x,1/4+y,1/4+z
3/4+x,1/2-y,1/4+z
1/2+x,y,1/2+z
3/4-x,1/4-y,1/2+z
1/2+x,1/4-y,3/4-z
3/4-x,y,3/4-z
1/2-x,-y,1/2-z
1/4+x,3/4+y,1/2-z
1/2-x,3/4+y,1/4+z
1/4+x,-y,1/4+z
1/2+x,1/2+y,z
3/4-x,3/4-y,z
1/2+x,3/4-y,1/4-z
3/4-x,1/2+y,1/4-z
1/2-x,1/2-y,-z
1/4+x,1/4+y,-z
1/2-x,1/4+y,3/4+z
1/4+x,1/2-y,3/4+z
loop_
_atom_site_type_symbol
_atom_site_label
_atom_site_fract_x
_atom_site_fract_y
_atom_site_fract_z
Si Si1 0.133051 0.828113 0.699461
Si Si2 0.663227 0.312840 0.363715
Si Si3 0.125000 0.125000 0.260206
Si Si4 0.000822 0.450847 0.810746
Si Si5 0.375000 0.375000 0.375000
Si Si6 0.062183 0.722417 0.682303
Si Si7 0.212584 0.816612 0.223454
O O1 0.125000 0.825542 0.625000
O O2 0.210758 0.816433 0.743877
O O3 0.078250 0.777288 0.716631
O O4 0.101771 0.886902 0.711774
O O5 0.678506 0.375000 0.375000
O O6 0.572858 0.302132 0.388146
O O7 0.723592 0.278798 0.404502
O O8 0.692780 0.302938 0.294497
O O9 0.080979 0.170356 0.220904
O O10 0.199910 0.156207 0.290684
O O11 0.932012 0.410835 0.832260
O O12 0.965307 0.510034 0.808945
O O13 0.125000 0.718448 0.625000
#
# Coordination Sequence:
#
# PCOD9516493 Si02
#       7
#    32  32  16  32   8  32  32
#     4  11  24  44  65 102 150 182 226 310 367 431
#     4  12  21  42  70  97 141 188 238 290 359 437
#     4  12  19  32  59 102 133 172 220 269 346 426
#     4  12  26  50  73 104 137 191 259 300 359 435
#     4  12  28  56  82  96 128 208 276 316 344 420
#     4  11  19  34  62  98 140 183 221 275 358 445
#     4  12  25  40  67 103 141 184 235 295 363 432
#
# _framework density 20.309645
#
# number of rings (size 3 to 8) (size 9 to 14) (size 15 to 20)
#    0.000    0.348    7.826    1.304    3.652    1.391 
#    3.130    1.739    0.000    0.000    0.000    0.000 
#    0.000    0.000    0.000    0.000    0.000    0.000 
#
# Total GULP energy -256492.531547 kJ/mol
# GULP energy per Si atom -5575.924599 kJ/mol
# Density = 2.026342 g / cm^3
# Si number density = 20.309645 Si / 1000 Ang^3
#
#
#
# Elastic Constant Matrix: (Units=GPa)
#
#
# Indices 1 2 3 4 5 6 
#
# 1 94.9497 58.6369 17.2524 0.0000 0.0000 0.0000
# 2 58.6369 174.4001 39.6793 0.0000 0.0000 0.0000
# 3 17.2524 39.6793 75.7172 0.0000 0.0000 0.0000
# 4 0.0000 0.0000 0.0000 44.7251 0.0000 0.0000
# 5 0.0000 0.0000 0.0000 0.0000 17.8581 0.0000
# 6 0.0000 0.0000 0.0000 0.0000 0.0000 27.7876
#
#
#
# Elastic Compliance Matrix: (Units=1/GPa)
#
#
# Indices 1 2 3 4 5 6 
#
# 1 0.013332 -0.004305 -0.000782 0.000000 0.000000 0.000000
# 2 -0.004305 0.007900 -0.003159 0.000000 0.000000 0.000000
# 3 -0.000782 -0.003159 0.015041 0.000000 0.000000 0.000000
# 4 0.000000 0.000000 0.000000 0.022359 0.000000 0.000000
# 5 0.000000 0.000000 0.000000 0.000000 0.055997 0.000000
# 6 0.000000 0.000000 0.000000 0.000000 0.000000 0.035987
#
#
# Mechanical properties :
#
#
# Convention : Reuss Voigt Hill
#
# Bulk Modulus (GPa) = 50.55218 64.02271 57.28744
# Shear Modulus (GPa) = 28.78497 33.37405 31.07951
#
# Velocity S-wave (km/s) = 3.76880 4.05811 3.91613
# Velocity P-wave (km/s) = 6.62444 7.31775 6.97971
#
# Compressibility (1/GPa) = 0.01978154
#
# Stress axis : x y z
#
# Youngs Moduli (GPa) = 75.00540 126.58163 66.48603
#
# Poissons Ratio (x) = 0.54490 0.05199
# Poissons Ratio (y) = 0.32288 0.21004
# Poissons Ratio (z) = 0.05865 0.39989
#
# Static dielectric constant tensor:
#      x y z
#    x 1.755170 0.000000 0.000000 
#    y 0.000000 1.718800 0.000000 
#    z 0.000000 0.000000 1.800170 
# 
# From -- ./inp_files/52268.got.cif
#   From: 2010.05.17/outbox.cif.g08.bks.cpg/sg70_27_cif.got.tgz:52268.got - 2010.06.03 15:57:51.
