data_PCOD9516492
_publ_section_title
;
Structure prediction by ZEFSAII (Michael W. Deem and Ramdas Pophale) SiO2 
 PCOD9516492
Probable space group: F D D D
;
_chemical_formula_sum "Si O2"
_cell_formula_units_Z 232
_cell_length_a 30.721023
_cell_length_b 25.950262
_cell_length_c 17.576239
_cell_angle_alpha 90.000000
_cell_angle_beta 90.000000
_cell_angle_gamma 90.000000
_cell_volume 14012.104574
_symmetry_space_group_name_H-M "F D D D"
_symmetry_group_IT_number 70
_space_group.IT_coordinate_system_code '2'
_symmetry_cell_setting 'orthorhombic'
loop_
_space_group_symop_operation_xyz
x,y,z
1/4-x,1/4-y,z
x,1/4-y,1/4-z
1/4-x,y,1/4-z
-x,-y,-z
3/4+x,3/4+y,-z
-x,3/4+y,3/4+z
3/4+x,-y,3/4+z
x,1/2+y,1/2+z
1/4-x,3/4-y,1/2+z
x,3/4-y,3/4-z
1/4-x,1/2+y,3/4-z
-x,1/2-y,1/2-z
3/4+x,1/4+y,1/2-z
-x,1/4+y,1/4+z
3/4+x,1/2-y,1/4+z
1/2+x,y,1/2+z
3/4-x,1/4-y,1/2+z
1/2+x,1/4-y,3/4-z
3/4-x,y,3/4-z
1/2-x,-y,1/2-z
1/4+x,3/4+y,1/2-z
1/2-x,3/4+y,1/4+z
1/4+x,-y,1/4+z
1/2+x,1/2+y,z
3/4-x,3/4-y,z
1/2+x,3/4-y,1/4-z
3/4-x,1/2+y,1/4-z
1/2-x,1/2-y,-z
1/4+x,1/4+y,-z
1/2-x,1/4+y,3/4+z
1/4+x,1/2-y,3/4+z
loop_
_atom_site_type_symbol
_atom_site_label
_atom_site_fract_x
_atom_site_fract_y
_atom_site_fract_z
Si Si1 0.021810 0.920662 0.811783
Si Si2 0.431593 0.842403 0.510759
Si Si3 0.389764 0.246044 0.086588
Si Si4 0.441420 0.291754 0.724146
Si Si5 0.774084 0.016620 0.858916
Si Si6 0.126733 0.913357 0.448242
Si Si7 0.625000 0.125000 0.625000
Si Si8 0.591965 0.420492 0.195353
O O1 0.019111 0.875000 0.875000
O O2 0.071795 0.921414 0.783253
O O3 0.983384 0.910340 0.751736
O O4 0.004729 0.974343 0.847310
O O5 0.415660 0.798451 0.568163
O O6 0.422432 0.901350 0.531890
O O7 0.406009 0.840171 0.429388
O O8 0.338491 0.257485 0.079557
O O9 0.395390 0.215114 0.164920
O O10 0.399403 0.209699 0.014505
O O11 0.441854 0.265557 0.807148
O O12 0.491233 0.293632 0.699171
O O13 0.796525 0.059416 0.910925
O O14 0.126887 0.875000 0.375000
O O15 0.100663 0.885086 0.515748
O O16 0.625000 0.425350 0.125000
#
# Coordination Sequence:
#
# PCOD9516492 Si02
#       8
#    32  32  32  32  32  32   8  32
#     4  11  19  31  48  70 104 148 180 217 256 316
#     4  12  22  28  48  74 109 145 181 210 264 330
#     4  11  20  35  49  71 110 148 176 218 266 321
#     4  11  21  31  46  79 111 141 174 211 271 331
#     4  11  21  31  50  75 110 144 177 221 263 330
#     4   9  22  37  50  71 104 143 188 226 267 312
#     4  12  20  28  40  76 116 144 174 196 244 340
#     4  11  22  33  53  76 101 145 190 223 264 322
#
# _framework density 16.557112
#
# number of rings (size 3 to 8) (size 9 to 14) (size 15 to 20)
#    0.000    1.103    7.586    0.000    2.897    0.000 
#    0.000    0.000    0.000    0.828    0.000    0.000 
#    0.000    1.241    0.000    0.000    0.000    0.000 
#
# Total GULP energy -323022.901705 kJ/mol
# GULP energy per Si atom -5569.360374 kJ/mol
# Density = 1.651943 g / cm^3
# Si number density = 16.557112 Si / 1000 Ang^3
#
#
#
# Elastic Constant Matrix: (Units=GPa)
#
#
# Indices 1 2 3 4 5 6 
#
# 1 65.3202 42.6886 34.7456 0.0000 0.0000 0.0000
# 2 42.6886 80.1082 34.8302 0.0000 0.0000 0.0000
# 3 34.7456 34.8302 47.4304 0.0000 0.0000 0.0000
# 4 0.0000 0.0000 0.0000 30.3730 0.0000 0.0000
# 5 0.0000 0.0000 0.0000 0.0000 13.7062 0.0000
# 6 0.0000 0.0000 0.0000 0.0000 0.0000 23.8965
#
#
#
# Elastic Compliance Matrix: (Units=1/GPa)
#
#
# Indices 1 2 3 4 5 6 
#
# 1 0.029020 -0.009139 -0.014548 0.000000 0.000000 0.000000
# 2 -0.009139 0.021217 -0.008885 0.000000 0.000000 0.000000
# 3 -0.014548 -0.008885 0.038265 0.000000 0.000000 0.000000
# 4 0.000000 0.000000 0.000000 0.032924 0.000000 0.000000
# 5 0.000000 0.000000 0.000000 0.000000 0.072959 0.000000
# 6 0.000000 0.000000 0.000000 0.000000 0.000000 0.041847
#
#
# Mechanical properties :
#
#
# Convention : Reuss Voigt Hill
#
# Bulk Modulus (GPa) = 42.81216 46.37640 44.59428
# Shear Modulus (GPa) = 16.17272 18.96812 17.57042
#
# Velocity S-wave (km/s) = 3.12874 3.38837 3.26114
# Velocity P-wave (km/s) = 6.24223 6.58626 6.41655
#
# Compressibility (1/GPa) = 0.02335785
#
# Stress axis : x y z
#
# Youngs Moduli (GPa) = 34.45865 47.13309 26.13344
#
# Poissons Ratio (x) = 0.43077 0.38018
# Poissons Ratio (y) = 0.31493 0.23220
# Poissons Ratio (z) = 0.50129 0.41878
#
# Static dielectric constant tensor:
#      x y z
#    x 1.598340 0.000000 0.000000 
#    y 0.000000 1.624600 0.000000 
#    z 0.000000 0.000000 1.565400 
# 
# From -- ./inp_files/40014.got.cif
#   From: 2010.05.17/outbox.cif.g08.bks.cpg/sg70_21_cif.got.tgz:40014.got - 2010.06.03 15:57:51.
