data_PCOD9516083
_publ_section_title
;
Structure prediction by ZEFSAII (Michael W. Deem and Ramdas Pophale) SiO2 
 PCOD9516083
Probable space group: F D D D
;
_chemical_formula_sum "Si O2"
_cell_formula_units_Z 144
_cell_length_a 23.255372
_cell_length_b 18.888151
_cell_length_c 15.002877
_cell_angle_alpha 90.000000
_cell_angle_beta 90.000000
_cell_angle_gamma 90.000000
_cell_volume 6590.028394
_symmetry_space_group_name_H-M "F D D D"
_symmetry_group_IT_number 70
_space_group.IT_coordinate_system_code '2'
_symmetry_cell_setting 'orthorhombic'
loop_
_space_group_symop_operation_xyz
x,y,z
1/4-x,1/4-y,z
x,1/4-y,1/4-z
1/4-x,y,1/4-z
-x,-y,-z
3/4+x,3/4+y,-z
-x,3/4+y,3/4+z
3/4+x,-y,3/4+z
x,1/2+y,1/2+z
1/4-x,3/4-y,1/2+z
x,3/4-y,3/4-z
1/4-x,1/2+y,3/4-z
-x,1/2-y,1/2-z
3/4+x,1/4+y,1/2-z
-x,1/4+y,1/4+z
3/4+x,1/2-y,1/4+z
1/2+x,y,1/2+z
3/4-x,1/4-y,1/2+z
1/2+x,1/4-y,3/4-z
3/4-x,y,3/4-z
1/2-x,-y,1/2-z
1/4+x,3/4+y,1/2-z
1/2-x,3/4+y,1/4+z
1/4+x,-y,1/4+z
1/2+x,1/2+y,z
3/4-x,3/4-y,z
1/2+x,3/4-y,1/4-z
3/4-x,1/2+y,1/4-z
1/2-x,1/2-y,-z
1/4+x,1/4+y,-z
1/2-x,1/4+y,3/4+z
1/4+x,1/2-y,3/4+z
loop_
_atom_site_type_symbol
_atom_site_label
_atom_site_fract_x
_atom_site_fract_y
_atom_site_fract_z
Si Si1 0.250798 0.070221 0.349686
Si Si2 0.992990 0.819781 0.444767
Si Si3 0.430750 0.799416 0.598214
Si Si4 0.875000 0.375000 0.759040
Si Si5 0.579209 0.942793 0.439031
O O1 0.262031 0.084500 0.453799
O O2 0.199855 0.122800 0.314108
O O3 0.305718 0.077499 0.286691
O O4 0.223275 0.991735 0.347703
O O5 0.018860 0.875000 0.375000
O O6 0.924659 0.830767 0.444454
O O7 0.010647 0.743624 0.410101
O O8 0.407419 0.818469 0.695723
O O9 0.384066 0.745488 0.556955
O O10 0.588076 0.875000 0.375000
#
# Coordination Sequence:
#
# PCOD9516083 Si02
#       5
#    32  32  32  16  32
#     4  10  23  40  66 100 142 179 234 284 353 424
#     4  11  23  42  67  99 135 187 232 281 347 415
#     4  11  21  43  68  98 140 178 231 292 341 428
#     4  10  23  44  68  99 138 180 233 296 344 415
#     4  11  21  40  68 100 137 185 223 292 354 417
#
# _framework density 21.851195000000001
#
# number of rings (size 3 to 8) (size 9 to 14) (size 15 to 20)
#    0.000    1.333    4.444    2.333    0.000    4.444 
#    0.000    0.000    4.889    0.000    0.000    0.000 
#    0.000    0.000    0.000    0.000    0.000    0.000 
#
# Total GULP energy -200655.449163 kJ/mol
# GULP energy per Si atom -5573.762477 kJ/mol
# Density = 2.180146 g / cm^3
# Si number density = 21.851195 Si / 1000 Ang^3
#
#
#
# Elastic Constant Matrix: (Units=GPa)
#
#
# Indices 1 2 3 4 5 6 
#
# 1 98.5568 48.9390 40.3065 0.0000 0.0000 0.0000
# 2 48.9390 126.3617 41.6001 0.0000 0.0000 0.0000
# 3 40.3065 41.6001 108.3170 0.0000 0.0000 0.0000
# 4 0.0000 0.0000 0.0000 16.9649 0.0000 0.0000
# 5 0.0000 0.0000 0.0000 0.0000 20.3645 0.0000
# 6 0.0000 0.0000 0.0000 0.0000 0.0000 59.5353
#
#
#
# Elastic Compliance Matrix: (Units=1/GPa)
#
#
# Indices 1 2 3 4 5 6 
#
# 1 0.013621 -0.004129 -0.003483 0.000000 0.000000 0.000000
# 2 -0.004129 0.010311 -0.002424 0.000000 0.000000 0.000000
# 3 -0.003483 -0.002424 0.011459 0.000000 0.000000 0.000000
# 4 0.000000 0.000000 0.000000 0.058945 0.000000 0.000000
# 5 0.000000 0.000000 0.000000 0.000000 0.049105 0.000000
# 6 0.000000 0.000000 0.000000 0.000000 0.000000 0.016797
#
#
# Mechanical properties :
#
#
# Convention : Reuss Voigt Hill
#
# Bulk Modulus (GPa) = 65.27279 66.10296 65.68788
# Shear Modulus (GPa) = 26.96656 32.86559 29.91607
#
# Velocity S-wave (km/s) = 3.51679 3.88243 3.70412
# Velocity P-wave (km/s) = 6.81372 7.10034 6.95850
#
# Compressibility (1/GPa) = 0.01532032
#
# Stress axis : x y z
#
# Youngs Moduli (GPa) = 73.41628 96.98695 87.26763
#
# Poissons Ratio (x) = 0.40043 0.30395
# Poissons Ratio (y) = 0.30311 0.21150
# Poissons Ratio (z) = 0.25570 0.23505
#
# Static dielectric constant tensor:
#      x y z
#    x 1.854980 0.000000 0.000000 
#    y 0.000000 1.865220 0.000000 
#    z 0.000000 0.000000 1.847470 
# 
# From -- ./inp_files/37335.got.cif
#   From: 2010.05.17/outbox.cif.g08.bks.cpg/sg70_19_cif.got.tgz:37335.got - 2010.06.03 15:57:51.
