data_PCOD9516333
_publ_section_title
;
Structure prediction by ZEFSAII (Michael W. Deem and Ramdas Pophale) SiO2 
 PCOD9516333
Probable space group: F D D D
;
_chemical_formula_sum "Si O2"
_cell_formula_units_Z 104
_cell_length_a 24.427812
_cell_length_b 10.329117
_cell_length_c 15.431725
_cell_angle_alpha 90.000000
_cell_angle_beta 90.000000
_cell_angle_gamma 90.000000
_cell_volume 3893.697794
_symmetry_space_group_name_H-M "F D D D"
_symmetry_group_IT_number 70
_space_group.IT_coordinate_system_code '2'
_symmetry_cell_setting 'orthorhombic'
loop_
_space_group_symop_operation_xyz
x,y,z
1/4-x,1/4-y,z
x,1/4-y,1/4-z
1/4-x,y,1/4-z
-x,-y,-z
3/4+x,3/4+y,-z
-x,3/4+y,3/4+z
3/4+x,-y,3/4+z
x,1/2+y,1/2+z
1/4-x,3/4-y,1/2+z
x,3/4-y,3/4-z
1/4-x,1/2+y,3/4-z
-x,1/2-y,1/2-z
3/4+x,1/4+y,1/2-z
-x,1/4+y,1/4+z
3/4+x,1/2-y,1/4+z
1/2+x,y,1/2+z
3/4-x,1/4-y,1/2+z
1/2+x,1/4-y,3/4-z
3/4-x,y,3/4-z
1/2-x,-y,1/2-z
1/4+x,3/4+y,1/2-z
1/2-x,3/4+y,1/4+z
1/4+x,-y,1/4+z
1/2+x,1/2+y,z
3/4-x,3/4-y,z
1/2+x,3/4-y,1/4-z
3/4-x,1/2+y,1/4-z
1/2-x,1/2-y,-z
1/4+x,1/4+y,-z
1/2-x,1/4+y,3/4+z
1/4+x,1/2-y,3/4+z
loop_
_atom_site_type_symbol
_atom_site_label
_atom_site_fract_x
_atom_site_fract_y
_atom_site_fract_z
Si Si1 0.833708 0.492566 0.135699
Si Si2 0.125000 0.625000 0.125000
Si Si3 0.512528 0.675761 0.997408
Si Si4 0.706369 0.318225 0.060219
O O1 0.867475 0.625000 0.125000
O O2 0.875000 0.375000 0.120164
O O3 0.785036 0.719484 0.183372
O O4 0.800613 0.451296 0.224895
O O5 0.156016 0.723441 0.063383
O O6 0.555061 0.788046 0.025999
O O7 0.482240 0.689749 0.906103
O O8 0.750000 0.250000 0.000000
#
# Coordination Sequence:
#
# PCOD9516333 Si02
#       4
#    32   8  32  32
#     4  11  26  49  80 117 160 212 265 327 405 479
#     4  12  24  36  76 108 166 216 264 316 420 458
#     4  10  24  45  74 106 160 199 264 330 390 467
#     4  11  22  42  66 111 154 199 262 328 380 472
#
# _framework density 26.709828000000002
#
# number of rings (size 3 to 8) (size 9 to 14) (size 15 to 20)
#    0.000    1.231    3.077    0.923    2.154    7.385 
#    0.000    0.000    0.000    7.385    0.000    0.000 
#    0.000    0.000    0.000    0.000    0.000    0.000 
#
# Total GULP energy -145037.625526 kJ/mol
# GULP energy per Si atom -5578.370213 kJ/mol
# Density = 2.664903 g / cm^3
# Si number density = 26.709828 Si / 1000 Ang^3
#
#
#
# Elastic Constant Matrix: (Units=GPa)
#
#
# Indices 1 2 3 4 5 6 
#
# 1 102.5227 60.8243 36.3908 0.0000 0.0000 0.0000
# 2 60.8243 228.8487 63.0312 0.0000 0.0000 0.0000
# 3 36.3908 63.0312 151.4649 0.0000 0.0000 0.0000
# 4 0.0000 0.0000 0.0000 65.0853 0.0000 0.0000
# 5 0.0000 0.0000 0.0000 0.0000 31.6671 0.0000
# 6 0.0000 0.0000 0.0000 0.0000 0.0000 48.2066
#
#
#
# Elastic Compliance Matrix: (Units=1/GPa)
#
#
# Indices 1 2 3 4 5 6 
#
# 1 0.011979 -0.002701 -0.001754 0.000000 0.000000 0.000000
# 2 -0.002701 0.005544 -0.001658 0.000000 0.000000 0.000000
# 3 -0.001754 -0.001658 0.007714 0.000000 0.000000 0.000000
# 4 0.000000 0.000000 0.000000 0.015364 0.000000 0.000000
# 5 0.000000 0.000000 0.000000 0.000000 0.031579 0.000000
# 6 0.000000 0.000000 0.000000 0.000000 0.000000 0.020744
#
#
# Mechanical properties :
#
#
# Convention : Reuss Voigt Hill
#
# Bulk Modulus (GPa) = 76.86095 89.25877 83.05986
# Shear Modulus (GPa) = 45.66753 50.49779 48.08266
#
# Velocity S-wave (km/s) = 4.13942 4.35283 4.24746
# Velocity P-wave (km/s) = 7.18924 7.66507 7.43096
#
# Compressibility (1/GPa) = 0.01301051
#
# Stress axis : x y z
#
# Youngs Moduli (GPa) = 83.48079 180.36754 129.63853
#
# Poissons Ratio (x) = 0.48710 0.22741
# Poissons Ratio (y) = 0.22545 0.21499
# Poissons Ratio (z) = 0.14644 0.29911
#
# Static dielectric constant tensor:
#      x y z
#    x 2.246780 0.000000 0.000000 
#    y 0.000000 2.252170 0.000000 
#    z 0.000000 0.000000 2.092200 
# 
# From -- ./inp_files/56382.got.cif
#   From: 2010.05.17/outbox.cif.g08.bks.cpg/sg70_29_cif.got.tgz:56382.got - 2010.06.03 15:57:51.
