data_PCOD9516618
_publ_section_title
;
Structure prediction by ZEFSAII (Michael W. Deem and Ramdas Pophale) SiO2 
 PCOD9516618
Probable space group: F D D D
;
_chemical_formula_sum "Si O2"
_cell_formula_units_Z 176
_cell_length_a 25.498276
_cell_length_b 11.523597
_cell_length_c 26.939001
_cell_angle_alpha 90.000000
_cell_angle_beta 90.000000
_cell_angle_gamma 90.000000
_cell_volume 7915.536685
_symmetry_space_group_name_H-M "F D D D"
_symmetry_group_IT_number 70
_space_group.IT_coordinate_system_code '2'
_symmetry_cell_setting 'orthorhombic'
loop_
_space_group_symop_operation_xyz
x,y,z
1/4-x,1/4-y,z
x,1/4-y,1/4-z
1/4-x,y,1/4-z
-x,-y,-z
3/4+x,3/4+y,-z
-x,3/4+y,3/4+z
3/4+x,-y,3/4+z
x,1/2+y,1/2+z
1/4-x,3/4-y,1/2+z
x,3/4-y,3/4-z
1/4-x,1/2+y,3/4-z
-x,1/2-y,1/2-z
3/4+x,1/4+y,1/2-z
-x,1/4+y,1/4+z
3/4+x,1/2-y,1/4+z
1/2+x,y,1/2+z
3/4-x,1/4-y,1/2+z
1/2+x,1/4-y,3/4-z
3/4-x,y,3/4-z
1/2-x,-y,1/2-z
1/4+x,3/4+y,1/2-z
1/2-x,3/4+y,1/4+z
1/4+x,-y,1/4+z
1/2+x,1/2+y,z
3/4-x,3/4-y,z
1/2+x,3/4-y,1/4-z
3/4-x,1/2+y,1/4-z
1/2-x,1/2-y,-z
1/4+x,1/4+y,-z
1/2-x,1/4+y,3/4+z
1/4+x,1/2-y,3/4+z
loop_
_atom_site_type_symbol
_atom_site_label
_atom_site_fract_x
_atom_site_fract_y
_atom_site_fract_z
Si Si1 0.453756 0.068351 0.473308
Si Si2 0.187092 0.263929 0.132872
Si Si3 0.125000 0.125000 0.996037
Si Si4 0.559502 0.451943 0.315154
Si Si5 0.487217 0.304481 0.520919
Si Si6 0.917555 0.282689 0.666261
O O1 0.455422 0.189608 0.503066
O O2 0.500000 0.000000 0.500000
O O3 0.463961 0.076909 0.414334
O O4 0.403491 0.981702 0.476496
O O5 0.191138 0.125000 0.125000
O O6 0.125000 0.294858 0.125000
O O7 0.218388 0.285874 0.185179
O O8 0.081947 0.187614 0.962993
O O9 0.514338 0.405347 0.279880
O O10 0.601262 0.345668 0.317721
O O11 0.546716 0.495301 0.369927
O O12 0.447777 0.399074 0.541711
O O13 0.875000 0.375000 0.647796
#
# Coordination Sequence:
#
# PCOD9516618 Si02
#       6
#    32  32  16  32  32  32
#     4  12  23  39  63  99 134 178 226 282 348 410
#     4  11  22  39  62  95 135 175 222 280 344 405
#     4  12  22  42  65  94 138 170 220 291 342 398
#     4  11  23  43  67  95 132 176 228 283 340 414
#     4  12  24  41  67  98 138 177 228 282 349 421
#     4  11  25  44  66  97 134 183 228 281 350 420
#
# _framework density 22.234752
#
# number of rings (size 3 to 8) (size 9 to 14) (size 15 to 20)
#    0.000    0.545    4.545    4.909    0.000    0.000 
#    3.273    0.000    0.000    0.000    0.000    2.545 
#    0.000    0.000    0.000    0.000    0.000    0.000 
#
# Total GULP energy -245227.332602 kJ/mol
# GULP energy per Si atom -5573.348468 kJ/mol
# Density = 2.218414 g / cm^3
# Si number density = 22.234752 Si / 1000 Ang^3
#
#
#
# Elastic Constant Matrix: (Units=GPa)
#
#
# Indices 1 2 3 4 5 6 
#
# 1 44.8945 12.8847 26.0403 0.0000 0.0000 0.0000
# 2 12.8847 135.8449 37.3918 0.0000 0.0000 0.0000
# 3 26.0403 37.3918 150.2802 0.0000 0.0000 0.0000
# 4 0.0000 0.0000 0.0000 35.5866 0.0000 0.0000
# 5 0.0000 0.0000 0.0000 0.0000 27.2602 0.0000
# 6 0.0000 0.0000 0.0000 0.0000 0.0000 34.4589
#
#
#
# Elastic Compliance Matrix: (Units=1/GPa)
#
#
# Indices 1 2 3 4 5 6 
#
# 1 0.024964 -0.001264 -0.004011 0.000000 0.000000 0.000000
# 2 -0.001264 0.007967 -0.001763 0.000000 0.000000 0.000000
# 3 -0.004011 -0.001763 0.007788 0.000000 0.000000 0.000000
# 4 0.000000 0.000000 0.000000 0.028100 0.000000 0.000000
# 5 0.000000 0.000000 0.000000 0.000000 0.036684 0.000000
# 6 0.000000 0.000000 0.000000 0.000000 0.000000 0.029020
#
#
# Mechanical properties :
#
#
# Convention : Reuss Voigt Hill
#
# Bulk Modulus (GPa) = 37.53466 53.73925 45.63696
# Shear Modulus (GPa) = 31.75020 36.44133 34.09577
#
# Velocity S-wave (km/s) = 3.78293 4.05277 3.92017
# Velocity P-wave (km/s) = 5.99987 6.79128 6.40780
#
# Compressibility (1/GPa) = 0.02664204
#
# Stress axis : x y z
#
# Youngs Moduli (GPa) = 40.05800 125.52522 128.40242
#
# Poissons Ratio (x) = 0.15862 0.51506
# Poissons Ratio (y) = 0.05062 0.22640
# Poissons Ratio (z) = 0.16068 0.22133
#
# Static dielectric constant tensor:
#      x y z
#    x 1.917590 0.000000 0.000000 
#    y 0.000000 1.882230 0.000000 
#    z 0.000000 0.000000 1.875100 
# 
# From -- ./inp_files/61682.got.cif
#   From: 2010.05.17/outbox.cif.g08.bks.cpg/sg70_31_cif.got.tgz:61682.got - 2010.06.03 15:57:51.
