data_PCOD9516833
_publ_section_title
;
Structure prediction by ZEFSAII (Michael W. Deem and Ramdas Pophale) SiO2 
 PCOD9516833
Probable space group: F D D D
;
_chemical_formula_sum "Si O2"
_cell_formula_units_Z 176
_cell_length_a 26.700784
_cell_length_b 11.235997
_cell_length_c 27.731660
_cell_angle_alpha 90.000000
_cell_angle_beta 90.000000
_cell_angle_gamma 90.000000
_cell_volume 8319.773345
_symmetry_space_group_name_H-M "F D D D"
_symmetry_group_IT_number 70
_space_group.IT_coordinate_system_code '2'
_symmetry_cell_setting 'orthorhombic'
loop_
_space_group_symop_operation_xyz
x,y,z
1/4-x,1/4-y,z
x,1/4-y,1/4-z
1/4-x,y,1/4-z
-x,-y,-z
3/4+x,3/4+y,-z
-x,3/4+y,3/4+z
3/4+x,-y,3/4+z
x,1/2+y,1/2+z
1/4-x,3/4-y,1/2+z
x,3/4-y,3/4-z
1/4-x,1/2+y,3/4-z
-x,1/2-y,1/2-z
3/4+x,1/4+y,1/2-z
-x,1/4+y,1/4+z
3/4+x,1/2-y,1/4+z
1/2+x,y,1/2+z
3/4-x,1/4-y,1/2+z
1/2+x,1/4-y,3/4-z
3/4-x,y,3/4-z
1/2-x,-y,1/2-z
1/4+x,3/4+y,1/2-z
1/2-x,3/4+y,1/4+z
1/4+x,-y,1/4+z
1/2+x,1/2+y,z
3/4-x,3/4-y,z
1/2+x,3/4-y,1/4-z
3/4-x,1/2+y,1/4-z
1/2-x,1/2-y,-z
1/4+x,1/4+y,-z
1/2-x,1/4+y,3/4+z
1/4+x,1/2-y,3/4+z
loop_
_atom_site_type_symbol
_atom_site_label
_atom_site_fract_x
_atom_site_fract_y
_atom_site_fract_z
Si Si1 0.096830 0.431625 0.529815
Si Si2 0.548099 0.054680 0.711773
Si Si3 0.619702 0.503492 0.801851
Si Si4 0.303149 0.625000 0.125000
Si Si5 0.745219 0.935087 0.062748
Si Si6 0.716163 0.001860 0.882843
O O1 0.068013 0.559294 0.532285
O O2 0.153809 0.468572 0.540431
O O3 0.099300 0.356445 0.480283
O O4 0.063476 0.345934 0.563556
O O5 0.513990 0.036117 0.759015
O O6 0.515025 0.025739 0.664900
O O7 0.625000 0.625000 0.769364
O O8 0.662689 0.442088 0.834879
O O9 0.576704 0.561134 0.835955
O O10 0.266772 0.534282 0.097656
O O11 0.771977 0.816759 0.083570
O O12 0.691918 0.875000 0.875000
#
# Coordination Sequence:
#
# PCOD9516833 Si02
#       6
#    32  32  32  16  32  32
#     4  11  24  44  70  99 140 186 233 292 369 426
#     4  11  24  43  72 103 138 181 236 301 357 435
#     4  12  24  41  68 106 136 182 239 299 358 426
#     4  12  26  42  68 107 146 187 250 302 360 440
#     4  12  24  44  69 103 143 186 238 299 364 434
#     4  12  23  40  72 104 140 177 232 296 364 429
#
# _framework density 21.154422
#
# number of rings (size 3 to 8) (size 9 to 14) (size 15 to 20)
#    0.000    0.364    8.182    1.636    0.000    0.727 
#    3.273    2.727    0.000    0.000    0.000    0.000 
#    0.000    0.000    0.000    0.000    0.000    0.000 
#
# Total GULP energy -245093.175507 kJ/mol
# GULP energy per Si atom -5570.299443 kJ/mol
# Density = 2.110627 g / cm^3
# Si number density = 21.154422 Si / 1000 Ang^3
#
#
#
# Elastic Constant Matrix: (Units=GPa)
#
#
# Indices 1 2 3 4 5 6 
#
# 1 107.4132 48.2612 36.2381 0.0000 0.0000 0.0000
# 2 48.2612 98.6300 11.7414 0.0000 0.0000 0.0000
# 3 36.2381 11.7414 43.8992 0.0000 0.0000 0.0000
# 4 0.0000 0.0000 0.0000 20.1372 0.0000 0.0000
# 5 0.0000 0.0000 0.0000 0.0000 -33.8325 0.0000
# 6 0.0000 0.0000 0.0000 0.0000 0.0000 27.2396
#
#
#
# Elastic Compliance Matrix: (Units=1/GPa)
#
#
# Indices 1 2 3 4 5 6 
#
# 1 0.016150 -0.006523 -0.011587 0.000000 0.000000 0.000000
# 2 -0.006523 0.013107 0.001879 0.000000 0.000000 0.000000
# 3 -0.011587 0.001879 0.031841 0.000000 0.000000 0.000000
# 4 0.000000 0.000000 0.000000 0.049659 0.000000 0.000000
# 5 0.000000 0.000000 0.000000 0.000000 -0.029557 0.000000
# 6 0.000000 0.000000 0.000000 0.000000 0.000000 0.036711
#
#
# Mechanical properties :
#
#
# Convention : Reuss Voigt Hill
#
# Bulk Modulus (GPa) = 34.91999 49.15819 42.03909
# Shear Modulus (GPa) = 31.26596 12.95562 22.11079
#
# Velocity S-wave (km/s) = 3.84863 2.47742 3.23648
# Velocity P-wave (km/s) = 6.02431 5.60996 5.82082
#
# Compressibility (1/GPa) = 0.02863690
#
# Stress axis : x y z
#
# Youngs Moduli (GPa) = 61.92097 76.29516 31.40556
#
# Poissons Ratio (x) = 0.49767 0.36388
# Poissons Ratio (y) = 0.40391 -0.05901
# Poissons Ratio (z) = 0.71745 -0.14335
#
# Static dielectric constant tensor:
#      x y z
#    x 1.808410 0.000000 0.000000 
#    y 0.000000 2.045940 0.000000 
#    z 0.000000 0.000000 1.782150 
# 
# From -- ./inp_files/57614.got.cif
#   From: 2010.05.17/outbox.cif.g08.bks.cpg/sg70_29_cif.got.tgz:57614.got - 2010.06.03 15:57:51.
