data_PCOD9516721
_publ_section_title
;
Structure prediction by ZEFSAII (Michael W. Deem and Ramdas Pophale) SiO2 
 PCOD9516721
Probable space group: F D D D
;
_chemical_formula_sum "Si O2"
_cell_formula_units_Z 160
_cell_length_a 21.180809
_cell_length_b 15.457004
_cell_length_c 22.669302
_cell_angle_alpha 90.000000
_cell_angle_beta 90.000000
_cell_angle_gamma 90.000000
_cell_volume 7421.744707
_symmetry_space_group_name_H-M "F D D D"
_symmetry_group_IT_number 70
_space_group.IT_coordinate_system_code '2'
_symmetry_cell_setting 'orthorhombic'
loop_
_space_group_symop_operation_xyz
x,y,z
1/4-x,1/4-y,z
x,1/4-y,1/4-z
1/4-x,y,1/4-z
-x,-y,-z
3/4+x,3/4+y,-z
-x,3/4+y,3/4+z
3/4+x,-y,3/4+z
x,1/2+y,1/2+z
1/4-x,3/4-y,1/2+z
x,3/4-y,3/4-z
1/4-x,1/2+y,3/4-z
-x,1/2-y,1/2-z
3/4+x,1/4+y,1/2-z
-x,1/4+y,1/4+z
3/4+x,1/2-y,1/4+z
1/2+x,y,1/2+z
3/4-x,1/4-y,1/2+z
1/2+x,1/4-y,3/4-z
3/4-x,y,3/4-z
1/2-x,-y,1/2-z
1/4+x,3/4+y,1/2-z
1/2-x,3/4+y,1/4+z
1/4+x,-y,1/4+z
1/2+x,1/2+y,z
3/4-x,3/4-y,z
1/2+x,3/4-y,1/4-z
3/4-x,1/2+y,1/4-z
1/2-x,1/2-y,-z
1/4+x,1/4+y,-z
1/2-x,1/4+y,3/4+z
1/4+x,1/2-y,3/4+z
loop_
_atom_site_type_symbol
_atom_site_label
_atom_site_fract_x
_atom_site_fract_y
_atom_site_fract_z
Si Si1 0.027805 0.016187 0.406999
Si Si2 0.160520 0.756217 0.793130
Si Si3 0.284493 0.415430 0.682047
Si Si4 0.899078 0.471945 0.972615
Si Si5 0.396997 0.103791 0.441389
O O1 0.048986 0.963576 0.348961
O O2 0.959935 0.990329 0.431624
O O3 0.028690 0.114582 0.380687
O O4 0.077106 0.012728 0.460522
O O5 0.090306 0.734203 0.817554
O O6 0.191507 0.663776 0.776589
O O7 0.153202 0.817768 0.738009
O O8 0.214439 0.442083 0.699267
O O9 0.875000 0.375000 0.965591
O O10 0.847752 0.543952 0.954591
O O11 0.375000 0.090972 0.375000
#
# Coordination Sequence:
#
# PCOD9516721 Si02
#       5
#    32  32  32  32  32
#     4   9  20  44  67  92 129 176 214 267 337 399
#     4   9  20  41  68  88 128 166 217 259 326 396
#     4   9  19  42  66  90 125 169 206 273 324 389
#     4  11  23  40  66  98 135 173 219 274 335 400
#     4  12  23  40  61  96 130 168 217 271 327 387
#
# _framework density 21.558274000000001
#
# number of rings (size 3 to 8) (size 9 to 14) (size 15 to 20)
#    1.200    0.800    2.000    1.800    0.000    4.400 
#    7.200    2.000    4.400    0.000    0.000    0.000 
#    0.000    0.000    0.000    0.000    0.000    0.000 
#
# Total GULP energy -223181.899437 kJ/mol
# GULP energy per Si atom -5579.547486 kJ/mol
# Density = 2.150921 g / cm^3
# Si number density = 21.558274 Si / 1000 Ang^3
#
#
#
# Elastic Constant Matrix: (Units=GPa)
#
#
# Indices 1 2 3 4 5 6 
#
# 1 64.6989 -6.4846 21.5448 0.0000 0.0000 0.0000
# 2 -6.4846 37.7181 23.5520 0.0000 0.0000 0.0000
# 3 21.5448 23.5520 136.4902 0.0000 0.0000 0.0000
# 4 0.0000 0.0000 0.0000 23.1831 0.0000 0.0000
# 5 0.0000 0.0000 0.0000 0.0000 26.6620 0.0000
# 6 0.0000 0.0000 0.0000 0.0000 0.0000 22.1767
#
#
#
# Elastic Compliance Matrix: (Units=1/GPa)
#
#
# Indices 1 2 3 4 5 6 
#
# 1 0.017181 0.005208 -0.003611 0.000000 0.000000 0.000000
# 2 0.005208 0.031293 -0.006222 0.000000 0.000000 0.000000
# 3 -0.003611 -0.006222 0.008970 0.000000 0.000000 0.000000
# 4 0.000000 0.000000 0.000000 0.043135 0.000000 0.000000
# 5 0.000000 0.000000 0.000000 0.000000 0.037507 0.000000
# 6 0.000000 0.000000 0.000000 0.000000 0.000000 0.045092
#
#
# Mechanical properties :
#
#
# Convention : Reuss Voigt Hill
#
# Bulk Modulus (GPa) = 20.74897 35.12571 27.93734
# Shear Modulus (GPa) = 23.98188 27.75738 25.86963
#
# Velocity S-wave (km/s) = 3.33892 3.59214 3.46784
# Velocity P-wave (km/s) = 4.95075 5.79080 5.38718
#
# Compressibility (1/GPa) = 0.04819517
#
# Stress axis : x y z
#
# Youngs Moduli (GPa) = 58.20526 31.95611 111.48177
#
# Poissons Ratio (x) = -0.16644 0.40252
# Poissons Ratio (y) = -0.30315 0.69362
# Poissons Ratio (z) = 0.21016 0.19883
#
# Static dielectric constant tensor:
#      x y z
#    x 1.944580 0.000000 0.000000 
#    y 0.000000 1.814390 0.000000 
#    z 0.000000 0.000000 1.770680 
# 
# From -- ./inp_files/61055.got.cif
#   From: 2010.05.17/outbox.cif.g08.bks.cpg/sg70_31_cif.got.tgz:61055.got - 2010.06.03 15:57:51.
