data_PCOD9516700
_publ_section_title
;
Structure prediction by ZEFSAII (Michael W. Deem and Ramdas Pophale) SiO2 
 PCOD9516700
Probable space group: F D D D
;
_chemical_formula_sum "Si O2"
_cell_formula_units_Z 176
_cell_length_a 28.071741
_cell_length_b 10.423318
_cell_length_c 25.113981
_cell_angle_alpha 90.000000
_cell_angle_beta 90.000000
_cell_angle_gamma 90.000000
_cell_volume 7348.368000
_symmetry_space_group_name_H-M "F D D D"
_symmetry_group_IT_number 70
_space_group.IT_coordinate_system_code '2'
_symmetry_cell_setting 'orthorhombic'
loop_
_space_group_symop_operation_xyz
x,y,z
1/4-x,1/4-y,z
x,1/4-y,1/4-z
1/4-x,y,1/4-z
-x,-y,-z
3/4+x,3/4+y,-z
-x,3/4+y,3/4+z
3/4+x,-y,3/4+z
x,1/2+y,1/2+z
1/4-x,3/4-y,1/2+z
x,3/4-y,3/4-z
1/4-x,1/2+y,3/4-z
-x,1/2-y,1/2-z
3/4+x,1/4+y,1/2-z
-x,1/4+y,1/4+z
3/4+x,1/2-y,1/4+z
1/2+x,y,1/2+z
3/4-x,1/4-y,1/2+z
1/2+x,1/4-y,3/4-z
3/4-x,y,3/4-z
1/2-x,-y,1/2-z
1/4+x,3/4+y,1/2-z
1/2-x,3/4+y,1/4+z
1/4+x,-y,1/4+z
1/2+x,1/2+y,z
3/4-x,3/4-y,z
1/2+x,3/4-y,1/4-z
3/4-x,1/2+y,1/4-z
1/2-x,1/2-y,-z
1/4+x,1/4+y,-z
1/2-x,1/4+y,3/4+z
1/4+x,1/2-y,3/4+z
loop_
_atom_site_type_symbol
_atom_site_label
_atom_site_fract_x
_atom_site_fract_y
_atom_site_fract_z
Si Si1 0.340206 0.084764 0.918565
Si Si2 0.983850 0.875000 0.375000
Si Si3 0.187707 0.008304 0.264458
Si Si4 0.707627 0.583881 0.825072
Si Si5 0.125000 0.125000 0.741279
Si Si6 0.730886 0.662251 0.183708
Si Si7 0.125000 0.625000 0.839835
O O1 0.375000 0.145689 0.875000
O O2 0.299846 0.988431 0.896867
O O3 0.374501 0.995968 0.953296
O O4 0.317706 0.179147 0.960663
O O5 0.016528 0.803013 0.331162
O O6 0.227160 0.939533 0.300900
O O7 0.199527 0.146521 0.237581
O O8 0.141308 0.011803 0.300797
O O9 0.672151 0.612276 0.776485
O O10 0.746345 0.697612 0.823196
O O11 0.671393 0.595338 0.875261
O O12 0.711249 0.625000 0.125000
#
# Coordination Sequence:
#
# PCOD9516700 Si02
#       7
#    32  16  32  32  16  32  16
#     4  12  25  50  69 101 150 189 238 307 366 441
#     4  12  27  44  70 112 140 194 248 290 363 456
#     4  11  26  43  75 104 141 194 246 297 375 436
#     4  11  26  43  75 107 147 187 246 304 364 439
#     4  11  23  46  67 102 145 196 225 307 376 420
#     4  11  22  46  70 102 144 188 239 307 353 429
#     4  11  26  46  70 114 142 192 238 309 368 446
#
# _framework density 23.950896
#
# number of rings (size 3 to 8) (size 9 to 14) (size 15 to 20)
#    0.000    0.727    5.455    1.091    5.091    3.636 
#    0.000    0.000    0.000    0.000    0.000    0.000 
#    0.000    0.000    0.000    0.000    0.000    0.000 
#
# Total GULP energy -245892.835864 kJ/mol
# GULP energy per Si atom -5588.473542 kJ/mol
# Density = 2.389638 g / cm^3
# Si number density = 23.950896 Si / 1000 Ang^3
#
#
#
# Elastic Constant Matrix: (Units=GPa)
#
#
# Indices 1 2 3 4 5 6 
#
# 1 52.7966 25.7680 18.9428 0.0000 0.0000 0.0000
# 2 25.7680 57.4396 18.1402 0.0000 0.0000 0.0000
# 3 18.9428 18.1402 90.7716 0.0000 0.0000 0.0000
# 4 0.0000 0.0000 0.0000 67.6398 0.0000 0.0000
# 5 0.0000 0.0000 0.0000 0.0000 31.1217 0.0000
# 6 0.0000 0.0000 0.0000 0.0000 0.0000 25.9630
#
#
#
# Elastic Compliance Matrix: (Units=1/GPa)
#
#
# Indices 1 2 3 4 5 6 
#
# 1 0.025085 -0.010247 -0.003187 0.000000 0.000000 0.000000
# 2 -0.010247 0.022768 -0.002412 0.000000 0.000000 0.000000
# 3 -0.003187 -0.002412 0.012164 0.000000 0.000000 0.000000
# 4 0.000000 0.000000 0.000000 0.014784 0.000000 0.000000
# 5 0.000000 0.000000 0.000000 0.000000 0.032132 0.000000
# 6 0.000000 0.000000 0.000000 0.000000 0.000000 0.038516
#
#
# Mechanical properties :
#
#
# Convention : Reuss Voigt Hill
#
# Bulk Modulus (GPa) = 35.30384 36.30109 35.80246
# Shear Modulus (GPa) = 26.79769 34.15534 30.47651
#
# Velocity S-wave (km/s) = 3.34856 3.78041 3.57102
# Velocity P-wave (km/s) = 5.45184 5.85190 5.65541
#
# Compressibility (1/GPa) = 0.02832553
#
# Stress axis : x y z
#
# Youngs Moduli (GPa) = 39.86397 43.92099 82.21153
#
# Poissons Ratio (x) = 0.45006 0.26202
# Poissons Ratio (y) = 0.40849 0.19827
# Poissons Ratio (z) = 0.12705 0.10592
#
# Static dielectric constant tensor:
#      x y z
#    x 1.821580 0.000000 0.000000 
#    y 0.000000 1.790000 0.000000 
#    z 0.000000 0.000000 1.942450 
# 
# From -- ./inp_files/61691.got.cif
#   From: 2010.05.17/outbox.cif.g08.bks.cpg/sg70_31_cif.got.tgz:61691.got - 2010.06.03 15:57:51.
