data_PCOD9516104
_publ_section_title
;
Structure prediction by ZEFSAII (Michael W. Deem and Ramdas Pophale) SiO2 
 PCOD9516104
Probable space group: F D D D
;
_chemical_formula_sum "Si O2"
_cell_formula_units_Z 136
_cell_length_a 24.463598
_cell_length_b 17.625885
_cell_length_c 14.754817
_cell_angle_alpha 90.000000
_cell_angle_beta 90.000000
_cell_angle_gamma 90.000000
_cell_volume 6362.167389
_symmetry_space_group_name_H-M "F D D D"
_symmetry_group_IT_number 70
_space_group.IT_coordinate_system_code '2'
_symmetry_cell_setting 'orthorhombic'
loop_
_space_group_symop_operation_xyz
x,y,z
1/4-x,1/4-y,z
x,1/4-y,1/4-z
1/4-x,y,1/4-z
-x,-y,-z
3/4+x,3/4+y,-z
-x,3/4+y,3/4+z
3/4+x,-y,3/4+z
x,1/2+y,1/2+z
1/4-x,3/4-y,1/2+z
x,3/4-y,3/4-z
1/4-x,1/2+y,3/4-z
-x,1/2-y,1/2-z
3/4+x,1/4+y,1/2-z
-x,1/4+y,1/4+z
3/4+x,1/2-y,1/4+z
1/2+x,y,1/2+z
3/4-x,1/4-y,1/2+z
1/2+x,1/4-y,3/4-z
3/4-x,y,3/4-z
1/2-x,-y,1/2-z
1/4+x,3/4+y,1/2-z
1/2-x,3/4+y,1/4+z
1/4+x,-y,1/4+z
1/2+x,1/2+y,z
3/4-x,3/4-y,z
1/2+x,3/4-y,1/4-z
3/4-x,1/2+y,1/4-z
1/2-x,1/2-y,-z
1/4+x,1/4+y,-z
1/2-x,1/4+y,3/4+z
1/4+x,1/2-y,3/4+z
loop_
_atom_site_type_symbol
_atom_site_label
_atom_site_fract_x
_atom_site_fract_y
_atom_site_fract_z
Si Si1 0.060660 0.530106 0.478298
Si Si2 0.766132 0.906526 0.136073
Si Si3 0.817276 0.561920 0.701451
Si Si4 0.318082 0.634537 0.726345
Si Si5 0.625000 0.125000 0.625000
O O1 0.092897 0.450627 0.485267
O O2 0.086174 0.579102 0.557607
O O3 0.000000 0.500000 0.500000
O O4 0.053295 0.582303 0.388155
O O5 0.723179 0.909024 0.219153
O O6 0.801166 0.981146 0.158049
O O7 0.728037 0.909506 0.046375
O O8 0.813371 0.625000 0.625000
O O9 0.880137 0.560579 0.733258
O O10 0.294650 0.625000 0.625000
#
# Coordination Sequence:
#
# PCOD9516104 Si02
#       5
#    32  32  32  32   8
#     4  10  26  41  69  99 141 177 228 290 351 421
#     4  10  23  42  66  98 131 177 228 279 336 409
#     4  10  23  41  68  93 133 180 224 278 332 409
#     4  10  23  41  68  98 134 180 219 284 350 401
#     4  12  28  44  72 108 134 188 234 300 360 410
#
# _framework density 21.376363999999999
#
# number of rings (size 3 to 8) (size 9 to 14) (size 15 to 20)
#    0.000    1.882    0.000    0.706   23.059    0.000 
#    0.000    0.000    0.000    1.412    0.000    0.000 
#    0.000    0.000    0.000    0.000    0.000    0.000 
#
# Total GULP energy -189492.150007 kJ/mol
# GULP energy per Si atom -5573.298530 kJ/mol
# Density = 2.132771 g / cm^3
# Si number density = 21.376364 Si / 1000 Ang^3
#
#
#
# Elastic Constant Matrix: (Units=GPa)
#
#
# Indices 1 2 3 4 5 6 
#
# 1 107.5294 52.4897 35.8327 0.0000 0.0000 0.0000
# 2 52.4897 105.7582 45.4185 0.0000 0.0000 0.0000
# 3 35.8327 45.4185 85.8290 0.0000 0.0000 0.0000
# 4 0.0000 0.0000 0.0000 -2.0730 0.0000 0.0000
# 5 0.0000 0.0000 0.0000 0.0000 30.6780 0.0000
# 6 0.0000 0.0000 0.0000 0.0000 0.0000 35.5078
#
#
#
# Elastic Compliance Matrix: (Units=1/GPa)
#
#
# Indices 1 2 3 4 5 6 
#
# 1 0.012688 -0.005205 -0.002543 0.000000 0.000000 0.000000
# 2 -0.005205 0.014372 -0.005432 0.000000 0.000000 0.000000
# 3 -0.002543 -0.005432 0.015587 0.000000 0.000000 0.000000
# 4 0.000000 0.000000 0.000000 -0.482392 0.000000 0.000000
# 5 0.000000 0.000000 0.000000 0.000000 0.032597 0.000000
# 6 0.000000 0.000000 0.000000 0.000000 0.000000 0.028163
#
#
# Mechanical properties :
#
#
# Convention : Reuss Voigt Hill
#
# Bulk Modulus (GPa) = 61.39864 62.95538 62.17701
# Shear Modulus (GPa) = -14.40108 23.84760 4.72326
#
# Velocity S-wave (km/s) = -2.59837 3.34369 1.48808
# Velocity P-wave (km/s) = 4.44781 6.66498 5.66590
#
# Compressibility (1/GPa) = 0.01628700
#
# Stress axis : x y z
#
# Youngs Moduli (GPa) = 78.81446 69.58027 64.15573
#
# Poissons Ratio (x) = 0.36219 0.16312
# Poissons Ratio (y) = 0.41026 0.34850
# Poissons Ratio (z) = 0.20039 0.37796
#
# Static dielectric constant tensor:
#      x y z
#    x 1.861670 0.000000 0.000000 
#    y 0.000000 1.952710 0.000000 
#    z 0.000000 0.000000 1.848220 
# 
# From -- ./inp_files/29671.got.cif
#   From: 2010.05.17/outbox.cif.g08.bks.cpg/sg70_15_cif.got.tgz:29671.got - 2010.06.03 15:57:51.
