data_PCOD9516220
_publ_section_title
;
Structure prediction by ZEFSAII (Michael W. Deem and Ramdas Pophale) SiO2 
 PCOD9516220
Probable space group: F D D D
;
_chemical_formula_sum "Si O2"
_cell_formula_units_Z 104
_cell_length_a 26.423337
_cell_length_b 15.936028
_cell_length_c 9.217756
_cell_angle_alpha 90.000000
_cell_angle_beta 90.000000
_cell_angle_gamma 90.000000
_cell_volume 3881.440703
_symmetry_space_group_name_H-M "F D D D"
_symmetry_group_IT_number 70
_space_group.IT_coordinate_system_code '2'
_symmetry_cell_setting 'orthorhombic'
loop_
_space_group_symop_operation_xyz
x,y,z
1/4-x,1/4-y,z
x,1/4-y,1/4-z
1/4-x,y,1/4-z
-x,-y,-z
3/4+x,3/4+y,-z
-x,3/4+y,3/4+z
3/4+x,-y,3/4+z
x,1/2+y,1/2+z
1/4-x,3/4-y,1/2+z
x,3/4-y,3/4-z
1/4-x,1/2+y,3/4-z
-x,1/2-y,1/2-z
3/4+x,1/4+y,1/2-z
-x,1/4+y,1/4+z
3/4+x,1/2-y,1/4+z
1/2+x,y,1/2+z
3/4-x,1/4-y,1/2+z
1/2+x,1/4-y,3/4-z
3/4-x,y,3/4-z
1/2-x,-y,1/2-z
1/4+x,3/4+y,1/2-z
1/2-x,3/4+y,1/4+z
1/4+x,-y,1/4+z
1/2+x,1/2+y,z
3/4-x,3/4-y,z
1/2+x,3/4-y,1/4-z
3/4-x,1/2+y,1/4-z
1/2-x,1/2-y,-z
1/4+x,1/4+y,-z
1/2-x,1/4+y,3/4+z
1/4+x,1/2-y,3/4+z
loop_
_atom_site_type_symbol
_atom_site_label
_atom_site_fract_x
_atom_site_fract_y
_atom_site_fract_z
Si Si1 0.919098 0.037675 0.981868
Si Si2 0.427379 0.271696 0.458905
Si Si3 0.625000 0.125000 0.625000
Si Si4 0.011060 0.862221 0.213040
O O1 0.918196 0.040965 0.155214
O O2 0.875000 0.074912 0.875000
O O3 0.968644 0.068931 0.901121
O O4 0.910122 0.938394 0.960597
O O5 0.375000 0.280487 0.375000
O O6 0.453000 0.358277 0.514829
O O7 0.469300 0.223871 0.359247
O O8 0.034439 0.875000 0.375000
#
# Coordination Sequence:
#
# PCOD9516220 Si02
#       4
#    32  32   8  32
#     4  10  23  46  78 112 161 210 273 319 410 483
#     4  12  28  49  79 120 164 214 276 341 405 494
#     4   8  24  40  78 112 164 212 272 312 420 472
#     4  12  27  48  77 114 160 211 272 337 412 485
#
# _framework density 26.794173000000001
#
# number of rings (size 3 to 8) (size 9 to 14) (size 15 to 20)
#    0.923    0.000    0.000    5.538    4.308    3.077 
#    0.000    0.000    0.000    0.000    0.000    0.000 
#    0.000    0.000    0.000    0.000    0.000    0.000 
#
# Total GULP energy -145267.554237 kJ/mol
# GULP energy per Si atom -5587.213624 kJ/mol
# Density = 2.673319 g / cm^3
# Si number density = 26.794173 Si / 1000 Ang^3
#
#
#
# Elastic Constant Matrix: (Units=GPa)
#
#
# Indices 1 2 3 4 5 6 
#
# 1 170.1653 49.4578 82.9312 0.0000 0.0000 0.0000
# 2 49.4578 143.8667 20.8152 0.0000 0.0000 0.0000
# 3 82.9312 20.8152 225.3210 0.0000 0.0000 0.0000
# 4 0.0000 0.0000 0.0000 26.7207 0.0000 0.0000
# 5 0.0000 0.0000 0.0000 0.0000 151.7760 0.0000
# 6 0.0000 0.0000 0.0000 0.0000 0.0000 43.8754
#
#
#
# Elastic Compliance Matrix: (Units=1/GPa)
#
#
# Indices 1 2 3 4 5 6 
#
# 1 0.007853 -0.002312 -0.002677 0.000000 0.000000 0.000000
# 2 -0.002312 0.007726 0.000137 0.000000 0.000000 0.000000
# 3 -0.002677 0.000137 0.005411 0.000000 0.000000 0.000000
# 4 0.000000 0.000000 0.000000 0.037424 0.000000 0.000000
# 5 0.000000 0.000000 0.000000 0.000000 0.006589 0.000000
# 6 0.000000 0.000000 0.000000 0.000000 0.000000 0.022792
#
#
# Mechanical properties :
#
#
# Convention : Reuss Voigt Hill
#
# Bulk Modulus (GPa) = 88.60464 93.97349 91.28907
# Shear Modulus (GPa) = 49.37759 70.21768 59.79764
#
# Velocity S-wave (km/s) = 4.29750 5.12476 4.72925
# Velocity P-wave (km/s) = 7.60033 8.37652 7.99785
#
# Compressibility (1/GPa) = 0.01128609
#
# Stress axis : x y z
#
# Youngs Moduli (GPa) = 127.33443 129.43358 184.82041
#
# Poissons Ratio (x) = 0.29931 0.49474
# Poissons Ratio (y) = 0.29446 -0.02539
# Poissons Ratio (z) = 0.34086 -0.01778
#
# Static dielectric constant tensor:
#      x y z
#    x 2.090050 0.000000 0.000000 
#    y 0.000000 2.204190 0.000000 
#    z 0.000000 0.000000 2.268680 
# 
# From -- ./inp_files/11708.got.cif
#   From: 2010.05.17/outbox.cif.g08.bks.cpg/sg70_6_cif.got.tgz:11708.got - 2010.06.03 15:57:51.
