data_PCOD9516156
_publ_section_title
;
Structure prediction by ZEFSAII (Michael W. Deem and Ramdas Pophale) SiO2 
 PCOD9516156
Probable space group: F D D D
;
_chemical_formula_sum "Si O2"
_cell_formula_units_Z 160
_cell_length_a 30.331905
_cell_length_b 10.134099
_cell_length_c 22.482404
_cell_angle_alpha 90.000000
_cell_angle_beta 90.000000
_cell_angle_gamma 90.000000
_cell_volume 6910.788110
_symmetry_space_group_name_H-M "F D D D"
_symmetry_group_IT_number 70
_space_group.IT_coordinate_system_code '2'
_symmetry_cell_setting 'orthorhombic'
loop_
_space_group_symop_operation_xyz
x,y,z
1/4-x,1/4-y,z
x,1/4-y,1/4-z
1/4-x,y,1/4-z
-x,-y,-z
3/4+x,3/4+y,-z
-x,3/4+y,3/4+z
3/4+x,-y,3/4+z
x,1/2+y,1/2+z
1/4-x,3/4-y,1/2+z
x,3/4-y,3/4-z
1/4-x,1/2+y,3/4-z
-x,1/2-y,1/2-z
3/4+x,1/4+y,1/2-z
-x,1/4+y,1/4+z
3/4+x,1/2-y,1/4+z
1/2+x,y,1/2+z
3/4-x,1/4-y,1/2+z
1/2+x,1/4-y,3/4-z
3/4-x,y,3/4-z
1/2-x,-y,1/2-z
1/4+x,3/4+y,1/2-z
1/2-x,3/4+y,1/4+z
1/4+x,-y,1/4+z
1/2+x,1/2+y,z
3/4-x,3/4-y,z
1/2+x,3/4-y,1/4-z
3/4-x,1/2+y,1/4-z
1/2-x,1/2-y,-z
1/4+x,1/4+y,-z
1/2-x,1/4+y,3/4+z
1/4+x,1/2-y,3/4+z
loop_
_atom_site_type_symbol
_atom_site_label
_atom_site_fract_x
_atom_site_fract_y
_atom_site_fract_z
Si Si1 0.445484 0.126088 0.750270
Si Si2 0.460449 0.376027 0.182508
Si Si3 0.426677 0.893369 0.199592
Si Si4 0.091988 0.912306 0.501404
Si Si5 0.051101 0.778946 0.133555
O O1 0.547793 0.221207 0.765709
O O2 0.393509 0.096502 0.736570
O O3 0.453216 0.095276 0.819285
O O4 0.469975 0.020509 0.708648
O O5 0.435481 0.379560 0.119651
O O6 0.429973 0.296512 0.228422
O O7 0.505237 0.298228 0.168628
O O8 0.375000 0.875000 0.212391
O O9 0.434499 0.042971 0.219921
O O10 0.086595 0.906751 0.572359
O O11 0.060984 0.625000 0.125000
#
# Coordination Sequence:
#
# PCOD9516156 Si02
#       5
#    32  32  32  32  32
#     4  11  25  44  68  98 133 174 225 272 333 401
#     4  12  24  41  69  98 132 173 221 273 333 396
#     4  10  23  43  67  98 133 170 220 276 331 394
#     4  11  23  44  72  95 128 179 226 271 330 402
#     4  12  26  42  67  97 137 172 224 281 336 389
#
# _framework density 23.152206
#
# number of rings (size 3 to 8) (size 9 to 14) (size 15 to 20)
#    0.000    0.800    2.000    5.400    2.800    5.600 
#    3.600    3.000    0.000    0.000    0.000    0.000 
#    0.000    0.000    0.000    0.000    0.000    0.000 
#
# Total GULP energy -224065.661121 kJ/mol
# GULP energy per Si atom -5601.641528 kJ/mol
# Density = 2.309951 g / cm^3
# Si number density = 23.152206 Si / 1000 Ang^3
#
#
#
# Elastic Constant Matrix: (Units=GPa)
#
#
# Indices 1 2 3 4 5 6 
#
# 1 46.7410 -7.1341 -17.0959 0.0000 0.0000 0.0000
# 2 -7.1341 100.0703 33.2569 0.0000 0.0000 0.0000
# 3 -17.0959 33.2569 130.2537 0.0000 0.0000 0.0000
# 4 0.0000 0.0000 0.0000 28.7524 0.0000 0.0000
# 5 0.0000 0.0000 0.0000 0.0000 39.2951 0.0000
# 6 0.0000 0.0000 0.0000 0.0000 0.0000 13.3874
#
#
#
# Elastic Compliance Matrix: (Units=1/GPa)
#
#
# Indices 1 2 3 4 5 6 
#
# 1 0.022516 0.000681 0.002781 0.000000 0.000000 0.000000
# 2 0.000681 0.010940 -0.002704 0.000000 0.000000 0.000000
# 3 0.002781 -0.002704 0.008733 0.000000 0.000000 0.000000
# 4 0.000000 0.000000 0.000000 0.034780 0.000000 0.000000
# 5 0.000000 0.000000 0.000000 0.000000 0.025448 0.000000
# 6 0.000000 0.000000 0.000000 0.000000 0.000000 0.074697
#
#
# Mechanical properties :
#
#
# Convention : Reuss Voigt Hill
#
# Bulk Modulus (GPa) = 22.88060 32.79100 27.83580
# Shear Modulus (GPa) = 26.29288 34.15619 30.22454
#
# Velocity S-wave (km/s) = 3.37360 3.84512 3.61705
# Velocity P-wave (km/s) = 5.00790 5.82299 5.43076
#
# Compressibility (1/GPa) = 0.04370514
#
# Stress axis : x y z
#
# Youngs Moduli (GPa) = 44.41338 91.40669 114.51139
#
# Poissons Ratio (x) = -0.06223 -0.31850
# Poissons Ratio (y) = -0.03024 0.30963
# Poissons Ratio (z) = -0.12353 0.24716
#
# Static dielectric constant tensor:
#      x y z
#    x 1.337340 0.000000 0.000000 
#    y 0.000000 1.837280 0.000000 
#    z 0.000000 0.000000 1.862780 
# 
# From -- ./inp_files/54884.got.cif
#   From: 2010.05.17/outbox.cif.g08.bks.cpg/sg70_28_cif.got.tgz:54884.got - 2010.06.03 15:57:51.
