data_PCOD9516460
_publ_section_title
;
Structure prediction by ZEFSAII (Michael W. Deem and Ramdas Pophale) SiO2 
 PCOD9516460
Probable space group: F D D D
;
_chemical_formula_sum "Si O2"
_cell_formula_units_Z 176
_cell_length_a 27.969766
_cell_length_b 13.483578
_cell_length_c 22.991524
_cell_angle_alpha 90.000000
_cell_angle_beta 90.000000
_cell_angle_gamma 90.000000
_cell_volume 8670.851419
_symmetry_space_group_name_H-M "F D D D"
_symmetry_group_IT_number 70
_space_group.IT_coordinate_system_code '2'
_symmetry_cell_setting 'orthorhombic'
loop_
_space_group_symop_operation_xyz
x,y,z
1/4-x,1/4-y,z
x,1/4-y,1/4-z
1/4-x,y,1/4-z
-x,-y,-z
3/4+x,3/4+y,-z
-x,3/4+y,3/4+z
3/4+x,-y,3/4+z
x,1/2+y,1/2+z
1/4-x,3/4-y,1/2+z
x,3/4-y,3/4-z
1/4-x,1/2+y,3/4-z
-x,1/2-y,1/2-z
3/4+x,1/4+y,1/2-z
-x,1/4+y,1/4+z
3/4+x,1/2-y,1/4+z
1/2+x,y,1/2+z
3/4-x,1/4-y,1/2+z
1/2+x,1/4-y,3/4-z
3/4-x,y,3/4-z
1/2-x,-y,1/2-z
1/4+x,3/4+y,1/2-z
1/2-x,3/4+y,1/4+z
1/4+x,-y,1/4+z
1/2+x,1/2+y,z
3/4-x,3/4-y,z
1/2+x,3/4-y,1/4-z
3/4-x,1/2+y,1/4-z
1/2-x,1/2-y,-z
1/4+x,1/4+y,-z
1/2-x,1/4+y,3/4+z
1/4+x,1/2-y,3/4+z
loop_
_atom_site_type_symbol
_atom_site_label
_atom_site_fract_x
_atom_site_fract_y
_atom_site_fract_z
Si Si1 0.625000 0.625000 0.928930
Si Si2 0.880584 0.528971 0.977311
Si Si3 0.330946 0.747276 0.273530
Si Si4 0.775514 0.475351 0.990132
Si Si5 0.810824 0.434500 0.671298
Si Si6 0.754199 0.625000 0.625000
Si Si7 0.625000 0.125000 0.625000
Si Si8 0.875000 0.875000 0.375000
O O1 0.580656 0.627217 0.884827
O O2 0.633418 0.533773 0.972330
O O3 0.908857 0.631113 0.969219
O O4 0.823300 0.541660 0.986022
O O5 0.892209 0.456926 0.923322
O O6 0.898190 0.475648 0.036010
O O7 0.276886 0.769747 0.252399
O O8 0.343695 0.806256 0.332122
O O9 0.774572 0.421469 0.927898
O O10 0.781341 0.391480 0.039488
O O11 0.784203 0.533423 0.650411
#
# Coordination Sequence:
#
# PCOD9516460 Si02
#       8
#    16  32  32  32  32  16   8   8
#     4  11  21  49  68  91 135 185 224 280 328 401
#     4  12  24  43  65 104 137 179 215 281 347 402
#     4  11  26  47  72  94 134 187 226 278 343 398
#     4  12  24  40  68 104 134 174 229 276 339 409
#     4  12  22  43  64  97 142 170 223 277 336 403
#     4  12  25  40  68  98 130 184 219 273 340 409
#     4  10  26  56  64  94 138 174 232 286 332 400
#     4  12  22  40  66  98 144 172 218 282 348 408
#
# _framework density 20.297891
#
# number of rings (size 3 to 8) (size 9 to 14) (size 15 to 20)
#    0.000    0.364    7.273    1.636    0.000    1.455 
#    3.273    1.818    0.000    0.000    0.000    0.000 
#    0.000    0.000    0.000    0.000    0.000    0.000 
#
# Total GULP energy -245521.305482 kJ/mol
# GULP energy per Si atom -5580.029670 kJ/mol
# Density = 2.025169 g / cm^3
# Si number density = 20.297891 Si / 1000 Ang^3
#
#
#
# Elastic Constant Matrix: (Units=GPa)
#
#
# Indices 1 2 3 4 5 6 
#
# 1 99.9490 13.3071 24.2285 0.0000 0.0000 0.0000
# 2 13.3071 53.6424 28.8719 0.0000 0.0000 0.0000
# 3 24.2285 28.8719 143.8745 0.0000 0.0000 0.0000
# 4 0.0000 0.0000 0.0000 20.3400 0.0000 0.0000
# 5 0.0000 0.0000 0.0000 0.0000 24.9120 0.0000
# 6 0.0000 0.0000 0.0000 0.0000 0.0000 5.3216
#
#
#
# Elastic Compliance Matrix: (Units=1/GPa)
#
#
# Indices 1 2 3 4 5 6 
#
# 1 0.010596 -0.001870 -0.001409 0.000000 0.000000 0.000000
# 2 -0.001870 0.021229 -0.003945 0.000000 0.000000 0.000000
# 3 -0.001409 -0.003945 0.007979 0.000000 0.000000 0.000000
# 4 0.000000 0.000000 0.000000 0.049164 0.000000 0.000000
# 5 0.000000 0.000000 0.000000 0.000000 0.040141 0.000000
# 6 0.000000 0.000000 0.000000 0.000000 0.000000 0.187914
#
#
# Mechanical properties :
#
#
# Convention : Reuss Voigt Hill
#
# Bulk Modulus (GPa) = 39.43881 47.80900 43.62390
# Shear Modulus (GPa) = 14.70913 25.51862 20.11388
#
# Velocity S-wave (km/s) = 2.69488 3.54956 3.15133
# Velocity P-wave (km/s) = 5.39957 6.35641 5.89743
#
# Compressibility (1/GPa) = 0.02535574
#
# Stress axis : x y z
#
# Youngs Moduli (GPa) = 94.37840 47.10458 125.32121
#
# Poissons Ratio (x) = 0.08809 0.17658
# Poissons Ratio (y) = 0.17650 0.49443
# Poissons Ratio (z) = 0.13298 0.18584
#
# Static dielectric constant tensor:
#      x y z
#    x 1.857100 0.000000 0.000000 
#    y 0.000000 1.724040 0.000000 
#    z 0.000000 0.000000 1.701530 
# 
# From -- ./inp_files/43031.got.cif
#   From: 2010.05.17/outbox.cif.g08.bks.cpg/sg70_22_cif.got.tgz:43031.got - 2010.06.03 15:57:51.
