data_PCOD9516319
_publ_section_title
;
Structure prediction by ZEFSAII (Michael W. Deem and Ramdas Pophale) SiO2 
 PCOD9516319
Probable space group: F D D D
;
_chemical_formula_sum "Si O2"
_cell_formula_units_Z 48
_cell_length_a 4.835134
_cell_length_b 12.590666
_cell_length_c 26.902044
_cell_angle_alpha 90.000000
_cell_angle_beta 90.000000
_cell_angle_gamma 90.000000
_cell_volume 1637.730724
_symmetry_space_group_name_H-M "F D D D"
_symmetry_group_IT_number 70
_space_group.IT_coordinate_system_code '2'
_symmetry_cell_setting 'orthorhombic'
loop_
_space_group_symop_operation_xyz
x,y,z
1/4-x,1/4-y,z
x,1/4-y,1/4-z
1/4-x,y,1/4-z
-x,-y,-z
3/4+x,3/4+y,-z
-x,3/4+y,3/4+z
3/4+x,-y,3/4+z
x,1/2+y,1/2+z
1/4-x,3/4-y,1/2+z
x,3/4-y,3/4-z
1/4-x,1/2+y,3/4-z
-x,1/2-y,1/2-z
3/4+x,1/4+y,1/2-z
-x,1/4+y,1/4+z
3/4+x,1/2-y,1/4+z
1/2+x,y,1/2+z
3/4-x,1/4-y,1/2+z
1/2+x,1/4-y,3/4-z
3/4-x,y,3/4-z
1/2-x,-y,1/2-z
1/4+x,3/4+y,1/2-z
1/2-x,3/4+y,1/4+z
1/4+x,-y,1/4+z
1/2+x,1/2+y,z
3/4-x,3/4-y,z
1/2+x,3/4-y,1/4-z
3/4-x,1/2+y,1/4-z
1/2-x,1/2-y,-z
1/4+x,1/4+y,-z
1/2-x,1/4+y,3/4+z
1/4+x,1/2-y,3/4+z
loop_
_atom_site_type_symbol
_atom_site_label
_atom_site_fract_x
_atom_site_fract_y
_atom_site_fract_z
Si Si1 0.875000 0.875000 0.762888
Si Si2 0.448995 0.233947 0.317627
O O1 0.808699 0.783345 0.719752
O O2 0.640647 0.830147 0.800472
O O3 0.625000 0.125000 0.311087
O O4 0.375000 0.241253 0.375000
#
# Coordination Sequence:
#
# PCOD9516319 Si02
#       2
#    16  32
#     4  10  24  44  81 124 164 224 283 352 422 510
#     4  11  22  45  83 119 169 219 284 349 427 508
#
# _framework density 29.308848000000001
#
# number of rings (size 3 to 8) (size 9 to 14) (size 15 to 20)
#    0.000    1.333    3.333    2.000    0.000    0.000 
#    0.000    1.667   44.000    4.000    0.000    0.000 
#    0.000    0.000    0.000    0.000    0.000    0.000 
#
# Total GULP energy -67171.392609 kJ/mol
# GULP energy per Si atom -5597.616051 kJ/mol
# Density = 2.924214 g / cm^3
# Si number density = 29.308848 Si / 1000 Ang^3
#
#
#
# Elastic Constant Matrix: (Units=GPa)
#
#
# Indices 1 2 3 4 5 6 
#
# 1 269.2808 117.5666 154.7701 0.0000 0.0000 0.0000
# 2 117.5666 284.6998 86.8244 0.0000 0.0000 0.0000
# 3 154.7701 86.8244 356.5015 0.0000 0.0000 0.0000
# 4 0.0000 0.0000 0.0000 73.8139 0.0000 0.0000
# 5 0.0000 0.0000 0.0000 0.0000 61.8161 0.0000
# 6 0.0000 0.0000 0.0000 0.0000 0.0000 85.6115
#
#
#
# Elastic Compliance Matrix: (Units=1/GPa)
#
#
# Indices 1 2 3 4 5 6 
#
# 1 0.005622 -0.001704 -0.002026 0.000000 0.000000 0.000000
# 2 -0.001704 0.004311 -0.000310 0.000000 0.000000 0.000000
# 3 -0.002026 -0.000310 0.003760 0.000000 0.000000 0.000000
# 4 0.000000 0.000000 0.000000 0.013548 0.000000 0.000000
# 5 0.000000 0.000000 0.000000 0.000000 0.016177 0.000000
# 6 0.000000 0.000000 0.000000 0.000000 0.000000 0.011681
#
#
# Mechanical properties :
#
#
# Convention : Reuss Voigt Hill
#
# Bulk Modulus (GPa) = 178.15166 180.97826 179.56496
# Shear Modulus (GPa) = 76.86670 81.00304 78.93487
#
# Velocity S-wave (km/s) = 5.12673 5.26286 5.19524
# Velocity P-wave (km/s) = 9.79595 9.94048 9.86848
#
# Compressibility (1/GPa) = 0.00561319
#
# Stress axis : x y z
#
# Youngs Moduli (GPa) = 177.88314 231.98542 265.95855
#
# Poissons Ratio (x) = 0.39524 0.53874
# Poissons Ratio (y) = 0.30306 0.08250
# Poissons Ratio (z) = 0.36033 0.07196
#
# Static dielectric constant tensor:
#      x y z
#    x 1.837870 0.000000 0.000000 
#    y 0.000000 -1.110560 0.000000 
#    z 0.000000 0.000000 2.027850 
# 
# From -- ./inp_files/482.got.cif
#   From: 2010.05.17/outbox.cif.g08.bks.cpg/sg70_1_cif.got.tgz:482.got - 2010.06.03 15:57:51.
