data_PCOD9516540
_publ_section_title
;
Structure prediction by ZEFSAII (Michael W. Deem and Ramdas Pophale) SiO2 
 PCOD9516540
Probable space group: F D D D
;
_chemical_formula_sum "Si O2"
_cell_formula_units_Z 160
_cell_length_a 12.920012
_cell_length_b 27.439767
_cell_length_c 22.172391
_cell_angle_alpha 90.000000
_cell_angle_beta 90.000000
_cell_angle_gamma 90.000000
_cell_volume 7860.603039
_symmetry_space_group_name_H-M "F D D D"
_symmetry_group_IT_number 70
_space_group.IT_coordinate_system_code '2'
_symmetry_cell_setting 'orthorhombic'
loop_
_space_group_symop_operation_xyz
x,y,z
1/4-x,1/4-y,z
x,1/4-y,1/4-z
1/4-x,y,1/4-z
-x,-y,-z
3/4+x,3/4+y,-z
-x,3/4+y,3/4+z
3/4+x,-y,3/4+z
x,1/2+y,1/2+z
1/4-x,3/4-y,1/2+z
x,3/4-y,3/4-z
1/4-x,1/2+y,3/4-z
-x,1/2-y,1/2-z
3/4+x,1/4+y,1/2-z
-x,1/4+y,1/4+z
3/4+x,1/2-y,1/4+z
1/2+x,y,1/2+z
3/4-x,1/4-y,1/2+z
1/2+x,1/4-y,3/4-z
3/4-x,y,3/4-z
1/2-x,-y,1/2-z
1/4+x,3/4+y,1/2-z
1/2-x,3/4+y,1/4+z
1/4+x,-y,1/4+z
1/2+x,1/2+y,z
3/4-x,3/4-y,z
1/2+x,3/4-y,1/4-z
3/4-x,1/2+y,1/4-z
1/2-x,1/2-y,-z
1/4+x,1/4+y,-z
1/2-x,1/4+y,3/4+z
1/4+x,1/2-y,3/4+z
loop_
_atom_site_type_symbol
_atom_site_label
_atom_site_fract_x
_atom_site_fract_y
_atom_site_fract_z
Si Si1 0.134939 0.788666 0.238196
Si Si2 0.946150 0.438667 0.625243
Si Si3 0.125000 0.014550 0.125000
Si Si4 0.159024 0.069168 0.747038
Si Si5 0.875000 0.641636 0.375000
Si Si6 0.608771 0.682079 0.007792
O O1 0.146029 0.730845 0.224318
O O2 0.128051 0.822642 0.180518
O O3 0.239105 0.806019 0.269015
O O4 0.027211 0.804628 0.269730
O O5 0.866246 0.433910 0.680737
O O6 0.895206 0.447621 0.559572
O O7 0.027923 0.480539 0.641005
O O8 0.022263 0.391802 0.622425
O O9 0.088548 0.043847 0.065905
O O10 0.125000 0.125000 0.729391
O O11 0.625000 0.625000 0.009298
#
# Coordination Sequence:
#
# PCOD9516540 Si02
#       6
#    32  32  16  32  16  32
#     4  11  23  38  68  97 131 169 219 278 333 379
#     4  11  22  40  70  96 126 175 228 273 327 395
#     4  11  25  42  61  98 143 170 217 277 338 394
#     4  11  22  42  65  96 133 171 219 277 327 396
#     4  11  20  40  68  98 122 168 232 277 320 406
#     4  12  23  42  66  99 133 177 219 274 338 398
#
# _framework density 20.354672999999998
#
# number of rings (size 3 to 8) (size 9 to 14) (size 15 to 20)
#    0.000    0.800    6.000    2.700    0.000    0.000 
#    3.600    0.500    0.000    0.000    0.000    0.000 
#    0.000    0.000    0.000    0.000    0.000    0.000 
#
# Total GULP energy -222775.574587 kJ/mol
# GULP energy per Si atom -5569.389365 kJ/mol
# Density = 2.030834 g / cm^3
# Si number density = 20.354673 Si / 1000 Ang^3
#
#
#
# Elastic Constant Matrix: (Units=GPa)
#
#
# Indices 1 2 3 4 5 6 
#
# 1 89.5586 36.0554 3.8034 0.0000 0.0000 0.0000
# 2 36.0554 129.8384 19.7812 0.0000 0.0000 0.0000
# 3 3.8034 19.7812 57.7354 0.0000 0.0000 0.0000
# 4 0.0000 0.0000 0.0000 39.9092 0.0000 0.0000
# 5 0.0000 0.0000 0.0000 0.0000 16.0043 0.0000
# 6 0.0000 0.0000 0.0000 0.0000 0.0000 9.8243
#
#
#
# Elastic Compliance Matrix: (Units=1/GPa)
#
#
# Indices 1 2 3 4 5 6 
#
# 1 0.012580 -0.003552 0.000388 0.000000 0.000000 0.000000
# 2 -0.003552 0.009129 -0.002894 0.000000 0.000000 0.000000
# 3 0.000388 -0.002894 0.018286 0.000000 0.000000 0.000000
# 4 0.000000 0.000000 0.000000 0.025057 0.000000 0.000000
# 5 0.000000 0.000000 0.000000 0.000000 0.062483 0.000000
# 6 0.000000 0.000000 0.000000 0.000000 0.000000 0.101789
#
#
# Mechanical properties :
#
#
# Convention : Reuss Voigt Hill
#
# Bulk Modulus (GPa) = 35.86876 44.04584 39.95730
# Shear Modulus (GPa) = 19.94154 27.64704 23.79429
#
# Velocity S-wave (km/s) = 3.13342 3.68946 3.42275
# Velocity P-wave (km/s) = 5.54538 6.31155 5.94083
#
# Compressibility (1/GPa) = 0.02787941
#
# Stress axis : x y z
#
# Youngs Moduli (GPa) = 79.49399 109.53793 54.68578
#
# Poissons Ratio (x) = 0.38913 -0.02124
# Poissons Ratio (y) = 0.28240 0.15825
# Poissons Ratio (z) = -0.03088 0.31698
#
# Static dielectric constant tensor:
#      x y z
#    x 1.876850 0.000000 0.000000 
#    y 0.000000 1.742030 0.000000 
#    z 0.000000 0.000000 2.352430 
# 
# From -- ./inp_files/51157.got.cif
#   From: 2010.05.17/outbox.cif.g08.bks.cpg/sg70_26_cif.got.tgz:51157.got - 2010.06.03 15:57:51.
