data_PCOD9516297
_publ_section_title
;
Structure prediction by ZEFSAII (Michael W. Deem and Ramdas Pophale) SiO2 
 PCOD9516297
Probable space group: F D D D
;
_chemical_formula_sum "Si O2"
_cell_formula_units_Z 144
_cell_length_a 15.348430
_cell_length_b 13.291973
_cell_length_c 30.410733
_cell_angle_alpha 90.000000
_cell_angle_beta 90.000000
_cell_angle_gamma 90.000000
_cell_volume 6204.121531
_symmetry_space_group_name_H-M "F D D D"
_symmetry_group_IT_number 70
_space_group.IT_coordinate_system_code '2'
_symmetry_cell_setting 'orthorhombic'
loop_
_space_group_symop_operation_xyz
x,y,z
1/4-x,1/4-y,z
x,1/4-y,1/4-z
1/4-x,y,1/4-z
-x,-y,-z
3/4+x,3/4+y,-z
-x,3/4+y,3/4+z
3/4+x,-y,3/4+z
x,1/2+y,1/2+z
1/4-x,3/4-y,1/2+z
x,3/4-y,3/4-z
1/4-x,1/2+y,3/4-z
-x,1/2-y,1/2-z
3/4+x,1/4+y,1/2-z
-x,1/4+y,1/4+z
3/4+x,1/2-y,1/4+z
1/2+x,y,1/2+z
3/4-x,1/4-y,1/2+z
1/2+x,1/4-y,3/4-z
3/4-x,y,3/4-z
1/2-x,-y,1/2-z
1/4+x,3/4+y,1/2-z
1/2-x,3/4+y,1/4+z
1/4+x,-y,1/4+z
1/2+x,1/2+y,z
3/4-x,3/4-y,z
1/2+x,3/4-y,1/4-z
3/4-x,1/2+y,1/4-z
1/2-x,1/2-y,-z
1/4+x,1/4+y,-z
1/2-x,1/4+y,3/4+z
1/4+x,1/2-y,3/4+z
loop_
_atom_site_type_symbol
_atom_site_label
_atom_site_fract_x
_atom_site_fract_y
_atom_site_fract_z
Si Si1 0.762642 0.015278 0.995508
Si Si2 0.875000 0.186380 0.875000
Si Si3 0.229120 0.634011 0.573841
Si Si4 0.035790 0.602115 0.429526
Si Si5 0.582016 0.473617 0.530204
O O1 0.734791 0.962031 0.950625
O O2 0.830514 0.102837 0.982389
O O3 0.794742 0.929519 0.029574
O O4 0.668861 0.034081 0.017388
O O5 0.798762 0.126265 0.849998
O O6 0.826857 0.237866 0.916890
O O7 0.125000 0.625000 0.566960
O O8 0.246764 0.625000 0.625000
O O9 0.270722 0.737149 0.556900
O O10 0.125000 0.625000 0.403675
O O11 0.500000 0.500000 0.500000
#
# Coordination Sequence:
#
# PCOD9516297 Si02
#       5
#    32  16  32  32  32
#     4  11  22  39  62  94 131 172 227 288 362 440
#     4  10  24  44  66  96 134 176 240 300 358 440
#     4  11  21  36  61  92 127 167 215 278 351 427
#     4  11  22  39  63  96 133 176 227 299 374 446
#     4  11  24  44  66  92 130 182 233 293 362 438
#
# _framework density 23.210377000000001
#
# number of rings (size 3 to 8) (size 9 to 14) (size 15 to 20)
#    0.000    1.111    0.000    8.667    0.000    3.556 
#    0.000    8.889    0.000    0.000    0.000    0.000 
#    0.000    0.000    0.000    0.000    0.000    0.000 
#
# Total GULP energy -200646.838245 kJ/mol
# GULP energy per Si atom -5573.523285 kJ/mol
# Density = 2.315755 g / cm^3
# Si number density = 23.210377 Si / 1000 Ang^3
#
#
#
# Elastic Constant Matrix: (Units=GPa)
#
#
# Indices 1 2 3 4 5 6 
#
# 1 89.7326 16.5004 12.8453 0.0000 0.0000 0.0000
# 2 16.5004 72.8752 16.3983 0.0000 0.0000 0.0000
# 3 12.8453 16.3983 127.5898 0.0000 0.0000 0.0000
# 4 0.0000 0.0000 0.0000 3.2717 0.0000 0.0000
# 5 0.0000 0.0000 0.0000 0.0000 30.5594 0.0000
# 6 0.0000 0.0000 0.0000 0.0000 0.0000 35.8013
#
#
#
# Elastic Compliance Matrix: (Units=1/GPa)
#
#
# Indices 1 2 3 4 5 6 
#
# 1 0.011720 -0.002459 -0.000864 0.000000 0.000000 0.000000
# 2 -0.002459 0.014647 -0.001635 0.000000 0.000000 0.000000
# 3 -0.000864 -0.001635 0.008135 0.000000 0.000000 0.000000
# 4 0.000000 0.000000 0.000000 0.305651 0.000000 0.000000
# 5 0.000000 0.000000 0.000000 0.000000 0.032723 0.000000
# 6 0.000000 0.000000 0.000000 0.000000 0.000000 0.027932
#
#
# Mechanical properties :
#
#
# Convention : Reuss Voigt Hill
#
# Bulk Modulus (GPa) = 40.67425 42.40952 41.54189
# Shear Modulus (GPa) = 11.93548 30.22337 21.07942
#
# Velocity S-wave (km/s) = 2.27013 3.61244 3.01689
# Velocity P-wave (km/s) = 4.94303 5.97588 5.48382
#
# Compressibility (1/GPa) = 0.02458558
#
# Stress axis : x y z
#
# Youngs Moduli (GPa) = 85.32344 68.27428 122.93001
#
# Poissons Ratio (x) = 0.16791 0.10620
# Poissons Ratio (y) = 0.20983 0.20097
# Poissons Ratio (z) = 0.07371 0.11162
#
# Static dielectric constant tensor:
#      x y z
#    x 2.142080 0.000000 0.000000 
#    y 0.000000 1.999290 0.000000 
#    z 0.000000 0.000000 1.886520 
# 
# From -- ./inp_files/66489.got.cif
#   From: 2010.05.17/outbox.cif.g08.bks.cpg/sg70_34_cif.got.tgz:66489.got - 2010.06.03 15:57:51.
