data_PCOD9516189
_publ_section_title
;
Structure prediction by ZEFSAII (Michael W. Deem and Ramdas Pophale) SiO2 
 PCOD9516189
Probable space group: F D D D
;
_chemical_formula_sum "Si O2"
_cell_formula_units_Z 192
_cell_length_a 28.015418
_cell_length_b 10.727487
_cell_length_c 30.214231
_cell_angle_alpha 90.000000
_cell_angle_beta 90.000000
_cell_angle_gamma 90.000000
_cell_volume 9080.434892
_symmetry_space_group_name_H-M "F D D D"
_symmetry_group_IT_number 70
_space_group.IT_coordinate_system_code '2'
_symmetry_cell_setting 'orthorhombic'
loop_
_space_group_symop_operation_xyz
x,y,z
1/4-x,1/4-y,z
x,1/4-y,1/4-z
1/4-x,y,1/4-z
-x,-y,-z
3/4+x,3/4+y,-z
-x,3/4+y,3/4+z
3/4+x,-y,3/4+z
x,1/2+y,1/2+z
1/4-x,3/4-y,1/2+z
x,3/4-y,3/4-z
1/4-x,1/2+y,3/4-z
-x,1/2-y,1/2-z
3/4+x,1/4+y,1/2-z
-x,1/4+y,1/4+z
3/4+x,1/2-y,1/4+z
1/2+x,y,1/2+z
3/4-x,1/4-y,1/2+z
1/2+x,1/4-y,3/4-z
3/4-x,y,3/4-z
1/2-x,-y,1/2-z
1/4+x,3/4+y,1/2-z
1/2-x,3/4+y,1/4+z
1/4+x,-y,1/4+z
1/2+x,1/2+y,z
3/4-x,3/4-y,z
1/2+x,3/4-y,1/4-z
3/4-x,1/2+y,1/4-z
1/2-x,1/2-y,-z
1/4+x,1/4+y,-z
1/2-x,1/4+y,3/4+z
1/4+x,1/2-y,3/4+z
loop_
_atom_site_type_symbol
_atom_site_label
_atom_site_fract_x
_atom_site_fract_y
_atom_site_fract_z
Si Si1 0.051026 0.608355 0.255429
Si Si2 0.334757 0.266765 0.710456
Si Si3 0.194160 0.351928 0.538054
Si Si4 0.884840 0.625000 0.125000
Si Si5 0.518047 0.360948 0.718309
Si Si6 0.625000 0.125000 0.331254
Si Si7 0.932306 0.518088 0.379376
O O1 0.067816 0.706231 0.218003
O O2 0.051639 0.463396 0.242361
O O3 0.081000 0.644041 0.298407
O O4 0.996040 0.630796 0.266654
O O5 0.375000 0.375000 0.709320
O O6 0.338104 0.191722 0.757021
O O7 0.339356 0.171381 0.669575
O O8 0.282147 0.324910 0.705607
O O9 0.197895 0.398905 0.587826
O O10 0.860863 0.754219 0.140173
O O11 0.500000 0.250000 0.750000
O O12 0.546665 0.315340 0.675515
O O13 0.948500 0.375000 0.375000
O O14 0.875000 0.519394 0.375000
#
# Coordination Sequence:
#
# PCOD9516189 Si02
#       7
#    32  32  32  16  32  16  32
#     4  10  24  43  69  95 134 181 227 301 352 437
#     4  11  25  44  71  99 145 188 239 304 367 437
#     4  10  23  45  67  96 136 182 232 289 370 422
#     4  12  26  42  68 110 131 192 227 308 364 440
#     4  11  27  46  70 104 140 189 244 300 371 442
#     4  12  26  44  70 103 144 176 251 288 378 432
#     4  11  26  44  70 102 140 185 237 295 359 440
#
# _framework density 21.144361
#
# number of rings (size 3 to 8) (size 9 to 14) (size 15 to 20)
#    0.000    1.167    2.500    2.000   11.667    0.667 
#    3.000    0.833    0.000    0.000    0.000    0.000 
#    0.000    0.000    0.000    0.000    0.000    0.000 
#
# Total GULP energy -267889.949272 kJ/mol
# GULP energy per Si atom -5581.040610 kJ/mol
# Density = 2.109624 g / cm^3
# Si number density = 21.144361 Si / 1000 Ang^3
#
#
#
# Elastic Constant Matrix: (Units=GPa)
#
#
# Indices 1 2 3 4 5 6 
#
# 1 50.6194 21.9777 10.8090 0.0000 0.0000 0.0000
# 2 21.9777 154.2084 72.8822 0.0000 0.0000 0.0000
# 3 10.8090 72.8822 139.8009 0.0000 0.0000 0.0000
# 4 0.0000 0.0000 0.0000 55.2966 0.0000 0.0000
# 5 0.0000 0.0000 0.0000 0.0000 33.2893 0.0000
# 6 0.0000 0.0000 0.0000 0.0000 0.0000 22.3177
#
#
#
# Elastic Compliance Matrix: (Units=1/GPa)
#
#
# Indices 1 2 3 4 5 6 
#
# 1 0.021059 -0.002961 -0.000084 0.000000 0.000000 0.000000
# 2 -0.002961 0.009021 -0.004474 0.000000 0.000000 0.000000
# 3 -0.000084 -0.004474 0.009492 0.000000 0.000000 0.000000
# 4 0.000000 0.000000 0.000000 0.018084 0.000000 0.000000
# 5 0.000000 0.000000 0.000000 0.000000 0.030040 0.000000
# 6 0.000000 0.000000 0.000000 0.000000 0.000000 0.044808
#
#
# Mechanical properties :
#
#
# Convention : Reuss Voigt Hill
#
# Bulk Modulus (GPa) = 40.76202 61.77406 51.26804
# Shear Modulus (GPa) = 32.10863 38.11138 35.11001
#
# Velocity S-wave (km/s) = 3.90108 4.25012 4.07933
# Velocity P-wave (km/s) = 6.29373 7.30503 6.81816
#
# Compressibility (1/GPa) = 0.02453264
#
# Stress axis : x y z
#
# Youngs Moduli (GPa) = 47.48545 110.84795 105.35140
#
# Poissons Ratio (x) = 0.32827 0.00888
# Poissons Ratio (y) = 0.14063 0.47136
# Poissons Ratio (z) = 0.00400 0.49595
#
# Static dielectric constant tensor:
#      x y z
#    x 1.766780 0.000000 0.000000 
#    y 0.000000 1.847790 0.000000 
#    z 0.000000 0.000000 1.756410 
# 
# From -- ./inp_files/62258.got.cif
#   From: 2010.05.17/outbox.cif.g08.bks.cpg/sg70_32_cif.got.tgz:62258.got - 2010.06.03 15:57:51.
