data_PCOD9516723
_publ_section_title
;
Structure prediction by ZEFSAII (Michael W. Deem and Ramdas Pophale) SiO2 
 PCOD9516723
Probable space group: F D D D
;
_chemical_formula_sum "Si O2"
_cell_formula_units_Z 176
_cell_length_a 14.069576
_cell_length_b 23.661394
_cell_length_c 23.068884
_cell_angle_alpha 90.000000
_cell_angle_beta 90.000000
_cell_angle_gamma 90.000000
_cell_volume 7679.764848
_symmetry_space_group_name_H-M "F D D D"
_symmetry_group_IT_number 70
_space_group.IT_coordinate_system_code '2'
_symmetry_cell_setting 'orthorhombic'
loop_
_space_group_symop_operation_xyz
x,y,z
1/4-x,1/4-y,z
x,1/4-y,1/4-z
1/4-x,y,1/4-z
-x,-y,-z
3/4+x,3/4+y,-z
-x,3/4+y,3/4+z
3/4+x,-y,3/4+z
x,1/2+y,1/2+z
1/4-x,3/4-y,1/2+z
x,3/4-y,3/4-z
1/4-x,1/2+y,3/4-z
-x,1/2-y,1/2-z
3/4+x,1/4+y,1/2-z
-x,1/4+y,1/4+z
3/4+x,1/2-y,1/4+z
1/2+x,y,1/2+z
3/4-x,1/4-y,1/2+z
1/2+x,1/4-y,3/4-z
3/4-x,y,3/4-z
1/2-x,-y,1/2-z
1/4+x,3/4+y,1/2-z
1/2-x,3/4+y,1/4+z
1/4+x,-y,1/4+z
1/2+x,1/2+y,z
3/4-x,3/4-y,z
1/2+x,3/4-y,1/4-z
3/4-x,1/2+y,1/4-z
1/2-x,1/2-y,-z
1/4+x,1/4+y,-z
1/2-x,1/4+y,3/4+z
1/4+x,1/2-y,3/4+z
loop_
_atom_site_type_symbol
_atom_site_label
_atom_site_fract_x
_atom_site_fract_y
_atom_site_fract_z
Si Si1 0.883796 0.730649 0.964969
Si Si2 0.544678 0.079452 0.782496
Si Si3 0.029262 0.989075 0.883385
Si Si4 0.883659 0.125000 0.625000
Si Si5 0.061781 0.572796 0.913310
Si Si6 0.335524 0.147135 0.501411
O O1 0.778078 0.735030 0.938279
O O2 0.949977 0.759096 0.916517
O O3 0.909670 0.768129 0.020933
O O4 0.913113 0.666113 0.974901
O O5 0.625000 0.125000 0.764845
O O6 0.521152 0.090119 0.850216
O O7 0.445127 0.084007 0.750064
O O8 0.067068 0.926571 0.895634
O O9 0.115813 0.023656 0.854352
O O10 0.942791 0.105970 0.568765
O O11 0.125000 0.625000 0.935435
O O12 0.980296 0.564423 0.960559
#
# Coordination Sequence:
#
# PCOD9516723 Si02
#       6
#    32  32  32  16  32  32
#     4  11  23  42  71 104 142 185 238 309 384 434
#     4  11  23  40  69 106 137 184 235 308 376 443
#     4  11  24  43  72 103 141 192 236 309 371 450
#     4  12  26  45  65 104 146 190 240 304 378 436
#     4  11  23  43  70  98 137 189 248 292 356 436
#     4  12  25  44  70 102 146 187 243 304 370 454
#
# _framework density 22.917368
#
# number of rings (size 3 to 8) (size 9 to 14) (size 15 to 20)
#    0.000    0.727    3.636    4.909    2.545    3.636 
#    0.000    0.455    0.000    0.000    0.000    0.000 
#    0.000    0.000    0.000    0.000    0.000    0.000 
#
# Total GULP energy -246030.930747 kJ/mol
# GULP energy per Si atom -5591.612062 kJ/mol
# Density = 2.286521 g / cm^3
# Si number density = 22.917368 Si / 1000 Ang^3
#
#
#
# Elastic Constant Matrix: (Units=GPa)
#
#
# Indices 1 2 3 4 5 6 
#
# 1 112.8652 35.0899 62.4051 0.0000 0.0000 0.0000
# 2 35.0899 80.2714 -6.0672 0.0000 0.0000 0.0000
# 3 62.4051 -6.0672 118.2789 0.0000 0.0000 0.0000
# 4 0.0000 0.0000 0.0000 25.6780 0.0000 0.0000
# 5 0.0000 0.0000 0.0000 0.0000 28.1914 0.0000
# 6 0.0000 0.0000 0.0000 0.0000 0.0000 29.9580
#
#
#
# Elastic Compliance Matrix: (Units=1/GPa)
#
#
# Indices 1 2 3 4 5 6 
#
# 1 0.016233 -0.007774 -0.008963 0.000000 0.000000 0.000000
# 2 -0.007774 0.016229 0.004934 0.000000 0.000000 0.000000
# 3 -0.008963 0.004934 0.013437 0.000000 0.000000 0.000000
# 4 0.000000 0.000000 0.000000 0.038944 0.000000 0.000000
# 5 0.000000 0.000000 0.000000 0.000000 0.035472 0.000000
# 6 0.000000 0.000000 0.000000 0.000000 0.000000 0.033380
#
#
# Mechanical properties :
#
#
# Convention : Reuss Voigt Hill
#
# Bulk Modulus (GPa) = 44.85833 54.91901 49.88867
# Shear Modulus (GPa) = 27.06633 31.43134 29.24883
#
# Velocity S-wave (km/s) = 3.44035 3.70740 3.57637
# Velocity P-wave (km/s) = 5.94961 6.50710 6.23459
#
# Compressibility (1/GPa) = 0.02229240
#
# Stress axis : x y z
#
# Youngs Moduli (GPa) = 61.60297 61.61885 74.42206
#
# Poissons Ratio (x) = 0.47900 0.66708
# Poissons Ratio (y) = 0.47888 -0.36719
# Poissons Ratio (z) = 0.55217 -0.30402
#
# Static dielectric constant tensor:
#      x y z
#    x 1.852810 0.000000 0.000000 
#    y 0.000000 1.855650 0.000000 
#    z 0.000000 0.000000 1.985580 
# 
# From -- ./inp_files/51211.got.cif
#   From: 2010.05.17/outbox.cif.g08.bks.cpg/sg70_26_cif.got.tgz:51211.got - 2010.06.03 15:57:51.
