data_PCOD9516337
_publ_section_title
;
Structure prediction by ZEFSAII (Michael W. Deem and Ramdas Pophale) SiO2 
 PCOD9516337
Probable space group: F D D D
;
_chemical_formula_sum "Si O2"
_cell_formula_units_Z 80
_cell_length_a 6.211792
_cell_length_b 19.246332
_cell_length_c 27.074325
_cell_angle_alpha 90.000000
_cell_angle_beta 90.000000
_cell_angle_gamma 90.000000
_cell_volume 3236.849568
_symmetry_space_group_name_H-M "F D D D"
_symmetry_group_IT_number 70
_space_group.IT_coordinate_system_code '2'
_symmetry_cell_setting 'orthorhombic'
loop_
_space_group_symop_operation_xyz
x,y,z
1/4-x,1/4-y,z
x,1/4-y,1/4-z
1/4-x,y,1/4-z
-x,-y,-z
3/4+x,3/4+y,-z
-x,3/4+y,3/4+z
3/4+x,-y,3/4+z
x,1/2+y,1/2+z
1/4-x,3/4-y,1/2+z
x,3/4-y,3/4-z
1/4-x,1/2+y,3/4-z
-x,1/2-y,1/2-z
3/4+x,1/4+y,1/2-z
-x,1/4+y,1/4+z
3/4+x,1/2-y,1/4+z
1/2+x,y,1/2+z
3/4-x,1/4-y,1/2+z
1/2+x,1/4-y,3/4-z
3/4-x,y,3/4-z
1/2-x,-y,1/2-z
1/4+x,3/4+y,1/2-z
1/2-x,3/4+y,1/4+z
1/4+x,-y,1/4+z
1/2+x,1/2+y,z
3/4-x,3/4-y,z
1/2+x,3/4-y,1/4-z
3/4-x,1/2+y,1/4-z
1/2-x,1/2-y,-z
1/4+x,1/4+y,-z
1/2-x,1/4+y,3/4+z
1/4+x,1/2-y,3/4+z
loop_
_atom_site_type_symbol
_atom_site_label
_atom_site_fract_x
_atom_site_fract_y
_atom_site_fract_z
Si Si1 0.023932 0.054528 0.070351
Si Si2 0.625000 0.239643 0.125000
Si Si3 0.887557 0.795529 0.537749
O O1 0.125000 0.125000 0.047269
O O2 0.125000 0.053248 0.125000
O O3 0.124807 0.987584 0.043334
O O4 0.772933 0.052416 0.085444
O O5 0.777975 0.286458 0.091305
O O6 0.875000 0.875000 0.522900
O O7 0.750000 0.750000 0.500000
#
# Coordination Sequence:
#
# PCOD9516337 Si02
#       3
#    32  16  32
#     4   9  21  42  71 104 137 193 247 306 378 445
#     4  10  24  45  78  96 157 192 260 314 383 454
#     4  11  27  45  70 109 149 199 255 312 385 461
#
# _framework density 24.715388000000001
#
# number of rings (size 3 to 8) (size 9 to 14) (size 15 to 20)
#    0.000    2.000    0.000    0.000   14.000   12.800 
#    0.000    0.000    0.000    0.000    0.000    0.000 
#    0.000    0.000    0.000    0.000    0.000    0.000 
#
# Total GULP energy -111723.184713 kJ/mol
# GULP energy per Si atom -5586.159236 kJ/mol
# Density = 2.465914 g / cm^3
# Si number density = 24.715388 Si / 1000 Ang^3
#
#
#
# Elastic Constant Matrix: (Units=GPa)
#
#
# Indices 1 2 3 4 5 6 
#
# 1 143.9734 72.3874 38.0267 0.0000 0.0000 0.0000
# 2 72.3874 228.3127 42.7306 0.0000 0.0000 0.0000
# 3 38.0267 42.7306 83.0157 0.0000 0.0000 0.0000
# 4 0.0000 0.0000 0.0000 23.3909 0.0000 0.0000
# 5 0.0000 0.0000 0.0000 0.0000 63.3455 0.0000
# 6 0.0000 0.0000 0.0000 0.0000 0.0000 21.9992
#
#
#
# Elastic Compliance Matrix: (Units=1/GPa)
#
#
# Indices 1 2 3 4 5 6 
#
# 1 0.008847 -0.002265 -0.002887 0.000000 0.000000 0.000000
# 2 -0.002265 0.005427 -0.001756 0.000000 0.000000 0.000000
# 3 -0.002887 -0.001756 0.014272 0.000000 0.000000 0.000000
# 4 0.000000 0.000000 0.000000 0.042752 0.000000 0.000000
# 5 0.000000 0.000000 0.000000 0.000000 0.015786 0.000000
# 6 0.000000 0.000000 0.000000 0.000000 0.000000 0.045456
#
#
# Mechanical properties :
#
#
# Convention : Reuss Voigt Hill
#
# Bulk Modulus (GPa) = 67.88439 84.62122 76.25280
# Shear Modulus (GPa) = 33.05464 41.89091 37.47278
#
# Velocity S-wave (km/s) = 3.66103 4.12142 3.89803
# Velocity P-wave (km/s) = 6.73772 7.54724 7.15394
#
# Compressibility (1/GPa) = 0.01473093
#
# Stress axis : x y z
#
# Youngs Moduli (GPa) = 113.03524 184.27764 70.06706
#
# Poissons Ratio (x) = 0.41732 0.20227
# Poissons Ratio (y) = 0.25598 0.12303
# Poissons Ratio (z) = 0.32630 0.32357
#
# Static dielectric constant tensor:
#      x y z
#    x 2.089920 0.000000 0.000000 
#    y 0.000000 1.975430 0.000000 
#    z 0.000000 0.000000 1.970110 
# 
# From -- ./inp_files/54552.got.cif
#   From: 2010.05.17/outbox.cif.g08.bks.cpg/sg70_28_cif.got.tgz:54552.got - 2010.06.03 15:57:51.
