data_PCOD9516124
_publ_section_title
;
Structure prediction by ZEFSAII (Michael W. Deem and Ramdas Pophale) SiO2 
 PCOD9516124
Probable space group: F D D D
;
_chemical_formula_sum "Si O2"
_cell_formula_units_Z 192
_cell_length_a 18.092967
_cell_length_b 26.987123
_cell_length_c 19.796908
_cell_angle_alpha 90.000000
_cell_angle_beta 90.000000
_cell_angle_gamma 90.000000
_cell_volume 9666.377339
_symmetry_space_group_name_H-M "F D D D"
_symmetry_group_IT_number 70
_space_group.IT_coordinate_system_code '2'
_symmetry_cell_setting 'orthorhombic'
loop_
_space_group_symop_operation_xyz
x,y,z
1/4-x,1/4-y,z
x,1/4-y,1/4-z
1/4-x,y,1/4-z
-x,-y,-z
3/4+x,3/4+y,-z
-x,3/4+y,3/4+z
3/4+x,-y,3/4+z
x,1/2+y,1/2+z
1/4-x,3/4-y,1/2+z
x,3/4-y,3/4-z
1/4-x,1/2+y,3/4-z
-x,1/2-y,1/2-z
3/4+x,1/4+y,1/2-z
-x,1/4+y,1/4+z
3/4+x,1/2-y,1/4+z
1/2+x,y,1/2+z
3/4-x,1/4-y,1/2+z
1/2+x,1/4-y,3/4-z
3/4-x,y,3/4-z
1/2-x,-y,1/2-z
1/4+x,3/4+y,1/2-z
1/2-x,3/4+y,1/4+z
1/4+x,-y,1/4+z
1/2+x,1/2+y,z
3/4-x,3/4-y,z
1/2+x,3/4-y,1/4-z
3/4-x,1/2+y,1/4-z
1/2-x,1/2-y,-z
1/4+x,1/4+y,-z
1/2-x,1/4+y,3/4+z
1/4+x,1/2-y,3/4+z
loop_
_atom_site_type_symbol
_atom_site_label
_atom_site_fract_x
_atom_site_fract_y
_atom_site_fract_z
Si Si1 0.714374 0.124640 0.888782
Si Si2 0.625000 0.125000 0.125000
Si Si3 0.709724 0.722334 0.316401
Si Si4 0.125000 0.625000 0.625000
Si Si5 0.254006 0.084720 0.535897
Si Si6 0.749421 0.947861 0.920441
Si Si7 0.625354 0.875000 0.875000
Si Si8 0.030603 0.720420 0.814861
O O1 0.625000 0.125000 0.892057
O O2 0.733219 0.182254 0.873454
O O3 0.738584 0.087478 0.827713
O O4 0.742533 0.099017 0.957655
O O5 0.678644 0.095841 0.075173
O O6 0.725536 0.780548 0.314305
O O7 0.753492 0.705967 0.249486
O O8 0.620076 0.719918 0.311108
O O9 0.179690 0.662253 0.662899
O O10 0.321309 0.118220 0.562122
O O11 0.679393 0.920545 0.888573
O O12 0.751953 0.998793 0.878474
O O13 0.000000 0.750000 0.750000
#
# Coordination Sequence:
#
# PCOD9516124 Si02
#       8
#    32   8  32   8  32  32  16  32
#     4  10  23  42  66  96 136 173 226 283 333 413
#     4  10  24  42  78  92 124 174 234 282 340 420
#     4  11  24  40  66  98 132 180 222 279 347 404
#     4  10  24  34  58  88 120 178 224 264 324 412
#     4  11  21  47  66  98 128 177 228 280 348 403
#     4  11  22  41  60  92 132 175 223 281 336 408
#     4  10  24  40  66  90 132 166 218 288 334 404
#     4  11  23  40  64  94 132 180 223 279 338 409
#
# _framework density 19.862663000000001
#
# number of rings (size 3 to 8) (size 9 to 14) (size 15 to 20)
#    0.000    1.333    4.167    1.000    8.167    0.000 
#    3.000    3.333    0.000    0.000    0.000    0.000 
#    0.000    0.000    0.000    0.000    0.000    0.000 
#
# Total GULP energy -267301.998052 kJ/mol
# GULP energy per Si atom -5568.791626 kJ/mol
# Density = 1.981745 g / cm^3
# Si number density = 19.862663 Si / 1000 Ang^3
#
#
#
# Elastic Constant Matrix: (Units=GPa)
#
#
# Indices 1 2 3 4 5 6 
#
# 1 66.7986 18.8375 15.4220 0.0000 0.0000 0.0000
# 2 18.8375 100.4613 31.3897 0.0000 0.0000 0.0000
# 3 15.4220 31.3897 85.0757 0.0000 0.0000 0.0000
# 4 0.0000 0.0000 0.0000 -14.7441 0.0000 0.0000
# 5 0.0000 0.0000 0.0000 0.0000 6.2196 0.0000
# 6 0.0000 0.0000 0.0000 0.0000 0.0000 -9.0653
#
#
#
# Elastic Compliance Matrix: (Units=1/GPa)
#
#
# Indices 1 2 3 4 5 6 
#
# 1 0.016114 -0.002384 -0.002042 0.000000 0.000000 0.000000
# 2 -0.002384 0.011604 -0.003849 0.000000 0.000000 0.000000
# 3 -0.002042 -0.003849 0.013545 0.000000 0.000000 0.000000
# 4 0.000000 0.000000 0.000000 -0.067824 0.000000 0.000000
# 5 0.000000 0.000000 0.000000 0.000000 0.160782 0.000000
# 6 0.000000 0.000000 0.000000 0.000000 0.000000 -0.110311
#
#
# Mechanical properties :
#
#
# Convention : Reuss Voigt Hill
#
# Bulk Modulus (GPa) = 40.46399 42.62599 41.54499
# Shear Modulus (GPa) = 102.67743 8.92780 55.80262
#
# Velocity S-wave (km/s) = 7.19763 2.12239 5.30615
# Velocity P-wave (km/s) = 9.45995 5.24528 7.64865
#
# Compressibility (1/GPa) = 0.02471333
#
# Stress axis : x y z
#
# Youngs Moduli (GPa) = 62.05820 86.17896 73.83045
#
# Poissons Ratio (x) = 0.20542 0.15073
# Poissons Ratio (y) = 0.14792 0.28419
# Poissons Ratio (z) = 0.12670 0.33172
#
# Static dielectric constant tensor:
#      x y z
#    x 1.632470 0.000000 0.000000 
#    y 0.000000 1.733650 0.000000 
#    z 0.000000 0.000000 1.707350 
# 
# From -- ./inp_files/35552.got.cif
#   From: 2010.05.17/outbox.cif.g08.bks.cpg/sg70_18_cif.got.tgz:35552.got - 2010.06.03 15:57:51.
