data_PCOD9516768
_publ_section_title
;
Structure prediction by ZEFSAII (Michael W. Deem and Ramdas Pophale) SiO2 
 PCOD9516768
Probable space group: F D D D
;
_chemical_formula_sum "Si O2"
_cell_formula_units_Z 96
_cell_length_a 22.374690
_cell_length_b 13.493069
_cell_length_c 12.763717
_cell_angle_alpha 90.000000
_cell_angle_beta 90.000000
_cell_angle_gamma 90.000000
_cell_volume 3853.407466
_symmetry_space_group_name_H-M "F D D D"
_symmetry_group_IT_number 70
_space_group.IT_coordinate_system_code '2'
_symmetry_cell_setting 'orthorhombic'
loop_
_space_group_symop_operation_xyz
x,y,z
1/4-x,1/4-y,z
x,1/4-y,1/4-z
1/4-x,y,1/4-z
-x,-y,-z
3/4+x,3/4+y,-z
-x,3/4+y,3/4+z
3/4+x,-y,3/4+z
x,1/2+y,1/2+z
1/4-x,3/4-y,1/2+z
x,3/4-y,3/4-z
1/4-x,1/2+y,3/4-z
-x,1/2-y,1/2-z
3/4+x,1/4+y,1/2-z
-x,1/4+y,1/4+z
3/4+x,1/2-y,1/4+z
1/2+x,y,1/2+z
3/4-x,1/4-y,1/2+z
1/2+x,1/4-y,3/4-z
3/4-x,y,3/4-z
1/2-x,-y,1/2-z
1/4+x,3/4+y,1/2-z
1/2-x,3/4+y,1/4+z
1/4+x,-y,1/4+z
1/2+x,1/2+y,z
3/4-x,3/4-y,z
1/2+x,3/4-y,1/4-z
3/4-x,1/2+y,1/4-z
1/2-x,1/2-y,-z
1/4+x,1/4+y,-z
1/2-x,1/4+y,3/4+z
1/4+x,1/2-y,3/4+z
loop_
_atom_site_type_symbol
_atom_site_label
_atom_site_fract_x
_atom_site_fract_y
_atom_site_fract_z
Si Si1 0.443272 0.340159 0.762580
Si Si2 0.275782 0.067749 0.844018
Si Si3 0.353666 0.124454 0.247165
O O1 0.469893 0.375000 0.875000
O O2 0.375000 0.375000 0.762776
O O3 0.471140 0.384050 0.656427
O O4 0.562748 0.278003 0.734928
O O5 0.328792 0.132670 0.790775
O O6 0.250000 0.000000 0.750000
O O7 0.317651 0.035440 0.945552
O O8 0.360835 0.125000 0.125000
#
# Coordination Sequence:
#
# PCOD9516768 Si02
#       3
#    32  32  32
#     4  11  23  44  72 104 139 185 239 296 360 434
#     4  11  24  43  70 105 142 182 235 299 358 421
#     4  11  25  45  70 104 142 187 237 293 360 435
#
# _framework density 24.913015000000001
#
# number of rings (size 3 to 8) (size 9 to 14) (size 15 to 20)
#    0.000    1.000    0.000    8.000    0.000    5.333 
#    0.000    0.000    0.000   10.000    0.000    0.000 
#    0.000    0.000    0.000    0.000    0.000    0.000 
#
# Total GULP energy -133748.089850 kJ/mol
# GULP energy per Si atom -5572.837077 kJ/mol
# Density = 2.485631 g / cm^3
# Si number density = 24.913015 Si / 1000 Ang^3
#
#
#
# Elastic Constant Matrix: (Units=GPa)
#
#
# Indices 1 2 3 4 5 6 
#
# 1 146.9922 38.6983 102.4973 0.0000 0.0000 0.0000
# 2 38.6983 64.2552 75.5202 0.0000 0.0000 0.0000
# 3 102.4973 75.5202 285.5855 0.0000 0.0000 0.0000
# 4 0.0000 0.0000 0.0000 36.8637 0.0000 0.0000
# 5 0.0000 0.0000 0.0000 0.0000 47.8431 0.0000
# 6 0.0000 0.0000 0.0000 0.0000 0.0000 33.5803
#
#
#
# Elastic Compliance Matrix: (Units=1/GPa)
#
#
# Indices 1 2 3 4 5 6 
#
# 1 0.009331 -0.002443 -0.002703 0.000000 0.000000 0.000000
# 2 -0.002443 0.023221 -0.005264 0.000000 0.000000 0.000000
# 3 -0.002703 -0.005264 0.005864 0.000000 0.000000 0.000000
# 4 0.000000 0.000000 0.000000 0.027127 0.000000 0.000000
# 5 0.000000 0.000000 0.000000 0.000000 0.020902 0.000000
# 6 0.000000 0.000000 0.000000 0.000000 0.000000 0.029779
#
#
# Mechanical properties :
#
#
# Convention : Reuss Voigt Hill
#
# Bulk Modulus (GPa) = 56.83029 103.36272 80.09651
# Shear Modulus (GPa) = 34.98759 42.33187 38.65973
#
# Velocity S-wave (km/s) = 3.75158 4.12659 3.94355
# Velocity P-wave (km/s) = 6.45189 8.01776 7.27707
#
# Compressibility (1/GPa) = 0.01759625
#
# Stress axis : x y z
#
# Youngs Moduli (GPa) = 107.17031 43.06490 170.54374
#
# Poissons Ratio (x) = 0.10520 0.46096
# Poissons Ratio (y) = 0.26181 0.89770
# Poissons Ratio (z) = 0.28967 0.22668
#
# Static dielectric constant tensor:
#      x y z
#    x 2.151590 0.000000 0.000000 
#    y 0.000000 2.220940 0.000000 
#    z 0.000000 0.000000 1.946320 
# 
# From -- ./inp_files/17187.got.cif
#   From: 2010.05.17/outbox.cif.g08.bks.cpg/sg70_9_cif.got.tgz:17187.got - 2010.06.03 15:57:51.
