data_PCOD9516553
_publ_section_title
;
Structure prediction by ZEFSAII (Michael W. Deem and Ramdas Pophale) SiO2 
 PCOD9516553
Probable space group: F D D D
;
_chemical_formula_sum "Si O2"
_cell_formula_units_Z 128
_cell_length_a 23.419264
_cell_length_b 23.022108
_cell_length_c 11.274808
_cell_angle_alpha 90.000000
_cell_angle_beta 90.000000
_cell_angle_gamma 90.000000
_cell_volume 6078.934784
_symmetry_space_group_name_H-M "F D D D"
_symmetry_group_IT_number 70
_space_group.IT_coordinate_system_code '2'
_symmetry_cell_setting 'orthorhombic'
loop_
_space_group_symop_operation_xyz
x,y,z
1/4-x,1/4-y,z
x,1/4-y,1/4-z
1/4-x,y,1/4-z
-x,-y,-z
3/4+x,3/4+y,-z
-x,3/4+y,3/4+z
3/4+x,-y,3/4+z
x,1/2+y,1/2+z
1/4-x,3/4-y,1/2+z
x,3/4-y,3/4-z
1/4-x,1/2+y,3/4-z
-x,1/2-y,1/2-z
3/4+x,1/4+y,1/2-z
-x,1/4+y,1/4+z
3/4+x,1/2-y,1/4+z
1/2+x,y,1/2+z
3/4-x,1/4-y,1/2+z
1/2+x,1/4-y,3/4-z
3/4-x,y,3/4-z
1/2-x,-y,1/2-z
1/4+x,3/4+y,1/2-z
1/2-x,3/4+y,1/4+z
1/4+x,-y,1/4+z
1/2+x,1/2+y,z
3/4-x,3/4-y,z
1/2+x,3/4-y,1/4-z
3/4-x,1/2+y,1/4-z
1/2-x,1/2-y,-z
1/4+x,1/4+y,-z
1/2-x,1/4+y,3/4+z
1/4+x,1/2-y,3/4+z
loop_
_atom_site_type_symbol
_atom_site_label
_atom_site_fract_x
_atom_site_fract_y
_atom_site_fract_z
Si Si1 0.158154 0.008683 0.802057
Si Si2 0.375000 0.375000 0.068830
Si Si3 0.031174 0.488433 0.373981
Si Si4 0.768226 0.306927 0.851180
Si Si5 0.535245 0.625000 0.125000
O O1 0.152156 0.073477 0.856057
O O2 0.180923 0.022039 0.668297
O O3 0.099123 0.980804 0.851192
O O4 0.209169 0.969406 0.851822
O O5 0.423803 0.397484 0.979803
O O6 0.018863 0.542254 0.287284
O O7 0.000000 0.500000 0.500000
O O8 0.001905 0.428777 0.330086
O O9 0.773614 0.375000 0.875000
#
# Coordination Sequence:
#
# PCOD9516553 Si02
#       5
#    32  16  32  32  16
#     4  11  24  43  72 102 140 195 243 306 383 444
#     4  11  20  44  73  98 140 195 244 313 372 476
#     4  12  25  43  70 105 140 190 250 304 378 454
#     4  11  26  46  69 106 149 193 249 309 382 457
#     4  11  24  40  70 104 142 182 251 318 382 446
#
# _framework density 21.056319999999999
#
# number of rings (size 3 to 8) (size 9 to 14) (size 15 to 20)
#    0.000    0.750    5.000    2.250    1.750    2.000 
#    0.000    0.000    0.000    0.000    0.000    0.000 
#    0.000    0.000    0.000    0.000    0.000    0.000 
#
# Total GULP energy -178384.087437 kJ/mol
# GULP energy per Si atom -5574.502732 kJ/mol
# Density = 2.100839 g / cm^3
# Si number density = 21.056320 Si / 1000 Ang^3
#
#
#
# Elastic Constant Matrix: (Units=GPa)
#
#
# Indices 1 2 3 4 5 6 
#
# 1 178.9614 50.4562 53.0500 0.0000 0.0000 0.0000
# 2 50.4562 58.5329 28.3448 0.0000 0.0000 0.0000
# 3 53.0500 28.3448 142.3227 0.0000 0.0000 0.0000
# 4 0.0000 0.0000 0.0000 12.5302 0.0000 0.0000
# 5 0.0000 0.0000 0.0000 0.0000 34.5823 0.0000
# 6 0.0000 0.0000 0.0000 0.0000 0.0000 34.3525
#
#
#
# Elastic Compliance Matrix: (Units=1/GPa)
#
#
# Indices 1 2 3 4 5 6 
#
# 1 0.007746 -0.005842 -0.001724 0.000000 0.000000 0.000000
# 2 -0.005842 0.023315 -0.002466 0.000000 0.000000 0.000000
# 3 -0.001724 -0.002466 0.008160 0.000000 0.000000 0.000000
# 4 0.000000 0.000000 0.000000 0.079807 0.000000 0.000000
# 5 0.000000 0.000000 0.000000 0.000000 0.028916 0.000000
# 6 0.000000 0.000000 0.000000 0.000000 0.000000 0.029110
#
#
# Mechanical properties :
#
#
# Convention : Reuss Voigt Hill
#
# Bulk Modulus (GPa) = 52.20019 71.50211 61.85115
# Shear Modulus (GPa) = 24.56961 32.82407 28.69684
#
# Velocity S-wave (km/s) = 3.41963 3.95254 3.69570
# Velocity P-wave (km/s) = 6.35896 7.40684 6.90281
#
# Compressibility (1/GPa) = 0.01915702
#
# Stress axis : x y z
#
# Youngs Moduli (GPa) = 129.09945 42.89152 122.55162
#
# Poissons Ratio (x) = 0.25059 0.21124
# Poissons Ratio (y) = 0.75425 0.30216
# Poissons Ratio (z) = 0.22253 0.10575
#
# Static dielectric constant tensor:
#      x y z
#    x 1.811450 0.000000 0.000000 
#    y 0.000000 1.766750 0.000000 
#    z 0.000000 0.000000 1.823080 
# 
# From -- ./inp_files/18895.got.cif
#   From: 2010.05.17/outbox.cif.g08.bks.cpg/sg70_10_cif.got.tgz:18895.got - 2010.06.03 15:57:51.
