data_PCOD9516057
_publ_section_title
;
Structure prediction by ZEFSAII (Michael W. Deem and Ramdas Pophale) SiO2 
 PCOD9516057
Probable space group: F D D D
;
_chemical_formula_sum "Si O2"
_cell_formula_units_Z 96
_cell_length_a 16.539375
_cell_length_b 20.941006
_cell_length_c 10.004083
_cell_angle_alpha 90.000000
_cell_angle_beta 90.000000
_cell_angle_gamma 90.000000
_cell_volume 3464.925663
_symmetry_space_group_name_H-M "F D D D"
_symmetry_group_IT_number 70
_space_group.IT_coordinate_system_code '2'
_symmetry_cell_setting 'orthorhombic'
loop_
_space_group_symop_operation_xyz
x,y,z
1/4-x,1/4-y,z
x,1/4-y,1/4-z
1/4-x,y,1/4-z
-x,-y,-z
3/4+x,3/4+y,-z
-x,3/4+y,3/4+z
3/4+x,-y,3/4+z
x,1/2+y,1/2+z
1/4-x,3/4-y,1/2+z
x,3/4-y,3/4-z
1/4-x,1/2+y,3/4-z
-x,1/2-y,1/2-z
3/4+x,1/4+y,1/2-z
-x,1/4+y,1/4+z
3/4+x,1/2-y,1/4+z
1/2+x,y,1/2+z
3/4-x,1/4-y,1/2+z
1/2+x,1/4-y,3/4-z
3/4-x,y,3/4-z
1/2-x,-y,1/2-z
1/4+x,3/4+y,1/2-z
1/2-x,3/4+y,1/4+z
1/4+x,-y,1/4+z
1/2+x,1/2+y,z
3/4-x,3/4-y,z
1/2+x,3/4-y,1/4-z
3/4-x,1/2+y,1/4-z
1/2-x,1/2-y,-z
1/4+x,1/4+y,-z
1/2-x,1/4+y,3/4+z
1/4+x,1/2-y,3/4+z
loop_
_atom_site_type_symbol
_atom_site_label
_atom_site_fract_x
_atom_site_fract_y
_atom_site_fract_z
Si Si1 0.268584 0.254614 0.187775
Si Si2 0.567505 0.937578 0.936077
Si Si3 0.780134 0.881693 0.064477
O O1 0.363283 0.239638 0.194160
O O2 0.245397 0.291156 0.324377
O O3 0.224763 0.185322 0.197300
O O4 0.247855 0.308054 0.075705
O O5 0.609868 0.875000 0.875000
O O6 0.523650 0.833161 0.678988
O O7 0.875000 0.875000 0.096220
#
# Coordination Sequence:
#
# PCOD9516057 Si02
#       3
#    32  32  32
#     4  11  22  42  65 104 137 187 234 299 348 426
#     4  10  23  38  67  99 139 184 238 296 351 419
#     4  11  23  37  68 100 138 176 236 294 355 409
#
# _framework density 27.706219999999998
#
# number of rings (size 3 to 8) (size 9 to 14) (size 15 to 20)
#    0.000    1.333    3.333    2.000    4.667    4.667 
#    0.000    1.667   14.667    0.000    0.000    0.000 
#    0.000    0.000    0.000    0.000    0.000    0.000 
#
# Total GULP energy -134330.782044 kJ/mol
# GULP energy per Si atom -5597.115919 kJ/mol
# Density = 2.764316 g / cm^3
# Si number density = 27.706220 Si / 1000 Ang^3
#
#
#
# Elastic Constant Matrix: (Units=GPa)
#
#
# Indices 1 2 3 4 5 6 
#
# 1 107.9747 19.8285 42.2188 0.0000 0.0000 0.0000
# 2 19.8285 278.7612 76.6881 0.0000 0.0000 0.0000
# 3 42.2188 76.6881 131.8539 0.0000 0.0000 0.0000
# 4 0.0000 0.0000 0.0000 55.5497 0.0000 0.0000
# 5 0.0000 0.0000 0.0000 0.0000 13.8513 0.0000
# 6 0.0000 0.0000 0.0000 0.0000 0.0000 65.4763
#
#
#
# Elastic Compliance Matrix: (Units=1/GPa)
#
#
# Indices 1 2 3 4 5 6 
#
# 1 0.010598 0.000214 -0.003518 0.000000 0.000000 0.000000
# 2 0.000214 0.004275 -0.002555 0.000000 0.000000 0.000000
# 3 -0.003518 -0.002555 0.010196 0.000000 0.000000 0.000000
# 4 0.000000 0.000000 0.000000 0.018002 0.000000 0.000000
# 5 0.000000 0.000000 0.000000 0.000000 0.072195 0.000000
# 6 0.000000 0.000000 0.000000 0.000000 0.000000 0.015273
#
#
# Mechanical properties :
#
#
# Convention : Reuss Voigt Hill
#
# Bulk Modulus (GPa) = 74.89693 88.45118 81.67406
# Shear Modulus (GPa) = 34.08164 52.29911 43.19037
#
# Velocity S-wave (km/s) = 3.51109 4.34940 3.95253
# Velocity P-wave (km/s) = 6.59760 7.56419 7.09737
#
# Compressibility (1/GPa) = 0.01335168
#
# Stress axis : x y z
#
# Youngs Moduli (GPa) = 94.36106 233.92185 98.07346
#
# Poissons Ratio (x) = -0.05004 0.34499
# Poissons Ratio (y) = -0.02019 0.25056
# Poissons Ratio (z) = 0.33193 0.59764
#
# Static dielectric constant tensor:
#      x y z
#    x 2.022110 0.000000 0.000000 
#    y 0.000000 2.225570 0.000000 
#    z 0.000000 0.000000 2.193280 
# 
# From -- ./inp_files/15823.got.cif
#   From: 2010.05.17/outbox.cif.g08.bks.cpg/sg70_8_cif.got.tgz:15823.got - 2010.06.03 15:57:51.
