data_PCOD9516975
_publ_section_title
;
Structure prediction by ZEFSAII (Michael W. Deem and Ramdas Pophale) SiO2 
 PCOD9516975
Probable space group: F D D D
;
_chemical_formula_sum "Si O2"
_cell_formula_units_Z 96
_cell_length_a 9.412437
_cell_length_b 17.227940
_cell_length_c 22.821288
_cell_angle_alpha 90.000000
_cell_angle_beta 90.000000
_cell_angle_gamma 90.000000
_cell_volume 3700.629314
_symmetry_space_group_name_H-M "F D D D"
_symmetry_group_IT_number 70
_space_group.IT_coordinate_system_code '2'
_symmetry_cell_setting 'orthorhombic'
loop_
_space_group_symop_operation_xyz
x,y,z
1/4-x,1/4-y,z
x,1/4-y,1/4-z
1/4-x,y,1/4-z
-x,-y,-z
3/4+x,3/4+y,-z
-x,3/4+y,3/4+z
3/4+x,-y,3/4+z
x,1/2+y,1/2+z
1/4-x,3/4-y,1/2+z
x,3/4-y,3/4-z
1/4-x,1/2+y,3/4-z
-x,1/2-y,1/2-z
3/4+x,1/4+y,1/2-z
-x,1/4+y,1/4+z
3/4+x,1/2-y,1/4+z
1/2+x,y,1/2+z
3/4-x,1/4-y,1/2+z
1/2+x,1/4-y,3/4-z
3/4-x,y,3/4-z
1/2-x,-y,1/2-z
1/4+x,3/4+y,1/2-z
1/2-x,3/4+y,1/4+z
1/4+x,-y,1/4+z
1/2+x,1/2+y,z
3/4-x,3/4-y,z
1/2+x,3/4-y,1/4-z
3/4-x,1/2+y,1/4-z
1/2-x,1/2-y,-z
1/4+x,1/4+y,-z
1/2-x,1/4+y,3/4+z
1/4+x,1/2-y,3/4+z
loop_
_atom_site_type_symbol
_atom_site_label
_atom_site_fract_x
_atom_site_fract_y
_atom_site_fract_z
Si Si1 0.427321 0.202229 0.657001
Si Si2 0.536113 0.903768 0.530808
Si Si3 0.519315 0.549693 0.440713
O O1 0.478934 0.125000 0.625000
O O2 0.532948 0.269100 0.679973
O O3 0.378257 0.172120 0.721135
O O4 0.324751 0.243796 0.610680
O O5 0.375000 0.875000 0.517942
O O6 0.614501 0.836794 0.564590
O O7 0.625000 0.625000 0.443579
O O8 0.500000 0.500000 0.500000
#
# Coordination Sequence:
#
# PCOD9516975 Si02
#       3
#    32  32  32
#     4  11  26  51  85 123 171 226 275 358 423 515
#     4  11  28  52  84 128 170 224 291 349 433 510
#     4  12  29  54  81 123 172 224 282 355 425 506
#
# _framework density 25.941534000000001
#
# number of rings (size 3 to 8) (size 9 to 14) (size 15 to 20)
#    0.000    0.667    3.333    1.000    9.333    8.667 
#    0.000    3.333    0.000    6.000    0.000    0.000 
#    0.000    0.000    0.000    0.000    0.000    0.000 
#
# Total GULP energy -134303.339027 kJ/mol
# GULP energy per Si atom -5595.972459 kJ/mol
# Density = 2.588249 g / cm^3
# Si number density = 25.941534 Si / 1000 Ang^3
#
#
#
# Elastic Constant Matrix: (Units=GPa)
#
#
# Indices 1 2 3 4 5 6 
#
# 1 102.8747 63.0644 63.2993 0.0000 0.0000 0.0000
# 2 63.0644 223.2398 111.4541 0.0000 0.0000 0.0000
# 3 63.2993 111.4541 268.7793 0.0000 0.0000 0.0000
# 4 0.0000 0.0000 0.0000 45.9298 0.0000 0.0000
# 5 0.0000 0.0000 0.0000 0.0000 41.1766 0.0000
# 6 0.0000 0.0000 0.0000 0.0000 0.0000 25.8662
#
#
#
# Elastic Compliance Matrix: (Units=1/GPa)
#
#
# Indices 1 2 3 4 5 6 
#
# 1 0.012452 -0.002590 -0.001859 0.000000 0.000000 0.000000
# 2 -0.002590 0.006188 -0.001956 0.000000 0.000000 0.000000
# 3 -0.001859 -0.001956 0.004969 0.000000 0.000000 0.000000
# 4 0.000000 0.000000 0.000000 0.021772 0.000000 0.000000
# 5 0.000000 0.000000 0.000000 0.000000 0.024286 0.000000
# 6 0.000000 0.000000 0.000000 0.000000 0.000000 0.038660
#
#
# Mechanical properties :
#
#
# Convention : Reuss Voigt Hill
#
# Bulk Modulus (GPa) = 92.59067 118.94772 105.76919
# Shear Modulus (GPa) = 40.08486 46.39957 43.24221
#
# Velocity S-wave (km/s) = 3.93517 4.23380 4.08721
# Velocity P-wave (km/s) = 7.51112 8.35774 7.94571
#
# Compressibility (1/GPa) = 0.01080022
#
# Stress axis : x y z
#
# Youngs Moduli (GPa) = 80.31047 161.61499 201.23592
#
# Poissons Ratio (x) = 0.41852 0.37402
# Poissons Ratio (y) = 0.20797 0.39360
# Poissons Ratio (z) = 0.14927 0.31610
#
# Static dielectric constant tensor:
#      x y z
#    x 2.112140 0.000000 0.000000 
#    y 0.000000 1.941610 0.000000 
#    z 0.000000 0.000000 2.050440 
# 
# From -- ./inp_files/32804.got.cif
#   From: 2010.05.17/outbox.cif.g08.bks.cpg/sg70_17_cif.got.tgz:32804.got - 2010.06.03 15:57:51.
