data_PCOD9516984
_publ_section_title
;
Structure prediction by ZEFSAII (Michael W. Deem and Ramdas Pophale) SiO2 
 PCOD9516984
Probable space group: F D D D
;
_chemical_formula_sum "Si O2"
_cell_formula_units_Z 112
_cell_length_a 15.851184
_cell_length_b 34.594222
_cell_length_c 9.439409
_cell_angle_alpha 90.000000
_cell_angle_beta 90.000000
_cell_angle_gamma 90.000000
_cell_volume 5176.188450
_symmetry_space_group_name_H-M "F D D D"
_symmetry_group_IT_number 70
_space_group.IT_coordinate_system_code '2'
_symmetry_cell_setting 'orthorhombic'
loop_
_space_group_symop_operation_xyz
x,y,z
1/4-x,1/4-y,z
x,1/4-y,1/4-z
1/4-x,y,1/4-z
-x,-y,-z
3/4+x,3/4+y,-z
-x,3/4+y,3/4+z
3/4+x,-y,3/4+z
x,1/2+y,1/2+z
1/4-x,3/4-y,1/2+z
x,3/4-y,3/4-z
1/4-x,1/2+y,3/4-z
-x,1/2-y,1/2-z
3/4+x,1/4+y,1/2-z
-x,1/4+y,1/4+z
3/4+x,1/2-y,1/4+z
1/2+x,y,1/2+z
3/4-x,1/4-y,1/2+z
1/2+x,1/4-y,3/4-z
3/4-x,y,3/4-z
1/2-x,-y,1/2-z
1/4+x,3/4+y,1/2-z
1/2-x,3/4+y,1/4+z
1/4+x,-y,1/4+z
1/2+x,1/2+y,z
3/4-x,3/4-y,z
1/2+x,3/4-y,1/4-z
3/4-x,1/2+y,1/4-z
1/2-x,1/2-y,-z
1/4+x,1/4+y,-z
1/2-x,1/4+y,3/4+z
1/4+x,1/2-y,3/4+z
loop_
_atom_site_type_symbol
_atom_site_label
_atom_site_fract_x
_atom_site_fract_y
_atom_site_fract_z
Si Si1 0.625000 0.328319 0.125000
Si Si2 0.167218 0.487827 0.334121
Si Si3 0.527130 0.617965 0.956309
Si Si4 0.756172 0.969568 0.622058
O O1 0.620865 0.300199 0.260680
O O2 0.540635 0.353853 0.116625
O O3 0.250000 0.500000 0.250000
O O4 0.192244 0.479500 0.495931
O O5 0.100608 0.522140 0.317820
O O6 0.625000 0.625000 0.913598
O O7 0.500619 0.574169 0.922708
O O8 0.522638 0.625000 0.125000
O O9 0.750000 0.000000 0.750000
#
# Coordination Sequence:
#
# PCOD9516984 Si02
#       4
#    16  32  32  32
#     4  12  26  48  76 108 157 194 249 316 388 436
#     4  12  25  47  76 109 146 191 249 308 376 454
#     4  11  28  46  72 107 152 196 248 311 376 446
#     4  12  27  45  75 107 143 194 252 301 370 453
#
# _framework density 21.637543000000001
#
# number of rings (size 3 to 8) (size 9 to 14) (size 15 to 20)
#    0.000    0.286    2.857    4.286   16.000    0.000 
#    0.000    1.429    0.000    0.000    0.000    0.000 
#    0.000    0.000    0.000    0.000    0.000    0.000 
#
# Total GULP energy -156844.017829 kJ/mol
# GULP energy per Si atom -5601.572065 kJ/mol
# Density = 2.158829 g / cm^3
# Si number density = 21.637543 Si / 1000 Ang^3
#
#
#
# Elastic Constant Matrix: (Units=GPa)
#
#
# Indices 1 2 3 4 5 6 
#
# 1 101.9405 25.8755 23.2452 0.0000 0.0000 0.0000
# 2 25.8755 145.7360 49.4217 0.0000 0.0000 0.0000
# 3 23.2452 49.4217 121.6730 0.0000 0.0000 0.0000
# 4 0.0000 0.0000 0.0000 37.1708 0.0000 0.0000
# 5 0.0000 0.0000 0.0000 0.0000 46.7075 0.0000
# 6 0.0000 0.0000 0.0000 0.0000 0.0000 46.2020
#
#
#
# Elastic Compliance Matrix: (Units=1/GPa)
#
#
# Indices 1 2 3 4 5 6 
#
# 1 0.010488 -0.001372 -0.001447 0.000000 0.000000 0.000000
# 2 -0.001372 0.008137 -0.003043 0.000000 0.000000 0.000000
# 3 -0.001447 -0.003043 0.009731 0.000000 0.000000 0.000000
# 4 0.000000 0.000000 0.000000 0.026903 0.000000 0.000000
# 5 0.000000 0.000000 0.000000 0.000000 0.021410 0.000000
# 6 0.000000 0.000000 0.000000 0.000000 0.000000 0.021644
#
#
# Mechanical properties :
#
#
# Convention : Reuss Voigt Hill
#
# Bulk Modulus (GPa) = 60.11945 62.93714 61.52829
# Shear Modulus (GPa) = 43.26012 44.06986 43.66499
#
# Velocity S-wave (km/s) = 4.47621 4.51791 4.49711
# Velocity P-wave (km/s) = 7.38650 7.50770 7.44735
#
# Compressibility (1/GPa) = 0.01663355
#
# Stress axis : x y z
#
# Youngs Moduli (GPa) = 95.35047 122.89172 102.76224
#
# Poissons Ratio (x) = 0.16855 0.14865
# Poissons Ratio (y) = 0.13078 0.31273
# Poissons Ratio (z) = 0.13793 0.37398
#
# Static dielectric constant tensor:
#      x y z
#    x 1.497930 0.000000 0.000000 
#    y 0.000000 1.731620 0.000000 
#    z 0.000000 0.000000 1.790100 
# 
# From -- ./inp_files/15004.got.cif
#   From: 2010.05.17/outbox.cif.g08.bks.cpg/sg70_8_cif.got.tgz:15004.got - 2010.06.03 15:57:51.
