data_PCOD9516590
_publ_section_title
;
Structure prediction by ZEFSAII (Michael W. Deem and Ramdas Pophale) SiO2 
 PCOD9516590
Probable space group: F D D D
;
_chemical_formula_sum "Si O2"
_cell_formula_units_Z 160
_cell_length_a 12.838233
_cell_length_b 24.662321
_cell_length_c 21.133076
_cell_angle_alpha 90.000000
_cell_angle_beta 90.000000
_cell_angle_gamma 90.000000
_cell_volume 6691.167696
_symmetry_space_group_name_H-M "F D D D"
_symmetry_group_IT_number 70
_space_group.IT_coordinate_system_code '2'
_symmetry_cell_setting 'orthorhombic'
loop_
_space_group_symop_operation_xyz
x,y,z
1/4-x,1/4-y,z
x,1/4-y,1/4-z
1/4-x,y,1/4-z
-x,-y,-z
3/4+x,3/4+y,-z
-x,3/4+y,3/4+z
3/4+x,-y,3/4+z
x,1/2+y,1/2+z
1/4-x,3/4-y,1/2+z
x,3/4-y,3/4-z
1/4-x,1/2+y,3/4-z
-x,1/2-y,1/2-z
3/4+x,1/4+y,1/2-z
-x,1/4+y,1/4+z
3/4+x,1/2-y,1/4+z
1/2+x,y,1/2+z
3/4-x,1/4-y,1/2+z
1/2+x,1/4-y,3/4-z
3/4-x,y,3/4-z
1/2-x,-y,1/2-z
1/4+x,3/4+y,1/2-z
1/2-x,3/4+y,1/4+z
1/4+x,-y,1/4+z
1/2+x,1/2+y,z
3/4-x,3/4-y,z
1/2+x,3/4-y,1/4-z
3/4-x,1/2+y,1/4-z
1/2-x,1/2-y,-z
1/4+x,1/4+y,-z
1/2-x,1/4+y,3/4+z
1/4+x,1/2-y,3/4+z
loop_
_atom_site_type_symbol
_atom_site_label
_atom_site_fract_x
_atom_site_fract_y
_atom_site_fract_z
Si Si1 0.752081 0.316686 0.389562
Si Si2 0.050253 0.336397 0.220471
Si Si3 0.380064 0.551376 0.298989
Si Si4 0.662880 0.068570 0.232653
Si Si5 0.979250 0.297793 0.090829
O O1 0.703443 0.375000 0.375000
O O2 0.875000 0.318912 0.375000
O O3 0.730200 0.309034 0.463799
O O4 0.716790 0.266680 0.347328
O O5 0.041752 0.401767 0.224835
O O6 0.981386 0.318444 0.161841
O O7 0.166168 0.317119 0.196645
O O8 0.375000 0.564074 0.375000
O O9 0.387842 0.485935 0.296740
O O10 0.283949 0.562466 0.249818
O O11 0.625000 0.125000 0.201855
O O12 0.615920 0.069329 0.302575
#
# Coordination Sequence:
#
# PCOD9516590 Si02
#       5
#    32  32  32  32  32
#     4  11  24  41  60 100 139 173 224 276 340 412
#     4  11  21  43  65  91 143 174 222 280 336 413
#     4  11  23  44  67  95 131 181 223 281 344 407
#     4  11  23  42  66  97 131 164 236 283 330 413
#     4  11  22  41  69  96 124 186 221 270 349 401
#
# _framework density 23.912120000000002
#
# number of rings (size 3 to 8) (size 9 to 14) (size 15 to 20)
#    0.000    1.000    6.000    1.800    0.000    2.000 
#   10.800    0.000    0.000    0.000    0.000    0.000 
#    0.000    0.000    0.000    0.000    0.000    0.000 
#
# Total GULP energy -223214.014094 kJ/mol
# GULP energy per Si atom -5580.350352 kJ/mol
# Density = 2.385770 g / cm^3
# Si number density = 23.912120 Si / 1000 Ang^3
#
#
#
# Elastic Constant Matrix: (Units=GPa)
#
#
# Indices 1 2 3 4 5 6 
#
# 1 17.8784 14.7508 8.2766 0.0000 0.0000 0.0000
# 2 14.7508 209.9507 26.3812 0.0000 0.0000 0.0000
# 3 8.2766 26.3812 84.7477 0.0000 0.0000 0.0000
# 4 0.0000 0.0000 0.0000 228.5636 0.0000 0.0000
# 5 0.0000 0.0000 0.0000 0.0000 22.3213 0.0000
# 6 0.0000 0.0000 0.0000 0.0000 0.0000 22.5934
#
#
#
# Elastic Compliance Matrix: (Units=1/GPa)
#
#
# Indices 1 2 3 4 5 6 
#
# 1 0.061217 -0.003694 -0.004829 0.000000 0.000000 0.000000
# 2 -0.003694 0.005180 -0.001252 0.000000 0.000000 0.000000
# 3 -0.004829 -0.001252 0.012661 0.000000 0.000000 0.000000
# 4 0.000000 0.000000 0.000000 0.004375 0.000000 0.000000
# 5 0.000000 0.000000 0.000000 0.000000 0.044800 0.000000
# 6 0.000000 0.000000 0.000000 0.000000 0.000000 0.044261
#
#
# Mechanical properties :
#
#
# Convention : Reuss Voigt Hill
#
# Bulk Modulus (GPa) = 16.80430 45.71044 31.25737
# Shear Modulus (GPa) = 23.59841 72.24019 47.91930
#
# Velocity S-wave (km/s) = 3.14487 5.50239 4.48143
# Velocity P-wave (km/s) = 4.49775 7.71530 6.31489
#
# Compressibility (1/GPa) = 0.05950859
#
# Stress axis : x y z
#
# Youngs Moduli (GPa) = 16.33541 193.05571 78.98318
#
# Poissons Ratio (x) = 0.71320 0.38137
# Poissons Ratio (y) = 0.06035 0.09886
# Poissons Ratio (z) = 0.07888 0.24164
#
# Static dielectric constant tensor:
#      x y z
#    x 1.819960 0.000000 0.000000 
#    y 0.000000 2.039070 0.000000 
#    z 0.000000 0.000000 1.659730 
# 
# From -- ./inp_files/51116.got.cif
#   From: 2010.05.17/outbox.cif.g08.bks.cpg/sg70_26_cif.got.tgz:51116.got - 2010.06.03 15:57:51.
