data_PCOD9516870
_publ_section_title
;
Structure prediction by ZEFSAII (Michael W. Deem and Ramdas Pophale) SiO2 
 PCOD9516870
Probable space group: F D D D
;
_chemical_formula_sum "Si O2"
_cell_formula_units_Z 144
_cell_length_a 15.886009
_cell_length_b 19.211875
_cell_length_c 20.651137
_cell_angle_alpha 90.000000
_cell_angle_beta 90.000000
_cell_angle_gamma 90.000000
_cell_volume 6302.727408
_symmetry_space_group_name_H-M "F D D D"
_symmetry_group_IT_number 70
_space_group.IT_coordinate_system_code '2'
_symmetry_cell_setting 'orthorhombic'
loop_
_space_group_symop_operation_xyz
x,y,z
1/4-x,1/4-y,z
x,1/4-y,1/4-z
1/4-x,y,1/4-z
-x,-y,-z
3/4+x,3/4+y,-z
-x,3/4+y,3/4+z
3/4+x,-y,3/4+z
x,1/2+y,1/2+z
1/4-x,3/4-y,1/2+z
x,3/4-y,3/4-z
1/4-x,1/2+y,3/4-z
-x,1/2-y,1/2-z
3/4+x,1/4+y,1/2-z
-x,1/4+y,1/4+z
3/4+x,1/2-y,1/4+z
1/2+x,y,1/2+z
3/4-x,1/4-y,1/2+z
1/2+x,1/4-y,3/4-z
3/4-x,y,3/4-z
1/2-x,-y,1/2-z
1/4+x,3/4+y,1/2-z
1/2-x,3/4+y,1/4+z
1/4+x,-y,1/4+z
1/2+x,1/2+y,z
3/4-x,3/4-y,z
1/2+x,3/4-y,1/4-z
3/4-x,1/2+y,1/4-z
1/2-x,1/2-y,-z
1/4+x,1/4+y,-z
1/2-x,1/4+y,3/4+z
1/4+x,1/2-y,3/4+z
loop_
_atom_site_type_symbol
_atom_site_label
_atom_site_fract_x
_atom_site_fract_y
_atom_site_fract_z
Si Si1 0.375000 0.875000 0.981299
Si Si2 0.236925 0.190427 0.172564
Si Si3 0.774073 0.894132 0.065564
Si Si4 0.250760 0.375000 0.375000
Si Si5 0.089418 0.005128 0.416042
Si Si6 0.875000 0.050162 0.875000
O O1 0.308583 0.907787 0.931147
O O2 0.407556 0.938220 0.026340
O O3 0.222973 0.125000 0.125000
O O4 0.254546 0.161006 0.243334
O O5 0.314580 0.237407 0.148031
O O6 0.160423 0.245071 0.177560
O O7 0.875000 0.875000 0.062829
O O8 0.781561 0.959893 0.112163
O O9 0.702349 0.844798 0.096845
O O10 0.197787 0.321975 0.418716
#
# Coordination Sequence:
#
# PCOD9516870 Si02
#       6
#    16  32  32  16  32  16
#     4  11  24  46  72 112 147 204 264 314 397 472
#     4  12  27  46  77 115 150 200 256 318 387 463
#     4  12  27  48  77 110 154 204 255 314 386 457
#     4  11  26  44  76 109 154 196 260 331 386 467
#     4  12  24  48  73 112 156 202 252 326 392 465
#     4  12  27  50  78 113 154 206 256 318 386 461
#
# _framework density 22.847252999999998
#
# number of rings (size 3 to 8) (size 9 to 14) (size 15 to 20)
#    0.000    0.222    4.444    3.667    3.111    8.889 
#    0.000    0.000    0.000    0.000    0.000    0.000 
#    0.000    0.000    0.000    0.000    0.000    0.000 
#
# Total GULP energy -200680.586376 kJ/mol
# GULP energy per Si atom -5574.460733 kJ/mol
# Density = 2.279525 g / cm^3
# Si number density = 22.847253 Si / 1000 Ang^3
#
#
#
# Elastic Constant Matrix: (Units=GPa)
#
#
# Indices 1 2 3 4 5 6 
#
# 1 117.0691 80.1120 44.7532 0.0000 0.0000 0.0000
# 2 80.1120 121.1236 61.5090 0.0000 0.0000 0.0000
# 3 44.7532 61.5090 107.1748 0.0000 0.0000 0.0000
# 4 0.0000 0.0000 0.0000 5.9767 0.0000 0.0000
# 5 0.0000 0.0000 0.0000 0.0000 47.7712 0.0000
# 6 0.0000 0.0000 0.0000 0.0000 0.0000 37.6831
#
#
#
# Elastic Compliance Matrix: (Units=1/GPa)
#
#
# Indices 1 2 3 4 5 6 
#
# 1 0.015658 -0.009930 -0.000839 0.000000 0.000000 0.000000
# 2 -0.009930 0.017950 -0.006155 0.000000 0.000000 0.000000
# 3 -0.000839 -0.006155 0.013213 0.000000 0.000000 0.000000
# 4 0.000000 0.000000 0.000000 0.167317 0.000000 0.000000
# 5 0.000000 0.000000 0.000000 0.000000 0.020933 0.000000
# 6 0.000000 0.000000 0.000000 0.000000 0.000000 0.026537
#
#
# Mechanical properties :
#
#
# Convention : Reuss Voigt Hill
#
# Bulk Modulus (GPa) = 77.08767 79.79066 78.43917
# Shear Modulus (GPa) = 16.67885 28.88574 22.78229
#
# Velocity S-wave (km/s) = 2.70481 3.55955 3.16120
# Velocity P-wave (km/s) = 6.60063 7.20370 6.90875
#
# Compressibility (1/GPa) = 0.01297224
#
# Stress axis : x y z
#
# Youngs Moduli (GPa) = 63.86423 55.71176 75.68073
#
# Poissons Ratio (x) = 0.55323 0.06352
# Poissons Ratio (y) = 0.63419 0.46581
# Poissons Ratio (z) = 0.05360 0.34290
#
# Static dielectric constant tensor:
#      x y z
#    x 1.960240 0.000000 0.000000 
#    y 0.000000 1.907080 0.000000 
#    z 0.000000 0.000000 1.818230 
# 
# From -- ./inp_files/43615.got.cif
#   From: 2010.05.17/outbox.cif.g08.bks.cpg/sg70_22_cif.got.tgz:43615.got - 2010.06.03 15:57:51.
