data_PCOD9516170
_publ_section_title
;
Structure prediction by ZEFSAII (Michael W. Deem and Ramdas Pophale) SiO2 
 PCOD9516170
Probable space group: F D D D
;
_chemical_formula_sum "Si O2"
_cell_formula_units_Z 168
_cell_length_a 25.945839
_cell_length_b 16.441114
_cell_length_c 18.345360
_cell_angle_alpha 90.000000
_cell_angle_beta 90.000000
_cell_angle_gamma 90.000000
_cell_volume 7825.736093
_symmetry_space_group_name_H-M "F D D D"
_symmetry_group_IT_number 70
_space_group.IT_coordinate_system_code '2'
_symmetry_cell_setting 'orthorhombic'
loop_
_space_group_symop_operation_xyz
x,y,z
1/4-x,1/4-y,z
x,1/4-y,1/4-z
1/4-x,y,1/4-z
-x,-y,-z
3/4+x,3/4+y,-z
-x,3/4+y,3/4+z
3/4+x,-y,3/4+z
x,1/2+y,1/2+z
1/4-x,3/4-y,1/2+z
x,3/4-y,3/4-z
1/4-x,1/2+y,3/4-z
-x,1/2-y,1/2-z
3/4+x,1/4+y,1/2-z
-x,1/4+y,1/4+z
3/4+x,1/2-y,1/4+z
1/2+x,y,1/2+z
3/4-x,1/4-y,1/2+z
1/2+x,1/4-y,3/4-z
3/4-x,y,3/4-z
1/2-x,-y,1/2-z
1/4+x,3/4+y,1/2-z
1/2-x,3/4+y,1/4+z
1/4+x,-y,1/4+z
1/2+x,1/2+y,z
3/4-x,3/4-y,z
1/2+x,3/4-y,1/4-z
3/4-x,1/2+y,1/4-z
1/2-x,1/2-y,-z
1/4+x,1/4+y,-z
1/2-x,1/4+y,3/4+z
1/4+x,1/2-y,3/4+z
loop_
_atom_site_type_symbol
_atom_site_label
_atom_site_fract_x
_atom_site_fract_y
_atom_site_fract_z
Si Si1 0.980296 0.944353 0.566514
Si Si2 0.563549 0.503475 0.011184
Si Si3 0.375000 0.375000 0.875000
Si Si4 0.836763 0.311751 0.760176
Si Si5 0.635738 0.777438 0.375838
Si Si6 0.179483 0.835345 0.159730
O O1 0.946241 0.871921 0.536928
O O2 0.028775 0.898470 0.599511
O O3 0.944147 0.992979 0.623986
O O4 0.000000 0.000000 0.500000
O O5 0.588094 0.568212 0.071093
O O6 0.575213 0.412814 0.039592
O O7 0.500000 0.500000 0.000000
O O8 0.597298 0.509259 0.936161
O O9 0.875000 0.375000 0.798752
O O10 0.866636 0.252198 0.705099
O O11 0.803670 0.250647 0.807031
O O12 0.635008 0.875000 0.375000
O O13 0.125000 0.817340 0.125000
#
# Coordination Sequence:
#
# PCOD9516170 Si02
#       6
#    32  32   8  32  32  32
#     4  11  27  42  72 108 145 194 249 307 378 454
#     4  12  29  49  78 112 151 202 253 318 381 455
#     4  12  32  52  80 116 158 204 266 316 398 484
#     4  10  23  44  67 101 140 184 242 296 369 442
#     4  11  24  47  74 106 146 199 249 310 380 448
#     4  12  25  45  69 105 148 189 248 310 368 450
#
# _framework density 21.467628999999999
#
# number of rings (size 3 to 8) (size 9 to 14) (size 15 to 20)
#    0.000    0.762    2.857    3.429   10.667    3.429 
#    0.000    0.000    0.000    0.000    0.000    0.000 
#    0.000    0.000    0.000    0.000    0.000    0.000 
#
# Total GULP energy -234088.357617 kJ/mol
# GULP energy per Si atom -5573.532324 kJ/mol
# Density = 2.141877 g / cm^3
# Si number density = 21.467629 Si / 1000 Ang^3
#
#
#
# Elastic Constant Matrix: (Units=GPa)
#
#
# Indices 1 2 3 4 5 6 
#
# 1 127.8842 28.9600 36.5490 0.0000 0.0000 0.0000
# 2 28.9600 139.2488 23.7131 0.0000 0.0000 0.0000
# 3 36.5490 23.7131 70.8738 0.0000 0.0000 0.0000
# 4 0.0000 0.0000 0.0000 19.7824 0.0000 0.0000
# 5 0.0000 0.0000 0.0000 0.0000 20.6519 0.0000
# 6 0.0000 0.0000 0.0000 0.0000 0.0000 -33.3789
#
#
#
# Elastic Compliance Matrix: (Units=1/GPa)
#
#
# Indices 1 2 3 4 5 6 
#
# 1 0.009354 -0.001192 -0.004425 0.000000 0.000000 0.000000
# 2 -0.001192 0.007767 -0.001984 0.000000 0.000000 0.000000
# 3 -0.004425 -0.001984 0.017055 0.000000 0.000000 0.000000
# 4 0.000000 0.000000 0.000000 0.050550 0.000000 0.000000
# 5 0.000000 0.000000 0.000000 0.000000 0.048422 0.000000
# 6 0.000000 0.000000 0.000000 0.000000 0.000000 -0.029959
#
#
# Mechanical properties :
#
#
# Convention : Reuss Voigt Hill
#
# Bulk Modulus (GPa) = 52.70202 57.38344 55.04273
# Shear Modulus (GPa) = 40.09096 17.99672 29.04384
#
# Velocity S-wave (km/s) = 4.32615 2.89851 3.68219
# Velocity P-wave (km/s) = 7.03967 6.16361 6.61616
#
# Compressibility (1/GPa) = 0.01897460
#
# Stress axis : x y z
#
# Youngs Moduli (GPa) = 106.90437 128.74741 58.63240
#
# Poissons Ratio (x) = 0.15345 0.25945
# Poissons Ratio (y) = 0.12741 0.11633
# Poissons Ratio (z) = 0.47306 0.25545
#
# Static dielectric constant tensor:
#      x y z
#    x 1.822470 0.000000 0.000000 
#    y 0.000000 1.927660 0.000000 
#    z 0.000000 0.000000 1.809330 
# 
# From -- ./inp_files/46773.got.cif
#   From: 2010.05.17/outbox.cif.g08.bks.cpg/sg70_24_cif.got.tgz:46773.got - 2010.06.03 15:57:51.
