data_PCOD9516143
_publ_section_title
;
Structure prediction by ZEFSAII (Michael W. Deem and Ramdas Pophale) SiO2 
 PCOD9516143
Probable space group: F D D D
;
_chemical_formula_sum "Si O2"
_cell_formula_units_Z 112
_cell_length_a 10.148305
_cell_length_b 33.723763
_cell_length_c 14.933903
_cell_angle_alpha 90.000000
_cell_angle_beta 90.000000
_cell_angle_gamma 90.000000
_cell_volume 5110.964517
_symmetry_space_group_name_H-M "F D D D"
_symmetry_group_IT_number 70
_space_group.IT_coordinate_system_code '2'
_symmetry_cell_setting 'orthorhombic'
loop_
_space_group_symop_operation_xyz
x,y,z
1/4-x,1/4-y,z
x,1/4-y,1/4-z
1/4-x,y,1/4-z
-x,-y,-z
3/4+x,3/4+y,-z
-x,3/4+y,3/4+z
3/4+x,-y,3/4+z
x,1/2+y,1/2+z
1/4-x,3/4-y,1/2+z
x,3/4-y,3/4-z
1/4-x,1/2+y,3/4-z
-x,1/2-y,1/2-z
3/4+x,1/4+y,1/2-z
-x,1/4+y,1/4+z
3/4+x,1/2-y,1/4+z
1/2+x,y,1/2+z
3/4-x,1/4-y,1/2+z
1/2+x,1/4-y,3/4-z
3/4-x,y,3/4-z
1/2-x,-y,1/2-z
1/4+x,3/4+y,1/2-z
1/2-x,3/4+y,1/4+z
1/4+x,-y,1/4+z
1/2+x,1/2+y,z
3/4-x,3/4-y,z
1/2+x,3/4-y,1/4-z
3/4-x,1/2+y,1/4-z
1/2-x,1/2-y,-z
1/4+x,1/4+y,-z
1/2-x,1/4+y,3/4+z
1/4+x,1/2-y,3/4+z
loop_
_atom_site_type_symbol
_atom_site_label
_atom_site_fract_x
_atom_site_fract_y
_atom_site_fract_z
Si Si1 0.375000 0.479698 0.875000
Si Si2 0.143107 0.419301 0.872915
Si Si3 0.021194 0.292748 0.704273
Si Si4 0.727190 0.306945 0.697105
O O1 0.255586 0.451279 0.849829
O O2 0.428949 0.510685 0.800852
O O3 0.197152 0.375000 0.875000
O O4 0.038004 0.423638 0.793365
O O5 0.078367 0.429664 0.967552
O O6 0.125000 0.289727 0.625000
O O7 0.878939 0.307187 0.669201
O O8 0.000000 0.250000 0.750000
O O9 0.625000 0.325177 0.625000
#
# Coordination Sequence:
#
# PCOD9516143 Si02
#       4
#    16  32  32  32
#     4  10  23  42  74 102 140 186 242 284 362 430
#     4  12  26  44  71 108 148 185 239 311 369 419
#     4  12  25  43  72 106 141 194 241 288 358 442
#     4  10  24  43  76  99 141 186 246 289 352 436
#
# _framework density 21.913671000000001
#
# number of rings (size 3 to 8) (size 9 to 14) (size 15 to 20)
#    0.857    0.000    2.857    3.857    4.000    3.429 
#    0.000    0.000    0.000    0.000    0.000    0.000 
#    0.000    0.000    0.000    0.000    0.000    0.000 
#
# Total GULP energy -156531.004263 kJ/mol
# GULP energy per Si atom -5590.393009 kJ/mol
# Density = 2.186379 g / cm^3
# Si number density = 21.913671 Si / 1000 Ang^3
#
#
#
# Elastic Constant Matrix: (Units=GPa)
#
#
# Indices 1 2 3 4 5 6 
#
# 1 157.8721 -9.1982 66.5258 0.0000 0.0000 0.0000
# 2 -9.1982 64.0226 24.5031 0.0000 0.0000 0.0000
# 3 66.5258 24.5031 141.3750 0.0000 0.0000 0.0000
# 4 0.0000 0.0000 0.0000 12.8284 0.0000 0.0000
# 5 0.0000 0.0000 0.0000 0.0000 13.4229 0.0000
# 6 0.0000 0.0000 0.0000 0.0000 0.0000 6.3561
#
#
#
# Elastic Compliance Matrix: (Units=1/GPa)
#
#
# Indices 1 2 3 4 5 6 
#
# 1 0.008377 0.002905 -0.004445 0.000000 0.000000 0.000000
# 2 0.002905 0.017736 -0.004441 0.000000 0.000000 0.000000
# 3 -0.004445 -0.004441 0.009935 0.000000 0.000000 0.000000
# 4 0.000000 0.000000 0.000000 0.077952 0.000000 0.000000
# 5 0.000000 0.000000 0.000000 0.000000 0.074500 0.000000
# 6 0.000000 0.000000 0.000000 0.000000 0.000000 0.157329
#
#
# Mechanical properties :
#
#
# Convention : Reuss Voigt Hill
#
# Bulk Modulus (GPa) = 41.51928 58.54790 50.03359
# Shear Modulus (GPa) = 13.66794 25.28409 19.47602
#
# Velocity S-wave (km/s) = 2.50014 3.40045 2.98444
# Velocity P-wave (km/s) = 5.22706 6.49561 5.89556
#
# Compressibility (1/GPa) = 0.02408520
#
# Stress axis : x y z
#
# Youngs Moduli (GPa) = 119.37960 56.38096 100.65600
#
# Poissons Ratio (x) = -0.16377 0.44743
# Poissons Ratio (y) = -0.34677 0.44701
# Poissons Ratio (z) = 0.53066 0.25039
#
# Static dielectric constant tensor:
#      x y z
#    x 1.836550 0.000000 0.000000 
#    y 0.000000 1.798570 0.000000 
#    z 0.000000 0.000000 1.786550 
# 
# From -- ./inp_files/33861.got.cif
#   From: 2010.05.17/outbox.cif.g08.bks.cpg/sg70_17_cif.got.tgz:33861.got - 2010.06.03 15:57:51.
