data_PCOD9516295
_publ_section_title
;
Structure prediction by ZEFSAII (Michael W. Deem and Ramdas Pophale) SiO2 
 PCOD9516295
Probable space group: F D D D
;
_chemical_formula_sum "Si O2"
_cell_formula_units_Z 136
_cell_length_a 19.312727
_cell_length_b 13.448785
_cell_length_c 25.155405
_cell_angle_alpha 90.000000
_cell_angle_beta 90.000000
_cell_angle_gamma 90.000000
_cell_volume 6533.681592
_symmetry_space_group_name_H-M "F D D D"
_symmetry_group_IT_number 70
_space_group.IT_coordinate_system_code '2'
_symmetry_cell_setting 'orthorhombic'
loop_
_space_group_symop_operation_xyz
x,y,z
1/4-x,1/4-y,z
x,1/4-y,1/4-z
1/4-x,y,1/4-z
-x,-y,-z
3/4+x,3/4+y,-z
-x,3/4+y,3/4+z
3/4+x,-y,3/4+z
x,1/2+y,1/2+z
1/4-x,3/4-y,1/2+z
x,3/4-y,3/4-z
1/4-x,1/2+y,3/4-z
-x,1/2-y,1/2-z
3/4+x,1/4+y,1/2-z
-x,1/4+y,1/4+z
3/4+x,1/2-y,1/4+z
1/2+x,y,1/2+z
3/4-x,1/4-y,1/2+z
1/2+x,1/4-y,3/4-z
3/4-x,y,3/4-z
1/2-x,-y,1/2-z
1/4+x,3/4+y,1/2-z
1/2-x,3/4+y,1/4+z
1/4+x,-y,1/4+z
1/2+x,1/2+y,z
3/4-x,3/4-y,z
1/2+x,3/4-y,1/4-z
3/4-x,1/2+y,1/4-z
1/2-x,1/2-y,-z
1/4+x,1/4+y,-z
1/2-x,1/4+y,3/4+z
1/4+x,1/2-y,3/4+z
loop_
_atom_site_type_symbol
_atom_site_label
_atom_site_fract_x
_atom_site_fract_y
_atom_site_fract_z
Si Si1 0.595209 0.375000 0.875000
Si Si2 0.625000 0.125000 0.211078
Si Si3 0.237163 0.493539 0.687694
Si Si4 0.449445 0.710105 0.893209
Si Si5 0.125000 0.125000 0.125000
Si Si6 0.174690 0.215810 0.435547
O O1 0.549196 0.293339 0.845326
O O2 0.639780 0.318764 0.919147
O O3 0.677451 0.190929 0.175754
O O4 0.669259 0.055866 0.251556
O O5 0.250000 0.500000 0.750000
O O6 0.231459 0.376276 0.678173
O O7 0.171780 0.554817 0.663358
O O8 0.375000 0.671435 0.875000
O O9 0.501769 0.718013 0.843802
O O10 0.125000 0.125000 0.414642
#
# Coordination Sequence:
#
# PCOD9516295 Si02
#       6
#    16  16  32  32   8  32
#     4  11  22  45  71 102 139 188 242 304 351 420
#     4  10  25  48  71 108 140 199 238 287 386 424
#     4  11  23  42  71 101 135 189 240 296 370 419
#     4  12  25  46  69 107 145 189 242 299 360 442
#     4  10  24  44  66 102 150 174 238 324 342 440
#     4  10  24  48  69 100 147 184 241 300 350 439
#
# _framework density 20.815217000000001
#
# number of rings (size 3 to 8) (size 9 to 14) (size 15 to 20)
#    0.706    0.471    3.529    1.765    3.294    2.824 
#    4.235    0.000    0.000    0.000    0.000    0.000 
#    0.000    0.000    0.000    0.000    0.000    0.000 
#
# Total GULP energy -189616.958648 kJ/mol
# GULP energy per Si atom -5576.969372 kJ/mol
# Density = 2.076784 g / cm^3
# Si number density = 20.815217 Si / 1000 Ang^3
#
#
#
# Elastic Constant Matrix: (Units=GPa)
#
#
# Indices 1 2 3 4 5 6 
#
# 1 115.1766 40.5080 59.2603 0.0000 0.0000 0.0000
# 2 40.5080 126.3640 65.4947 0.0000 0.0000 0.0000
# 3 59.2603 65.4947 164.1934 0.0000 0.0000 0.0000
# 4 0.0000 0.0000 0.0000 40.8902 0.0000 0.0000
# 5 0.0000 0.0000 0.0000 0.0000 26.8715 0.0000
# 6 0.0000 0.0000 0.0000 0.0000 0.0000 33.8151
#
#
#
# Elastic Compliance Matrix: (Units=1/GPa)
#
#
# Indices 1 2 3 4 5 6 
#
# 1 0.010995 -0.001850 -0.003230 0.000000 0.000000 0.000000
# 2 -0.001850 0.010288 -0.003436 0.000000 0.000000 0.000000
# 3 -0.003230 -0.003436 0.008627 0.000000 0.000000 0.000000
# 4 0.000000 0.000000 0.000000 0.024456 0.000000 0.000000
# 5 0.000000 0.000000 0.000000 0.000000 0.037214 0.000000
# 6 0.000000 0.000000 0.000000 0.000000 0.000000 0.029573
#
#
# Mechanical properties :
#
#
# Convention : Reuss Voigt Hill
#
# Bulk Modulus (GPa) = 77.66009 81.80665 79.73337
# Shear Modulus (GPa) = 35.09339 36.34673 35.72006
#
# Velocity S-wave (km/s) = 4.11049 4.18324 4.14702
# Velocity P-wave (km/s) = 7.74070 7.91956 7.83064
#
# Compressibility (1/GPa) = 0.01287663
#
# Stress axis : x y z
#
# Youngs Moduli (GPa) = 90.94939 97.20456 115.91922
#
# Poissons Ratio (x) = 0.17987 0.37444
# Poissons Ratio (y) = 0.16830 0.39827
# Poissons Ratio (z) = 0.29379 0.33397
#
# Static dielectric constant tensor:
#      x y z
#    x 1.769720 0.000000 0.000000 
#    y 0.000000 1.770310 0.000000 
#    z 0.000000 0.000000 1.760620 
# 
# From -- ./inp_files/51046.got.cif
#   From: 2010.05.17/outbox.cif.g08.bks.cpg/sg70_26_cif.got.tgz:51046.got - 2010.06.03 15:57:51.
