data_PCOD9516179
_publ_section_title
;
Structure prediction by ZEFSAII (Michael W. Deem and Ramdas Pophale) SiO2 
 PCOD9516179
Probable space group: F D D D
;
_chemical_formula_sum "Si O2"
_cell_formula_units_Z 112
_cell_length_a 15.554958
_cell_length_b 14.208053
_cell_length_c 20.891736
_cell_angle_alpha 90.000000
_cell_angle_beta 90.000000
_cell_angle_gamma 90.000000
_cell_volume 4617.192064
_symmetry_space_group_name_H-M "F D D D"
_symmetry_group_IT_number 70
_space_group.IT_coordinate_system_code '2'
_symmetry_cell_setting 'orthorhombic'
loop_
_space_group_symop_operation_xyz
x,y,z
1/4-x,1/4-y,z
x,1/4-y,1/4-z
1/4-x,y,1/4-z
-x,-y,-z
3/4+x,3/4+y,-z
-x,3/4+y,3/4+z
3/4+x,-y,3/4+z
x,1/2+y,1/2+z
1/4-x,3/4-y,1/2+z
x,3/4-y,3/4-z
1/4-x,1/2+y,3/4-z
-x,1/2-y,1/2-z
3/4+x,1/4+y,1/2-z
-x,1/4+y,1/4+z
3/4+x,1/2-y,1/4+z
1/2+x,y,1/2+z
3/4-x,1/4-y,1/2+z
1/2+x,1/4-y,3/4-z
3/4-x,y,3/4-z
1/2-x,-y,1/2-z
1/4+x,3/4+y,1/2-z
1/2-x,3/4+y,1/4+z
1/4+x,-y,1/4+z
1/2+x,1/2+y,z
3/4-x,3/4-y,z
1/2+x,3/4-y,1/4-z
3/4-x,1/2+y,1/4-z
1/2-x,1/2-y,-z
1/4+x,1/4+y,-z
1/2-x,1/4+y,3/4+z
1/4+x,1/2-y,3/4+z
loop_
_atom_site_type_symbol
_atom_site_label
_atom_site_fract_x
_atom_site_fract_y
_atom_site_fract_z
Si Si1 0.275453 0.625000 0.625000
Si Si2 0.256657 0.274164 0.754984
Si Si3 0.419049 0.575895 0.444080
Si Si4 0.417355 0.282441 0.132198
O O1 0.225298 0.650916 0.688927
O O2 0.340940 0.711183 0.619457
O O3 0.153945 0.280116 0.738961
O O4 0.294157 0.172596 0.775627
O O5 0.297024 0.304165 0.688150
O O6 0.375000 0.599005 0.375000
O O7 0.499034 0.507964 0.424839
O O8 0.375000 0.375000 0.160582
#
# Coordination Sequence:
#
# PCOD9516179 Si02
#       4
#    16  32  32  32
#     4  12  24  42  70 102 134 184 236 278 368 404
#     4  11  23  44  70 104 138 186 234 293 349 427
#     4  10  23  44  71 103 143 185 235 290 358 419
#     4  11  24  44  69 101 143 183 239 291 350 428
#
# _framework density 24.257168
#
# number of rings (size 3 to 8) (size 9 to 14) (size 15 to 20)
#    0.000    1.143    5.714    0.000    0.000    4.571 
#    5.143    5.000    0.000    0.000    0.000    0.000 
#    0.000    0.000    0.000    0.000    0.000    0.000 
#
# Total GULP energy -156554.321273 kJ/mol
# GULP energy per Si atom -5591.225760 kJ/mol
# Density = 2.420196 g / cm^3
# Si number density = 24.257168 Si / 1000 Ang^3
#
#
#
# Elastic Constant Matrix: (Units=GPa)
#
#
# Indices 1 2 3 4 5 6 
#
# 1 123.5507 35.1729 34.6682 0.0000 0.0000 0.0000
# 2 35.1729 97.9675 11.0956 0.0000 0.0000 0.0000
# 3 34.6682 11.0956 136.2765 0.0000 0.0000 0.0000
# 4 0.0000 0.0000 0.0000 31.3679 0.0000 0.0000
# 5 0.0000 0.0000 0.0000 0.0000 28.0446 0.0000
# 6 0.0000 0.0000 0.0000 0.0000 0.0000 40.4754
#
#
#
# Elastic Compliance Matrix: (Units=1/GPa)
#
#
# Indices 1 2 3 4 5 6 
#
# 1 0.009620 -0.003206 -0.002186 0.000000 0.000000 0.000000
# 2 -0.003206 0.011371 -0.000110 0.000000 0.000000 0.000000
# 3 -0.002186 -0.000110 0.007903 0.000000 0.000000 0.000000
# 4 0.000000 0.000000 0.000000 0.031880 0.000000 0.000000
# 5 0.000000 0.000000 0.000000 0.000000 0.035657 0.000000
# 6 0.000000 0.000000 0.000000 0.000000 0.000000 0.024706
#
#
# Mechanical properties :
#
#
# Convention : Reuss Voigt Hill
#
# Bulk Modulus (GPa) = 55.90039 57.74088 56.82063
# Shear Modulus (GPa) = 36.20402 38.43478 37.31940
#
# Velocity S-wave (km/s) = 3.86749 3.98486 3.92661
# Velocity P-wave (km/s) = 6.56035 6.71025 6.63572
#
# Compressibility (1/GPa) = 0.01788896
#
# Stress axis : x y z
#
# Youngs Moduli (GPa) = 103.94928 87.94239 126.53154
#
# Poissons Ratio (x) = 0.28197 0.27663
# Poissons Ratio (y) = 0.33329 0.01394
# Poissons Ratio (z) = 0.22726 0.00969
#
# Static dielectric constant tensor:
#      x y z
#    x 2.009740 0.000000 0.000000 
#    y 0.000000 1.734640 0.000000 
#    z 0.000000 0.000000 1.981110 
# 
# From -- ./inp_files/25204.got.cif
#   From: 2010.05.17/outbox.cif.g08.bks.cpg/sg70_13_cif.got.tgz:25204.got - 2010.06.03 15:57:51.
