data_PCOD9516233
_publ_section_title
;
Structure prediction by ZEFSAII (Michael W. Deem and Ramdas Pophale) SiO2 
 PCOD9516233
Probable space group: F D D D
;
_chemical_formula_sum "Si O2"
_cell_formula_units_Z 168
_cell_length_a 12.811149
_cell_length_b 29.836692
_cell_length_c 20.440740
_cell_angle_alpha 90.000000
_cell_angle_beta 90.000000
_cell_angle_gamma 90.000000
_cell_volume 7813.315612
_symmetry_space_group_name_H-M "F D D D"
_symmetry_group_IT_number 70
_space_group.IT_coordinate_system_code '2'
_symmetry_cell_setting 'orthorhombic'
loop_
_space_group_symop_operation_xyz
x,y,z
1/4-x,1/4-y,z
x,1/4-y,1/4-z
1/4-x,y,1/4-z
-x,-y,-z
3/4+x,3/4+y,-z
-x,3/4+y,3/4+z
3/4+x,-y,3/4+z
x,1/2+y,1/2+z
1/4-x,3/4-y,1/2+z
x,3/4-y,3/4-z
1/4-x,1/2+y,3/4-z
-x,1/2-y,1/2-z
3/4+x,1/4+y,1/2-z
-x,1/4+y,1/4+z
3/4+x,1/2-y,1/4+z
1/2+x,y,1/2+z
3/4-x,1/4-y,1/2+z
1/2+x,1/4-y,3/4-z
3/4-x,y,3/4-z
1/2-x,-y,1/2-z
1/4+x,3/4+y,1/2-z
1/2-x,3/4+y,1/4+z
1/4+x,-y,1/4+z
1/2+x,1/2+y,z
3/4-x,3/4-y,z
1/2+x,3/4-y,1/4-z
3/4-x,1/2+y,1/4-z
1/2-x,1/2-y,-z
1/4+x,1/4+y,-z
1/2-x,1/4+y,3/4+z
1/4+x,1/2-y,3/4+z
loop_
_atom_site_type_symbol
_atom_site_label
_atom_site_fract_x
_atom_site_fract_y
_atom_site_fract_z
Si Si1 0.875000 0.375000 0.875000
Si Si2 0.821691 0.313140 0.194377
Si Si3 0.731513 0.417830 0.418869
Si Si4 0.046558 0.361819 0.974429
Si Si5 0.486622 0.639826 0.378492
Si Si6 0.576659 0.774622 0.301343
O O1 0.794810 0.350254 0.826659
O O2 0.808865 0.324066 0.270923
O O3 0.733222 0.342228 0.158874
O O4 0.829585 0.260295 0.186308
O O5 0.925999 0.332199 0.159466
O O6 0.760501 0.375000 0.375000
O O7 0.617388 0.403447 0.448499
O O8 0.723947 0.460037 0.370130
O O9 0.126923 0.320500 0.977124
O O10 0.996399 0.368682 0.045168
O O11 0.375000 0.662987 0.375000
O O12 0.500000 0.750000 0.250000
#
# Coordination Sequence:
#
# PCOD9516233 Si02
#       6
#     8  32  32  32  32  32
#     4  12  20  44  76 104 130 204 242 292 372 442
#     4  11  25  43  71 106 136 195 235 298 378 426
#     4  10  23  48  71 103 144 190 247 301 365 452
#     4  11  23  47  74 102 146 194 249 298 365 466
#     4  11  23  44  70 102 145 188 238 289 366 446
#     4  11  25  45  69 107 144 184 241 319 370 427
#
# _framework density 21.501754999999999
#
# number of rings (size 3 to 8) (size 9 to 14) (size 15 to 20)
#    0.000    1.143    4.762    2.286   10.667    0.762 
#    1.714    0.952    0.000    0.000    0.000    0.000 
#    0.000    0.000    0.000    0.000    0.000    0.000 
#
# Total GULP energy -234424.334452 kJ/mol
# GULP energy per Si atom -5581.531773 kJ/mol
# Density = 2.145282 g / cm^3
# Si number density = 21.501755 Si / 1000 Ang^3
#
#
#
# Elastic Constant Matrix: (Units=GPa)
#
#
# Indices 1 2 3 4 5 6 
#
# 1 95.7244 0.3172 51.0928 0.0000 0.0000 0.0000
# 2 0.3172 72.5749 46.1574 0.0000 0.0000 0.0000
# 3 51.0928 46.1574 207.0140 0.0000 0.0000 0.0000
# 4 0.0000 0.0000 0.0000 33.1587 0.0000 0.0000
# 5 0.0000 0.0000 0.0000 0.0000 56.5219 0.0000
# 6 0.0000 0.0000 0.0000 0.0000 0.0000 24.8982
#
#
#
# Elastic Compliance Matrix: (Units=1/GPa)
#
#
# Indices 1 2 3 4 5 6 
#
# 1 0.012324 0.002191 -0.003530 0.000000 0.000000 0.000000
# 2 0.002191 0.016445 -0.004208 0.000000 0.000000 0.000000
# 3 -0.003530 -0.004208 0.006640 0.000000 0.000000 0.000000
# 4 0.000000 0.000000 0.000000 0.030158 0.000000 0.000000
# 5 0.000000 0.000000 0.000000 0.000000 0.017692 0.000000
# 6 0.000000 0.000000 0.000000 0.000000 0.000000 0.040164
#
#
# Mechanical properties :
#
#
# Convention : Reuss Voigt Hill
#
# Bulk Modulus (GPa) = 41.12514 63.38312 52.25413
# Shear Modulus (GPa) = 35.05795 41.43215 38.24505
#
# Velocity S-wave (km/s) = 4.04229 4.39443 4.22203
# Velocity P-wave (km/s) = 6.39959 7.43573 6.93703
#
# Compressibility (1/GPa) = 0.02431603
#
# Stress axis : x y z
#
# Youngs Moduli (GPa) = 81.14499 60.80763 150.60185
#
# Poissons Ratio (x) = -0.13325 0.53165
# Poissons Ratio (y) = -0.17781 0.63367
# Poissons Ratio (z) = 0.28646 0.25585
#
# Static dielectric constant tensor:
#      x y z
#    x 1.863020 0.000000 0.000000 
#    y 0.000000 1.796380 0.000000 
#    z 0.000000 0.000000 1.817880 
# 
# From -- ./inp_files/42960.got.cif
#   From: 2010.05.17/outbox.cif.g08.bks.cpg/sg70_22_cif.got.tgz:42960.got - 2010.06.03 15:57:51.
