data_PCOD9516300
_publ_section_title
;
Structure prediction by ZEFSAII (Michael W. Deem and Ramdas Pophale) SiO2 
 PCOD9516300
Probable space group: F D D D
;
_chemical_formula_sum "Si O2"
_cell_formula_units_Z 176
_cell_length_a 16.878596
_cell_length_b 19.126863
_cell_length_c 21.698327
_cell_angle_alpha 90.000000
_cell_angle_beta 90.000000
_cell_angle_gamma 90.000000
_cell_volume 7004.970573
_symmetry_space_group_name_H-M "F D D D"
_symmetry_group_IT_number 70
_space_group.IT_coordinate_system_code '2'
_symmetry_cell_setting 'orthorhombic'
loop_
_space_group_symop_operation_xyz
x,y,z
1/4-x,1/4-y,z
x,1/4-y,1/4-z
1/4-x,y,1/4-z
-x,-y,-z
3/4+x,3/4+y,-z
-x,3/4+y,3/4+z
3/4+x,-y,3/4+z
x,1/2+y,1/2+z
1/4-x,3/4-y,1/2+z
x,3/4-y,3/4-z
1/4-x,1/2+y,3/4-z
-x,1/2-y,1/2-z
3/4+x,1/4+y,1/2-z
-x,1/4+y,1/4+z
3/4+x,1/2-y,1/4+z
1/2+x,y,1/2+z
3/4-x,1/4-y,1/2+z
1/2+x,1/4-y,3/4-z
3/4-x,y,3/4-z
1/2-x,-y,1/2-z
1/4+x,3/4+y,1/2-z
1/2-x,3/4+y,1/4+z
1/4+x,-y,1/4+z
1/2+x,1/2+y,z
3/4-x,3/4-y,z
1/2+x,3/4-y,1/4-z
3/4-x,1/2+y,1/4-z
1/2-x,1/2-y,-z
1/4+x,1/4+y,-z
1/2-x,1/4+y,3/4+z
1/4+x,1/2-y,3/4+z
loop_
_atom_site_type_symbol
_atom_site_label
_atom_site_fract_x
_atom_site_fract_y
_atom_site_fract_z
Si Si1 0.737782 0.752991 0.405833
Si Si2 0.624651 0.875000 0.375000
Si Si3 0.273814 0.501267 0.677316
Si Si4 0.625000 0.824469 0.125000
Si Si5 0.386665 0.798656 0.748797
Si Si6 0.125000 0.125000 0.957353
Si Si7 0.461016 0.182502 0.467547
O O1 0.685453 0.822930 0.409310
O O2 0.813115 0.761529 0.448505
O O3 0.689525 0.691524 0.438552
O O4 0.762788 0.732384 0.338687
O O5 0.567682 0.824241 0.336202
O O6 0.250000 0.500000 0.750000
O O7 0.200864 0.477673 0.633151
O O8 0.340132 0.440902 0.670781
O O9 0.599873 0.876497 0.183732
O O10 0.375000 0.875000 0.774219
O O11 0.320849 0.740492 0.735152
O O12 0.205691 0.099895 0.990770
#
# Coordination Sequence:
#
# PCOD9516300 Si02
#       7
#    32  16  32  16  32  16  32
#     4  11  24  42  65 104 137 176 230 287 353 426
#     4  12  26  45  71 106 146 182 250 298 366 438
#     4  11  27  47  74 104 146 198 248 317 373 447
#     4  10  24  45  71  98 142 194 244 292 374 439
#     4  11  25  40  70 103 137 180 227 285 359 428
#     4  10  24  44  68 103 134 190 237 292 376 424
#     4  11  21  46  68 100 140 185 228 296 358 432
#
# _framework density 25.125015999999999
#
# number of rings (size 3 to 8) (size 9 to 14) (size 15 to 20)
#    0.000    1.091    3.636    1.091    6.364    2.545 
#    0.000    0.000    0.000    0.000    0.000    0.000 
#    0.000    0.000    0.000    0.000    0.000    0.000 
#
# Total GULP energy -245348.821117 kJ/mol
# GULP energy per Si atom -5576.109571 kJ/mol
# Density = 2.506783 g / cm^3
# Si number density = 25.125016 Si / 1000 Ang^3
#
#
#
# Elastic Constant Matrix: (Units=GPa)
#
#
# Indices 1 2 3 4 5 6 
#
# 1 138.8842 43.9922 26.9020 0.0000 0.0000 0.0000
# 2 43.9922 98.0586 10.7606 0.0000 0.0000 0.0000
# 3 26.9020 10.7606 37.2900 0.0000 0.0000 0.0000
# 4 0.0000 0.0000 0.0000 -30.9051 0.0000 0.0000
# 5 0.0000 0.0000 0.0000 0.0000 36.7265 0.0000
# 6 0.0000 0.0000 0.0000 0.0000 0.0000 64.9259
#
#
#
# Elastic Compliance Matrix: (Units=1/GPa)
#
#
# Indices 1 2 3 4 5 6 
#
# 1 0.009465 -0.003611 -0.005786 0.000000 0.000000 0.000000
# 2 -0.003611 0.011909 -0.000831 0.000000 0.000000 0.000000
# 3 -0.005786 -0.000831 0.031231 0.000000 0.000000 0.000000
# 4 0.000000 0.000000 0.000000 -0.032357 0.000000 0.000000
# 5 0.000000 0.000000 0.000000 0.000000 0.027228 0.000000
# 6 0.000000 0.000000 0.000000 0.000000 0.000000 0.015402
#
#
# Mechanical properties :
#
#
# Convention : Reuss Voigt Hill
#
# Bulk Modulus (GPa) = 31.10639 48.61581 39.86110
# Shear Modulus (GPa) = 53.16204 26.98801 40.07503
#
# Velocity S-wave (km/s) = 4.60488 3.28098 3.99811
# Velocity P-wave (km/s) = 6.37815 5.80901 6.10022
#
# Compressibility (1/GPa) = 0.03214774
#
# Stress axis : x y z
#
# Youngs Moduli (GPa) = 105.65319 83.96756 32.01945
#
# Poissons Ratio (x) = 0.30323 0.18527
# Poissons Ratio (y) = 0.38155 0.02662
# Poissons Ratio (z) = 0.61132 0.06980
#
# Static dielectric constant tensor:
#      x y z
#    x 2.061360 0.000000 0.000000 
#    y 0.000000 2.047420 0.000000 
#    z 0.000000 0.000000 2.084380 
# 
# From -- ./inp_files/59498.got.cif
#   From: 2010.05.17/outbox.cif.g08.bks.cpg/sg70_30_cif.got.tgz:59498.got - 2010.06.03 15:57:51.
