data_PCOD9516345
_publ_section_title
;
Structure prediction by ZEFSAII (Michael W. Deem and Ramdas Pophale) SiO2 
 PCOD9516345
Probable space group: F D D D
;
_chemical_formula_sum "Si O2"
_cell_formula_units_Z 176
_cell_length_a 11.217296
_cell_length_b 22.141669
_cell_length_c 29.150030
_cell_angle_alpha 90.000000
_cell_angle_beta 90.000000
_cell_angle_gamma 90.000000
_cell_volume 7239.982897
_symmetry_space_group_name_H-M "F D D D"
_symmetry_group_IT_number 70
_space_group.IT_coordinate_system_code '2'
_symmetry_cell_setting 'orthorhombic'
loop_
_space_group_symop_operation_xyz
x,y,z
1/4-x,1/4-y,z
x,1/4-y,1/4-z
1/4-x,y,1/4-z
-x,-y,-z
3/4+x,3/4+y,-z
-x,3/4+y,3/4+z
3/4+x,-y,3/4+z
x,1/2+y,1/2+z
1/4-x,3/4-y,1/2+z
x,3/4-y,3/4-z
1/4-x,1/2+y,3/4-z
-x,1/2-y,1/2-z
3/4+x,1/4+y,1/2-z
-x,1/4+y,1/4+z
3/4+x,1/2-y,1/4+z
1/2+x,y,1/2+z
3/4-x,1/4-y,1/2+z
1/2+x,1/4-y,3/4-z
3/4-x,y,3/4-z
1/2-x,-y,1/2-z
1/4+x,3/4+y,1/2-z
1/2-x,3/4+y,1/4+z
1/4+x,-y,1/4+z
1/2+x,1/2+y,z
3/4-x,3/4-y,z
1/2+x,3/4-y,1/4-z
3/4-x,1/2+y,1/4-z
1/2-x,1/2-y,-z
1/4+x,1/4+y,-z
1/2-x,1/4+y,3/4+z
1/4+x,1/2-y,3/4+z
loop_
_atom_site_type_symbol
_atom_site_label
_atom_site_fract_x
_atom_site_fract_y
_atom_site_fract_z
Si Si1 0.145948 0.059429 0.009641
Si Si2 0.253038 0.709913 0.101840
Si Si3 0.253239 0.095591 0.382818
Si Si4 0.451675 0.233097 0.676760
Si Si5 0.090039 0.223818 0.465780
Si Si6 0.625000 0.625000 0.707736
O O1 0.125000 0.125000 0.988494
O O2 0.055930 0.058203 0.052937
O O3 0.275929 0.037724 0.025211
O O4 0.112712 0.009184 0.971942
O O5 0.125000 0.722991 0.125000
O O6 0.357486 0.709669 0.139556
O O7 0.293648 0.760452 0.064468
O O8 0.231799 0.647230 0.074810
O O9 0.125000 0.125000 0.373675
O O10 0.375000 0.132335 0.375000
O O11 0.241897 0.068299 0.433604
O O12 0.262069 0.039743 0.348200
O O13 0.106771 0.183365 0.510489
#
# Coordination Sequence:
#
# PCOD9516345 Si02
#       6
#    32  32  32  32  32  16
#     4  11  24  45  73 105 145 190 252 318 376 456
#     4  11  26  46  72 106 153 199 250 309 392 479
#     4  11  22  44  73 108 150 196 255 326 398 475
#     4  10  24  46  71 105 142 193 249 308 381 469
#     4  11  25  47  74 111 145 193 264 316 395 472
#     4  12  25  48  74 110 154 202 244 330 398 471
#
# _framework density 24.309448
#
# number of rings (size 3 to 8) (size 9 to 14) (size 15 to 20)
#    0.000    1.091    2.727    2.455    0.000    8.727 
#    3.273    6.364    0.000    0.000    0.000    0.000 
#    0.000    0.000    0.000    0.000    0.000    0.000 
#
# Total GULP energy -246015.099107 kJ/mol
# GULP energy per Si atom -5591.252252 kJ/mol
# Density = 2.425412 g / cm^3
# Si number density = 24.309448 Si / 1000 Ang^3
#
#
#
# Elastic Constant Matrix: (Units=GPa)
#
#
# Indices 1 2 3 4 5 6 
#
# 1 153.7912 49.5805 55.1186 0.0000 0.0000 0.0000
# 2 49.5805 94.8620 29.3450 0.0000 0.0000 0.0000
# 3 55.1186 29.3450 123.9915 0.0000 0.0000 0.0000
# 4 0.0000 0.0000 0.0000 14.0091 0.0000 0.0000
# 5 0.0000 0.0000 0.0000 0.0000 28.6083 0.0000
# 6 0.0000 0.0000 0.0000 0.0000 0.0000 42.1270
#
#
#
# Elastic Compliance Matrix: (Units=1/GPa)
#
#
# Indices 1 2 3 4 5 6 
#
# 1 0.008764 -0.003642 -0.003034 0.000000 0.000000 0.000000
# 2 -0.003642 0.012888 -0.001431 0.000000 0.000000 0.000000
# 3 -0.003034 -0.001431 0.009752 0.000000 0.000000 0.000000
# 4 0.000000 0.000000 0.000000 0.071382 0.000000 0.000000
# 5 0.000000 0.000000 0.000000 0.000000 0.034955 0.000000
# 6 0.000000 0.000000 0.000000 0.000000 0.000000 0.023738
#
#
# Mechanical properties :
#
#
# Convention : Reuss Voigt Hill
#
# Bulk Modulus (GPa) = 65.83250 71.19255 68.51253
# Shear Modulus (GPa) = 27.35882 32.85557 30.10720
#
# Velocity S-wave (km/s) = 3.35840 3.68034 3.52305
# Velocity P-wave (km/s) = 6.49448 6.88545 6.69282
#
# Compressibility (1/GPa) = 0.01519006
#
# Stress axis : x y z
#
# Youngs Moduli (GPa) = 114.10584 77.59231 102.53830
#
# Poissons Ratio (x) = 0.28259 0.31109
# Poissons Ratio (y) = 0.41557 0.14675
# Poissons Ratio (z) = 0.34618 0.11105
#
# Static dielectric constant tensor:
#      x y z
#    x 32.450530 0.000000 0.000000 
#    y 0.000000 1.970330 0.000000 
#    z 0.000000 0.000000 1.963980 
# 
# From -- ./inp_files/64763.got.cif
#   From: 2010.05.17/outbox.cif.g08.bks.cpg/sg70_33_cif.got.tgz:64763.got - 2010.06.03 15:57:51.
