data_PCOD9516029
_publ_section_title
;
Structure prediction by ZEFSAII (Michael W. Deem and Ramdas Pophale) SiO2 
 PCOD9516029
Probable space group: F D D D
;
_chemical_formula_sum "Si O2"
_cell_formula_units_Z 160
_cell_length_a 19.228556
_cell_length_b 18.260534
_cell_length_c 19.707593
_cell_angle_alpha 90.000000
_cell_angle_beta 90.000000
_cell_angle_gamma 90.000000
_cell_volume 6919.802984
_symmetry_space_group_name_H-M "F D D D"
_symmetry_group_IT_number 70
_space_group.IT_coordinate_system_code '2'
_symmetry_cell_setting 'orthorhombic'
loop_
_space_group_symop_operation_xyz
x,y,z
1/4-x,1/4-y,z
x,1/4-y,1/4-z
1/4-x,y,1/4-z
-x,-y,-z
3/4+x,3/4+y,-z
-x,3/4+y,3/4+z
3/4+x,-y,3/4+z
x,1/2+y,1/2+z
1/4-x,3/4-y,1/2+z
x,3/4-y,3/4-z
1/4-x,1/2+y,3/4-z
-x,1/2-y,1/2-z
3/4+x,1/4+y,1/2-z
-x,1/4+y,1/4+z
3/4+x,1/2-y,1/4+z
1/2+x,y,1/2+z
3/4-x,1/4-y,1/2+z
1/2+x,1/4-y,3/4-z
3/4-x,y,3/4-z
1/2-x,-y,1/2-z
1/4+x,3/4+y,1/2-z
1/2-x,3/4+y,1/4+z
1/4+x,-y,1/4+z
1/2+x,1/2+y,z
3/4-x,3/4-y,z
1/2+x,3/4-y,1/4-z
3/4-x,1/2+y,1/4-z
1/2-x,1/2-y,-z
1/4+x,1/4+y,-z
1/2-x,1/4+y,3/4+z
1/4+x,1/2-y,3/4+z
loop_
_atom_site_type_symbol
_atom_site_label
_atom_site_fract_x
_atom_site_fract_y
_atom_site_fract_z
Si Si1 0.875000 0.875000 0.035704
Si Si2 0.211898 0.765613 0.071445
Si Si3 0.856550 0.654698 0.239158
Si Si4 0.718110 0.693805 0.174227
Si Si5 0.237445 0.413152 0.652808
Si Si6 0.031186 0.875000 0.375000
O O1 0.817950 0.828477 0.076416
O O2 0.828992 0.928845 0.989377
O O3 0.135541 0.787752 0.044794
O O4 0.236721 0.838971 0.108860
O O5 0.232175 0.696027 0.116851
O O6 0.250000 0.750000 0.000000
O O7 0.799402 0.693214 0.192830
O O8 0.810955 0.596597 0.281119
O O9 0.917973 0.624116 0.191218
O O10 0.705766 0.625000 0.125000
O O11 0.706386 0.770341 0.138807
#
# Coordination Sequence:
#
# PCOD9516029 Si02
#       6
#    16  32  32  32  32  16
#     4  10  27  44  72 110 142 185 250 286 366 430
#     4  10  24  43  71 104 138 193 235 297 356 431
#     4  10  23  45  72 104 144 187 240 294 368 424
#     4  11  25  45  71 106 143 193 233 301 355 435
#     4  11  26  45  72 104 147 189 238 305 354 437
#     4  10  22  46  73 101 146 184 240 296 364 432
#
# _framework density 23.122045
#
# number of rings (size 3 to 8) (size 9 to 14) (size 15 to 20)
#    0.000    1.600    1.000    0.900    5.600   16.000 
#    0.000    8.000    0.000    0.000    0.000    0.000 
#    0.000    0.000    0.000    0.000    0.000    0.000 
#
# Total GULP energy -223741.569267 kJ/mol
# GULP energy per Si atom -5593.539232 kJ/mol
# Density = 2.306942 g / cm^3
# Si number density = 23.122045 Si / 1000 Ang^3
#
#
#
# Elastic Constant Matrix: (Units=GPa)
#
#
# Indices 1 2 3 4 5 6 
#
# 1 118.5168 28.7339 25.0186 0.0000 0.0000 0.0000
# 2 28.7339 145.4471 46.8352 0.0000 0.0000 0.0000
# 3 25.0186 46.8352 84.2129 0.0000 0.0000 0.0000
# 4 0.0000 0.0000 0.0000 41.7267 0.0000 0.0000
# 5 0.0000 0.0000 0.0000 0.0000 -10.0880 0.0000
# 6 0.0000 0.0000 0.0000 0.0000 0.0000 18.1444
#
#
#
# Elastic Compliance Matrix: (Units=1/GPa)
#
#
# Indices 1 2 3 4 5 6 
#
# 1 0.009154 -0.001136 -0.002088 0.000000 0.000000 0.000000
# 2 -0.001136 0.008516 -0.004399 0.000000 0.000000 0.000000
# 3 -0.002088 -0.004399 0.014941 0.000000 0.000000 0.000000
# 4 0.000000 0.000000 0.000000 0.023965 0.000000 0.000000
# 5 0.000000 0.000000 0.000000 0.000000 -0.099128 0.000000
# 6 0.000000 0.000000 0.000000 0.000000 0.000000 0.055114
#
#
# Mechanical properties :
#
#
# Convention : Reuss Voigt Hill
#
# Bulk Modulus (GPa) = 57.58314 61.03912 59.31113
# Shear Modulus (GPa) = 148.82613 26.46256 87.64435
#
# Velocity S-wave (km/s) = 8.03151 3.38668 6.16339
# Velocity P-wave (km/s) = 10.53399 6.46133 8.73824
#
# Compressibility (1/GPa) = 0.01736619
#
# Stress axis : x y z
#
# Youngs Moduli (GPa) = 109.24467 117.42249 66.92871
#
# Poissons Ratio (x) = 0.13341 0.13972
# Poissons Ratio (y) = 0.12412 0.29441
# Poissons Ratio (z) = 0.22806 0.51652
#
# Static dielectric constant tensor:
#      x y z
#    x 1.901780 0.000000 0.000000 
#    y 0.000000 1.830970 0.000000 
#    z 0.000000 0.000000 1.893920 
# 
# From -- ./inp_files/44748.got.cif
#   From: 2010.05.17/outbox.cif.g08.bks.cpg/sg70_23_cif.got.tgz:44748.got - 2010.06.03 15:57:51.
