data_PCOD9516076
_publ_section_title
;
Structure prediction by ZEFSAII (Michael W. Deem and Ramdas Pophale) SiO2 
 PCOD9516076
Probable space group: F D D D
;
_chemical_formula_sum "Si O2"
_cell_formula_units_Z 176
_cell_length_a 27.328016
_cell_length_b 25.472542
_cell_length_c 11.231605
_cell_angle_alpha 90.000000
_cell_angle_beta 90.000000
_cell_angle_gamma 90.000000
_cell_volume 7818.477880
_symmetry_space_group_name_H-M "F D D D"
_symmetry_group_IT_number 70
_space_group.IT_coordinate_system_code '2'
_symmetry_cell_setting 'orthorhombic'
loop_
_space_group_symop_operation_xyz
x,y,z
1/4-x,1/4-y,z
x,1/4-y,1/4-z
1/4-x,y,1/4-z
-x,-y,-z
3/4+x,3/4+y,-z
-x,3/4+y,3/4+z
3/4+x,-y,3/4+z
x,1/2+y,1/2+z
1/4-x,3/4-y,1/2+z
x,3/4-y,3/4-z
1/4-x,1/2+y,3/4-z
-x,1/2-y,1/2-z
3/4+x,1/4+y,1/2-z
-x,1/4+y,1/4+z
3/4+x,1/2-y,1/4+z
1/2+x,y,1/2+z
3/4-x,1/4-y,1/2+z
1/2+x,1/4-y,3/4-z
3/4-x,y,3/4-z
1/2-x,-y,1/2-z
1/4+x,3/4+y,1/2-z
1/2-x,3/4+y,1/4+z
1/4+x,-y,1/4+z
1/2+x,1/2+y,z
3/4-x,3/4-y,z
1/2+x,3/4-y,1/4-z
3/4-x,1/2+y,1/4-z
1/2-x,1/2-y,-z
1/4+x,1/4+y,-z
1/2-x,1/4+y,3/4+z
1/4+x,1/2-y,3/4+z
loop_
_atom_site_type_symbol
_atom_site_label
_atom_site_fract_x
_atom_site_fract_y
_atom_site_fract_z
Si Si1 0.375000 0.792593 0.875000
Si Si2 0.480145 0.484343 0.796578
Si Si3 0.125000 0.267829 0.125000
Si Si4 0.981482 0.458083 0.906901
Si Si5 0.804490 0.074884 0.711082
Si Si6 0.625000 0.625000 0.834692
Si Si7 0.481346 0.384693 0.624376
O O1 0.321808 0.769013 0.868846
O O2 0.380152 0.826556 0.755432
O O3 0.424330 0.486212 0.842539
O O4 0.489440 0.536253 0.716070
O O5 0.521631 0.469245 0.893562
O O6 0.484616 0.436585 0.704383
O O7 0.104940 0.302421 0.235880
O O8 0.982813 0.404386 0.985841
O O9 0.000000 0.500000 0.000000
O O10 0.812156 0.125000 0.625000
O O11 0.771719 0.096145 0.821390
O O12 0.574041 0.615135 0.899115
#
# Coordination Sequence:
#
# PCOD9516076 Si02
#       7
#    16  32  16  32  32  16  32
#     4   9  18  32  53  88 115 144 204 257 314 359
#     4  10  23  40  60  91 130 164 214 265 324 390
#     4  12  26  40  64  94 123 180 208 259 339 389
#     4   9  19  37  59  89 121 161 202 258 319 384
#     4  10  24  45  62  92 132 168 224 275 317 393
#     4   9  18  30  57  86 110 152 197 260 315 364
#     4   9  20  39  63  88 123 164 213 263 321 385
#
# _framework density 22.510774999999999
#
# number of rings (size 3 to 8) (size 9 to 14) (size 15 to 20)
#    0.000    2.364    0.000    0.545    5.091    5.818 
#    0.000    6.364    0.000    0.000    0.000    0.000 
#    0.000    0.000    0.000    0.000    0.000    0.000 
#
# Total GULP energy -245115.564452 kJ/mol
# GULP energy per Si atom -5570.808283 kJ/mol
# Density = 2.245954 g / cm^3
# Si number density = 22.510775 Si / 1000 Ang^3
#
#
#
# Elastic Constant Matrix: (Units=GPa)
#
#
# Indices 1 2 3 4 5 6 
#
# 1 114.4295 12.8506 33.7148 0.0000 0.0000 0.0000
# 2 12.8506 40.5381 37.5155 0.0001 -0.0001 0.0000
# 3 33.7148 37.5155 117.7548 0.0000 0.0000 0.0001
# 4 0.0000 0.0001 0.0000 30.2760 0.0000 0.0000
# 5 0.0000 -0.0001 0.0000 0.0000 44.2701 0.0000
# 6 0.0000 0.0000 0.0001 0.0000 0.0000 28.3641
#
#
#
# Elastic Compliance Matrix: (Units=1/GPa)
#
#
# Indices 1 2 3 4 5 6 
#
# 1 0.009558 -0.000705 -0.002512 0.000000 0.000000 0.000000
# 2 -0.000705 0.035034 -0.010960 0.000000 0.000000 0.000000
# 3 -0.002512 -0.010960 0.012703 0.000000 0.000000 0.000000
# 4 0.000000 0.000000 0.000000 0.033029 0.000000 0.000000
# 5 0.000000 0.000000 0.000000 0.000000 0.022589 0.000000
# 6 0.000000 0.000000 0.000000 0.000000 0.000000 0.035256
#
#
# Mechanical properties :
#
#
# Convention : Reuss Voigt Hill
#
# Bulk Modulus (GPa) = 34.55214 48.98714 41.76964
# Shear Modulus (GPa) = 26.85711 33.15815 30.00763
#
# Velocity S-wave (km/s) = 3.45784 3.84212 3.65503
# Velocity P-wave (km/s) = 5.59685 6.44138 6.03391
#
# Compressibility (1/GPa) = 0.02894177
#
# Stress axis : x y z
#
# Youngs Moduli (GPa) = 104.62088 28.54355 78.72118
#
# Poissons Ratio (x) = 0.02013 0.19775
# Poissons Ratio (y) = 0.07379 0.86275
# Poissons Ratio (z) = 0.26280 0.31283
#
# Static dielectric constant tensor:
#      x y z
#    x 1.881350 0.000000 0.000000 
#    y 0.000000 1.873820 0.000000 
#    z 0.000000 0.000000 1.882070 
# 
# From -- ./inp_files/21214.got.cif
#   From: 2010.05.17/outbox.cif.g08.bks.cpg/sg70_11_cif.got.tgz:21214.got - 2010.06.03 15:57:51.
