data_PCOD9516243
_publ_section_title
;
Structure prediction by ZEFSAII (Michael W. Deem and Ramdas Pophale) SiO2 
 PCOD9516243
Probable space group: F D D D
;
_chemical_formula_sum "Si O2"
_cell_formula_units_Z 128
_cell_length_a 25.492101
_cell_length_b 23.488971
_cell_length_c 10.820094
_cell_angle_alpha 90.000000
_cell_angle_beta 90.000000
_cell_angle_gamma 90.000000
_cell_volume 6478.890738
_symmetry_space_group_name_H-M "F D D D"
_symmetry_group_IT_number 70
_space_group.IT_coordinate_system_code '2'
_symmetry_cell_setting 'orthorhombic'
loop_
_space_group_symop_operation_xyz
x,y,z
1/4-x,1/4-y,z
x,1/4-y,1/4-z
1/4-x,y,1/4-z
-x,-y,-z
3/4+x,3/4+y,-z
-x,3/4+y,3/4+z
3/4+x,-y,3/4+z
x,1/2+y,1/2+z
1/4-x,3/4-y,1/2+z
x,3/4-y,3/4-z
1/4-x,1/2+y,3/4-z
-x,1/2-y,1/2-z
3/4+x,1/4+y,1/2-z
-x,1/4+y,1/4+z
3/4+x,1/2-y,1/4+z
1/2+x,y,1/2+z
3/4-x,1/4-y,1/2+z
1/2+x,1/4-y,3/4-z
3/4-x,y,3/4-z
1/2-x,-y,1/2-z
1/4+x,3/4+y,1/2-z
1/2-x,3/4+y,1/4+z
1/4+x,-y,1/4+z
1/2+x,1/2+y,z
3/4-x,3/4-y,z
1/2+x,3/4-y,1/4-z
3/4-x,1/2+y,1/4-z
1/2-x,1/2-y,-z
1/4+x,1/4+y,-z
1/2-x,1/4+y,3/4+z
1/4+x,1/2-y,3/4+z
loop_
_atom_site_type_symbol
_atom_site_label
_atom_site_fract_x
_atom_site_fract_y
_atom_site_fract_z
Si Si1 0.184565 0.109899 0.978190
Si Si2 0.741842 0.957570 0.636406
Si Si3 0.843145 0.125000 0.125000
Si Si4 0.275263 0.009968 0.616468
Si Si5 0.125000 0.914487 0.125000
O O1 0.125000 0.125000 0.944285
O O2 0.228357 0.149162 0.914435
O O3 0.193725 0.045637 0.931983
O O4 0.189524 0.125000 0.125000
O O5 0.761839 0.979233 0.503022
O O6 0.679007 0.949491 0.625447
O O7 0.750000 0.000000 0.750000
O O8 0.808636 0.067894 0.130182
O O9 0.876003 0.128308 0.250080
O O10 0.250000 0.000000 0.750000
#
# Coordination Sequence:
#
# PCOD9516243 Si02
#       5
#    32  32  16  32  16
#     4  11  25  44  72 107 141 184 235 296 360 426
#     4  11  24  41  71  99 136 183 234 288 352 423
#     4  10  24  40  68  96 134 180 228 292 346 418
#     4  11  23  45  67  98 143 178 231 294 352 421
#     4  10  24  40  64 101 133 176 240 282 344 424
#
# _framework density 19.756468999999999
#
# number of rings (size 3 to 8) (size 9 to 14) (size 15 to 20)
#    0.000    1.250    2.500    3.000    8.750    2.000 
#    0.000    1.250    0.000    0.000    0.000    0.000 
#    0.000    0.000    0.000    0.000    0.000    0.000 
#
# Total GULP energy -178429.236371 kJ/mol
# GULP energy per Si atom -5575.913637 kJ/mol
# Density = 1.971150 g / cm^3
# Si number density = 19.756469 Si / 1000 Ang^3
#
#
#
# Elastic Constant Matrix: (Units=GPa)
#
#
# Indices 1 2 3 4 5 6 
#
# 1 88.7079 45.8679 36.8350 0.0000 0.0000 0.0000
# 2 45.8679 158.9789 56.3236 0.0000 0.0000 0.0000
# 3 36.8350 56.3236 194.2548 0.0000 0.0000 0.0000
# 4 0.0000 0.0000 0.0000 39.4330 0.0000 0.0000
# 5 0.0000 0.0000 0.0000 0.0000 30.6677 0.0000
# 6 0.0000 0.0000 0.0000 0.0000 0.0000 13.6403
#
#
#
# Elastic Compliance Matrix: (Units=1/GPa)
#
#
# Indices 1 2 3 4 5 6 
#
# 1 0.013691 -0.003377 -0.001617 0.000000 0.000000 0.000000
# 2 -0.003377 0.007843 -0.001634 0.000000 0.000000 0.000000
# 3 -0.001617 -0.001634 0.005928 0.000000 0.000000 0.000000
# 4 0.000000 0.000000 0.000000 0.025359 0.000000 0.000000
# 5 0.000000 0.000000 0.000000 0.000000 0.032608 0.000000
# 6 0.000000 0.000000 0.000000 0.000000 0.000000 0.073312
#
#
# Mechanical properties :
#
#
# Convention : Reuss Voigt Hill
#
# Bulk Modulus (GPa) = 70.39000 79.99938 75.19469
# Shear Modulus (GPa) = 28.29138 36.94253 32.61696
#
# Velocity S-wave (km/s) = 3.78829 4.32892 4.06760
# Velocity P-wave (km/s) = 7.40547 8.09733 7.75912
#
# Compressibility (1/GPa) = 0.01420656
#
# Stress axis : x y z
#
# Youngs Moduli (GPa) = 73.04326 127.49721 168.68601
#
# Poissons Ratio (x) = 0.43057 0.27274
# Poissons Ratio (y) = 0.24667 0.27559
# Poissons Ratio (z) = 0.11810 0.20830
#
# Static dielectric constant tensor:
#      x y z
#    x 1.613050 0.000000 0.000000 
#    y 0.000000 1.675270 0.000000 
#    z 0.000000 0.000000 1.759010 
# 
# From -- ./inp_files/18913.got.cif
#   From: 2010.05.17/outbox.cif.g08.bks.cpg/sg70_10_cif.got.tgz:18913.got - 2010.06.03 15:57:51.
