data_PCOD9516188
_publ_section_title
;
Structure prediction by ZEFSAII (Michael W. Deem and Ramdas Pophale) SiO2 
 PCOD9516188
Probable space group: F D D D
;
_chemical_formula_sum "Si O2"
_cell_formula_units_Z 192
_cell_length_a 29.596313
_cell_length_b 22.765756
_cell_length_c 12.447084
_cell_angle_alpha 90.000000
_cell_angle_beta 90.000000
_cell_angle_gamma 90.000000
_cell_volume 8386.626632
_symmetry_space_group_name_H-M "F D D D"
_symmetry_group_IT_number 70
_space_group.IT_coordinate_system_code '2'
_symmetry_cell_setting 'orthorhombic'
loop_
_space_group_symop_operation_xyz
x,y,z
1/4-x,1/4-y,z
x,1/4-y,1/4-z
1/4-x,y,1/4-z
-x,-y,-z
3/4+x,3/4+y,-z
-x,3/4+y,3/4+z
3/4+x,-y,3/4+z
x,1/2+y,1/2+z
1/4-x,3/4-y,1/2+z
x,3/4-y,3/4-z
1/4-x,1/2+y,3/4-z
-x,1/2-y,1/2-z
3/4+x,1/4+y,1/2-z
-x,1/4+y,1/4+z
3/4+x,1/2-y,1/4+z
1/2+x,y,1/2+z
3/4-x,1/4-y,1/2+z
1/2+x,1/4-y,3/4-z
3/4-x,y,3/4-z
1/2-x,-y,1/2-z
1/4+x,3/4+y,1/2-z
1/2-x,3/4+y,1/4+z
1/4+x,-y,1/4+z
1/2+x,1/2+y,z
3/4-x,3/4-y,z
1/2+x,3/4-y,1/4-z
3/4-x,1/2+y,1/4-z
1/2-x,1/2-y,-z
1/4+x,1/4+y,-z
1/2-x,1/4+y,3/4+z
1/4+x,1/2-y,3/4+z
loop_
_atom_site_type_symbol
_atom_site_label
_atom_site_fract_x
_atom_site_fract_y
_atom_site_fract_z
Si Si1 0.685439 0.816109 0.526109
Si Si2 0.125000 0.625000 0.625000
Si Si3 0.633748 0.974574 0.855192
Si Si4 0.067551 0.073660 0.304787
Si Si5 0.438757 0.314582 0.551477
Si Si6 0.005949 0.521446 0.139048
Si Si7 0.625000 0.339209 0.625000
Si Si8 0.125000 0.625000 0.125000
O O1 0.643646 0.813271 0.441962
O O2 0.729907 0.809770 0.450213
O O3 0.697317 0.757825 0.596263
O O4 0.668927 0.869234 0.601452
O O5 0.090541 0.584514 0.690933
O O6 0.632357 0.948309 0.735219
O O7 0.606170 0.035820 0.862118
O O8 0.680482 0.999289 0.900616
O O9 0.061098 0.136543 0.357531
O O10 0.024297 0.033333 0.322383
O O11 0.486262 0.311321 0.491340
O O12 0.405638 0.337136 0.456494
#
# Coordination Sequence:
#
# PCOD9516188 Si02
#       8
#    32   8  32  32  32  32  16   8
#     4  10  23  45  67 100 143 183 226 290 359 417
#     4  12  20  48  72  90 138 186 242 274 336 438
#     4  11  22  43  68 102 132 186 242 277 346 425
#     4  11  24  44  70  98 133 188 231 286 348 416
#     4  12  23  42  71 105 140 178 240 295 341 422
#     4  10  25  44  69 105 144 175 229 299 364 405
#     4  12  25  41  73  98 139 194 231 283 344 432
#     4  12  22  38  76 106 130 190 236 284 340 406
#
# _framework density 22.893591000000001
#
# number of rings (size 3 to 8) (size 9 to 14) (size 15 to 20)
#    0.000    1.000    3.333    3.000    4.667    4.000 
#    3.000    0.833    0.000    0.000    0.000    0.000 
#    0.000    0.000    0.000    0.000    0.000    0.000 
#
# Total GULP energy -267622.127367 kJ/mol
# GULP energy per Si atom -5575.460987 kJ/mol
# Density = 2.284148 g / cm^3
# Si number density = 22.893591 Si / 1000 Ang^3
#
#
#
# Elastic Constant Matrix: (Units=GPa)
#
#
# Indices 1 2 3 4 5 6 
#
# 1 56.1505 46.2321 43.9836 0.0000 0.0000 0.0000
# 2 46.2321 101.3281 60.1150 0.0000 0.0000 0.0000
# 3 43.9836 60.1150 131.2865 0.0000 0.0000 0.0000
# 4 0.0000 0.0000 0.0000 46.8281 0.0000 0.0000
# 5 0.0000 0.0000 0.0000 0.0000 37.2853 0.0000
# 6 0.0000 0.0000 0.0000 0.0000 0.0000 45.7363
#
#
#
# Elastic Compliance Matrix: (Units=1/GPa)
#
#
# Indices 1 2 3 4 5 6 
#
# 1 0.031065 -0.010983 -0.005378 0.000000 0.000000 0.000000
# 2 -0.010983 0.017433 -0.004303 0.000000 0.000000 0.000000
# 3 -0.005378 -0.004303 0.011389 0.000000 0.000000 0.000000
# 4 0.000000 0.000000 0.000000 0.021355 0.000000 0.000000
# 5 0.000000 0.000000 0.000000 0.000000 0.026820 0.000000
# 6 0.000000 0.000000 0.000000 0.000000 0.000000 0.021864
#
#
# Mechanical properties :
#
#
# Convention : Reuss Voigt Hill
#
# Bulk Modulus (GPa) = 53.88347 65.49182 59.68764
# Shear Modulus (GPa) = 28.17836 35.19892 31.68864
#
# Velocity S-wave (km/s) = 3.51214 3.92535 3.72448
# Velocity P-wave (km/s) = 6.32728 7.01525 6.68012
#
# Compressibility (1/GPa) = 0.01855857
#
# Stress axis : x y z
#
# Youngs Moduli (GPa) = 32.19029 57.36317 87.80376
#
# Poissons Ratio (x) = 0.63002 0.47225
# Poissons Ratio (y) = 0.35355 0.37780
# Poissons Ratio (z) = 0.17313 0.24682
#
# Static dielectric constant tensor:
#      x y z
#    x 1.997950 0.000000 0.000000 
#    y 0.000000 2.039380 0.000000 
#    z 0.000000 0.000000 1.899280 
# 
# From -- ./inp_files/22505.got.cif
#   From: 2010.05.17/outbox.cif.g08.bks.cpg/sg70_12_cif.got.tgz:22505.got - 2010.06.03 15:57:51.
