data_PCOD9516324
_publ_section_title
;
Structure prediction by ZEFSAII (Michael W. Deem and Ramdas Pophale) SiO2 
 PCOD9516324
Probable space group: F D D D
;
_chemical_formula_sum "Si O2"
_cell_formula_units_Z 192
_cell_length_a 25.247862
_cell_length_b 11.488952
_cell_length_c 29.669803
_cell_angle_alpha 90.000000
_cell_angle_beta 90.000000
_cell_angle_gamma 90.000000
_cell_volume 8606.363508
_symmetry_space_group_name_H-M "F D D D"
_symmetry_group_IT_number 70
_space_group.IT_coordinate_system_code '2'
_symmetry_cell_setting 'orthorhombic'
loop_
_space_group_symop_operation_xyz
x,y,z
1/4-x,1/4-y,z
x,1/4-y,1/4-z
1/4-x,y,1/4-z
-x,-y,-z
3/4+x,3/4+y,-z
-x,3/4+y,3/4+z
3/4+x,-y,3/4+z
x,1/2+y,1/2+z
1/4-x,3/4-y,1/2+z
x,3/4-y,3/4-z
1/4-x,1/2+y,3/4-z
-x,1/2-y,1/2-z
3/4+x,1/4+y,1/2-z
-x,1/4+y,1/4+z
3/4+x,1/2-y,1/4+z
1/2+x,y,1/2+z
3/4-x,1/4-y,1/2+z
1/2+x,1/4-y,3/4-z
3/4-x,y,3/4-z
1/2-x,-y,1/2-z
1/4+x,3/4+y,1/2-z
1/2-x,3/4+y,1/4+z
1/4+x,-y,1/4+z
1/2+x,1/2+y,z
3/4-x,3/4-y,z
1/2+x,3/4-y,1/4-z
3/4-x,1/2+y,1/4-z
1/2-x,1/2-y,-z
1/4+x,1/4+y,-z
1/2-x,1/4+y,3/4+z
1/4+x,1/2-y,3/4+z
loop_
_atom_site_type_symbol
_atom_site_label
_atom_site_fract_x
_atom_site_fract_y
_atom_site_fract_z
Si Si1 0.691370 0.760510 0.957330
Si Si2 0.230551 0.500121 0.620575
Si Si3 0.069320 0.261207 0.957911
Si Si4 0.625000 0.125000 0.235676
Si Si5 0.476481 0.998678 0.727733
Si Si6 0.486625 0.125000 0.125000
Si Si7 0.329483 0.025804 0.840569
O O1 0.729478 0.745898 0.913235
O O2 0.629933 0.803383 0.954262
O O3 0.681927 0.626059 0.969494
O O4 0.716803 0.862763 0.988207
O O5 0.202866 0.625000 0.625000
O O6 0.265407 0.498828 0.575525
O O7 0.188262 0.401032 0.609517
O O8 0.045341 0.293383 0.909094
O O9 0.027388 0.303521 0.995929
O O10 0.574493 0.077536 0.261679
O O11 0.605114 0.236282 0.206322
O O12 0.525763 0.202542 0.154926
O O13 0.375000 0.990513 0.875000
#
# Coordination Sequence:
#
# PCOD9516324 Si02
#       7
#    32  32  32  16  32  16  32
#     4  10  24  45  68  93 138 188 233 288 348 429
#     4  10  25  46  67 100 139 187 234 290 351 424
#     4  11  23  42  69 101 130 190 236 282 358 424
#     4  12  25  40  70 108 140 184 224 308 372 406
#     4  11  25  44  64 100 144 176 237 299 352 427
#     4  12  21  40  72 100 132 176 231 288 350 426
#     4  12  22  43  69  99 138 177 231 284 358 429
#
# _framework density 22.309073999999999
#
# number of rings (size 3 to 8) (size 9 to 14) (size 15 to 20)
#    0.000    1.000    5.000    0.500    5.833    3.667 
#    0.000    0.000    0.000    0.000    0.000    0.000 
#    0.000    0.000    0.000    0.000    0.000    0.000 
#
# Total GULP energy -267348.409856 kJ/mol
# GULP energy per Si atom -5569.758539 kJ/mol
# Density = 2.225830 g / cm^3
# Si number density = 22.309074 Si / 1000 Ang^3
#
#
#
# Elastic Constant Matrix: (Units=GPa)
#
#
# Indices 1 2 3 4 5 6 
#
# 1 121.7698 51.0511 29.7339 0.0000 0.0000 0.0000
# 2 51.0511 108.1877 14.3269 0.0000 0.0000 0.0000
# 3 29.7339 14.3269 60.6046 0.0000 0.0000 0.0000
# 4 0.0000 0.0000 0.0000 30.8840 0.0000 0.0000
# 5 0.0000 0.0000 0.0000 0.0000 -2.0516 0.0000
# 6 0.0000 0.0000 0.0000 0.0000 0.0000 43.4429
#
#
#
# Elastic Compliance Matrix: (Units=1/GPa)
#
#
# Indices 1 2 3 4 5 6 
#
# 1 0.011275 -0.004736 -0.004412 0.000000 0.000000 0.000000
# 2 -0.004736 0.011531 -0.000402 0.000000 0.000000 0.000000
# 3 -0.004412 -0.000402 0.018760 0.000000 0.000000 0.000000
# 4 0.000000 0.000000 0.000000 0.032379 0.000000 0.000000
# 5 0.000000 0.000000 0.000000 0.000000 -0.487428 0.000000
# 6 0.000000 0.000000 0.000000 0.000000 0.000000 0.023019
#
#
# Mechanical properties :
#
#
# Convention : Reuss Voigt Hill
#
# Bulk Modulus (GPa) = 44.51307 53.42067 48.96687
# Shear Modulus (GPa) = -13.74106 27.48508 6.87201
#
# Velocity S-wave (km/s) = -2.48451 3.51381 1.75700
# Velocity P-wave (km/s) = 3.43014 6.36083 5.11009
#
# Compressibility (1/GPa) = 0.02246531
#
# Stress axis : x y z
#
# Youngs Moduli (GPa) = 88.69001 86.71998 53.30423
#
# Poissons Ratio (x) = 0.41072 0.23519
# Poissons Ratio (y) = 0.42005 0.02145
# Poissons Ratio (z) = 0.39132 0.03489
#
# Static dielectric constant tensor:
#      x y z
#    x 1.755770 0.000000 0.000000 
#    y 0.000000 1.900700 0.000000 
#    z 0.000000 0.000000 1.803380 
# 
# From -- ./inp_files/68414.got.cif
#   From: 2010.05.17/outbox.cif.g08.bks.cpg/sg70_35_cif.got.tgz:68414.got - 2010.06.03 15:57:51.
