data_PCOD9516256
_publ_section_title
;
Structure prediction by ZEFSAII (Michael W. Deem and Ramdas Pophale) SiO2 
 PCOD9516256
Probable space group: F D D D
;
_chemical_formula_sum "Si O2"
_cell_formula_units_Z 120
_cell_length_a 24.576765
_cell_length_b 15.956515
_cell_length_c 12.428924
_cell_angle_alpha 90.000000
_cell_angle_beta 90.000000
_cell_angle_gamma 90.000000
_cell_volume 4874.120862
_symmetry_space_group_name_H-M "F D D D"
_symmetry_group_IT_number 70
_space_group.IT_coordinate_system_code '2'
_symmetry_cell_setting 'orthorhombic'
loop_
_space_group_symop_operation_xyz
x,y,z
1/4-x,1/4-y,z
x,1/4-y,1/4-z
1/4-x,y,1/4-z
-x,-y,-z
3/4+x,3/4+y,-z
-x,3/4+y,3/4+z
3/4+x,-y,3/4+z
x,1/2+y,1/2+z
1/4-x,3/4-y,1/2+z
x,3/4-y,3/4-z
1/4-x,1/2+y,3/4-z
-x,1/2-y,1/2-z
3/4+x,1/4+y,1/2-z
-x,1/4+y,1/4+z
3/4+x,1/2-y,1/4+z
1/2+x,y,1/2+z
3/4-x,1/4-y,1/2+z
1/2+x,1/4-y,3/4-z
3/4-x,y,3/4-z
1/2-x,-y,1/2-z
1/4+x,3/4+y,1/2-z
1/2-x,3/4+y,1/4+z
1/4+x,-y,1/4+z
1/2+x,1/2+y,z
3/4-x,3/4-y,z
1/2+x,3/4-y,1/4-z
3/4-x,1/2+y,1/4-z
1/2-x,1/2-y,-z
1/4+x,1/4+y,-z
1/2-x,1/4+y,3/4+z
1/4+x,1/2-y,3/4+z
loop_
_atom_site_type_symbol
_atom_site_label
_atom_site_fract_x
_atom_site_fract_y
_atom_site_fract_z
Si Si1 0.436593 0.017911 0.503191
Si Si2 0.818377 0.915240 0.259506
Si Si3 0.375000 0.875000 0.375000
Si Si4 0.132244 0.375000 0.375000
Si Si5 0.450482 0.105296 0.931395
O O1 0.410148 0.046897 0.615599
O O2 0.430682 0.100264 0.426243
O O3 0.500000 0.000000 0.500000
O O4 0.408948 0.937626 0.450135
O O5 0.805594 0.875000 0.375000
O O6 0.875000 0.875000 0.222031
O O7 0.765938 0.899518 0.185186
O O8 0.821643 0.013278 0.288813
O O9 0.174470 0.404172 0.468041
#
# Coordination Sequence:
#
# PCOD9516256 Si02
#       5
#    32  32   8  16  32
#     4  12  29  49  79 110 157 207 262 324 400 481
#     4  10  24  41  75 107 141 191 250 316 384 465
#     4  12  26  52  76 120 152 202 276 308 398 492
#     4  12  25  50  75 101 152 201 238 336 384 454
#     4  11  25  49  71 109 151 194 257 318 397 464
#
# _framework density 24.619824999999999
#
# number of rings (size 3 to 8) (size 9 to 14) (size 15 to 20)
#    0.000    0.800    4.000    0.800   11.200    6.400 
#    0.000    0.000    0.000    0.000    0.000    0.000 
#    0.000    0.000    0.000    0.000    0.000    0.000 
#
# Total GULP energy -167648.991718 kJ/mol
# GULP energy per Si atom -5588.299724 kJ/mol
# Density = 2.456379 g / cm^3
# Si number density = 24.619825 Si / 1000 Ang^3
#
#
#
# Elastic Constant Matrix: (Units=GPa)
#
#
# Indices 1 2 3 4 5 6 
#
# 1 200.9464 77.5752 29.5730 0.0000 0.0000 0.0000
# 2 77.5752 130.4752 19.0229 0.0000 0.0000 0.0000
# 3 29.5730 19.0229 73.4982 0.0000 0.0000 0.0000
# 4 0.0000 0.0000 0.0000 43.5888 0.0000 0.0000
# 5 0.0000 0.0000 0.0000 0.0000 26.7118 0.0000
# 6 0.0000 0.0000 0.0000 0.0000 0.0000 36.9287
#
#
#
# Elastic Compliance Matrix: (Units=1/GPa)
#
#
# Indices 1 2 3 4 5 6 
#
# 1 0.006662 -0.003710 -0.001720 0.000000 0.000000 0.000000
# 2 -0.003710 0.010031 -0.001103 0.000000 0.000000 0.000000
# 3 -0.001720 -0.001103 0.014584 0.000000 0.000000 0.000000
# 4 0.000000 0.000000 0.000000 0.022942 0.000000 0.000000
# 5 0.000000 0.000000 0.000000 0.000000 0.037437 0.000000
# 6 0.000000 0.000000 0.000000 0.000000 0.000000 0.027079
#
#
# Mechanical properties :
#
#
# Convention : Reuss Voigt Hill
#
# Bulk Modulus (GPa) = 54.91818 73.02911 63.97365
# Shear Modulus (GPa) = 36.26575 40.02911 38.14743
#
# Velocity S-wave (km/s) = 3.84217 4.03661 3.94059
# Velocity P-wave (km/s) = 6.48367 7.17305 6.83706
#
# Compressibility (1/GPa) = 0.01820891
#
# Stress axis : x y z
#
# Youngs Moduli (GPa) = 150.10749 99.69062 68.57046
#
# Poissons Ratio (x) = 0.36986 0.11796
# Poissons Ratio (y) = 0.55691 0.07566
# Poissons Ratio (z) = 0.25822 0.11000
#
# Static dielectric constant tensor:
#      x y z
#    x 1.964600 0.000000 0.000000 
#    y 0.000000 2.147120 0.000000 
#    z 0.000000 0.000000 5.587430 
# 
# From -- ./inp_files/28423.got.cif
#   From: 2010.05.17/outbox.cif.g08.bks.cpg/sg70_15_cif.got.tgz:28423.got - 2010.06.03 15:57:51.
