data_PCOD9516876
_publ_section_title
;
Structure prediction by ZEFSAII (Michael W. Deem and Ramdas Pophale) SiO2 
 PCOD9516876
Probable space group: F D D D
;
_chemical_formula_sum "Si O2"
_cell_formula_units_Z 192
_cell_length_a 15.232308
_cell_length_b 16.619932
_cell_length_c 32.456106
_cell_angle_alpha 90.000000
_cell_angle_beta 90.000000
_cell_angle_gamma 90.000000
_cell_volume 8216.585301
_symmetry_space_group_name_H-M "F D D D"
_symmetry_group_IT_number 70
_space_group.IT_coordinate_system_code '2'
_symmetry_cell_setting 'orthorhombic'
loop_
_space_group_symop_operation_xyz
x,y,z
1/4-x,1/4-y,z
x,1/4-y,1/4-z
1/4-x,y,1/4-z
-x,-y,-z
3/4+x,3/4+y,-z
-x,3/4+y,3/4+z
3/4+x,-y,3/4+z
x,1/2+y,1/2+z
1/4-x,3/4-y,1/2+z
x,3/4-y,3/4-z
1/4-x,1/2+y,3/4-z
-x,1/2-y,1/2-z
3/4+x,1/4+y,1/2-z
-x,1/4+y,1/4+z
3/4+x,1/2-y,1/4+z
1/2+x,y,1/2+z
3/4-x,1/4-y,1/2+z
1/2+x,1/4-y,3/4-z
3/4-x,y,3/4-z
1/2-x,-y,1/2-z
1/4+x,3/4+y,1/2-z
1/2-x,3/4+y,1/4+z
1/4+x,-y,1/4+z
1/2+x,1/2+y,z
3/4-x,3/4-y,z
1/2+x,3/4-y,1/4-z
3/4-x,1/2+y,1/4-z
1/2-x,1/2-y,-z
1/4+x,1/4+y,-z
1/2-x,1/4+y,3/4+z
1/4+x,1/2-y,3/4+z
loop_
_atom_site_type_symbol
_atom_site_label
_atom_site_fract_x
_atom_site_fract_y
_atom_site_fract_z
Si Si1 0.219451 0.725830 0.193808
Si Si2 0.501754 0.073859 0.279414
Si Si3 0.125000 0.125000 0.625000
Si Si4 0.339957 0.257196 0.084305
Si Si5 0.011862 0.346066 0.440800
Si Si6 0.125000 0.125000 0.125000
Si Si7 0.125000 0.125000 0.841943
Si Si8 0.698433 0.898199 0.719731
O O1 0.219429 0.665384 0.232416
O O2 0.184498 0.681230 0.153934
O O3 0.318075 0.759494 0.189018
O O4 0.171592 0.809029 0.204271
O O5 0.541322 0.136334 0.311860
O O6 0.397066 0.060893 0.277770
O O7 0.545223 0.990102 0.294753
O O8 0.316580 0.163164 0.083467
O O9 0.355929 0.300784 0.127497
O O10 0.262499 0.305107 0.061152
O O11 0.934102 0.327360 0.408085
O O12 0.002311 0.389319 0.485948
#
# Coordination Sequence:
#
# PCOD9516876 Si02
#       8
#    32  32   8  32  32   8  16  32
#     4  11  26  49  73 106 142 203 253 302 378 443
#     4  11  26  49  72 109 147 202 247 305 378 459
#     4  12  30  50  74 100 154 196 268 316 352 452
#     4  12  24  47  73 112 147 194 243 317 377 448
#     4  11  25  43  70 108 149 195 242 309 378 455
#     4  12  24  36  62 108 150 182 240 296 378 424
#     4  12  27  43  74 105 156 189 254 303 375 446
#     4  11  24  46  77 104 151 195 247 309 386 453
#
# _framework density 23.367370999999999
#
# number of rings (size 3 to 8) (size 9 to 14) (size 15 to 20)
#    0.000    0.667    3.333    3.000    7.000    2.667 
#    0.000    2.500    0.000    0.000    0.000    0.000 
#    0.000    0.000    0.000    0.000    0.000    0.000 
#
# Total GULP energy -267876.374460 kJ/mol
# GULP energy per Si atom -5580.757801 kJ/mol
# Density = 2.331419 g / cm^3
# Si number density = 23.367371 Si / 1000 Ang^3
#
#
#
# Elastic Constant Matrix: (Units=GPa)
#
#
# Indices 1 2 3 4 5 6 
#
# 1 96.4327 17.5600 59.9931 0.0000 0.0000 0.0000
# 2 17.5600 64.5412 40.0653 0.0000 0.0000 0.0000
# 3 59.9931 40.0653 193.1089 0.0000 0.0000 0.0000
# 4 0.0000 0.0000 0.0000 21.7743 0.0000 0.0000
# 5 0.0000 0.0000 0.0000 0.0000 19.0746 0.0000
# 6 0.0000 0.0000 0.0000 0.0000 0.0000 6.4072
#
#
#
# Elastic Compliance Matrix: (Units=1/GPa)
#
#
# Indices 1 2 3 4 5 6 
#
# 1 0.012932 -0.001176 -0.003773 0.000000 0.000000 0.000000
# 2 -0.001176 0.017891 -0.003347 0.000000 0.000000 0.000000
# 3 -0.003773 -0.003347 0.007045 0.000000 0.000000 0.000000
# 4 0.000000 0.000000 0.000000 0.045926 0.000000 0.000000
# 5 0.000000 0.000000 0.000000 0.000000 0.052426 0.000000
# 6 0.000000 0.000000 0.000000 0.000000 0.000000 0.156074
#
#
# Mechanical properties :
#
#
# Convention : Reuss Voigt Hill
#
# Bulk Modulus (GPa) = 47.00137 65.47996 56.24067
# Shear Modulus (GPa) = 15.82391 25.21552 20.51972
#
# Velocity S-wave (km/s) = 2.60509 3.28852 2.96655
# Velocity P-wave (km/s) = 5.40430 6.51935 5.98784
#
# Compressibility (1/GPa) = 0.02127597
#
# Stress axis : x y z
#
# Youngs Moduli (GPa) = 77.32976 55.89260 141.94267
#
# Poissons Ratio (x) = 0.06572 0.53562
# Poissons Ratio (y) = 0.09093 0.47504
# Poissons Ratio (z) = 0.29180 0.18706
#
# Static dielectric constant tensor:
#      x y z
#    x 1.962960 0.000000 0.000000 
#    y 0.000000 1.977290 0.000000 
#    z 0.000000 0.000000 1.895970 
# 
# From -- ./inp_files/66733.got.cif
#   From: 2010.05.17/outbox.cif.g08.bks.cpg/sg70_34_cif.got.tgz:66733.got - 2010.06.03 15:57:51.
