data_PCOD9516192
_publ_section_title
;
Structure prediction by ZEFSAII (Michael W. Deem and Ramdas Pophale) SiO2 
 PCOD9516192
Probable space group: F D D D
;
_chemical_formula_sum "Si O2"
_cell_formula_units_Z 208
_cell_length_a 18.683748
_cell_length_b 21.556891
_cell_length_c 21.648829
_cell_angle_alpha 90.000000
_cell_angle_beta 90.000000
_cell_angle_gamma 90.000000
_cell_volume 8719.358553
_symmetry_space_group_name_H-M "F D D D"
_symmetry_group_IT_number 70
_space_group.IT_coordinate_system_code '2'
_symmetry_cell_setting 'orthorhombic'
loop_
_space_group_symop_operation_xyz
x,y,z
1/4-x,1/4-y,z
x,1/4-y,1/4-z
1/4-x,y,1/4-z
-x,-y,-z
3/4+x,3/4+y,-z
-x,3/4+y,3/4+z
3/4+x,-y,3/4+z
x,1/2+y,1/2+z
1/4-x,3/4-y,1/2+z
x,3/4-y,3/4-z
1/4-x,1/2+y,3/4-z
-x,1/2-y,1/2-z
3/4+x,1/4+y,1/2-z
-x,1/4+y,1/4+z
3/4+x,1/2-y,1/4+z
1/2+x,y,1/2+z
3/4-x,1/4-y,1/2+z
1/2+x,1/4-y,3/4-z
3/4-x,y,3/4-z
1/2-x,-y,1/2-z
1/4+x,3/4+y,1/2-z
1/2-x,3/4+y,1/4+z
1/4+x,-y,1/4+z
1/2+x,1/2+y,z
3/4-x,3/4-y,z
1/2+x,3/4-y,1/4-z
3/4-x,1/2+y,1/4-z
1/2-x,1/2-y,-z
1/4+x,1/4+y,-z
1/2-x,1/4+y,3/4+z
1/4+x,1/2-y,3/4+z
loop_
_atom_site_type_symbol
_atom_site_label
_atom_site_fract_x
_atom_site_fract_y
_atom_site_fract_z
Si Si1 0.875000 0.875000 0.875000
Si Si2 0.137932 0.469500 0.895664
Si Si3 0.474369 0.975176 0.907505
Si Si4 0.948967 0.408037 0.580413
Si Si5 0.451261 0.049068 0.213380
Si Si6 0.732983 0.671296 0.223804
Si Si7 0.625000 0.625000 0.625000
Si Si8 0.561681 0.860507 0.671342
O O1 0.821770 0.837940 0.831660
O O2 0.180515 0.526730 0.862707
O O3 0.111801 0.432969 0.834426
O O4 0.191302 0.441009 0.945133
O O5 0.058582 0.481537 0.925290
O O6 0.433785 0.036676 0.928435
O O7 0.482377 0.962692 0.833288
O O8 0.425964 0.915813 0.920610
O O9 0.875000 0.375000 0.567930
O O10 0.989271 0.391089 0.515967
O O11 0.990607 0.369640 0.631592
O O12 0.448259 0.098827 0.267628
O O13 0.448112 0.979963 0.240879
O O14 0.625000 0.882134 0.625000
#
# Coordination Sequence:
#
# PCOD9516192 Si02
#       8
#     8  32  32  32  32  32   8  32
#     4  12  28  38  62  94 144 206 248 302 396 468
#     4  10  23  45  73 111 157 205 261 337 399 480
#     4  10  24  49  76 109 150 203 261 333 410 463
#     4  12  20  44  77 105 157 208 256 339 401 474
#     4  10  23  45  68 112 145 195 271 318 399 474
#     4  12  23  43  71 106 153 205 265 324 401 483
#     4  12  24  54  74 102 156 198 260 346 388 500
#     4  12  24  43  76 112 149 206 271 323 404 487
#
# _framework density 23.854966000000001
#
# number of rings (size 3 to 8) (size 9 to 14) (size 15 to 20)
#    0.923    0.000    7.692    0.000    1.077    1.846 
#    6.923    3.077    0.000    0.000    0.000    0.000 
#    0.000    0.000    0.000    0.000    0.000    0.000 
#
# Total GULP energy -289838.374396 kJ/mol
# GULP energy per Si atom -5573.814892 kJ/mol
# Density = 2.380067 g / cm^3
# Si number density = 23.854966 Si / 1000 Ang^3
#
#
#
# Elastic Constant Matrix: (Units=GPa)
#
#
# Indices 1 2 3 4 5 6 
#
# 1 83.6603 29.3945 27.8828 0.0000 0.0000 0.0000
# 2 29.3945 98.8023 41.5765 0.0000 0.0000 0.0000
# 3 27.8828 41.5765 100.6198 0.0000 0.0000 0.0000
# 4 0.0000 0.0000 0.0000 72.0080 0.0000 0.0000
# 5 0.0000 0.0000 0.0000 0.0000 34.0535 0.0000
# 6 0.0000 0.0000 0.0000 0.0000 0.0000 51.0012
#
#
#
# Elastic Compliance Matrix: (Units=1/GPa)
#
#
# Indices 1 2 3 4 5 6 
#
# 1 0.013885 -0.003040 -0.002591 0.000000 0.000000 0.000000
# 2 -0.003040 0.012917 -0.004495 0.000000 0.000000 0.000000
# 3 -0.002591 -0.004495 0.012514 0.000000 0.000000 0.000000
# 4 0.000000 0.000000 0.000000 0.013887 0.000000 0.000000
# 5 0.000000 0.000000 0.000000 0.000000 0.029366 0.000000
# 6 0.000000 0.000000 0.000000 0.000000 0.000000 0.019607
#
#
# Mechanical properties :
#
#
# Convention : Reuss Voigt Hill
#
# Bulk Modulus (GPa) = 52.45862 53.42111 52.93986
# Shear Modulus (GPa) = 38.82466 43.69444 41.25955
#
# Velocity S-wave (km/s) = 4.03864 4.28445 4.16336
# Velocity P-wave (km/s) = 6.61709 6.84967 6.73439
#
# Compressibility (1/GPa) = 0.01906264
#
# Stress axis : x y z
#
# Youngs Moduli (GPa) = 72.01997 77.41578 79.91168
#
# Poissons Ratio (x) = 0.23538 0.20708
# Poissons Ratio (y) = 0.21897 0.35920
# Poissons Ratio (z) = 0.18663 0.34798
#
# Static dielectric constant tensor:
#      x y z
#    x 2.088460 0.000000 0.000000 
#    y 0.000000 2.518050 0.000000 
#    z 0.000000 0.000000 2.277740 
# 
# From -- ./inp_files/59745.got.cif
#   From: 2010.05.17/outbox.cif.g08.bks.cpg/sg70_30_cif.got.tgz:59745.got - 2010.06.03 15:57:51.
