data_PCOD9516451
_publ_section_title
;
Structure prediction by ZEFSAII (Michael W. Deem and Ramdas Pophale) SiO2 
 PCOD9516451
Probable space group: F D D D
;
_chemical_formula_sum "Si O2"
_cell_formula_units_Z 160
_cell_length_a 17.505011
_cell_length_b 18.062070
_cell_length_c 23.161561
_cell_angle_alpha 90.000000
_cell_angle_beta 90.000000
_cell_angle_gamma 90.000000
_cell_volume 7323.146712
_symmetry_space_group_name_H-M "F D D D"
_symmetry_group_IT_number 70
_space_group.IT_coordinate_system_code '2'
_symmetry_cell_setting 'orthorhombic'
loop_
_space_group_symop_operation_xyz
x,y,z
1/4-x,1/4-y,z
x,1/4-y,1/4-z
1/4-x,y,1/4-z
-x,-y,-z
3/4+x,3/4+y,-z
-x,3/4+y,3/4+z
3/4+x,-y,3/4+z
x,1/2+y,1/2+z
1/4-x,3/4-y,1/2+z
x,3/4-y,3/4-z
1/4-x,1/2+y,3/4-z
-x,1/2-y,1/2-z
3/4+x,1/4+y,1/2-z
-x,1/4+y,1/4+z
3/4+x,1/2-y,1/4+z
1/2+x,y,1/2+z
3/4-x,1/4-y,1/2+z
1/2+x,1/4-y,3/4-z
3/4-x,y,3/4-z
1/2-x,-y,1/2-z
1/4+x,3/4+y,1/2-z
1/2-x,3/4+y,1/4+z
1/4+x,-y,1/4+z
1/2+x,1/2+y,z
3/4-x,3/4-y,z
1/2+x,3/4-y,1/4-z
3/4-x,1/2+y,1/4-z
1/2-x,1/2-y,-z
1/4+x,1/4+y,-z
1/2-x,1/4+y,3/4+z
1/4+x,1/2-y,3/4+z
loop_
_atom_site_type_symbol
_atom_site_label
_atom_site_fract_x
_atom_site_fract_y
_atom_site_fract_z
Si Si1 0.625000 0.503433 0.125000
Si Si2 0.125000 0.125000 0.856108
Si Si3 0.257989 0.911099 0.188087
Si Si4 0.671879 0.252949 0.965584
Si Si5 0.312831 0.248349 0.323621
Si Si6 0.125000 0.125000 0.213358
Si Si7 0.791229 0.625000 0.625000
O O1 0.684557 0.455348 0.163523
O O2 0.590756 0.560158 0.172720
O O3 0.075670 0.069693 0.894313
O O4 0.073638 0.176367 0.818074
O O5 0.237393 0.825329 0.178629
O O6 0.304792 0.910416 0.248955
O O7 0.666283 0.322263 0.921509
O O8 0.750000 0.250000 0.000000
O O9 0.604652 0.248630 0.012160
O O10 0.375000 0.242429 0.375000
O O11 0.261978 0.319526 0.338042
#
# Coordination Sequence:
#
# PCOD9516451 Si02
#       7
#    16  16  32  32  32  16  16
#     4  11  24  48  74 103 138 190 240 281 368 424
#     4  11  24  47  63 105 145 184 235 300 354 418
#     4  11  24  46  73 100 147 184 233 296 355 423
#     4  12  25  42  72 102 146 191 233 297 361 428
#     4  12  24  43  68 103 145 187 234 291 358 430
#     4  10  26  47  72 108 139 182 240 304 342 422
#     4  12  25  46  68 112 142 187 242 290 364 439
#
# _framework density 21.848531999999999
#
# number of rings (size 3 to 8) (size 9 to 14) (size 15 to 20)
#    0.000    0.600    5.000    2.100    2.800    1.600 
#    3.600    0.000    0.000    0.000    0.000    0.000 
#    0.000    0.000    0.000    0.000    0.000    0.000 
#
# Total GULP energy -223027.185993 kJ/mol
# GULP energy per Si atom -5575.679650 kJ/mol
# Density = 2.179880 g / cm^3
# Si number density = 21.848532 Si / 1000 Ang^3
#
#
#
# Elastic Constant Matrix: (Units=GPa)
#
#
# Indices 1 2 3 4 5 6 
#
# 1 50.9112 21.7192 35.6564 0.0000 0.0000 0.0000
# 2 21.7192 108.5192 54.6917 0.0000 0.0000 0.0000
# 3 35.6564 54.6917 144.7004 0.0000 0.0000 0.0000
# 4 0.0000 0.0000 0.0000 -3.1832 0.0000 0.0000
# 5 0.0000 0.0000 0.0000 0.0000 2.5776 0.0000
# 6 0.0000 0.0000 0.0000 0.0000 0.0000 34.8008
#
#
#
# Elastic Compliance Matrix: (Units=1/GPa)
#
#
# Indices 1 2 3 4 5 6 
#
# 1 0.024183 -0.002269 -0.005101 0.000000 0.000000 0.000000
# 2 -0.002269 0.011596 -0.003824 0.000000 0.000000 0.000000
# 3 -0.005101 -0.003824 0.009613 0.000000 0.000000 0.000000
# 4 0.000000 0.000000 0.000000 -0.314153 0.000000 0.000000
# 5 0.000000 0.000000 0.000000 0.000000 0.387958 0.000000
# 6 0.000000 0.000000 0.000000 0.000000 0.000000 0.028735
#
#
# Mechanical properties :
#
#
# Convention : Reuss Voigt Hill
#
# Bulk Modulus (GPa) = 43.47116 58.69615 51.08366
# Shear Modulus (GPa) = 28.09162 19.64329 23.86746
#
# Velocity S-wave (km/s) = 3.58962 3.00170 3.30874
# Velocity P-wave (km/s) = 6.09264 6.23995 6.16673
#
# Compressibility (1/GPa) = 0.02300376
#
# Stress axis : x y z
#
# Youngs Moduli (GPa) = 41.35158 86.23494 104.02384
#
# Poissons Ratio (x) = 0.19567 0.53067
# Poissons Ratio (y) = 0.09383 0.39777
# Poissons Ratio (z) = 0.21095 0.32975
#
# Static dielectric constant tensor:
#      x y z
#    x 1.596980 0.000000 0.000000 
#    y 0.000000 1.764650 0.000000 
#    z 0.000000 0.000000 1.942850 
# 
# From -- ./inp_files/44766.got.cif
#   From: 2010.05.17/outbox.cif.g08.bks.cpg/sg70_23_cif.got.tgz:44766.got - 2010.06.03 15:57:51.
