data_PCOD9516142
_publ_section_title
;
Structure prediction by ZEFSAII (Michael W. Deem and Ramdas Pophale) SiO2 
 PCOD9516142
Probable space group: F D D D
;
_chemical_formula_sum "Si O2"
_cell_formula_units_Z 128
_cell_length_a 27.400830
_cell_length_b 13.654085
_cell_length_c 14.105387
_cell_angle_alpha 90.000000
_cell_angle_beta 90.000000
_cell_angle_gamma 90.000000
_cell_volume 5277.294449
_symmetry_space_group_name_H-M "F D D D"
_symmetry_group_IT_number 70
_space_group.IT_coordinate_system_code '2'
_symmetry_cell_setting 'orthorhombic'
loop_
_space_group_symop_operation_xyz
x,y,z
1/4-x,1/4-y,z
x,1/4-y,1/4-z
1/4-x,y,1/4-z
-x,-y,-z
3/4+x,3/4+y,-z
-x,3/4+y,3/4+z
3/4+x,-y,3/4+z
x,1/2+y,1/2+z
1/4-x,3/4-y,1/2+z
x,3/4-y,3/4-z
1/4-x,1/2+y,3/4-z
-x,1/2-y,1/2-z
3/4+x,1/4+y,1/2-z
-x,1/4+y,1/4+z
3/4+x,1/2-y,1/4+z
1/2+x,y,1/2+z
3/4-x,1/4-y,1/2+z
1/2+x,1/4-y,3/4-z
3/4-x,y,3/4-z
1/2-x,-y,1/2-z
1/4+x,3/4+y,1/2-z
1/2-x,3/4+y,1/4+z
1/4+x,-y,1/4+z
1/2+x,1/2+y,z
3/4-x,3/4-y,z
1/2+x,3/4-y,1/4-z
3/4-x,1/2+y,1/4-z
1/2-x,1/2-y,-z
1/4+x,1/4+y,-z
1/2-x,1/4+y,3/4+z
1/4+x,1/2-y,3/4+z
loop_
_atom_site_type_symbol
_atom_site_label
_atom_site_fract_x
_atom_site_fract_y
_atom_site_fract_z
Si Si1 0.375000 0.875000 0.750155
Si Si2 0.678013 0.759628 0.153963
Si Si3 0.448711 0.712474 0.928773
Si Si4 0.556674 0.489309 0.369520
Si Si5 0.011460 0.375000 0.375000
O O1 0.339110 0.799308 0.803416
O O2 0.411846 0.807260 0.688219
O O3 0.625000 0.727529 0.125000
O O4 0.683222 0.729618 0.262137
O O5 0.723661 0.712219 0.099467
O O6 0.680451 0.875484 0.137893
O O7 0.459209 0.664180 0.033435
O O8 0.498055 0.749454 0.877262
O O9 0.570118 0.375000 0.375000
#
# Coordination Sequence:
#
# PCOD9516142 Si02
#       5
#    16  32  32  32  16
#     4  12  28  48  78 114 154 210 252 320 395 457
#     4  11  24  40  70 107 140 190 245 311 378 461
#     4  11  26  46  73 105 151 197 252 314 383 462
#     4  11  26  47  72 105 152 199 254 317 382 454
#     4  10  23  42  72 106 142 186 248 321 380 440
#
# _framework density 24.254853000000001
#
# number of rings (size 3 to 8) (size 9 to 14) (size 15 to 20)
#    0.000    1.000    0.000    5.625   12.250    6.000 
#    0.000    1.250    0.000    0.000    0.000    0.000 
#    0.000    0.000    0.000    0.000    0.000    0.000 
#
# Total GULP energy -179193.032179 kJ/mol
# GULP energy per Si atom -5599.782256 kJ/mol
# Density = 2.419965 g / cm^3
# Si number density = 24.254853 Si / 1000 Ang^3
#
#
#
# Elastic Constant Matrix: (Units=GPa)
#
#
# Indices 1 2 3 4 5 6 
#
# 1 153.4094 62.5631 52.4095 0.0000 0.0000 0.0000
# 2 62.5631 166.2650 37.5950 0.0000 0.0000 0.0000
# 3 52.4095 37.5950 69.7602 0.0000 0.0000 0.0000
# 4 0.0000 0.0000 0.0000 79.7644 0.0000 0.0000
# 5 0.0000 0.0000 0.0000 0.0000 -40.4147 0.0000
# 6 0.0000 0.0000 0.0000 0.0000 0.0000 46.1200
#
#
#
# Elastic Compliance Matrix: (Units=1/GPa)
#
#
# Indices 1 2 3 4 5 6 
#
# 1 0.009437 -0.002218 -0.005894 0.000000 0.000000 0.000000
# 2 -0.002218 0.007370 -0.002306 0.000000 0.000000 0.000000
# 3 -0.005894 -0.002306 0.020006 0.000000 0.000000 0.000000
# 4 0.000000 0.000000 0.000000 0.012537 0.000000 0.000000
# 5 0.000000 0.000000 0.000000 0.000000 -0.024743 0.000000
# 6 0.000000 0.000000 0.000000 0.000000 0.000000 0.021683
#
#
# Mechanical properties :
#
#
# Convention : Reuss Voigt Hill
#
# Bulk Modulus (GPa) = 62.59081 77.17443 69.88262
# Shear Modulus (GPa) = 69.01250 32.88507 50.94878
#
# Velocity S-wave (km/s) = 5.33993 3.68613 4.58816
# Velocity P-wave (km/s) = 7.99258 7.07135 7.54603
#
# Compressibility (1/GPa) = 0.01597679
#
# Stress axis : x y z
#
# Youngs Moduli (GPa) = 105.96841 135.67617 49.98588
#
# Poissons Ratio (x) = 0.30095 0.29463
# Poissons Ratio (y) = 0.23505 0.11525
# Poissons Ratio (z) = 0.62461 0.31282
#
# Static dielectric constant tensor:
#      x y z
#    x 2.081720 0.000000 0.000000 
#    y 0.000000 1.940150 0.000000 
#    z 0.000000 0.000000 1.876710 
# 
# From -- ./inp_files/33827.got.cif
#   From: 2010.05.17/outbox.cif.g08.bks.cpg/sg70_17_cif.got.tgz:33827.got - 2010.06.03 15:57:51.
