data_PCOD9516064
_publ_section_title
;
Structure prediction by ZEFSAII (Michael W. Deem and Ramdas Pophale) SiO2 
 PCOD9516064
Probable space group: F D D D
;
_chemical_formula_sum "Si O2"
_cell_formula_units_Z 184
_cell_length_a 15.466083
_cell_length_b 23.237087
_cell_length_c 24.939082
_cell_angle_alpha 90.000000
_cell_angle_beta 90.000000
_cell_angle_gamma 90.000000
_cell_volume 8962.774786
_symmetry_space_group_name_H-M "F D D D"
_symmetry_group_IT_number 70
_space_group.IT_coordinate_system_code '2'
_symmetry_cell_setting 'orthorhombic'
loop_
_space_group_symop_operation_xyz
x,y,z
1/4-x,1/4-y,z
x,1/4-y,1/4-z
1/4-x,y,1/4-z
-x,-y,-z
3/4+x,3/4+y,-z
-x,3/4+y,3/4+z
3/4+x,-y,3/4+z
x,1/2+y,1/2+z
1/4-x,3/4-y,1/2+z
x,3/4-y,3/4-z
1/4-x,1/2+y,3/4-z
-x,1/2-y,1/2-z
3/4+x,1/4+y,1/2-z
-x,1/4+y,1/4+z
3/4+x,1/2-y,1/4+z
1/2+x,y,1/2+z
3/4-x,1/4-y,1/2+z
1/2+x,1/4-y,3/4-z
3/4-x,y,3/4-z
1/2-x,-y,1/2-z
1/4+x,3/4+y,1/2-z
1/2-x,3/4+y,1/4+z
1/4+x,-y,1/4+z
1/2+x,1/2+y,z
3/4-x,3/4-y,z
1/2+x,3/4-y,1/4-z
3/4-x,1/2+y,1/4-z
1/2-x,1/2-y,-z
1/4+x,1/4+y,-z
1/2-x,1/4+y,3/4+z
1/4+x,1/2-y,3/4+z
loop_
_atom_site_type_symbol
_atom_site_label
_atom_site_fract_x
_atom_site_fract_y
_atom_site_fract_z
Si Si1 0.375000 0.875000 0.375000
Si Si2 0.003610 0.332494 0.289389
Si Si3 0.346840 0.982824 0.814298
Si Si4 0.047202 0.790436 0.980852
Si Si5 0.831516 0.965367 0.164773
Si Si6 0.125000 0.625000 0.991922
Si Si7 0.879200 0.970407 0.042795
O O1 0.315649 0.914508 0.337313
O O2 0.949176 0.322328 0.234454
O O3 0.047269 0.394760 0.289816
O O4 0.071639 0.281431 0.296051
O O5 0.375000 0.982134 0.875000
O O6 0.388416 0.034793 0.781248
O O7 0.243897 0.990350 0.817965
O O8 0.385755 0.927749 0.783238
O O9 0.080986 0.744944 0.937045
O O10 0.951860 0.776474 0.002615
O O11 0.813191 0.907156 0.198642
O O12 0.843051 0.955279 0.101740
#
# Coordination Sequence:
#
# PCOD9516064 Si02
#       7
#     8  32  32  32  32  16  32
#     4  12  20  42  72  88 134 178 208 284 342 386
#     4  11  25  42  67  97 130 173 226 273 337 405
#     4  11  23  44  67  97 138 176 223 278 339 401
#     4  11  22  43  67  95 134 172 220 283 326 402
#     4  11  25  43  69  97 135 176 224 275 345 396
#     4  10  23  39  64  94 127 175 216 272 330 398
#     4  11  24  43  67  97 132 173 224 276 341 402
#
# _framework density 20.529357000000001
#
# number of rings (size 3 to 8) (size 9 to 14) (size 15 to 20)
#    0.000    1.043    3.478    3.391    2.435    5.565 
#    3.130    0.000    0.000    0.000    0.000    0.000 
#    0.000    0.000    0.000    0.000    0.000    0.000 
#
# Total GULP energy -256473.591735 kJ/mol
# GULP energy per Si atom -5575.512864 kJ/mol
# Density = 2.048263 g / cm^3
# Si number density = 20.529357 Si / 1000 Ang^3
#
#
#
# Elastic Constant Matrix: (Units=GPa)
#
#
# Indices 1 2 3 4 5 6 
#
# 1 47.8409 6.5138 9.1316 0.0000 0.0000 0.0000
# 2 6.5138 65.3980 18.9924 0.0000 0.0000 0.0000
# 3 9.1316 18.9924 98.2700 0.0000 0.0000 0.0000
# 4 0.0000 0.0000 0.0000 17.4498 0.0000 0.0000
# 5 0.0000 0.0000 0.0000 0.0000 32.4603 0.0000
# 6 0.0000 0.0000 0.0000 0.0000 0.0000 8.9932
#
#
#
# Elastic Compliance Matrix: (Units=1/GPa)
#
#
# Indices 1 2 3 4 5 6 
#
# 1 0.021447 -0.001650 -0.001674 0.000000 0.000000 0.000000
# 2 -0.001650 0.016327 -0.003002 0.000000 0.000000 0.000000
# 3 -0.001674 -0.003002 0.010912 0.000000 0.000000 0.000000
# 4 0.000000 0.000000 0.000000 0.057307 0.000000 0.000000
# 5 0.000000 0.000000 0.000000 0.000000 0.030807 0.000000
# 6 0.000000 0.000000 0.000000 0.000000 0.000000 0.111195
#
#
# Mechanical properties :
#
#
# Convention : Reuss Voigt Hill
#
# Bulk Modulus (GPa) = 27.75203 31.19827 29.47515
# Shear Modulus (GPa) = 18.33793 23.57207 20.95500
#
# Velocity S-wave (km/s) = 2.99198 3.39221 3.19836
# Velocity P-wave (km/s) = 5.04812 5.52925 5.29415
#
# Compressibility (1/GPa) = 0.03603340
#
# Stress axis : x y z
#
# Youngs Moduli (GPa) = 46.62703 61.24746 91.64371
#
# Poissons Ratio (x) = 0.10106 0.15341
# Poissons Ratio (y) = 0.07693 0.27513
# Poissons Ratio (z) = 0.07805 0.18388
#
# Static dielectric constant tensor:
#      x y z
#    x 1.805790 0.000000 0.000000 
#    y 0.000000 1.741110 0.000000 
#    z 0.000000 0.000000 1.734400 
# 
# From -- ./inp_files/52282.got.cif
#   From: 2010.05.17/outbox.cif.g08.bks.cpg/sg70_27_cif.got.tgz:52282.got - 2010.06.03 15:57:51.
