data_PCOD9516849
_publ_section_title
;
Structure prediction by ZEFSAII (Michael W. Deem and Ramdas Pophale) SiO2 
 PCOD9516849
Probable space group: F D D D
;
_chemical_formula_sum "Si O2"
_cell_formula_units_Z 128
_cell_length_a 29.319470
_cell_length_b 25.308493
_cell_length_c 8.236702
_cell_angle_alpha 90.000000
_cell_angle_beta 90.000000
_cell_angle_gamma 90.000000
_cell_volume 6111.893174
_symmetry_space_group_name_H-M "F D D D"
_symmetry_group_IT_number 70
_space_group.IT_coordinate_system_code '2'
_symmetry_cell_setting 'orthorhombic'
loop_
_space_group_symop_operation_xyz
x,y,z
1/4-x,1/4-y,z
x,1/4-y,1/4-z
1/4-x,y,1/4-z
-x,-y,-z
3/4+x,3/4+y,-z
-x,3/4+y,3/4+z
3/4+x,-y,3/4+z
x,1/2+y,1/2+z
1/4-x,3/4-y,1/2+z
x,3/4-y,3/4-z
1/4-x,1/2+y,3/4-z
-x,1/2-y,1/2-z
3/4+x,1/4+y,1/2-z
-x,1/4+y,1/4+z
3/4+x,1/2-y,1/4+z
1/2+x,y,1/2+z
3/4-x,1/4-y,1/2+z
1/2+x,1/4-y,3/4-z
3/4-x,y,3/4-z
1/2-x,-y,1/2-z
1/4+x,3/4+y,1/2-z
1/2-x,3/4+y,1/4+z
1/4+x,-y,1/4+z
1/2+x,1/2+y,z
3/4-x,3/4-y,z
1/2+x,3/4-y,1/4-z
3/4-x,1/2+y,1/4-z
1/2-x,1/2-y,-z
1/4+x,1/4+y,-z
1/2-x,1/4+y,3/4+z
1/4+x,1/2-y,3/4+z
loop_
_atom_site_type_symbol
_atom_site_label
_atom_site_fract_x
_atom_site_fract_y
_atom_site_fract_z
Si Si1 0.260967 0.197233 0.402461
Si Si2 0.047561 0.503370 0.408435
Si Si3 0.823700 0.125000 0.125000
Si Si4 0.625000 0.450794 0.125000
Si Si5 0.927608 0.871620 0.678736
O O1 0.250000 0.250000 0.500000
O O2 0.289877 0.214826 0.244119
O O3 0.292152 0.159327 0.508296
O O4 0.213368 0.166989 0.369654
O O5 0.087489 0.485646 0.530875
O O6 0.055118 0.564725 0.366573
O O7 0.000000 0.500000 0.500000
O O8 0.852750 0.163870 0.238080
O O9 0.875000 0.875000 0.624071
O O10 0.927450 0.875000 0.875000
#
# Coordination Sequence:
#
# PCOD9516849 Si02
#       5
#    32  32  16  16  32
#     4  12  26  47  73 108 152 195 245 315 375 445
#     4  12  25  45  78 105 149 193 250 311 377 452
#     4  12  28  46  73 106 146 193 252 310 376 456
#     4  12  26  48  73 110 140 201 250 310 384 448
#     4  11  24  44  75 108 145 197 249 296 370 458
#
# _framework density 20.942774
#
# number of rings (size 3 to 8) (size 9 to 14) (size 15 to 20)
#    0.000    0.250    2.500    7.500    3.500    0.000 
#    0.000    4.375    0.000    0.000    0.000    0.000 
#    0.000    0.000    0.000    0.000    0.000    0.000 
#
# Total GULP energy -179132.806840 kJ/mol
# GULP energy per Si atom -5597.900214 kJ/mol
# Density = 2.089511 g / cm^3
# Si number density = 20.942774 Si / 1000 Ang^3
#
#
#
# Elastic Constant Matrix: (Units=GPa)
#
#
# Indices 1 2 3 4 5 6 
#
# 1 170.5523 88.4631 62.3324 -0.0031 0.0026 -0.0027
# 2 88.4631 156.5077 52.1836 -0.0252 0.0085 -0.0172
# 3 62.3324 52.1836 111.9196 -0.0365 0.0185 -0.0085
# 4 -0.0031 -0.0252 -0.0365 52.4978 0.0151 -0.0197
# 5 0.0026 0.0085 0.0185 0.0151 28.0505 0.0110
# 6 -0.0027 -0.0172 -0.0085 -0.0197 0.0110 37.3996
#
#
#
# Elastic Compliance Matrix: (Units=1/GPa)
#
#
# Indices 1 2 3 4 5 6 
#
# 1 0.009162 -0.004118 -0.003183 -0.000004 0.000003 -0.000002
# 2 -0.004118 0.009416 -0.002097 0.000003 -0.000001 0.000004
# 3 -0.003183 -0.002097 0.011686 0.000007 -0.000007 0.000001
# 4 -0.000004 0.000003 0.000007 0.019048 -0.000010 0.000010
# 5 0.000003 -0.000001 -0.000007 -0.000010 0.035650 -0.000010
# 6 -0.000002 0.000004 0.000001 0.000010 -0.000010 0.026738
#
#
# Mechanical properties :
#
#
# Convention : Reuss Voigt Hill
#
# Bulk Modulus (GPa) = 87.19472 93.88199 90.53835
# Shear Modulus (GPa) = 37.22487 39.32294 38.27391
#
# Velocity S-wave (km/s) = 4.22056 4.33787 4.27962
# Velocity P-wave (km/s) = 8.09172 8.36748 8.23076
#
# Compressibility (1/GPa) = 0.01146858
#
# Stress axis : x y z
#
# Youngs Moduli (GPa) = 109.14267 106.20156 85.57599
#
# Poissons Ratio (x) = 0.43729 0.27239
# Poissons Ratio (y) = 0.44940 0.17946
# Poissons Ratio (z) = 0.34740 0.22272
#
# Static dielectric constant tensor:
#      x y z
#    x 1.594830 0.000000 -0.000030 
#    y 0.000000 1.708300 -0.000010 
#    z -0.000030 -0.000010 1.715220 
# 
# From -- ./inp_files/12028.got.cif
#   From: 2010.05.17/outbox.cif.g08.bks.cpg/sg70_7_cif.got.tgz:12028.got - 2010.06.03 15:57:51.
