data_PCOD9516865
_publ_section_title
;
Structure prediction by ZEFSAII (Michael W. Deem and Ramdas Pophale) SiO2 
 PCOD9516865
Probable space group: F D D D
;
_chemical_formula_sum "Si O2"
_cell_formula_units_Z 112
_cell_length_a 23.706726
_cell_length_b 10.851373
_cell_length_c 15.921026
_cell_angle_alpha 90.000000
_cell_angle_beta 90.000000
_cell_angle_gamma 90.000000
_cell_volume 4095.692320
_symmetry_space_group_name_H-M "F D D D"
_symmetry_group_IT_number 70
_space_group.IT_coordinate_system_code '2'
_symmetry_cell_setting 'orthorhombic'
loop_
_space_group_symop_operation_xyz
x,y,z
1/4-x,1/4-y,z
x,1/4-y,1/4-z
1/4-x,y,1/4-z
-x,-y,-z
3/4+x,3/4+y,-z
-x,3/4+y,3/4+z
3/4+x,-y,3/4+z
x,1/2+y,1/2+z
1/4-x,3/4-y,1/2+z
x,3/4-y,3/4-z
1/4-x,1/2+y,3/4-z
-x,1/2-y,1/2-z
3/4+x,1/4+y,1/2-z
-x,1/4+y,1/4+z
3/4+x,1/2-y,1/4+z
1/2+x,y,1/2+z
3/4-x,1/4-y,1/2+z
1/2+x,1/4-y,3/4-z
3/4-x,y,3/4-z
1/2-x,-y,1/2-z
1/4+x,3/4+y,1/2-z
1/2-x,3/4+y,1/4+z
1/4+x,-y,1/4+z
1/2+x,1/2+y,z
3/4-x,3/4-y,z
1/2+x,3/4-y,1/4-z
3/4-x,1/2+y,1/4-z
1/2-x,1/2-y,-z
1/4+x,1/4+y,-z
1/2-x,1/4+y,3/4+z
1/4+x,1/2-y,3/4+z
loop_
_atom_site_type_symbol
_atom_site_label
_atom_site_fract_x
_atom_site_fract_y
_atom_site_fract_z
Si Si1 0.125000 0.125000 0.995302
Si Si2 0.982583 0.934682 0.250084
Si Si3 0.925454 0.737208 0.154017
Si Si4 0.209700 0.945241 0.179067
O O1 0.078796 0.180973 0.930885
O O2 0.152328 0.233666 0.049060
O O3 0.931564 0.847374 0.220653
O O4 0.015180 0.970683 0.163515
O O5 0.958487 0.048660 0.303309
O O6 0.026878 0.851163 0.301811
O O7 0.883017 0.625000 0.125000
O O8 0.250000 0.000000 0.250000
#
# Coordination Sequence:
#
# PCOD9516865 Si02
#       4
#    16  32  32  32
#     4  12  28  46  83 115 168 200 288 330 405 482
#     4  11  24  49  81 108 160 208 272 319 422 473
#     4  11  24  45  76 115 151 211 258 335 397 481
#     4  12  25  49  78 117 152 217 262 344 398 487
#
# _framework density 27.345804000000001
#
# number of rings (size 3 to 8) (size 9 to 14) (size 15 to 20)
#    0.000    0.571    5.714    0.857    4.000    0.000 
#    0.000   14.286    6.286    0.000    0.000    0.000 
#    0.000    0.000    0.000    0.000    0.000    0.000 
#
# Total GULP energy -156081.111172 kJ/mol
# GULP energy per Si atom -5574.325399 kJ/mol
# Density = 2.728356 g / cm^3
# Si number density = 27.345804 Si / 1000 Ang^3
#
#
#
# Elastic Constant Matrix: (Units=GPa)
#
#
# Indices 1 2 3 4 5 6 
#
# 1 117.5583 50.1245 52.3241 0.0000 0.0000 0.0000
# 2 50.1245 191.6479 38.0046 0.0000 0.0000 0.0000
# 3 52.3241 38.0046 186.8476 0.0000 0.0000 0.0000
# 4 0.0000 0.0000 0.0000 26.5770 0.0000 0.0000
# 5 0.0000 0.0000 0.0000 0.0000 -46.5645 0.0000
# 6 0.0000 0.0000 0.0000 0.0000 0.0000 8.3596
#
#
#
# Elastic Compliance Matrix: (Units=1/GPa)
#
#
# Indices 1 2 3 4 5 6 
#
# 1 0.010590 -0.002273 -0.002503 0.000000 0.000000 0.000000
# 2 -0.002273 0.005925 -0.000569 0.000000 0.000000 0.000000
# 3 -0.002503 -0.000569 0.006169 0.000000 0.000000 0.000000
# 4 0.000000 0.000000 0.000000 0.037626 0.000000 0.000000
# 5 0.000000 0.000000 0.000000 0.000000 -0.021476 0.000000
# 6 0.000000 0.000000 0.000000 0.000000 0.000000 0.119623
#
#
# Mechanical properties :
#
#
# Convention : Reuss Voigt Hill
#
# Bulk Modulus (GPa) = 83.37814 86.32890 84.85352
# Shear Modulus (GPa) = 28.87752 21.38113 25.12932
#
# Velocity S-wave (km/s) = 3.25316 2.79924 3.03470
# Velocity P-wave (km/s) = 6.68335 6.48734 6.58608
#
# Compressibility (1/GPa) = 0.01199355
#
# Stress axis : x y z
#
# Youngs Moduli (GPa) = 94.43004 168.76977 162.11199
#
# Poissons Ratio (x) = 0.38367 0.40579
# Poissons Ratio (y) = 0.21467 0.09217
# Poissons Ratio (z) = 0.23637 0.09596
#
# Static dielectric constant tensor:
#      x y z
#    x 2.713450 0.000000 0.000000 
#    y 0.000000 2.383490 0.000000 
#    z 0.000000 0.000000 2.201870 
# 
# From -- ./inp_files/38246.got.cif
#   From: 2010.05.17/outbox.cif.g08.bks.cpg/sg70_20_cif.got.tgz:38246.got - 2010.06.03 15:57:51.
