data_PCOD9516100
_publ_section_title
;
Structure prediction by ZEFSAII (Michael W. Deem and Ramdas Pophale) SiO2 
 PCOD9516100
Probable space group: F D D D
;
_chemical_formula_sum "Si O2"
_cell_formula_units_Z 208
_cell_length_a 18.078961
_cell_length_b 21.078760
_cell_length_c 24.513690
_cell_angle_alpha 90.000000
_cell_angle_beta 90.000000
_cell_angle_gamma 90.000000
_cell_volume 9341.727973
_symmetry_space_group_name_H-M "F D D D"
_symmetry_group_IT_number 70
_space_group.IT_coordinate_system_code '2'
_symmetry_cell_setting 'orthorhombic'
loop_
_space_group_symop_operation_xyz
x,y,z
1/4-x,1/4-y,z
x,1/4-y,1/4-z
1/4-x,y,1/4-z
-x,-y,-z
3/4+x,3/4+y,-z
-x,3/4+y,3/4+z
3/4+x,-y,3/4+z
x,1/2+y,1/2+z
1/4-x,3/4-y,1/2+z
x,3/4-y,3/4-z
1/4-x,1/2+y,3/4-z
-x,1/2-y,1/2-z
3/4+x,1/4+y,1/2-z
-x,1/4+y,1/4+z
3/4+x,1/2-y,1/4+z
1/2+x,y,1/2+z
3/4-x,1/4-y,1/2+z
1/2+x,1/4-y,3/4-z
3/4-x,y,3/4-z
1/2-x,-y,1/2-z
1/4+x,3/4+y,1/2-z
1/2-x,3/4+y,1/4+z
1/4+x,-y,1/4+z
1/2+x,1/2+y,z
3/4-x,3/4-y,z
1/2+x,3/4-y,1/4-z
3/4-x,1/2+y,1/4-z
1/2-x,1/2-y,-z
1/4+x,1/4+y,-z
1/2-x,1/4+y,3/4+z
1/4+x,1/2-y,3/4+z
loop_
_atom_site_type_symbol
_atom_site_label
_atom_site_fract_x
_atom_site_fract_y
_atom_site_fract_z
Si Si1 0.559547 0.272441 0.682693
Si Si2 0.804493 0.977965 0.993794
Si Si3 0.839901 0.982929 0.114619
Si Si4 0.439943 0.921903 0.712453
Si Si5 0.455681 0.606278 0.390387
Si Si6 0.861417 0.625000 0.625000
Si Si7 0.984887 0.097760 0.040654
O O1 0.643515 0.255087 0.696448
O O2 0.544955 0.326430 0.639586
O O3 0.521150 0.205463 0.670537
O O4 0.532307 0.308367 0.736841
O O5 0.783853 0.906854 0.977331
O O6 0.729725 0.021174 0.995832
O O7 0.853753 0.979119 0.049342
O O8 0.899563 0.953380 0.157855
O O9 0.766848 0.941088 0.118677
O O10 0.823363 0.056545 0.127116
O O11 0.375000 0.875000 0.734989
O O12 0.509808 0.875484 0.698785
O O13 0.375000 0.580097 0.375000
O O14 0.913248 0.622441 0.571677
#
# Coordination Sequence:
#
# PCOD9516100 Si02
#       7
#    32  32  32  32  32  16  32
#     4  11  23  37  61  98 133 178 218 282 337 422
#     4  12  22  41  64 100 135 177 224 283 346 419
#     4  11  24  40  70  91 132 179 227 279 348 412
#     4  10  23  41  65  96 130 177 226 273 334 411
#     4  11  22  41  62  91 129 173 224 278 333 403
#     4  12  22  44  62  96 134 182 220 284 352 408
#     4  11  24  37  63  96 141 175 226 272 347 424
#
# _framework density 22.265688000000001
#
# number of rings (size 3 to 8) (size 9 to 14) (size 15 to 20)
#    0.000    0.923    6.154    1.385    2.154    1.231 
#    0.000    2.692    0.000    5.538    0.000    0.000 
#    0.000    0.000    0.000    0.000    0.000    0.000 
#
# Total GULP energy -290007.041994 kJ/mol
# GULP energy per Si atom -5577.058500 kJ/mol
# Density = 2.221501 g / cm^3
# Si number density = 22.265688 Si / 1000 Ang^3
#
#
#
# Elastic Constant Matrix: (Units=GPa)
#
#
# Indices 1 2 3 4 5 6 
#
# 1 84.5888 41.6042 1.7528 0.0000 0.0000 0.0000
# 2 41.6042 162.2203 13.6170 0.0000 0.0000 0.0000
# 3 1.7528 13.6170 30.9578 0.0000 0.0000 0.0000
# 4 0.0000 0.0000 0.0000 29.3865 0.0000 0.0000
# 5 0.0000 0.0000 0.0000 0.0000 15.0170 0.0000
# 6 0.0000 0.0000 0.0000 0.0000 0.0000 39.1519
#
#
#
# Elastic Compliance Matrix: (Units=1/GPa)
#
#
# Indices 1 2 3 4 5 6 
#
# 1 0.013547 -0.003541 0.000790 0.000000 0.000000 0.000000
# 2 -0.003541 0.007326 -0.003022 0.000000 0.000000 0.000000
# 3 0.000790 -0.003022 0.033587 0.000000 0.000000 0.000000
# 4 0.000000 0.000000 0.000000 0.034029 0.000000 0.000000
# 5 0.000000 0.000000 0.000000 0.000000 0.066591 0.000000
# 6 0.000000 0.000000 0.000000 0.000000 0.000000 0.025542
#
#
# Mechanical properties :
#
#
# Convention : Reuss Voigt Hill
#
# Bulk Modulus (GPa) = 23.30186 43.52388 33.41287
# Shear Modulus (GPa) = 24.21645 31.43062 27.82354
#
# Velocity S-wave (km/s) = 3.30148 3.76122 3.53882
# Velocity P-wave (km/s) = 5.00211 6.20100 5.63354
#
# Compressibility (1/GPa) = 0.04291504
#
# Stress axis : x y z
#
# Youngs Moduli (GPa) = 73.81722 136.49640 29.77387
#
# Poissons Ratio (x) = 0.48329 -0.02353
# Poissons Ratio (y) = 0.26136 0.08998
# Poissons Ratio (z) = -0.05834 0.41249
#
# Static dielectric constant tensor:
#      x y z
#    x 1.906830 0.000000 0.000000 
#    y 0.000000 1.827800 0.000000 
#    z 0.000000 0.000000 1.892530 
# 
# From -- ./inp_files/59638.got.cif
#   From: 2010.05.17/outbox.cif.g08.bks.cpg/sg70_30_cif.got.tgz:59638.got - 2010.06.03 15:57:51.
