data_PCOD9516112
_publ_section_title
;
Structure prediction by ZEFSAII (Michael W. Deem and Ramdas Pophale) SiO2 
 PCOD9516112
Probable space group: F D D D
;
_chemical_formula_sum "Si O2"
_cell_formula_units_Z 216
_cell_length_a 14.536956
_cell_length_b 22.513802
_cell_length_c 29.910540
_cell_angle_alpha 90.000000
_cell_angle_beta 90.000000
_cell_angle_gamma 90.000000
_cell_volume 9789.185811
_symmetry_space_group_name_H-M "F D D D"
_symmetry_group_IT_number 70
_space_group.IT_coordinate_system_code '2'
_symmetry_cell_setting 'orthorhombic'
loop_
_space_group_symop_operation_xyz
x,y,z
1/4-x,1/4-y,z
x,1/4-y,1/4-z
1/4-x,y,1/4-z
-x,-y,-z
3/4+x,3/4+y,-z
-x,3/4+y,3/4+z
3/4+x,-y,3/4+z
x,1/2+y,1/2+z
1/4-x,3/4-y,1/2+z
x,3/4-y,3/4-z
1/4-x,1/2+y,3/4-z
-x,1/2-y,1/2-z
3/4+x,1/4+y,1/2-z
-x,1/4+y,1/4+z
3/4+x,1/2-y,1/4+z
1/2+x,y,1/2+z
3/4-x,1/4-y,1/2+z
1/2+x,1/4-y,3/4-z
3/4-x,y,3/4-z
1/2-x,-y,1/2-z
1/4+x,3/4+y,1/2-z
1/2-x,3/4+y,1/4+z
1/4+x,-y,1/4+z
1/2+x,1/2+y,z
3/4-x,3/4-y,z
1/2+x,3/4-y,1/4-z
3/4-x,1/2+y,1/4-z
1/2-x,1/2-y,-z
1/4+x,1/4+y,-z
1/2-x,1/4+y,3/4+z
1/4+x,1/2-y,3/4+z
loop_
_atom_site_type_symbol
_atom_site_label
_atom_site_fract_x
_atom_site_fract_y
_atom_site_fract_z
Si Si1 0.500312 0.523038 0.122307
Si Si2 0.875000 0.227660 0.875000
Si Si3 0.419431 0.938679 0.793034
Si Si4 0.960982 0.835152 0.084230
Si Si5 0.344825 0.567513 0.802336
Si Si6 0.629400 0.784719 0.295965
Si Si7 0.625000 0.125000 0.625000
Si Si8 0.187800 0.683568 0.307078
O O1 0.559348 0.476605 0.091426
O O2 0.440167 0.553789 0.084125
O O3 0.557768 0.575179 0.147052
O O4 0.436214 0.484314 0.154984
O O5 0.870297 0.267271 0.830257
O O6 0.780675 0.189931 0.871767
O O7 0.375000 0.875000 0.796689
O O8 0.527637 0.928508 0.800232
O O9 0.413362 0.960506 0.741691
O O10 0.875000 0.875000 0.098859
O O11 0.914981 0.781686 0.056942
O O12 0.029343 0.875636 0.055063
O O13 0.339355 0.538944 0.753455
O O14 0.452793 0.582227 0.808184
O O15 0.125000 0.625000 0.310721
#
# Coordination Sequence:
#
# PCOD9516112 Si02
#       8
#    32  16  32  32  32  32   8  32
#     4  12  24  44  67 105 146 197 240 298 361 442
#     4  10  23  41  72 104 139 175 246 292 364 440
#     4   9  20  46  74 103 139 184 226 306 370 436
#     4  11  24  40  70 105 140 190 238 302 369 423
#     4  11  23  44  70 105 148 183 239 309 359 432
#     4  10  24  43  68 107 134 185 250 285 364 438
#     4  12  28  46  64 100 152 204 224 286 384 436
#     4  10  23  42  78 105 146 186 245 305 372 435
#
# _framework density 22.065163999999999
#
# number of rings (size 3 to 8) (size 9 to 14) (size 15 to 20)
#    0.000    1.481    2.963    0.667    4.148    2.370 
#    8.000    0.000    0.000   24.000    0.000    0.000 
#    0.000    0.000    0.000    0.000    0.000    0.000 
#
# Total GULP energy -301321.577147 kJ/mol
# GULP energy per Si atom -5580.029206 kJ/mol
# Density = 2.201494 g / cm^3
# Si number density = 22.065164 Si / 1000 Ang^3
#
#
#
# Elastic Constant Matrix: (Units=GPa)
#
#
# Indices 1 2 3 4 5 6 
#
# 1 101.0642 39.7616 50.6612 0.0000 0.0000 0.0000
# 2 39.7616 84.8595 45.2459 0.0000 0.0000 0.0000
# 3 50.6612 45.2459 160.7831 0.0000 0.0000 0.0000
# 4 0.0000 0.0000 0.0000 21.3484 0.0000 0.0000
# 5 0.0000 0.0000 0.0000 0.0000 181.8520 0.0000
# 6 0.0000 0.0000 0.0000 0.0000 0.0000 58.7380
#
#
#
# Elastic Compliance Matrix: (Units=1/GPa)
#
#
# Indices 1 2 3 4 5 6 
#
# 1 0.013144 -0.004648 -0.002834 0.000000 0.000000 0.000000
# 2 -0.004648 0.015508 -0.002900 0.000000 0.000000 0.000000
# 3 -0.002834 -0.002900 0.007928 0.000000 0.000000 0.000000
# 4 0.000000 0.000000 0.000000 0.046842 0.000000 0.000000
# 5 0.000000 0.000000 0.000000 0.000000 0.005499 0.000000
# 6 0.000000 0.000000 0.000000 0.000000 0.000000 0.017025
#
#
# Mechanical properties :
#
#
# Convention : Reuss Voigt Hill
#
# Bulk Modulus (GPa) = 63.21849 68.67160 65.94504
# Shear Modulus (GPa) = 37.88445 66.45688 52.17066
#
# Velocity S-wave (km/s) = 4.14809 5.49398 4.86778
# Velocity P-wave (km/s) = 7.18715 8.45192 7.84506
#
# Compressibility (1/GPa) = 0.01581816
#
# Stress axis : x y z
#
# Youngs Moduli (GPa) = 76.08234 64.48290 126.12958
#
# Poissons Ratio (x) = 0.29970 0.35739
# Poissons Ratio (y) = 0.35361 0.36573
# Poissons Ratio (z) = 0.21558 0.18698
#
# Static dielectric constant tensor:
#      x y z
#    x 1.861910 0.000000 0.000000 
#    y 0.000000 1.816610 0.000000 
#    z 0.000000 0.000000 1.845920 
# 
# From -- ./inp_files/65970.got.cif
#   From: 2010.05.17/outbox.cif.g08.bks.cpg/sg70_33_cif.got.tgz:65970.got - 2010.06.03 15:57:51.
