data_PCOD9516558
_publ_section_title
;
Structure prediction by ZEFSAII (Michael W. Deem and Ramdas Pophale) SiO2 
 PCOD9516558
Probable space group: F D D D
;
_chemical_formula_sum "Si O2"
_cell_formula_units_Z 192
_cell_length_a 16.707331
_cell_length_b 25.134641
_cell_length_c 22.107826
_cell_angle_alpha 90.000000
_cell_angle_beta 90.000000
_cell_angle_gamma 90.000000
_cell_volume 9283.800539
_symmetry_space_group_name_H-M "F D D D"
_symmetry_group_IT_number 70
_space_group.IT_coordinate_system_code '2'
_symmetry_cell_setting 'orthorhombic'
loop_
_space_group_symop_operation_xyz
x,y,z
1/4-x,1/4-y,z
x,1/4-y,1/4-z
1/4-x,y,1/4-z
-x,-y,-z
3/4+x,3/4+y,-z
-x,3/4+y,3/4+z
3/4+x,-y,3/4+z
x,1/2+y,1/2+z
1/4-x,3/4-y,1/2+z
x,3/4-y,3/4-z
1/4-x,1/2+y,3/4-z
-x,1/2-y,1/2-z
3/4+x,1/4+y,1/2-z
-x,1/4+y,1/4+z
3/4+x,1/2-y,1/4+z
1/2+x,y,1/2+z
3/4-x,1/4-y,1/2+z
1/2+x,1/4-y,3/4-z
3/4-x,y,3/4-z
1/2-x,-y,1/2-z
1/4+x,3/4+y,1/2-z
1/2-x,3/4+y,1/4+z
1/4+x,-y,1/4+z
1/2+x,1/2+y,z
3/4-x,3/4-y,z
1/2+x,3/4-y,1/4-z
3/4-x,1/2+y,1/4-z
1/2-x,1/2-y,-z
1/4+x,1/4+y,-z
1/2-x,1/4+y,3/4+z
1/4+x,1/2-y,3/4+z
loop_
_atom_site_type_symbol
_atom_site_label
_atom_site_fract_x
_atom_site_fract_y
_atom_site_fract_z
Si Si1 0.096798 0.531383 0.861255
Si Si2 0.699396 0.267745 0.735724
Si Si3 0.708360 0.112296 0.817594
Si Si4 0.882895 0.626256 0.947281
Si Si5 0.016466 0.875000 0.875000
Si Si6 0.625000 0.704285 0.125000
Si Si7 0.889866 0.206106 0.038454
O O1 0.086629 0.497151 0.800724
O O2 0.183895 0.560523 0.855884
O O3 0.039699 0.583350 0.857238
O O4 0.088588 0.494098 0.918514
O O5 0.693167 0.329675 0.721414
O O6 0.651085 0.239267 0.681884
O O7 0.786703 0.242057 0.734146
O O8 0.625000 0.125000 0.780715
O O9 0.791321 0.106755 0.784498
O O10 0.875000 0.625333 0.875000
O O11 0.899748 0.571268 0.980734
O O12 0.951706 0.830506 0.854021
O O13 0.072843 0.841573 0.920307
#
# Coordination Sequence:
#
# PCOD9516558 Si02
#       7
#    32  32  32  32  16  16  32
#     4   9  20  36  59  79 115 164 187 246 300 363
#     4  11  21  35  56  85 125 160 204 238 302 367
#     4   8  20  38  57  82 119 156 198 234 313 362
#     4  12  23  37  59  90 117 156 209 255 298 365
#     4   9  20  30  48  80 124 154 191 232 280 356
#     4   9  20  30  46  82 122 162 186 225 284 360
#     4  11  21  39  55  88 121 158 206 253 303 358
#
# _framework density 20.681186
#
# number of rings (size 3 to 8) (size 9 to 14) (size 15 to 20)
#    1.000    0.833    2.500    2.000    4.667    2.000 
#    0.000    0.833    0.000    0.000    0.000    0.000 
#    0.000    0.000    0.000    0.000    0.000    0.000 
#
# Total GULP energy -267531.496348 kJ/mol
# GULP energy per Si atom -5573.572841 kJ/mol
# Density = 2.063411 g / cm^3
# Si number density = 20.681186 Si / 1000 Ang^3
#
#
#
# Elastic Constant Matrix: (Units=GPa)
#
#
# Indices 1 2 3 4 5 6 
#
# 1 27.7040 9.4479 3.9256 0.0000 0.0000 0.0000
# 2 9.4479 120.4073 70.2958 0.0000 0.0000 0.0000
# 3 3.9256 70.2958 97.6261 0.0000 0.0000 0.0000
# 4 0.0000 0.0000 0.0000 26.9819 0.0000 0.0000
# 5 0.0000 0.0000 0.0000 0.0000 11.5247 0.0000
# 6 0.0000 0.0000 0.0000 0.0000 0.0000 17.4544
#
#
#
# Elastic Compliance Matrix: (Units=1/GPa)
#
#
# Indices 1 2 3 4 5 6 
#
# 1 0.037150 -0.003525 0.001044 0.000000 0.000000 0.000000
# 2 -0.003525 0.014663 -0.010416 0.000000 0.000000 0.000000
# 3 0.001044 -0.010416 0.017701 0.000000 0.000000 0.000000
# 4 0.000000 0.000000 0.000000 0.037062 0.000000 0.000000
# 5 0.000000 0.000000 0.000000 0.000000 0.086770 0.000000
# 6 0.000000 0.000000 0.000000 0.000000 0.000000 0.057292
#
#
# Mechanical properties :
#
#
# Convention : Reuss Voigt Hill
#
# Bulk Modulus (GPa) = 22.87251 45.89735 34.38493
# Shear Modulus (GPa) = 17.18177 21.99672 19.58924
#
# Velocity S-wave (km/s) = 2.88547 3.26484 3.08100
# Velocity P-wave (km/s) = 4.71008 6.03765 5.41471
#
# Compressibility (1/GPa) = 0.04372060
#
# Stress axis : x y z
#
# Youngs Moduli (GPa) = 26.91797 68.19913 56.49242
#
# Poissons Ratio (x) = 0.24037 -0.05898
# Poissons Ratio (y) = 0.09487 0.58844
# Poissons Ratio (z) = -0.02810 0.71039
#
# Static dielectric constant tensor:
#      x y z
#    x 1.789230 0.000000 0.000000 
#    y 0.000000 1.764370 0.000000 
#    z 0.000000 0.000000 1.773380 
# 
# From -- ./inp_files/45013.got.cif
#   From: 2010.05.17/outbox.cif.g08.bks.cpg/sg70_23_cif.got.tgz:45013.got - 2010.06.03 15:57:51.
