data_PCOD9516624
_publ_section_title
;
Structure prediction by ZEFSAII (Michael W. Deem and Ramdas Pophale) SiO2 
 PCOD9516624
Probable space group: F D D D
;
_chemical_formula_sum "Si O2"
_cell_formula_units_Z 144
_cell_length_a 21.014877
_cell_length_b 20.363052
_cell_length_c 16.365116
_cell_angle_alpha 90.000000
_cell_angle_beta 90.000000
_cell_angle_gamma 90.000000
_cell_volume 7003.075537
_symmetry_space_group_name_H-M "F D D D"
_symmetry_group_IT_number 70
_space_group.IT_coordinate_system_code '2'
_symmetry_cell_setting 'orthorhombic'
loop_
_space_group_symop_operation_xyz
x,y,z
1/4-x,1/4-y,z
x,1/4-y,1/4-z
1/4-x,y,1/4-z
-x,-y,-z
3/4+x,3/4+y,-z
-x,3/4+y,3/4+z
3/4+x,-y,3/4+z
x,1/2+y,1/2+z
1/4-x,3/4-y,1/2+z
x,3/4-y,3/4-z
1/4-x,1/2+y,3/4-z
-x,1/2-y,1/2-z
3/4+x,1/4+y,1/2-z
-x,1/4+y,1/4+z
3/4+x,1/2-y,1/4+z
1/2+x,y,1/2+z
3/4-x,1/4-y,1/2+z
1/2+x,1/4-y,3/4-z
3/4-x,y,3/4-z
1/2-x,-y,1/2-z
1/4+x,3/4+y,1/2-z
1/2-x,3/4+y,1/4+z
1/4+x,-y,1/4+z
1/2+x,1/2+y,z
3/4-x,3/4-y,z
1/2+x,3/4-y,1/4-z
3/4-x,1/2+y,1/4-z
1/2-x,1/2-y,-z
1/4+x,1/4+y,-z
1/2-x,1/4+y,3/4+z
1/4+x,1/2-y,3/4+z
loop_
_atom_site_type_symbol
_atom_site_label
_atom_site_fract_x
_atom_site_fract_y
_atom_site_fract_z
Si Si1 0.447918 0.893786 0.986307
Si Si2 0.771639 0.510287 0.480849
Si Si3 0.375000 0.062623 0.375000
Si Si4 0.913779 0.097464 0.218473
Si Si5 0.702512 0.267649 0.906562
O O1 0.375000 0.875000 0.969347
O O2 0.481419 0.827004 0.012585
O O3 0.457379 0.944480 0.060747
O O4 0.484093 0.937529 0.917095
O O5 0.816798 0.517326 0.403757
O O6 0.724732 0.448592 0.484181
O O7 0.814482 0.513303 0.562228
O O8 0.351100 0.105842 0.296610
O O9 0.920681 0.125000 0.125000
O O10 0.850855 0.052736 0.210116
#
# Coordination Sequence:
#
# PCOD9516624 Si02
#       5
#    32  32  16  32  32
#     4  11  22  39  67 103 137 176 225 282 359 424
#     4  12  25  43  70  97 139 184 231 287 345 408
#     4  12  26  48  71 103 136 186 234 286 350 412
#     4  12  25  47  72 100 141 186 229 287 351 412
#     4  11  23  44  65 103 141 174 224 296 348 415
#
# _framework density 20.562394999999999
#
# number of rings (size 3 to 8) (size 9 to 14) (size 15 to 20)
#    0.000    0.444    6.667    2.000    3.111    2.667 
#    0.000    0.556    0.000    0.000    0.000    0.000 
#    0.000    0.000    0.000    0.000    0.000    0.000 
#
# Total GULP energy -200933.288313 kJ/mol
# GULP energy per Si atom -5581.480231 kJ/mol
# Density = 2.051559 g / cm^3
# Si number density = 20.562395 Si / 1000 Ang^3
#
#
#
# Elastic Constant Matrix: (Units=GPa)
#
#
# Indices 1 2 3 4 5 6 
#
# 1 98.4987 16.8380 22.8592 0.0000 0.0000 0.0000
# 2 16.8380 65.8276 23.2770 0.0000 0.0000 0.0000
# 3 22.8592 23.2770 107.3982 0.0000 0.0000 0.0000
# 4 0.0000 0.0000 0.0000 30.2575 0.0000 0.0000
# 5 0.0000 0.0000 0.0000 0.0000 28.3173 0.0000
# 6 0.0000 0.0000 0.0000 0.0000 0.0000 33.1093
#
#
#
# Elastic Compliance Matrix: (Units=1/GPa)
#
#
# Indices 1 2 3 4 5 6 
#
# 1 0.010952 -0.002141 -0.001867 0.000000 0.000000 0.000000
# 2 -0.002141 0.016871 -0.003201 0.000000 0.000000 0.000000
# 3 -0.001867 -0.003201 0.010402 0.000000 0.000000 0.000000
# 4 0.000000 0.000000 0.000000 0.033050 0.000000 0.000000
# 5 0.000000 0.000000 0.000000 0.000000 0.035314 0.000000
# 6 0.000000 0.000000 0.000000 0.000000 0.000000 0.030203
#
#
# Mechanical properties :
#
#
# Convention : Reuss Voigt Hill
#
# Bulk Modulus (GPa) = 42.00461 44.18588 43.09525
# Shear Modulus (GPa) = 31.41795 32.25351 31.83573
#
# Velocity S-wave (km/s) = 3.91312 3.96481 3.93905
# Velocity P-wave (km/s) = 6.39444 6.51882 6.45693
#
# Compressibility (1/GPa) = 0.02380691
#
# Stress axis : x y z
#
# Youngs Moduli (GPa) = 91.30984 59.27443 96.13316
#
# Poissons Ratio (x) = 0.12692 0.17948
# Poissons Ratio (y) = 0.19551 0.30770
# Poissons Ratio (z) = 0.17047 0.18972
#
# Static dielectric constant tensor:
#      x y z
#    x 1.753720 0.000000 0.000000 
#    y 0.000000 1.733160 0.000000 
#    z 0.000000 0.000000 1.821440 
# 
# From -- ./inp_files/36233.got.cif
#   From: 2010.05.17/outbox.cif.g08.bks.cpg/sg70_19_cif.got.tgz:36233.got - 2010.06.03 15:57:51.
