data_PCOD9516135
_publ_section_title
;
Structure prediction by ZEFSAII (Michael W. Deem and Ramdas Pophale) SiO2 
 PCOD9516135
Probable space group: F D D D
;
_chemical_formula_sum "Si O2"
_cell_formula_units_Z 88
_cell_length_a 7.840483
_cell_length_b 16.364484
_cell_length_c 26.210378
_cell_angle_alpha 90.000000
_cell_angle_beta 90.000000
_cell_angle_gamma 90.000000
_cell_volume 3362.934570
_symmetry_space_group_name_H-M "F D D D"
_symmetry_group_IT_number 70
_space_group.IT_coordinate_system_code '2'
_symmetry_cell_setting 'orthorhombic'
loop_
_space_group_symop_operation_xyz
x,y,z
1/4-x,1/4-y,z
x,1/4-y,1/4-z
1/4-x,y,1/4-z
-x,-y,-z
3/4+x,3/4+y,-z
-x,3/4+y,3/4+z
3/4+x,-y,3/4+z
x,1/2+y,1/2+z
1/4-x,3/4-y,1/2+z
x,3/4-y,3/4-z
1/4-x,1/2+y,3/4-z
-x,1/2-y,1/2-z
3/4+x,1/4+y,1/2-z
-x,1/4+y,1/4+z
3/4+x,1/2-y,1/4+z
1/2+x,y,1/2+z
3/4-x,1/4-y,1/2+z
1/2+x,1/4-y,3/4-z
3/4-x,y,3/4-z
1/2-x,-y,1/2-z
1/4+x,3/4+y,1/2-z
1/2-x,3/4+y,1/4+z
1/4+x,-y,1/4+z
1/2+x,1/2+y,z
3/4-x,3/4-y,z
1/2+x,3/4-y,1/4-z
3/4-x,1/2+y,1/4-z
1/2-x,1/2-y,-z
1/4+x,1/4+y,-z
1/2-x,1/4+y,3/4+z
1/4+x,1/2-y,3/4+z
loop_
_atom_site_type_symbol
_atom_site_label
_atom_site_fract_x
_atom_site_fract_y
_atom_site_fract_z
Si Si1 0.625000 0.125000 0.625000
Si Si2 0.108346 0.311190 0.286033
Si Si3 0.875000 0.875000 0.625033
Si Si4 0.105874 0.935571 0.550858
O O1 0.748082 0.076706 0.663672
O O2 0.148164 0.393152 0.253944
O O3 0.284117 0.266599 0.299030
O O4 0.000000 0.250000 0.250000
O O5 0.817482 0.806742 0.583441
O O6 0.719983 0.876934 0.664900
#
# Coordination Sequence:
#
# PCOD9516135 Si02
#       4
#     8  32  16  32
#     4  12  26  40  80 114 164 206 258 326 392 480
#     4  12  23  44  70 114 149 210 254 321 385 482
#     4  10  23  42  70 108 136 204 247 330 384 474
#     4  11  24  43  73 105 151 195 264 314 400 462
#
# _framework density 26.167621
#
# number of rings (size 3 to 8) (size 9 to 14) (size 15 to 20)
#    0.000    0.727    7.273    0.000    5.091    1.455 
#    0.000    3.636    0.000    2.182    0.000    0.000 
#    0.000    0.000    0.000    0.000    0.000    0.000 
#
# Total GULP energy -123017.047833 kJ/mol
# GULP energy per Si atom -5591.683992 kJ/mol
# Density = 2.610806 g / cm^3
# Si number density = 26.167621 Si / 1000 Ang^3
#
#
#
# Elastic Constant Matrix: (Units=GPa)
#
#
# Indices 1 2 3 4 5 6 
#
# 1 105.4890 53.3147 70.2515 0.0000 0.0000 0.0000
# 2 53.3147 90.9693 83.0687 0.0000 0.0000 0.0000
# 3 70.2515 83.0687 217.2766 0.0000 0.0000 0.0000
# 4 0.0000 0.0000 0.0000 8.9471 0.0000 0.0000
# 5 0.0000 0.0000 0.0000 0.0000 64.7120 0.0000
# 6 0.0000 0.0000 0.0000 0.0000 0.0000 58.5762
#
#
#
# Elastic Compliance Matrix: (Units=1/GPa)
#
#
# Indices 1 2 3 4 5 6 
#
# 1 0.014094 -0.006297 -0.002149 0.000000 0.000000 0.000000
# 2 -0.006297 0.019703 -0.005497 0.000000 0.000000 0.000000
# 3 -0.002149 -0.005497 0.007399 0.000000 0.000000 0.000000
# 4 0.000000 0.000000 0.000000 0.111767 0.000000 0.000000
# 5 0.000000 0.000000 0.000000 0.000000 0.015453 0.000000
# 6 0.000000 0.000000 0.000000 0.000000 0.000000 0.017072
#
#
# Mechanical properties :
#
#
# Convention : Reuss Voigt Hill
#
# Bulk Modulus (GPa) = 75.13862 91.88941 83.51402
# Shear Modulus (GPa) = 22.95578 40.25373 31.60475
#
# Velocity S-wave (km/s) = 2.96507 3.92638 3.47908
# Velocity P-wave (km/s) = 6.36387 7.46640 6.93708
#
# Compressibility (1/GPa) = 0.01330874
#
# Stress axis : x y z
#
# Youngs Moduli (GPa) = 70.95366 50.75477 135.15721
#
# Poissons Ratio (x) = 0.31962 0.29049
# Poissons Ratio (y) = 0.44682 0.74290
# Poissons Ratio (z) = 0.15250 0.27898
#
# Static dielectric constant tensor:
#      x y z
#    x 2.121780 0.000000 0.000000 
#    y 0.000000 2.059030 0.000000 
#    z 0.000000 0.000000 2.030140 
# 
# From -- ./inp_files/7841.got.cif
#   From: 2010.05.17/outbox.cif.g08.bks.cpg/sg70_4_cif.got.tgz:7841.got - 2010.06.03 15:57:51.
