data_PCOD9516498
_publ_section_title
;
Structure prediction by ZEFSAII (Michael W. Deem and Ramdas Pophale) SiO2 
 PCOD9516498
Probable space group: F D D D
;
_chemical_formula_sum "Si O2"
_cell_formula_units_Z 144
_cell_length_a 25.479510
_cell_length_b 14.500899
_cell_length_c 16.102125
_cell_angle_alpha 90.000000
_cell_angle_beta 90.000000
_cell_angle_gamma 90.000000
_cell_volume 5949.345533
_symmetry_space_group_name_H-M "F D D D"
_symmetry_group_IT_number 70
_space_group.IT_coordinate_system_code '2'
_symmetry_cell_setting 'orthorhombic'
loop_
_space_group_symop_operation_xyz
x,y,z
1/4-x,1/4-y,z
x,1/4-y,1/4-z
1/4-x,y,1/4-z
-x,-y,-z
3/4+x,3/4+y,-z
-x,3/4+y,3/4+z
3/4+x,-y,3/4+z
x,1/2+y,1/2+z
1/4-x,3/4-y,1/2+z
x,3/4-y,3/4-z
1/4-x,1/2+y,3/4-z
-x,1/2-y,1/2-z
3/4+x,1/4+y,1/2-z
-x,1/4+y,1/4+z
3/4+x,1/2-y,1/4+z
1/2+x,y,1/2+z
3/4-x,1/4-y,1/2+z
1/2+x,1/4-y,3/4-z
3/4-x,y,3/4-z
1/2-x,-y,1/2-z
1/4+x,3/4+y,1/2-z
1/2-x,3/4+y,1/4+z
1/4+x,-y,1/4+z
1/2+x,1/2+y,z
3/4-x,3/4-y,z
1/2+x,3/4-y,1/4-z
3/4-x,1/2+y,1/4-z
1/2-x,1/2-y,-z
1/4+x,1/4+y,-z
1/2-x,1/4+y,3/4+z
1/4+x,1/2-y,3/4+z
loop_
_atom_site_type_symbol
_atom_site_label
_atom_site_fract_x
_atom_site_fract_y
_atom_site_fract_z
Si Si1 0.113326 0.344874 0.722751
Si Si2 0.037613 0.754893 0.932759
Si Si3 0.686341 0.092110 0.216258
Si Si4 0.352898 0.779346 0.526881
Si Si5 0.198856 0.625000 0.625000
O O1 0.125000 0.354921 0.625000
O O2 0.166231 0.303514 0.764745
O O3 0.068474 0.267065 0.731092
O O4 0.107278 0.444358 0.765592
O O5 0.057069 0.752236 0.837908
O O6 0.985128 0.813120 0.934068
O O7 0.032868 0.651723 0.966665
O O8 0.625000 0.125000 0.220502
O O9 0.704377 0.125000 0.125000
O O10 0.375000 0.875000 0.563425
O O11 0.332157 0.807882 0.436439
#
# Coordination Sequence:
#
# PCOD9516498 Si02
#       5
#    32  32  32  32  16
#     4  11  19  36  66 100 125 173 226 280 330 393
#     4  11  22  38  67  97 132 173 227 279 340 414
#     4   9  16  34  62 100 118 162 226 273 327 395
#     4  12  25  43  65  97 136 180 233 279 333 419
#     4  12  25  44  62  98 142 184 218 278 360 402
#
# _framework density 24.204343000000001
#
# number of rings (size 3 to 8) (size 9 to 14) (size 15 to 20)
#    0.000    1.111    6.667    4.333    0.000    0.000 
#    0.000    0.000    0.000   17.333    0.000    0.000 
#    0.000    0.000    0.000    0.000    0.000    0.000 
#
# Total GULP energy -201404.840667 kJ/mol
# GULP energy per Si atom -5594.578907 kJ/mol
# Density = 2.414925 g / cm^3
# Si number density = 24.204343 Si / 1000 Ang^3
#
#
#
# Elastic Constant Matrix: (Units=GPa)
#
#
# Indices 1 2 3 4 5 6 
#
# 1 34.3863 32.9894 10.5712 0.0000 0.0000 0.0000
# 2 32.9894 205.7425 27.0806 0.0000 0.0000 0.0000
# 3 10.5712 27.0806 98.4910 0.0000 0.0000 0.0000
# 4 0.0000 0.0000 0.0000 25.8448 0.0000 0.0000
# 5 0.0000 0.0000 0.0000 0.0000 19.2302 0.0000
# 6 0.0000 0.0000 0.0000 0.0000 0.0000 22.7154
#
#
#
# Elastic Compliance Matrix: (Units=1/GPa)
#
#
# Indices 1 2 3 4 5 6 
#
# 1 0.034858 -0.005288 -0.002287 0.000000 0.000000 0.000000
# 2 -0.005288 0.005845 -0.001040 0.000000 0.000000 0.000000
# 3 -0.002287 -0.001040 0.010685 0.000000 0.000000 0.000000
# 4 0.000000 0.000000 0.000000 0.038693 0.000000 0.000000
# 5 0.000000 0.000000 0.000000 0.000000 0.052002 0.000000
# 6 0.000000 0.000000 0.000000 0.000000 0.000000 0.044023
#
#
# Mechanical properties :
#
#
# Convention : Reuss Voigt Hill
#
# Bulk Modulus (GPa) = 29.27619 53.32246 41.29933
# Shear Modulus (GPa) = 23.28607 31.42331 27.35469
#
# Velocity S-wave (km/s) = 3.10508 3.60703 3.36543
# Velocity P-wave (km/s) = 4.99770 6.27898 5.67462
#
# Compressibility (1/GPa) = 0.03415745
#
# Stress axis : x y z
#
# Youngs Moduli (GPa) = 28.68795 171.08068 93.59301
#
# Poissons Ratio (x) = 0.90470 0.21408
# Poissons Ratio (y) = 0.15171 0.09730
# Poissons Ratio (z) = 0.06562 0.17785
#
# Static dielectric constant tensor:
#      x y z
#    x 1.936460 0.000000 0.000000 
#    y 0.000000 2.017690 0.000000 
#    z 0.000000 0.000000 1.875500 
# 
# From -- ./inp_files/39477.got.cif
#   From: 2010.05.17/outbox.cif.g08.bks.cpg/sg70_20_cif.got.tgz:39477.got - 2010.06.03 15:57:51.
