data_PCOD9516035
_publ_section_title
;
Structure prediction by ZEFSAII (Michael W. Deem and Ramdas Pophale) SiO2 
 PCOD9516035
Probable space group: F D D D
;
_chemical_formula_sum "Si O2"
_cell_formula_units_Z 176
_cell_length_a 25.474413
_cell_length_b 12.452589
_cell_length_c 28.881738
_cell_angle_alpha 90.000000
_cell_angle_beta 90.000000
_cell_angle_gamma 90.000000
_cell_volume 9161.934103
_symmetry_space_group_name_H-M "F D D D"
_symmetry_group_IT_number 70
_space_group.IT_coordinate_system_code '2'
_symmetry_cell_setting 'orthorhombic'
loop_
_space_group_symop_operation_xyz
x,y,z
1/4-x,1/4-y,z
x,1/4-y,1/4-z
1/4-x,y,1/4-z
-x,-y,-z
3/4+x,3/4+y,-z
-x,3/4+y,3/4+z
3/4+x,-y,3/4+z
x,1/2+y,1/2+z
1/4-x,3/4-y,1/2+z
x,3/4-y,3/4-z
1/4-x,1/2+y,3/4-z
-x,1/2-y,1/2-z
3/4+x,1/4+y,1/2-z
-x,1/4+y,1/4+z
3/4+x,1/2-y,1/4+z
1/2+x,y,1/2+z
3/4-x,1/4-y,1/2+z
1/2+x,1/4-y,3/4-z
3/4-x,y,3/4-z
1/2-x,-y,1/2-z
1/4+x,3/4+y,1/2-z
1/2-x,3/4+y,1/4+z
1/4+x,-y,1/4+z
1/2+x,1/2+y,z
3/4-x,3/4-y,z
1/2+x,3/4-y,1/4-z
3/4-x,1/2+y,1/4-z
1/2-x,1/2-y,-z
1/4+x,1/4+y,-z
1/2-x,1/4+y,3/4+z
1/4+x,1/2-y,3/4+z
loop_
_atom_site_type_symbol
_atom_site_label
_atom_site_fract_x
_atom_site_fract_y
_atom_site_fract_z
Si Si1 0.134112 0.338067 0.966181
Si Si2 0.982871 0.619431 0.013612
Si Si3 0.625000 0.625000 0.221393
Si Si4 0.302080 0.125000 0.125000
Si Si5 0.960273 0.002802 0.830261
Si Si6 0.837922 0.973613 0.465543
Si Si7 0.125000 0.846688 0.125000
O O1 0.073091 0.371854 0.961306
O O2 0.162788 0.331667 0.917144
O O3 0.135996 0.228208 0.996113
O O4 0.160690 0.432142 0.996578
O O5 0.029791 0.677235 0.040656
O O6 0.975083 0.680938 0.965275
O O7 0.000000 0.500000 0.000000
O O8 0.674263 0.654728 0.188699
O O9 0.262410 0.214392 0.144615
O O10 0.923572 0.077040 0.861882
O O11 0.875000 0.875000 0.480637
O O12 0.860923 0.023915 0.418808
#
# Coordination Sequence:
#
# PCOD9516035 Si02
#       7
#    32  32  16  16  32  32  16
#     4  11  25  46  65 102 140 179 232 279 353 416
#     4  11  22  45  69  92 133 186 225 284 347 401
#     4  10  22  47  68  96 138 182 228 285 334 422
#     4  12  26  43  66 106 141 184 224 286 356 418
#     4  11  23  40  70  98 136 178 225 281 345 407
#     4  12  23  44  72  98 137 178 234 289 339 411
#     4  12  23  43  70 110 130 179 245 286 336 414
#
# _framework density 19.209917999999998
#
# number of rings (size 3 to 8) (size 9 to 14) (size 15 to 20)
#    0.000    0.727    7.273    1.364    0.000    3.636 
#   11.455    0.000    0.000    0.000    0.000    0.000 
#    0.000    0.000    0.000    0.000    0.000    0.000 
#
# Total GULP energy -245995.356866 kJ/mol
# GULP energy per Si atom -5590.803565 kJ/mol
# Density = 1.916620 g / cm^3
# Si number density = 19.209918 Si / 1000 Ang^3
#
#
#
# Elastic Constant Matrix: (Units=GPa)
#
#
# Indices 1 2 3 4 5 6 
#
# 1 138.2788 52.4859 40.9694 0.0000 0.0000 0.0000
# 2 52.4859 113.7918 35.3891 0.0000 0.0000 0.0000
# 3 40.9694 35.3891 93.1400 0.0000 0.0000 0.0000
# 4 0.0000 0.0000 0.0000 15.2112 0.0000 0.0000
# 5 0.0000 0.0000 0.0000 0.0000 32.5062 0.0000
# 6 0.0000 0.0000 0.0000 0.0000 0.0000 30.6729
#
#
#
# Elastic Compliance Matrix: (Units=1/GPa)
#
#
# Indices 1 2 3 4 5 6 
#
# 1 0.009374 -0.003449 -0.002813 0.000000 0.000000 0.000000
# 2 -0.003449 0.011235 -0.002752 0.000000 0.000000 0.000000
# 3 -0.002813 -0.002752 0.013019 0.000000 0.000000 0.000000
# 4 0.000000 0.000000 0.000000 0.065741 0.000000 0.000000
# 5 0.000000 0.000000 0.000000 0.000000 0.030763 0.000000
# 6 0.000000 0.000000 0.000000 0.000000 0.000000 0.032602
#
#
# Mechanical properties :
#
#
# Convention : Reuss Voigt Hill
#
# Bulk Modulus (GPa) = 64.09793 66.98884 65.54338
# Shear Modulus (GPa) = 26.88719 30.10245 28.49482
#
# Velocity S-wave (km/s) = 3.74525 3.96286 3.85559
# Velocity P-wave (km/s) = 7.22095 7.47574 7.34945
#
# Compressibility (1/GPa) = 0.01560113
#
# Stress axis : x y z
#
# Youngs Moduli (GPa) = 106.67419 89.01113 76.80881
#
# Poissons Ratio (x) = 0.30700 0.21606
# Poissons Ratio (y) = 0.36792 0.21134
# Poissons Ratio (z) = 0.30007 0.24492
#
# Static dielectric constant tensor:
#      x y z
#    x 1.682370 0.000000 0.000000 
#    y 0.000000 1.633510 0.000000 
#    z 0.000000 0.000000 1.642700 
# 
# From -- ./inp_files/55025.got.cif
#   From: 2010.05.17/outbox.cif.g08.bks.cpg/sg70_28_cif.got.tgz:55025.got - 2010.06.03 15:57:51.
