data_PCOD9516888
_publ_section_title
;
Structure prediction by ZEFSAII (Michael W. Deem and Ramdas Pophale) SiO2 
 PCOD9516888
Probable space group: F D D D
;
_chemical_formula_sum "Si O2"
_cell_formula_units_Z 112
_cell_length_a 4.835335
_cell_length_b 34.636418
_cell_length_c 28.191047
_cell_angle_alpha 90.000000
_cell_angle_beta 90.000000
_cell_angle_gamma 90.000000
_cell_volume 4721.399459
_symmetry_space_group_name_H-M "F D D D"
_symmetry_group_IT_number 70
_space_group.IT_coordinate_system_code '2'
_symmetry_cell_setting 'orthorhombic'
loop_
_space_group_symop_operation_xyz
x,y,z
1/4-x,1/4-y,z
x,1/4-y,1/4-z
1/4-x,y,1/4-z
-x,-y,-z
3/4+x,3/4+y,-z
-x,3/4+y,3/4+z
3/4+x,-y,3/4+z
x,1/2+y,1/2+z
1/4-x,3/4-y,1/2+z
x,3/4-y,3/4-z
1/4-x,1/2+y,3/4-z
-x,1/2-y,1/2-z
3/4+x,1/4+y,1/2-z
-x,1/4+y,1/4+z
3/4+x,1/2-y,1/4+z
1/2+x,y,1/2+z
3/4-x,1/4-y,1/2+z
1/2+x,1/4-y,3/4-z
3/4-x,y,3/4-z
1/2-x,-y,1/2-z
1/4+x,3/4+y,1/2-z
1/2-x,3/4+y,1/4+z
1/4+x,-y,1/4+z
1/2+x,1/2+y,z
3/4-x,3/4-y,z
1/2+x,3/4-y,1/4-z
3/4-x,1/2+y,1/4-z
1/2-x,1/2-y,-z
1/4+x,1/4+y,-z
1/2-x,1/4+y,3/4+z
1/4+x,1/2-y,3/4+z
loop_
_atom_site_type_symbol
_atom_site_label
_atom_site_fract_x
_atom_site_fract_y
_atom_site_fract_z
Si Si1 0.201608 0.194943 0.422825
Si Si2 0.875000 0.875000 0.806442
Si Si3 0.875000 0.940352 0.875000
Si Si4 0.875000 0.875000 0.508393
Si Si5 0.184110 0.005628 0.304999
O O1 0.375000 0.185176 0.375000
O O2 0.227040 0.159278 0.458106
O O3 0.369540 0.231374 0.442135
O O4 0.886435 0.210388 0.424963
O O5 0.005143 0.909372 0.838294
O O6 0.626921 0.889698 0.773799
O O7 0.034687 0.969135 0.910140
O O8 0.250000 0.000000 0.250000
#
# Coordination Sequence:
#
# PCOD9516888 Si02
#       5
#    32  16  16  16  32
#     4  12  25  45  69 106 142 191 244 299 371 431
#     4  11  28  45  72 107 140 203 235 314 364 433
#     4  11  24  48  74 104 152 184 256 298 370 444
#     4  12  26  48  70 105 150 187 257 293 374 446
#     4  12  25  44  73 105 145 192 241 304 367 440
#
# _framework density 23.721778
#
# number of rings (size 3 to 8) (size 9 to 14) (size 15 to 20)
#    0.000    0.286    2.857    6.000    0.000   10.286 
#    0.000    0.000    0.000    0.000    0.000    0.000 
#    0.000    0.000    0.000    0.000    0.000    0.000 
#
# Total GULP energy -156430.133379 kJ/mol
# GULP energy per Si atom -5586.790478 kJ/mol
# Density = 2.366779 g / cm^3
# Si number density = 23.721778 Si / 1000 Ang^3
#
#
#
# Elastic Constant Matrix: (Units=GPa)
#
#
# Indices 1 2 3 4 5 6 
#
# 1 81.8482 -2.1013 25.6879 0.0000 0.0000 0.0000
# 2 -2.1013 115.2571 48.4489 0.0000 0.0000 0.0000
# 3 25.6879 48.4489 179.9165 0.0000 0.0000 0.0000
# 4 0.0000 0.0000 0.0000 7.3083 0.0000 0.0000
# 5 0.0000 0.0000 0.0000 0.0000 30.3072 0.0000
# 6 0.0000 0.0000 0.0000 0.0000 0.0000 20.2899
#
#
#
# Elastic Compliance Matrix: (Units=1/GPa)
#
#
# Indices 1 2 3 4 5 6 
#
# 1 0.012922 0.001140 -0.002152 0.000000 0.000000 0.000000
# 2 0.001140 0.009884 -0.002825 0.000000 0.000000 0.000000
# 3 -0.002152 -0.002825 0.006626 0.000000 0.000000 0.000000
# 4 0.000000 0.000000 0.000000 0.136831 0.000000 0.000000
# 5 0.000000 0.000000 0.000000 0.000000 0.032995 0.000000
# 6 0.000000 0.000000 0.000000 0.000000 0.000000 0.049286
#
#
# Mechanical properties :
#
#
# Convention : Reuss Voigt Hill
#
# Bulk Modulus (GPa) = 45.95574 57.89921 51.92748
# Shear Modulus (GPa) = 18.97743 31.91350 25.44547
#
# Velocity S-wave (km/s) = 2.83150 3.67185 3.27871
# Velocity P-wave (km/s) = 5.48677 6.51439 6.02254
#
# Compressibility (1/GPa) = 0.02176007
#
# Stress axis : x y z
#
# Youngs Moduli (GPa) = 77.38478 101.17021 150.92064
#
# Poissons Ratio (x) = -0.11536 0.32479
# Poissons Ratio (y) = -0.08824 0.42628
# Poissons Ratio (z) = 0.16654 0.28576
#
# Static dielectric constant tensor:
#      x y z
#    x 1.846660 0.000000 0.000000 
#    y 0.000000 3.474650 0.000000 
#    z 0.000000 0.000000 2.044640 
# 
# From -- ./inp_files/62943.got.cif
#   From: 2010.05.17/outbox.cif.g08.bks.cpg/sg70_32_cif.got.tgz:62943.got - 2010.06.03 15:57:51.
