data_PCOD9516772
_publ_section_title
;
Structure prediction by ZEFSAII (Michael W. Deem and Ramdas Pophale) SiO2 
 PCOD9516772
Probable space group: F D D D
;
_chemical_formula_sum "Si O2"
_cell_formula_units_Z 208
_cell_length_a 20.441454
_cell_length_b 24.729961
_cell_length_c 16.612852
_cell_angle_alpha 90.000000
_cell_angle_beta 90.000000
_cell_angle_gamma 90.000000
_cell_volume 8398.068476
_symmetry_space_group_name_H-M "F D D D"
_symmetry_group_IT_number 70
_space_group.IT_coordinate_system_code '2'
_symmetry_cell_setting 'orthorhombic'
loop_
_space_group_symop_operation_xyz
x,y,z
1/4-x,1/4-y,z
x,1/4-y,1/4-z
1/4-x,y,1/4-z
-x,-y,-z
3/4+x,3/4+y,-z
-x,3/4+y,3/4+z
3/4+x,-y,3/4+z
x,1/2+y,1/2+z
1/4-x,3/4-y,1/2+z
x,3/4-y,3/4-z
1/4-x,1/2+y,3/4-z
-x,1/2-y,1/2-z
3/4+x,1/4+y,1/2-z
-x,1/4+y,1/4+z
3/4+x,1/2-y,1/4+z
1/2+x,y,1/2+z
3/4-x,1/4-y,1/2+z
1/2+x,1/4-y,3/4-z
3/4-x,y,3/4-z
1/2-x,-y,1/2-z
1/4+x,3/4+y,1/2-z
1/2-x,3/4+y,1/4+z
1/4+x,-y,1/4+z
1/2+x,1/2+y,z
3/4-x,3/4-y,z
1/2+x,3/4-y,1/4-z
3/4-x,1/2+y,1/4-z
1/2-x,1/2-y,-z
1/4+x,1/4+y,-z
1/2-x,1/4+y,3/4+z
1/4+x,1/2-y,3/4+z
loop_
_atom_site_type_symbol
_atom_site_label
_atom_site_fract_x
_atom_site_fract_y
_atom_site_fract_z
Si Si1 0.129982 0.027733 0.814754
Si Si2 0.962198 0.403253 0.791215
Si Si3 0.010465 0.043404 0.931585
Si Si4 0.297172 0.761931 0.224032
Si Si5 0.875000 0.515066 0.375000
Si Si6 0.429566 0.578255 0.470368
Si Si7 0.457546 0.099817 0.786347
O O1 0.101506 0.071854 0.752570
O O2 0.180239 0.036733 0.888538
O O3 0.065351 0.023488 0.871618
O O4 0.161145 0.978742 0.762524
O O5 0.947694 0.375000 0.875000
O O6 0.013961 0.453926 0.795043
O O7 0.003832 0.356617 0.747285
O O8 0.012494 0.103832 0.965291
O O9 0.940706 0.048586 0.886584
O O10 0.000000 0.000000 0.000000
O O11 0.355783 0.763151 0.290113
O O12 0.240238 0.799907 0.258806
O O13 0.439495 0.576618 0.374566
O O14 0.365195 0.614178 0.495023
#
# Coordination Sequence:
#
# PCOD9516772 Si02
#       7
#    32  32  32  32  16  32  32
#     4  12  25  46  74 117 152 198 274 329 403 480
#     4  12  24  47  78 116 153 211 266 332 404 482
#     4  12  24  43  72 109 149 205 262 328 400 483
#     4  12  25  45  77 113 162 202 267 332 398 488
#     4  12  22  46  77 102 150 202 257 328 394 484
#     4  11  23  44  79 107 147 210 265 325 402 478
#     4  11  24  45  73 105 155 207 259 325 409 475
#
# _framework density 24.767600000000002
#
# number of rings (size 3 to 8) (size 9 to 14) (size 15 to 20)
#    0.000    0.308    7.692    1.846    0.000    1.231 
#    0.000    3.077    6.769    0.000    0.000    0.000 
#    0.000    0.000    0.000    0.000    0.000    0.000 
#
# Total GULP energy -290153.450794 kJ/mol
# GULP energy per Si atom -5579.874054 kJ/mol
# Density = 2.471123 g / cm^3
# Si number density = 24.767600 Si / 1000 Ang^3
#
#
#
# Elastic Constant Matrix: (Units=GPa)
#
#
# Indices 1 2 3 4 5 6 
#
# 1 119.4472 46.6849 12.8782 0.0000 0.0000 0.0000
# 2 46.6849 137.4921 57.6518 0.0000 0.0000 0.0000
# 3 12.8782 57.6518 107.2234 0.0000 0.0000 0.0000
# 4 0.0000 0.0000 0.0000 28.0026 0.0000 0.0000
# 5 0.0000 0.0000 0.0000 0.0000 41.5410 0.0000
# 6 0.0000 0.0000 0.0000 0.0000 0.0000 42.7281
#
#
#
# Elastic Compliance Matrix: (Units=1/GPa)
#
#
# Indices 1 2 3 4 5 6 
#
# 1 0.009704 -0.003623 0.000783 0.000000 0.000000 0.000000
# 2 -0.003623 0.010743 -0.005341 0.000000 0.000000 0.000000
# 3 0.000783 -0.005341 0.012104 0.000000 0.000000 0.000000
# 4 0.000000 0.000000 0.000000 0.035711 0.000000 0.000000
# 5 0.000000 0.000000 0.000000 0.000000 0.024073 0.000000
# 6 0.000000 0.000000 0.000000 0.000000 0.000000 0.023404
#
#
# Mechanical properties :
#
#
# Convention : Reuss Voigt Hill
#
# Bulk Modulus (GPa) = 61.77590 66.51030 64.14310
# Shear Modulus (GPa) = 36.36450 38.91752 37.64101
#
# Velocity S-wave (km/s) = 3.83590 3.96827 3.90265
# Velocity P-wave (km/s) = 6.67946 6.92158 6.80160
#
# Compressibility (1/GPa) = 0.01618754
#
# Stress axis : x y z
#
# Youngs Moduli (GPa) = 103.05547 93.08511 82.61640
#
# Poissons Ratio (x) = 0.33724 -0.06465
# Poissons Ratio (y) = 0.37336 0.44126
# Poissons Ratio (z) = -0.08064 0.49718
#
# Static dielectric constant tensor:
#      x y z
#    x 2.120410 0.000000 0.000000 
#    y 0.000000 2.128380 0.000000 
#    z 0.000000 0.000000 2.061850 
# 
# From -- ./inp_files/36712.got.cif
#   From: 2010.05.17/outbox.cif.g08.bks.cpg/sg70_19_cif.got.tgz:36712.got - 2010.06.03 15:57:51.
