data_PCOD9516290
_publ_section_title
;
Structure prediction by ZEFSAII (Michael W. Deem and Ramdas Pophale) SiO2 
 PCOD9516290
Probable space group: F D D D
;
_chemical_formula_sum "Si O2"
_cell_formula_units_Z 192
_cell_length_a 10.833426
_cell_length_b 34.306314
_cell_length_c 23.737888
_cell_angle_alpha 90.000000
_cell_angle_beta 90.000000
_cell_angle_gamma 90.000000
_cell_volume 8822.302724
_symmetry_space_group_name_H-M "F D D D"
_symmetry_group_IT_number 70
_space_group.IT_coordinate_system_code '2'
_symmetry_cell_setting 'orthorhombic'
loop_
_space_group_symop_operation_xyz
x,y,z
1/4-x,1/4-y,z
x,1/4-y,1/4-z
1/4-x,y,1/4-z
-x,-y,-z
3/4+x,3/4+y,-z
-x,3/4+y,3/4+z
3/4+x,-y,3/4+z
x,1/2+y,1/2+z
1/4-x,3/4-y,1/2+z
x,3/4-y,3/4-z
1/4-x,1/2+y,3/4-z
-x,1/2-y,1/2-z
3/4+x,1/4+y,1/2-z
-x,1/4+y,1/4+z
3/4+x,1/2-y,1/4+z
1/2+x,y,1/2+z
3/4-x,1/4-y,1/2+z
1/2+x,1/4-y,3/4-z
3/4-x,y,3/4-z
1/2-x,-y,1/2-z
1/4+x,3/4+y,1/2-z
1/2-x,3/4+y,1/4+z
1/4+x,-y,1/4+z
1/2+x,1/2+y,z
3/4-x,3/4-y,z
1/2+x,3/4-y,1/4-z
3/4-x,1/2+y,1/4-z
1/2-x,1/2-y,-z
1/4+x,1/4+y,-z
1/2-x,1/4+y,3/4+z
1/4+x,1/2-y,3/4+z
loop_
_atom_site_type_symbol
_atom_site_label
_atom_site_fract_x
_atom_site_fract_y
_atom_site_fract_z
Si Si1 0.113704 0.368826 0.744240
Si Si2 0.086359 0.232779 0.024873
Si Si3 0.125000 0.251035 0.625000
Si Si4 0.171089 0.454302 0.324194
Si Si5 0.625000 0.125000 0.919846
Si Si6 0.202164 0.682386 0.826886
Si Si7 0.326525 0.551655 0.699018
O O1 0.075708 0.335026 0.788087
O O2 0.207637 0.349877 0.699555
O O3 0.175129 0.404743 0.776659
O O4 0.993533 0.379939 0.708950
O O5 0.198198 0.220675 0.065624
O O6 0.948965 0.226889 0.048939
O O7 0.117116 0.200599 0.976064
O O8 0.107127 0.274218 0.995447
O O9 0.198725 0.227043 0.577150
O O10 0.223221 0.280283 0.651780
O O11 0.147936 0.446361 0.390041
O O12 0.635055 0.162287 0.878690
#
# Coordination Sequence:
#
# PCOD9516290 Si02
#       7
#    32  32  16  32  16  32  32
#     4  11  26  41  67 101 137 183 231 287 362 415
#     4  10  24  43  73  99 134 181 238 282 358 417
#     4  12  24  44  69  94 142 184 230 286 350 421
#     4  11  26  45  68  98 142 186 231 288 351 434
#     4  12  24  40  69  98 137 176 236 286 354 416
#     4  11  23  46  65  99 133 181 228 290 343 423
#     4  11  23  44  67 104 136 177 230 298 347 422
#
# _framework density 21.763026
#
# number of rings (size 3 to 8) (size 9 to 14) (size 15 to 20)
#    0.000    1.000    3.333    2.000    4.667    4.667 
#    0.000    5.000    0.000    0.000    0.000    0.000 
#    0.000    0.000    0.000    0.000    0.000    0.000 
#
# Total GULP energy -268163.340685 kJ/mol
# GULP energy per Si atom -5586.736264 kJ/mol
# Density = 2.171349 g / cm^3
# Si number density = 21.763026 Si / 1000 Ang^3
#
#
#
# Elastic Constant Matrix: (Units=GPa)
#
#
# Indices 1 2 3 4 5 6 
#
# 1 66.7751 54.7029 25.7759 0.0000 0.0000 0.0000
# 2 54.7029 123.7730 45.6183 0.0000 0.0000 0.0000
# 3 25.7759 45.6183 76.5793 0.0000 0.0000 0.0000
# 4 0.0000 0.0000 0.0000 38.1559 0.0000 0.0000
# 5 0.0000 0.0000 0.0000 0.0000 27.2144 0.0000
# 6 0.0000 0.0000 0.0000 0.0000 0.0000 35.0303
#
#
#
# Elastic Compliance Matrix: (Units=1/GPa)
#
#
# Indices 1 2 3 4 5 6 
#
# 1 0.023769 -0.009682 -0.002233 0.000000 0.000000 0.000000
# 2 -0.009682 0.014296 -0.005257 0.000000 0.000000 0.000000
# 3 -0.002233 -0.005257 0.016942 0.000000 0.000000 0.000000
# 4 0.000000 0.000000 0.000000 0.026208 0.000000 0.000000
# 5 0.000000 0.000000 0.000000 0.000000 0.036745 0.000000
# 6 0.000000 0.000000 0.000000 0.000000 0.000000 0.028547
#
#
# Mechanical properties :
#
#
# Convention : Reuss Voigt Hill
#
# Bulk Modulus (GPa) = 48.39691 57.70241 53.04966
# Shear Modulus (GPa) = 26.63266 29.48213 28.05739
#
# Velocity S-wave (km/s) = 3.50202 3.68460 3.59447
# Velocity P-wave (km/s) = 6.21600 6.68381 6.45414
#
# Compressibility (1/GPa) = 0.02066248
#
# Stress axis : x y z
#
# Youngs Moduli (GPa) = 42.07107 69.94924 59.02612
#
# Poissons Ratio (x) = 0.67726 0.13180
# Poissons Ratio (y) = 0.40734 0.31031
# Poissons Ratio (z) = 0.09394 0.36774
#
# Static dielectric constant tensor:
#      x y z
#    x 1.925640 0.000000 0.000000 
#    y 0.000000 1.773080 0.000000 
#    z 0.000000 0.000000 1.855760 
# 
# From -- ./inp_files/57838.got.cif
#   From: 2010.05.17/outbox.cif.g08.bks.cpg/sg70_29_cif.got.tgz:57838.got - 2010.06.03 15:57:51.
