data_PCOD9516982
_publ_section_title
;
Structure prediction by ZEFSAII (Michael W. Deem and Ramdas Pophale) SiO2 
 PCOD9516982
Probable space group: F D D D
;
_chemical_formula_sum "Si O2"
_cell_formula_units_Z 64
_cell_length_a 11.078659
_cell_length_b 27.158392
_cell_length_c 7.440023
_cell_angle_alpha 90.000000
_cell_angle_beta 90.000000
_cell_angle_gamma 90.000000
_cell_volume 2238.543436
_symmetry_space_group_name_H-M "F D D D"
_symmetry_group_IT_number 70
_space_group.IT_coordinate_system_code '2'
_symmetry_cell_setting 'orthorhombic'
loop_
_space_group_symop_operation_xyz
x,y,z
1/4-x,1/4-y,z
x,1/4-y,1/4-z
1/4-x,y,1/4-z
-x,-y,-z
3/4+x,3/4+y,-z
-x,3/4+y,3/4+z
3/4+x,-y,3/4+z
x,1/2+y,1/2+z
1/4-x,3/4-y,1/2+z
x,3/4-y,3/4-z
1/4-x,1/2+y,3/4-z
-x,1/2-y,1/2-z
3/4+x,1/4+y,1/2-z
-x,1/4+y,1/4+z
3/4+x,1/2-y,1/4+z
1/2+x,y,1/2+z
3/4-x,1/4-y,1/2+z
1/2+x,1/4-y,3/4-z
3/4-x,y,3/4-z
1/2-x,-y,1/2-z
1/4+x,3/4+y,1/2-z
1/2-x,3/4+y,1/4+z
1/4+x,-y,1/4+z
1/2+x,1/2+y,z
3/4-x,3/4-y,z
1/2+x,3/4-y,1/4-z
3/4-x,1/2+y,1/4-z
1/2-x,1/2-y,-z
1/4+x,1/4+y,-z
1/2-x,1/4+y,3/4+z
1/4+x,1/2-y,3/4+z
loop_
_atom_site_type_symbol
_atom_site_label
_atom_site_fract_x
_atom_site_fract_y
_atom_site_fract_z
Si Si1 0.755695 0.076293 0.757199
Si Si2 0.993913 0.956017 0.642434
O O1 0.751817 0.125000 0.625000
O O2 0.749718 0.033586 0.605395
O O3 0.634679 0.071169 0.877434
O O4 0.875000 0.074121 0.875000
O O5 0.125000 0.929925 0.625000
O O6 0.000000 0.000000 0.500000
#
# Coordination Sequence:
#
# PCOD9516982 Si02
#       2
#    32  32
#     4  11  27  53  83 118 168 230 300 356 430 533
#     4  11  27  49  78 123 170 216 277 357 440 523
#
# _framework density 28.590017
#
# number of rings (size 3 to 8) (size 9 to 14) (size 15 to 20)
#    0.000    1.000    0.000    4.500    7.000    8.000 
#    0.000    5.000    0.000    0.000    0.000    0.000 
#    0.000    0.000    0.000    0.000    0.000    0.000 
#
# Total GULP energy -89330.624292 kJ/mol
# GULP energy per Si atom -5583.164018 kJ/mol
# Density = 2.852494 g / cm^3
# Si number density = 28.590017 Si / 1000 Ang^3
#
#
#
# Elastic Constant Matrix: (Units=GPa)
#
#
# Indices 1 2 3 4 5 6 
#
# 1 431.7661 87.6463 113.5767 0.0000 0.0000 0.0000
# 2 87.6463 149.2247 96.0083 0.0000 0.0000 0.0000
# 3 113.5767 96.0083 187.5945 0.0000 0.0000 0.0000
# 4 0.0000 0.0000 0.0000 75.9193 0.0000 0.0000
# 5 0.0000 0.0000 0.0000 0.0000 88.9540 0.0000
# 6 0.0000 0.0000 0.0000 0.0000 0.0000 13.7654
#
#
#
# Elastic Compliance Matrix: (Units=1/GPa)
#
#
# Indices 1 2 3 4 5 6 
#
# 1 0.002822 -0.000832 -0.001283 0.000000 0.000000 0.000000
# 2 -0.000832 0.010237 -0.004735 0.000000 0.000000 0.000000
# 3 -0.001283 -0.004735 0.008531 0.000000 0.000000 0.000000
# 4 0.000000 0.000000 0.000000 0.013172 0.000000 0.000000
# 5 0.000000 0.000000 0.000000 0.000000 0.011242 0.000000
# 6 0.000000 0.000000 0.000000 0.000000 0.000000 0.072646
#
#
# Mechanical properties :
#
#
# Convention : Reuss Voigt Hill
#
# Bulk Modulus (GPa) = 126.75443 151.44977 139.10210
# Shear Modulus (GPa) = 37.04267 67.15135 52.09701
#
# Velocity S-wave (km/s) = 3.60342 4.85167 4.27337
# Velocity P-wave (km/s) = 7.85775 9.19091 8.55036
#
# Compressibility (1/GPa) = 0.00788927
#
# Stress axis : x y z
#
# Youngs Moduli (GPa) = 354.29640 97.68848 117.22503
#
# Poissons Ratio (x) = 0.08132 0.15038
# Poissons Ratio (y) = 0.29493 0.55506
# Poissons Ratio (z) = 0.45450 0.46255
#
# Static dielectric constant tensor:
#      x y z
#    x 2.322190 0.000000 0.000000 
#    y 0.000000 2.587850 0.000000 
#    z 0.000000 0.000000 2.217480 
# 
# From -- ./inp_files/5073.got.cif
#   From: 2010.05.17/outbox.cif.g08.bks.cpg/sg70_3_cif.got.tgz:5073.got - 2010.06.03 15:57:51.
