data_PCOD9516273
_publ_section_title
;
Structure prediction by ZEFSAII (Michael W. Deem and Ramdas Pophale) SiO2 
 PCOD9516273
Probable space group: F D D D
;
_chemical_formula_sum "Si O2"
_cell_formula_units_Z 176
_cell_length_a 28.295224
_cell_length_b 25.184951
_cell_length_c 9.424487
_cell_angle_alpha 90.000000
_cell_angle_beta 90.000000
_cell_angle_gamma 90.000000
_cell_volume 6716.019777
_symmetry_space_group_name_H-M "F D D D"
_symmetry_group_IT_number 70
_space_group.IT_coordinate_system_code '2'
_symmetry_cell_setting 'orthorhombic'
loop_
_space_group_symop_operation_xyz
x,y,z
1/4-x,1/4-y,z
x,1/4-y,1/4-z
1/4-x,y,1/4-z
-x,-y,-z
3/4+x,3/4+y,-z
-x,3/4+y,3/4+z
3/4+x,-y,3/4+z
x,1/2+y,1/2+z
1/4-x,3/4-y,1/2+z
x,3/4-y,3/4-z
1/4-x,1/2+y,3/4-z
-x,1/2-y,1/2-z
3/4+x,1/4+y,1/2-z
-x,1/4+y,1/4+z
3/4+x,1/2-y,1/4+z
1/2+x,y,1/2+z
3/4-x,1/4-y,1/2+z
1/2+x,1/4-y,3/4-z
3/4-x,y,3/4-z
1/2-x,-y,1/2-z
1/4+x,3/4+y,1/2-z
1/2-x,3/4+y,1/4+z
1/4+x,-y,1/4+z
1/2+x,1/2+y,z
3/4-x,3/4-y,z
1/2+x,3/4-y,1/4-z
3/4-x,1/2+y,1/4-z
1/2-x,1/2-y,-z
1/4+x,1/4+y,-z
1/2-x,1/4+y,3/4+z
1/4+x,1/2-y,3/4+z
loop_
_atom_site_type_symbol
_atom_site_label
_atom_site_fract_x
_atom_site_fract_y
_atom_site_fract_z
Si Si1 0.125000 0.430180 0.125000
Si Si2 0.717984 0.536816 0.526175
Si Si3 0.812230 0.984711 0.786265
Si Si4 0.273246 0.812410 0.179081
Si Si5 0.130206 0.716696 0.941678
Si Si6 0.958327 0.152112 0.405945
O O1 0.124622 0.472267 0.255608
O O2 0.082697 0.390728 0.086375
O O3 0.718741 0.521437 0.357400
O O4 0.732535 0.481866 0.599888
O O5 0.664068 0.557980 0.532193
O O6 0.762879 0.575053 0.542008
O O7 0.813728 0.046251 0.830969
O O8 0.861757 0.965562 0.719963
O O9 0.793565 0.950647 0.916544
O O10 0.316516 0.804583 0.068632
O O11 0.249807 0.869570 0.173207
#
# Coordination Sequence:
#
# PCOD9516273 Si02
#       6
#    16  32  32  32  32  32
#     4  12  26  42  64  95 124 181 218 276 316 394
#     4   9  22  40  61  95 135 167 199 277 332 386
#     4   9  22  42  64  96 138 164 202 288 334 382
#     4  11  20  39  68  93 127 172 213 269 334 389
#     4  10  24  43  64  90 135 173 211 270 337 385
#     4  11  22  38  66  97 129 163 232 254 331 410
#
# _framework density 26.205998999999998
#
# number of rings (size 3 to 8) (size 9 to 14) (size 15 to 20)
#    1.091    0.727    1.818    2.727    5.091    8.000 
#    0.000    0.000    8.000    1.091    0.000    0.000 
#    0.000    0.000    0.000    0.000    0.000    0.000 
#
# Total GULP energy -245511.932090 kJ/mol
# GULP energy per Si atom -5579.816638 kJ/mol
# Density = 2.614635 g / cm^3
# Si number density = 26.205999 Si / 1000 Ang^3
#
#
#
# Elastic Constant Matrix: (Units=GPa)
#
#
# Indices 1 2 3 4 5 6 
#
# 1 159.0219 12.8097 -4.7774 0.0000 0.0000 0.0001
# 2 12.8097 99.6861 3.0433 0.0003 0.0000 0.0001
# 3 -4.7774 3.0433 63.0347 -0.0002 0.0005 0.0001
# 4 0.0000 0.0003 -0.0002 34.9606 0.0001 0.0000
# 5 0.0000 0.0000 0.0005 0.0001 29.2280 -0.0001
# 6 0.0001 0.0001 0.0001 0.0000 -0.0001 34.4175
#
#
#
# Elastic Compliance Matrix: (Units=1/GPa)
#
#
# Indices 1 2 3 4 5 6 
#
# 1 0.006371 -0.000835 0.000523 0.000000 0.000000 0.000000
# 2 -0.000835 0.010156 -0.000554 0.000000 0.000000 0.000000
# 3 0.000523 -0.000554 0.015931 0.000000 0.000000 0.000000
# 4 0.000000 0.000000 0.000000 0.028604 0.000000 0.000000
# 5 0.000000 0.000000 0.000000 0.000000 0.034214 0.000000
# 6 0.000000 0.000000 0.000000 0.000000 0.000000 0.029055
#
#
# Mechanical properties :
#
#
# Convention : Reuss Voigt Hill
#
# Bulk Modulus (GPa) = 32.54410 38.21043 35.37727
# Shear Modulus (GPa) = 36.68303 40.43236 38.55769
#
# Velocity S-wave (km/s) = 3.74544 3.93220 3.83995
# Velocity P-wave (km/s) = 5.58122 5.93537 5.76102
#
# Compressibility (1/GPa) = 0.03072753
#
# Stress axis : x y z
#
# Youngs Moduli (GPa) = 156.95143 98.46742 62.77201
#
# Poissons Ratio (x) = 0.08219 -0.03284
# Poissons Ratio (y) = 0.13101 0.03475
# Poissons Ratio (z) = -0.08212 0.05451
#
# Static dielectric constant tensor:
#      x y z
#    x 2.359670 0.000000 0.000000 
#    y 0.000000 2.067790 0.000000 
#    z 0.000000 0.000000 2.192900 
# 
# From -- ./inp_files/21204.got.cif
#   From: 2010.05.17/outbox.cif.g08.bks.cpg/sg70_11_cif.got.tgz:21204.got - 2010.06.03 15:57:51.
