data_PCOD9516369
_publ_section_title
;
Structure prediction by ZEFSAII (Michael W. Deem and Ramdas Pophale) SiO2 
 PCOD9516369
Probable space group: F D D D
;
_chemical_formula_sum "Si O2"
_cell_formula_units_Z 104
_cell_length_a 24.401154
_cell_length_b 13.728347
_cell_length_c 14.765870
_cell_angle_alpha 90.000000
_cell_angle_beta 90.000000
_cell_angle_gamma 90.000000
_cell_volume 4946.382014
_symmetry_space_group_name_H-M "F D D D"
_symmetry_group_IT_number 70
_space_group.IT_coordinate_system_code '2'
_symmetry_cell_setting 'orthorhombic'
loop_
_space_group_symop_operation_xyz
x,y,z
1/4-x,1/4-y,z
x,1/4-y,1/4-z
1/4-x,y,1/4-z
-x,-y,-z
3/4+x,3/4+y,-z
-x,3/4+y,3/4+z
3/4+x,-y,3/4+z
x,1/2+y,1/2+z
1/4-x,3/4-y,1/2+z
x,3/4-y,3/4-z
1/4-x,1/2+y,3/4-z
-x,1/2-y,1/2-z
3/4+x,1/4+y,1/2-z
-x,1/4+y,1/4+z
3/4+x,1/2-y,1/4+z
1/2+x,y,1/2+z
3/4-x,1/4-y,1/2+z
1/2+x,1/4-y,3/4-z
3/4-x,y,3/4-z
1/2-x,-y,1/2-z
1/4+x,3/4+y,1/2-z
1/2-x,3/4+y,1/4+z
1/4+x,-y,1/4+z
1/2+x,1/2+y,z
3/4-x,3/4-y,z
1/2+x,3/4-y,1/4-z
3/4-x,1/2+y,1/4-z
1/2-x,1/2-y,-z
1/4+x,1/4+y,-z
1/2-x,1/4+y,3/4+z
1/4+x,1/2-y,3/4+z
loop_
_atom_site_type_symbol
_atom_site_label
_atom_site_fract_x
_atom_site_fract_y
_atom_site_fract_z
Si Si1 0.546423 0.576625 0.525610
Si Si2 0.375000 0.375000 0.875000
Si Si3 0.338458 0.239250 0.210279
Si Si4 0.563606 0.472640 0.996905
O O1 0.544186 0.625000 0.625000
O O2 0.500000 0.500000 0.500000
O O3 0.604671 0.525739 0.503754
O O4 0.544271 0.674138 0.466041
O O5 0.408752 0.449172 0.937786
O O6 0.319960 0.143146 0.264329
O O7 0.342254 0.227078 0.102199
O O8 0.500000 0.500000 0.000000
#
# Coordination Sequence:
#
# PCOD9516369 Si02
#       4
#    32   8  32  32
#     4  11  26  44  75 107 140 194 242 306 379 445
#     4  12  24  40  76  98 138 188 240 296 360 428
#     4  10  24  48  67 100 151 179 246 299 365 451
#     4  11  26  44  69 104 140 192 240 303 367 440
#
# _framework density 21.025469000000001
#
# number of rings (size 3 to 8) (size 9 to 14) (size 15 to 20)
#    0.000    1.231    0.000    5.538   12.923    2.462 
#    0.000    0.000    0.000    0.000    0.000    0.000 
#    0.000    0.000    0.000    0.000    0.000    0.000 
#
# Total GULP energy -145030.790287 kJ/mol
# GULP energy per Si atom -5578.107319 kJ/mol
# Density = 2.097761 g / cm^3
# Si number density = 21.025469 Si / 1000 Ang^3
#
#
#
# Elastic Constant Matrix: (Units=GPa)
#
#
# Indices 1 2 3 4 5 6 
#
# 1 145.4719 107.2847 61.7223 0.0000 0.0000 0.0000
# 2 107.2847 239.7366 57.6587 0.0000 0.0000 0.0000
# 3 61.7223 57.6587 103.2777 0.0000 0.0000 0.0000
# 4 0.0000 0.0000 0.0000 43.8587 0.0000 0.0000
# 5 0.0000 0.0000 0.0000 0.0000 -153.3753 0.0000
# 6 0.0000 0.0000 0.0000 0.0000 0.0000 42.0777
#
#
#
# Elastic Compliance Matrix: (Units=1/GPa)
#
#
# Indices 1 2 3 4 5 6 
#
# 1 0.012044 -0.004226 -0.004838 0.000000 0.000000 0.000000
# 2 -0.004226 0.006301 -0.000992 0.000000 0.000000 0.000000
# 3 -0.004838 -0.000992 0.013128 0.000000 0.000000 0.000000
# 4 0.000000 0.000000 0.000000 0.022801 0.000000 0.000000
# 5 0.000000 0.000000 0.000000 0.000000 -0.006520 0.000000
# 6 0.000000 0.000000 0.000000 0.000000 0.000000 0.023766
#
#
# Mechanical properties :
#
#
# Convention : Reuss Voigt Hill
#
# Bulk Modulus (GPa) = 88.03042 104.64640 96.33841
# Shear Modulus (GPa) = 52.40052 3.96691 28.18371
#
# Velocity S-wave (km/s) = 4.99765 1.37507 3.66520
# Velocity P-wave (km/s) = 8.67533 7.23881 7.98942
#
# Compressibility (1/GPa) = 0.01135971
#
# Stress axis : x y z
#
# Youngs Moduli (GPa) = 83.03072 158.70339 76.17210
#
# Poissons Ratio (x) = 0.67068 0.36855
# Poissons Ratio (y) = 0.35089 0.07558
# Poissons Ratio (z) = 0.40174 0.15746
#
# Static dielectric constant tensor:
#      x y z
#    x 1.757300 0.000000 0.000000 
#    y 0.000000 1.823760 0.000000 
#    z 0.000000 0.000000 1.762840 
# 
# From -- ./inp_files/27184.got.cif
#   From: 2010.05.17/outbox.cif.g08.bks.cpg/sg70_14_cif.got.tgz:27184.got - 2010.06.03 15:57:51.
