data_PCOD9516311
_publ_section_title
;
Structure prediction by ZEFSAII (Michael W. Deem and Ramdas Pophale) SiO2 
 PCOD9516311
Probable space group: F D D D
;
_chemical_formula_sum "Si O2"
_cell_formula_units_Z 96
_cell_length_a 9.279603
_cell_length_b 19.362988
_cell_length_c 25.166693
_cell_angle_alpha 90.000000
_cell_angle_beta 90.000000
_cell_angle_gamma 90.000000
_cell_volume 4521.972577
_symmetry_space_group_name_H-M "F D D D"
_symmetry_group_IT_number 70
_space_group.IT_coordinate_system_code '2'
_symmetry_cell_setting 'orthorhombic'
loop_
_space_group_symop_operation_xyz
x,y,z
1/4-x,1/4-y,z
x,1/4-y,1/4-z
1/4-x,y,1/4-z
-x,-y,-z
3/4+x,3/4+y,-z
-x,3/4+y,3/4+z
3/4+x,-y,3/4+z
x,1/2+y,1/2+z
1/4-x,3/4-y,1/2+z
x,3/4-y,3/4-z
1/4-x,1/2+y,3/4-z
-x,1/2-y,1/2-z
3/4+x,1/4+y,1/2-z
-x,1/4+y,1/4+z
3/4+x,1/2-y,1/4+z
1/2+x,y,1/2+z
3/4-x,1/4-y,1/2+z
1/2+x,1/4-y,3/4-z
3/4-x,y,3/4-z
1/2-x,-y,1/2-z
1/4+x,3/4+y,1/2-z
1/2-x,3/4+y,1/4+z
1/4+x,-y,1/4+z
1/2+x,1/2+y,z
3/4-x,3/4-y,z
1/2+x,3/4-y,1/4-z
3/4-x,1/2+y,1/4-z
1/2-x,1/2-y,-z
1/4+x,1/4+y,-z
1/2-x,1/4+y,3/4+z
1/4+x,1/2-y,3/4+z
loop_
_atom_site_type_symbol
_atom_site_label
_atom_site_fract_x
_atom_site_fract_y
_atom_site_fract_z
Si Si1 0.237727 0.918729 0.262471
Si Si2 0.625038 0.375000 0.875000
Si Si3 0.625000 0.513762 0.625000
Si Si4 0.044688 0.381162 0.074479
O O1 0.375000 0.875000 0.241076
O O2 0.216136 0.893845 0.322938
O O3 0.093833 0.898643 0.230886
O O4 0.250000 0.000000 0.250000
O O5 0.734219 0.439680 0.871274
O O6 0.607143 0.459188 0.577084
O O7 0.125000 0.345899 0.125000
O O8 0.875000 0.375000 0.082482
#
# Coordination Sequence:
#
# PCOD9516311 Si02
#       4
#    32  16  16  32
#     4  12  28  45  73 109 148 191 249 309 379 444
#     4  11  25  44  70 104 148 188 244 310 362 454
#     4   9  24  44  68 100 143 184 252 284 379 430
#     4  10  24  44  72  97 142 189 244 300 364 438
#
# _framework density 21.229672999999998
#
# number of rings (size 3 to 8) (size 9 to 14) (size 15 to 20)
#    1.000    0.333    0.000    3.500   14.000    1.333 
#    0.000    0.000    0.000    0.000    0.000    0.000 
#    0.000    0.000    0.000    0.000    0.000    0.000 
#
# Total GULP energy -133764.885920 kJ/mol
# GULP energy per Si atom -5573.536913 kJ/mol
# Density = 2.118135 g / cm^3
# Si number density = 21.229673 Si / 1000 Ang^3
#
#
#
# Elastic Constant Matrix: (Units=GPa)
#
#
# Indices 1 2 3 4 5 6 
#
# 1 131.7060 35.8318 54.7746 0.0000 0.0000 0.0000
# 2 35.8318 137.7543 33.0245 0.0000 0.0000 0.0000
# 3 54.7746 33.0245 124.8267 0.0000 0.0000 0.0000
# 4 0.0000 0.0000 0.0000 13.5573 0.0000 0.0000
# 5 0.0000 0.0000 0.0000 0.0000 13.4856 0.0000
# 6 0.0000 0.0000 0.0000 0.0000 0.0000 9.4528
#
#
#
# Elastic Compliance Matrix: (Units=1/GPa)
#
#
# Indices 1 2 3 4 5 6 
#
# 1 0.009602 -0.001588 -0.003793 0.000000 0.000000 0.000000
# 2 -0.001588 0.008014 -0.001423 0.000000 0.000000 0.000000
# 3 -0.003793 -0.001423 0.010052 0.000000 0.000000 0.000000
# 4 0.000000 0.000000 0.000000 0.073761 0.000000 0.000000
# 5 0.000000 0.000000 0.000000 0.000000 0.074153 0.000000
# 6 0.000000 0.000000 0.000000 0.000000 0.000000 0.105789
#
#
# Mechanical properties :
#
#
# Convention : Reuss Voigt Hill
#
# Bulk Modulus (GPa) = 71.13121 71.28318 71.20720
# Shear Modulus (GPa) = 16.68521 25.34289 21.01405
#
# Velocity S-wave (km/s) = 2.80650 3.45881 3.14959
# Velocity P-wave (km/s) = 6.63929 7.04281 6.84403
#
# Compressibility (1/GPa) = 0.01405853
#
# Stress axis : x y z
#
# Youngs Moduli (GPa) = 104.14076 124.78759 99.48102
#
# Poissons Ratio (x) = 0.19820 0.37737
# Poissons Ratio (y) = 0.16541 0.14158
# Poissons Ratio (z) = 0.39504 0.17759
#
# Static dielectric constant tensor:
#      x y z
#    x 1.722180 0.000000 0.000000 
#    y 0.000000 1.807450 0.000000 
#    z 0.000000 0.000000 1.757130 
# 
# From -- ./inp_files/56241.got.cif
#   From: 2010.05.17/outbox.cif.g08.bks.cpg/sg70_29_cif.got.tgz:56241.got - 2010.06.03 15:57:51.
