data_PCOD9516703
_publ_section_title
;
Structure prediction by ZEFSAII (Michael W. Deem and Ramdas Pophale) SiO2 
 PCOD9516703
Probable space group: F D D D
;
_chemical_formula_sum "Si O2"
_cell_formula_units_Z 104
_cell_length_a 15.232352
_cell_length_b 25.534617
_cell_length_c 12.477033
_cell_angle_alpha 90.000000
_cell_angle_beta 90.000000
_cell_angle_gamma 90.000000
_cell_volume 4852.970362
_symmetry_space_group_name_H-M "F D D D"
_symmetry_group_IT_number 70
_space_group.IT_coordinate_system_code '2'
_symmetry_cell_setting 'orthorhombic'
loop_
_space_group_symop_operation_xyz
x,y,z
1/4-x,1/4-y,z
x,1/4-y,1/4-z
1/4-x,y,1/4-z
-x,-y,-z
3/4+x,3/4+y,-z
-x,3/4+y,3/4+z
3/4+x,-y,3/4+z
x,1/2+y,1/2+z
1/4-x,3/4-y,1/2+z
x,3/4-y,3/4-z
1/4-x,1/2+y,3/4-z
-x,1/2-y,1/2-z
3/4+x,1/4+y,1/2-z
-x,1/4+y,1/4+z
3/4+x,1/2-y,1/4+z
1/2+x,y,1/2+z
3/4-x,1/4-y,1/2+z
1/2+x,1/4-y,3/4-z
3/4-x,y,3/4-z
1/2-x,-y,1/2-z
1/4+x,3/4+y,1/2-z
1/2-x,3/4+y,1/4+z
1/4+x,-y,1/4+z
1/2+x,1/2+y,z
3/4-x,3/4-y,z
1/2+x,3/4-y,1/4-z
3/4-x,1/2+y,1/4-z
1/2-x,1/2-y,-z
1/4+x,1/4+y,-z
1/2-x,1/4+y,3/4+z
1/4+x,1/2-y,3/4+z
loop_
_atom_site_type_symbol
_atom_site_label
_atom_site_fract_x
_atom_site_fract_y
_atom_site_fract_z
Si Si1 0.954185 0.162086 0.525779
Si Si2 0.270783 0.012794 0.872989
Si Si3 0.375000 0.375000 0.875000
Si Si4 0.258156 0.617728 0.799885
O O1 0.982417 0.125000 0.625000
O O2 0.008662 0.156588 0.416344
O O3 0.855661 0.145226 0.493021
O O4 0.963958 0.221213 0.561944
O O5 0.375000 0.003614 0.875000
O O6 0.250000 0.000000 0.750000
O O7 0.254386 0.070225 0.922956
O O8 0.308658 0.401693 0.790961
#
# Coordination Sequence:
#
# PCOD9516703 Si02
#       4
#    32  32   8  32
#     4  11  22  46  74 103 150 193 243 318 368 437
#     4  12  25  45  77 111 145 198 256 310 385 453
#     4  12  28  44  70 100 154 204 240 302 396 428
#     4  11  25  47  70 110 155 192 248 319 370 456
#
# _framework density 21.430174000000001
#
# number of rings (size 3 to 8) (size 9 to 14) (size 15 to 20)
#    0.000    0.615    7.692    0.000    4.308    3.077 
#    0.000    3.077    0.000    0.000    0.000    0.000 
#    0.000    0.000    0.000    0.000    0.000    0.000 
#
# Total GULP energy -145112.033957 kJ/mol
# GULP energy per Si atom -5581.232075 kJ/mol
# Density = 2.138140 g / cm^3
# Si number density = 21.430174 Si / 1000 Ang^3
#
#
#
# Elastic Constant Matrix: (Units=GPa)
#
#
# Indices 1 2 3 4 5 6 
#
# 1 71.4739 15.5766 51.1362 0.0000 0.0000 0.0000
# 2 15.5766 145.6024 46.3119 0.0000 0.0000 0.0000
# 3 51.1362 46.3119 197.7198 0.0000 0.0000 0.0000
# 4 0.0000 0.0000 0.0000 33.9943 0.0000 0.0000
# 5 0.0000 0.0000 0.0000 0.0000 -114.2683 0.0000
# 6 0.0000 0.0000 0.0000 0.0000 0.0000 26.9871
#
#
#
# Elastic Compliance Matrix: (Units=1/GPa)
#
#
# Indices 1 2 3 4 5 6 
#
# 1 0.017196 -0.000459 -0.004340 0.000000 0.000000 0.000000
# 2 -0.000459 0.007433 -0.001622 0.000000 0.000000 0.000000
# 3 -0.004340 -0.001622 0.006560 0.000000 0.000000 0.000000
# 4 0.000000 0.000000 0.000000 0.029417 0.000000 0.000000
# 5 0.000000 0.000000 0.000000 0.000000 -0.008751 0.000000
# 6 0.000000 0.000000 0.000000 0.000000 0.000000 0.037055
#
#
# Mechanical properties :
#
#
# Convention : Reuss Voigt Hill
#
# Bulk Modulus (GPa) = 54.50610 71.20503 62.85557
# Shear Modulus (GPa) = 46.35296 9.46069 27.90682
#
# Velocity S-wave (km/s) = 4.65583 2.10339 3.61254
# Velocity P-wave (km/s) = 7.37508 6.26080 6.84067
#
# Compressibility (1/GPa) = 0.01834657
#
# Stress axis : x y z
#
# Youngs Moduli (GPa) = 58.15240 134.53239 152.43737
#
# Poissons Ratio (x) = 0.06179 0.66156
# Poissons Ratio (y) = 0.02671 0.24730
# Poissons Ratio (z) = 0.25237 0.21825
#
# Static dielectric constant tensor:
#      x y z
#    x 1.818340 0.000000 0.000000 
#    y 0.000000 1.763550 0.000000 
#    z 0.000000 0.000000 1.814990 
# 
# From -- ./inp_files/16135.got.cif
#   From: 2010.05.17/outbox.cif.g08.bks.cpg/sg70_9_cif.got.tgz:16135.got - 2010.06.03 15:57:51.
