data_PCOD9516222
_publ_section_title
;
Structure prediction by ZEFSAII (Michael W. Deem and Ramdas Pophale) SiO2 
 PCOD9516222
Probable space group: F D D D
;
_chemical_formula_sum "Si O2"
_cell_formula_units_Z 136
_cell_length_a 14.794992
_cell_length_b 23.385353
_cell_length_c 17.313196
_cell_angle_alpha 90.000000
_cell_angle_beta 90.000000
_cell_angle_gamma 90.000000
_cell_volume 5990.125345
_symmetry_space_group_name_H-M "F D D D"
_symmetry_group_IT_number 70
_space_group.IT_coordinate_system_code '2'
_symmetry_cell_setting 'orthorhombic'
loop_
_space_group_symop_operation_xyz
x,y,z
1/4-x,1/4-y,z
x,1/4-y,1/4-z
1/4-x,y,1/4-z
-x,-y,-z
3/4+x,3/4+y,-z
-x,3/4+y,3/4+z
3/4+x,-y,3/4+z
x,1/2+y,1/2+z
1/4-x,3/4-y,1/2+z
x,3/4-y,3/4-z
1/4-x,1/2+y,3/4-z
-x,1/2-y,1/2-z
3/4+x,1/4+y,1/2-z
-x,1/4+y,1/4+z
3/4+x,1/2-y,1/4+z
1/2+x,y,1/2+z
3/4-x,1/4-y,1/2+z
1/2+x,1/4-y,3/4-z
3/4-x,y,3/4-z
1/2-x,-y,1/2-z
1/4+x,3/4+y,1/2-z
1/2-x,3/4+y,1/4+z
1/4+x,-y,1/4+z
1/2+x,1/2+y,z
3/4-x,3/4-y,z
1/2+x,3/4-y,1/4-z
3/4-x,1/2+y,1/4-z
1/2-x,1/2-y,-z
1/4+x,1/4+y,-z
1/2-x,1/4+y,3/4+z
1/4+x,1/2-y,3/4+z
loop_
_atom_site_type_symbol
_atom_site_label
_atom_site_fract_x
_atom_site_fract_y
_atom_site_fract_z
Si Si1 0.760912 0.316983 0.242549
Si Si2 0.404197 0.127543 0.205459
Si Si3 0.375000 0.875000 0.375000
Si Si4 0.531662 0.151069 0.904365
Si Si5 0.172674 0.258364 0.936651
O O1 0.655855 0.317613 0.268833
O O2 0.817311 0.336342 0.317082
O O3 0.763893 0.365670 0.174960
O O4 0.822135 0.265507 0.208753
O O5 0.460703 0.125000 0.125000
O O6 0.457643 0.109565 0.281306
O O7 0.336144 0.076190 0.183207
O O8 0.625000 0.125000 0.934873
O O9 0.544467 0.217236 0.882320
O O10 0.250000 0.250000 0.000000
#
# Coordination Sequence:
#
# PCOD9516222 Si02
#       5
#    32  32   8  32  32
#     4  11  22  39  63 100 141 175 219 294 349 420
#     4  12  26  41  69 104 138 181 242 293 344 428
#     4  12  16  36  64 100 140 168 220 280 348 408
#     4  10  23  47  66  93 144 188 224 282 358 426
#     4  11  23  41  69 104 136 183 225 289 369 415
#
# _framework density 22.704032000000002
#
# number of rings (size 3 to 8) (size 9 to 14) (size 15 to 20)
#    0.000    0.941    7.059    0.706    3.294    0.471 
#    0.000    4.706   10.353    0.000    0.000    0.000 
#    0.000    0.000    0.000    0.000    0.000    0.000 
#
# Total GULP energy -189671.616521 kJ/mol
# GULP energy per Si atom -5578.576956 kJ/mol
# Density = 2.265236 g / cm^3
# Si number density = 22.704032 Si / 1000 Ang^3
#
#
#
# Elastic Constant Matrix: (Units=GPa)
#
#
# Indices 1 2 3 4 5 6 
#
# 1 79.7013 12.4695 41.9960 0.0000 0.0000 0.0000
# 2 12.4695 88.6907 19.0718 0.0000 0.0000 0.0000
# 3 41.9960 19.0718 132.7507 0.0000 0.0000 0.0000
# 4 0.0000 0.0000 0.0000 17.3025 0.0000 0.0000
# 5 0.0000 0.0000 0.0000 0.0000 54.3301 0.0000
# 6 0.0000 0.0000 0.0000 0.0000 0.0000 23.5410
#
#
#
# Elastic Compliance Matrix: (Units=1/GPa)
#
#
# Indices 1 2 3 4 5 6 
#
# 1 0.015167 -0.001136 -0.004635 0.000000 0.000000 0.000000
# 2 -0.001136 0.011720 -0.001324 0.000000 0.000000 0.000000
# 3 -0.004635 -0.001324 0.009189 0.000000 0.000000 0.000000
# 4 0.000000 0.000000 0.000000 0.057795 0.000000 0.000000
# 5 0.000000 0.000000 0.000000 0.000000 0.018406 0.000000
# 6 0.000000 0.000000 0.000000 0.000000 0.000000 0.042479
#
#
# Mechanical properties :
#
#
# Convention : Reuss Voigt Hill
#
# Bulk Modulus (GPa) = 45.69176 49.80191 47.74683
# Shear Modulus (GPa) = 28.37019 34.20841 31.28930
#
# Velocity S-wave (km/s) = 3.53876 3.88585 3.71636
# Velocity P-wave (km/s) = 6.07171 6.48968 6.28417
#
# Compressibility (1/GPa) = 0.02188579
#
# Stress axis : x y z
#
# Youngs Moduli (GPa) = 65.93384 85.32698 108.82051
#
# Poissons Ratio (x) = 0.09691 0.50437
# Poissons Ratio (y) = 0.07488 0.14413
# Poissons Ratio (z) = 0.30559 0.11301
#
# Static dielectric constant tensor:
#      x y z
#    x 1.886850 0.000000 0.000000 
#    y 0.000000 1.882730 0.000000 
#    z 0.000000 0.000000 1.980620 
# 
# From -- ./inp_files/33825.got.cif
#   From: 2010.05.17/outbox.cif.g08.bks.cpg/sg70_17_cif.got.tgz:33825.got - 2010.06.03 15:57:51.
