data_PCOD9516003
_publ_section_title
;
Structure prediction by ZEFSAII (Michael W. Deem and Ramdas Pophale) SiO2 
 PCOD9516003
Probable space group: F D D D
;
_chemical_formula_sum "Si O2"
_cell_formula_units_Z 104
_cell_length_a 26.508640
_cell_length_b 11.083783
_cell_length_c 12.375357
_cell_angle_alpha 90.000000
_cell_angle_beta 90.000000
_cell_angle_gamma 90.000000
_cell_volume 3636.078058
_symmetry_space_group_name_H-M "F D D D"
_symmetry_group_IT_number 70
_space_group.IT_coordinate_system_code '2'
_symmetry_cell_setting 'orthorhombic'
loop_
_space_group_symop_operation_xyz
x,y,z
1/4-x,1/4-y,z
x,1/4-y,1/4-z
1/4-x,y,1/4-z
-x,-y,-z
3/4+x,3/4+y,-z
-x,3/4+y,3/4+z
3/4+x,-y,3/4+z
x,1/2+y,1/2+z
1/4-x,3/4-y,1/2+z
x,3/4-y,3/4-z
1/4-x,1/2+y,3/4-z
-x,1/2-y,1/2-z
3/4+x,1/4+y,1/2-z
-x,1/4+y,1/4+z
3/4+x,1/2-y,1/4+z
1/2+x,y,1/2+z
3/4-x,1/4-y,1/2+z
1/2+x,1/4-y,3/4-z
3/4-x,y,3/4-z
1/2-x,-y,1/2-z
1/4+x,3/4+y,1/2-z
1/2-x,3/4+y,1/4+z
1/4+x,-y,1/4+z
1/2+x,1/2+y,z
3/4-x,3/4-y,z
1/2+x,3/4-y,1/4-z
3/4-x,1/2+y,1/4-z
1/2-x,1/2-y,-z
1/4+x,1/4+y,-z
1/2-x,1/4+y,3/4+z
1/4+x,1/2-y,3/4+z
loop_
_atom_site_type_symbol
_atom_site_label
_atom_site_fract_x
_atom_site_fract_y
_atom_site_fract_z
Si Si1 0.959057 0.309795 0.013996
Si Si2 0.375000 0.875000 0.375000
Si Si3 0.065699 0.426359 0.040241
Si Si4 0.904690 0.741898 0.722620
O O1 0.944219 0.250486 0.128209
O O2 0.016289 0.354001 0.002863
O O3 0.930356 0.437795 0.010307
O O4 0.944175 0.221732 0.915229
O O5 0.330180 0.768129 0.403826
O O6 0.113765 0.361723 0.985474
O O7 0.875000 0.875000 0.726928
#
# Coordination Sequence:
#
# PCOD9516003 Si02
#       4
#    32   8  32  32
#     4  10  22  44  80 122 163 221 276 356 425 513
#     4   8  24  44  68 112 160 216 264 344 418 498
#     4  10  22  44  79 123 165 214 287 344 431 522
#     4  10  22  45  72 112 162 214 273 345 423 498
#
# _framework density 28.602245
#
# number of rings (size 3 to 8) (size 9 to 14) (size 15 to 20)
#    0.923    1.231    0.000    1.846    0.000    6.154 
#    5.538    3.077    0.000    1.846    0.000    0.000 
#    0.000   19.692    0.000    0.000    0.000    0.000 
#
# Total GULP energy -144939.576220 kJ/mol
# GULP energy per Si atom -5574.599085 kJ/mol
# Density = 2.853715 g / cm^3
# Si number density = 28.602245 Si / 1000 Ang^3
#
#
#
# Elastic Constant Matrix: (Units=GPa)
#
#
# Indices 1 2 3 4 5 6 
#
# 1 140.3210 110.6716 62.2083 0.0000 0.0000 0.0000
# 2 110.6716 210.1718 43.9336 0.0000 0.0000 0.0000
# 3 62.2083 43.9336 225.0541 0.0000 0.0000 0.0000
# 4 0.0000 0.0000 0.0000 -0.3256 0.0000 0.0000
# 5 0.0000 0.0000 0.0000 0.0000 39.1712 0.0000
# 6 0.0000 0.0000 0.0000 0.0000 0.0000 71.2090
#
#
#
# Elastic Compliance Matrix: (Units=1/GPa)
#
#
# Indices 1 2 3 4 5 6 
#
# 1 0.013338 -0.006519 -0.002414 0.000000 0.000000 0.000000
# 2 -0.006519 0.008147 0.000212 0.000000 0.000000 0.000000
# 3 -0.002414 0.000212 0.005069 0.000000 0.000000 0.000000
# 4 0.000000 0.000000 0.000000 -3.071491 0.000000 0.000000
# 5 0.000000 0.000000 0.000000 0.000000 0.025529 0.000000
# 6 0.000000 0.000000 0.000000 0.000000 0.000000 0.014043
#
#
# Mechanical properties :
#
#
# Convention : Reuss Voigt Hill
#
# Bulk Modulus (GPa) = 109.75806 112.13042 110.94424
# Shear Modulus (GPa) = -1.67511 45.92649 22.12569
#
# Velocity S-wave (km/s) = -0.76611 4.01146 2.78432
# Velocity P-wave (km/s) = 6.13797 7.79386 7.01494
#
# Compressibility (1/GPa) = 0.00911095
#
# Stress axis : x y z
#
# Youngs Moduli (GPa) = 74.97123 122.75143 197.26124
#
# Poissons Ratio (x) = 0.80022 0.47626
# Poissons Ratio (y) = 0.48874 -0.04175
# Poissons Ratio (z) = 0.18101 -0.02598
#
# Static dielectric constant tensor:
#      x y z
#    x 2.196300 0.000000 0.000000 
#    y 0.000000 2.622930 0.000000 
#    z 0.000000 0.000000 2.572260 
# 
# From -- ./inp_files/38205.got.cif
#   From: 2010.05.17/outbox.cif.g08.bks.cpg/sg70_20_cif.got.tgz:38205.got - 2010.06.03 15:57:51.
