data_PCOD9516200
_publ_section_title
;
Structure prediction by ZEFSAII (Michael W. Deem and Ramdas Pophale) SiO2 
 PCOD9516200
Probable space group: F D D D
;
_chemical_formula_sum "Si O2"
_cell_formula_units_Z 216
_cell_length_a 26.354568
_cell_length_b 12.652784
_cell_length_c 29.613462
_cell_angle_alpha 90.000000
_cell_angle_beta 90.000000
_cell_angle_gamma 90.000000
_cell_volume 9874.865247
_symmetry_space_group_name_H-M "F D D D"
_symmetry_group_IT_number 70
_space_group.IT_coordinate_system_code '2'
_symmetry_cell_setting 'orthorhombic'
loop_
_space_group_symop_operation_xyz
x,y,z
1/4-x,1/4-y,z
x,1/4-y,1/4-z
1/4-x,y,1/4-z
-x,-y,-z
3/4+x,3/4+y,-z
-x,3/4+y,3/4+z
3/4+x,-y,3/4+z
x,1/2+y,1/2+z
1/4-x,3/4-y,1/2+z
x,3/4-y,3/4-z
1/4-x,1/2+y,3/4-z
-x,1/2-y,1/2-z
3/4+x,1/4+y,1/2-z
-x,1/4+y,1/4+z
3/4+x,1/2-y,1/4+z
1/2+x,y,1/2+z
3/4-x,1/4-y,1/2+z
1/2+x,1/4-y,3/4-z
3/4-x,y,3/4-z
1/2-x,-y,1/2-z
1/4+x,3/4+y,1/2-z
1/2-x,3/4+y,1/4+z
1/4+x,-y,1/4+z
1/2+x,1/2+y,z
3/4-x,3/4-y,z
1/2+x,3/4-y,1/4-z
3/4-x,1/2+y,1/4-z
1/2-x,1/2-y,-z
1/4+x,1/4+y,-z
1/2-x,1/4+y,3/4+z
1/4+x,1/2-y,3/4+z
loop_
_atom_site_type_symbol
_atom_site_label
_atom_site_fract_x
_atom_site_fract_y
_atom_site_fract_z
Si Si1 0.458251 0.630939 0.773532
Si Si2 0.514581 0.311780 0.326602
Si Si3 0.599680 0.918258 0.509005
Si Si4 0.032984 0.243357 0.170439
Si Si5 0.875000 0.875000 0.703291
Si Si6 0.797987 0.882670 0.625539
Si Si7 0.625000 0.125000 0.625000
Si Si8 0.289181 0.043919 0.057993
O O1 0.461698 0.632212 0.718056
O O2 0.472245 0.740318 0.799694
O O3 0.400228 0.607890 0.786458
O O4 0.498217 0.540605 0.788803
O O5 0.502296 0.375000 0.375000
O O6 0.551080 0.219865 0.345042
O O7 0.582752 0.824575 0.476574
O O8 0.548186 0.945468 0.535003
O O9 0.614682 0.023118 0.482503
O O10 0.085814 0.194258 0.153787
O O11 0.009173 0.329876 0.137155
O O12 0.992860 0.148486 0.178170
O O13 0.826854 0.861728 0.671247
O O14 0.816806 0.986055 0.599510
#
# Coordination Sequence:
#
# PCOD9516200 Si02
#       8
#    32  32  32  32  16  32   8  32
#     4  10  24  46  68 101 134 184 235 281 356 416
#     4  10  23  45  72  92 136 184 229 292 343 413
#     4  12  26  39  70  99 139 179 224 285 348 416
#     4  12  24  42  67 105 134 178 217 284 344 426
#     4  12  25  40  66 105 134 178 229 272 356 427
#     4  11  25  43  70 100 135 175 233 282 347 416
#     4  12  22  40  72  92 146 172 224 268 364 404
#     4  11  23  46  68  97 142 175 223 290 348 406
#
# _framework density 21.873716000000002
#
# number of rings (size 3 to 8) (size 9 to 14) (size 15 to 20)
#    0.000    0.889    2.963    3.556    8.296    0.000 
#    0.000    0.000    3.259    0.000    0.000    0.000 
#    0.000    0.000    0.000    0.000    0.000    0.000 
#
# Total GULP energy -301149.294728 kJ/mol
# GULP energy per Si atom -5576.838791 kJ/mol
# Density = 2.182393 g / cm^3
# Si number density = 21.873716 Si / 1000 Ang^3
#
#
#
# Elastic Constant Matrix: (Units=GPa)
#
#
# Indices 1 2 3 4 5 6 
#
# 1 58.0226 9.2272 4.0017 0.0000 0.0000 0.0000
# 2 9.2272 61.0286 35.0756 0.0000 0.0000 0.0000
# 3 4.0017 35.0756 93.7265 0.0000 0.0000 0.0000
# 4 0.0000 0.0000 0.0000 53.9777 0.0000 0.0000
# 5 0.0000 0.0000 0.0000 0.0000 -84.8034 0.0000
# 6 0.0000 0.0000 0.0000 0.0000 0.0000 17.5722
#
#
#
# Elastic Compliance Matrix: (Units=1/GPa)
#
#
# Indices 1 2 3 4 5 6 
#
# 1 0.017666 -0.002851 0.000313 0.000000 0.000000 0.000000
# 2 -0.002851 0.021336 -0.007863 0.000000 0.000000 0.000000
# 3 0.000313 -0.007863 0.013599 0.000000 0.000000 0.000000
# 4 0.000000 0.000000 0.000000 0.018526 0.000000 0.000000
# 5 0.000000 0.000000 0.000000 0.000000 -0.011792 0.000000
# 6 0.000000 0.000000 0.000000 0.000000 0.000000 0.056908
#
#
# Mechanical properties :
#
#
# Convention : Reuss Voigt Hill
#
# Bulk Modulus (GPa) = 31.44771 34.37629 32.91200
# Shear Modulus (GPa) = 33.86501 8.31417 21.08959
#
# Velocity S-wave (km/s) = 3.93899 1.95173 3.10845
# Velocity P-wave (km/s) = 5.92416 4.56387 5.28794
#
# Compressibility (1/GPa) = 0.03179882
#
# Stress axis : x y z
#
# Youngs Moduli (GPa) = 56.60445 46.86937 73.53719
#
# Poissons Ratio (x) = 0.13361 -0.02298
# Poissons Ratio (y) = 0.16136 0.57822
# Poissons Ratio (z) = -0.01769 0.36853
#
# Static dielectric constant tensor:
#      x y z
#    x 1.789460 0.000000 0.000000 
#    y 0.000000 1.823040 0.000000 
#    z 0.000000 0.000000 1.946710 
# 
# From -- ./inp_files/69020.got.cif
#   From: 2010.05.17/outbox.cif.g08.bks.cpg/sg70_35_cif.got.tgz:69020.got - 2010.06.03 15:57:51.
