data_PCOD9516694
_publ_section_title
;
Structure prediction by ZEFSAII (Michael W. Deem and Ramdas Pophale) SiO2 
 PCOD9516694
Probable space group: F D D D
;
_chemical_formula_sum "Si O2"
_cell_formula_units_Z 160
_cell_length_a 25.035431
_cell_length_b 24.550514
_cell_length_c 9.187482
_cell_angle_alpha 90.000000
_cell_angle_beta 90.000000
_cell_angle_gamma 90.000000
_cell_volume 5646.926861
_symmetry_space_group_name_H-M "F D D D"
_symmetry_group_IT_number 70
_space_group.IT_coordinate_system_code '2'
_symmetry_cell_setting 'orthorhombic'
loop_
_space_group_symop_operation_xyz
x,y,z
1/4-x,1/4-y,z
x,1/4-y,1/4-z
1/4-x,y,1/4-z
-x,-y,-z
3/4+x,3/4+y,-z
-x,3/4+y,3/4+z
3/4+x,-y,3/4+z
x,1/2+y,1/2+z
1/4-x,3/4-y,1/2+z
x,3/4-y,3/4-z
1/4-x,1/2+y,3/4-z
-x,1/2-y,1/2-z
3/4+x,1/4+y,1/2-z
-x,1/4+y,1/4+z
3/4+x,1/2-y,1/4+z
1/2+x,y,1/2+z
3/4-x,1/4-y,1/2+z
1/2+x,1/4-y,3/4-z
3/4-x,y,3/4-z
1/2-x,-y,1/2-z
1/4+x,3/4+y,1/2-z
1/2-x,3/4+y,1/4+z
1/4+x,-y,1/4+z
1/2+x,1/2+y,z
3/4-x,3/4-y,z
1/2+x,3/4-y,1/4-z
3/4-x,1/2+y,1/4-z
1/2-x,1/2-y,-z
1/4+x,1/4+y,-z
1/2-x,1/4+y,3/4+z
1/4+x,1/2-y,3/4+z
loop_
_atom_site_type_symbol
_atom_site_label
_atom_site_fract_x
_atom_site_fract_y
_atom_site_fract_z
Si Si1 0.316280 0.112277 0.840879
Si Si2 0.510350 0.801677 0.404799
Si Si3 0.660839 0.715430 0.987220
Si Si4 0.474778 0.205453 0.110406
Si Si5 0.163524 0.569498 0.225977
O O1 0.375000 0.133037 0.875000
O O2 0.281156 0.157376 0.758846
O O3 0.320741 0.062027 0.725227
O O4 0.287473 0.094264 0.987638
O O5 0.558388 0.767697 0.329048
O O6 0.462213 0.818508 0.295994
O O7 0.480987 0.757788 0.510291
O O8 0.625000 0.730246 0.125000
O O9 0.620358 0.684167 0.875395
O O10 0.527344 0.202128 0.211824
O O11 0.170713 0.625000 0.125000
O O12 0.125000 0.534011 0.125000
#
# Coordination Sequence:
#
# PCOD9516694 Si02
#       5
#    32  32  32  32  32
#     4  11  26  47  81 118 161 223 279 347 424 513
#     4  11  26  49  77 122 169 217 275 345 429 501
#     4  11  26  46  76 121 165 210 270 346 417 498
#     4  11  24  50  76 117 161 214 283 340 408 519
#     4  11  22  45  79 110 155 208 278 332 411 486
#
# _framework density 28.333995999999999
#
# number of rings (size 3 to 8) (size 9 to 14) (size 15 to 20)
#    0.000    1.000    4.000    1.800    5.600    0.800 
#   10.800    6.000    0.000    0.000    0.000    0.000 
#    0.000    0.000    0.000    0.000    0.000    0.000 
#
# Total GULP energy -223677.381713 kJ/mol
# GULP energy per Si atom -5591.934543 kJ/mol
# Density = 2.826951 g / cm^3
# Si number density = 28.333996 Si / 1000 Ang^3
#
#
#
# Elastic Constant Matrix: (Units=GPa)
#
#
# Indices 1 2 3 4 5 6 
#
# 1 211.9466 69.5578 104.1503 0.0006 -0.0003 0.0013
# 2 69.5578 96.3082 62.3664 -0.0016 0.0006 0.0030
# 3 104.1503 62.3664 220.5497 -0.0030 0.0002 0.0063
# 4 0.0006 -0.0016 -0.0030 47.7590 0.0006 0.0042
# 5 -0.0003 0.0006 0.0002 0.0006 63.5654 -0.0044
# 6 0.0013 0.0030 0.0063 0.0042 -0.0044 10.1664
#
#
#
# Elastic Compliance Matrix: (Units=1/GPa)
#
#
# Indices 1 2 3 4 5 6 
#
# 1 0.007027 -0.003582 -0.002305 0.000000 0.000000 0.000002
# 2 -0.003582 0.014537 -0.002419 0.000000 0.000000 -0.000002
# 3 -0.002305 -0.002419 0.006307 0.000000 0.000000 -0.000003
# 4 0.000000 0.000000 0.000000 0.020938 0.000000 -0.000009
# 5 0.000000 0.000000 0.000000 0.000000 0.015732 0.000007
# 6 0.000002 -0.000002 -0.000003 -0.000009 0.000007 0.098363
#
#
# Mechanical properties :
#
#
# Convention : Reuss Voigt Hill
#
# Bulk Modulus (GPa) = 88.83005 111.21705 100.02355
# Shear Modulus (GPa) = 27.28232 43.81351 35.54792
#
# Velocity S-wave (km/s) = 3.10640 3.93660 3.54588
# Velocity P-wave (km/s) = 6.65473 7.74595 7.22098
#
# Compressibility (1/GPa) = 0.01125745
#
# Stress axis : x y z
#
# Youngs Moduli (GPa) = 142.31772 68.78982 158.55879
#
# Poissons Ratio (x) = 0.24641 0.36551
# Poissons Ratio (y) = 0.50979 0.38358
# Poissons Ratio (z) = 0.32807 0.16642
#
# Static dielectric constant tensor:
#      x y z
#    x 2.283300 0.000000 0.000000 
#    y 0.000000 2.606820 0.000000 
#    z 0.000000 0.000000 2.220510 
# 
# From -- ./inp_files/19496.got.cif
#   From: 2010.05.17/outbox.cif.g08.bks.cpg/sg70_10_cif.got.tgz:19496.got - 2010.06.03 15:57:51.
