data_PCOD9516097
_publ_section_title
;
Structure prediction by ZEFSAII (Michael W. Deem and Ramdas Pophale) SiO2 
 PCOD9516097
Probable space group: F D D D
;
_chemical_formula_sum "Si O2"
_cell_formula_units_Z 160
_cell_length_a 10.961975
_cell_length_b 27.879426
_cell_length_c 24.979612
_cell_angle_alpha 90.000000
_cell_angle_beta 90.000000
_cell_angle_gamma 90.000000
_cell_volume 7634.108421
_symmetry_space_group_name_H-M "F D D D"
_symmetry_group_IT_number 70
_space_group.IT_coordinate_system_code '2'
_symmetry_cell_setting 'orthorhombic'
loop_
_space_group_symop_operation_xyz
x,y,z
1/4-x,1/4-y,z
x,1/4-y,1/4-z
1/4-x,y,1/4-z
-x,-y,-z
3/4+x,3/4+y,-z
-x,3/4+y,3/4+z
3/4+x,-y,3/4+z
x,1/2+y,1/2+z
1/4-x,3/4-y,1/2+z
x,3/4-y,3/4-z
1/4-x,1/2+y,3/4-z
-x,1/2-y,1/2-z
3/4+x,1/4+y,1/2-z
-x,1/4+y,1/4+z
3/4+x,1/2-y,1/4+z
1/2+x,y,1/2+z
3/4-x,1/4-y,1/2+z
1/2+x,1/4-y,3/4-z
3/4-x,y,3/4-z
1/2-x,-y,1/2-z
1/4+x,3/4+y,1/2-z
1/2-x,3/4+y,1/4+z
1/4+x,-y,1/4+z
1/2+x,1/2+y,z
3/4-x,3/4-y,z
1/2+x,3/4-y,1/4-z
3/4-x,1/2+y,1/4-z
1/2-x,1/2-y,-z
1/4+x,1/4+y,-z
1/2-x,1/4+y,3/4+z
1/4+x,1/2-y,3/4+z
loop_
_atom_site_type_symbol
_atom_site_label
_atom_site_fract_x
_atom_site_fract_y
_atom_site_fract_z
Si Si1 0.194666 0.844553 0.575242
Si Si2 0.237222 0.662295 0.244663
Si Si3 0.482542 0.705441 0.617200
Si Si4 0.369682 0.735771 0.724336
Si Si5 0.297365 0.443589 0.064546
O O1 0.125000 0.821138 0.625000
O O2 0.250525 0.895503 0.592740
O O3 0.308725 0.813746 0.554376
O O4 0.096112 0.856485 0.530642
O O5 0.125000 0.625000 0.240438
O O6 0.293460 0.675437 0.186455
O O7 0.194090 0.711508 0.274686
O O8 0.625000 0.693874 0.625000
O O9 0.402275 0.705399 0.670954
O O10 0.473778 0.761117 0.601638
O O11 0.500000 0.750000 0.750000
O O12 0.281740 0.704570 0.762030
#
# Coordination Sequence:
#
# PCOD9516097 Si02
#       5
#    32  32  32  32  32
#     4  11  24  40  65  96 128 174 217 285 334 392
#     4  11  25  40  65  99 132 166 228 278 331 399
#     4  11  22  40  64  96 128 178 212 269 333 397
#     4  11  21  41  64  92 131 177 211 271 335 397
#     4  10  23  41  63  93 133 167 228 266 337 404
#
# _framework density 20.958570000000002
#
# number of rings (size 3 to 8) (size 9 to 14) (size 15 to 20)
#    0.000    1.200    4.000    3.000    5.600    3.600 
#    0.000    3.000    0.000    2.400    0.000    0.000 
#    0.000    0.000    0.000    0.000    0.000    0.000 
#
# Total GULP energy -223168.098174 kJ/mol
# GULP energy per Si atom -5579.202454 kJ/mol
# Density = 2.091087 g / cm^3
# Si number density = 20.958570 Si / 1000 Ang^3
#
#
#
# Elastic Constant Matrix: (Units=GPa)
#
#
# Indices 1 2 3 4 5 6 
#
# 1 120.1890 20.5641 56.6396 0.0000 0.0000 0.0000
# 2 20.5641 44.6285 -0.7449 0.0000 0.0000 0.0000
# 3 56.6396 -0.7449 108.9126 0.0000 0.0000 0.0000
# 4 0.0000 0.0000 0.0000 7.8801 0.0000 0.0000
# 5 0.0000 0.0000 0.0000 0.0000 36.1957 0.0000
# 6 0.0000 0.0000 0.0000 0.0000 0.0000 60.4579
#
#
#
# Elastic Compliance Matrix: (Units=1/GPa)
#
#
# Indices 1 2 3 4 5 6 
#
# 1 0.012361 -0.005804 -0.006468 0.000000 0.000000 0.000000
# 2 -0.005804 0.025135 0.003190 0.000000 0.000000 0.000000
# 3 -0.006468 0.003190 0.012567 0.000000 0.000000 0.000000
# 4 0.000000 0.000000 0.000000 0.126901 0.000000 0.000000
# 5 0.000000 0.000000 0.000000 0.000000 0.027628 0.000000
# 6 0.000000 0.000000 0.000000 0.000000 0.000000 0.016540
#
#
# Mechanical properties :
#
#
# Convention : Reuss Voigt Hill
#
# Bulk Modulus (GPa) = 31.34826 47.40527 39.37676
# Shear Modulus (GPa) = 20.00560 34.05817 27.03189
#
# Velocity S-wave (km/s) = 3.09290 4.03553 3.59524
# Velocity P-wave (km/s) = 5.26730 6.66196 6.00525
#
# Compressibility (1/GPa) = 0.03189970
#
# Stress axis : x y z
#
# Youngs Moduli (GPa) = 80.89674 39.78546 79.57180
#
# Poissons Ratio (x) = 0.23091 0.51469
# Poissons Ratio (y) = 0.46952 -0.25385
# Poissons Ratio (z) = 0.52326 -0.12692
#
# Static dielectric constant tensor:
#      x y z
#    x 1.708690 0.000000 0.000000 
#    y 0.000000 1.778220 0.000000 
#    z 0.000000 0.000000 1.823140 
# 
# From -- ./inp_files/50314.got.cif
#   From: 2010.05.17/outbox.cif.g08.bks.cpg/sg70_26_cif.got.tgz:50314.got - 2010.06.03 15:57:51.
