data_PCOD9516263
_publ_section_title
;
Structure prediction by ZEFSAII (Michael W. Deem and Ramdas Pophale) SiO2 
 PCOD9516263
Probable space group: F D D D
;
_chemical_formula_sum "Si O2"
_cell_formula_units_Z 176
_cell_length_a 17.312500
_cell_length_b 17.398723
_cell_length_c 27.249618
_cell_angle_alpha 90.000000
_cell_angle_beta 90.000000
_cell_angle_gamma 90.000000
_cell_volume 8208.004366
_symmetry_space_group_name_H-M "F D D D"
_symmetry_group_IT_number 70
_space_group.IT_coordinate_system_code '2'
_symmetry_cell_setting 'orthorhombic'
loop_
_space_group_symop_operation_xyz
x,y,z
1/4-x,1/4-y,z
x,1/4-y,1/4-z
1/4-x,y,1/4-z
-x,-y,-z
3/4+x,3/4+y,-z
-x,3/4+y,3/4+z
3/4+x,-y,3/4+z
x,1/2+y,1/2+z
1/4-x,3/4-y,1/2+z
x,3/4-y,3/4-z
1/4-x,1/2+y,3/4-z
-x,1/2-y,1/2-z
3/4+x,1/4+y,1/2-z
-x,1/4+y,1/4+z
3/4+x,1/2-y,1/4+z
1/2+x,y,1/2+z
3/4-x,1/4-y,1/2+z
1/2+x,1/4-y,3/4-z
3/4-x,y,3/4-z
1/2-x,-y,1/2-z
1/4+x,3/4+y,1/2-z
1/2-x,3/4+y,1/4+z
1/4+x,-y,1/4+z
1/2+x,1/2+y,z
3/4-x,3/4-y,z
1/2+x,3/4-y,1/4-z
3/4-x,1/2+y,1/4-z
1/2-x,1/2-y,-z
1/4+x,1/4+y,-z
1/2-x,1/4+y,3/4+z
1/4+x,1/2-y,3/4+z
loop_
_atom_site_type_symbol
_atom_site_label
_atom_site_fract_x
_atom_site_fract_y
_atom_site_fract_z
Si Si1 0.375000 0.875000 0.789223
Si Si2 0.425197 0.949287 0.275077
Si Si3 0.729474 0.302879 0.905752
Si Si4 0.697338 0.166609 0.835603
Si Si5 0.351619 0.648679 0.430717
Si Si6 0.400939 0.223132 0.514504
O O1 0.440423 0.832949 0.821336
O O2 0.337246 0.809096 0.755740
O O3 0.375000 0.875000 0.289329
O O4 0.420669 0.954834 0.215578
O O5 0.516925 0.944239 0.285628
O O6 0.389649 0.023806 0.300215
O O7 0.697599 0.375000 0.875000
O O8 0.736325 0.230644 0.869394
O O9 0.668738 0.280474 0.947523
O O10 0.625000 0.125000 0.860374
O O11 0.758719 0.101848 0.820382
O O12 0.375000 0.633906 0.375000
O O13 0.371303 0.580469 0.468319
#
# Coordination Sequence:
#
# PCOD9516263 Si02
#       6
#    16  32  32  32  32  32
#     4  12  25  44  68 102 140 180 222 284 345 408
#     4  10  24  46  69  98 139 178 229 282 343 401
#     4  12  25  42  70 102 141 175 228 284 337 411
#     4  10  24  42  68 100 134 181 226 279 341 409
#     4  11  23  42  69  96 135 182 224 276 345 408
#     4  11  25  44  70 101 138 179 228 282 341 405
#
# _framework density 21.442484
#
# number of rings (size 3 to 8) (size 9 to 14) (size 15 to 20)
#    0.000    1.091    0.000    6.273    3.818    8.364 
#    0.000    0.000    0.000    0.000    0.000    0.000 
#    0.000    0.000    0.000    0.000    0.000    0.000 
#
# Total GULP energy -246107.524330 kJ/mol
# GULP energy per Si atom -5593.352826 kJ/mol
# Density = 2.139368 g / cm^3
# Si number density = 21.442484 Si / 1000 Ang^3
#
#
#
# Elastic Constant Matrix: (Units=GPa)
#
#
# Indices 1 2 3 4 5 6 
#
# 1 88.7278 35.8680 36.6854 0.0000 0.0000 0.0000
# 2 35.8680 94.9595 23.4056 0.0000 0.0000 0.0000
# 3 36.6854 23.4056 58.9814 0.0000 0.0000 0.0000
# 4 0.0000 0.0000 0.0000 17.5233 0.0000 0.0000
# 5 0.0000 0.0000 0.0000 0.0000 -9.8685 0.0000
# 6 0.0000 0.0000 0.0000 0.0000 0.0000 34.4014
#
#
#
# Elastic Compliance Matrix: (Units=1/GPa)
#
#
# Indices 1 2 3 4 5 6 
#
# 1 0.016499 -0.004104 -0.008634 0.000000 0.000000 0.000000
# 2 -0.004104 0.012693 -0.002484 0.000000 0.000000 0.000000
# 3 -0.008634 -0.002484 0.023310 0.000000 0.000000 0.000000
# 4 0.000000 0.000000 0.000000 0.057067 0.000000 0.000000
# 5 0.000000 0.000000 0.000000 0.000000 -0.101332 0.000000
# 6 0.000000 0.000000 0.000000 0.000000 0.000000 0.029069
#
#
# Mechanical properties :
#
#
# Convention : Reuss Voigt Hill
#
# Bulk Modulus (GPa) = 45.33364 48.28741 46.81052
# Shear Modulus (GPa) = 66.57530 18.19189 42.38359
#
# Velocity S-wave (km/s) = 5.57815 2.91590 4.45074
# Velocity P-wave (km/s) = 7.91679 5.82280 6.94912
#
# Compressibility (1/GPa) = 0.02205868
#
# Stress axis : x y z
#
# Youngs Moduli (GPa) = 60.60944 78.78144 42.89946
#
# Poissons Ratio (x) = 0.32332 0.37037
# Poissons Ratio (y) = 0.24874 0.10658
# Poissons Ratio (z) = 0.52327 0.19573
#
# Static dielectric constant tensor:
#      x y z
#    x 1.811030 0.000000 0.000000 
#    y 0.000000 1.751030 0.000000 
#    z 0.000000 0.000000 1.782970 
# 
# From -- ./inp_files/59466.got.cif
#   From: 2010.05.17/outbox.cif.g08.bks.cpg/sg70_30_cif.got.tgz:59466.got - 2010.06.03 15:57:51.
