data_PCOD9516267
_publ_section_title
;
Structure prediction by ZEFSAII (Michael W. Deem and Ramdas Pophale) SiO2 
 PCOD9516267
Probable space group: F D D D
;
_chemical_formula_sum "Si O2"
_cell_formula_units_Z 136
_cell_length_a 14.569899
_cell_length_b 25.207463
_cell_length_c 15.756310
_cell_angle_alpha 90.000000
_cell_angle_beta 90.000000
_cell_angle_gamma 90.000000
_cell_volume 5786.822967
_symmetry_space_group_name_H-M "F D D D"
_symmetry_group_IT_number 70
_space_group.IT_coordinate_system_code '2'
_symmetry_cell_setting 'orthorhombic'
loop_
_space_group_symop_operation_xyz
x,y,z
1/4-x,1/4-y,z
x,1/4-y,1/4-z
1/4-x,y,1/4-z
-x,-y,-z
3/4+x,3/4+y,-z
-x,3/4+y,3/4+z
3/4+x,-y,3/4+z
x,1/2+y,1/2+z
1/4-x,3/4-y,1/2+z
x,3/4-y,3/4-z
1/4-x,1/2+y,3/4-z
-x,1/2-y,1/2-z
3/4+x,1/4+y,1/2-z
-x,1/4+y,1/4+z
3/4+x,1/2-y,1/4+z
1/2+x,y,1/2+z
3/4-x,1/4-y,1/2+z
1/2+x,1/4-y,3/4-z
3/4-x,y,3/4-z
1/2-x,-y,1/2-z
1/4+x,3/4+y,1/2-z
1/2-x,3/4+y,1/4+z
1/4+x,-y,1/4+z
1/2+x,1/2+y,z
3/4-x,3/4-y,z
1/2+x,3/4-y,1/4-z
3/4-x,1/2+y,1/4-z
1/2-x,1/2-y,-z
1/4+x,1/4+y,-z
1/2-x,1/4+y,3/4+z
1/4+x,1/2-y,3/4+z
loop_
_atom_site_type_symbol
_atom_site_label
_atom_site_fract_x
_atom_site_fract_y
_atom_site_fract_z
Si Si1 0.125000 0.625000 0.125000
Si Si2 0.627393 0.704673 0.945285
Si Si3 0.159759 0.035342 0.753142
Si Si4 0.178205 0.927959 0.534067
Si Si5 0.590979 0.314722 0.723584
O O1 0.172371 0.583338 0.188445
O O2 0.615011 0.694466 0.845612
O O3 0.538179 0.674096 0.979111
O O4 0.730268 0.690506 0.972402
O O5 0.620109 0.767145 0.969660
O O6 0.250000 0.000000 0.750000
O O7 0.085783 0.989723 0.735894
O O8 0.125000 0.924626 0.625000
O O9 0.137814 0.874117 0.492937
O O10 0.625000 0.308648 0.625000
#
# Coordination Sequence:
#
# PCOD9516267 Si02
#       5
#     8  32  32  32  32
#     4  12  28  44  68 108 142 188 238 304 370 444
#     4  11  23  43  68 102 140 192 242 300 366 435
#     4  12  25  43  67 101 142 187 239 298 373 439
#     4  11  22  42  64 102 139 183 242 295 364 440
#     4  10  24  42  69  99 139 191 241 304 362 430
#
# _framework density 23.501670000000001
#
# number of rings (size 3 to 8) (size 9 to 14) (size 15 to 20)
#    0.000    0.941    3.529    2.118    3.294    4.706 
#    0.000    0.000    0.000    4.235    0.000    0.000 
#    0.000    0.000    0.000    0.000    0.000    0.000 
#
# Total GULP energy -189373.659292 kJ/mol
# GULP energy per Si atom -5569.813509 kJ/mol
# Density = 2.344818 g / cm^3
# Si number density = 23.501670 Si / 1000 Ang^3
#
#
#
# Elastic Constant Matrix: (Units=GPa)
#
#
# Indices 1 2 3 4 5 6 
#
# 1 125.1538 28.2518 -0.0885 0.0000 0.0000 0.0000
# 2 28.2518 187.2325 32.4123 0.0000 0.0000 0.0000
# 3 -0.0885 32.4123 51.4718 0.0000 0.0000 0.0000
# 4 0.0000 0.0000 0.0000 29.9073 0.0000 0.0000
# 5 0.0000 0.0000 0.0000 0.0000 10.8932 0.0000
# 6 0.0000 0.0000 0.0000 0.0000 0.0000 6.8479
#
#
#
# Elastic Compliance Matrix: (Units=1/GPa)
#
#
# Indices 1 2 3 4 5 6 
#
# 1 0.008309 -0.001410 0.000902 0.000000 0.000000 0.000000
# 2 -0.001410 0.006234 -0.003928 0.000000 0.000000 0.000000
# 3 0.000902 -0.003928 0.021903 0.000000 0.000000 0.000000
# 4 0.000000 0.000000 0.000000 0.033437 0.000000 0.000000
# 5 0.000000 0.000000 0.000000 0.000000 0.091800 0.000000
# 6 0.000000 0.000000 0.000000 0.000000 0.000000 0.146029
#
#
# Mechanical properties :
#
#
# Convention : Reuss Voigt Hill
#
# Bulk Modulus (GPa) = 36.26533 53.88992 45.07762
# Shear Modulus (GPa) = 15.34802 29.74852 22.54827
#
# Velocity S-wave (km/s) = 2.55828 3.56167 3.10083
# Velocity P-wave (km/s) = 4.91842 6.31617 5.66061
#
# Compressibility (1/GPa) = 0.02757455
#
# Stress axis : x y z
#
# Youngs Moduli (GPa) = 120.35020 160.41947 45.65571
#
# Poissons Ratio (x) = 0.22618 -0.04119
# Poissons Ratio (y) = 0.16969 0.17933
# Poissons Ratio (z) = -0.10857 0.63010
#
# Static dielectric constant tensor:
#      x y z
#    x 2.246930 0.000000 0.000000 
#    y 0.000000 2.104760 0.000000 
#    z 0.000000 0.000000 1.470040 
# 
# From -- ./inp_files/42648.got.cif
#   From: 2010.05.17/outbox.cif.g08.bks.cpg/sg70_22_cif.got.tgz:42648.got - 2010.06.03 15:57:51.
