data_PCOD9516320
_publ_section_title
;
Structure prediction by ZEFSAII (Michael W. Deem and Ramdas Pophale) SiO2 
 PCOD9516320
Probable space group: F D D D
;
_chemical_formula_sum "Si O2"
_cell_formula_units_Z 216
_cell_length_a 14.917493
_cell_length_b 21.381809
_cell_length_c 27.972524
_cell_angle_alpha 90.000000
_cell_angle_beta 90.000000
_cell_angle_gamma 90.000000
_cell_volume 8922.199783
_symmetry_space_group_name_H-M "F D D D"
_symmetry_group_IT_number 70
_space_group.IT_coordinate_system_code '2'
_symmetry_cell_setting 'orthorhombic'
loop_
_space_group_symop_operation_xyz
x,y,z
1/4-x,1/4-y,z
x,1/4-y,1/4-z
1/4-x,y,1/4-z
-x,-y,-z
3/4+x,3/4+y,-z
-x,3/4+y,3/4+z
3/4+x,-y,3/4+z
x,1/2+y,1/2+z
1/4-x,3/4-y,1/2+z
x,3/4-y,3/4-z
1/4-x,1/2+y,3/4-z
-x,1/2-y,1/2-z
3/4+x,1/4+y,1/2-z
-x,1/4+y,1/4+z
3/4+x,1/2-y,1/4+z
1/2+x,y,1/2+z
3/4-x,1/4-y,1/2+z
1/2+x,1/4-y,3/4-z
3/4-x,y,3/4-z
1/2-x,-y,1/2-z
1/4+x,3/4+y,1/2-z
1/2-x,3/4+y,1/4+z
1/4+x,-y,1/4+z
1/2+x,1/2+y,z
3/4-x,3/4-y,z
1/2+x,3/4-y,1/4-z
3/4-x,1/2+y,1/4-z
1/2-x,1/2-y,-z
1/4+x,1/4+y,-z
1/2-x,1/4+y,3/4+z
1/4+x,1/2-y,3/4+z
loop_
_atom_site_type_symbol
_atom_site_label
_atom_site_fract_x
_atom_site_fract_y
_atom_site_fract_z
Si Si1 0.531255 0.279343 0.533590
Si Si2 0.771360 0.102633 0.545975
Si Si3 0.247934 0.729628 0.103227
Si Si4 0.029533 0.818692 0.704195
Si Si5 0.417519 0.443875 0.128693
Si Si6 0.225500 0.359111 0.307557
Si Si7 0.625000 0.125000 0.625000
Si Si8 0.125000 0.342045 0.625000
O O1 0.479215 0.215963 0.522629
O O2 0.638629 0.272550 0.534728
O O3 0.499703 0.303838 0.584927
O O4 0.511172 0.331064 0.494243
O O5 0.747519 0.148941 0.502536
O O6 0.868594 0.126234 0.563926
O O7 0.697099 0.095561 0.587780
O O8 0.348329 0.755569 0.102365
O O9 0.241617 0.690914 0.153112
O O10 0.228720 0.676271 0.064724
O O11 0.191103 0.792310 0.099953
O O12 0.072296 0.869313 0.666296
O O13 0.950188 0.788231 0.674116
O O14 0.375000 0.375000 0.127016
#
# Coordination Sequence:
#
# PCOD9516320 Si02
#       8
#    32  32  32  32  32  32   8  16
#     4  11  23  43  68 101 141 183 234 302 364 432
#     4  11  26  44  69 103 144 188 240 301 364 437
#     4  11  23  43  71  97 140 187 231 295 354 436
#     4  11  24  43  69 104 142 182 244 301 362 437
#     4  12  23  42  72  99 137 186 239 291 367 429
#     4  10  24  45  67 102 141 185 238 293 368 432
#     4  12  28  42  72 108 144 192 252 288 370 446
#     4  12  22  42  70 104 138 186 238 304 358 438
#
# _framework density 24.209275999999999
#
# number of rings (size 3 to 8) (size 9 to 14) (size 15 to 20)
#    0.000    0.889    4.444    1.778    3.111    1.185 
#    5.333    5.185    0.000    0.000    0.000    0.000 
#    0.000    0.000    0.000    0.000    0.000    0.000 
#
# Total GULP energy -302092.318876 kJ/mol
# GULP energy per Si atom -5594.302201 kJ/mol
# Density = 2.415417 g / cm^3
# Si number density = 24.209276 Si / 1000 Ang^3
#
#
#
# Elastic Constant Matrix: (Units=GPa)
#
#
# Indices 1 2 3 4 5 6 
#
# 1 50.3250 20.9361 10.1201 0.0000 0.0000 0.0000
# 2 20.9361 77.1997 32.8101 0.0000 0.0000 0.0000
# 3 10.1201 32.8101 91.9338 0.0000 0.0000 0.0000
# 4 0.0000 0.0000 0.0000 18.1843 0.0000 0.0000
# 5 0.0000 0.0000 0.0000 0.0000 2.2058 0.0000
# 6 0.0000 0.0000 0.0000 0.0000 0.0000 25.9917
#
#
#
# Elastic Compliance Matrix: (Units=1/GPa)
#
#
# Indices 1 2 3 4 5 6 
#
# 1 0.022407 -0.005928 -0.000351 0.000000 0.000000 0.000000
# 2 -0.005928 0.016838 -0.005357 0.000000 0.000000 0.000000
# 3 -0.000351 -0.005357 0.012828 0.000000 0.000000 0.000000
# 4 0.000000 0.000000 0.000000 0.054992 0.000000 0.000000
# 5 0.000000 0.000000 0.000000 0.000000 0.453354 0.000000
# 6 0.000000 0.000000 0.000000 0.000000 0.000000 0.038474
#
#
# Mechanical properties :
#
#
# Convention : Reuss Voigt Hill
#
# Bulk Modulus (GPa) = 34.71970 38.57681 36.64825
# Shear Modulus (GPa) = 7.91434 19.64917 13.78176
#
# Velocity S-wave (km/s) = 1.81004 2.85202 2.38854
# Velocity P-wave (km/s) = 4.32908 5.17829 4.77261
#
# Compressibility (1/GPa) = 0.02880209
#
# Stress axis : x y z
#
# Youngs Moduli (GPa) = 44.62812 59.39120 77.95592
#
# Poissons Ratio (x) = 0.35204 0.02737
# Poissons Ratio (y) = 0.26453 0.41758
# Poissons Ratio (z) = 0.01567 0.31814
#
# Static dielectric constant tensor:
#      x y z
#    x 2.005600 0.000000 0.000000 
#    y 0.000000 1.915010 0.000000 
#    z 0.000000 0.000000 1.903120 
# 
# From -- ./inp_files/65960.got.cif
#   From: 2010.05.17/outbox.cif.g08.bks.cpg/sg70_33_cif.got.tgz:65960.got - 2010.06.03 15:57:51.
