data_PCOD9516132
_publ_section_title
;
Structure prediction by ZEFSAII (Michael W. Deem and Ramdas Pophale) SiO2 
 PCOD9516132
Probable space group: F D D D
;
_chemical_formula_sum "Si O2"
_cell_formula_units_Z 208
_cell_length_a 19.253804
_cell_length_b 23.167606
_cell_length_c 24.840546
_cell_angle_alpha 90.000000
_cell_angle_beta 90.000000
_cell_angle_gamma 90.000000
_cell_volume 11080.486851
_symmetry_space_group_name_H-M "F D D D"
_symmetry_group_IT_number 70
_space_group.IT_coordinate_system_code '2'
_symmetry_cell_setting 'orthorhombic'
loop_
_space_group_symop_operation_xyz
x,y,z
1/4-x,1/4-y,z
x,1/4-y,1/4-z
1/4-x,y,1/4-z
-x,-y,-z
3/4+x,3/4+y,-z
-x,3/4+y,3/4+z
3/4+x,-y,3/4+z
x,1/2+y,1/2+z
1/4-x,3/4-y,1/2+z
x,3/4-y,3/4-z
1/4-x,1/2+y,3/4-z
-x,1/2-y,1/2-z
3/4+x,1/4+y,1/2-z
-x,1/4+y,1/4+z
3/4+x,1/2-y,1/4+z
1/2+x,y,1/2+z
3/4-x,1/4-y,1/2+z
1/2+x,1/4-y,3/4-z
3/4-x,y,3/4-z
1/2-x,-y,1/2-z
1/4+x,3/4+y,1/2-z
1/2-x,3/4+y,1/4+z
1/4+x,-y,1/4+z
1/2+x,1/2+y,z
3/4-x,3/4-y,z
1/2+x,3/4-y,1/4-z
3/4-x,1/2+y,1/4-z
1/2-x,1/2-y,-z
1/4+x,1/4+y,-z
1/2-x,1/4+y,3/4+z
1/4+x,1/2-y,3/4+z
loop_
_atom_site_type_symbol
_atom_site_label
_atom_site_fract_x
_atom_site_fract_y
_atom_site_fract_z
Si Si1 0.125000 0.125000 0.625000
Si Si2 0.490859 0.844468 0.802050
Si Si3 0.563646 0.341185 0.588857
Si Si4 0.807955 0.044195 0.022275
Si Si5 0.477826 0.966258 0.322888
Si Si6 0.633635 0.966192 0.361247
Si Si7 0.625000 0.125000 0.625000
Si Si8 0.687958 0.582510 0.809692
O O1 0.175132 0.164310 0.589504
O O2 0.496203 0.913576 0.791484
O O3 0.560478 0.825027 0.831894
O O4 0.476199 0.814900 0.745301
O O5 0.625000 0.363679 0.625000
O O6 0.589080 0.332476 0.526954
O O7 0.542509 0.275617 0.604394
O O8 0.496187 0.380977 0.590904
O O9 0.855986 0.035539 0.074096
O O10 0.781202 0.987886 0.989460
O O11 0.556440 0.952350 0.340266
O O12 0.424809 0.916090 0.339236
O O13 0.656110 0.029668 0.341750
O O14 0.625000 0.625000 0.795038
#
# Coordination Sequence:
#
# PCOD9516132 Si02
#       8
#     8  32  32  32  32  32   8  32
#     4  12  20  34  64  84 132 174 208 264 314 396
#     4  11  22  37  63  93 132 174 212 257 327 392
#     4   9  19  44  62  84 126 176 202 273 327 382
#     4   9  21  43  61  93 125 164 218 266 328 387
#     4  10  23  42  69  87 134 160 224 276 321 390
#     4  12  22  40  64 102 126 173 216 269 320 405
#     4  12  24  46  72  96 116 182 224 276 338 380
#     4  11  21  40  64  89 133 171 214 256 333 387
#
# _framework density 18.771737999999999
#
# number of rings (size 3 to 8) (size 9 to 14) (size 15 to 20)
#    0.923    0.615    4.615    0.462    2.154    0.000 
#    8.308    3.077    0.000    0.000    0.000    0.000 
#    0.000    0.000    0.000    0.000    0.000    0.000 
#
# Total GULP energy -289542.428092 kJ/mol
# GULP energy per Si atom -5568.123617 kJ/mol
# Density = 1.872901 g / cm^3
# Si number density = 18.771738 Si / 1000 Ang^3
#
#
#
# Elastic Constant Matrix: (Units=GPa)
#
#
# Indices 1 2 3 4 5 6 
#
# 1 156.8150 47.9408 60.7343 0.0000 0.0000 0.0000
# 2 47.9408 92.1418 30.9250 0.0000 0.0000 0.0000
# 3 60.7343 30.9250 103.5834 0.0000 0.0000 0.0000
# 4 0.0000 0.0000 0.0000 18.3391 0.0000 0.0000
# 5 0.0000 0.0000 0.0000 0.0000 15.3517 0.0000
# 6 0.0000 0.0000 0.0000 0.0000 0.0000 31.1239
#
#
#
# Elastic Compliance Matrix: (Units=1/GPa)
#
#
# Indices 1 2 3 4 5 6 
#
# 1 0.009051 -0.003254 -0.004335 0.000000 0.000000 0.000000
# 2 -0.003254 0.013231 -0.002042 0.000000 0.000000 0.000000
# 3 -0.004335 -0.002042 0.012806 0.000000 0.000000 0.000000
# 4 0.000000 0.000000 0.000000 0.054528 0.000000 0.000000
# 5 0.000000 0.000000 0.000000 0.000000 0.065140 0.000000
# 6 0.000000 0.000000 0.000000 0.000000 0.000000 0.032130
#
#
# Mechanical properties :
#
#
# Convention : Reuss Voigt Hill
#
# Bulk Modulus (GPa) = 63.19270 70.19339 66.69305
# Shear Modulus (GPa) = 23.64923 27.15894 25.40409
#
# Velocity S-wave (km/s) = 3.55326 3.80781 3.68274
# Velocity P-wave (km/s) = 7.11133 7.53703 7.32727
#
# Compressibility (1/GPa) = 0.01582461
#
# Stress axis : x y z
#
# Youngs Moduli (GPa) = 110.48739 75.57812 78.09021
#
# Poissons Ratio (x) = 0.24594 0.33854
# Poissons Ratio (y) = 0.35953 0.15948
# Poissons Ratio (z) = 0.47899 0.15435
#
# Static dielectric constant tensor:
#      x y z
#    x 1.633980 0.000000 0.000000 
#    y 0.000000 1.687280 0.000000 
#    z 0.000000 0.000000 1.698270 
# 
# From -- ./inp_files/52384.got.cif
#   From: 2010.05.17/outbox.cif.g08.bks.cpg/sg70_27_cif.got.tgz:52384.got - 2010.06.03 15:57:51.
