data_PCOD9516699
_publ_section_title
;
Structure prediction by ZEFSAII (Michael W. Deem and Ramdas Pophale) SiO2 
 PCOD9516699
Probable space group: F D D D
;
_chemical_formula_sum "Si O2"
_cell_formula_units_Z 160
_cell_length_a 21.574002
_cell_length_b 20.173164
_cell_length_c 17.972582
_cell_angle_alpha 90.000000
_cell_angle_beta 90.000000
_cell_angle_gamma 90.000000
_cell_volume 7821.953100
_symmetry_space_group_name_H-M "F D D D"
_symmetry_group_IT_number 70
_space_group.IT_coordinate_system_code '2'
_symmetry_cell_setting 'orthorhombic'
loop_
_space_group_symop_operation_xyz
x,y,z
1/4-x,1/4-y,z
x,1/4-y,1/4-z
1/4-x,y,1/4-z
-x,-y,-z
3/4+x,3/4+y,-z
-x,3/4+y,3/4+z
3/4+x,-y,3/4+z
x,1/2+y,1/2+z
1/4-x,3/4-y,1/2+z
x,3/4-y,3/4-z
1/4-x,1/2+y,3/4-z
-x,1/2-y,1/2-z
3/4+x,1/4+y,1/2-z
-x,1/4+y,1/4+z
3/4+x,1/2-y,1/4+z
1/2+x,y,1/2+z
3/4-x,1/4-y,1/2+z
1/2+x,1/4-y,3/4-z
3/4-x,y,3/4-z
1/2-x,-y,1/2-z
1/4+x,3/4+y,1/2-z
1/2-x,3/4+y,1/4+z
1/4+x,-y,1/4+z
1/2+x,1/2+y,z
3/4-x,3/4-y,z
1/2+x,3/4-y,1/4-z
3/4-x,1/2+y,1/4-z
1/2-x,1/2-y,-z
1/4+x,1/4+y,-z
1/2-x,1/4+y,3/4+z
1/4+x,1/2-y,3/4+z
loop_
_atom_site_type_symbol
_atom_site_label
_atom_site_fract_x
_atom_site_fract_y
_atom_site_fract_z
Si Si1 0.690952 0.442478 0.828129
Si Si2 0.638576 0.195991 0.397346
Si Si3 0.641752 0.508054 0.048745
Si Si4 0.442319 0.035945 0.903769
Si Si5 0.530520 0.821815 0.151633
O O1 0.685422 0.375000 0.875000
O O2 0.635913 0.492805 0.850278
O O3 0.755432 0.479526 0.848720
O O4 0.689297 0.437720 0.738882
O O5 0.625000 0.125000 0.360381
O O6 0.601729 0.200511 0.475343
O O7 0.788112 0.099873 0.394438
O O8 0.699399 0.463010 0.073395
O O9 0.789228 0.447951 0.166697
O O10 0.582801 0.457779 0.043304
O O11 0.375000 0.013725 0.875000
O O12 0.625000 0.703274 0.125000
#
# Coordination Sequence:
#
# PCOD9516699 Si02
#       5
#    32  32  32  32  32
#     4  11  27  42  65 100 132 168 230 275 323 390
#     4  12  22  40  65  98 131 170 221 269 323 389
#     4   8  20  37  64  89 133 168 205 257 319 394
#     4  11  22  46  69  92 129 180 216 272 336 388
#     4   9  19  40  64  90 131 170 209 258 324 386
#
# _framework density 20.455248999999998
#
# number of rings (size 3 to 8) (size 9 to 14) (size 15 to 20)
#    1.200    0.400    4.000    1.800    0.000    4.000 
#    0.000    0.000    0.000    0.000    0.000    0.000 
#    0.000    0.000    0.000    0.000    0.000    0.000 
#
# Total GULP energy -222932.310730 kJ/mol
# GULP energy per Si atom -5573.307768 kJ/mol
# Density = 2.040869 g / cm^3
# Si number density = 20.455249 Si / 1000 Ang^3
#
#
#
# Elastic Constant Matrix: (Units=GPa)
#
#
# Indices 1 2 3 4 5 6 
#
# 1 43.3827 5.7647 4.0490 0.0000 0.0000 0.0000
# 2 5.7647 112.1303 20.9883 0.0000 0.0000 0.0000
# 3 4.0490 20.9883 30.9029 0.0000 0.0000 0.0000
# 4 0.0000 0.0000 0.0000 20.6917 0.0000 0.0000
# 5 0.0000 0.0000 0.0000 0.0000 10.1225 0.0000
# 6 0.0000 0.0000 0.0000 0.0000 0.0000 25.6136
#
#
#
# Elastic Compliance Matrix: (Units=1/GPa)
#
#
# Indices 1 2 3 4 5 6 
#
# 1 0.023387 -0.000720 -0.002575 0.000000 0.000000 0.000000
# 2 -0.000720 0.010239 -0.006860 0.000000 0.000000 0.000000
# 3 -0.002575 -0.006860 0.037356 0.000000 0.000000 0.000000
# 4 0.000000 0.000000 0.000000 0.048329 0.000000 0.000000
# 5 0.000000 0.000000 0.000000 0.000000 0.098790 0.000000
# 6 0.000000 0.000000 0.000000 0.000000 0.000000 0.039042
#
#
# Mechanical properties :
#
#
# Convention : Reuss Voigt Hill
#
# Bulk Modulus (GPa) = 19.73496 27.55776 23.64636
# Shear Modulus (GPa) = 16.98699 21.65981 19.32340
#
# Velocity S-wave (km/s) = 2.88487 3.25759 3.07688
# Velocity P-wave (km/s) = 4.55691 5.25839 4.92017
#
# Compressibility (1/GPa) = 0.05067149
#
# Stress axis : x y z
#
# Youngs Moduli (GPa) = 42.75934 97.66365 26.76966
#
# Poissons Ratio (x) = 0.07035 0.06893
# Poissons Ratio (y) = 0.03080 0.18363
# Poissons Ratio (z) = 0.11010 0.66995
#
# Static dielectric constant tensor:
#      x y z
#    x 1.722460 0.000000 0.000000 
#    y 0.000000 1.735790 0.000000 
#    z 0.000000 0.000000 1.746220 
# 
# From -- ./inp_files/44725.got.cif
#   From: 2010.05.17/outbox.cif.g08.bks.cpg/sg70_23_cif.got.tgz:44725.got - 2010.06.03 15:57:51.
