data_PCOD9516813
_publ_section_title
;
Structure prediction by ZEFSAII (Michael W. Deem and Ramdas Pophale) SiO2 
 PCOD9516813
Probable space group: F D D D
;
_chemical_formula_sum "Si O2"
_cell_formula_units_Z 80
_cell_length_a 27.043994
_cell_length_b 27.318602
_cell_length_c 5.001043
_cell_angle_alpha 90.000000
_cell_angle_beta 90.000000
_cell_angle_gamma 90.000000
_cell_volume 3694.791116
_symmetry_space_group_name_H-M "F D D D"
_symmetry_group_IT_number 70
_space_group.IT_coordinate_system_code '2'
_symmetry_cell_setting 'orthorhombic'
loop_
_space_group_symop_operation_xyz
x,y,z
1/4-x,1/4-y,z
x,1/4-y,1/4-z
1/4-x,y,1/4-z
-x,-y,-z
3/4+x,3/4+y,-z
-x,3/4+y,3/4+z
3/4+x,-y,3/4+z
x,1/2+y,1/2+z
1/4-x,3/4-y,1/2+z
x,3/4-y,3/4-z
1/4-x,1/2+y,3/4-z
-x,1/2-y,1/2-z
3/4+x,1/4+y,1/2-z
-x,1/4+y,1/4+z
3/4+x,1/2-y,1/4+z
1/2+x,y,1/2+z
3/4-x,1/4-y,1/2+z
1/2+x,1/4-y,3/4-z
3/4-x,y,3/4-z
1/2-x,-y,1/2-z
1/4+x,3/4+y,1/2-z
1/2-x,3/4+y,1/4+z
1/4+x,-y,1/4+z
1/2+x,1/2+y,z
3/4-x,3/4-y,z
1/2+x,3/4-y,1/4-z
3/4-x,1/2+y,1/4-z
1/2-x,1/2-y,-z
1/4+x,1/4+y,-z
1/2-x,1/4+y,3/4+z
1/4+x,1/2-y,3/4+z
loop_
_atom_site_type_symbol
_atom_site_label
_atom_site_fract_x
_atom_site_fract_y
_atom_site_fract_z
Si Si1 0.260168 0.625000 0.625000
Si Si2 0.782357 0.232093 0.744953
Si Si3 0.375000 0.791528 0.875000
Si Si4 0.195036 0.625000 0.125000
O O1 0.287566 0.673237 0.732869
O O2 0.227505 0.642817 0.372467
O O3 0.750000 0.250000 0.500000
O O4 0.836317 0.256801 0.727718
O O5 0.750000 0.250000 0.000000
O O6 0.337691 0.831366 0.004296
#
# Coordination Sequence:
#
# PCOD9516813 Si02
#       4
#    16  32  16  16
#     4  12  22  47  67 103 138 185 227 293 354 420
#     4  12  25  44  68 102 142 180 229 297 353 413
#     4  11  24  44  70 108 134 184 234 291 350 424
#     4  11  24  40  75 101 132 181 245 284 340 427
#
# _framework density 21.652103
#
# number of rings (size 3 to 8) (size 9 to 14) (size 15 to 20)
#    0.000    0.400    8.000    0.000    0.000    8.000 
#    0.000    6.000    0.000    0.000    0.000    0.000 
#    0.000    0.000    0.000    0.000    0.000    0.000 
#
# Total GULP energy -111468.308078 kJ/mol
# GULP energy per Si atom -5573.415404 kJ/mol
# Density = 2.160282 g / cm^3
# Si number density = 21.652103 Si / 1000 Ang^3
#
#
#
# Elastic Constant Matrix: (Units=GPa)
#
#
# Indices 1 2 3 4 5 6 
#
# 1 107.6868 63.1281 30.5184 0.0019 0.0337 -0.0455
# 2 63.1281 207.1678 14.7228 -0.1762 0.0603 0.0254
# 3 30.5184 14.7228 122.5382 -0.2266 0.1246 -0.0036
# 4 0.0019 -0.1762 -0.2266 29.7099 0.0463 0.0059
# 5 0.0337 0.0603 0.1246 0.0463 21.7642 -0.0055
# 6 -0.0455 0.0254 -0.0036 0.0059 -0.0055 23.9915
#
#
#
# Elastic Compliance Matrix: (Units=1/GPa)
#
#
# Indices 1 2 3 4 5 6 
#
# 1 0.012067 -0.003493 -0.002586 -0.000041 0.000006 0.000026
# 2 -0.003493 0.005880 0.000164 0.000036 -0.000012 -0.000013
# 3 -0.002586 0.000164 0.008785 0.000068 -0.000047 -0.000004
# 4 -0.000041 0.000036 0.000068 0.033660 -0.000072 -0.000008
# 5 0.000006 -0.000012 -0.000047 -0.000072 0.045947 0.000011
# 6 0.000026 -0.000013 -0.000004 -0.000008 0.000011 0.041682
#
#
# Mechanical properties :
#
#
# Convention : Reuss Voigt Hill
#
# Bulk Modulus (GPa) = 67.10819 72.68126 69.89473
# Shear Modulus (GPa) = 30.33645 37.02801 33.68223
#
# Velocity S-wave (km/s) = 3.74717 4.13986 3.94840
# Velocity P-wave (km/s) = 7.05569 7.51611 7.28954
#
# Compressibility (1/GPa) = 0.01490131
#
# Stress axis : x y z
#
# Youngs Moduli (GPa) = 82.87207 170.07140 113.82791
#
# Poissons Ratio (x) = 0.59411 0.29432
# Poissons Ratio (y) = 0.28950 -0.01862
# Poissons Ratio (z) = 0.21428 -0.02783
#
# Static dielectric constant tensor:
#      x y z
#    x 1.792880 0.000690 0.000190 
#    y 0.000690 1.652520 0.002850 
#    z 0.000190 0.002850 1.733440 
# 
# From -- ./inp_files/2518.got.cif
#   From: 2010.05.17/outbox.cif.g08.bks.cpg/sg70_2_cif.got.tgz:2518.got - 2010.06.03 15:57:51.
