data_PCOD9516773
_publ_section_title
;
Structure prediction by ZEFSAII (Michael W. Deem and Ramdas Pophale) SiO2 
 PCOD9516773
Probable space group: F D D D
;
_chemical_formula_sum "Si O2"
_cell_formula_units_Z 144
_cell_length_a 24.123624
_cell_length_b 16.661061
_cell_length_c 16.186485
_cell_angle_alpha 90.000000
_cell_angle_beta 90.000000
_cell_angle_gamma 90.000000
_cell_volume 6505.755752
_symmetry_space_group_name_H-M "F D D D"
_symmetry_group_IT_number 70
_space_group.IT_coordinate_system_code '2'
_symmetry_cell_setting 'orthorhombic'
loop_
_space_group_symop_operation_xyz
x,y,z
1/4-x,1/4-y,z
x,1/4-y,1/4-z
1/4-x,y,1/4-z
-x,-y,-z
3/4+x,3/4+y,-z
-x,3/4+y,3/4+z
3/4+x,-y,3/4+z
x,1/2+y,1/2+z
1/4-x,3/4-y,1/2+z
x,3/4-y,3/4-z
1/4-x,1/2+y,3/4-z
-x,1/2-y,1/2-z
3/4+x,1/4+y,1/2-z
-x,1/4+y,1/4+z
3/4+x,1/2-y,1/4+z
1/2+x,y,1/2+z
3/4-x,1/4-y,1/2+z
1/2+x,1/4-y,3/4-z
3/4-x,y,3/4-z
1/2-x,-y,1/2-z
1/4+x,3/4+y,1/2-z
1/2-x,3/4+y,1/4+z
1/4+x,-y,1/4+z
1/2+x,1/2+y,z
3/4-x,3/4-y,z
1/2+x,3/4-y,1/4-z
3/4-x,1/2+y,1/4-z
1/2-x,1/2-y,-z
1/4+x,1/4+y,-z
1/2-x,1/4+y,3/4+z
1/4+x,1/2-y,3/4+z
loop_
_atom_site_type_symbol
_atom_site_label
_atom_site_fract_x
_atom_site_fract_y
_atom_site_fract_z
Si Si1 0.125000 0.125000 0.125000
Si Si2 0.625000 0.125000 0.125000
Si Si3 0.868780 0.039688 0.143169
Si Si4 0.207658 0.727495 0.233781
Si Si5 0.278493 0.412554 0.142213
Si Si6 0.438872 0.464460 0.010286
O O1 0.165032 0.181798 0.073660
O O2 0.663339 0.178486 0.182134
O O3 0.841394 0.125000 0.125000
O O4 0.922765 0.033739 0.202634
O O5 0.823984 0.975585 0.175634
O O6 0.894243 0.020823 0.053279
O O7 0.238328 0.782704 0.165289
O O8 0.238286 0.656356 0.289439
O O9 0.308389 0.359091 0.073524
O O10 0.500000 0.500000 0.000000
#
# Coordination Sequence:
#
# PCOD9516773 Si02
#       6
#     8   8  32  32  32  32
#     4  12  24  42  66 106 144 186 242 316 364 448
#     4  12  24  46  70  94 140 182 238 308 348 428
#     4  11  23  45  66 100 142 186 233 300 358 443
#     4  11  25  45  71 102 143 189 245 298 372 437
#     4  11  24  46  69 105 143 194 243 302 367 451
#     4  11  24  41  70 103 144 185 241 304 374 438
#
# _framework density 22.134246000000001
#
# number of rings (size 3 to 8) (size 9 to 14) (size 15 to 20)
#    0.000    0.889    4.444    2.667    9.333    2.667 
#    0.000    2.222    0.000    0.000    0.000    0.000 
#    0.000    0.000    0.000    0.000    0.000    0.000 
#
# Total GULP energy -200721.708923 kJ/mol
# GULP energy per Si atom -5575.603026 kJ/mol
# Density = 2.208387 g / cm^3
# Si number density = 22.134246 Si / 1000 Ang^3
#
#
#
# Elastic Constant Matrix: (Units=GPa)
#
#
# Indices 1 2 3 4 5 6 
#
# 1 44.0439 14.0150 20.8653 0.0000 0.0000 0.0000
# 2 14.0150 102.2178 21.4657 0.0000 0.0000 0.0000
# 3 20.8653 21.4657 102.4500 0.0000 0.0000 0.0000
# 4 0.0000 0.0000 0.0000 3.1226 0.0000 0.0000
# 5 0.0000 0.0000 0.0000 0.0000 50.6682 0.0000
# 6 0.0000 0.0000 0.0000 0.0000 0.0000 625.6199
#
#
#
# Elastic Compliance Matrix: (Units=1/GPa)
#
#
# Indices 1 2 3 4 5 6 
#
# 1 0.025745 -0.002541 -0.004711 0.000000 0.000000 0.000000
# 2 -0.002541 0.010484 -0.001679 0.000000 0.000000 0.000000
# 3 -0.004711 -0.001679 0.011072 0.000000 0.000000 0.000000
# 4 0.000000 0.000000 0.000000 0.320251 0.000000 0.000000
# 5 0.000000 0.000000 0.000000 0.000000 0.019736 0.000000
# 6 0.000000 0.000000 0.000000 0.000000 0.000000 0.001598
#
#
# Mechanical properties :
#
#
# Convention : Reuss Voigt Hill
#
# Bulk Modulus (GPa) = 33.96801 40.15596 37.06198
# Shear Modulus (GPa) = 12.00305 148.70650 80.35477
#
# Velocity S-wave (km/s) = 2.33123 8.20547 6.03176
# Velocity P-wave (km/s) = 4.75666 10.39011 8.08023
#
# Compressibility (1/GPa) = 0.02943947
#
# Stress axis : x y z
#
# Youngs Moduli (GPa) = 38.84284 95.38338 90.31668
#
# Poissons Ratio (x) = 0.24232 0.42548
# Poissons Ratio (y) = 0.09868 0.15166
# Poissons Ratio (z) = 0.18299 0.16017
#
# Static dielectric constant tensor:
#      x y z
#    x 1.710790 0.000000 0.000000 
#    y 0.000000 1.399380 0.000000 
#    z 0.000000 0.000000 1.877860 
# 
# From -- ./inp_files/30880.got.cif
#   From: 2010.05.17/outbox.cif.g08.bks.cpg/sg70_16_cif.got.tgz:30880.got - 2010.06.03 15:57:51.
