data_PCOD9516030
_publ_section_title
;
Structure prediction by ZEFSAII (Michael W. Deem and Ramdas Pophale) SiO2 
 PCOD9516030
Probable space group: F D D D
;
_chemical_formula_sum "Si O2"
_cell_formula_units_Z 104
_cell_length_a 7.662774
_cell_length_b 17.083115
_cell_length_c 28.762304
_cell_angle_alpha 90.000000
_cell_angle_beta 90.000000
_cell_angle_gamma 90.000000
_cell_volume 3765.102065
_symmetry_space_group_name_H-M "F D D D"
_symmetry_group_IT_number 70
_space_group.IT_coordinate_system_code '2'
_symmetry_cell_setting 'orthorhombic'
loop_
_space_group_symop_operation_xyz
x,y,z
1/4-x,1/4-y,z
x,1/4-y,1/4-z
1/4-x,y,1/4-z
-x,-y,-z
3/4+x,3/4+y,-z
-x,3/4+y,3/4+z
3/4+x,-y,3/4+z
x,1/2+y,1/2+z
1/4-x,3/4-y,1/2+z
x,3/4-y,3/4-z
1/4-x,1/2+y,3/4-z
-x,1/2-y,1/2-z
3/4+x,1/4+y,1/2-z
-x,1/4+y,1/4+z
3/4+x,1/2-y,1/4+z
1/2+x,y,1/2+z
3/4-x,1/4-y,1/2+z
1/2+x,1/4-y,3/4-z
3/4-x,y,3/4-z
1/2-x,-y,1/2-z
1/4+x,3/4+y,1/2-z
1/2-x,3/4+y,1/4+z
1/4+x,-y,1/4+z
1/2+x,1/2+y,z
3/4-x,3/4-y,z
1/2+x,3/4-y,1/4-z
3/4-x,1/2+y,1/4-z
1/2-x,1/2-y,-z
1/4+x,1/4+y,-z
1/2-x,1/4+y,3/4+z
1/4+x,1/2-y,3/4+z
loop_
_atom_site_type_symbol
_atom_site_label
_atom_site_fract_x
_atom_site_fract_y
_atom_site_fract_z
Si Si1 0.375000 0.875000 0.270854
Si Si2 0.125000 0.125000 0.625000
Si Si3 0.625000 0.125000 0.358993
Si Si4 0.074054 0.000775 0.552107
Si Si5 0.235304 0.727167 0.442316
O O1 0.376180 0.797519 0.302982
O O2 0.238591 0.911547 0.232923
O O3 0.227558 0.180296 0.588520
O O4 0.755609 0.076410 0.327375
O O5 0.534942 0.063929 0.393457
O O6 0.284292 0.005626 0.549714
O O7 0.000000 0.000000 0.500000
#
# Coordination Sequence:
#
# PCOD9516030 Si02
#       5
#    16   8  16  32  32
#     4   9  22  42  77 112 160 208 262 339 403 510
#     4  12  26  52  70 122 164 200 292 342 414 526
#     4  11  23  48  76 114 162 216 270 351 419 502
#     4  12  27  46  81 115 158 219 277 349 435 509
#     4  10  22  46  74 117 161 209 276 335 418 509
#
# _framework density 27.622091999999999
#
# number of rings (size 3 to 8) (size 9 to 14) (size 15 to 20)
#    0.000    1.231    3.077    0.923    8.615    0.000 
#    5.538    0.000    0.000    3.692    0.000    0.000 
#    0.000    0.000    0.000    0.000    0.000    0.000 
#
# Total GULP energy -145330.689082 kJ/mol
# GULP energy per Si atom -5589.641888 kJ/mol
# Density = 2.755922 g / cm^3
# Si number density = 27.622092 Si / 1000 Ang^3
#
#
#
# Elastic Constant Matrix: (Units=GPa)
#
#
# Indices 1 2 3 4 5 6 
#
# 1 132.3911 75.6839 83.7793 0.0000 0.0000 0.0000
# 2 75.6839 222.4128 111.9090 0.0000 0.0000 0.0000
# 3 83.7793 111.9090 261.2495 0.0000 0.0000 0.0000
# 4 0.0000 0.0000 0.0000 14.2248 0.0000 0.0000
# 5 0.0000 0.0000 0.0000 0.0000 16.8872 0.0000
# 6 0.0000 0.0000 0.0000 0.0000 0.0000 56.9528
#
#
#
# Elastic Compliance Matrix: (Units=1/GPa)
#
#
# Indices 1 2 3 4 5 6 
#
# 1 0.010368 -0.002365 -0.002312 0.000000 0.000000 0.000000
# 2 -0.002365 0.006271 -0.001928 0.000000 0.000000 0.000000
# 3 -0.002312 -0.001928 0.005395 0.000000 0.000000 0.000000
# 4 0.000000 0.000000 0.000000 0.070300 0.000000 0.000000
# 5 0.000000 0.000000 0.000000 0.000000 0.059216 0.000000
# 6 0.000000 0.000000 0.000000 0.000000 0.000000 0.017558
#
#
# Mechanical properties :
#
#
# Convention : Reuss Voigt Hill
#
# Bulk Modulus (GPa) = 113.31628 128.75532 121.03580
# Shear Modulus (GPa) = 26.98912 40.59170 33.79041
#
# Velocity S-wave (km/s) = 3.12923 3.83761 3.50138
# Velocity P-wave (km/s) = 7.35995 8.14560 7.76272
#
# Compressibility (1/GPa) = 0.00882486
#
# Stress axis : x y z
#
# Youngs Moduli (GPa) = 96.44703 159.46711 185.35789
#
# Poissons Ratio (x) = 0.37713 0.42854
# Poissons Ratio (y) = 0.22809 0.35733
# Poissons Ratio (z) = 0.22298 0.30742
#
# Static dielectric constant tensor:
#      x y z
#    x 2.270990 0.000000 0.000000 
#    y 0.000000 2.325390 0.000000 
#    z 0.000000 0.000000 2.117600 
# 
# From -- ./inp_files/64388.got.cif
#   From: 2010.05.17/outbox.cif.g08.bks.cpg/sg70_33_cif.got.tgz:64388.got - 2010.06.03 15:57:51.
