data_PCOD9516427
_publ_section_title
;
Structure prediction by ZEFSAII (Michael W. Deem and Ramdas Pophale) SiO2 
 PCOD9516427
Probable space group: F D D D
;
_chemical_formula_sum "Si O2"
_cell_formula_units_Z 96
_cell_length_a 10.140779
_cell_length_b 16.840485
_cell_length_c 22.285578
_cell_angle_alpha 90.000000
_cell_angle_beta 90.000000
_cell_angle_gamma 90.000000
_cell_volume 3805.833771
_symmetry_space_group_name_H-M "F D D D"
_symmetry_group_IT_number 70
_space_group.IT_coordinate_system_code '2'
_symmetry_cell_setting 'orthorhombic'
loop_
_space_group_symop_operation_xyz
x,y,z
1/4-x,1/4-y,z
x,1/4-y,1/4-z
1/4-x,y,1/4-z
-x,-y,-z
3/4+x,3/4+y,-z
-x,3/4+y,3/4+z
3/4+x,-y,3/4+z
x,1/2+y,1/2+z
1/4-x,3/4-y,1/2+z
x,3/4-y,3/4-z
1/4-x,1/2+y,3/4-z
-x,1/2-y,1/2-z
3/4+x,1/4+y,1/2-z
-x,1/4+y,1/4+z
3/4+x,1/2-y,1/4+z
1/2+x,y,1/2+z
3/4-x,1/4-y,1/2+z
1/2+x,1/4-y,3/4-z
3/4-x,y,3/4-z
1/2-x,-y,1/2-z
1/4+x,3/4+y,1/2-z
1/2-x,3/4+y,1/4+z
1/4+x,-y,1/4+z
1/2+x,1/2+y,z
3/4-x,3/4-y,z
1/2+x,3/4-y,1/4-z
3/4-x,1/2+y,1/4-z
1/2-x,1/2-y,-z
1/4+x,1/4+y,-z
1/2-x,1/4+y,3/4+z
1/4+x,1/2-y,3/4+z
loop_
_atom_site_type_symbol
_atom_site_label
_atom_site_fract_x
_atom_site_fract_y
_atom_site_fract_z
Si Si1 0.485031 0.433777 0.114004
Si Si2 0.131785 0.330122 0.938268
Si Si3 0.406480 0.242214 0.508439
O O1 0.625000 0.394199 0.125000
O O2 0.375000 0.375000 0.091335
O O3 0.490831 0.512275 0.073069
O O4 0.438783 0.465562 0.178659
O O5 0.107317 0.375000 0.875000
O O6 0.178995 0.398036 0.983644
O O7 0.999033 0.286310 0.960476
O O8 0.250000 0.250000 0.500000
#
# Coordination Sequence:
#
# PCOD9516427 Si02
#       3
#    32  32  32
#     4  11  27  47  72 110 154 200 260 320 384 464
#     4  10  25  46  75 107 153 199 255 313 387 453
#     4  11  24  45  73 110 150 200 256 317 383 467
#
# _framework density 25.224433000000001
#
# number of rings (size 3 to 8) (size 9 to 14) (size 15 to 20)
#    0.000    1.333    0.000    3.000    9.333   15.333 
#    0.000    0.000    0.000    0.000    0.000    0.000 
#    0.000    0.000    0.000    0.000    0.000    0.000 
#
# Total GULP energy -134583.138846 kJ/mol
# GULP energy per Si atom -5607.630785 kJ/mol
# Density = 2.516702 g / cm^3
# Si number density = 25.224433 Si / 1000 Ang^3
#
#
#
# Elastic Constant Matrix: (Units=GPa)
#
#
# Indices 1 2 3 4 5 6 
#
# 1 131.4323 44.8503 30.2664 0.0000 0.0000 0.0000
# 2 44.8503 160.6047 30.8691 0.0000 0.0000 0.0000
# 3 30.2664 30.8691 83.2522 0.0000 0.0000 0.0000
# 4 0.0000 0.0000 0.0000 41.2524 0.0000 0.0000
# 5 0.0000 0.0000 0.0000 0.0000 38.2570 0.0000
# 6 0.0000 0.0000 0.0000 0.0000 0.0000 37.6272
#
#
#
# Elastic Compliance Matrix: (Units=1/GPa)
#
#
# Indices 1 2 3 4 5 6 
#
# 1 0.008862 -0.001998 -0.002481 0.000000 0.000000 0.000000
# 2 -0.001998 0.007155 -0.001927 0.000000 0.000000 0.000000
# 3 -0.002481 -0.001927 0.013628 0.000000 0.000000 0.000000
# 4 0.000000 0.000000 0.000000 0.024241 0.000000 0.000000
# 5 0.000000 0.000000 0.000000 0.000000 0.026139 0.000000
# 6 0.000000 0.000000 0.000000 0.000000 0.000000 0.026577
#
#
# Mechanical properties :
#
#
# Convention : Reuss Voigt Hill
#
# Bulk Modulus (GPa) = 59.40471 65.25118 62.32794
# Shear Modulus (GPa) = 39.99283 41.38087 40.68685
#
# Velocity S-wave (km/s) = 3.98613 4.05471 4.02057
# Velocity P-wave (km/s) = 6.69232 6.91703 6.80561
#
# Compressibility (1/GPa) = 0.01683368
#
# Stress axis : x y z
#
# Youngs Moduli (GPa) = 112.84753 139.76874 73.37860
#
# Poissons Ratio (x) = 0.27923 0.18204
# Poissons Ratio (y) = 0.22545 0.14137
# Poissons Ratio (z) = 0.27996 0.26927
#
# Static dielectric constant tensor:
#      x y z
#    x 1.906490 0.000000 0.000000 
#    y 0.000000 2.018350 0.000000 
#    z 0.000000 0.000000 2.036460 
# 
# From -- ./inp_files/32949.got.cif
#   From: 2010.05.17/outbox.cif.g08.bks.cpg/sg70_17_cif.got.tgz:32949.got - 2010.06.03 15:57:51.
