data_PCOD9516794
_publ_section_title
;
Structure prediction by ZEFSAII (Michael W. Deem and Ramdas Pophale) SiO2 
 PCOD9516794
Probable space group: F D D D
;
_chemical_formula_sum "Si O2"
_cell_formula_units_Z 160
_cell_length_a 24.354162
_cell_length_b 21.446211
_cell_length_c 15.074814
_cell_angle_alpha 90.000000
_cell_angle_beta 90.000000
_cell_angle_gamma 90.000000
_cell_volume 7873.643143
_symmetry_space_group_name_H-M "F D D D"
_symmetry_group_IT_number 70
_space_group.IT_coordinate_system_code '2'
_symmetry_cell_setting 'orthorhombic'
loop_
_space_group_symop_operation_xyz
x,y,z
1/4-x,1/4-y,z
x,1/4-y,1/4-z
1/4-x,y,1/4-z
-x,-y,-z
3/4+x,3/4+y,-z
-x,3/4+y,3/4+z
3/4+x,-y,3/4+z
x,1/2+y,1/2+z
1/4-x,3/4-y,1/2+z
x,3/4-y,3/4-z
1/4-x,1/2+y,3/4-z
-x,1/2-y,1/2-z
3/4+x,1/4+y,1/2-z
-x,1/4+y,1/4+z
3/4+x,1/2-y,1/4+z
1/2+x,y,1/2+z
3/4-x,1/4-y,1/2+z
1/2+x,1/4-y,3/4-z
3/4-x,y,3/4-z
1/2-x,-y,1/2-z
1/4+x,3/4+y,1/2-z
1/2-x,3/4+y,1/4+z
1/4+x,-y,1/4+z
1/2+x,1/2+y,z
3/4-x,3/4-y,z
1/2+x,3/4-y,1/4-z
3/4-x,1/2+y,1/4-z
1/2-x,1/2-y,-z
1/4+x,1/4+y,-z
1/2-x,1/4+y,3/4+z
1/4+x,1/2-y,3/4+z
loop_
_atom_site_type_symbol
_atom_site_label
_atom_site_fract_x
_atom_site_fract_y
_atom_site_fract_z
Si Si1 0.293769 0.197774 0.601985
Si Si2 0.811631 0.390367 0.205549
Si Si3 0.125000 0.396444 0.625000
Si Si4 0.993806 0.625000 0.625000
Si Si5 0.978798 0.686120 0.355043
Si Si6 0.405074 0.029715 0.550379
O O1 0.287611 0.125000 0.625000
O O2 0.286580 0.198346 0.496594
O O3 0.249540 0.246967 0.641410
O O4 0.353697 0.221754 0.631955
O O5 0.875000 0.375000 0.198910
O O6 0.782733 0.360008 0.291567
O O7 0.778341 0.362507 0.122554
O O8 0.814439 0.464595 0.216362
O O9 0.073781 0.350343 0.608907
O O10 0.127828 0.440567 0.711610
O O11 0.952426 0.572396 0.591254
#
# Coordination Sequence:
#
# PCOD9516794 Si02
#       6
#    32  32  16  16  32  32
#     4  11  23  47  70  99 137 187 233 294 347 415
#     4  12  27  44  68 109 143 186 235 300 353 430
#     4  12  24  46  72 106 138 190 232 296 360 432
#     4  12  25  42  66 104 146 187 230 286 368 426
#     4  11  25  45  71 100 142 183 239 288 353 419
#     4  12  25  44  74 105 142 187 238 286 362 433
#
# _framework density 20.320962000000002
#
# number of rings (size 3 to 8) (size 9 to 14) (size 15 to 20)
#    0.000    0.400    7.000    0.900    2.800    1.600 
#    0.000    0.500    0.000    0.000    0.000    0.000 
#    0.000    0.000    0.000    0.000    0.000    0.000 
#
# Total GULP energy -223146.612400 kJ/mol
# GULP energy per Si atom -5578.665310 kJ/mol
# Density = 2.027471 g / cm^3
# Si number density = 20.320962 Si / 1000 Ang^3
#
#
#
# Elastic Constant Matrix: (Units=GPa)
#
#
# Indices 1 2 3 4 5 6 
#
# 1 137.6763 27.2588 39.7725 0.0000 0.0000 0.0000
# 2 27.2588 93.0887 -3.1589 0.0000 0.0000 0.0000
# 3 39.7725 -3.1589 74.1264 0.0000 0.0000 0.0000
# 4 0.0000 0.0000 0.0000 5.5375 0.0000 0.0000
# 5 0.0000 0.0000 0.0000 0.0000 17.3403 0.0000
# 6 0.0000 0.0000 0.0000 0.0000 0.0000 -7.3330
#
#
#
# Elastic Compliance Matrix: (Units=1/GPa)
#
#
# Indices 1 2 3 4 5 6 
#
# 1 0.009318 -0.002902 -0.005123 0.000000 0.000000 0.000000
# 2 -0.002902 0.011662 0.002054 0.000000 0.000000 0.000000
# 3 -0.005123 0.002054 0.016327 0.000000 0.000000 0.000000
# 4 0.000000 0.000000 0.000000 0.180588 0.000000 0.000000
# 5 0.000000 0.000000 0.000000 0.000000 0.057669 0.000000
# 6 0.000000 0.000000 0.000000 0.000000 0.000000 -0.136370
#
#
# Mechanical properties :
#
#
# Convention : Reuss Voigt Hill
#
# Bulk Modulus (GPa) = 39.42572 48.07068 43.74820
# Shear Modulus (GPa) = 31.32987 19.17687 25.25337
#
# Velocity S-wave (km/s) = 3.93077 3.07530 3.52906
# Velocity P-wave (km/s) = 6.32811 6.02636 6.17908
#
# Compressibility (1/GPa) = 0.02536415
#
# Stress axis : x y z
#
# Youngs Moduli (GPa) = 107.31775 85.74812 61.24846
#
# Poissons Ratio (x) = 0.24888 0.31380
# Poissons Ratio (y) = 0.31148 -0.12582
# Poissons Ratio (z) = 0.54982 -0.17615
#
# Static dielectric constant tensor:
#      x y z
#    x 1.716870 0.000000 0.000000 
#    y 0.000000 2.011090 0.000000 
#    z 0.000000 0.000000 1.727740 
# 
# From -- ./inp_files/28675.got.cif
#   From: 2010.05.17/outbox.cif.g08.bks.cpg/sg70_15_cif.got.tgz:28675.got - 2010.06.03 15:57:51.
