data_PCOD9516576
_publ_section_title
;
Structure prediction by ZEFSAII (Michael W. Deem and Ramdas Pophale) SiO2 
 PCOD9516576
Probable space group: F D D D
;
_chemical_formula_sum "Si O2"
_cell_formula_units_Z 160
_cell_length_a 15.166956
_cell_length_b 22.563284
_cell_length_c 22.249809
_cell_angle_alpha 90.000000
_cell_angle_beta 90.000000
_cell_angle_gamma 90.000000
_cell_volume 7614.248105
_symmetry_space_group_name_H-M "F D D D"
_symmetry_group_IT_number 70
_space_group.IT_coordinate_system_code '2'
_symmetry_cell_setting 'orthorhombic'
loop_
_space_group_symop_operation_xyz
x,y,z
1/4-x,1/4-y,z
x,1/4-y,1/4-z
1/4-x,y,1/4-z
-x,-y,-z
3/4+x,3/4+y,-z
-x,3/4+y,3/4+z
3/4+x,-y,3/4+z
x,1/2+y,1/2+z
1/4-x,3/4-y,1/2+z
x,3/4-y,3/4-z
1/4-x,1/2+y,3/4-z
-x,1/2-y,1/2-z
3/4+x,1/4+y,1/2-z
-x,1/4+y,1/4+z
3/4+x,1/2-y,1/4+z
1/2+x,y,1/2+z
3/4-x,1/4-y,1/2+z
1/2+x,1/4-y,3/4-z
3/4-x,y,3/4-z
1/2-x,-y,1/2-z
1/4+x,3/4+y,1/2-z
1/2-x,3/4+y,1/4+z
1/4+x,-y,1/4+z
1/2+x,1/2+y,z
3/4-x,3/4-y,z
1/2+x,3/4-y,1/4-z
3/4-x,1/2+y,1/4-z
1/2-x,1/2-y,-z
1/4+x,1/4+y,-z
1/2-x,1/4+y,3/4+z
1/4+x,1/2-y,3/4+z
loop_
_atom_site_type_symbol
_atom_site_label
_atom_site_fract_x
_atom_site_fract_y
_atom_site_fract_z
Si Si1 0.948109 0.262677 0.061629
Si Si2 0.833585 0.093695 0.187367
Si Si3 0.120167 0.297661 0.229111
Si Si4 0.827696 0.813474 0.064155
Si Si5 0.103441 0.195106 0.691974
O O1 0.920933 0.194880 0.072074
O O2 0.905676 0.300482 0.115486
O O3 0.051498 0.275872 0.063457
O O4 0.910480 0.277678 0.995601
O O5 0.810092 0.125000 0.125000
O O6 0.847097 0.143707 0.236738
O O7 0.751221 0.051665 0.202550
O O8 0.109595 0.243607 0.276373
O O9 0.027014 0.313678 0.199244
O O10 0.875000 0.875000 0.046840
O O11 0.125000 0.125000 0.692419
O O12 0.125000 0.218552 0.625000
#
# Coordination Sequence:
#
# PCOD9516576 Si02
#       5
#    32  32  32  32  32
#     4  12  24  42  70  99 134 178 224 275 346 404
#     4  12  22  42  67  98 132 180 221 274 342 412
#     4  11  24  45  66  95 135 173 224 281 328 401
#     4  11  25  44  68  96 132 176 224 278 336 397
#     4  11  21  40  67  95 138 176 216 278 346 396
#
# _framework density 21.013238000000001
#
# number of rings (size 3 to 8) (size 9 to 14) (size 15 to 20)
#    0.000    0.600    6.000    3.000    0.000    0.000 
#    0.000    0.000    0.000    0.000    0.000    0.000 
#    0.000    0.000    0.000    0.000    0.000    0.000 
#
# Total GULP energy -223556.119489 kJ/mol
# GULP energy per Si atom -5588.902987 kJ/mol
# Density = 2.096541 g / cm^3
# Si number density = 21.013238 Si / 1000 Ang^3
#
#
#
# Elastic Constant Matrix: (Units=GPa)
#
#
# Indices 1 2 3 4 5 6 
#
# 1 109.9400 57.5860 24.1581 0.0000 0.0000 0.0000
# 2 57.5860 76.7896 22.6237 0.0000 0.0000 0.0000
# 3 24.1581 22.6237 104.3586 0.0000 0.0000 0.0000
# 4 0.0000 0.0000 0.0000 13.4998 0.0000 0.0000
# 5 0.0000 0.0000 0.0000 0.0000 -40.0762 0.0000
# 6 0.0000 0.0000 0.0000 0.0000 0.0000 33.6154
#
#
#
# Elastic Compliance Matrix: (Units=1/GPa)
#
#
# Indices 1 2 3 4 5 6 
#
# 1 0.015100 -0.010996 -0.001112 0.000000 0.000000 0.000000
# 2 -0.010996 0.021919 -0.002206 0.000000 0.000000 0.000000
# 3 -0.001112 -0.002206 0.010318 0.000000 0.000000 0.000000
# 4 0.000000 0.000000 0.000000 0.074075 0.000000 0.000000
# 5 0.000000 0.000000 0.000000 0.000000 -0.024952 0.000000
# 6 0.000000 0.000000 0.000000 0.000000 0.000000 0.029748
#
#
# Mechanical properties :
#
#
# Convention : Reuss Voigt Hill
#
# Bulk Modulus (GPa) = 53.45142 55.53598 54.49370
# Shear Modulus (GPa) = 31.04207 13.85583 22.44895
#
# Velocity S-wave (km/s) = 3.84769 2.57064 3.27207
# Velocity P-wave (km/s) = 6.72546 5.94115 6.34544
#
# Compressibility (1/GPa) = 0.01870858
#
# Stress axis : x y z
#
# Youngs Moduli (GPa) = 66.22572 45.62288 96.91834
#
# Poissons Ratio (x) = 0.50168 0.10774
# Poissons Ratio (y) = 0.72823 0.21382
# Poissons Ratio (z) = 0.07362 0.10065
#
# Static dielectric constant tensor:
#      x y z
#    x 1.799110 0.000000 0.000000 
#    y 0.000000 1.717350 0.000000 
#    z 0.000000 0.000000 1.749940 
# 
# From -- ./inp_files/43659.got.cif
#   From: 2010.05.17/outbox.cif.g08.bks.cpg/sg70_22_cif.got.tgz:43659.got - 2010.06.03 15:57:51.
