data_PCOD9516456
_publ_section_title
;
Structure prediction by ZEFSAII (Michael W. Deem and Ramdas Pophale) SiO2 
 PCOD9516456
Probable space group: F D D D
;
_chemical_formula_sum "Si O2"
_cell_formula_units_Z 104
_cell_length_a 7.611123
_cell_length_b 19.016817
_cell_length_c 27.510374
_cell_angle_alpha 90.000000
_cell_angle_beta 90.000000
_cell_angle_gamma 90.000000
_cell_volume 3981.833190
_symmetry_space_group_name_H-M "F D D D"
_symmetry_group_IT_number 70
_space_group.IT_coordinate_system_code '2'
_symmetry_cell_setting 'orthorhombic'
loop_
_space_group_symop_operation_xyz
x,y,z
1/4-x,1/4-y,z
x,1/4-y,1/4-z
1/4-x,y,1/4-z
-x,-y,-z
3/4+x,3/4+y,-z
-x,3/4+y,3/4+z
3/4+x,-y,3/4+z
x,1/2+y,1/2+z
1/4-x,3/4-y,1/2+z
x,3/4-y,3/4-z
1/4-x,1/2+y,3/4-z
-x,1/2-y,1/2-z
3/4+x,1/4+y,1/2-z
-x,1/4+y,1/4+z
3/4+x,1/2-y,1/4+z
1/2+x,y,1/2+z
3/4-x,1/4-y,1/2+z
1/2+x,1/4-y,3/4-z
3/4-x,y,3/4-z
1/2-x,-y,1/2-z
1/4+x,3/4+y,1/2-z
1/2-x,3/4+y,1/4+z
1/4+x,-y,1/4+z
1/2+x,1/2+y,z
3/4-x,3/4-y,z
1/2+x,3/4-y,1/4-z
3/4-x,1/2+y,1/4-z
1/2-x,1/2-y,-z
1/4+x,1/4+y,-z
1/2-x,1/4+y,3/4+z
1/4+x,1/2-y,3/4+z
loop_
_atom_site_type_symbol
_atom_site_label
_atom_site_fract_x
_atom_site_fract_y
_atom_site_fract_z
Si Si1 0.875000 0.875000 0.099764
Si Si2 0.875000 0.375000 0.875000
Si Si3 0.919954 0.547706 0.764707
Si Si4 0.625000 0.260316 0.625000
Si Si5 0.347047 0.183144 0.051148
O O1 0.527428 0.910053 0.184728
O O2 0.789987 0.812637 0.130885
O O3 0.749977 0.421207 0.908869
O O4 0.750000 0.500000 0.750000
O O5 0.326766 0.638978 0.726962
O O6 0.075564 0.491325 0.765198
O O7 0.681983 0.211340 0.580997
#
# Coordination Sequence:
#
# PCOD9516456 Si02
#       5
#    16   8  32  16  32
#     4  10  26  50  77 119 154 222 268 335 421 472
#     4  12  24  44  74 122 152 218 256 350 418 476
#     4  11  23  50  80 115 157 216 271 335 407 502
#     4  10  26  52  80 117 167 206 284 344 407 483
#     4  11  26  49  81 117 163 214 276 339 416 488
#
# _framework density 26.118621999999998
#
# number of rings (size 3 to 8) (size 9 to 14) (size 15 to 20)
#    0.000    1.231    3.077    0.000    0.000   15.385 
#   16.615    0.000    6.769    0.000    0.000    0.000 
#    0.000    0.000    0.000    0.000    0.000    0.000 
#
# Total GULP energy -145536.440570 kJ/mol
# GULP energy per Si atom -5597.555407 kJ/mol
# Density = 2.605918 g / cm^3
# Si number density = 26.118622 Si / 1000 Ang^3
#
#
#
# Elastic Constant Matrix: (Units=GPa)
#
#
# Indices 1 2 3 4 5 6 
#
# 1 127.4748 93.3171 106.5323 0.0000 0.0000 0.0000
# 2 93.3171 265.6857 106.4275 0.0000 0.0000 0.0000
# 3 106.5323 106.4275 138.7279 0.0000 0.0000 0.0000
# 4 0.0000 0.0000 0.0000 48.4076 0.0000 0.0000
# 5 0.0000 0.0000 0.0000 0.0000 60.8003 0.0000
# 6 0.0000 0.0000 0.0000 0.0000 0.0000 46.7093
#
#
#
# Elastic Compliance Matrix: (Units=1/GPa)
#
#
# Indices 1 2 3 4 5 6 
#
# 1 0.022254 -0.001401 -0.016014 0.000000 0.000000 0.000000
# 2 -0.001401 0.005522 -0.003160 0.000000 0.000000 0.000000
# 3 -0.016014 -0.003160 0.021930 0.000000 0.000000 0.000000
# 4 0.000000 0.000000 0.000000 0.020658 0.000000 0.000000
# 5 0.000000 0.000000 0.000000 0.000000 0.016447 0.000000
# 6 0.000000 0.000000 0.000000 0.000000 0.000000 0.021409
#
#
# Mechanical properties :
#
#
# Convention : Reuss Voigt Hill
#
# Bulk Modulus (GPa) = 116.89290 127.16026 122.02658
# Shear Modulus (GPa) = 32.84666 46.22421 39.53544
#
# Velocity S-wave (km/s) = 3.55011 4.21144 3.89483
# Velocity P-wave (km/s) = 7.85214 8.51115 8.18828
#
# Compressibility (1/GPa) = 0.00855484
#
# Stress axis : x y z
#
# Youngs Moduli (GPa) = 44.93649 181.09692 45.59919
#
# Poissons Ratio (x) = 0.25378 0.73023
# Poissons Ratio (y) = 0.06297 0.14410
# Poissons Ratio (z) = 0.71961 0.57229
#
# Static dielectric constant tensor:
#      x y z
#    x 2.088070 0.000000 0.000000 
#    y 0.000000 2.106020 0.000000 
#    z 0.000000 0.000000 2.106950 
# 
# From -- ./inp_files/63486.got.cif
#   From: 2010.05.17/outbox.cif.g08.bks.cpg/sg70_32_cif.got.tgz:63486.got - 2010.06.03 15:57:51.
