data_PCOD9516123
_publ_section_title
;
Structure prediction by ZEFSAII (Michael W. Deem and Ramdas Pophale) SiO2 
 PCOD9516123
Probable space group: F D D D
;
_chemical_formula_sum "Si O2"
_cell_formula_units_Z 168
_cell_length_a 16.394364
_cell_length_b 22.578534
_cell_length_c 19.134001
_cell_angle_alpha 90.000000
_cell_angle_beta 90.000000
_cell_angle_gamma 90.000000
_cell_volume 7082.655299
_symmetry_space_group_name_H-M "F D D D"
_symmetry_group_IT_number 70
_space_group.IT_coordinate_system_code '2'
_symmetry_cell_setting 'orthorhombic'
loop_
_space_group_symop_operation_xyz
x,y,z
1/4-x,1/4-y,z
x,1/4-y,1/4-z
1/4-x,y,1/4-z
-x,-y,-z
3/4+x,3/4+y,-z
-x,3/4+y,3/4+z
3/4+x,-y,3/4+z
x,1/2+y,1/2+z
1/4-x,3/4-y,1/2+z
x,3/4-y,3/4-z
1/4-x,1/2+y,3/4-z
-x,1/2-y,1/2-z
3/4+x,1/4+y,1/2-z
-x,1/4+y,1/4+z
3/4+x,1/2-y,1/4+z
1/2+x,y,1/2+z
3/4-x,1/4-y,1/2+z
1/2+x,1/4-y,3/4-z
3/4-x,y,3/4-z
1/2-x,-y,1/2-z
1/4+x,3/4+y,1/2-z
1/2-x,3/4+y,1/4+z
1/4+x,-y,1/4+z
1/2+x,1/2+y,z
3/4-x,3/4-y,z
1/2+x,3/4-y,1/4-z
3/4-x,1/2+y,1/4-z
1/2-x,1/2-y,-z
1/4+x,1/4+y,-z
1/2-x,1/4+y,3/4+z
1/4+x,1/2-y,3/4+z
loop_
_atom_site_type_symbol
_atom_site_label
_atom_site_fract_x
_atom_site_fract_y
_atom_site_fract_z
Si Si1 0.375000 0.375000 0.875000
Si Si2 0.159489 0.752257 0.833611
Si Si3 0.366620 0.122861 0.518816
Si Si4 0.297317 0.908348 0.690415
Si Si5 0.997586 0.561826 0.415946
Si Si6 0.756413 0.287871 0.298344
O O1 0.429571 0.335642 0.925087
O O2 0.153878 0.822525 0.825317
O O3 0.178194 0.722248 0.908709
O O4 0.076096 0.722095 0.802055
O O5 0.229029 0.734939 0.779024
O O6 0.284859 0.149939 0.484547
O O7 0.423065 0.084761 0.463109
O O8 0.423131 0.175645 0.545836
O O9 0.375000 0.875000 0.724875
O O10 0.281304 0.870543 0.620315
O O11 0.980884 0.516085 0.352435
#
# Coordination Sequence:
#
# PCOD9516123 Si02
#       6
#     8  32  32  32  32  32
#     4  12  24  36  52 108 146 156 216 288 324 440
#     4  11  23  39  64  97 138 182 224 280 353 410
#     4  12  23  43  71  99 144 191 220 290 357 409
#     4  10  23  42  66  95 137 178 242 283 334 419
#     4  11  22  41  63 103 139 175 227 287 343 436
#     4  12  24  38  67 102 139 184 225 273 364 417
#
# _framework density 23.719916999999999
#
# number of rings (size 3 to 8) (size 9 to 14) (size 15 to 20)
#    0.000    0.762    3.810    4.571    1.333    0.000 
#    0.000    3.810    4.190    0.000    0.000    0.000 
#    0.000    0.000    0.000    0.000    0.000    0.000 
#
# Total GULP energy -234783.866570 kJ/mol
# GULP energy per Si atom -5590.092061 kJ/mol
# Density = 2.366593 g / cm^3
# Si number density = 23.719917 Si / 1000 Ang^3
#
#
#
# Elastic Constant Matrix: (Units=GPa)
#
#
# Indices 1 2 3 4 5 6 
#
# 1 159.8878 62.4082 52.4138 0.0000 0.0000 0.0000
# 2 62.4082 159.0674 45.2926 0.0000 0.0000 0.0000
# 3 52.4138 45.2926 66.6135 0.0000 0.0000 0.0000
# 4 0.0000 0.0000 0.0000 23.9396 0.0000 0.0000
# 5 0.0000 0.0000 0.0000 0.0000 -3.2074 0.0000
# 6 0.0000 0.0000 0.0000 0.0000 0.0000 35.7757
#
#
#
# Elastic Compliance Matrix: (Units=1/GPa)
#
#
# Indices 1 2 3 4 5 6 
#
# 1 0.008845 -0.001846 -0.005704 0.000000 0.000000 0.000000
# 2 -0.001846 0.008181 -0.004110 0.000000 0.000000 0.000000
# 3 -0.005704 -0.004110 0.022295 0.000000 0.000000 0.000000
# 4 0.000000 0.000000 0.000000 0.041772 0.000000 0.000000
# 5 0.000000 0.000000 0.000000 0.000000 -0.311778 0.000000
# 6 0.000000 0.000000 0.000000 0.000000 0.000000 0.027952
#
#
# Mechanical properties :
#
#
# Convention : Reuss Voigt Hill
#
# Bulk Modulus (GPa) = 62.49957 78.42198 70.46077
# Shear Modulus (GPa) = -28.72269 26.33185 -1.19542
#
# Velocity S-wave (km/s) = -3.48359 3.33545 -0.71068
# Velocity P-wave (km/s) = 3.19776 6.92583 5.39411
#
# Compressibility (1/GPa) = 0.01600011
#
# Stress axis : x y z
#
# Youngs Moduli (GPa) = 113.05980 122.23124 44.85304
#
# Poissons Ratio (x) = 0.22563 0.25586
# Poissons Ratio (y) = 0.20870 0.18436
# Poissons Ratio (z) = 0.64493 0.50240
#
# Static dielectric constant tensor:
#      x y z
#    x 1.947280 0.000000 0.000000 
#    y 0.000000 1.813720 0.000000 
#    z 0.000000 0.000000 1.965530 
# 
# From -- ./inp_files/43807.got.cif
#   From: 2010.05.17/outbox.cif.g08.bks.cpg/sg70_22_cif.got.tgz:43807.got - 2010.06.03 15:57:51.
