data_PCOD9516421
_publ_section_title
;
Structure prediction by ZEFSAII (Michael W. Deem and Ramdas Pophale) SiO2 
 PCOD9516421
Probable space group: F D D D
;
_chemical_formula_sum "Si O2"
_cell_formula_units_Z 104
_cell_length_a 13.280809
_cell_length_b 13.753502
_cell_length_c 23.696851
_cell_angle_alpha 90.000000
_cell_angle_beta 90.000000
_cell_angle_gamma 90.000000
_cell_volume 4328.410717
_symmetry_space_group_name_H-M "F D D D"
_symmetry_group_IT_number 70
_space_group.IT_coordinate_system_code '2'
_symmetry_cell_setting 'orthorhombic'
loop_
_space_group_symop_operation_xyz
x,y,z
1/4-x,1/4-y,z
x,1/4-y,1/4-z
1/4-x,y,1/4-z
-x,-y,-z
3/4+x,3/4+y,-z
-x,3/4+y,3/4+z
3/4+x,-y,3/4+z
x,1/2+y,1/2+z
1/4-x,3/4-y,1/2+z
x,3/4-y,3/4-z
1/4-x,1/2+y,3/4-z
-x,1/2-y,1/2-z
3/4+x,1/4+y,1/2-z
-x,1/4+y,1/4+z
3/4+x,1/2-y,1/4+z
1/2+x,y,1/2+z
3/4-x,1/4-y,1/2+z
1/2+x,1/4-y,3/4-z
3/4-x,y,3/4-z
1/2-x,-y,1/2-z
1/4+x,3/4+y,1/2-z
1/2-x,3/4+y,1/4+z
1/4+x,-y,1/4+z
1/2+x,1/2+y,z
3/4-x,3/4-y,z
1/2+x,3/4-y,1/4-z
3/4-x,1/2+y,1/4-z
1/2-x,1/2-y,-z
1/4+x,1/4+y,-z
1/2-x,1/4+y,3/4+z
1/4+x,1/2-y,3/4+z
loop_
_atom_site_type_symbol
_atom_site_label
_atom_site_fract_x
_atom_site_fract_y
_atom_site_fract_z
Si Si1 0.136736 0.804726 0.563507
Si Si2 0.375000 0.375000 0.875000
Si Si3 0.051465 0.875000 0.375000
Si Si4 0.425574 0.038178 0.723066
Si Si5 0.625000 0.125000 0.044926
O O1 0.125000 0.857073 0.625000
O O2 0.183985 0.700956 0.584785
O O3 0.186821 0.869943 0.515616
O O4 0.029382 0.768001 0.539791
O O5 0.122832 0.810907 0.336176
O O6 0.969469 0.835262 0.419466
O O7 0.351789 0.965100 0.755622
#
# Coordination Sequence:
#
# PCOD9516421 Si02
#       5
#    32   8  16  32  16
#     4  10  25  45  73 105 146 191 251 308 372 452
#     4   8  22  48  64 102 142 182 244 306 358 452
#     4  11  25  42  72 106 150 192 253 307 374 446
#     4  12  24  47  73 108 150 199 248 311 378 438
#     4  11  26  44  73 112 149 198 251 312 368 453
#
# _framework density 24.027296
#
# number of rings (size 3 to 8) (size 9 to 14) (size 15 to 20)
#    0.923    0.308    3.077    1.846    4.308    1.231 
#    0.000    0.000    0.000    0.000    0.000    0.000 
#    0.000    0.000    0.000    0.000    0.000    0.000 
#
# Total GULP energy -144821.846236 kJ/mol
# GULP energy per Si atom -5570.071009 kJ/mol
# Density = 2.397261 g / cm^3
# Si number density = 24.027296 Si / 1000 Ang^3
#
#
#
# Elastic Constant Matrix: (Units=GPa)
#
#
# Indices 1 2 3 4 5 6 
#
# 1 102.0174 18.0706 61.7747 0.0000 0.0000 0.0000
# 2 18.0706 95.3289 64.0348 0.0000 0.0000 0.0000
# 3 61.7747 64.0348 198.0242 0.0000 0.0000 0.0000
# 4 0.0000 0.0000 0.0000 -40.0601 0.0000 0.0000
# 5 0.0000 0.0000 0.0000 0.0000 -409.6088 0.0000
# 6 0.0000 0.0000 0.0000 0.0000 0.0000 0.2997
#
#
#
# Elastic Compliance Matrix: (Units=1/GPa)
#
#
# Indices 1 2 3 4 5 6 
#
# 1 0.012092 0.000309 -0.003872 0.000000 0.000000 0.000000
# 2 0.000309 0.013409 -0.004432 0.000000 0.000000 0.000000
# 3 -0.003872 -0.004432 0.007691 0.000000 0.000000 0.000000
# 4 0.000000 0.000000 0.000000 -0.024962 0.000000 0.000000
# 5 0.000000 0.000000 0.000000 0.000000 -0.002441 0.000000
# 6 0.000000 0.000000 0.000000 0.000000 0.000000 3.336602
#
#
# Mechanical properties :
#
#
# Convention : Reuss Voigt Hill
#
# Bulk Modulus (GPa) = 58.13670 75.90340 67.02005
# Shear Modulus (GPa) = 1.48627 -73.10782 -35.81077
#
# Velocity S-wave (km/s) = 0.78735 -5.52205 -3.86478
# Velocity P-wave (km/s) = 5.00751 2.99972 2.83521
#
# Compressibility (1/GPa) = 0.01720084
#
# Stress axis : x y z
#
# Youngs Moduli (GPa) = 82.69778 74.57813 130.02096
#
# Poissons Ratio (x) = -0.02303 0.50345
# Poissons Ratio (y) = -0.02553 0.57629
# Poissons Ratio (z) = 0.32021 0.33055
#
# Static dielectric constant tensor:
#      x y z
#    x 1.969020 0.000000 0.000000 
#    y 0.000000 1.990440 0.000000 
#    z 0.000000 0.000000 2.001390 
# 
# From -- ./inp_files/33712.got.cif
#   From: 2010.05.17/outbox.cif.g08.bks.cpg/sg70_17_cif.got.tgz:33712.got - 2010.06.03 15:57:51.
