data_PCOD9516199
_publ_section_title
;
Structure prediction by ZEFSAII (Michael W. Deem and Ramdas Pophale) SiO2 
 PCOD9516199
Probable space group: F D D D
;
_chemical_formula_sum "Si O2"
_cell_formula_units_Z 160
_cell_length_a 17.847991
_cell_length_b 19.578749
_cell_length_c 20.664729
_cell_angle_alpha 90.000000
_cell_angle_beta 90.000000
_cell_angle_gamma 90.000000
_cell_volume 7221.110509
_symmetry_space_group_name_H-M "F D D D"
_symmetry_group_IT_number 70
_space_group.IT_coordinate_system_code '2'
_symmetry_cell_setting 'orthorhombic'
loop_
_space_group_symop_operation_xyz
x,y,z
1/4-x,1/4-y,z
x,1/4-y,1/4-z
1/4-x,y,1/4-z
-x,-y,-z
3/4+x,3/4+y,-z
-x,3/4+y,3/4+z
3/4+x,-y,3/4+z
x,1/2+y,1/2+z
1/4-x,3/4-y,1/2+z
x,3/4-y,3/4-z
1/4-x,1/2+y,3/4-z
-x,1/2-y,1/2-z
3/4+x,1/4+y,1/2-z
-x,1/4+y,1/4+z
3/4+x,1/2-y,1/4+z
1/2+x,y,1/2+z
3/4-x,1/4-y,1/2+z
1/2+x,1/4-y,3/4-z
3/4-x,y,3/4-z
1/2-x,-y,1/2-z
1/4+x,3/4+y,1/2-z
1/2-x,3/4+y,1/4+z
1/4+x,-y,1/4+z
1/2+x,1/2+y,z
3/4-x,3/4-y,z
1/2+x,3/4-y,1/4-z
3/4-x,1/2+y,1/4-z
1/2-x,1/2-y,-z
1/4+x,1/4+y,-z
1/2-x,1/4+y,3/4+z
1/4+x,1/2-y,3/4+z
loop_
_atom_site_type_symbol
_atom_site_label
_atom_site_fract_x
_atom_site_fract_y
_atom_site_fract_z
Si Si1 0.708937 0.016422 0.152148
Si Si2 0.961702 0.517860 0.227650
Si Si3 0.708027 0.643048 0.468073
Si Si4 0.427196 0.506762 0.937130
Si Si5 0.538777 0.613466 0.981295
O O1 0.625000 0.008865 0.125000
O O2 0.743309 0.944857 0.175888
O O3 0.765412 0.038154 0.094942
O O4 0.703549 0.068685 0.212009
O O5 0.875527 0.520501 0.249862
O O6 0.990599 0.440350 0.238211
O O7 0.002125 0.571362 0.273139
O O8 0.625000 0.625000 0.444641
O O9 0.375000 0.505851 0.875000
O O10 0.489202 0.565682 0.935235
O O11 0.458836 0.431381 0.952832
O O12 0.625000 0.625000 0.960205
#
# Coordination Sequence:
#
# PCOD9516199 Si02
#       5
#    32  32  32  32  32
#     4  11  25  46  70 101 152 189 241 310 369 444
#     4  11  24  39  71 104 138 186 240 302 357 438
#     4  11  25  45  72 103 142 194 241 297 380 439
#     4  10  23  45  71  99 143 194 236 295 372 437
#     4   9  22  44  68 100 140 179 238 301 354 422
#
# _framework density 22.157257999999999
#
# number of rings (size 3 to 8) (size 9 to 14) (size 15 to 20)
#    0.000    1.600    2.000    0.600    5.600    6.000 
#    3.600    0.000   13.200    0.000    0.000    0.000 
#    0.000    0.000    0.000    0.000    0.000    0.000 
#
# Total GULP energy -223512.585877 kJ/mol
# GULP energy per Si atom -5587.814647 kJ/mol
# Density = 2.210683 g / cm^3
# Si number density = 22.157258 Si / 1000 Ang^3
#
#
#
# Elastic Constant Matrix: (Units=GPa)
#
#
# Indices 1 2 3 4 5 6 
#
# 1 66.6250 34.7081 40.9243 0.0000 0.0000 0.0000
# 2 34.7081 143.1671 25.3671 0.0000 0.0000 0.0000
# 3 40.9243 25.3671 94.8696 0.0000 0.0000 0.0000
# 4 0.0000 0.0000 0.0000 14.3682 0.0000 0.0000
# 5 0.0000 0.0000 0.0000 0.0000 43.0502 0.0000
# 6 0.0000 0.0000 0.0000 0.0000 0.0000 42.8860
#
#
#
# Elastic Compliance Matrix: (Units=1/GPa)
#
#
# Indices 1 2 3 4 5 6 
#
# 1 0.022306 -0.003887 -0.008583 0.000000 0.000000 0.000000
# 2 -0.003887 0.008010 -0.000465 0.000000 0.000000 0.000000
# 3 -0.008583 -0.000465 0.014368 0.000000 0.000000 0.000000
# 4 0.000000 0.000000 0.000000 0.069598 0.000000 0.000000
# 5 0.000000 0.000000 0.000000 0.000000 0.023229 0.000000
# 6 0.000000 0.000000 0.000000 0.000000 0.000000 0.023318
#
#
# Mechanical properties :
#
#
# Convention : Reuss Voigt Hill
#
# Bulk Modulus (GPa) = 53.15293 56.29562 54.72428
# Shear Modulus (GPa) = 25.91085 33.63836 29.77461
#
# Velocity S-wave (km/s) = 3.42337 3.90059 3.66975
# Velocity P-wave (km/s) = 6.29817 6.76377 6.53512
#
# Compressibility (1/GPa) = 0.01881364
#
# Stress axis : x y z
#
# Youngs Moduli (GPa) = 44.83009 124.85104 69.60091
#
# Poissons Ratio (x) = 0.48529 0.59739
# Poissons Ratio (y) = 0.17425 0.03236
# Poissons Ratio (z) = 0.38478 0.05805
#
# Static dielectric constant tensor:
#      x y z
#    x 1.899810 0.000000 0.000000 
#    y 0.000000 1.820670 0.000000 
#    z 0.000000 0.000000 1.871070 
# 
# From -- ./inp_files/43641.got.cif
#   From: 2010.05.17/outbox.cif.g08.bks.cpg/sg70_22_cif.got.tgz:43641.got - 2010.06.03 15:57:51.
