data_PCOD9516096
_publ_section_title
;
Structure prediction by ZEFSAII (Michael W. Deem and Ramdas Pophale) SiO2 
 PCOD9516096
Probable space group: F D D D
;
_chemical_formula_sum "Si O2"
_cell_formula_units_Z 208
_cell_length_a 20.179089
_cell_length_b 26.678645
_cell_length_c 17.093114
_cell_angle_alpha 90.000000
_cell_angle_beta 90.000000
_cell_angle_gamma 90.000000
_cell_volume 9202.090773
_symmetry_space_group_name_H-M "F D D D"
_symmetry_group_IT_number 70
_space_group.IT_coordinate_system_code '2'
_symmetry_cell_setting 'orthorhombic'
loop_
_space_group_symop_operation_xyz
x,y,z
1/4-x,1/4-y,z
x,1/4-y,1/4-z
1/4-x,y,1/4-z
-x,-y,-z
3/4+x,3/4+y,-z
-x,3/4+y,3/4+z
3/4+x,-y,3/4+z
x,1/2+y,1/2+z
1/4-x,3/4-y,1/2+z
x,3/4-y,3/4-z
1/4-x,1/2+y,3/4-z
-x,1/2-y,1/2-z
3/4+x,1/4+y,1/2-z
-x,1/4+y,1/4+z
3/4+x,1/2-y,1/4+z
1/2+x,y,1/2+z
3/4-x,1/4-y,1/2+z
1/2+x,1/4-y,3/4-z
3/4-x,y,3/4-z
1/2-x,-y,1/2-z
1/4+x,3/4+y,1/2-z
1/2-x,3/4+y,1/4+z
1/4+x,-y,1/4+z
1/2+x,1/2+y,z
3/4-x,3/4-y,z
1/2+x,3/4-y,1/4-z
3/4-x,1/2+y,1/4-z
1/2-x,1/2-y,-z
1/4+x,1/4+y,-z
1/2-x,1/4+y,3/4+z
1/4+x,1/2-y,3/4+z
loop_
_atom_site_type_symbol
_atom_site_label
_atom_site_fract_x
_atom_site_fract_y
_atom_site_fract_z
Si Si1 0.375000 0.644290 0.875000
Si Si2 0.490556 0.407108 0.947107
Si Si3 0.375000 0.875000 0.033847
Si Si4 0.054794 0.476667 0.897666
Si Si5 0.475666 0.337325 0.093139
Si Si6 0.378752 0.059562 0.250141
Si Si7 0.125000 0.225393 0.125000
Si Si8 0.343540 0.975281 0.796009
O O1 0.446096 0.667610 0.893684
O O2 0.390752 0.608849 0.800638
O O3 0.518918 0.375000 0.875000
O O4 0.549709 0.440301 0.983097
O O5 0.432013 0.440720 0.911794
O O6 0.465581 0.367529 0.012589
O O7 0.438692 0.880763 0.089802
O O8 0.378039 0.825562 0.981768
O O9 0.052245 0.531443 0.855574
O O10 0.082863 0.440920 0.831624
O O11 0.982967 0.464005 0.932877
O O12 0.098381 0.485406 0.975271
O O13 0.397943 0.012749 0.305508
O O14 0.375000 0.993486 0.875000
#
# Coordination Sequence:
#
# PCOD9516096 Si02
#       8
#    16  32  16  32  32  32  16  32
#     4   9  22  44  65  96 135 175 214 267 342 398
#     4  11  24  40  64 103 132 173 225 270 339 405
#     4  10  23  42  67  92 130 170 218 283 328 390
#     4  10  23  42  65  95 127 174 220 268 336 390
#     4  10  23  42  67  97 133 174 219 273 339 397
#     4  10  23  44  63  98 134 176 214 276 343 393
#     4  11  23  40  71  96 138 174 226 277 328 421
#     4  10  23  41  62  94 123 165 223 267 325 389
#
# _framework density 22.603560000000002
#
# number of rings (size 3 to 8) (size 9 to 14) (size 15 to 20)
#    0.000    1.846    0.000    1.846    9.692    2.462 
#   13.846    0.000    0.000    0.000    0.000    0.000 
#    0.000    0.000    0.000    0.000    0.000    0.000 
#
# Total GULP energy -290779.206885 kJ/mol
# GULP energy per Si atom -5591.907825 kJ/mol
# Density = 2.255211 g / cm^3
# Si number density = 22.603560 Si / 1000 Ang^3
#
#
#
# Elastic Constant Matrix: (Units=GPa)
#
#
# Indices 1 2 3 4 5 6 
#
# 1 43.1405 15.3779 20.5236 0.0000 0.0000 0.0000
# 2 15.3779 51.9494 29.1478 0.0000 0.0000 0.0000
# 3 20.5236 29.1478 147.8439 0.0000 0.0000 0.0000
# 4 0.0000 0.0000 0.0000 -28.8924 0.0000 0.0000
# 5 0.0000 0.0000 0.0000 0.0000 34.9295 0.0000
# 6 0.0000 0.0000 0.0000 0.0000 0.0000 -1.2531
#
#
#
# Elastic Compliance Matrix: (Units=1/GPa)
#
#
# Indices 1 2 3 4 5 6 
#
# 1 0.026658 -0.006538 -0.002412 0.000000 0.000000 0.000000
# 2 -0.006538 0.023247 -0.003676 0.000000 0.000000 0.000000
# 3 -0.002412 -0.003676 0.007823 0.000000 0.000000 0.000000
# 4 0.000000 0.000000 0.000000 -0.034611 0.000000 0.000000
# 5 0.000000 0.000000 0.000000 0.000000 0.028629 0.000000
# 6 0.000000 0.000000 0.000000 0.000000 0.000000 -0.798042
#
#
# Mechanical properties :
#
#
# Convention : Reuss Voigt Hill
#
# Bulk Modulus (GPa) = 30.79029 41.44807 36.11918
# Shear Modulus (GPa) = -7.04009 12.81577 2.88784
#
# Velocity S-wave (km/s) = -1.76674 2.38372 1.13154
# Velocity P-wave (km/s) = 3.08053 5.09440 4.20967
#
# Compressibility (1/GPa) = 0.03247778
#
# Stress axis : x y z
#
# Youngs Moduli (GPa) = 37.51225 43.01595 127.82271
#
# Poissons Ratio (x) = 0.28124 0.30826
# Poissons Ratio (y) = 0.24526 0.46983
# Poissons Ratio (z) = 0.09047 0.15811
#
# Static dielectric constant tensor:
#      x y z
#    x 1.821760 0.000000 0.000000 
#    y 0.000000 1.855560 0.000000 
#    z 0.000000 0.000000 1.830980 
# 
# From -- ./inp_files/36790.got.cif
#   From: 2010.05.17/outbox.cif.g08.bks.cpg/sg70_19_cif.got.tgz:36790.got - 2010.06.03 15:57:51.
