data_PCOD9516556
_publ_section_title
;
Structure prediction by ZEFSAII (Michael W. Deem and Ramdas Pophale) SiO2 
 PCOD9516556
Probable space group: F D D D
;
_chemical_formula_sum "Si O2"
_cell_formula_units_Z 192
_cell_length_a 19.597255
_cell_length_b 25.348979
_cell_length_c 22.551098
_cell_angle_alpha 90.000000
_cell_angle_beta 90.000000
_cell_angle_gamma 90.000000
_cell_volume 11202.718097
_symmetry_space_group_name_H-M "F D D D"
_symmetry_group_IT_number 70
_space_group.IT_coordinate_system_code '2'
_symmetry_cell_setting 'orthorhombic'
loop_
_space_group_symop_operation_xyz
x,y,z
1/4-x,1/4-y,z
x,1/4-y,1/4-z
1/4-x,y,1/4-z
-x,-y,-z
3/4+x,3/4+y,-z
-x,3/4+y,3/4+z
3/4+x,-y,3/4+z
x,1/2+y,1/2+z
1/4-x,3/4-y,1/2+z
x,3/4-y,3/4-z
1/4-x,1/2+y,3/4-z
-x,1/2-y,1/2-z
3/4+x,1/4+y,1/2-z
-x,1/4+y,1/4+z
3/4+x,1/2-y,1/4+z
1/2+x,y,1/2+z
3/4-x,1/4-y,1/2+z
1/2+x,1/4-y,3/4-z
3/4-x,y,3/4-z
1/2-x,-y,1/2-z
1/4+x,3/4+y,1/2-z
1/2-x,3/4+y,1/4+z
1/4+x,-y,1/4+z
1/2+x,1/2+y,z
3/4-x,3/4-y,z
1/2+x,3/4-y,1/4-z
3/4-x,1/2+y,1/4-z
1/2-x,1/2-y,-z
1/4+x,1/4+y,-z
1/2-x,1/4+y,3/4+z
1/4+x,1/2-y,3/4+z
loop_
_atom_site_type_symbol
_atom_site_label
_atom_site_fract_x
_atom_site_fract_y
_atom_site_fract_z
Si Si1 0.621802 0.886333 0.782674
Si Si2 0.882239 0.040516 0.143164
Si Si3 0.936945 0.680227 0.916657
Si Si4 0.082263 0.072004 0.898024
Si Si5 0.704795 0.699888 0.157874
Si Si6 0.286207 0.905112 0.278360
O O1 0.607675 0.825491 0.801033
O O2 0.607061 0.925428 0.837379
O O3 0.575095 0.901553 0.728087
O O4 0.703169 0.899140 0.772050
O O5 0.963372 0.047292 0.151627
O O6 0.876809 0.978739 0.127452
O O7 0.875000 0.662434 0.875000
O O8 0.929146 0.743067 0.925597
O O9 0.010190 0.673078 0.886187
O O10 0.125000 0.125000 0.890305
O O11 0.063347 0.068640 0.968215
O O12 0.689835 0.684527 0.089052
O O13 0.691100 0.654735 0.206297
#
# Coordination Sequence:
#
# PCOD9516556 Si02
#       6
#    32  32  32  32  32  32
#     4   9  17  34  55  72 103 141 186 216 249 314
#     4   8  18  34  52  75 102 143 176 215 267 315
#     4  11  21  32  52  80 103 137 187 219 253 309
#     4  11  23  34  50  79 112 140 173 223 274 315
#     4   8  18  30  49  77 114 148 172 205 246 313
#     4   9  17  33  48  76 116 150 172 199 255 320
#
# _framework density 17.138698000000002
#
# number of rings (size 3 to 8) (size 9 to 14) (size 15 to 20)
#    0.000    2.667    1.667    2.000    4.667    2.000 
#    0.000    2.500    0.000    0.000    0.000    2.333 
#    0.000    0.000    0.000    0.000    0.000    0.000 
#
# Total GULP energy -267229.771062 kJ/mol
# GULP energy per Si atom -5567.286897 kJ/mol
# Density = 1.709969 g / cm^3
# Si number density = 17.138698 Si / 1000 Ang^3
#
#
#
# Elastic Constant Matrix: (Units=GPa)
#
#
# Indices 1 2 3 4 5 6 
#
# 1 31.4781 14.9361 22.5862 0.0000 0.0000 0.0000
# 2 14.9361 115.1717 56.6900 0.0000 0.0000 0.0000
# 3 22.5862 56.6900 106.1847 0.0000 0.0000 0.0000
# 4 0.0000 0.0000 0.0000 23.7327 0.0000 0.0000
# 5 0.0000 0.0000 0.0000 0.0000 21.4263 0.0000
# 6 0.0000 0.0000 0.0000 0.0000 0.0000 22.4642
#
#
#
# Elastic Compliance Matrix: (Units=1/GPa)
#
#
# Indices 1 2 3 4 5 6 
#
# 1 0.037627 -0.001275 -0.007323 0.000000 0.000000 0.000000
# 2 -0.001275 0.011821 -0.006040 0.000000 0.000000 0.000000
# 3 -0.007323 -0.006040 0.014200 0.000000 0.000000 0.000000
# 4 0.000000 0.000000 0.000000 0.042136 0.000000 0.000000
# 5 0.000000 0.000000 0.000000 0.000000 0.046672 0.000000
# 6 0.000000 0.000000 0.000000 0.000000 0.000000 0.044515
#
#
# Mechanical properties :
#
#
# Convention : Reuss Voigt Hill
#
# Bulk Modulus (GPa) = 29.09303 49.02880 39.06092
# Shear Modulus (GPa) = 21.03457 24.09947 22.56702
#
# Velocity S-wave (km/s) = 3.50711 3.75393 3.63261
# Velocity P-wave (km/s) = 5.78028 6.88901 6.35886
#
# Compressibility (1/GPa) = 0.03437249
#
# Stress axis : x y z
#
# Youngs Moduli (GPa) = 26.57632 84.59562 70.42435
#
# Poissons Ratio (x) = 0.10789 0.51570
# Poissons Ratio (y) = 0.03389 0.42534
# Poissons Ratio (z) = 0.19461 0.51093
#
# Static dielectric constant tensor:
#      x y z
#    x 1.615730 0.000000 0.000000 
#    y 0.000000 1.609290 0.000000 
#    z 0.000000 0.000000 1.596670 
# 
# From -- ./inp_files/45082.got.cif
#   From: 2010.05.17/outbox.cif.g08.bks.cpg/sg70_23_cif.got.tgz:45082.got - 2010.06.03 15:57:51.
