data_PCOD9516742
_publ_section_title
;
Structure prediction by ZEFSAII (Michael W. Deem and Ramdas Pophale) SiO2 
 PCOD9516742
Probable space group: F D D D
;
_chemical_formula_sum "Si O2"
_cell_formula_units_Z 160
_cell_length_a 10.107792
_cell_length_b 31.218220
_cell_length_c 25.374257
_cell_angle_alpha 90.000000
_cell_angle_beta 90.000000
_cell_angle_gamma 90.000000
_cell_volume 8006.777636
_symmetry_space_group_name_H-M "F D D D"
_symmetry_group_IT_number 70
_space_group.IT_coordinate_system_code '2'
_symmetry_cell_setting 'orthorhombic'
loop_
_space_group_symop_operation_xyz
x,y,z
1/4-x,1/4-y,z
x,1/4-y,1/4-z
1/4-x,y,1/4-z
-x,-y,-z
3/4+x,3/4+y,-z
-x,3/4+y,3/4+z
3/4+x,-y,3/4+z
x,1/2+y,1/2+z
1/4-x,3/4-y,1/2+z
x,3/4-y,3/4-z
1/4-x,1/2+y,3/4-z
-x,1/2-y,1/2-z
3/4+x,1/4+y,1/2-z
-x,1/4+y,1/4+z
3/4+x,1/2-y,1/4+z
1/2+x,y,1/2+z
3/4-x,1/4-y,1/2+z
1/2+x,1/4-y,3/4-z
3/4-x,y,3/4-z
1/2-x,-y,1/2-z
1/4+x,3/4+y,1/2-z
1/2-x,3/4+y,1/4+z
1/4+x,-y,1/4+z
1/2+x,1/2+y,z
3/4-x,3/4-y,z
1/2+x,3/4-y,1/4-z
3/4-x,1/2+y,1/4-z
1/2-x,1/2-y,-z
1/4+x,1/4+y,-z
1/2-x,1/4+y,3/4+z
1/4+x,1/2-y,3/4+z
loop_
_atom_site_type_symbol
_atom_site_label
_atom_site_fract_x
_atom_site_fract_y
_atom_site_fract_z
Si Si1 0.532719 0.383275 0.433899
Si Si2 0.623147 0.440332 0.008221
Si Si3 0.403085 0.970580 0.197307
Si Si4 0.356787 0.424117 0.589979
Si Si5 0.313736 0.703754 0.993174
O O1 0.576555 0.375000 0.375000
O O2 0.375000 0.375000 0.437204
O O3 0.604187 0.352124 0.474637
O O4 0.563217 0.431327 0.450527
O O5 0.473817 0.447844 0.026705
O O6 0.720018 0.435822 0.059335
O O7 0.654322 0.480415 0.969029
O O8 0.387267 0.958748 0.135646
O O9 0.542567 0.953388 0.217812
O O10 0.375000 0.375000 0.610516
O O11 0.466516 0.427593 0.544581
O O12 0.250000 0.750000 0.000000
#
# Coordination Sequence:
#
# PCOD9516742 Si02
#       5
#    32  32  32  32  32
#     4  11  23  42  69  93 130 177 217 270 332 391
#     4  11  23  48  61  97 137 173 217 273 341 397
#     4  11  27  39  70  96 133 175 217 277 335 396
#     4  12  24  45  70  99 135 180 223 276 340 403
#     4  12  23  44  67 101 130 168 232 275 319 404
#
# _framework density 19.983070000000001
#
# number of rings (size 3 to 8) (size 9 to 14) (size 15 to 20)
#    0.000    0.600    6.000    1.200    5.600    1.600 
#    0.000    2.000    0.000    0.000    0.000    0.000 
#    0.000    0.000    0.000    0.000    0.000    0.000 
#
# Total GULP energy -223409.594605 kJ/mol
# GULP energy per Si atom -5585.239865 kJ/mol
# Density = 1.993759 g / cm^3
# Si number density = 19.983070 Si / 1000 Ang^3
#
#
#
# Elastic Constant Matrix: (Units=GPa)
#
#
# Indices 1 2 3 4 5 6 
#
# 1 114.4755 18.1471 16.0513 0.0000 0.0000 0.0000
# 2 18.1471 96.4502 41.1148 0.0000 0.0000 0.0000
# 3 16.0513 41.1148 116.2761 0.0000 0.0000 0.0000
# 4 0.0000 0.0000 0.0000 34.0423 0.0000 0.0000
# 5 0.0000 0.0000 0.0000 0.0000 53.3482 0.0000
# 6 0.0000 0.0000 0.0000 0.0000 0.0000 20.9995
#
#
#
# Elastic Compliance Matrix: (Units=1/GPa)
#
#
# Indices 1 2 3 4 5 6 
#
# 1 0.009061 -0.001380 -0.000763 0.000000 0.000000 0.000000
# 2 -0.001380 0.012418 -0.004201 0.000000 0.000000 0.000000
# 3 -0.000763 -0.004201 0.010191 0.000000 0.000000 0.000000
# 4 0.000000 0.000000 0.000000 0.029375 0.000000 0.000000
# 5 0.000000 0.000000 0.000000 0.000000 0.018745 0.000000
# 6 0.000000 0.000000 0.000000 0.000000 0.000000 0.047620
#
#
# Mechanical properties :
#
#
# Convention : Reuss Voigt Hill
#
# Bulk Modulus (GPa) = 52.67635 53.09201 52.88418
# Shear Modulus (GPa) = 34.14721 38.47057 36.30889
#
# Velocity S-wave (km/s) = 4.13826 4.39242 4.26723
# Velocity P-wave (km/s) = 7.01793 7.23538 7.12748
#
# Compressibility (1/GPa) = 0.01898385
#
# Stress axis : x y z
#
# Youngs Moduli (GPa) = 110.36090 80.52667 98.12708
#
# Poissons Ratio (x) = 0.11109 0.07487
# Poissons Ratio (y) = 0.15225 0.41219
# Poissons Ratio (z) = 0.08421 0.33826
#
# Static dielectric constant tensor:
#      x y z
#    x 1.679690 0.000000 0.000000 
#    y 0.000000 1.719360 0.000000 
#    z 0.000000 0.000000 1.698710 
# 
# From -- ./inp_files/50287.got.cif
#   From: 2010.05.17/outbox.cif.g08.bks.cpg/sg70_26_cif.got.tgz:50287.got - 2010.06.03 15:57:51.
