data_PCOD9516901
_publ_section_title
;
Structure prediction by ZEFSAII (Michael W. Deem and Ramdas Pophale) SiO2 
 PCOD9516901
Probable space group: F D D D
;
_chemical_formula_sum "Si O2"
_cell_formula_units_Z 136
_cell_length_a 9.140886
_cell_length_b 25.225786
_cell_length_c 23.542202
_cell_angle_alpha 90.000000
_cell_angle_beta 90.000000
_cell_angle_gamma 90.000000
_cell_volume 5428.502993
_symmetry_space_group_name_H-M "F D D D"
_symmetry_group_IT_number 70
_space_group.IT_coordinate_system_code '2'
_symmetry_cell_setting 'orthorhombic'
loop_
_space_group_symop_operation_xyz
x,y,z
1/4-x,1/4-y,z
x,1/4-y,1/4-z
1/4-x,y,1/4-z
-x,-y,-z
3/4+x,3/4+y,-z
-x,3/4+y,3/4+z
3/4+x,-y,3/4+z
x,1/2+y,1/2+z
1/4-x,3/4-y,1/2+z
x,3/4-y,3/4-z
1/4-x,1/2+y,3/4-z
-x,1/2-y,1/2-z
3/4+x,1/4+y,1/2-z
-x,1/4+y,1/4+z
3/4+x,1/2-y,1/4+z
1/2+x,y,1/2+z
3/4-x,1/4-y,1/2+z
1/2+x,1/4-y,3/4-z
3/4-x,y,3/4-z
1/2-x,-y,1/2-z
1/4+x,3/4+y,1/2-z
1/2-x,3/4+y,1/4+z
1/4+x,-y,1/4+z
1/2+x,1/2+y,z
3/4-x,3/4-y,z
1/2+x,3/4-y,1/4-z
3/4-x,1/2+y,1/4-z
1/2-x,1/2-y,-z
1/4+x,1/4+y,-z
1/2-x,1/4+y,3/4+z
1/4+x,1/2-y,3/4+z
loop_
_atom_site_type_symbol
_atom_site_label
_atom_site_fract_x
_atom_site_fract_y
_atom_site_fract_z
Si Si1 0.919299 0.950127 0.141611
Si Si2 0.875000 0.375000 0.875000
Si Si3 0.923883 0.157636 0.281960
Si Si4 0.102252 0.789989 0.213636
Si Si5 0.651240 0.290727 0.824561
O O1 0.754349 0.942758 0.162067
O O2 0.970689 0.919749 0.084924
O O3 0.020933 0.930168 0.192675
O O4 0.931577 0.012726 0.126799
O O5 0.764447 0.337178 0.840644
O O6 0.905455 0.096661 0.263864
O O7 0.954786 0.190294 0.225070
O O8 0.241491 0.755655 0.196968
O O9 0.000000 0.750000 0.250000
#
# Coordination Sequence:
#
# PCOD9516901 Si02
#       5
#    32   8  32  32  32
#     4  11  25  44  67 103 142 183 240 286 361 431
#     4  12  24  40  72 114 136 184 232 308 358 420
#     4  11  27  43  72  99 147 186 230 302 358 434
#     4  12  24  44  70 105 141 184 241 299 357 435
#     4  12  25  44  71 104 139 185 237 297 361 428
#
# _framework density 25.052947
#
# number of rings (size 3 to 8) (size 9 to 14) (size 15 to 20)
#    0.000    0.471    4.706    2.824    9.882    0.000 
#    0.000    0.000    0.000    2.824    0.000    0.000 
#    0.000    0.000    0.000    0.000    0.000    0.000 
#
# Total GULP energy -190302.685642 kJ/mol
# GULP energy per Si atom -5597.137813 kJ/mol
# Density = 2.499592 g / cm^3
# Si number density = 25.052947 Si / 1000 Ang^3
#
#
#
# Elastic Constant Matrix: (Units=GPa)
#
#
# Indices 1 2 3 4 5 6 
#
# 1 71.4992 28.2084 2.8634 0.0000 0.0000 0.0000
# 2 28.2084 170.5017 33.4641 0.0000 0.0000 0.0000
# 3 2.8634 33.4641 49.9031 0.0000 0.0000 0.0000
# 4 0.0000 0.0000 0.0000 40.4876 0.0000 0.0000
# 5 0.0000 0.0000 0.0000 0.0000 43.8919 0.0000
# 6 0.0000 0.0000 0.0000 0.0000 0.0000 35.9859
#
#
#
# Elastic Compliance Matrix: (Units=1/GPa)
#
#
# Indices 1 2 3 4 5 6 
#
# 1 0.015000 -0.002663 0.000925 0.000000 0.000000 0.000000
# 2 -0.002663 0.007227 -0.004693 0.000000 0.000000 0.000000
# 3 0.000925 -0.004693 0.023133 0.000000 0.000000 0.000000
# 4 0.000000 0.000000 0.000000 0.024699 0.000000 0.000000
# 5 0.000000 0.000000 0.000000 0.000000 0.022783 0.000000
# 6 0.000000 0.000000 0.000000 0.000000 0.000000 0.027789
#
#
# Mechanical properties :
#
#
# Convention : Reuss Voigt Hill
#
# Bulk Modulus (GPa) = 30.77208 46.77509 38.77358
# Shear Modulus (GPa) = 34.64392 39.23098 36.93745
#
# Velocity S-wave (km/s) = 3.72267 3.96147 3.84393
# Velocity P-wave (km/s) = 5.54862 6.29566 5.93391
#
# Compressibility (1/GPa) = 0.03249699
#
# Stress axis : x y z
#
# Youngs Moduli (GPa) = 66.66740 138.37358 43.22825
#
# Poissons Ratio (x) = 0.36852 -0.04000
# Poissons Ratio (y) = 0.17755 0.20289
# Poissons Ratio (z) = -0.06168 0.64944
#
# Static dielectric constant tensor:
#      x y z
#    x 1.977430 0.000000 0.000000 
#    y 0.000000 2.021540 0.000000 
#    z 0.000000 0.000000 2.051210 
# 
# From -- ./inp_files/17649.got.cif
#   From: 2010.05.17/outbox.cif.g08.bks.cpg/sg70_9_cif.got.tgz:17649.got - 2010.06.03 15:57:51.
