data_PCOD9516619
_publ_section_title
;
Structure prediction by ZEFSAII (Michael W. Deem and Ramdas Pophale) SiO2 
 PCOD9516619
Probable space group: F D D D
;
_chemical_formula_sum "Si O2"
_cell_formula_units_Z 208
_cell_length_a 25.409533
_cell_length_b 19.031188
_cell_length_c 19.987360
_cell_angle_alpha 90.000000
_cell_angle_beta 90.000000
_cell_angle_gamma 90.000000
_cell_volume 9665.359620
_symmetry_space_group_name_H-M "F D D D"
_symmetry_group_IT_number 70
_space_group.IT_coordinate_system_code '2'
_symmetry_cell_setting 'orthorhombic'
loop_
_space_group_symop_operation_xyz
x,y,z
1/4-x,1/4-y,z
x,1/4-y,1/4-z
1/4-x,y,1/4-z
-x,-y,-z
3/4+x,3/4+y,-z
-x,3/4+y,3/4+z
3/4+x,-y,3/4+z
x,1/2+y,1/2+z
1/4-x,3/4-y,1/2+z
x,3/4-y,3/4-z
1/4-x,1/2+y,3/4-z
-x,1/2-y,1/2-z
3/4+x,1/4+y,1/2-z
-x,1/4+y,1/4+z
3/4+x,1/2-y,1/4+z
1/2+x,y,1/2+z
3/4-x,1/4-y,1/2+z
1/2+x,1/4-y,3/4-z
3/4-x,y,3/4-z
1/2-x,-y,1/2-z
1/4+x,3/4+y,1/2-z
1/2-x,3/4+y,1/4+z
1/4+x,-y,1/4+z
1/2+x,1/2+y,z
3/4-x,3/4-y,z
1/2+x,3/4-y,1/4-z
3/4-x,1/2+y,1/4-z
1/2-x,1/2-y,-z
1/4+x,1/4+y,-z
1/2-x,1/4+y,3/4+z
1/4+x,1/2-y,3/4+z
loop_
_atom_site_type_symbol
_atom_site_label
_atom_site_fract_x
_atom_site_fract_y
_atom_site_fract_z
Si Si1 0.740955 0.984092 0.975131
Si Si2 0.702536 0.261981 0.551301
Si Si3 0.975936 0.875000 0.875000
Si Si4 0.382229 0.957783 0.665808
Si Si5 0.800303 0.164117 0.849593
Si Si6 0.091762 0.812427 0.234251
Si Si7 0.347545 0.210918 0.719109
O O1 0.741126 0.910387 0.934621
O O2 0.692959 0.025304 0.938989
O O3 0.732198 0.965652 0.052832
O O4 0.799278 0.015187 0.983037
O O5 0.750000 0.250000 0.500000
O O6 0.696154 0.191498 0.594529
O O7 0.714802 0.332556 0.592483
O O8 0.649811 0.275713 0.511546
O O9 0.375000 0.875000 0.656644
O O10 0.360820 0.998375 0.599779
O O11 0.348835 0.990173 0.727116
O O12 0.856550 0.172355 0.811427
O O13 0.798167 0.185664 0.926751
O O14 0.089212 0.876901 0.286179
#
# Coordination Sequence:
#
# PCOD9516619 Si02
#       7
#    32  32  16  32  32  32  32
#     4  11  25  42  68 102 139 186 239 296 360 444
#     4  11  22  39  63  99 139 187 234 284 355 435
#     4  12  24  37  66 100 142 190 232 280 365 446
#     4  11  26  46  72  99 141 187 245 309 369 430
#     4   9  19  41  65  93 131 176 230 291 348 426
#     4   9  20  42  69  92 125 184 234 283 358 436
#     4  11  25  42  67 100 143 185 234 293 364 442
#
# _framework density 21.520150999999998
#
# number of rings (size 3 to 8) (size 9 to 14) (size 15 to 20)
#    0.000    1.538    1.538    2.308    6.462    4.923 
#    0.000   10.769    0.000    0.000    0.000    0.000 
#    0.000    0.000    0.000    0.000    0.000    0.000 
#
# Total GULP energy -289982.978252 kJ/mol
# GULP energy per Si atom -5576.595736 kJ/mol
# Density = 2.147117 g / cm^3
# Si number density = 21.520151 Si / 1000 Ang^3
#
#
#
# Elastic Constant Matrix: (Units=GPa)
#
#
# Indices 1 2 3 4 5 6 
#
# 1 75.0752 -0.3276 28.8861 0.0000 0.0000 0.0000
# 2 -0.3276 79.6455 45.9776 0.0000 0.0000 0.0000
# 3 28.8861 45.9776 133.7794 0.0000 0.0000 0.0000
# 4 0.0000 0.0000 0.0000 24.2136 0.0000 0.0000
# 5 0.0000 0.0000 0.0000 0.0000 23.5555 0.0000
# 6 0.0000 0.0000 0.0000 0.0000 0.0000 19.6493
#
#
#
# Elastic Compliance Matrix: (Units=1/GPa)
#
#
# Indices 1 2 3 4 5 6 
#
# 1 0.014883 0.002391 -0.004035 0.000000 0.000000 0.000000
# 2 0.002391 0.016047 -0.006031 0.000000 0.000000 0.000000
# 3 -0.004035 -0.006031 0.010419 0.000000 0.000000 0.000000
# 4 0.000000 0.000000 0.000000 0.041299 0.000000 0.000000
# 5 0.000000 0.000000 0.000000 0.000000 0.042453 0.000000
# 6 0.000000 0.000000 0.000000 0.000000 0.000000 0.050892
#
#
# Mechanical properties :
#
#
# Convention : Reuss Voigt Hill
#
# Bulk Modulus (GPa) = 38.46513 48.61915 43.54214
# Shear Modulus (GPa) = 24.99858 27.74797 26.37327
#
# Velocity S-wave (km/s) = 3.41198 3.59471 3.50453
# Velocity P-wave (km/s) = 5.78229 6.31432 6.05416
#
# Compressibility (1/GPa) = 0.02599758
#
# Stress axis : x y z
#
# Youngs Moduli (GPa) = 67.19076 62.31606 95.97710
#
# Poissons Ratio (x) = -0.14898 0.38729
# Poissons Ratio (y) = -0.16063 0.57887
# Poissons Ratio (z) = 0.27113 0.37585
#
# Static dielectric constant tensor:
#      x y z
#    x 2.031700 0.000000 0.000000 
#    y 0.000000 1.819770 0.000000 
#    z 0.000000 0.000000 1.881670 
# 
# From -- ./inp_files/46934.got.cif
#   From: 2010.05.17/outbox.cif.g08.bks.cpg/sg70_24_cif.got.tgz:46934.got - 2010.06.03 15:57:51.
