data_PCOD9516331
_publ_section_title
;
Structure prediction by ZEFSAII (Michael W. Deem and Ramdas Pophale) SiO2 
 PCOD9516331
Probable space group: F D D D
;
_chemical_formula_sum "Si O2"
_cell_formula_units_Z 104
_cell_length_a 18.381458
_cell_length_b 30.996297
_cell_length_c 9.291549
_cell_angle_alpha 90.000000
_cell_angle_beta 90.000000
_cell_angle_gamma 90.000000
_cell_volume 5293.926305
_symmetry_space_group_name_H-M "F D D D"
_symmetry_group_IT_number 70
_space_group.IT_coordinate_system_code '2'
_symmetry_cell_setting 'orthorhombic'
loop_
_space_group_symop_operation_xyz
x,y,z
1/4-x,1/4-y,z
x,1/4-y,1/4-z
1/4-x,y,1/4-z
-x,-y,-z
3/4+x,3/4+y,-z
-x,3/4+y,3/4+z
3/4+x,-y,3/4+z
x,1/2+y,1/2+z
1/4-x,3/4-y,1/2+z
x,3/4-y,3/4-z
1/4-x,1/2+y,3/4-z
-x,1/2-y,1/2-z
3/4+x,1/4+y,1/2-z
-x,1/4+y,1/4+z
3/4+x,1/2-y,1/4+z
1/2+x,y,1/2+z
3/4-x,1/4-y,1/2+z
1/2+x,1/4-y,3/4-z
3/4-x,y,3/4-z
1/2-x,-y,1/2-z
1/4+x,3/4+y,1/2-z
1/2-x,3/4+y,1/4+z
1/4+x,-y,1/4+z
1/2+x,1/2+y,z
3/4-x,3/4-y,z
1/2+x,3/4-y,1/4-z
3/4-x,1/2+y,1/4-z
1/2-x,1/2-y,-z
1/4+x,1/4+y,-z
1/2-x,1/4+y,3/4+z
1/4+x,1/2-y,3/4+z
loop_
_atom_site_type_symbol
_atom_site_label
_atom_site_fract_x
_atom_site_fract_y
_atom_site_fract_z
Si Si1 0.670441 0.334119 0.770497
Si Si2 0.875000 0.375000 0.375000
Si Si3 0.417639 0.416680 0.152736
Si Si4 0.586394 0.254735 0.274539
O O1 0.625000 0.339512 0.625000
O O2 0.754632 0.329488 0.725142
O O3 0.649085 0.291205 0.857187
O O4 0.661847 0.375000 0.875000
O O5 0.828028 0.404679 0.267405
O O6 0.375000 0.375000 0.211964
O O7 0.370465 0.459215 0.177344
O O8 0.500000 0.250000 0.250000
O O9 0.625000 0.267045 0.125000
#
# Coordination Sequence:
#
# PCOD9516331 Si02
#       4
#    32   8  32  32
#     4  12  28  45  71 104 145 189 240 299 361 426
#     4   8  24  40  78 100 140 180 248 276 356 440
#     4  10  24  45  73  98 145 191 229 292 365 430
#     4  12  25  45  73 106 139 185 243 295 356 433
#
# _framework density 19.645154999999999
#
# number of rings (size 3 to 8) (size 9 to 14) (size 15 to 20)
#    0.923    0.000    3.077    2.769    4.308    3.692 
#    0.000    0.000    0.000    0.000    0.000    0.000 
#    0.000    0.000    0.000    0.000    0.000    0.000 
#
# Total GULP energy -145298.627427 kJ/mol
# GULP energy per Si atom -5588.408747 kJ/mol
# Density = 1.960044 g / cm^3
# Si number density = 19.645155 Si / 1000 Ang^3
#
#
#
# Elastic Constant Matrix: (Units=GPa)
#
#
# Indices 1 2 3 4 5 6 
#
# 1 133.5438 78.4891 67.7549 0.0000 0.0000 0.0000
# 2 78.4891 196.8662 89.5750 0.0000 0.0000 0.0000
# 3 67.7549 89.5750 175.0140 0.0000 -0.0001 0.0000
# 4 0.0000 0.0000 0.0000 23.5781 0.0000 0.0000
# 5 0.0000 0.0000 -0.0001 0.0000 31.6188 0.0000
# 6 0.0000 0.0000 0.0000 0.0000 0.0000 29.1488
#
#
#
# Elastic Compliance Matrix: (Units=1/GPa)
#
#
# Indices 1 2 3 4 5 6 
#
# 1 0.010570 -0.003066 -0.002523 0.000000 0.000000 0.000000
# 2 -0.003066 0.007511 -0.002657 0.000000 0.000000 0.000000
# 3 -0.002523 -0.002657 0.008050 0.000000 0.000000 0.000000
# 4 0.000000 0.000000 0.000000 0.042412 0.000000 0.000000
# 5 0.000000 0.000000 0.000000 0.000000 0.031627 0.000000
# 6 0.000000 0.000000 0.000000 0.000000 0.000000 0.034307
#
#
# Mechanical properties :
#
#
# Convention : Reuss Voigt Hill
#
# Bulk Modulus (GPa) = 103.74262 108.56244 106.15253
# Shear Modulus (GPa) = 32.42883 34.84281 33.63582
#
# Velocity S-wave (km/s) = 4.06732 4.21599 4.14233
# Velocity P-wave (km/s) = 8.65912 8.89276 8.77672
#
# Compressibility (1/GPa) = 0.00963924
#
# Stress axis : x y z
#
# Youngs Moduli (GPa) = 94.60356 133.13425 124.21608
#
# Poissons Ratio (x) = 0.40825 0.31337
# Poissons Ratio (y) = 0.29010 0.33007
# Poissons Ratio (z) = 0.23866 0.35376
#
# Static dielectric constant tensor:
#      x y z
#    x 1.656810 0.000000 0.000000 
#    y 0.000000 1.665220 0.000000 
#    z 0.000000 0.000000 1.711020 
# 
# From -- ./inp_files/8196.got.cif
#   From: 2010.05.17/outbox.cif.g08.bks.cpg/sg70_5_cif.got.tgz:8196.got - 2010.06.03 15:57:51.
