data_PCOD9516106
_publ_section_title
;
Structure prediction by ZEFSAII (Michael W. Deem and Ramdas Pophale) SiO2 
 PCOD9516106
Probable space group: F D D D
;
_chemical_formula_sum "Si O2"
_cell_formula_units_Z 144
_cell_length_a 20.943674
_cell_length_b 21.345217
_cell_length_c 16.756394
_cell_angle_alpha 90.000000
_cell_angle_beta 90.000000
_cell_angle_gamma 90.000000
_cell_volume 7490.900131
_symmetry_space_group_name_H-M "F D D D"
_symmetry_group_IT_number 70
_space_group.IT_coordinate_system_code '2'
_symmetry_cell_setting 'orthorhombic'
loop_
_space_group_symop_operation_xyz
x,y,z
1/4-x,1/4-y,z
x,1/4-y,1/4-z
1/4-x,y,1/4-z
-x,-y,-z
3/4+x,3/4+y,-z
-x,3/4+y,3/4+z
3/4+x,-y,3/4+z
x,1/2+y,1/2+z
1/4-x,3/4-y,1/2+z
x,3/4-y,3/4-z
1/4-x,1/2+y,3/4-z
-x,1/2-y,1/2-z
3/4+x,1/4+y,1/2-z
-x,1/4+y,1/4+z
3/4+x,1/2-y,1/4+z
1/2+x,y,1/2+z
3/4-x,1/4-y,1/2+z
1/2+x,1/4-y,3/4-z
3/4-x,y,3/4-z
1/2-x,-y,1/2-z
1/4+x,3/4+y,1/2-z
1/2-x,3/4+y,1/4+z
1/4+x,-y,1/4+z
1/2+x,1/2+y,z
3/4-x,3/4-y,z
1/2+x,3/4-y,1/4-z
3/4-x,1/2+y,1/4-z
1/2-x,1/2-y,-z
1/4+x,1/4+y,-z
1/2-x,1/4+y,3/4+z
1/4+x,1/2-y,3/4+z
loop_
_atom_site_type_symbol
_atom_site_label
_atom_site_fract_x
_atom_site_fract_y
_atom_site_fract_z
Si Si1 0.010309 0.761795 0.342828
Si Si2 0.875000 0.247357 0.375000
Si Si3 0.375000 0.031965 0.875000
Si Si4 0.568111 0.891678 0.520337
Si Si5 0.067113 0.078638 0.271645
Si Si6 0.149994 0.875000 0.875000
O O1 0.046831 0.712965 0.401412
O O2 0.052178 0.823150 0.343953
O O3 0.000000 0.750000 0.250000
O O4 0.937339 0.760991 0.372318
O O5 0.825655 0.199791 0.419077
O O6 0.839836 0.288279 0.306096
O O7 0.357335 0.081736 0.944839
O O8 0.496189 0.869801 0.504546
O O9 0.604545 0.907337 0.439521
O O10 0.125000 0.125000 0.291400
#
# Coordination Sequence:
#
# PCOD9516106 Si02
#       6
#    32  16  16  32  32  16
#     4  11  23  44  65  96 133 171 233 276 349 420
#     4  11  23  46  67 101 138 185 237 286 352 426
#     4   9  20  43  61  89 131 172 215 286 328 400
#     4  10  23  41  68  94 136 180 221 284 348 405
#     4  11  26  44  68 102 137 180 233 294 346 423
#     4  12  22  41  69  98 126 188 216 278 356 406
#
# _framework density 19.223324000000002
#
# number of rings (size 3 to 8) (size 9 to 14) (size 15 to 20)
#    0.000    1.333    4.444    0.333    3.111    3.111 
#    4.000    0.000    0.000    0.000    0.000    0.000 
#    0.000    0.000    0.000    0.000    0.000    0.000 
#
# Total GULP energy -200535.439986 kJ/mol
# GULP energy per Si atom -5570.428888 kJ/mol
# Density = 1.917957 g / cm^3
# Si number density = 19.223324 Si / 1000 Ang^3
#
#
#
# Elastic Constant Matrix: (Units=GPa)
#
#
# Indices 1 2 3 4 5 6 
#
# 1 161.4803 74.1210 60.9655 0.0000 0.0000 0.0000
# 2 74.1210 77.1478 51.1990 0.0000 0.0000 0.0000
# 3 60.9655 51.1990 122.5276 0.0000 0.0000 0.0000
# 4 0.0000 0.0000 0.0000 17.8652 0.0000 0.0000
# 5 0.0000 0.0000 0.0000 0.0000 33.9074 0.0000
# 6 0.0000 0.0000 0.0000 0.0000 0.0000 39.6119
#
#
#
# Elastic Compliance Matrix: (Units=1/GPa)
#
#
# Indices 1 2 3 4 5 6 
#
# 1 0.011274 -0.009837 -0.001499 0.000000 0.000000 0.000000
# 2 -0.009837 0.026518 -0.006187 0.000000 0.000000 0.000000
# 3 -0.001499 -0.006187 0.011492 0.000000 0.000000 0.000000
# 4 0.000000 0.000000 0.000000 0.055975 0.000000 0.000000
# 5 0.000000 0.000000 0.000000 0.000000 0.029492 0.000000
# 6 0.000000 0.000000 0.000000 0.000000 0.000000 0.025245
#
#
# Mechanical properties :
#
#
# Convention : Reuss Voigt Hill
#
# Bulk Modulus (GPa) = 70.22427 81.52518 75.87473
# Shear Modulus (GPa) = 25.02655 29.93491 27.48073
#
# Velocity S-wave (km/s) = 3.61208 3.95044 3.78504
# Velocity P-wave (km/s) = 7.34889 7.95673 7.65884
#
# Compressibility (1/GPa) = 0.01424009
#
# Stress axis : x y z
#
# Youngs Moduli (GPa) = 88.70157 37.70962 87.01351
#
# Poissons Ratio (x) = 0.37093 0.13045
# Poissons Ratio (y) = 0.87251 0.53832
# Poissons Ratio (z) = 0.13298 0.23329
#
# Static dielectric constant tensor:
#      x y z
#    x 1.555810 0.000000 0.000000 
#    y 0.000000 1.639390 0.000000 
#    z 0.000000 0.000000 1.876840 
# 
# From -- ./inp_files/34947.got.cif
#   From: 2010.05.17/outbox.cif.g08.bks.cpg/sg70_18_cif.got.tgz:34947.got - 2010.06.03 15:57:51.
