data_PCOD9516567
_publ_section_title
;
Structure prediction by ZEFSAII (Michael W. Deem and Ramdas Pophale) SiO2 
 PCOD9516567
Probable space group: F D D D
;
_chemical_formula_sum "Si O2"
_cell_formula_units_Z 208
_cell_length_a 16.215797
_cell_length_b 23.448474
_cell_length_c 25.777562
_cell_angle_alpha 90.000000
_cell_angle_beta 90.000000
_cell_angle_gamma 90.000000
_cell_volume 9801.549186
_symmetry_space_group_name_H-M "F D D D"
_symmetry_group_IT_number 70
_space_group.IT_coordinate_system_code '2'
_symmetry_cell_setting 'orthorhombic'
loop_
_space_group_symop_operation_xyz
x,y,z
1/4-x,1/4-y,z
x,1/4-y,1/4-z
1/4-x,y,1/4-z
-x,-y,-z
3/4+x,3/4+y,-z
-x,3/4+y,3/4+z
3/4+x,-y,3/4+z
x,1/2+y,1/2+z
1/4-x,3/4-y,1/2+z
x,3/4-y,3/4-z
1/4-x,1/2+y,3/4-z
-x,1/2-y,1/2-z
3/4+x,1/4+y,1/2-z
-x,1/4+y,1/4+z
3/4+x,1/2-y,1/4+z
1/2+x,y,1/2+z
3/4-x,1/4-y,1/2+z
1/2+x,1/4-y,3/4-z
3/4-x,y,3/4-z
1/2-x,-y,1/2-z
1/4+x,3/4+y,1/2-z
1/2-x,3/4+y,1/4+z
1/4+x,-y,1/4+z
1/2+x,1/2+y,z
3/4-x,3/4-y,z
1/2+x,3/4-y,1/4-z
3/4-x,1/2+y,1/4-z
1/2-x,1/2-y,-z
1/4+x,1/4+y,-z
1/2-x,1/4+y,3/4+z
1/4+x,1/2-y,3/4+z
loop_
_atom_site_type_symbol
_atom_site_label
_atom_site_fract_x
_atom_site_fract_y
_atom_site_fract_z
Si Si1 0.057974 0.364035 0.584338
Si Si2 0.771321 0.004929 0.093149
Si Si3 0.436374 0.114566 0.716140
Si Si4 0.053789 0.703988 0.876434
Si Si5 0.292755 0.779950 0.450168
Si Si6 0.977593 0.005366 0.778509
Si Si7 0.945964 0.625000 0.125000
O O1 0.125000 0.385613 0.625000
O O2 0.086319 0.377123 0.525978
O O3 0.043355 0.296933 0.593416
O O4 0.972573 0.397360 0.595330
O O5 0.854457 0.976746 0.116999
O O6 0.755436 0.065071 0.121538
O O7 0.782553 0.018839 0.032126
O O8 0.514286 0.154718 0.702741
O O9 0.463740 0.049464 0.716065
O O10 0.364613 0.124206 0.674828
O O11 0.997076 0.752686 0.850637
O O12 0.022949 0.698360 0.935485
O O13 0.250000 0.750000 0.500000
O O14 0.388105 0.764925 0.452505
#
# Coordination Sequence:
#
# PCOD9516567 Si02
#       7
#    32  32  32  32  32  32  16
#     4  11  25  41  65  93 128 169 219 270 324 382
#     4  11  24  43  64  90 131 169 214 271 328 384
#     4  11  21  38  61  88 128 167 211 254 322 389
#     4  12  22  37  63  95 130 168 212 256 317 395
#     4  12  19  32  54  93 131 169 201 247 310 381
#     4  11  22  36  59  91 131 169 208 252 319 393
#     4  12  22  42  66  92 124 170 212 268 322 384
#
# _framework density 21.221135
#
# number of rings (size 3 to 8) (size 9 to 14) (size 15 to 20)
#    0.000    0.615    6.154    2.308    2.154    2.462 
#    0.000    3.462    0.000    0.000    0.000    0.000 
#    0.000    0.000    0.000    0.000    0.000    0.000 
#
# Total GULP energy -290603.211949 kJ/mol
# GULP energy per Si atom -5588.523307 kJ/mol
# Density = 2.117283 g / cm^3
# Si number density = 21.221135 Si / 1000 Ang^3
#
#
#
# Elastic Constant Matrix: (Units=GPa)
#
#
# Indices 1 2 3 4 5 6 
#
# 1 26.5703 -7.1717 32.1487 0.0000 0.0000 0.0000
# 2 -7.1717 103.1148 21.6988 0.0000 0.0000 0.0000
# 3 32.1487 21.6988 89.3302 0.0000 0.0000 0.0000
# 4 0.0000 0.0000 0.0000 33.2183 0.0000 0.0000
# 5 0.0000 0.0000 0.0000 0.0000 24.1301 0.0000
# 6 0.0000 0.0000 0.0000 0.0000 0.0000 20.5178
#
#
#
# Elastic Compliance Matrix: (Units=1/GPa)
#
#
# Indices 1 2 3 4 5 6 
#
# 1 0.078698 0.012049 -0.031249 0.000000 0.000000 0.000000
# 2 0.012049 0.012065 -0.007267 0.000000 0.000000 0.000000
# 3 -0.031249 -0.007267 0.024206 0.000000 0.000000 0.000000
# 4 0.000000 0.000000 0.000000 0.030104 0.000000 0.000000
# 5 0.000000 0.000000 0.000000 0.000000 0.041442 0.000000
# 6 0.000000 0.000000 0.000000 0.000000 0.000000 0.048738
#
#
# Mechanical properties :
#
#
# Convention : Reuss Voigt Hill
#
# Bulk Modulus (GPa) = 16.11985 34.70742 25.41364
# Shear Modulus (GPa) = 16.18826 27.06253 21.62539
#
# Velocity S-wave (km/s) = 2.76495 3.57496 3.19572
# Velocity P-wave (km/s) = 4.21970 5.78196 5.06147
#
# Compressibility (1/GPa) = 0.06203532
#
# Stress axis : x y z
#
# Youngs Moduli (GPa) = 12.70677 82.88281 41.31238
#
# Poissons Ratio (x) = -0.99869 1.29098
# Poissons Ratio (y) = -0.15311 0.30022
# Poissons Ratio (z) = 0.39708 0.60232
#
# Static dielectric constant tensor:
#      x y z
#    x 1.732600 0.000000 0.000000 
#    y 0.000000 1.816780 0.000000 
#    z 0.000000 0.000000 1.818690 
# 
# From -- ./inp_files/59720.got.cif
#   From: 2010.05.17/outbox.cif.g08.bks.cpg/sg70_30_cif.got.tgz:59720.got - 2010.06.03 15:57:51.
