data_PCOD9516026
_publ_section_title
;
Structure prediction by ZEFSAII (Michael W. Deem and Ramdas Pophale) SiO2 
 PCOD9516026
Probable space group: F D D D
;
_chemical_formula_sum "Si O2"
_cell_formula_units_Z 160
_cell_length_a 11.881211
_cell_length_b 29.907132
_cell_length_c 19.432314
_cell_angle_alpha 90.000000
_cell_angle_beta 90.000000
_cell_angle_gamma 90.000000
_cell_volume 6904.941375
_symmetry_space_group_name_H-M "F D D D"
_symmetry_group_IT_number 70
_space_group.IT_coordinate_system_code '2'
_symmetry_cell_setting 'orthorhombic'
loop_
_space_group_symop_operation_xyz
x,y,z
1/4-x,1/4-y,z
x,1/4-y,1/4-z
1/4-x,y,1/4-z
-x,-y,-z
3/4+x,3/4+y,-z
-x,3/4+y,3/4+z
3/4+x,-y,3/4+z
x,1/2+y,1/2+z
1/4-x,3/4-y,1/2+z
x,3/4-y,3/4-z
1/4-x,1/2+y,3/4-z
-x,1/2-y,1/2-z
3/4+x,1/4+y,1/2-z
-x,1/4+y,1/4+z
3/4+x,1/2-y,1/4+z
1/2+x,y,1/2+z
3/4-x,1/4-y,1/2+z
1/2+x,1/4-y,3/4-z
3/4-x,y,3/4-z
1/2-x,-y,1/2-z
1/4+x,3/4+y,1/2-z
1/2-x,3/4+y,1/4+z
1/4+x,-y,1/4+z
1/2+x,1/2+y,z
3/4-x,3/4-y,z
1/2+x,3/4-y,1/4-z
3/4-x,1/2+y,1/4-z
1/2-x,1/2-y,-z
1/4+x,1/4+y,-z
1/2-x,1/4+y,3/4+z
1/4+x,1/2-y,3/4+z
loop_
_atom_site_type_symbol
_atom_site_label
_atom_site_fract_x
_atom_site_fract_y
_atom_site_fract_z
Si Si1 0.903626 0.690631 0.754919
Si Si2 0.497693 0.723244 0.866618
Si Si3 0.650220 0.208399 0.733903
Si Si4 0.880292 0.556330 0.656143
Si Si5 0.504167 0.388631 0.518834
O O1 0.886507 0.740567 0.784468
O O2 0.864696 0.690212 0.675259
O O3 0.828530 0.653781 0.791463
O O4 0.036389 0.681334 0.748684
O O5 0.375000 0.745318 0.875000
O O6 0.538103 0.711891 0.943022
O O7 0.583492 0.756572 0.828682
O O8 0.487393 0.678163 0.823802
O O9 0.739599 0.190663 0.678857
O O10 0.809170 0.591384 0.699626
O O11 0.375000 0.375000 0.509343
#
# Coordination Sequence:
#
# PCOD9516026 Si02
#       5
#    32  32  32  32  32
#     4  10  24  42  70  99 134 177 229 283 341 416
#     4  11  24  42  69  98 136 185 226 283 351 422
#     4  10  22  46  68  96 134 184 225 274 351 424
#     4  11  23  42  70  96 132 180 229 282 344 420
#     4  12  26  41  64 103 136 175 233 295 344 403
#
# _framework density 23.171811000000002
#
# number of rings (size 3 to 8) (size 9 to 14) (size 15 to 20)
#    0.000    1.200    2.000    3.000    5.600    3.200 
#    0.000    6.000    0.000    0.000    0.000    0.000 
#    0.000    0.000    0.000    0.000    0.000    0.000 
#
# Total GULP energy -223984.773675 kJ/mol
# GULP energy per Si atom -5599.619342 kJ/mol
# Density = 2.311907 g / cm^3
# Si number density = 23.171811 Si / 1000 Ang^3
#
#
#
# Elastic Constant Matrix: (Units=GPa)
#
#
# Indices 1 2 3 4 5 6 
#
# 1 143.0669 38.4412 -5.1929 0.0000 0.0000 0.0000
# 2 38.4412 66.3071 -6.8513 0.0000 0.0000 0.0000
# 3 -5.1929 -6.8513 33.6037 0.0000 0.0000 0.0000
# 4 0.0000 0.0000 0.0000 25.3958 0.0000 0.0000
# 5 0.0000 0.0000 0.0000 0.0000 19.4435 0.0000
# 6 0.0000 0.0000 0.0000 0.0000 0.0000 20.1052
#
#
#
# Elastic Compliance Matrix: (Units=1/GPa)
#
#
# Indices 1 2 3 4 5 6 
#
# 1 0.008283 -0.004770 0.000307 0.000000 0.000000 0.000000
# 2 -0.004770 0.018153 0.002964 0.000000 0.000000 0.000000
# 3 0.000307 0.002964 0.030410 0.000000 0.000000 0.000000
# 4 0.000000 0.000000 0.000000 0.039377 0.000000 0.000000
# 5 0.000000 0.000000 0.000000 0.000000 0.051431 0.000000
# 6 0.000000 0.000000 0.000000 0.000000 0.000000 0.049738
#
#
# Mechanical properties :
#
#
# Convention : Reuss Voigt Hill
#
# Bulk Modulus (GPa) = 18.57051 32.86350 25.71700
# Shear Modulus (GPa) = 22.90019 27.42762 25.16390
#
# Velocity S-wave (km/s) = 3.14710 3.44417 3.29898
# Velocity P-wave (km/s) = 4.60840 5.47994 5.06296
#
# Compressibility (1/GPa) = 0.05384883
#
# Stress axis : x y z
#
# Youngs Moduli (GPa) = 120.73551 55.08730 32.88342
#
# Poissons Ratio (x) = 0.26277 -0.01011
# Poissons Ratio (y) = 0.57591 -0.09747
# Poissons Ratio (z) = -0.03712 -0.16328
#
# Static dielectric constant tensor:
#      x y z
#    x 1.872990 0.000000 0.000000 
#    y 0.000000 1.904340 0.000000 
#    z 0.000000 0.000000 1.856910 
# 
# From -- ./inp_files/19497.got.cif
#   From: 2010.05.17/outbox.cif.g08.bks.cpg/sg70_10_cif.got.tgz:19497.got - 2010.06.03 15:57:51.
