data_PCOD9516116
_publ_section_title
;
Structure prediction by ZEFSAII (Michael W. Deem and Ramdas Pophale) SiO2 
 PCOD9516116
Probable space group: F D D D
;
_chemical_formula_sum "Si O2"
_cell_formula_units_Z 208
_cell_length_a 15.792378
_cell_length_b 29.011514
_cell_length_c 19.810712
_cell_angle_alpha 90.000000
_cell_angle_beta 90.000000
_cell_angle_gamma 90.000000
_cell_volume 9076.491568
_symmetry_space_group_name_H-M "F D D D"
_symmetry_group_IT_number 70
_space_group.IT_coordinate_system_code '2'
_symmetry_cell_setting 'orthorhombic'
loop_
_space_group_symop_operation_xyz
x,y,z
1/4-x,1/4-y,z
x,1/4-y,1/4-z
1/4-x,y,1/4-z
-x,-y,-z
3/4+x,3/4+y,-z
-x,3/4+y,3/4+z
3/4+x,-y,3/4+z
x,1/2+y,1/2+z
1/4-x,3/4-y,1/2+z
x,3/4-y,3/4-z
1/4-x,1/2+y,3/4-z
-x,1/2-y,1/2-z
3/4+x,1/4+y,1/2-z
-x,1/4+y,1/4+z
3/4+x,1/2-y,1/4+z
1/2+x,y,1/2+z
3/4-x,1/4-y,1/2+z
1/2+x,1/4-y,3/4-z
3/4-x,y,3/4-z
1/2-x,-y,1/2-z
1/4+x,3/4+y,1/2-z
1/2-x,3/4+y,1/4+z
1/4+x,-y,1/4+z
1/2+x,1/2+y,z
3/4-x,3/4-y,z
1/2+x,3/4-y,1/4-z
3/4-x,1/2+y,1/4-z
1/2-x,1/2-y,-z
1/4+x,1/4+y,-z
1/2-x,1/4+y,3/4+z
1/4+x,1/2-y,3/4+z
loop_
_atom_site_type_symbol
_atom_site_label
_atom_site_fract_x
_atom_site_fract_y
_atom_site_fract_z
Si Si1 0.006314 0.052934 0.020286
Si Si2 0.533396 0.375000 0.875000
Si Si3 0.803920 0.806018 0.771867
Si Si4 0.696542 0.371894 0.020412
Si Si5 0.223314 0.538815 0.197070
Si Si6 0.021834 0.535297 0.210910
Si Si7 0.008738 0.880460 0.668838
O O1 0.944948 0.081459 0.071929
O O2 0.101252 0.054243 0.048939
O O3 0.005243 0.080454 0.950159
O O4 0.000000 0.000000 0.000000
O O5 0.492116 0.407763 0.819659
O O6 0.756442 0.758136 0.757039
O O7 0.802894 0.832118 0.700414
O O8 0.749229 0.368138 0.089336
O O9 0.603435 0.360014 0.050669
O O10 0.724165 0.334506 0.965500
O O11 0.719549 0.421406 0.989378
O O12 0.250000 0.500000 0.250000
O O13 0.122744 0.545729 0.210041
O O14 0.242816 0.526046 0.119231
#
# Coordination Sequence:
#
# PCOD9516116 Si02
#       7
#    32  16  32  32  32  32  32
#     4  11  23  41  65  98 131 173 226 277 341 418
#     4  10  23  44  68  90 136 182 211 284 349 406
#     4  11  22  43  65  93 132 172 222 272 346 411
#     4  11  23  43  65  93 136 173 223 282 343 403
#     4  11  24  45  67  94 136 180 227 283 350 410
#     4  11  25  42  67 101 132 175 229 291 341 415
#     4  10  23  42  63  95 132 176 218 282 340 404
#
# _framework density 22.916343000000001
#
# number of rings (size 3 to 8) (size 9 to 14) (size 15 to 20)
#    0.000    1.231    0.000    6.462    2.154    7.385 
#   22.154    0.000    0.000    0.000    0.000    0.000 
#    0.000    0.000    0.000    0.000    0.000    0.000 
#
# Total GULP energy -289760.370997 kJ/mol
# GULP energy per Si atom -5572.314827 kJ/mol
# Density = 2.286418 g / cm^3
# Si number density = 22.916343 Si / 1000 Ang^3
#
#
#
# Elastic Constant Matrix: (Units=GPa)
#
#
# Indices 1 2 3 4 5 6 
#
# 1 68.0665 10.2044 22.4881 0.0000 0.0000 0.0000
# 2 10.2044 134.7374 5.5254 0.0000 0.0000 0.0000
# 3 22.4881 5.5254 104.6987 0.0000 0.0000 0.0000
# 4 0.0000 0.0000 0.0000 22.9464 0.0000 0.0000
# 5 0.0000 0.0000 0.0000 0.0000 22.0122 0.0000
# 6 0.0000 0.0000 0.0000 0.0000 0.0000 19.3363
#
#
#
# Elastic Compliance Matrix: (Units=1/GPa)
#
#
# Indices 1 2 3 4 5 6 
#
# 1 0.015966 -0.001071 -0.003373 0.000000 0.000000 0.000000
# 2 -0.001071 0.007510 -0.000166 0.000000 0.000000 0.000000
# 3 -0.003373 -0.000166 0.010284 0.000000 0.000000 0.000000
# 4 0.000000 0.000000 0.000000 0.043580 0.000000 0.000000
# 5 0.000000 0.000000 0.000000 0.000000 0.045429 0.000000
# 6 0.000000 0.000000 0.000000 0.000000 0.000000 0.051716
#
#
# Mechanical properties :
#
#
# Convention : Reuss Voigt Hill
#
# Bulk Modulus (GPa) = 40.74911 42.65986 41.70449
# Shear Modulus (GPa) = 26.05712 30.81131 28.43421
#
# Velocity S-wave (km/s) = 3.37568 3.67074 3.52630
# Velocity P-wave (km/s) = 5.74577 6.05158 5.90066
#
# Compressibility (1/GPa) = 0.02454041
#
# Stress axis : x y z
#
# Youngs Moduli (GPa) = 62.63149 133.15991 97.23417
#
# Poissons Ratio (x) = 0.14260 0.32796
# Poissons Ratio (y) = 0.06707 0.01617
# Poissons Ratio (z) = 0.21125 0.02215
#
# Static dielectric constant tensor:
#      x y z
#    x 1.990790 0.000000 0.000000 
#    y 0.000000 1.986070 0.000000 
#    z 0.000000 0.000000 1.862550 
# 
# From -- ./inp_files/43953.got.cif
#   From: 2010.05.17/outbox.cif.g08.bks.cpg/sg70_22_cif.got.tgz:43953.got - 2010.06.03 15:57:51.
