data_PCOD9516746
_publ_section_title
;
Structure prediction by ZEFSAII (Michael W. Deem and Ramdas Pophale) SiO2 
 PCOD9516746
Probable space group: F D D D
;
_chemical_formula_sum "Si O2"
_cell_formula_units_Z 104
_cell_length_a 29.855845
_cell_length_b 20.306955
_cell_length_c 7.402700
_cell_angle_alpha 90.000000
_cell_angle_beta 90.000000
_cell_angle_gamma 90.000000
_cell_volume 4488.118586
_symmetry_space_group_name_H-M "F D D D"
_symmetry_group_IT_number 70
_space_group.IT_coordinate_system_code '2'
_symmetry_cell_setting 'orthorhombic'
loop_
_space_group_symop_operation_xyz
x,y,z
1/4-x,1/4-y,z
x,1/4-y,1/4-z
1/4-x,y,1/4-z
-x,-y,-z
3/4+x,3/4+y,-z
-x,3/4+y,3/4+z
3/4+x,-y,3/4+z
x,1/2+y,1/2+z
1/4-x,3/4-y,1/2+z
x,3/4-y,3/4-z
1/4-x,1/2+y,3/4-z
-x,1/2-y,1/2-z
3/4+x,1/4+y,1/2-z
-x,1/4+y,1/4+z
3/4+x,1/2-y,1/4+z
1/2+x,y,1/2+z
3/4-x,1/4-y,1/2+z
1/2+x,1/4-y,3/4-z
3/4-x,y,3/4-z
1/2-x,-y,1/2-z
1/4+x,3/4+y,1/2-z
1/2-x,3/4+y,1/4+z
1/4+x,-y,1/4+z
1/2+x,1/2+y,z
3/4-x,3/4-y,z
1/2+x,3/4-y,1/4-z
3/4-x,1/2+y,1/4-z
1/2-x,1/2-y,-z
1/4+x,1/4+y,-z
1/2-x,1/4+y,3/4+z
1/4+x,1/2-y,3/4+z
loop_
_atom_site_type_symbol
_atom_site_label
_atom_site_fract_x
_atom_site_fract_y
_atom_site_fract_z
Si Si1 0.295446 0.194783 0.581544
Si Si2 0.450595 0.276084 0.501837
Si Si3 0.428337 0.450100 0.864760
Si Si4 0.625000 0.625000 0.625000
O O1 0.317540 0.125000 0.625000
O O2 0.245287 0.191990 0.665946
O O3 0.301879 0.210928 0.371114
O O4 0.312689 0.260108 0.682594
O O5 0.449997 0.262846 0.714568
O O6 0.408817 0.326260 0.479180
O O7 0.445560 0.375000 0.875000
O O8 0.375000 0.447823 0.875000
#
# Coordination Sequence:
#
# PCOD9516746 Si02
#       4
#    32  32  32   8
#     4  11  25  44  65 104 143 179 231 290 367 416
#     4  11  23  42  71  99 137 181 230 294 342 427
#     4  11  24  44  72 102 134 186 243 286 346 433
#     4  12  20  44  78  96 128 190 238 276 342 420
#
# _framework density 23.172291999999999
#
# number of rings (size 3 to 8) (size 9 to 14) (size 15 to 20)
#    0.000    0.923    1.538    6.462    4.308    1.231 
#    8.308    0.000    0.000    0.000    0.000    0.000 
#    0.000    0.000    0.000    0.000    0.000    0.000 
#
# Total GULP energy -145180.073900 kJ/mol
# GULP energy per Si atom -5583.848996 kJ/mol
# Density = 2.311955 g / cm^3
# Si number density = 23.172292 Si / 1000 Ang^3
#
#
#
# Elastic Constant Matrix: (Units=GPa)
#
#
# Indices 1 2 3 4 5 6 
#
# 1 92.3363 -2.5528 -4.0489 0.0000 0.0000 0.0000
# 2 -2.5528 99.5831 18.8533 0.0000 0.0000 0.0000
# 3 -4.0489 18.8533 134.8668 0.0000 0.0000 0.0000
# 4 0.0000 0.0000 0.0000 8.7035 0.0000 0.0000
# 5 0.0000 0.0000 0.0000 0.0000 29.8247 0.0000
# 6 0.0000 0.0000 0.0000 0.0000 0.0000 14.0126
#
#
#
# Elastic Compliance Matrix: (Units=1/GPa)
#
#
# Indices 1 2 3 4 5 6 
#
# 1 0.010849 0.000222 0.000295 0.000000 0.000000 0.000000
# 2 0.000222 0.010319 -0.001436 0.000000 0.000000 0.000000
# 3 0.000295 -0.001436 0.007624 0.000000 0.000000 0.000000
# 4 0.000000 0.000000 0.000000 0.114896 0.000000 0.000000
# 5 0.000000 0.000000 0.000000 0.000000 0.033529 0.000000
# 6 0.000000 0.000000 0.000000 0.000000 0.000000 0.071364
#
#
# Mechanical properties :
#
#
# Convention : Reuss Voigt Hill
#
# Bulk Modulus (GPa) = 37.09903 39.03215 38.06559
# Shear Modulus (GPa) = 19.27488 31.47714 25.37601
#
# Velocity S-wave (km/s) = 2.88724 3.68964 3.31282
# Velocity P-wave (km/s) = 5.21149 5.91880 5.57637
#
# Compressibility (1/GPa) = 0.02695488
#
# Stress axis : x y z
#
# Youngs Moduli (GPa) = 92.17406 96.90472 131.15960
#
# Poissons Ratio (x) = -0.02155 -0.03864
# Poissons Ratio (y) = -0.02049 0.18833
# Poissons Ratio (z) = -0.02716 0.13915
#
# Static dielectric constant tensor:
#      x y z
#    x 1.917160 0.000000 0.000000 
#    y 0.000000 1.940780 0.000000 
#    z 0.000000 0.000000 1.892180 
# 
# From -- ./inp_files/11701.got.cif
#   From: 2010.05.17/outbox.cif.g08.bks.cpg/sg70_6_cif.got.tgz:11701.got - 2010.06.03 15:57:51.
