data_PCOD9516118
_publ_section_title
;
Structure prediction by ZEFSAII (Michael W. Deem and Ramdas Pophale) SiO2 
 PCOD9516118
Probable space group: F D D D
;
_chemical_formula_sum "Si O2"
_cell_formula_units_Z 192
_cell_length_a 28.653653
_cell_length_b 17.031206
_cell_length_c 18.269737
_cell_angle_alpha 90.000000
_cell_angle_beta 90.000000
_cell_angle_gamma 90.000000
_cell_volume 8915.746151
_symmetry_space_group_name_H-M "F D D D"
_symmetry_group_IT_number 70
_space_group.IT_coordinate_system_code '2'
_symmetry_cell_setting 'orthorhombic'
loop_
_space_group_symop_operation_xyz
x,y,z
1/4-x,1/4-y,z
x,1/4-y,1/4-z
1/4-x,y,1/4-z
-x,-y,-z
3/4+x,3/4+y,-z
-x,3/4+y,3/4+z
3/4+x,-y,3/4+z
x,1/2+y,1/2+z
1/4-x,3/4-y,1/2+z
x,3/4-y,3/4-z
1/4-x,1/2+y,3/4-z
-x,1/2-y,1/2-z
3/4+x,1/4+y,1/2-z
-x,1/4+y,1/4+z
3/4+x,1/2-y,1/4+z
1/2+x,y,1/2+z
3/4-x,1/4-y,1/2+z
1/2+x,1/4-y,3/4-z
3/4-x,y,3/4-z
1/2-x,-y,1/2-z
1/4+x,3/4+y,1/2-z
1/2-x,3/4+y,1/4+z
1/4+x,-y,1/4+z
1/2+x,1/2+y,z
3/4-x,3/4-y,z
1/2+x,3/4-y,1/4-z
3/4-x,1/2+y,1/4-z
1/2-x,1/2-y,-z
1/4+x,1/4+y,-z
1/2-x,1/4+y,3/4+z
1/4+x,1/2-y,3/4+z
loop_
_atom_site_type_symbol
_atom_site_label
_atom_site_fract_x
_atom_site_fract_y
_atom_site_fract_z
Si Si1 0.375000 0.253838 0.875000
Si Si2 0.483955 0.469308 0.379675
Si Si3 0.930399 0.239222 0.730829
Si Si4 0.216372 0.458221 0.971020
Si Si5 0.145695 0.546087 0.884655
Si Si6 0.122756 0.408144 0.479611
Si Si7 0.043729 0.625000 0.625000
O O1 0.367114 0.200416 0.805240
O O2 0.420138 0.306098 0.854762
O O3 0.486475 0.375000 0.375000
O O4 0.442971 0.493152 0.435862
O O5 0.528278 0.504615 0.423464
O O6 0.478389 0.504862 0.299259
O O7 0.886409 0.289568 0.706442
O O8 0.915876 0.149561 0.718000
O O9 0.197557 0.526399 0.914873
O O10 0.173667 0.396157 0.980007
O O11 0.259675 0.410763 0.936672
O O12 0.125000 0.625000 0.848100
O O13 0.133690 0.473612 0.831911
#
# Coordination Sequence:
#
# PCOD9516118 Si02
#       7
#    16  32  32  32  32  32  16
#     4  11  28  42  70 100 137 180 246 292 353 420
#     4  11  23  39  68 105 135 176 223 291 345 420
#     4  10  23  42  64 100 136 176 229 275 355 416
#     4  11  23  47  70  98 144 183 232 287 363 422
#     4  11  23  41  68  97 135 181 231 288 345 419
#     4  11  23  47  68  96 134 195 224 291 354 427
#     4  11  26  48  64 106 138 184 240 298 348 427
#
# _framework density 21.534932999999999
#
# number of rings (size 3 to 8) (size 9 to 14) (size 15 to 20)
#    0.000    1.167    1.667    4.500    7.000    2.667 
#    3.000    4.167    0.000    0.000    0.000    0.000 
#    0.000    0.000    0.000    0.000    0.000    0.000 
#
# Total GULP energy -268101.912116 kJ/mol
# GULP energy per Si atom -5585.456502 kJ/mol
# Density = 2.148592 g / cm^3
# Si number density = 21.534933 Si / 1000 Ang^3
#
#
#
# Elastic Constant Matrix: (Units=GPa)
#
#
# Indices 1 2 3 4 5 6 
#
# 1 78.7005 27.4769 24.7676 0.0000 0.0000 0.0000
# 2 27.4769 113.4812 43.7052 0.0000 0.0000 0.0000
# 3 24.7676 43.7052 127.6140 0.0000 0.0000 0.0000
# 4 0.0000 0.0000 0.0000 31.8513 0.0000 0.0000
# 5 0.0000 0.0000 0.0000 0.0000 27.3286 0.0000
# 6 0.0000 0.0000 0.0000 0.0000 0.0000 8.2799
#
#
#
# Elastic Compliance Matrix: (Units=1/GPa)
#
#
# Indices 1 2 3 4 5 6 
#
# 1 0.014239 -0.002745 -0.001823 0.000000 0.000000 0.000000
# 2 -0.002745 0.010680 -0.003125 0.000000 0.000000 0.000000
# 3 -0.001823 -0.003125 0.009260 0.000000 0.000000 0.000000
# 4 0.000000 0.000000 0.000000 0.031396 0.000000 0.000000
# 5 0.000000 0.000000 0.000000 0.000000 0.036592 0.000000
# 6 0.000000 0.000000 0.000000 0.000000 0.000000 0.120774
#
#
# Mechanical properties :
#
#
# Convention : Reuss Voigt Hill
#
# Bulk Modulus (GPa) = 53.21401 56.85501 55.03451
# Shear Modulus (GPa) = 20.44223 28.41504 24.42863
#
# Velocity S-wave (km/s) = 3.08435 3.63641 3.37170
# Velocity P-wave (km/s) = 6.11951 6.64003 6.38508
#
# Compressibility (1/GPa) = 0.01879205
#
# Stress axis : x y z
#
# Youngs Moduli (GPa) = 70.23125 93.63051 107.98882
#
# Poissons Ratio (x) = 0.25705 0.19689
# Poissons Ratio (y) = 0.19281 0.33746
# Poissons Ratio (z) = 0.12805 0.29259
#
# Static dielectric constant tensor:
#      x y z
#    x 1.811580 0.000000 0.000000 
#    y 0.000000 1.837130 0.000000 
#    z 0.000000 0.000000 1.773650 
# 
# From -- ./inp_files/39739.got.cif
#   From: 2010.05.17/outbox.cif.g08.bks.cpg/sg70_20_cif.got.tgz:39739.got - 2010.06.03 15:57:51.
