data_PCOD9516506
_publ_section_title
;
Structure prediction by ZEFSAII (Michael W. Deem and Ramdas Pophale) SiO2 
 PCOD9516506
Probable space group: F D D D
;
_chemical_formula_sum "Si O2"
_cell_formula_units_Z 168
_cell_length_a 11.257024
_cell_length_b 24.661140
_cell_length_c 33.387470
_cell_angle_alpha 90.000000
_cell_angle_beta 90.000000
_cell_angle_gamma 90.000000
_cell_volume 9268.730432
_symmetry_space_group_name_H-M "F D D D"
_symmetry_group_IT_number 70
_space_group.IT_coordinate_system_code '2'
_symmetry_cell_setting 'orthorhombic'
loop_
_space_group_symop_operation_xyz
x,y,z
1/4-x,1/4-y,z
x,1/4-y,1/4-z
1/4-x,y,1/4-z
-x,-y,-z
3/4+x,3/4+y,-z
-x,3/4+y,3/4+z
3/4+x,-y,3/4+z
x,1/2+y,1/2+z
1/4-x,3/4-y,1/2+z
x,3/4-y,3/4-z
1/4-x,1/2+y,3/4-z
-x,1/2-y,1/2-z
3/4+x,1/4+y,1/2-z
-x,1/4+y,1/4+z
3/4+x,1/2-y,1/4+z
1/2+x,y,1/2+z
3/4-x,1/4-y,1/2+z
1/2+x,1/4-y,3/4-z
3/4-x,y,3/4-z
1/2-x,-y,1/2-z
1/4+x,3/4+y,1/2-z
1/2-x,3/4+y,1/4+z
1/4+x,-y,1/4+z
1/2+x,1/2+y,z
3/4-x,3/4-y,z
1/2+x,3/4-y,1/4-z
3/4-x,1/2+y,1/4-z
1/2-x,1/2-y,-z
1/4+x,1/4+y,-z
1/2-x,1/4+y,3/4+z
1/4+x,1/2-y,3/4+z
loop_
_atom_site_type_symbol
_atom_site_label
_atom_site_fract_x
_atom_site_fract_y
_atom_site_fract_z
Si Si1 0.134770 0.996544 0.949897
Si Si2 0.005843 0.402803 0.230411
Si Si3 0.490411 0.560272 0.625190
Si Si4 0.465801 0.047164 0.682239
Si Si5 0.125000 0.625000 0.625000
Si Si6 0.881899 0.204384 0.290598
O O1 0.173133 0.956879 0.915323
O O2 0.228686 0.045276 0.953287
O O3 0.127672 0.969381 0.993525
O O4 0.004058 0.020362 0.942528
O O5 0.875000 0.375000 0.235562
O O6 0.041826 0.423763 0.274436
O O7 0.096317 0.360103 0.210621
O O8 0.494165 0.625000 0.625000
O O9 0.625000 0.539550 0.625000
O O10 0.412005 0.541097 0.587911
O O11 0.544672 0.086157 0.653317
O O12 0.528324 0.988486 0.688135
#
# Coordination Sequence:
#
# PCOD9516506 Si02
#       6
#    32  32  32  32   8  32
#     4   9  18  33  55  81 114 150 183 232 283 344
#     4   9  17  33  55  81 119 152 183 226 296 348
#     4  11  23  37  54  77 115 155 192 232 295 347
#     4  11  20  31  54  88 115 141 187 250 281 335
#     4  12  20  28  54  92 120 128 180 246 302 312
#     4   9  18  31  55  86 111 143 189 230 290 338
#
# _framework density 18.125461000000001
#
# number of rings (size 3 to 8) (size 9 to 14) (size 15 to 20)
#    0.000    2.095    1.905    3.429    0.000    0.000 
#    0.000    3.810   14.667    2.286    0.000    0.000 
#    0.000    0.000    0.000    0.000    0.000    0.000 
#
# Total GULP energy -234229.416470 kJ/mol
# GULP energy per Si atom -5576.890868 kJ/mol
# Density = 1.808421 g / cm^3
# Si number density = 18.125461 Si / 1000 Ang^3
#
#
#
# Elastic Constant Matrix: (Units=GPa)
#
#
# Indices 1 2 3 4 5 6 
#
# 1 83.1664 33.3393 39.2977 0.0000 0.0000 0.0000
# 2 33.3393 91.1678 28.7137 0.0000 0.0000 0.0000
# 3 39.2977 28.7137 64.6225 0.0000 0.0000 0.0000
# 4 0.0000 0.0000 0.0000 32.7518 0.0000 0.0000
# 5 0.0000 0.0000 0.0000 0.0000 18.5058 0.0000
# 6 0.0000 0.0000 0.0000 0.0000 0.0000 9.1142
#
#
#
# Elastic Compliance Matrix: (Units=1/GPa)
#
#
# Indices 1 2 3 4 5 6 
#
# 1 0.017840 -0.003613 -0.009244 0.000000 0.000000 0.000000
# 2 -0.003613 0.013485 -0.003795 0.000000 0.000000 0.000000
# 3 -0.009244 -0.003795 0.022782 0.000000 0.000000 0.000000
# 4 0.000000 0.000000 0.000000 0.030533 0.000000 0.000000
# 5 0.000000 0.000000 0.000000 0.000000 0.054037 0.000000
# 6 0.000000 0.000000 0.000000 0.000000 0.000000 0.109719
#
#
# Mechanical properties :
#
#
# Convention : Reuss Voigt Hill
#
# Bulk Modulus (GPa) = 48.06607 49.07313 48.56960
# Shear Modulus (GPa) = 17.32307 21.24811 19.28559
#
# Velocity S-wave (km/s) = 3.09484 3.42757 3.26545
# Velocity P-wave (km/s) = 6.27271 6.54196 6.40875
#
# Compressibility (1/GPa) = 0.02080470
#
# Stress axis : x y z
#
# Youngs Moduli (GPa) = 56.05365 74.15568 43.89472
#
# Poissons Ratio (x) = 0.26790 0.40574
# Poissons Ratio (y) = 0.20250 0.16658
# Poissons Ratio (z) = 0.51813 0.28142
#
# Static dielectric constant tensor:
#      x y z
#    x 1.637040 0.000000 0.000000 
#    y 0.000000 1.643160 0.000000 
#    z 0.000000 0.000000 1.596790 
# 
# From -- ./inp_files/54991.got.cif
#   From: 2010.05.17/outbox.cif.g08.bks.cpg/sg70_28_cif.got.tgz:54991.got - 2010.06.03 15:57:51.
