data_PCOD9516021
_publ_section_title
;
Structure prediction by ZEFSAII (Michael W. Deem and Ramdas Pophale) SiO2 
 PCOD9516021
Probable space group: F D D D
;
_chemical_formula_sum "Si O2"
_cell_formula_units_Z 176
_cell_length_a 13.046974
_cell_length_b 25.831410
_cell_length_c 22.792033
_cell_angle_alpha 90.000000
_cell_angle_beta 90.000000
_cell_angle_gamma 90.000000
_cell_volume 7681.410498
_symmetry_space_group_name_H-M "F D D D"
_symmetry_group_IT_number 70
_space_group.IT_coordinate_system_code '2'
_symmetry_cell_setting 'orthorhombic'
loop_
_space_group_symop_operation_xyz
x,y,z
1/4-x,1/4-y,z
x,1/4-y,1/4-z
1/4-x,y,1/4-z
-x,-y,-z
3/4+x,3/4+y,-z
-x,3/4+y,3/4+z
3/4+x,-y,3/4+z
x,1/2+y,1/2+z
1/4-x,3/4-y,1/2+z
x,3/4-y,3/4-z
1/4-x,1/2+y,3/4-z
-x,1/2-y,1/2-z
3/4+x,1/4+y,1/2-z
-x,1/4+y,1/4+z
3/4+x,1/2-y,1/4+z
1/2+x,y,1/2+z
3/4-x,1/4-y,1/2+z
1/2+x,1/4-y,3/4-z
3/4-x,y,3/4-z
1/2-x,-y,1/2-z
1/4+x,3/4+y,1/2-z
1/2-x,3/4+y,1/4+z
1/4+x,-y,1/4+z
1/2+x,1/2+y,z
3/4-x,3/4-y,z
1/2+x,3/4-y,1/4-z
3/4-x,1/2+y,1/4-z
1/2-x,1/2-y,-z
1/4+x,1/4+y,-z
1/2-x,1/4+y,3/4+z
1/4+x,1/2-y,3/4+z
loop_
_atom_site_type_symbol
_atom_site_label
_atom_site_fract_x
_atom_site_fract_y
_atom_site_fract_z
Si Si1 0.047328 0.581377 0.803725
Si Si2 0.390238 0.221949 0.656631
Si Si3 0.644888 0.052723 0.691239
Si Si4 0.875000 0.128567 0.375000
Si Si5 0.315979 0.320385 0.320252
Si Si6 0.001582 0.285795 0.057178
O O1 0.125000 0.625000 0.827248
O O2 0.086480 0.524780 0.821100
O O3 0.067475 0.581967 0.734252
O O4 0.935848 0.594511 0.827362
O O5 0.482761 0.199524 0.696161
O O6 0.300814 0.179826 0.656661
O O7 0.438147 0.244442 0.596268
O O8 0.625000 0.068690 0.625000
O O9 0.610025 0.993285 0.699464
O O10 0.788660 0.163367 0.342262
O O11 0.375000 0.292754 0.375000
O O12 0.375000 0.375000 0.313751
O O13 0.304739 0.297140 0.254357
#
# Coordination Sequence:
#
# PCOD9516021 Si02
#       6
#    32  32  32  16  32  32
#     4  12  24  40  69 117 151 186 257 324 389 463
#     4  11  23  45  78 101 147 206 253 320 386 453
#     4  10  22  45  74 108 139 195 257 317 390 449
#     4  12  26  42  72 124 152 192 260 336 388 458
#     4  11  28  50  69 110 155 208 256 315 393 473
#     4  11  22  48  78 105 148 198 260 317 383 476
#
# _framework density 22.912458999999998
#
# number of rings (size 3 to 8) (size 9 to 14) (size 15 to 20)
#    0.000    0.909    6.364    0.545    6.364    1.091 
#   13.091    0.000    0.000    0.000    0.000    0.000 
#    0.000    0.000    0.000    0.000    0.000    0.000 
#
# Total GULP energy -245188.418883 kJ/mol
# GULP energy per Si atom -5572.464066 kJ/mol
# Density = 2.286031 g / cm^3
# Si number density = 22.912459 Si / 1000 Ang^3
#
#
#
# Elastic Constant Matrix: (Units=GPa)
#
#
# Indices 1 2 3 4 5 6 
#
# 1 157.0493 44.2640 76.3340 0.0000 0.0000 0.0000
# 2 44.2640 90.7205 32.5469 0.0000 0.0000 0.0000
# 3 76.3340 32.5469 172.5658 0.0000 0.0000 0.0000
# 4 0.0000 0.0000 0.0000 16.0818 0.0000 0.0000
# 5 0.0000 0.0000 0.0000 0.0000 50.0834 0.0000
# 6 0.0000 0.0000 0.0000 0.0000 0.0000 46.1058
#
#
#
# Elastic Compliance Matrix: (Units=1/GPa)
#
#
# Indices 1 2 3 4 5 6 
#
# 1 0.008870 -0.003132 -0.003333 0.000000 0.000000 0.000000
# 2 -0.003132 0.012929 -0.001053 0.000000 0.000000 0.000000
# 3 -0.003333 -0.001053 0.007468 0.000000 0.000000 0.000000
# 4 0.000000 0.000000 0.000000 0.062182 0.000000 0.000000
# 5 0.000000 0.000000 0.000000 0.000000 0.019967 0.000000
# 6 0.000000 0.000000 0.000000 0.000000 0.000000 0.021689
#
#
# Mechanical properties :
#
#
# Convention : Reuss Voigt Hill
#
# Bulk Modulus (GPa) = 70.27065 80.73618 75.50342
# Shear Modulus (GPa) = 32.70439 40.26690 36.48565
#
# Velocity S-wave (km/s) = 3.78214 4.19671 3.99481
# Velocity P-wave (km/s) = 7.05752 7.66789 7.36903
#
# Compressibility (1/GPa) = 0.01423069
#
# Stress axis : x y z
#
# Youngs Moduli (GPa) = 112.73673 77.34631 133.90797
#
# Poissons Ratio (x) = 0.24226 0.44631
# Poissons Ratio (y) = 0.35311 0.14100
# Poissons Ratio (z) = 0.37575 0.08144
#
# Static dielectric constant tensor:
#      x y z
#    x 1.855820 0.000000 0.000000 
#    y 0.000000 1.966490 0.000000 
#    z 0.000000 0.000000 1.960430 
# 
# From -- ./inp_files/50382.got.cif
#   From: 2010.05.17/outbox.cif.g08.bks.cpg/sg70_26_cif.got.tgz:50382.got - 2010.06.03 15:57:51.
