data_PCOD9516854
_publ_section_title
;
Structure prediction by ZEFSAII (Michael W. Deem and Ramdas Pophale) SiO2 
 PCOD9516854
Probable space group: F D D D
;
_chemical_formula_sum "Si O2"
_cell_formula_units_Z 144
_cell_length_a 15.968263
_cell_length_b 18.353121
_cell_length_c 22.503817
_cell_angle_alpha 90.000000
_cell_angle_beta 90.000000
_cell_angle_gamma 90.000000
_cell_volume 6595.136556
_symmetry_space_group_name_H-M "F D D D"
_symmetry_group_IT_number 70
_space_group.IT_coordinate_system_code '2'
_symmetry_cell_setting 'orthorhombic'
loop_
_space_group_symop_operation_xyz
x,y,z
1/4-x,1/4-y,z
x,1/4-y,1/4-z
1/4-x,y,1/4-z
-x,-y,-z
3/4+x,3/4+y,-z
-x,3/4+y,3/4+z
3/4+x,-y,3/4+z
x,1/2+y,1/2+z
1/4-x,3/4-y,1/2+z
x,3/4-y,3/4-z
1/4-x,1/2+y,3/4-z
-x,1/2-y,1/2-z
3/4+x,1/4+y,1/2-z
-x,1/4+y,1/4+z
3/4+x,1/2-y,1/4+z
1/2+x,y,1/2+z
3/4-x,1/4-y,1/2+z
1/2+x,1/4-y,3/4-z
3/4-x,y,3/4-z
1/2-x,-y,1/2-z
1/4+x,3/4+y,1/2-z
1/2-x,3/4+y,1/4+z
1/4+x,-y,1/4+z
1/2+x,1/2+y,z
3/4-x,3/4-y,z
1/2+x,3/4-y,1/4-z
3/4-x,1/2+y,1/4-z
1/2-x,1/2-y,-z
1/4+x,1/4+y,-z
1/2-x,1/4+y,3/4+z
1/4+x,1/2-y,3/4+z
loop_
_atom_site_type_symbol
_atom_site_label
_atom_site_fract_x
_atom_site_fract_y
_atom_site_fract_z
Si Si1 0.647125 0.951335 0.405365
Si Si2 0.399401 0.582416 0.964189
Si Si3 0.668817 0.000177 0.063323
Si Si4 0.009835 0.552788 0.356759
Si Si5 0.125000 0.625000 0.279590
O O1 0.671665 0.875000 0.375000
O O2 0.598632 0.934672 0.466765
O O3 0.731694 0.992827 0.424746
O O4 0.584392 0.994572 0.361757
O O5 0.391051 0.669111 0.954635
O O6 0.321802 0.538842 0.933656
O O7 0.478888 0.564034 0.923607
O O8 0.625000 0.019768 0.125000
O O9 0.640143 0.056626 0.012938
O O10 0.047194 0.624221 0.324717
#
# Coordination Sequence:
#
# PCOD9516854 Si02
#       5
#    32  32  32  32  16
#     4  12  26  45  75 105 140 190 244 295 363 433
#     4  11  25  48  69 104 144 186 243 296 358 435
#     4  12  25  44  71 107 148 184 237 302 360 429
#     4  11  24  45  70 101 145 187 235 295 356 428
#     4  12  23  42  70 106 141 188 234 288 366 420
#
# _framework density 21.834271999999999
#
# number of rings (size 3 to 8) (size 9 to 14) (size 15 to 20)
#    0.000    0.444    4.444    5.000    0.000    0.889 
#    0.000    2.222    0.000    0.000    0.000    0.000 
#    0.000    0.000    0.000    0.000    0.000    0.000 
#
# Total GULP energy -201111.171063 kJ/mol
# GULP energy per Si atom -5586.421418 kJ/mol
# Density = 2.178458 g / cm^3
# Si number density = 21.834272 Si / 1000 Ang^3
#
#
#
# Elastic Constant Matrix: (Units=GPa)
#
#
# Indices 1 2 3 4 5 6 
#
# 1 94.0704 52.8204 31.0697 0.0000 0.0000 0.0000
# 2 52.8204 75.1377 39.2878 0.0000 0.0000 0.0000
# 3 31.0697 39.2878 144.5206 0.0000 0.0000 0.0000
# 4 0.0000 0.0000 0.0000 27.0117 0.0000 0.0000
# 5 0.0000 0.0000 0.0000 0.0000 31.5432 0.0000
# 6 0.0000 0.0000 0.0000 0.0000 0.0000 21.6492
#
#
#
# Elastic Compliance Matrix: (Units=1/GPa)
#
#
# Indices 1 2 3 4 5 6 
#
# 1 0.017592 -0.012111 -0.000490 0.000000 0.000000 0.000000
# 2 -0.012111 0.023852 -0.003880 0.000000 0.000000 0.000000
# 3 -0.000490 -0.003880 0.008080 0.000000 0.000000 0.000000
# 4 0.000000 0.000000 0.000000 0.037021 0.000000 0.000000
# 5 0.000000 0.000000 0.000000 0.000000 0.031703 0.000000
# 6 0.000000 0.000000 0.000000 0.000000 0.000000 0.046191
#
#
# Mechanical properties :
#
#
# Convention : Reuss Voigt Hill
#
# Bulk Modulus (GPa) = 60.38139 62.23161 61.30650
# Shear Modulus (GPa) = 24.64011 28.74422 26.69216
#
# Velocity S-wave (km/s) = 3.36297 3.63226 3.50020
# Velocity P-wave (km/s) = 6.54170 6.79373 6.66891
#
# Compressibility (1/GPa) = 0.01656140
#
# Stress axis : x y z
#
# Youngs Moduli (GPa) = 56.84258 41.92567 123.76873
#
# Poissons Ratio (x) = 0.50777 0.06061
# Poissons Ratio (y) = 0.68843 0.48027
# Poissons Ratio (z) = 0.02784 0.16269
#
# Static dielectric constant tensor:
#      x y z
#    x 1.869050 0.000000 0.000000 
#    y 0.000000 1.797470 0.000000 
#    z 0.000000 0.000000 1.775700 
# 
# From -- ./inp_files/52045.got.cif
#   From: 2010.05.17/outbox.cif.g08.bks.cpg/sg70_27_cif.got.tgz:52045.got - 2010.06.03 15:57:51.
