data_PCOD9516072
_publ_section_title
;
Structure prediction by ZEFSAII (Michael W. Deem and Ramdas Pophale) SiO2 
 PCOD9516072
Probable space group: F D D D
;
_chemical_formula_sum "Si O2"
_cell_formula_units_Z 192
_cell_length_a 16.032195
_cell_length_b 22.221267
_cell_length_c 23.202808
_cell_angle_alpha 90.000000
_cell_angle_beta 90.000000
_cell_angle_gamma 90.000000
_cell_volume 8266.132274
_symmetry_space_group_name_H-M "F D D D"
_symmetry_group_IT_number 70
_space_group.IT_coordinate_system_code '2'
_symmetry_cell_setting 'orthorhombic'
loop_
_space_group_symop_operation_xyz
x,y,z
1/4-x,1/4-y,z
x,1/4-y,1/4-z
1/4-x,y,1/4-z
-x,-y,-z
3/4+x,3/4+y,-z
-x,3/4+y,3/4+z
3/4+x,-y,3/4+z
x,1/2+y,1/2+z
1/4-x,3/4-y,1/2+z
x,3/4-y,3/4-z
1/4-x,1/2+y,3/4-z
-x,1/2-y,1/2-z
3/4+x,1/4+y,1/2-z
-x,1/4+y,1/4+z
3/4+x,1/2-y,1/4+z
1/2+x,y,1/2+z
3/4-x,1/4-y,1/2+z
1/2+x,1/4-y,3/4-z
3/4-x,y,3/4-z
1/2-x,-y,1/2-z
1/4+x,3/4+y,1/2-z
1/2-x,3/4+y,1/4+z
1/4+x,-y,1/4+z
1/2+x,1/2+y,z
3/4-x,3/4-y,z
1/2+x,3/4-y,1/4-z
3/4-x,1/2+y,1/4-z
1/2-x,1/2-y,-z
1/4+x,1/4+y,-z
1/2-x,1/4+y,3/4+z
1/4+x,1/2-y,3/4+z
loop_
_atom_site_type_symbol
_atom_site_label
_atom_site_fract_x
_atom_site_fract_y
_atom_site_fract_z
Si Si1 0.615298 0.481672 0.061623
Si Si2 0.493128 0.580128 0.028996
Si Si3 0.564076 0.705071 0.834580
Si Si4 0.875000 0.875000 0.486673
Si Si5 0.360283 0.500285 0.312475
Si Si6 0.705743 0.789826 0.797014
Si Si7 0.375000 0.875000 0.564215
O O1 0.625000 0.452073 0.125000
O O2 0.585450 0.444082 0.006638
O O3 0.702868 0.511304 0.044844
O O4 0.541729 0.531845 0.068022
O O5 0.560102 0.593288 0.978232
O O6 0.468718 0.640754 0.061227
O O7 0.562265 0.654976 0.783274
O O8 0.489769 0.749033 0.815707
O O9 0.647287 0.745658 0.833618
O O10 0.571724 0.669079 0.894166
O O11 0.854567 0.932607 0.447502
O O12 0.375000 0.526721 0.375000
O O13 0.406741 0.538071 0.264064
#
# Coordination Sequence:
#
# PCOD9516072 Si02
#       7
#    32  32  32  16  32  32  16
#     4  11  25  45  68  98 134 178 226 279 345 402
#     4  11  24  42  71  97 135 174 228 280 341 405
#     4  10  23  39  68  94 131 175 227 267 344 403
#     4   9  19  38  57  86 127 170 207 269 316 394
#     4  11  23  39  64  93 133 172 219 275 336 404
#     4  11  22  41  65  96 133 169 219 282 325 408
#     4  11  20  44  68  98 136 178 222 293 326 408
#
# _framework density 23.227309000000002
#
# number of rings (size 3 to 8) (size 9 to 14) (size 15 to 20)
#    0.000    1.333    1.667    4.250    0.000   10.000 
#    0.000    0.000    3.667    0.000    0.000    0.000 
#    0.000    0.000    0.000    0.000    0.000    0.000 
#
# Total GULP energy -267820.264752 kJ/mol
# GULP energy per Si atom -5579.588849 kJ/mol
# Density = 2.317444 g / cm^3
# Si number density = 23.227309 Si / 1000 Ang^3
#
#
#
# Elastic Constant Matrix: (Units=GPa)
#
#
# Indices 1 2 3 4 5 6 
#
# 1 112.3740 36.5006 18.5187 0.0000 0.0000 0.0000
# 2 36.5006 63.8627 -13.5386 0.0000 0.0000 0.0000
# 3 18.5187 -13.5386 81.6986 0.0000 0.0000 0.0000
# 4 0.0000 0.0000 0.0000 13.1030 0.0000 0.0000
# 5 0.0000 0.0000 0.0000 0.0000 28.8481 0.0000
# 6 0.0000 0.0000 0.0000 0.0000 0.0000 12.2928
#
#
#
# Elastic Compliance Matrix: (Units=1/GPa)
#
#
# Indices 1 2 3 4 5 6 
#
# 1 0.012082 -0.007759 -0.004024 0.000000 0.000000 0.000000
# 2 -0.007759 0.021211 0.005274 0.000000 0.000000 0.000000
# 3 -0.004024 0.005274 0.014026 0.000000 0.000000 0.000000
# 4 0.000000 0.000000 0.000000 0.076319 0.000000 0.000000
# 5 0.000000 0.000000 0.000000 0.000000 0.034664 0.000000
# 6 0.000000 0.000000 0.000000 0.000000 0.000000 0.081348
#
#
# Mechanical properties :
#
#
# Convention : Reuss Voigt Hill
#
# Bulk Modulus (GPa) = 29.15407 37.87742 33.51575
# Shear Modulus (GPa) = 18.93200 25.27909 22.10555
#
# Velocity S-wave (km/s) = 2.85805 3.30257 3.08832
# Velocity P-wave (km/s) = 4.84460 5.55746 5.21323
#
# Compressibility (1/GPa) = 0.03430053
#
# Stress axis : x y z
#
# Youngs Moduli (GPa) = 82.76649 47.14525 71.29495
#
# Poissons Ratio (x) = 0.36579 0.28692
# Poissons Ratio (y) = 0.64216 -0.37598
# Poissons Ratio (z) = 0.33309 -0.24863
#
# Static dielectric constant tensor:
#      x y z
#    x 2.059230 0.000000 0.000000 
#    y 0.000000 1.903260 0.000000 
#    z 0.000000 0.000000 1.926650 
# 
# From -- ./inp_files/58650.got.cif
#   From: 2010.05.17/outbox.cif.g08.bks.cpg/sg70_30_cif.got.tgz:58650.got - 2010.06.03 15:57:51.
