data_PCOD9516508
_publ_section_title
;
Structure prediction by ZEFSAII (Michael W. Deem and Ramdas Pophale) SiO2 
 PCOD9516508
Probable space group: F D D D
;
_chemical_formula_sum "Si O2"
_cell_formula_units_Z 176
_cell_length_a 19.362433
_cell_length_b 19.799342
_cell_length_c 23.420702
_cell_angle_alpha 90.000000
_cell_angle_beta 90.000000
_cell_angle_gamma 90.000000
_cell_volume 8978.640720
_symmetry_space_group_name_H-M "F D D D"
_symmetry_group_IT_number 70
_space_group.IT_coordinate_system_code '2'
_symmetry_cell_setting 'orthorhombic'
loop_
_space_group_symop_operation_xyz
x,y,z
1/4-x,1/4-y,z
x,1/4-y,1/4-z
1/4-x,y,1/4-z
-x,-y,-z
3/4+x,3/4+y,-z
-x,3/4+y,3/4+z
3/4+x,-y,3/4+z
x,1/2+y,1/2+z
1/4-x,3/4-y,1/2+z
x,3/4-y,3/4-z
1/4-x,1/2+y,3/4-z
-x,1/2-y,1/2-z
3/4+x,1/4+y,1/2-z
-x,1/4+y,1/4+z
3/4+x,1/2-y,1/4+z
1/2+x,y,1/2+z
3/4-x,1/4-y,1/2+z
1/2+x,1/4-y,3/4-z
3/4-x,y,3/4-z
1/2-x,-y,1/2-z
1/4+x,3/4+y,1/2-z
1/2-x,3/4+y,1/4+z
1/4+x,-y,1/4+z
1/2+x,1/2+y,z
3/4-x,3/4-y,z
1/2+x,3/4-y,1/4-z
3/4-x,1/2+y,1/4-z
1/2-x,1/2-y,-z
1/4+x,1/4+y,-z
1/2-x,1/4+y,3/4+z
1/4+x,1/2-y,3/4+z
loop_
_atom_site_type_symbol
_atom_site_label
_atom_site_fract_x
_atom_site_fract_y
_atom_site_fract_z
Si Si1 0.853422 0.006483 0.293980
Si Si2 0.089435 0.022304 0.336229
Si Si3 0.467412 0.693182 0.683675
Si Si4 0.774210 0.414215 0.124254
Si Si5 0.752990 0.802562 0.258767
Si Si6 0.625000 0.869949 0.125000
O O1 0.820808 0.011197 0.231028
O O2 0.859370 0.079803 0.322430
O O3 0.795519 0.966650 0.328805
O O4 0.926968 0.971850 0.289065
O O5 0.169633 0.042227 0.340997
O O6 0.048489 0.086600 0.363986
O O7 0.075274 0.958150 0.376995
O O8 0.055432 0.003010 0.275437
O O9 0.476332 0.621754 0.713796
O O10 0.693929 0.420237 0.140572
O O11 0.773068 0.434060 0.057181
#
# Coordination Sequence:
#
# PCOD9516508 Si02
#       6
#    32  32  32  32  32  16
#     4  11  20  33  56  92 123 160 206 240 312 396
#     4  11  23  38  57  93 126 167 212 256 319 390
#     4  11  20  34  57  88 128 162 199 252 316 382
#     4  11  23  39  62  84 126 166 210 267 317 375
#     4  12  22  36  61  91 126 168 207 258 318 388
#     4  12  20  40  59  88 117 166 210 258 320 376
#
# _framework density 19.602076
#
# number of rings (size 3 to 8) (size 9 to 14) (size 15 to 20)
#    0.000    0.727    7.273    2.182    2.545    0.000 
#    0.000    3.636    0.000    0.000    0.000    0.000 
#    0.000    0.000    0.000    0.000    0.000    0.000 
#
# Total GULP energy -245425.400017 kJ/mol
# GULP energy per Si atom -5577.850000 kJ/mol
# Density = 1.955746 g / cm^3
# Si number density = 19.602076 Si / 1000 Ang^3
#
#
#
# Elastic Constant Matrix: (Units=GPa)
#
#
# Indices 1 2 3 4 5 6 
#
# 1 132.0243 38.1136 17.8412 0.0000 0.0000 0.0000
# 2 38.1136 57.3785 12.1028 0.0000 0.0000 0.0000
# 3 17.8412 12.1028 41.1395 0.0000 0.0000 0.0000
# 4 0.0000 0.0000 0.0000 9.7518 0.0000 0.0000
# 5 0.0000 0.0000 0.0000 0.0000 26.5224 0.0000
# 6 0.0000 0.0000 0.0000 0.0000 0.0000 135.8232
#
#
#
# Elastic Compliance Matrix: (Units=1/GPa)
#
#
# Indices 1 2 3 4 5 6 
#
# 1 0.009595 -0.005860 -0.002437 0.000000 0.000000 0.000000
# 2 -0.005860 0.022159 -0.003978 0.000000 0.000000 0.000000
# 3 -0.002437 -0.003978 0.026535 0.000000 0.000000 0.000000
# 4 0.000000 0.000000 0.000000 0.102545 0.000000 0.000000
# 5 0.000000 0.000000 0.000000 0.000000 0.037704 0.000000
# 6 0.000000 0.000000 0.000000 0.000000 0.000000 0.007363
#
#
# Mechanical properties :
#
#
# Convention : Reuss Voigt Hill
#
# Bulk Modulus (GPa) = 29.63861 40.73971 35.18916
# Shear Modulus (GPa) = 20.68704 45.25180 32.96942
#
# Velocity S-wave (km/s) = 3.25214 4.80992 4.10559
# Velocity P-wave (km/s) = 5.40877 7.18857 6.36123
#
# Compressibility (1/GPa) = 0.03373977
#
# Stress axis : x y z
#
# Youngs Moduli (GPa) = 104.21740 45.12757 37.68631
#
# Poissons Ratio (x) = 0.26443 0.09186
# Poissons Ratio (y) = 0.61067 0.14991
# Poissons Ratio (z) = 0.25402 0.17951
#
# Static dielectric constant tensor:
#      x y z
#    x 1.711760 0.000000 0.000000 
#    y 0.000000 1.724240 0.000000 
#    z 0.000000 0.000000 1.766520 
# 
# From -- ./inp_files/59465.got.cif
#   From: 2010.05.17/outbox.cif.g08.bks.cpg/sg70_30_cif.got.tgz:59465.got - 2010.06.03 15:57:51.
