data_PCOD9516354
_publ_section_title
;
Structure prediction by ZEFSAII (Michael W. Deem and Ramdas Pophale) SiO2 
 PCOD9516354
Probable space group: F D D D
;
_chemical_formula_sum "Si O2"
_cell_formula_units_Z 112
_cell_length_a 18.221074
_cell_length_b 11.115955
_cell_length_c 23.581633
_cell_angle_alpha 90.000000
_cell_angle_beta 90.000000
_cell_angle_gamma 90.000000
_cell_volume 4776.333334
_symmetry_space_group_name_H-M "F D D D"
_symmetry_group_IT_number 70
_space_group.IT_coordinate_system_code '2'
_symmetry_cell_setting 'orthorhombic'
loop_
_space_group_symop_operation_xyz
x,y,z
1/4-x,1/4-y,z
x,1/4-y,1/4-z
1/4-x,y,1/4-z
-x,-y,-z
3/4+x,3/4+y,-z
-x,3/4+y,3/4+z
3/4+x,-y,3/4+z
x,1/2+y,1/2+z
1/4-x,3/4-y,1/2+z
x,3/4-y,3/4-z
1/4-x,1/2+y,3/4-z
-x,1/2-y,1/2-z
3/4+x,1/4+y,1/2-z
-x,1/4+y,1/4+z
3/4+x,1/2-y,1/4+z
1/2+x,y,1/2+z
3/4-x,1/4-y,1/2+z
1/2+x,1/4-y,3/4-z
3/4-x,y,3/4-z
1/2-x,-y,1/2-z
1/4+x,3/4+y,1/2-z
1/2-x,3/4+y,1/4+z
1/4+x,-y,1/4+z
1/2+x,1/2+y,z
3/4-x,3/4-y,z
1/2+x,3/4-y,1/4-z
3/4-x,1/2+y,1/4-z
1/2-x,1/2-y,-z
1/4+x,1/4+y,-z
1/2-x,1/4+y,3/4+z
1/4+x,1/2-y,3/4+z
loop_
_atom_site_type_symbol
_atom_site_label
_atom_site_fract_x
_atom_site_fract_y
_atom_site_fract_z
Si Si1 0.914117 0.746580 0.236027
Si Si2 0.293725 0.625000 0.125000
Si Si3 0.716121 0.824509 0.701629
Si Si4 0.712292 0.645079 0.060797
O O1 0.875000 0.875000 0.230513
O O2 0.909004 0.677028 0.176683
O O3 0.870577 0.687342 0.288276
O O4 0.000000 0.750000 0.250000
O O5 0.246120 0.731868 0.154904
O O6 0.751446 0.807257 0.764347
O O7 0.733052 0.964275 0.693949
O O8 0.625000 0.625000 0.054484
O O9 0.733524 0.625000 0.125000
#
# Coordination Sequence:
#
# PCOD9516354 Si02
#       4
#    32  16  32  32
#     4  12  28  49  75 112 161 212 265 329 414 492
#     4  12  28  47  80 116 159 214 270 352 411 498
#     4  11  26  47  74 113 154 196 276 321 412 476
#     4  10  24  46  75 102 146 201 254 328 397 483
#
# _framework density 23.44895
#
# number of rings (size 3 to 8) (size 9 to 14) (size 15 to 20)
#    0.000    0.857    2.857    1.714    6.000    8.000 
#    0.000    0.000    0.000    0.000    0.000    0.000 
#    0.000    0.000    0.000    0.000    0.000    0.000 
#
# Total GULP energy -156511.760571 kJ/mol
# GULP energy per Si atom -5589.705735 kJ/mol
# Density = 2.339558 g / cm^3
# Si number density = 23.448950 Si / 1000 Ang^3
#
#
#
# Elastic Constant Matrix: (Units=GPa)
#
#
# Indices 1 2 3 4 5 6 
#
# 1 86.1080 23.4717 13.3437 0.0000 0.0000 0.0000
# 2 23.4717 91.6036 22.8419 0.0000 0.0000 0.0000
# 3 13.3437 22.8419 79.7551 0.0000 0.0000 0.0000
# 4 0.0000 0.0000 0.0000 38.0269 0.0000 0.0000
# 5 0.0000 0.0000 0.0000 0.0000 44.5141 0.0000
# 6 0.0000 0.0000 0.0000 0.0000 0.0000 30.1557
#
#
#
# Elastic Compliance Matrix: (Units=1/GPa)
#
#
# Indices 1 2 3 4 5 6 
#
# 1 0.012605 -0.002912 -0.001275 0.000000 0.000000 0.000000
# 2 -0.002912 0.012429 -0.003072 0.000000 0.000000 0.000000
# 3 -0.001275 -0.003072 0.013632 0.000000 0.000000 0.000000
# 4 0.000000 0.000000 0.000000 0.026297 0.000000 0.000000
# 5 0.000000 0.000000 0.000000 0.000000 0.022465 0.000000
# 6 0.000000 0.000000 0.000000 0.000000 0.000000 0.033161
#
#
# Mechanical properties :
#
#
# Convention : Reuss Voigt Hill
#
# Bulk Modulus (GPa) = 41.41343 41.86458 41.63901
# Shear Modulus (GPa) = 34.92706 35.72664 35.32685
#
# Velocity S-wave (km/s) = 3.86358 3.90756 3.88563
# Velocity P-wave (km/s) = 6.13209 6.18473 6.15847
#
# Compressibility (1/GPa) = 0.02414675
#
# Stress axis : x y z
#
# Youngs Moduli (GPa) = 79.33610 80.45817 73.35875
#
# Poissons Ratio (x) = 0.23428 0.09353
# Poissons Ratio (y) = 0.23101 0.22539
# Poissons Ratio (z) = 0.10115 0.24720
#
# Static dielectric constant tensor:
#      x y z
#    x 1.934420 0.000000 0.000000 
#    y 0.000000 1.923310 0.000000 
#    z 0.000000 0.000000 1.929890 
# 
# From -- ./inp_files/33054.got.cif
#   From: 2010.05.17/outbox.cif.g08.bks.cpg/sg70_17_cif.got.tgz:33054.got - 2010.06.03 15:57:51.
