data_PCOD9516423
_publ_section_title
;
Structure prediction by ZEFSAII (Michael W. Deem and Ramdas Pophale) SiO2 
 PCOD9516423
Probable space group: F D D D
;
_chemical_formula_sum "Si O2"
_cell_formula_units_Z 176
_cell_length_a 14.797339
_cell_length_b 27.531127
_cell_length_c 17.371212
_cell_angle_alpha 90.000000
_cell_angle_beta 90.000000
_cell_angle_gamma 90.000000
_cell_volume 7076.813226
_symmetry_space_group_name_H-M "F D D D"
_symmetry_group_IT_number 70
_space_group.IT_coordinate_system_code '2'
_symmetry_cell_setting 'orthorhombic'
loop_
_space_group_symop_operation_xyz
x,y,z
1/4-x,1/4-y,z
x,1/4-y,1/4-z
1/4-x,y,1/4-z
-x,-y,-z
3/4+x,3/4+y,-z
-x,3/4+y,3/4+z
3/4+x,-y,3/4+z
x,1/2+y,1/2+z
1/4-x,3/4-y,1/2+z
x,3/4-y,3/4-z
1/4-x,1/2+y,3/4-z
-x,1/2-y,1/2-z
3/4+x,1/4+y,1/2-z
-x,1/4+y,1/4+z
3/4+x,1/2-y,1/4+z
1/2+x,y,1/2+z
3/4-x,1/4-y,1/2+z
1/2+x,1/4-y,3/4-z
3/4-x,y,3/4-z
1/2-x,-y,1/2-z
1/4+x,3/4+y,1/2-z
1/2-x,3/4+y,1/4+z
1/4+x,-y,1/4+z
1/2+x,1/2+y,z
3/4-x,3/4-y,z
1/2+x,3/4-y,1/4-z
3/4-x,1/2+y,1/4-z
1/2-x,1/2-y,-z
1/4+x,1/4+y,-z
1/2-x,1/4+y,3/4+z
1/4+x,1/2-y,3/4+z
loop_
_atom_site_type_symbol
_atom_site_label
_atom_site_fract_x
_atom_site_fract_y
_atom_site_fract_z
Si Si1 0.844097 0.623494 0.791246
Si Si2 0.625000 0.699530 0.125000
Si Si3 0.125000 0.625000 0.489038
Si Si4 0.225571 0.218618 0.642379
Si Si5 0.750076 0.471437 0.064502
Si Si6 0.851892 0.125000 0.125000
Si Si7 0.054557 0.182320 0.851310
O O1 0.875000 0.603200 0.875000
O O2 0.826369 0.680336 0.804370
O O3 0.895694 0.617424 0.709986
O O4 0.743556 0.599468 0.785091
O O5 0.603048 0.667830 0.200526
O O6 0.538974 0.734012 0.111481
O O7 0.053849 0.649763 0.429494
O O8 0.125000 0.202297 0.625000
O O9 0.227111 0.238429 0.729209
O O10 0.292818 0.173581 0.635598
O O11 0.255606 0.265849 0.596019
O O12 0.840051 0.446187 0.095649
#
# Coordination Sequence:
#
# PCOD9516423 Si02
#       7
#    32  16  16  32  32  16  32
#     4  11  23  44  73 103 152 195 248 305 373 451
#     4  11  24  48  72 106 144 198 258 313 368 450
#     4  11  24  46  70 105 146 188 258 311 374 427
#     4  11  24  44  71 105 147 188 246 300 374 450
#     4  11  23  43  73 101 144 195 246 305 378 444
#     4  10  25  46  68 112 143 196 246 303 372 442
#     4  12  24  44  71 105 142 195 238 307 378 439
#
# _framework density 24.869952000000001
#
# number of rings (size 3 to 8) (size 9 to 14) (size 15 to 20)
#    0.000    0.909    4.545    1.909    0.000    8.000 
#    6.545    0.000    0.000    0.000    0.000    0.000 
#    0.000    0.000    0.000    0.000    0.000    0.000 
#
# Total GULP energy -245760.918252 kJ/mol
# GULP energy per Si atom -5585.475415 kJ/mol
# Density = 2.481335 g / cm^3
# Si number density = 24.869952 Si / 1000 Ang^3
#
#
#
# Elastic Constant Matrix: (Units=GPa)
#
#
# Indices 1 2 3 4 5 6 
#
# 1 41.5741 -2.5989 29.9455 0.0000 0.0000 0.0000
# 2 -2.5989 112.7873 18.2929 0.0000 0.0000 0.0000
# 3 29.9455 18.2929 152.6124 0.0000 0.0000 0.0000
# 4 0.0000 0.0000 0.0000 23.7646 0.0000 0.0000
# 5 0.0000 0.0000 0.0000 0.0000 22.5216 0.0000
# 6 0.0000 0.0000 0.0000 0.0000 0.0000 41.6894
#
#
#
# Elastic Compliance Matrix: (Units=1/GPa)
#
#
# Indices 1 2 3 4 5 6 
#
# 1 0.028287 0.001583 -0.005740 0.000000 0.000000 0.000000
# 2 0.001583 0.009131 -0.001405 0.000000 0.000000 0.000000
# 3 -0.005740 -0.001405 0.007847 0.000000 0.000000 0.000000
# 4 0.000000 0.000000 0.000000 0.042079 0.000000 0.000000
# 5 0.000000 0.000000 0.000000 0.000000 0.044402 0.000000
# 6 0.000000 0.000000 0.000000 0.000000 0.000000 0.023987
#
#
# Mechanical properties :
#
#
# Convention : Reuss Voigt Hill
#
# Bulk Modulus (GPa) = 29.29107 44.25029 36.77068
# Shear Modulus (GPa) = 28.05242 35.01742 31.53492
#
# Velocity S-wave (km/s) = 3.36216 3.75643 3.56475
# Velocity P-wave (km/s) = 5.18415 6.05357 5.63565
#
# Compressibility (1/GPa) = 0.03414009
#
# Stress axis : x y z
#
# Youngs Moduli (GPa) = 35.35195 109.52184 127.43253
#
# Poissons Ratio (x) = -0.17335 0.73148
# Poissons Ratio (y) = -0.05595 0.17904
# Poissons Ratio (z) = 0.20293 0.15388
#
# Static dielectric constant tensor:
#      x y z
#    x 0.481750 0.000000 0.000000 
#    y 0.000000 1.950220 0.000000 
#    z 0.000000 0.000000 2.045790 
# 
# From -- ./inp_files/35318.got.cif
#   From: 2010.05.17/outbox.cif.g08.bks.cpg/sg70_18_cif.got.tgz:35318.got - 2010.06.03 15:57:51.
