data_PCOD9516036
_publ_section_title
;
Structure prediction by ZEFSAII (Michael W. Deem and Ramdas Pophale) SiO2 
 PCOD9516036
Probable space group: F D D D
;
_chemical_formula_sum "Si O2"
_cell_formula_units_Z 120
_cell_length_a 6.752735
_cell_length_b 31.413956
_cell_length_c 21.813808
_cell_angle_alpha 90.000000
_cell_angle_beta 90.000000
_cell_angle_gamma 90.000000
_cell_volume 4627.365712
_symmetry_space_group_name_H-M "F D D D"
_symmetry_group_IT_number 70
_space_group.IT_coordinate_system_code '2'
_symmetry_cell_setting 'orthorhombic'
loop_
_space_group_symop_operation_xyz
x,y,z
1/4-x,1/4-y,z
x,1/4-y,1/4-z
1/4-x,y,1/4-z
-x,-y,-z
3/4+x,3/4+y,-z
-x,3/4+y,3/4+z
3/4+x,-y,3/4+z
x,1/2+y,1/2+z
1/4-x,3/4-y,1/2+z
x,3/4-y,3/4-z
1/4-x,1/2+y,3/4-z
-x,1/2-y,1/2-z
3/4+x,1/4+y,1/2-z
-x,1/4+y,1/4+z
3/4+x,1/2-y,1/4+z
1/2+x,y,1/2+z
3/4-x,1/4-y,1/2+z
1/2+x,1/4-y,3/4-z
3/4-x,y,3/4-z
1/2-x,-y,1/2-z
1/4+x,3/4+y,1/2-z
1/2-x,3/4+y,1/4+z
1/4+x,-y,1/4+z
1/2+x,1/2+y,z
3/4-x,3/4-y,z
1/2+x,3/4-y,1/4-z
3/4-x,1/2+y,1/4-z
1/2-x,1/2-y,-z
1/4+x,1/4+y,-z
1/2-x,1/4+y,3/4+z
1/4+x,1/2-y,3/4+z
loop_
_atom_site_type_symbol
_atom_site_label
_atom_site_fract_x
_atom_site_fract_y
_atom_site_fract_z
Si Si1 0.625000 0.625000 0.125000
Si Si2 0.773650 0.733898 0.748779
Si Si3 0.943493 0.077129 0.213472
Si Si4 0.625000 0.191490 0.125000
Si Si5 0.280742 0.417255 0.172159
O O1 0.647070 0.589347 0.181174
O O2 0.671755 0.778062 0.768608
O O3 0.720239 0.718521 0.680432
O O4 0.304207 0.801568 0.702227
O O5 0.000000 0.750000 0.750000
O O6 0.792938 0.085960 0.158232
O O7 0.858185 0.099986 0.272529
O O8 0.125000 0.438053 0.125000
O O9 0.375000 0.375000 0.143214
#
# Coordination Sequence:
#
# PCOD9516036 Si02
#       5
#     8  32  32  16  32
#     4  12  28  46  72 116 150 198 266 326 394 476
#     4  11  26  48  80 113 149 207 270 329 405 488
#     4  11  27  44  76 104 153 197 256 325 395 474
#     4  10  22  47  76 108 145 196 257 328 390 472
#     4  11  28  50  75 113 161 209 262 338 416 492
#
# _framework density 25.932682
#
# number of rings (size 3 to 8) (size 9 to 14) (size 15 to 20)
#    0.000    1.067    0.000    4.800   20.533    0.000 
#    2.400    0.000    0.000    0.000    0.000    0.000 
#    0.000    0.000    0.000    0.000    0.000    0.000 
#
# Total GULP energy -167133.958689 kJ/mol
# GULP energy per Si atom -5571.131956 kJ/mol
# Density = 2.587366 g / cm^3
# Si number density = 25.932682 Si / 1000 Ang^3
#
#
#
# Elastic Constant Matrix: (Units=GPa)
#
#
# Indices 1 2 3 4 5 6 
#
# 1 126.5178 19.8158 64.6242 0.0000 0.0000 0.0000
# 2 19.8158 125.1117 35.5851 0.0000 0.0000 0.0000
# 3 64.6242 35.5851 159.6042 0.0000 0.0000 0.0000
# 4 0.0000 0.0000 0.0000 40.2941 0.0000 0.0000
# 5 0.0000 0.0000 0.0000 0.0000 52.7259 0.0000
# 6 0.0000 0.0000 0.0000 0.0000 0.0000 -25.5398
#
#
#
# Elastic Compliance Matrix: (Units=1/GPa)
#
#
# Indices 1 2 3 4 5 6 
#
# 1 0.009990 -0.000461 -0.003942 0.000000 0.000000 0.000000
# 2 -0.000461 0.008555 -0.001721 0.000000 0.000000 0.000000
# 3 -0.003942 -0.001721 0.008245 0.000000 0.000000 0.000000
# 4 0.000000 0.000000 0.000000 0.024818 0.000000 0.000000
# 5 0.000000 0.000000 0.000000 0.000000 0.018966 0.000000
# 6 0.000000 0.000000 0.000000 0.000000 0.000000 -0.039155
#
#
# Mechanical properties :
#
#
# Convention : Reuss Voigt Hill
#
# Bulk Modulus (GPa) = 68.76342 72.36487 70.56415
# Shear Modulus (GPa) = 103.06122 32.90996 67.98559
#
# Velocity S-wave (km/s) = 6.31095 3.56624 5.12573
# Velocity P-wave (km/s) = 8.92624 6.70246 7.89306
#
# Compressibility (1/GPa) = 0.01454262
#
# Stress axis : x y z
#
# Youngs Moduli (GPa) = 100.10172 116.88640 121.28051
#
# Poissons Ratio (x) = 0.05388 0.47810
# Poissons Ratio (y) = 0.04615 0.20870
# Poissons Ratio (z) = 0.39461 0.20114
#
# Static dielectric constant tensor:
#      x y z
#    x -4.719840 0.000000 0.000000 
#    y 0.000000 2.049200 0.000000 
#    z 0.000000 0.000000 2.003940 
# 
# From -- ./inp_files/56513.got.cif
#   From: 2010.05.17/outbox.cif.g08.bks.cpg/sg70_29_cif.got.tgz:56513.got - 2010.06.03 15:57:51.
