data_PCOD9516321
_publ_section_title
;
Structure prediction by ZEFSAII (Michael W. Deem and Ramdas Pophale) SiO2 
 PCOD9516321
Probable space group: F D D D
;
_chemical_formula_sum "Si O2"
_cell_formula_units_Z 152
_cell_length_a 24.832300
_cell_length_b 12.834551
_cell_length_c 21.433109
_cell_angle_alpha 90.000000
_cell_angle_beta 90.000000
_cell_angle_gamma 90.000000
_cell_volume 6830.976621
_symmetry_space_group_name_H-M "F D D D"
_symmetry_group_IT_number 70
_space_group.IT_coordinate_system_code '2'
_symmetry_cell_setting 'orthorhombic'
loop_
_space_group_symop_operation_xyz
x,y,z
1/4-x,1/4-y,z
x,1/4-y,1/4-z
1/4-x,y,1/4-z
-x,-y,-z
3/4+x,3/4+y,-z
-x,3/4+y,3/4+z
3/4+x,-y,3/4+z
x,1/2+y,1/2+z
1/4-x,3/4-y,1/2+z
x,3/4-y,3/4-z
1/4-x,1/2+y,3/4-z
-x,1/2-y,1/2-z
3/4+x,1/4+y,1/2-z
-x,1/4+y,1/4+z
3/4+x,1/2-y,1/4+z
1/2+x,y,1/2+z
3/4-x,1/4-y,1/2+z
1/2+x,1/4-y,3/4-z
3/4-x,y,3/4-z
1/2-x,-y,1/2-z
1/4+x,3/4+y,1/2-z
1/2-x,3/4+y,1/4+z
1/4+x,-y,1/4+z
1/2+x,1/2+y,z
3/4-x,3/4-y,z
1/2+x,3/4-y,1/4-z
3/4-x,1/2+y,1/4-z
1/2-x,1/2-y,-z
1/4+x,1/4+y,-z
1/2-x,1/4+y,3/4+z
1/4+x,1/2-y,3/4+z
loop_
_atom_site_type_symbol
_atom_site_label
_atom_site_fract_x
_atom_site_fract_y
_atom_site_fract_z
Si Si1 0.546962 0.663975 0.889670
Si Si2 0.942259 0.226649 0.046161
Si Si3 0.067397 0.741903 0.098845
Si Si4 0.790773 0.911016 0.774542
Si Si5 0.139438 0.375000 0.375000
Si Si6 0.125000 0.125000 0.125000
O O1 0.563253 0.572659 0.843072
O O2 0.482782 0.684224 0.884943
O O3 0.562990 0.633827 0.959787
O O4 0.574465 0.773206 0.875074
O O5 0.900257 0.137503 0.066221
O O6 0.931614 0.261854 0.975995
O O7 0.001578 0.178300 0.051928
O O8 0.058234 0.625000 0.125000
O O9 0.125000 0.777663 0.125000
O O10 0.835517 0.936207 0.826590
O O11 0.750000 0.000000 0.750000
#
# Coordination Sequence:
#
# PCOD9516321 Si02
#       6
#    32  32  32  32  16   8
#     4  11  25  46  72 107 144 192 253 307 383 470
#     4  11  26  46  73 104 148 196 251 322 371 473
#     4  10  24  45  68 105 146 192 248 313 385 460
#     4  11  26  49  71 111 149 192 262 308 384 465
#     4  12  25  42  73 103 136 201 234 310 386 442
#     4  12  26  44  84 108 152 208 238 324 390 452
#
# _framework density 22.251577000000001
#
# number of rings (size 3 to 8) (size 9 to 14) (size 15 to 20)
#    0.000    1.053    1.053    3.789   11.789    4.211 
#   13.263    0.000    0.000    0.000    0.000    0.000 
#    0.000    0.000    0.000    0.000    0.000    0.000 
#
# Total GULP energy -212618.805501 kJ/mol
# GULP energy per Si atom -5595.231724 kJ/mol
# Density = 2.220093 g / cm^3
# Si number density = 22.251577 Si / 1000 Ang^3
#
#
#
# Elastic Constant Matrix: (Units=GPa)
#
#
# Indices 1 2 3 4 5 6 
#
# 1 150.8819 39.3656 60.4652 0.0000 0.0000 0.0000
# 2 39.3656 88.3656 30.2395 0.0000 0.0000 0.0000
# 3 60.4652 30.2395 118.3182 0.0000 0.0000 0.0000
# 4 0.0000 0.0000 0.0000 35.6663 0.0000 0.0000
# 5 0.0000 0.0000 0.0000 0.0000 25.0633 0.0000
# 6 0.0000 0.0000 0.0000 0.0000 0.0000 21.0346
#
#
#
# Elastic Compliance Matrix: (Units=1/GPa)
#
#
# Indices 1 2 3 4 5 6 
#
# 1 0.008858 -0.002627 -0.003855 0.000000 0.000000 0.000000
# 2 -0.002627 0.013180 -0.002026 0.000000 0.000000 0.000000
# 3 -0.003855 -0.002026 0.010940 0.000000 0.000000 0.000000
# 4 0.000000 0.000000 0.000000 0.028038 0.000000 0.000000
# 5 0.000000 0.000000 0.000000 0.000000 0.039899 0.000000
# 6 0.000000 0.000000 0.000000 0.000000 0.000000 0.047541
#
#
# Mechanical properties :
#
#
# Convention : Reuss Voigt Hill
#
# Bulk Modulus (GPa) = 62.65139 68.63403 65.64271
# Shear Modulus (GPa) = 29.27521 31.51919 30.39720
#
# Velocity S-wave (km/s) = 3.63112 3.76772 3.70005
# Velocity P-wave (km/s) = 6.76735 7.05968 6.91506
#
# Compressibility (1/GPa) = 0.01596134
#
# Stress axis : x y z
#
# Youngs Moduli (GPa) = 112.89102 75.87151 91.40822
#
# Poissons Ratio (x) = 0.19930 0.35242
# Poissons Ratio (y) = 0.29654 0.18521
# Poissons Ratio (z) = 0.43525 0.15373
#
# Static dielectric constant tensor:
#      x y z
#    x 1.882150 0.000000 0.000000 
#    y 0.000000 1.802110 0.000000 
#    z 0.000000 0.000000 1.783100 
# 
# From -- ./inp_files/46723.got.cif
#   From: 2010.05.17/outbox.cif.g08.bks.cpg/sg70_24_cif.got.tgz:46723.got - 2010.06.03 15:57:51.
