data_PCOD9516542
_publ_section_title
;
Structure prediction by ZEFSAII (Michael W. Deem and Ramdas Pophale) SiO2 
 PCOD9516542
Probable space group: F D D D
;
_chemical_formula_sum "Si O2"
_cell_formula_units_Z 176
_cell_length_a 13.266716
_cell_length_b 25.405886
_cell_length_c 26.190024
_cell_angle_alpha 90.000000
_cell_angle_beta 90.000000
_cell_angle_gamma 90.000000
_cell_volume 8827.417629
_symmetry_space_group_name_H-M "F D D D"
_symmetry_group_IT_number 70
_space_group.IT_coordinate_system_code '2'
_symmetry_cell_setting 'orthorhombic'
loop_
_space_group_symop_operation_xyz
x,y,z
1/4-x,1/4-y,z
x,1/4-y,1/4-z
1/4-x,y,1/4-z
-x,-y,-z
3/4+x,3/4+y,-z
-x,3/4+y,3/4+z
3/4+x,-y,3/4+z
x,1/2+y,1/2+z
1/4-x,3/4-y,1/2+z
x,3/4-y,3/4-z
1/4-x,1/2+y,3/4-z
-x,1/2-y,1/2-z
3/4+x,1/4+y,1/2-z
-x,1/4+y,1/4+z
3/4+x,1/2-y,1/4+z
1/2+x,y,1/2+z
3/4-x,1/4-y,1/2+z
1/2+x,1/4-y,3/4-z
3/4-x,y,3/4-z
1/2-x,-y,1/2-z
1/4+x,3/4+y,1/2-z
1/2-x,3/4+y,1/4+z
1/4+x,-y,1/4+z
1/2+x,1/2+y,z
3/4-x,3/4-y,z
1/2+x,3/4-y,1/4-z
3/4-x,1/2+y,1/4-z
1/2-x,1/2-y,-z
1/4+x,1/4+y,-z
1/2-x,1/4+y,3/4+z
1/4+x,1/2-y,3/4+z
loop_
_atom_site_type_symbol
_atom_site_label
_atom_site_fract_x
_atom_site_fract_y
_atom_site_fract_z
Si Si1 0.375000 0.375000 0.168431
Si Si2 0.595933 0.768878 0.281561
Si Si3 0.056413 0.371183 0.749262
Si Si4 0.385506 0.258131 0.606884
Si Si5 0.053750 0.479326 0.246114
Si Si6 0.312416 0.803388 0.924747
O O1 0.275586 0.376046 0.204260
O O2 0.381290 0.429065 0.137442
O O3 0.500000 0.750000 0.250000
O O4 0.637476 0.824619 0.261052
O O5 0.575359 0.769478 0.342072
O O6 0.691188 0.729941 0.274725
O O7 0.136595 0.324931 0.738722
O O8 0.993445 0.351954 0.798702
O O9 0.447567 0.243782 0.555990
O O10 0.274161 0.236966 0.593388
O O11 0.118296 0.524232 0.216748
O O12 0.375000 0.816410 0.875000
#
# Coordination Sequence:
#
# PCOD9516542 Si02
#       6
#    16  32  32  32  32  32
#     4  12  20  42  73 106 134 181 224 290 368 408
#     4  12  28  47  63  95 143 192 242 279 331 416
#     4  11  23  43  71 100 141 185 222 293 356 413
#     4  11  23  41  68 103 141 175 223 283 356 419
#     4  11  22  44  69 104 141 169 232 293 347 428
#     4  11  20  40  71 114 145 164 215 303 374 425
#
# _framework density 19.93788
#
# number of rings (size 3 to 8) (size 9 to 14) (size 15 to 20)
#    0.000    0.727    7.273    1.091    0.000    5.818 
#    3.273    1.818    0.000    4.364    0.000    0.000 
#    0.000    0.000    0.000    0.000    0.000    0.000 
#
# Total GULP energy -246170.948023 kJ/mol
# GULP energy per Si atom -5594.794273 kJ/mol
# Density = 1.989250 g / cm^3
# Si number density = 19.937880 Si / 1000 Ang^3
#
#
#
# Elastic Constant Matrix: (Units=GPa)
#
#
# Indices 1 2 3 4 5 6 
#
# 1 93.1902 40.7603 42.0761 0.0000 0.0000 0.0000
# 2 40.7603 106.3226 15.4799 0.0000 0.0000 0.0000
# 3 42.0761 15.4799 101.5602 0.0000 0.0000 0.0000
# 4 0.0000 0.0000 0.0000 21.9653 0.0000 0.0000
# 5 0.0000 0.0000 0.0000 0.0000 23.8050 0.0000
# 6 0.0000 0.0000 0.0000 0.0000 0.0000 25.6999
#
#
#
# Elastic Compliance Matrix: (Units=1/GPa)
#
#
# Indices 1 2 3 4 5 6 
#
# 1 0.015525 -0.005129 -0.005650 0.000000 0.000000 0.000000
# 2 -0.005129 0.011313 0.000401 0.000000 0.000000 0.000000
# 3 -0.005650 0.000401 0.012126 0.000000 0.000000 0.000000
# 4 0.000000 0.000000 0.000000 0.045526 0.000000 0.000000
# 5 0.000000 0.000000 0.000000 0.000000 0.042008 0.000000
# 6 0.000000 0.000000 0.000000 0.000000 0.000000 0.038911
#
#
# Mechanical properties :
#
#
# Convention : Reuss Voigt Hill
#
# Bulk Modulus (GPa) = 54.92351 55.30063 55.11207
# Shear Modulus (GPa) = 26.00959 27.81115 26.91037
#
# Velocity S-wave (km/s) = 3.61575 3.73887 3.67783
# Velocity P-wave (km/s) = 6.71108 6.81437 6.76292
#
# Compressibility (1/GPa) = 0.01820714
#
# Stress axis : x y z
#
# Youngs Moduli (GPa) = 64.41072 88.39102 82.46587
#
# Poissons Ratio (x) = 0.45338 0.46596
# Poissons Ratio (y) = 0.33038 -0.03304
# Poissons Ratio (z) = 0.36394 -0.03541
#
# Static dielectric constant tensor:
#      x y z
#    x 1.690030 0.000000 0.000000 
#    y 0.000000 1.712800 0.000000 
#    z 0.000000 0.000000 1.707580 
# 
# From -- ./inp_files/58597.got.cif
#   From: 2010.05.17/outbox.cif.g08.bks.cpg/sg70_30_cif.got.tgz:58597.got - 2010.06.03 15:57:51.
