data_PCOD9516155
_publ_section_title
;
Structure prediction by ZEFSAII (Michael W. Deem and Ramdas Pophale) SiO2 
 PCOD9516155
Probable space group: F D D D
;
_chemical_formula_sum "Si O2"
_cell_formula_units_Z 208
_cell_length_a 17.710088
_cell_length_b 23.163603
_cell_length_c 24.879317
_cell_angle_alpha 90.000000
_cell_angle_beta 90.000000
_cell_angle_gamma 90.000000
_cell_volume 10206.228468
_symmetry_space_group_name_H-M "F D D D"
_symmetry_group_IT_number 70
_space_group.IT_coordinate_system_code '2'
_symmetry_cell_setting 'orthorhombic'
loop_
_space_group_symop_operation_xyz
x,y,z
1/4-x,1/4-y,z
x,1/4-y,1/4-z
1/4-x,y,1/4-z
-x,-y,-z
3/4+x,3/4+y,-z
-x,3/4+y,3/4+z
3/4+x,-y,3/4+z
x,1/2+y,1/2+z
1/4-x,3/4-y,1/2+z
x,3/4-y,3/4-z
1/4-x,1/2+y,3/4-z
-x,1/2-y,1/2-z
3/4+x,1/4+y,1/2-z
-x,1/4+y,1/4+z
3/4+x,1/2-y,1/4+z
1/2+x,y,1/2+z
3/4-x,1/4-y,1/2+z
1/2+x,1/4-y,3/4-z
3/4-x,y,3/4-z
1/2-x,-y,1/2-z
1/4+x,3/4+y,1/2-z
1/2-x,3/4+y,1/4+z
1/4+x,-y,1/4+z
1/2+x,1/2+y,z
3/4-x,3/4-y,z
1/2+x,3/4-y,1/4-z
3/4-x,1/2+y,1/4-z
1/2-x,1/2-y,-z
1/4+x,1/4+y,-z
1/2-x,1/4+y,3/4+z
1/4+x,1/2-y,3/4+z
loop_
_atom_site_type_symbol
_atom_site_label
_atom_site_fract_x
_atom_site_fract_y
_atom_site_fract_z
Si Si1 0.575085 0.503501 0.463453
Si Si2 0.625000 0.125000 0.125000
Si Si3 0.707761 0.704806 0.711235
Si Si4 0.712049 0.565603 0.315036
Si Si5 0.961037 0.441282 0.152508
Si Si6 0.159895 0.871401 0.814099
Si Si7 0.625000 0.125000 0.625000
Si Si8 0.250118 0.941057 0.310655
O O1 0.500000 0.500000 0.500000
O O2 0.645818 0.535067 0.492299
O O3 0.552053 0.534307 0.407524
O O4 0.598319 0.437031 0.454338
O O5 0.667533 0.168168 0.164946
O O6 0.736207 0.765342 0.686085
O O7 0.782779 0.666260 0.722399
O O8 0.737304 0.624654 0.343757
O O9 0.621800 0.560001 0.320547
O O10 0.734939 0.564341 0.252797
O O11 0.744731 0.505167 0.335169
O O12 0.190848 0.875000 0.875000
O O13 0.080041 0.839737 0.819018
O O14 0.680194 0.088507 0.661509
#
# Coordination Sequence:
#
# PCOD9516155 Si02
#       8
#    32   8  32  32  32  32   8  32
#     4  12  27  43  70 110 140 183 254 296 360 447
#     4  12  24  42  66  98 144 174 248 286 352 432
#     4  12  23  43  72 101 134 199 228 300 364 420
#     4  10  23  43  67  97 144 182 228 293 367 426
#     4  11  22  45  68 100 145 189 225 302 367 423
#     4  12  22  46  71  98 142 189 236 295 361 436
#     4  12  24  38  74 102 136 174 252 302 332 448
#     4  11  23  44  68 106 136 187 243 291 364 438
#
# _framework density 20.379712000000001
#
# number of rings (size 3 to 8) (size 9 to 14) (size 15 to 20)
#    0.000    0.615    4.615    3.692    0.000    3.692 
#    0.000    5.385    0.000    0.000    0.000    0.000 
#    0.000    0.000    0.000    0.000    0.000    0.000 
#
# Total GULP energy -290458.503312 kJ/mol
# GULP energy per Si atom -5585.740448 kJ/mol
# Density = 2.033333 g / cm^3
# Si number density = 20.379712 Si / 1000 Ang^3
#
#
#
# Elastic Constant Matrix: (Units=GPa)
#
#
# Indices 1 2 3 4 5 6 
#
# 1 80.8591 50.9645 18.3774 0.0000 0.0000 0.0000
# 2 50.9645 184.4699 32.9566 0.0000 0.0000 0.0000
# 3 18.3774 32.9566 53.3666 0.0000 0.0000 0.0000
# 4 0.0000 0.0000 0.0000 33.1728 0.0000 0.0000
# 5 0.0000 0.0000 0.0000 0.0000 -22.5805 0.0000
# 6 0.0000 0.0000 0.0000 0.0000 0.0000 190.2799
#
#
#
# Elastic Compliance Matrix: (Units=1/GPa)
#
#
# Indices 1 2 3 4 5 6 
#
# 1 0.015392 -0.003715 -0.003006 0.000000 0.000000 0.000000
# 2 -0.003715 0.006990 -0.003037 0.000000 0.000000 0.000000
# 3 -0.003006 -0.003037 0.021649 0.000000 0.000000 0.000000
# 4 0.000000 0.000000 0.000000 0.030145 0.000000 0.000000
# 5 0.000000 0.000000 0.000000 0.000000 -0.044286 0.000000
# 6 0.000000 0.000000 0.000000 0.000000 0.000000 0.005255
#
#
# Mechanical properties :
#
#
# Convention : Reuss Voigt Hill
#
# Bulk Modulus (GPa) = 40.79308 58.14361 49.46834
# Shear Modulus (GPa) = 79.57401 54.60092 67.08747
#
# Velocity S-wave (km/s) = 6.25543 5.18170 5.74371
# Velocity P-wave (km/s) = 8.49905 8.02446 8.26517
#
# Compressibility (1/GPa) = 0.02451396
#
# Stress axis : x y z
#
# Youngs Moduli (GPa) = 64.96803 143.06059 46.19127
#
# Poissons Ratio (x) = 0.53153 0.13885
# Poissons Ratio (y) = 0.24138 0.14029
# Poissons Ratio (z) = 0.19529 0.43451
#
# Static dielectric constant tensor:
#      x y z
#    x 1.718830 0.000000 0.000000 
#    y 0.000000 1.768360 0.000000 
#    z 0.000000 0.000000 1.717270 
# 
# From -- ./inp_files/59740.got.cif
#   From: 2010.05.17/outbox.cif.g08.bks.cpg/sg70_30_cif.got.tgz:59740.got - 2010.06.03 15:57:51.
