data_PCOD9516209
_publ_section_title
;
Structure prediction by ZEFSAII (Michael W. Deem and Ramdas Pophale) SiO2 
 PCOD9516209
Probable space group: F D D D
;
_chemical_formula_sum "Si O2"
_cell_formula_units_Z 104
_cell_length_a 9.061320
_cell_length_b 18.749006
_cell_length_c 24.793923
_cell_angle_alpha 90.000000
_cell_angle_beta 90.000000
_cell_angle_gamma 90.000000
_cell_volume 4212.258002
_symmetry_space_group_name_H-M "F D D D"
_symmetry_group_IT_number 70
_space_group.IT_coordinate_system_code '2'
_symmetry_cell_setting 'orthorhombic'
loop_
_space_group_symop_operation_xyz
x,y,z
1/4-x,1/4-y,z
x,1/4-y,1/4-z
1/4-x,y,1/4-z
-x,-y,-z
3/4+x,3/4+y,-z
-x,3/4+y,3/4+z
3/4+x,-y,3/4+z
x,1/2+y,1/2+z
1/4-x,3/4-y,1/2+z
x,3/4-y,3/4-z
1/4-x,1/2+y,3/4-z
-x,1/2-y,1/2-z
3/4+x,1/4+y,1/2-z
-x,1/4+y,1/4+z
3/4+x,1/2-y,1/4+z
1/2+x,y,1/2+z
3/4-x,1/4-y,1/2+z
1/2+x,1/4-y,3/4-z
3/4-x,y,3/4-z
1/2-x,-y,1/2-z
1/4+x,3/4+y,1/2-z
1/2-x,3/4+y,1/4+z
1/4+x,-y,1/4+z
1/2+x,1/2+y,z
3/4-x,3/4-y,z
1/2+x,3/4-y,1/4-z
3/4-x,1/2+y,1/4-z
1/2-x,1/2-y,-z
1/4+x,1/4+y,-z
1/2-x,1/4+y,3/4+z
1/4+x,1/2-y,3/4+z
loop_
_atom_site_type_symbol
_atom_site_label
_atom_site_fract_x
_atom_site_fract_y
_atom_site_fract_z
Si Si1 0.375000 0.024207 0.875000
Si Si2 0.125000 0.625000 0.841436
Si Si3 0.850446 0.958111 0.488243
Si Si4 0.169684 0.490557 0.684120
Si Si5 0.875000 0.875000 0.875000
O O1 0.232411 0.076233 0.871879
O O2 0.418208 0.975658 0.824644
O O3 0.209447 0.568773 0.802405
O O4 0.875000 0.875000 0.496991
O O5 0.716871 0.985565 0.525621
O O6 0.000000 0.000000 0.500000
O O7 0.125000 0.462592 0.625000
O O8 0.211539 0.571261 0.665526
#
# Coordination Sequence:
#
# PCOD9516209 Si02
#       5
#    16  16  32  32   8
#     4  12  28  48  84 112 168 212 292 340 425 507
#     4  12  24  49  84 116 159 233 264 363 414 522
#     4  12  28  50  78 119 164 220 278 349 427 507
#     4  10  23  45  81 113 166 212 281 339 428 509
#     4   8  22  42  80 128 164 210 272 356 414 514
#
# _framework density 24.689844999999998
#
# number of rings (size 3 to 8) (size 9 to 14) (size 15 to 20)
#    0.923    0.000    1.538    4.154    4.308    4.923 
#    0.000    0.000    0.000    1.846    0.000    0.000 
#    0.000    0.000    0.000    0.000    0.000    0.000 
#
# Total GULP energy -145127.817673 kJ/mol
# GULP energy per Si atom -5581.839141 kJ/mol
# Density = 2.463365 g / cm^3
# Si number density = 24.689845 Si / 1000 Ang^3
#
#
#
# Elastic Constant Matrix: (Units=GPa)
#
#
# Indices 1 2 3 4 5 6 
#
# 1 143.6959 78.9425 63.8040 0.0000 0.0000 0.0000
# 2 78.9425 211.8635 48.2530 0.0000 0.0000 0.0000
# 3 63.8040 48.2530 163.8398 0.0000 0.0000 0.0000
# 4 0.0000 0.0000 0.0000 -26.0808 0.0000 0.0000
# 5 0.0000 0.0000 0.0000 0.0000 39.1920 0.0000
# 6 0.0000 0.0000 0.0000 0.0000 0.0000 53.1073
#
#
#
# Elastic Compliance Matrix: (Units=1/GPa)
#
#
# Indices 1 2 3 4 5 6 
#
# 1 0.009946 -0.003027 -0.002982 0.000000 0.000000 0.000000
# 2 -0.003027 0.005981 -0.000583 0.000000 0.000000 0.000000
# 3 -0.002982 -0.000583 0.007436 0.000000 0.000000 0.000000
# 4 0.000000 0.000000 0.000000 -0.038342 0.000000 0.000000
# 5 0.000000 0.000000 0.000000 0.000000 0.025515 0.000000
# 6 0.000000 0.000000 0.000000 0.000000 0.000000 0.018830
#
#
# Mechanical properties :
#
#
# Convention : Reuss Voigt Hill
#
# Bulk Modulus (GPa) = 98.22879 100.15534 99.19206
# Shear Modulus (GPa) = 108.83362 35.13702 71.98532
#
# Velocity S-wave (km/s) = 6.64650 3.77654 5.40547
# Velocity P-wave (km/s) = 9.93845 7.72462 8.90064
#
# Compressibility (1/GPa) = 0.01018031
#
# Stress axis : x y z
#
# Youngs Moduli (GPa) = 100.54291 167.20868 134.47523
#
# Poissons Ratio (x) = 0.50612 0.40098
# Poissons Ratio (y) = 0.30433 0.07835
# Poissons Ratio (z) = 0.29980 0.09742
#
# Static dielectric constant tensor:
#      x y z
#    x 2.101190 0.000000 0.000000 
#    y 0.000000 1.954990 0.000000 
#    z 0.000000 0.000000 2.063890 
# 
# From -- ./inp_files/56264.got.cif
#   From: 2010.05.17/outbox.cif.g08.bks.cpg/sg70_29_cif.got.tgz:56264.got - 2010.06.03 15:57:51.
