data_PCOD9516858
_publ_section_title
;
Structure prediction by ZEFSAII (Michael W. Deem and Ramdas Pophale) SiO2 
 PCOD9516858
Probable space group: F D D D
;
_chemical_formula_sum "Si O2"
_cell_formula_units_Z 120
_cell_length_a 16.927209
_cell_length_b 26.358436
_cell_length_c 11.267423
_cell_angle_alpha 90.000000
_cell_angle_beta 90.000000
_cell_angle_gamma 90.000000
_cell_volume 5027.239697
_symmetry_space_group_name_H-M "F D D D"
_symmetry_group_IT_number 70
_space_group.IT_coordinate_system_code '2'
_symmetry_cell_setting 'orthorhombic'
loop_
_space_group_symop_operation_xyz
x,y,z
1/4-x,1/4-y,z
x,1/4-y,1/4-z
1/4-x,y,1/4-z
-x,-y,-z
3/4+x,3/4+y,-z
-x,3/4+y,3/4+z
3/4+x,-y,3/4+z
x,1/2+y,1/2+z
1/4-x,3/4-y,1/2+z
x,3/4-y,3/4-z
1/4-x,1/2+y,3/4-z
-x,1/2-y,1/2-z
3/4+x,1/4+y,1/2-z
-x,1/4+y,1/4+z
3/4+x,1/2-y,1/4+z
1/2+x,y,1/2+z
3/4-x,1/4-y,1/2+z
1/2+x,1/4-y,3/4-z
3/4-x,y,3/4-z
1/2-x,-y,1/2-z
1/4+x,3/4+y,1/2-z
1/2-x,3/4+y,1/4+z
1/4+x,-y,1/4+z
1/2+x,1/2+y,z
3/4-x,3/4-y,z
1/2+x,3/4-y,1/4-z
3/4-x,1/2+y,1/4-z
1/2-x,1/2-y,-z
1/4+x,1/4+y,-z
1/2-x,1/4+y,3/4+z
1/4+x,1/2-y,3/4+z
loop_
_atom_site_type_symbol
_atom_site_label
_atom_site_fract_x
_atom_site_fract_y
_atom_site_fract_z
Si Si1 0.375000 0.225570 0.875000
Si Si2 0.780452 0.922251 0.654449
Si Si3 0.875000 0.375000 0.375000
Si Si4 0.201062 0.920728 0.706897
Si Si5 0.331518 0.496205 0.119247
O O1 0.445895 0.195681 0.813725
O O2 0.332851 0.255076 0.771836
O O3 0.818441 0.902474 0.777424
O O4 0.757534 0.878231 0.559513
O O5 0.840962 0.963062 0.597433
O O6 0.125000 0.911879 0.625000
O O7 0.172192 0.946348 0.830176
O O8 0.254000 0.965966 0.655348
#
# Coordination Sequence:
#
# PCOD9516858 Si02
#       5
#    16  32   8  32  32
#     4  12  27  44  73 112 152 206 259 328 398 487
#     4  12  25  45  75 110 151 206 258 329 396 465
#     4  12  26  44  80 110 160 210 268 328 390 490
#     4  11  24  45  71 105 150 200 262 325 393 475
#     4  11  25  45  71 108 153 201 262 326 403 471
#
# _framework density 23.869958
#
# number of rings (size 3 to 8) (size 9 to 14) (size 15 to 20)
#    0.000    0.533    4.000    3.200    3.733    1.067 
#    0.000    0.000    5.867    0.000    0.000    0.000 
#    0.000    0.000    0.000    0.000    0.000    0.000 
#
# Total GULP energy -167446.992163 kJ/mol
# GULP energy per Si atom -5581.566405 kJ/mol
# Density = 2.381563 g / cm^3
# Si number density = 23.869958 Si / 1000 Ang^3
#
#
#
# Elastic Constant Matrix: (Units=GPa)
#
#
# Indices 1 2 3 4 5 6 
#
# 1 133.2269 29.7765 38.3518 0.0000 0.0000 0.0000
# 2 29.7765 86.1555 50.9507 0.0000 0.0000 0.0000
# 3 38.3518 50.9507 98.2924 0.0000 0.0000 0.0000
# 4 0.0000 0.0000 0.0000 -45.8486 0.0000 0.0000
# 5 0.0000 0.0000 0.0000 0.0000 38.4613 0.0000
# 6 0.0000 0.0000 0.0000 0.0000 0.0000 -13.9364
#
#
#
# Elastic Compliance Matrix: (Units=1/GPa)
#
#
# Indices 1 2 3 4 5 6 
#
# 1 0.008575 -0.001420 -0.002609 0.000000 0.000000 0.000000
# 2 -0.001420 0.016973 -0.008244 0.000000 0.000000 0.000000
# 3 -0.002609 -0.008244 0.015465 0.000000 0.000000 0.000000
# 4 0.000000 0.000000 0.000000 -0.021811 0.000000 0.000000
# 5 0.000000 0.000000 0.000000 0.000000 0.026000 0.000000
# 6 0.000000 0.000000 0.000000 0.000000 0.000000 -0.071755
#
#
# Mechanical properties :
#
#
# Convention : Reuss Voigt Hill
#
# Bulk Modulus (GPa) = 60.73305 61.75918 61.24612
# Shear Modulus (GPa) = 1435.41709 8.97501 722.19605
#
# Velocity S-wave (km/s) = 24.54902 1.94116 17.41296
# Velocity P-wave (km/s) = 28.79301 5.56359 20.73633
#
# Compressibility (1/GPa) = 0.01646550
#
# Stress axis : x y z
#
# Youngs Moduli (GPa) = 116.62348 58.91668 64.66136
#
# Poissons Ratio (x) = 0.08368 0.16873
# Poissons Ratio (y) = 0.16565 0.53307
# Poissons Ratio (z) = 0.30432 0.48571
#
# Static dielectric constant tensor:
#      x y z
#    x 1.863320 0.000000 0.000000 
#    y 0.000000 2.091100 0.000000 
#    z 0.000000 0.000000 1.925570 
# 
# From -- ./inp_files/17811.got.cif
#   From: 2010.05.17/outbox.cif.g08.bks.cpg/sg70_9_cif.got.tgz:17811.got - 2010.06.03 15:57:51.
