data_PCOD9516535
_publ_section_title
;
Structure prediction by ZEFSAII (Michael W. Deem and Ramdas Pophale) SiO2 
 PCOD9516535
Probable space group: F D D D
;
_chemical_formula_sum "Si O2"
_cell_formula_units_Z 160
_cell_length_a 21.735594
_cell_length_b 23.393013
_cell_length_c 14.103443
_cell_angle_alpha 90.000000
_cell_angle_beta 90.000000
_cell_angle_gamma 90.000000
_cell_volume 7171.051197
_symmetry_space_group_name_H-M "F D D D"
_symmetry_group_IT_number 70
_space_group.IT_coordinate_system_code '2'
_symmetry_cell_setting 'orthorhombic'
loop_
_space_group_symop_operation_xyz
x,y,z
1/4-x,1/4-y,z
x,1/4-y,1/4-z
1/4-x,y,1/4-z
-x,-y,-z
3/4+x,3/4+y,-z
-x,3/4+y,3/4+z
3/4+x,-y,3/4+z
x,1/2+y,1/2+z
1/4-x,3/4-y,1/2+z
x,3/4-y,3/4-z
1/4-x,1/2+y,3/4-z
-x,1/2-y,1/2-z
3/4+x,1/4+y,1/2-z
-x,1/4+y,1/4+z
3/4+x,1/2-y,1/4+z
1/2+x,y,1/2+z
3/4-x,1/4-y,1/2+z
1/2+x,1/4-y,3/4-z
3/4-x,y,3/4-z
1/2-x,-y,1/2-z
1/4+x,3/4+y,1/2-z
1/2-x,3/4+y,1/4+z
1/4+x,-y,1/4+z
1/2+x,1/2+y,z
3/4-x,3/4-y,z
1/2+x,3/4-y,1/4-z
3/4-x,1/2+y,1/4-z
1/2-x,1/2-y,-z
1/4+x,1/4+y,-z
1/2-x,1/4+y,3/4+z
1/4+x,1/2-y,3/4+z
loop_
_atom_site_type_symbol
_atom_site_label
_atom_site_fract_x
_atom_site_fract_y
_atom_site_fract_z
Si Si1 0.754737 0.091026 0.027825
Si Si2 0.734037 0.701242 0.423240
Si Si3 0.577922 0.420919 0.711309
Si Si4 0.885983 0.707153 0.764685
Si Si5 0.904199 0.478440 0.658172
O O1 0.737257 0.125000 0.125000
O O2 0.765846 0.143932 0.959323
O O3 0.818651 0.056631 0.031661
O O4 0.702005 0.055858 0.973421
O O5 0.750000 0.750000 0.500000
O O6 0.764910 0.702347 0.320352
O O7 0.661165 0.697298 0.417296
O O8 0.625000 0.431419 0.625000
O O9 0.577534 0.353503 0.733860
O O10 0.601805 0.457953 0.798549
O O11 0.875000 0.722508 0.875000
O O12 0.916974 0.757013 0.702034
#
# Coordination Sequence:
#
# PCOD9516535 Si02
#       5
#    32  32  32  32  32
#     4  12  25  42  68 106 143 178 232 301 364 434
#     4  12  22  40  64  97 138 177 230 283 363 427
#     4  11  20  39  66  92 131 184 227 282 344 427
#     4  11  23  46  69  94 137 191 248 280 337 442
#     4  12  25  38  67 102 140 176 227 297 365 408
#
# _framework density 22.311931000000001
#
# number of rings (size 3 to 8) (size 9 to 14) (size 15 to 20)
#    0.000    0.400    6.000    6.000    0.000    1.600 
#    0.000    0.000    0.000    1.200    0.000    0.000 
#    0.000    0.000    0.000    0.000    0.000    0.000 
#
# Total GULP energy -223242.690588 kJ/mol
# GULP energy per Si atom -5581.067265 kJ/mol
# Density = 2.226115 g / cm^3
# Si number density = 22.311931 Si / 1000 Ang^3
#
#
#
# Elastic Constant Matrix: (Units=GPa)
#
#
# Indices 1 2 3 4 5 6 
#
# 1 125.4076 34.1133 47.1735 0.0000 0.0000 0.0000
# 2 34.1133 61.8782 39.0118 0.0000 0.0000 0.0000
# 3 47.1735 39.0118 126.6279 0.0000 0.0000 0.0000
# 4 0.0000 0.0000 0.0000 30.4025 0.0000 0.0000
# 5 0.0000 0.0000 0.0000 0.0000 35.8251 0.0000
# 6 0.0000 0.0000 0.0000 0.0000 0.0000 6.0632
#
#
#
# Elastic Compliance Matrix: (Units=1/GPa)
#
#
# Indices 1 2 3 4 5 6 
#
# 1 0.009986 -0.003921 -0.002512 0.000000 0.000000 0.000000
# 2 -0.003921 0.021596 -0.005193 0.000000 0.000000 0.000000
# 3 -0.002512 -0.005193 0.010433 0.000000 0.000000 0.000000
# 4 0.000000 0.000000 0.000000 0.032892 0.000000 0.000000
# 5 0.000000 0.000000 0.000000 0.000000 0.027913 0.000000
# 6 0.000000 0.000000 0.000000 0.000000 0.000000 0.164930
#
#
# Mechanical properties :
#
#
# Convention : Reuss Voigt Hill
#
# Bulk Modulus (GPa) = 53.29673 61.61232 57.45452
# Shear Modulus (GPa) = 16.82049 27.36583 22.09316
#
# Velocity S-wave (km/s) = 2.74866 3.50596 3.15015
# Velocity P-wave (km/s) = 5.83202 6.63800 6.24802
#
# Compressibility (1/GPa) = 0.01876288
#
# Stress axis : x y z
#
# Youngs Moduli (GPa) = 100.14457 46.30411 95.85274
#
# Poissons Ratio (x) = 0.18158 0.24077
# Poissons Ratio (y) = 0.39270 0.49772
# Poissons Ratio (z) = 0.25155 0.24044
#
# Static dielectric constant tensor:
#      x y z
#    x 1.776050 0.000000 0.000000 
#    y 0.000000 1.860970 0.000000 
#    z 0.000000 0.000000 2.019730 
# 
# From -- ./inp_files/28643.got.cif
#   From: 2010.05.17/outbox.cif.g08.bks.cpg/sg70_15_cif.got.tgz:28643.got - 2010.06.03 15:57:51.
