data_PCOD9516183
_publ_section_title
;
Structure prediction by ZEFSAII (Michael W. Deem and Ramdas Pophale) SiO2 
 PCOD9516183
Probable space group: F D D D
;
_chemical_formula_sum "Si O2"
_cell_formula_units_Z 216
_cell_length_a 15.045976
_cell_length_b 25.318159
_cell_length_c 24.072049
_cell_angle_alpha 90.000000
_cell_angle_beta 90.000000
_cell_angle_gamma 90.000000
_cell_volume 9169.919992
_symmetry_space_group_name_H-M "F D D D"
_symmetry_group_IT_number 70
_space_group.IT_coordinate_system_code '2'
_symmetry_cell_setting 'orthorhombic'
loop_
_space_group_symop_operation_xyz
x,y,z
1/4-x,1/4-y,z
x,1/4-y,1/4-z
1/4-x,y,1/4-z
-x,-y,-z
3/4+x,3/4+y,-z
-x,3/4+y,3/4+z
3/4+x,-y,3/4+z
x,1/2+y,1/2+z
1/4-x,3/4-y,1/2+z
x,3/4-y,3/4-z
1/4-x,1/2+y,3/4-z
-x,1/2-y,1/2-z
3/4+x,1/4+y,1/2-z
-x,1/4+y,1/4+z
3/4+x,1/2-y,1/4+z
1/2+x,y,1/2+z
3/4-x,1/4-y,1/2+z
1/2+x,1/4-y,3/4-z
3/4-x,y,3/4-z
1/2-x,-y,1/2-z
1/4+x,3/4+y,1/2-z
1/2-x,3/4+y,1/4+z
1/4+x,-y,1/4+z
1/2+x,1/2+y,z
3/4-x,3/4-y,z
1/2+x,3/4-y,1/4-z
3/4-x,1/2+y,1/4-z
1/2-x,1/2-y,-z
1/4+x,1/4+y,-z
1/2-x,1/4+y,3/4+z
1/4+x,1/2-y,3/4+z
loop_
_atom_site_type_symbol
_atom_site_label
_atom_site_fract_x
_atom_site_fract_y
_atom_site_fract_z
Si Si1 0.875000 0.159800 0.875000
Si Si2 0.041589 0.048927 0.211150
Si Si3 0.741559 0.255776 0.864859
Si Si4 0.598538 0.184407 0.823848
Si Si5 0.722838 0.933465 0.582395
Si Si6 0.396059 0.091323 0.068508
Si Si7 0.625000 0.125000 0.625000
Si Si8 0.046707 0.162749 0.525593
O O1 0.794055 0.201062 0.871033
O O2 0.840429 0.117487 0.920077
O O3 0.108793 0.061748 0.261977
O O4 0.067448 0.087710 0.162655
O O5 0.935612 0.063753 0.214976
O O6 0.059485 0.989262 0.191448
O O7 0.644181 0.235983 0.849306
O O8 0.719506 0.296989 0.913459
O O9 0.790423 0.286100 0.814631
O O10 0.625000 0.125000 0.841458
O O11 0.502271 0.188577 0.853051
O O12 0.804799 0.923834 0.539869
O O13 0.370990 0.125000 0.125000
O O14 0.452546 0.134057 0.034680
O O15 0.125000 0.125000 0.544818
#
# Coordination Sequence:
#
# PCOD9516183 Si02
#       8
#    16  32  32  32  32  32   8  32
#     4  12  27  44  71 105 146 195 250 300 384 464
#     4  12  25  48  76 111 148 200 262 309 388 457
#     4  11  23  46  73 105 149 197 247 311 381 450
#     4  12  24  46  73 105 151 198 239 314 382 440
#     4  12  27  46  70 107 151 196 251 317 373 458
#     4  10  23  44  78 110 151 197 255 321 374 454
#     4  12  26  48  76 112 146 194 260 332 368 472
#     4  11  25  44  71 112 150 195 252 314 379 458
#
# _framework density 23.555275999999999
#
# number of rings (size 3 to 8) (size 9 to 14) (size 15 to 20)
#    0.000    0.593    5.926    1.778    2.074    2.074 
#    0.000    3.704    0.000    0.000    0.000    0.000 
#    0.000    0.000    0.000    0.000    0.000    0.000 
#
# Total GULP energy -300692.454541 kJ/mol
# GULP energy per Si atom -5568.378788 kJ/mol
# Density = 2.350166 g / cm^3
# Si number density = 23.555276 Si / 1000 Ang^3
#
#
#
# Elastic Constant Matrix: (Units=GPa)
#
#
# Indices 1 2 3 4 5 6 
#
# 1 59.7554 21.5913 26.1181 0.0000 0.0000 0.0000
# 2 21.5913 164.8342 28.3911 0.0000 0.0000 0.0000
# 3 26.1181 28.3911 87.6086 0.0000 0.0000 0.0000
# 4 0.0000 0.0000 0.0000 6.7608 0.0000 0.0000
# 5 0.0000 0.0000 0.0000 0.0000 -66.8450 0.0000
# 6 0.0000 0.0000 0.0000 0.0000 0.0000 51.6067
#
#
#
# Elastic Compliance Matrix: (Units=1/GPa)
#
#
# Indices 1 2 3 4 5 6 
#
# 1 0.019661 -0.001658 -0.005324 0.000000 0.000000 0.000000
# 2 -0.001658 0.006565 -0.001633 0.000000 0.000000 0.000000
# 3 -0.005324 -0.001633 0.013531 0.000000 0.000000 0.000000
# 4 0.000000 0.000000 0.000000 0.147910 0.000000 0.000000
# 5 0.000000 0.000000 0.000000 0.000000 -0.014960 0.000000
# 6 0.000000 0.000000 0.000000 0.000000 0.000000 0.019377
#
#
# Mechanical properties :
#
#
# Convention : Reuss Voigt Hill
#
# Bulk Modulus (GPa) = 44.39289 51.59992 47.99641
# Shear Modulus (GPa) = 23.06008 14.04434 18.55221
#
# Velocity S-wave (km/s) = 3.13226 2.44443 2.80947
# Velocity P-wave (km/s) = 5.65407 5.46996 5.56278
#
# Compressibility (1/GPa) = 0.02252613
#
# Stress axis : x y z
#
# Youngs Moduli (GPa) = 50.86176 152.31761 73.90500
#
# Poissons Ratio (x) = 0.25260 0.39347
# Poissons Ratio (y) = 0.08435 0.12070
# Poissons Ratio (z) = 0.27079 0.24876
#
# Static dielectric constant tensor:
#      x y z
#    x 2.012240 0.000000 0.000000 
#    y 0.000000 1.834480 0.000000 
#    z 0.000000 0.000000 1.950760 
# 
# From -- ./inp_files/58800.got.cif
#   From: 2010.05.17/outbox.cif.g08.bks.cpg/sg70_30_cif.got.tgz:58800.got - 2010.06.03 15:57:51.
