data_PCOD9516404
_publ_section_title
;
Structure prediction by ZEFSAII (Michael W. Deem and Ramdas Pophale) SiO2 
 PCOD9516404
Probable space group: F D D D
;
_chemical_formula_sum "Si O2"
_cell_formula_units_Z 160
_cell_length_a 17.539340
_cell_length_b 18.538903
_cell_length_c 19.991314
_cell_angle_alpha 90.000000
_cell_angle_beta 90.000000
_cell_angle_gamma 90.000000
_cell_volume 6500.378118
_symmetry_space_group_name_H-M "F D D D"
_symmetry_group_IT_number 70
_space_group.IT_coordinate_system_code '2'
_symmetry_cell_setting 'orthorhombic'
loop_
_space_group_symop_operation_xyz
x,y,z
1/4-x,1/4-y,z
x,1/4-y,1/4-z
1/4-x,y,1/4-z
-x,-y,-z
3/4+x,3/4+y,-z
-x,3/4+y,3/4+z
3/4+x,-y,3/4+z
x,1/2+y,1/2+z
1/4-x,3/4-y,1/2+z
x,3/4-y,3/4-z
1/4-x,1/2+y,3/4-z
-x,1/2-y,1/2-z
3/4+x,1/4+y,1/2-z
-x,1/4+y,1/4+z
3/4+x,1/2-y,1/4+z
1/2+x,y,1/2+z
3/4-x,1/4-y,1/2+z
1/2+x,1/4-y,3/4-z
3/4-x,y,3/4-z
1/2-x,-y,1/2-z
1/4+x,3/4+y,1/2-z
1/2-x,3/4+y,1/4+z
1/4+x,-y,1/4+z
1/2+x,1/2+y,z
3/4-x,3/4-y,z
1/2+x,3/4-y,1/4-z
3/4-x,1/2+y,1/4-z
1/2-x,1/2-y,-z
1/4+x,1/4+y,-z
1/2-x,1/4+y,3/4+z
1/4+x,1/2-y,3/4+z
loop_
_atom_site_type_symbol
_atom_site_label
_atom_site_fract_x
_atom_site_fract_y
_atom_site_fract_z
Si Si1 0.963469 0.397078 0.299570
Si Si2 0.255763 0.181585 0.795026
Si Si3 0.122998 0.233043 0.723940
Si Si4 0.694689 0.875513 0.671361
Si Si5 0.710306 0.922234 0.310430
O O1 0.985444 0.375000 0.375000
O O2 0.875000 0.375000 0.289596
O O3 0.971071 0.484525 0.295596
O O4 0.017053 0.359102 0.243602
O O5 0.185618 0.175541 0.743338
O O6 0.240880 0.145781 0.866586
O O7 0.310578 0.127607 0.754098
O O8 0.168849 0.293075 0.682010
O O9 0.098769 0.263860 0.797054
O O10 0.043945 0.208576 0.691443
O O11 0.625000 0.910563 0.625000
O O12 0.699633 0.875000 0.375000
#
# Coordination Sequence:
#
# PCOD9516404 Si02
#       5
#    32  32  32  32  32
#     4  10  26  47  72 110 144 190 254 310 366 448
#     4  11  25  44  72 102 142 194 246 291 385 435
#     4  10  25  43  67 103 140 175 246 290 348 443
#     4  11  24  47  73 101 146 193 236 306 374 434
#     4  11  25  41  70 101 140 185 232 296 360 424
#
# _framework density 24.613952000000001
#
# number of rings (size 3 to 8) (size 9 to 14) (size 15 to 20)
#    0.000    1.400    2.000    0.600    8.400    8.000 
#    0.000    0.000    0.000    0.000    0.000    0.000 
#    0.000    0.000    0.000    0.000    0.000    0.000 
#
# Total GULP energy -222891.101650 kJ/mol
# GULP energy per Si atom -5572.277541 kJ/mol
# Density = 2.455793 g / cm^3
# Si number density = 24.613952 Si / 1000 Ang^3
#
#
#
# Elastic Constant Matrix: (Units=GPa)
#
#
# Indices 1 2 3 4 5 6 
#
# 1 84.7100 18.1852 29.3986 0.0000 0.0000 0.0000
# 2 18.1852 76.2977 10.7641 0.0000 0.0000 0.0000
# 3 29.3986 10.7641 176.1413 0.0000 0.0000 0.0000
# 4 0.0000 0.0000 0.0000 50.6351 0.0000 0.0000
# 5 0.0000 0.0000 0.0000 0.0000 25.1585 0.0000
# 6 0.0000 0.0000 0.0000 0.0000 0.0000 29.4361
#
#
#
# Elastic Compliance Matrix: (Units=1/GPa)
#
#
# Indices 1 2 3 4 5 6 
#
# 1 0.013114 -0.002841 -0.002015 0.000000 0.000000 0.000000
# 2 -0.002841 0.013836 -0.000371 0.000000 0.000000 0.000000
# 3 -0.002015 -0.000371 0.006036 0.000000 0.000000 0.000000
# 4 0.000000 0.000000 0.000000 0.019749 0.000000 0.000000
# 5 0.000000 0.000000 0.000000 0.000000 0.039748 0.000000
# 6 0.000000 0.000000 0.000000 0.000000 0.000000 0.033972
#
#
# Mechanical properties :
#
#
# Convention : Reuss Voigt Hill
#
# Bulk Modulus (GPa) = 44.38335 50.42720 47.40528
# Shear Modulus (GPa) = 34.62075 39.63266 37.12671
#
# Velocity S-wave (km/s) = 3.75447 4.01705 3.88797
# Velocity P-wave (km/s) = 6.07171 6.48439 6.28144
#
# Compressibility (1/GPa) = 0.02253097
#
# Stress axis : x y z
#
# Youngs Moduli (GPa) = 76.25239 72.27432 165.66456
#
# Poissons Ratio (x) = 0.20536 0.33385
# Poissons Ratio (y) = 0.21667 0.06151
# Poissons Ratio (z) = 0.15366 0.02683
#
# Static dielectric constant tensor:
#      x y z
#    x 2.124630 0.000000 0.000000 
#    y 0.000000 1.938480 0.000000 
#    z 0.000000 0.000000 2.032460 
# 
# From -- ./inp_files/43663.got.cif
#   From: 2010.05.17/outbox.cif.g08.bks.cpg/sg70_22_cif.got.tgz:43663.got - 2010.06.03 15:57:51.
