data_PCOD9516549
_publ_section_title
;
Structure prediction by ZEFSAII (Michael W. Deem and Ramdas Pophale) SiO2 
 PCOD9516549
Probable space group: F D D D
;
_chemical_formula_sum "Si O2"
_cell_formula_units_Z 96
_cell_length_a 11.349629
_cell_length_b 11.850863
_cell_length_c 28.643773
_cell_angle_alpha 90.000000
_cell_angle_beta 90.000000
_cell_angle_gamma 90.000000
_cell_volume 3852.670489
_symmetry_space_group_name_H-M "F D D D"
_symmetry_group_IT_number 70
_space_group.IT_coordinate_system_code '2'
_symmetry_cell_setting 'orthorhombic'
loop_
_space_group_symop_operation_xyz
x,y,z
1/4-x,1/4-y,z
x,1/4-y,1/4-z
1/4-x,y,1/4-z
-x,-y,-z
3/4+x,3/4+y,-z
-x,3/4+y,3/4+z
3/4+x,-y,3/4+z
x,1/2+y,1/2+z
1/4-x,3/4-y,1/2+z
x,3/4-y,3/4-z
1/4-x,1/2+y,3/4-z
-x,1/2-y,1/2-z
3/4+x,1/4+y,1/2-z
-x,1/4+y,1/4+z
3/4+x,1/2-y,1/4+z
1/2+x,y,1/2+z
3/4-x,1/4-y,1/2+z
1/2+x,1/4-y,3/4-z
3/4-x,y,3/4-z
1/2-x,-y,1/2-z
1/4+x,3/4+y,1/2-z
1/2-x,3/4+y,1/4+z
1/4+x,-y,1/4+z
1/2+x,1/2+y,z
3/4-x,3/4-y,z
1/2+x,3/4-y,1/4-z
3/4-x,1/2+y,1/4-z
1/2-x,1/2-y,-z
1/4+x,1/4+y,-z
1/2-x,1/4+y,3/4+z
1/4+x,1/2-y,3/4+z
loop_
_atom_site_type_symbol
_atom_site_label
_atom_site_fract_x
_atom_site_fract_y
_atom_site_fract_z
Si Si1 0.875000 0.667732 0.375000
Si Si2 0.743379 0.364324 0.970769
Si Si3 0.605825 0.249539 0.711981
Si Si4 0.198123 0.875000 0.875000
O O1 0.851379 0.589388 0.329999
O O2 0.764970 0.753566 0.377881
O O3 0.875000 0.375000 0.950048
O O4 0.651392 0.374608 0.927938
O O5 0.750000 0.250000 0.000000
O O6 0.717633 0.463518 0.006636
O O7 0.500000 0.250000 0.750000
O O8 0.625000 0.125000 0.693065
#
# Coordination Sequence:
#
# PCOD9516549 Si02
#       4
#    16  32  32  16
#     4  11  21  44  70  96 141 189 230 298 352 441
#     4  12  22  44  72 103 136 186 241 293 350 441
#     4  12  26  46  68 104 148 183 233 304 376 429
#     4  11  20  42  74 100 131 180 249 288 338 430
#
# _framework density 24.917781000000002
#
# number of rings (size 3 to 8) (size 9 to 14) (size 15 to 20)
#    0.000    0.333    6.667    4.500    0.000    0.000 
#   12.000    0.000    0.000    0.000    0.000    0.000 
#    0.000    0.000    0.000    0.000    0.000    0.000 
#
# Total GULP energy -133979.864014 kJ/mol
# GULP energy per Si atom -5582.494334 kJ/mol
# Density = 2.486107 g / cm^3
# Si number density = 24.917781 Si / 1000 Ang^3
#
#
#
# Elastic Constant Matrix: (Units=GPa)
#
#
# Indices 1 2 3 4 5 6 
#
# 1 65.1854 18.4388 21.8314 0.0000 0.0000 0.0000
# 2 18.4388 190.0516 78.5839 0.0000 0.0000 0.0000
# 3 21.8314 78.5839 202.3684 0.0000 0.0000 0.0000
# 4 0.0000 0.0000 0.0000 74.7178 0.0000 0.0000
# 5 0.0000 0.0000 0.0000 0.0000 30.2579 0.0000
# 6 0.0000 0.0000 0.0000 0.0000 0.0000 14.6717
#
#
#
# Elastic Compliance Matrix: (Units=1/GPa)
#
#
# Indices 1 2 3 4 5 6 
#
# 1 0.016075 -0.001004 -0.001344 0.000000 0.000000 0.000000
# 2 -0.001004 0.006331 -0.002350 0.000000 0.000000 0.000000
# 3 -0.001344 -0.002350 0.005999 0.000000 0.000000 0.000000
# 4 0.000000 0.000000 0.000000 0.013384 0.000000 0.000000
# 5 0.000000 0.000000 0.000000 0.000000 0.033049 0.000000
# 6 0.000000 0.000000 0.000000 0.000000 0.000000 0.068158
#
#
# Mechanical properties :
#
#
# Convention : Reuss Voigt Hill
#
# Bulk Modulus (GPa) = 52.60793 77.25707 64.93250
# Shear Modulus (GPa) = 31.50021 46.51289 39.00655
#
# Velocity S-wave (km/s) = 3.55937 4.32517 3.96082
# Velocity P-wave (km/s) = 6.16852 7.48431 6.85804
#
# Compressibility (1/GPa) = 0.01900854
#
# Stress axis : x y z
#
# Youngs Moduli (GPa) = 62.20824 157.95659 166.69118
#
# Poissons Ratio (x) = 0.15854 0.22410
# Poissons Ratio (y) = 0.06244 0.39174
# Poissons Ratio (z) = 0.08363 0.37122
#
# Static dielectric constant tensor:
#      x y z
#    x 2.067960 0.000000 0.000000 
#    y 0.000000 1.920330 0.000000 
#    z 0.000000 0.000000 2.023790 
# 
# From -- ./inp_files/65407.got.cif
#   From: 2010.05.17/outbox.cif.g08.bks.cpg/sg70_33_cif.got.tgz:65407.got - 2010.06.03 15:57:51.
