data_PCOD9516127
_publ_section_title
;
Structure prediction by ZEFSAII (Michael W. Deem and Ramdas Pophale) SiO2 
 PCOD9516127
Probable space group: F D D D
;
_chemical_formula_sum "Si O2"
_cell_formula_units_Z 216
_cell_length_a 13.142978
_cell_length_b 30.081507
_cell_length_c 25.023825
_cell_angle_alpha 90.000000
_cell_angle_beta 90.000000
_cell_angle_gamma 90.000000
_cell_volume 9893.434084
_symmetry_space_group_name_H-M "F D D D"
_symmetry_group_IT_number 70
_space_group.IT_coordinate_system_code '2'
_symmetry_cell_setting 'orthorhombic'
loop_
_space_group_symop_operation_xyz
x,y,z
1/4-x,1/4-y,z
x,1/4-y,1/4-z
1/4-x,y,1/4-z
-x,-y,-z
3/4+x,3/4+y,-z
-x,3/4+y,3/4+z
3/4+x,-y,3/4+z
x,1/2+y,1/2+z
1/4-x,3/4-y,1/2+z
x,3/4-y,3/4-z
1/4-x,1/2+y,3/4-z
-x,1/2-y,1/2-z
3/4+x,1/4+y,1/2-z
-x,1/4+y,1/4+z
3/4+x,1/2-y,1/4+z
1/2+x,y,1/2+z
3/4-x,1/4-y,1/2+z
1/2+x,1/4-y,3/4-z
3/4-x,y,3/4-z
1/2-x,-y,1/2-z
1/4+x,3/4+y,1/2-z
1/2-x,3/4+y,1/4+z
1/4+x,-y,1/4+z
1/2+x,1/2+y,z
3/4-x,3/4-y,z
1/2+x,3/4-y,1/4-z
3/4-x,1/2+y,1/4-z
1/2-x,1/2-y,-z
1/4+x,1/4+y,-z
1/2-x,1/4+y,3/4+z
1/4+x,1/2-y,3/4+z
loop_
_atom_site_type_symbol
_atom_site_label
_atom_site_fract_x
_atom_site_fract_y
_atom_site_fract_z
Si Si1 0.375000 0.875000 0.875000
Si Si2 0.713434 0.225908 0.255218
Si Si3 0.987842 0.804096 0.302199
Si Si4 0.602304 0.969209 0.848779
Si Si5 0.956542 0.125000 0.125000
Si Si6 0.688062 0.692068 0.868251
Si Si7 0.209341 0.826982 0.271112
Si Si8 0.231109 0.397418 0.099405
O O1 0.312603 0.843648 0.914218
O O2 0.597968 0.219393 0.233272
O O3 0.786913 0.218480 0.205000
O O4 0.722950 0.195372 0.306926
O O5 0.735348 0.275240 0.276672
O O6 0.031490 0.772508 0.348999
O O7 0.085447 0.825480 0.273252
O O8 0.646856 0.919807 0.857191
O O9 0.681610 0.009931 0.852712
O O10 0.003201 0.106529 0.180485
O O11 0.757364 0.655515 0.896118
O O12 0.574510 0.671438 0.871117
O O13 0.240959 0.841209 0.212646
O O14 0.125000 0.412106 0.125000
#
# Coordination Sequence:
#
# PCOD9516127 Si02
#       8
#     8  32  32  32  16  32  32  32
#     4  12  22  36  56 104 154 162 216 286 340 442
#     4  12  22  36  66  92 136 183 222 283 348 417
#     4  11  22  34  59 100 138 184 220 265 350 430
#     4  11  22  40  64  96 142 174 228 286 338 425
#     4  10  23  42  67  99 129 176 234 283 350 406
#     4  11  25  45  65 104 136 181 236 287 352 416
#     4  11  23  40  64  90 133 185 228 281 342 406
#     4  11  26  44  67 101 145 186 232 288 351 416
#
# _framework density 21.832661999999999
#
# number of rings (size 3 to 8) (size 9 to 14) (size 15 to 20)
#    0.000    0.889    5.926    3.111    4.148    1.185 
#    0.000    0.741    0.000    1.778    0.000    0.000 
#    0.000    0.000    0.000    0.000    0.000    0.000 
#
# Total GULP energy -301618.986024 kJ/mol
# GULP energy per Si atom -5585.536778 kJ/mol
# Density = 2.178297 g / cm^3
# Si number density = 21.832662 Si / 1000 Ang^3
#
#
#
# Elastic Constant Matrix: (Units=GPa)
#
#
# Indices 1 2 3 4 5 6 
#
# 1 20.0814 -0.3544 -4.4825 0.0000 0.0000 0.0000
# 2 -0.3544 106.5024 15.9163 0.0000 0.0000 0.0000
# 3 -4.4825 15.9163 104.4154 0.0000 0.0000 0.0000
# 4 0.0000 0.0000 0.0000 42.6032 0.0000 0.0000
# 5 0.0000 0.0000 0.0000 0.0000 2.2289 0.0000
# 6 0.0000 0.0000 0.0000 0.0000 0.0000 20.8267
#
#
#
# Elastic Compliance Matrix: (Units=1/GPa)
#
#
# Indices 1 2 3 4 5 6 
#
# 1 0.050282 -0.000159 0.002183 0.000000 0.000000 0.000000
# 2 -0.000159 0.009609 -0.001472 0.000000 0.000000 0.000000
# 3 0.002183 -0.001472 0.009895 0.000000 0.000000 0.000000
# 4 0.000000 0.000000 0.000000 0.023472 0.000000 0.000000
# 5 0.000000 0.000000 0.000000 0.000000 0.448650 0.000000
# 6 0.000000 0.000000 0.000000 0.000000 0.000000 0.048015
#
#
# Mechanical properties :
#
#
# Convention : Reuss Voigt Hill
#
# Bulk Modulus (GPa) = 14.10630 28.12868 21.11749
# Shear Modulus (GPa) = 8.16395 27.79308 17.97851
#
# Velocity S-wave (km/s) = 1.93583 3.57179 2.87273
# Velocity P-wave (km/s) = 3.38699 5.47010 4.54938
#
# Compressibility (1/GPa) = 0.07089032
#
# Stress axis : x y z
#
# Youngs Moduli (GPa) = 19.88797 104.07076 101.05967
#
# Poissons Ratio (x) = 0.01654 -0.22059
# Poissons Ratio (y) = 0.00316 0.14871
# Poissons Ratio (z) = -0.04341 0.15314
#
# Static dielectric constant tensor:
#      x y z
#    x 1.100940 0.000000 0.000000 
#    y 0.000000 1.882700 0.000000 
#    z 0.000000 0.000000 1.771490 
# 
# From -- ./inp_files/51599.got.cif
#   From: 2010.05.17/outbox.cif.g08.bks.cpg/sg70_26_cif.got.tgz:51599.got - 2010.06.03 15:57:51.
