data_PCOD9516034
_publ_section_title
;
Structure prediction by ZEFSAII (Michael W. Deem and Ramdas Pophale) SiO2 
 PCOD9516034
Probable space group: F D D D
;
_chemical_formula_sum "Si O2"
_cell_formula_units_Z 72
_cell_length_a 11.470721
_cell_length_b 13.581376
_cell_length_c 15.507195
_cell_angle_alpha 90.000000
_cell_angle_beta 90.000000
_cell_angle_gamma 90.000000
_cell_volume 2415.837607
_symmetry_space_group_name_H-M "F D D D"
_symmetry_group_IT_number 70
_space_group.IT_coordinate_system_code '2'
_symmetry_cell_setting 'orthorhombic'
loop_
_space_group_symop_operation_xyz
x,y,z
1/4-x,1/4-y,z
x,1/4-y,1/4-z
1/4-x,y,1/4-z
-x,-y,-z
3/4+x,3/4+y,-z
-x,3/4+y,3/4+z
3/4+x,-y,3/4+z
x,1/2+y,1/2+z
1/4-x,3/4-y,1/2+z
x,3/4-y,3/4-z
1/4-x,1/2+y,3/4-z
-x,1/2-y,1/2-z
3/4+x,1/4+y,1/2-z
-x,1/4+y,1/4+z
3/4+x,1/2-y,1/4+z
1/2+x,y,1/2+z
3/4-x,1/4-y,1/2+z
1/2+x,1/4-y,3/4-z
3/4-x,y,3/4-z
1/2-x,-y,1/2-z
1/4+x,3/4+y,1/2-z
1/2-x,3/4+y,1/4+z
1/4+x,-y,1/4+z
1/2+x,1/2+y,z
3/4-x,3/4-y,z
1/2+x,3/4-y,1/4-z
3/4-x,1/2+y,1/4-z
1/2-x,1/2-y,-z
1/4+x,1/4+y,-z
1/2-x,1/4+y,3/4+z
1/4+x,1/2-y,3/4+z
loop_
_atom_site_type_symbol
_atom_site_label
_atom_site_fract_x
_atom_site_fract_y
_atom_site_fract_z
Si Si1 0.912953 0.263495 0.465478
Si Si2 0.875000 0.875000 0.375000
Si Si3 0.154529 0.007080 0.844090
O O1 0.875000 0.213355 0.375000
O O2 0.875000 0.375000 0.461034
O O3 0.872663 0.223959 0.557557
O O4 0.051739 0.271694 0.469482
O O5 0.779282 0.951275 0.330688
O O6 0.125000 0.125000 0.846287
#
# Coordination Sequence:
#
# PCOD9516034 Si02
#       3
#    32   8  32
#     4  10  22  46  76 108 155 203 257 317 392 462
#     4  12  28  52  78 114 160 200 262 322 384 466
#     4  11  27  48  78 114 155 206 258 324 386 468
#
# _framework density 29.803326999999999
#
# number of rings (size 3 to 8) (size 9 to 14) (size 15 to 20)
#    0.000    1.333    0.000    4.000    6.222    5.333 
#    0.000    0.000    0.000    0.000    0.000    0.000 
#    0.000    0.000    0.000    0.000    0.000    0.000 
#
# Total GULP energy -100462.627029 kJ/mol
# GULP energy per Si atom -5581.257057 kJ/mol
# Density = 2.973549 g / cm^3
# Si number density = 29.803327 Si / 1000 Ang^3
#
#
#
# Elastic Constant Matrix: (Units=GPa)
#
#
# Indices 1 2 3 4 5 6 
#
# 1 194.1707 63.0900 11.9570 0.0000 0.0000 0.0000
# 2 63.0900 162.1650 -15.5158 0.0000 0.0000 0.0000
# 3 11.9570 -15.5158 77.5864 0.0000 0.0000 0.0000
# 4 0.0000 0.0000 0.0000 18.9117 0.0000 0.0000
# 5 0.0000 0.0000 0.0000 0.0000 82.8481 0.0000
# 6 0.0000 0.0000 0.0000 0.0000 0.0000 75.0972
#
#
#
# Elastic Compliance Matrix: (Units=1/GPa)
#
#
# Indices 1 2 3 4 5 6 
#
# 1 0.006047 -0.002489 -0.001430 0.000000 0.000000 0.000000
# 2 -0.002489 0.007312 0.001846 0.000000 0.000000 0.000000
# 3 -0.001430 0.001846 0.013478 0.000000 0.000000 0.000000
# 4 0.000000 0.000000 0.000000 0.052877 0.000000 0.000000
# 5 0.000000 0.000000 0.000000 0.000000 0.012070 0.000000
# 6 0.000000 0.000000 0.000000 0.000000 0.000000 0.013316
#
#
# Mechanical properties :
#
#
# Convention : Reuss Voigt Hill
#
# Bulk Modulus (GPa) = 44.07146 61.44274 52.75710
# Shear Modulus (GPa) = 42.80427 60.33079 51.56753
#
# Velocity S-wave (km/s) = 3.79387 4.50410 4.16415
# Velocity P-wave (km/s) = 5.83188 6.90725 6.39221
#
# Compressibility (1/GPa) = 0.02269042
#
# Stress axis : x y z
#
# Youngs Moduli (GPa) = 165.37130 136.76804 74.19312
#
# Poissons Ratio (x) = 0.34047 0.10608
# Poissons Ratio (y) = 0.41167 -0.13695
# Poissons Ratio (z) = 0.23644 -0.25245
#
# Static dielectric constant tensor:
#      x y z
#    x 2.311900 0.000000 0.000000 
#    y 0.000000 2.459140 0.000000 
#    z 0.000000 0.000000 2.535540 
# 
# From -- ./inp_files/10050.got.cif
#   From: 2010.05.17/outbox.cif.g08.bks.cpg/sg70_6_cif.got.tgz:10050.got - 2010.06.03 15:57:51.
