data_PCOD9516335
_publ_section_title
;
Structure prediction by ZEFSAII (Michael W. Deem and Ramdas Pophale) SiO2 
 PCOD9516335
Probable space group: F D D D
;
_chemical_formula_sum "Si O2"
_cell_formula_units_Z 192
_cell_length_a 22.995001
_cell_length_b 20.966917
_cell_length_c 19.144016
_cell_angle_alpha 90.000000
_cell_angle_beta 90.000000
_cell_angle_gamma 90.000000
_cell_volume 9229.986320
_symmetry_space_group_name_H-M "F D D D"
_symmetry_group_IT_number 70
_space_group.IT_coordinate_system_code '2'
_symmetry_cell_setting 'orthorhombic'
loop_
_space_group_symop_operation_xyz
x,y,z
1/4-x,1/4-y,z
x,1/4-y,1/4-z
1/4-x,y,1/4-z
-x,-y,-z
3/4+x,3/4+y,-z
-x,3/4+y,3/4+z
3/4+x,-y,3/4+z
x,1/2+y,1/2+z
1/4-x,3/4-y,1/2+z
x,3/4-y,3/4-z
1/4-x,1/2+y,3/4-z
-x,1/2-y,1/2-z
3/4+x,1/4+y,1/2-z
-x,1/4+y,1/4+z
3/4+x,1/2-y,1/4+z
1/2+x,y,1/2+z
3/4-x,1/4-y,1/2+z
1/2+x,1/4-y,3/4-z
3/4-x,y,3/4-z
1/2-x,-y,1/2-z
1/4+x,3/4+y,1/2-z
1/2-x,3/4+y,1/4+z
1/4+x,-y,1/4+z
1/2+x,1/2+y,z
3/4-x,3/4-y,z
1/2+x,3/4-y,1/4-z
3/4-x,1/2+y,1/4-z
1/2-x,1/2-y,-z
1/4+x,1/4+y,-z
1/2-x,1/4+y,3/4+z
1/4+x,1/2-y,3/4+z
loop_
_atom_site_type_symbol
_atom_site_label
_atom_site_fract_x
_atom_site_fract_y
_atom_site_fract_z
Si Si1 0.649997 0.497941 0.546846
Si Si2 0.211869 0.125000 0.125000
Si Si3 0.838418 0.612133 0.304750
Si Si4 0.764311 0.769807 0.778257
Si Si5 0.625000 0.625000 0.785210
Si Si6 0.901603 0.280689 0.261531
Si Si7 0.526517 0.162174 0.866219
O O1 0.625000 0.499165 0.625000
O O2 0.635536 0.425890 0.519831
O O3 0.719382 0.501548 0.531421
O O4 0.625703 0.559765 0.508213
O O5 0.250125 0.165798 0.178779
O O6 0.175216 0.074190 0.173295
O O7 0.875000 0.600306 0.375000
O O8 0.833858 0.544168 0.267803
O O9 0.773325 0.628010 0.329588
O O10 0.831444 0.781664 0.757863
O O11 0.756455 0.714918 0.836941
O O12 0.568315 0.626206 0.833378
O O13 0.933009 0.306883 0.192987
#
# Coordination Sequence:
#
# PCOD9516335 Si02
#       7
#    32  16  32  32  16  32  32
#     4  10  24  45  75  90 125 182 232 300 343 390
#     4  12  23  36  62 108 150 190 210 264 337 446
#     4  11  21  41  65  99 138 179 219 274 348 405
#     4  11  23  40  64 100 141 179 230 277 338 421
#     4  10  25  48  66  99 126 174 248 292 342 399
#     4  12  23  39  65 105 147 184 223 264 351 429
#     4  11  24  40  68  99 144 183 221 295 334 424
#
# _framework density 20.801765
#
# number of rings (size 3 to 8) (size 9 to 14) (size 15 to 20)
#    0.000    1.000    3.333    3.250    7.000    0.000 
#    0.000    3.333    3.667    0.000    0.000    0.000 
#    0.000    0.000    0.000    0.000    0.000    0.000 
#
# Total GULP energy -267821.200791 kJ/mol
# GULP energy per Si atom -5579.608350 kJ/mol
# Density = 2.075442 g / cm^3
# Si number density = 20.801765 Si / 1000 Ang^3
#
#
#
# Elastic Constant Matrix: (Units=GPa)
#
#
# Indices 1 2 3 4 5 6 
#
# 1 110.6762 36.5893 59.4205 0.0000 0.0000 0.0000
# 2 36.5893 171.4358 57.1889 0.0000 0.0000 0.0000
# 3 59.4205 57.1889 98.4249 0.0000 0.0000 0.0000
# 4 0.0000 0.0000 0.0000 14.0851 0.0000 0.0000
# 5 0.0000 0.0000 0.0000 0.0000 29.6536 0.0000
# 6 0.0000 0.0000 0.0000 0.0000 0.0000 27.2938
#
#
#
# Elastic Compliance Matrix: (Units=1/GPa)
#
#
# Indices 1 2 3 4 5 6 
#
# 1 0.013374 -0.000200 -0.007958 0.000000 0.000000 0.000000
# 2 -0.000200 0.007239 -0.004085 0.000000 0.000000 0.000000
# 3 -0.007958 -0.004085 0.017338 0.000000 0.000000 0.000000
# 4 0.000000 0.000000 0.000000 0.070997 0.000000 0.000000
# 5 0.000000 0.000000 0.000000 0.000000 0.033723 0.000000
# 6 0.000000 0.000000 0.000000 0.000000 0.000000 0.036638
#
#
# Mechanical properties :
#
#
# Convention : Reuss Voigt Hill
#
# Bulk Modulus (GPa) = 74.26909 76.32603 75.29756
# Shear Modulus (GPa) = 24.00579 29.36237 26.68408
#
# Velocity S-wave (km/s) = 3.40078 3.76111 3.58548
# Velocity P-wave (km/s) = 7.15550 7.45876 7.30870
#
# Compressibility (1/GPa) = 0.01346455
#
# Stress axis : x y z
#
# Youngs Moduli (GPa) = 74.77241 138.14987 57.67636
#
# Poissons Ratio (x) = 0.02759 0.45899
# Poissons Ratio (y) = 0.01493 0.23563
# Poissons Ratio (z) = 0.59504 0.56439
#
# Static dielectric constant tensor:
#      x y z
#    x 1.768390 0.000000 0.000000 
#    y 0.000000 1.794070 0.000000 
#    z 0.000000 0.000000 1.762310 
# 
# From -- ./inp_files/45952.got.cif
#   From: 2010.05.17/outbox.cif.g08.bks.cpg/sg70_23_cif.got.tgz:45952.got - 2010.06.03 15:57:51.
