data_PCOD9516665
_publ_section_title
;
Structure prediction by ZEFSAII (Michael W. Deem and Ramdas Pophale) SiO2 
 PCOD9516665
Probable space group: F D D D
;
_chemical_formula_sum "Si O2"
_cell_formula_units_Z 176
_cell_length_a 16.741033
_cell_length_b 18.603079
_cell_length_c 26.779918
_cell_angle_alpha 90.000000
_cell_angle_beta 90.000000
_cell_angle_gamma 90.000000
_cell_volume 8340.197320
_symmetry_space_group_name_H-M "F D D D"
_symmetry_group_IT_number 70
_space_group.IT_coordinate_system_code '2'
_symmetry_cell_setting 'orthorhombic'
loop_
_space_group_symop_operation_xyz
x,y,z
1/4-x,1/4-y,z
x,1/4-y,1/4-z
1/4-x,y,1/4-z
-x,-y,-z
3/4+x,3/4+y,-z
-x,3/4+y,3/4+z
3/4+x,-y,3/4+z
x,1/2+y,1/2+z
1/4-x,3/4-y,1/2+z
x,3/4-y,3/4-z
1/4-x,1/2+y,3/4-z
-x,1/2-y,1/2-z
3/4+x,1/4+y,1/2-z
-x,1/4+y,1/4+z
3/4+x,1/2-y,1/4+z
1/2+x,y,1/2+z
3/4-x,1/4-y,1/2+z
1/2+x,1/4-y,3/4-z
3/4-x,y,3/4-z
1/2-x,-y,1/2-z
1/4+x,3/4+y,1/2-z
1/2-x,3/4+y,1/4+z
1/4+x,-y,1/4+z
1/2+x,1/2+y,z
3/4-x,3/4-y,z
1/2+x,3/4-y,1/4-z
3/4-x,1/2+y,1/4-z
1/2-x,1/2-y,-z
1/4+x,1/4+y,-z
1/2-x,1/4+y,3/4+z
1/4+x,1/2-y,3/4+z
loop_
_atom_site_type_symbol
_atom_site_label
_atom_site_fract_x
_atom_site_fract_y
_atom_site_fract_z
Si Si1 0.752688 0.485162 0.373501
Si Si2 0.625000 0.360138 0.625000
Si Si3 0.692943 0.810116 0.712284
Si Si4 0.663573 0.047598 0.387982
Si Si5 0.919476 0.454676 0.020180
Si Si6 0.537740 0.119525 0.540019
O O1 0.796992 0.560460 0.380006
O O2 0.659497 0.491833 0.361949
O O3 0.770373 0.434084 0.420631
O O4 0.789180 0.449790 0.324356
O O5 0.619255 0.409198 0.673155
O O6 0.766209 0.782024 0.677524
O O7 0.651867 0.754968 0.749698
O O8 0.725036 0.875239 0.746124
O O9 0.625000 0.125000 0.399757
O O10 0.686349 0.048776 0.329440
O O11 0.875000 0.375000 0.008751
O O12 0.000000 0.500000 0.000000
O O13 0.625000 0.125000 0.517244
#
# Coordination Sequence:
#
# PCOD9516665 Si02
#       6
#    32  16  32  32  32  32
#     4  11  22  43  65  96 145 180 224 305 367 452
#     4  12  24  41  67  98 140 192 234 294 380 442
#     4  12  26  43  72 103 136 192 250 304 375 464
#     4  11  23  45  68  99 141 189 245 310 373 456
#     4  11  27  50  75 106 148 200 258 319 388 463
#     4  11  23  41  65 102 135 177 232 291 374 443
#
# _framework density 21.102618
#
# number of rings (size 3 to 8) (size 9 to 14) (size 15 to 20)
#    0.000    0.727    5.455    2.182    2.545    3.636 
#    0.000    3.182    0.000    0.000    0.000    0.000 
#    0.000    0.000    0.000    0.000    0.000    0.000 
#
# Total GULP energy -245156.156746 kJ/mol
# GULP energy per Si atom -5571.730835 kJ/mol
# Density = 2.105459 g / cm^3
# Si number density = 21.102618 Si / 1000 Ang^3
#
#
#
# Elastic Constant Matrix: (Units=GPa)
#
#
# Indices 1 2 3 4 5 6 
#
# 1 118.2823 23.3926 31.9438 0.0000 0.0000 0.0000
# 2 23.3926 38.6469 5.8421 0.0000 0.0000 0.0000
# 3 31.9438 5.8421 99.9877 0.0000 0.0000 0.0000
# 4 0.0000 0.0000 0.0000 15.1629 0.0000 0.0000
# 5 0.0000 0.0000 0.0000 0.0000 45.6033 0.0000
# 6 0.0000 0.0000 0.0000 0.0000 0.0000 34.4818
#
#
#
# Elastic Compliance Matrix: (Units=1/GPa)
#
#
# Indices 1 2 3 4 5 6 
#
# 1 0.010419 -0.005855 -0.002986 0.000000 0.000000 0.000000
# 2 -0.005855 0.029396 0.000153 0.000000 0.000000 0.000000
# 3 -0.002986 0.000153 0.010946 0.000000 0.000000 0.000000
# 4 0.000000 0.000000 0.000000 0.065950 0.000000 0.000000
# 5 0.000000 0.000000 0.000000 0.000000 0.021928 0.000000
# 6 0.000000 0.000000 0.000000 0.000000 0.000000 0.029001
#
#
# Mechanical properties :
#
#
# Convention : Reuss Voigt Hill
#
# Bulk Modulus (GPa) = 29.95412 42.14154 36.04783
# Shear Modulus (GPa) = 25.49125 32.09884 28.79504
#
# Velocity S-wave (km/s) = 3.47935 3.90434 3.69795
# Velocity P-wave (km/s) = 5.51058 6.35124 5.94579
#
# Compressibility (1/GPa) = 0.03338439
#
# Stress axis : x y z
#
# Youngs Moduli (GPa) = 95.98019 34.01810 91.35414
#
# Poissons Ratio (x) = 0.19917 0.27283
# Poissons Ratio (y) = 0.56196 -0.01397
# Poissons Ratio (z) = 0.28664 -0.00520
#
# Static dielectric constant tensor:
#      x y z
#    x 1.846870 0.000000 0.000000 
#    y 0.000000 1.761990 0.000000 
#    z 0.000000 0.000000 1.726600 
# 
# From -- ./inp_files/59451.got.cif
#   From: 2010.05.17/outbox.cif.g08.bks.cpg/sg70_30_cif.got.tgz:59451.got - 2010.06.03 15:57:51.
