data_PCOD9516024
_publ_section_title
;
Structure prediction by ZEFSAII (Michael W. Deem and Ramdas Pophale) SiO2 
 PCOD9516024
Probable space group: F D D D
;
_chemical_formula_sum "Si O2"
_cell_formula_units_Z 176
_cell_length_a 23.911728
_cell_length_b 11.014082
_cell_length_c 32.677283
_cell_angle_alpha 90.000000
_cell_angle_beta 90.000000
_cell_angle_gamma 90.000000
_cell_volume 8606.076588
_symmetry_space_group_name_H-M "F D D D"
_symmetry_group_IT_number 70
_space_group.IT_coordinate_system_code '2'
_symmetry_cell_setting 'orthorhombic'
loop_
_space_group_symop_operation_xyz
x,y,z
1/4-x,1/4-y,z
x,1/4-y,1/4-z
1/4-x,y,1/4-z
-x,-y,-z
3/4+x,3/4+y,-z
-x,3/4+y,3/4+z
3/4+x,-y,3/4+z
x,1/2+y,1/2+z
1/4-x,3/4-y,1/2+z
x,3/4-y,3/4-z
1/4-x,1/2+y,3/4-z
-x,1/2-y,1/2-z
3/4+x,1/4+y,1/2-z
-x,1/4+y,1/4+z
3/4+x,1/2-y,1/4+z
1/2+x,y,1/2+z
3/4-x,1/4-y,1/2+z
1/2+x,1/4-y,3/4-z
3/4-x,y,3/4-z
1/2-x,-y,1/2-z
1/4+x,3/4+y,1/2-z
1/2-x,3/4+y,1/4+z
1/4+x,-y,1/4+z
1/2+x,1/2+y,z
3/4-x,3/4-y,z
1/2+x,3/4-y,1/4-z
3/4-x,1/2+y,1/4-z
1/2-x,1/2-y,-z
1/4+x,1/4+y,-z
1/2-x,1/4+y,3/4+z
1/4+x,1/2-y,3/4+z
loop_
_atom_site_type_symbol
_atom_site_label
_atom_site_fract_x
_atom_site_fract_y
_atom_site_fract_z
Si Si1 0.875000 0.875000 0.051867
Si Si2 0.125000 0.860209 0.125000
Si Si3 0.760173 0.625000 0.625000
Si Si4 0.932109 0.305232 0.942355
Si Si5 0.535263 0.025471 0.660158
Si Si6 0.764832 0.894018 0.001769
Si Si7 0.818183 0.369969 0.628344
O O1 0.838793 0.802124 0.086476
O O2 0.824288 0.920982 0.024256
O O3 0.086506 0.781044 0.095329
O O4 0.088949 0.941187 0.155506
O O5 0.724057 0.607002 0.666795
O O6 0.796763 0.504688 0.618153
O O7 0.875000 0.375000 0.956111
O O8 0.966707 0.225085 0.975457
O O9 0.541904 0.125000 0.625000
O O10 0.525586 0.073235 0.705053
O O11 0.481154 0.949087 0.648748
O O12 0.750000 0.750000 0.000000
O O13 0.875000 0.375000 0.654247
#
# Coordination Sequence:
#
# PCOD9516024 Si02
#       7
#    16  16  16  32  32  32  32
#     4  10  22  46  65  98 136 180 230 283 362 412
#     4  12  22  44  72 104 134 185 235 292 368 428
#     4  12  19  44  72 102 138 183 242 280 362 434
#     4  12  22  44  76 104 143 187 239 302 365 441
#     4  12  26  44  68 102 137 185 243 293 355 433
#     4  12  28  45  69 104 145 189 244 304 364 429
#     4  10  23  42  71  97 135 189 230 278 357 430
#
# _framework density 20.450668
#
# number of rings (size 3 to 8) (size 9 to 14) (size 15 to 20)
#    0.545    0.000    5.455    2.455    6.364    0.727 
#    0.000    3.636    0.000    0.000    0.000    0.000 
#    0.000    0.000    0.000    0.000    0.000    0.000 
#
# Total GULP energy -245151.311621 kJ/mol
# GULP energy per Si atom -5571.620719 kJ/mol
# Density = 2.040412 g / cm^3
# Si number density = 20.450668 Si / 1000 Ang^3
#
#
#
# Elastic Constant Matrix: (Units=GPa)
#
#
# Indices 1 2 3 4 5 6 
#
# 1 126.6450 42.2956 46.8470 0.0000 0.0000 0.0000
# 2 42.2956 72.7518 46.0567 0.0000 0.0000 0.0000
# 3 46.8470 46.0567 145.8102 0.0000 0.0000 0.0000
# 4 0.0000 0.0000 0.0000 25.6270 0.0000 0.0000
# 5 0.0000 0.0000 0.0000 0.0000 17.0105 0.0000
# 6 0.0000 0.0000 0.0000 0.0000 0.0000 47.4303
#
#
#
# Elastic Compliance Matrix: (Units=1/GPa)
#
#
# Indices 1 2 3 4 5 6 
#
# 1 0.010142 -0.004791 -0.001745 0.000000 0.000000 0.000000
# 2 -0.004791 0.019445 -0.004602 0.000000 0.000000 0.000000
# 3 -0.001745 -0.004602 0.008873 0.000000 0.000000 0.000000
# 4 0.000000 0.000000 0.000000 0.039021 0.000000 0.000000
# 5 0.000000 0.000000 0.000000 0.000000 0.058787 0.000000
# 6 0.000000 0.000000 0.000000 0.000000 0.000000 0.021084
#
#
# Mechanical properties :
#
#
# Convention : Reuss Voigt Hill
#
# Bulk Modulus (GPa) = 61.79986 68.40059 65.10023
# Shear Modulus (GPa) = 27.02369 32.01407 29.51888
#
# Velocity S-wave (km/s) = 3.63906 3.96084 3.80336
# Velocity P-wave (km/s) = 6.92399 7.37814 7.15467
#
# Compressibility (1/GPa) = 0.01618127
#
# Stress axis : x y z
#
# Youngs Moduli (GPa) = 98.60232 51.42810 112.70599
#
# Poissons Ratio (x) = 0.24641 0.19667
# Poissons Ratio (y) = 0.47244 0.51873
# Poissons Ratio (z) = 0.17206 0.23670
#
# Static dielectric constant tensor:
#      x y z
#    x 1.625660 0.000000 0.000000 
#    y 0.000000 1.706770 0.000000 
#    z 0.000000 0.000000 3.079080 
# 
# From -- ./inp_files/67835.got.cif
#   From: 2010.05.17/outbox.cif.g08.bks.cpg/sg70_34_cif.got.tgz:67835.got - 2010.06.03 15:57:51.
