data_PCOD9516655
_publ_section_title
;
Structure prediction by ZEFSAII (Michael W. Deem and Ramdas Pophale) SiO2 
 PCOD9516655
Probable space group: F D D D
;
_chemical_formula_sum "Si O2"
_cell_formula_units_Z 168
_cell_length_a 22.406493
_cell_length_b 16.245333
_cell_length_c 23.341713
_cell_angle_alpha 90.000000
_cell_angle_beta 90.000000
_cell_angle_gamma 90.000000
_cell_volume 8496.405477
_symmetry_space_group_name_H-M "F D D D"
_symmetry_group_IT_number 70
_space_group.IT_coordinate_system_code '2'
_symmetry_cell_setting 'orthorhombic'
loop_
_space_group_symop_operation_xyz
x,y,z
1/4-x,1/4-y,z
x,1/4-y,1/4-z
1/4-x,y,1/4-z
-x,-y,-z
3/4+x,3/4+y,-z
-x,3/4+y,3/4+z
3/4+x,-y,3/4+z
x,1/2+y,1/2+z
1/4-x,3/4-y,1/2+z
x,3/4-y,3/4-z
1/4-x,1/2+y,3/4-z
-x,1/2-y,1/2-z
3/4+x,1/4+y,1/2-z
-x,1/4+y,1/4+z
3/4+x,1/2-y,1/4+z
1/2+x,y,1/2+z
3/4-x,1/4-y,1/2+z
1/2+x,1/4-y,3/4-z
3/4-x,y,3/4-z
1/2-x,-y,1/2-z
1/4+x,3/4+y,1/2-z
1/2-x,3/4+y,1/4+z
1/4+x,-y,1/4+z
1/2+x,1/2+y,z
3/4-x,3/4-y,z
1/2+x,3/4-y,1/4-z
3/4-x,1/2+y,1/4-z
1/2-x,1/2-y,-z
1/4+x,1/4+y,-z
1/2-x,1/4+y,3/4+z
1/4+x,1/2-y,3/4+z
loop_
_atom_site_type_symbol
_atom_site_label
_atom_site_fract_x
_atom_site_fract_y
_atom_site_fract_z
Si Si1 0.341682 0.267692 0.982209
Si Si2 0.125000 0.125000 0.125000
Si Si3 0.443978 0.575670 0.394660
Si Si4 0.746643 0.366566 0.220902
Si Si5 0.058217 0.651053 0.191539
Si Si6 0.277289 0.040077 0.482490
O O1 0.343065 0.313926 0.920373
O O2 0.304276 0.184565 0.976896
O O3 0.307317 0.331381 0.023208
O O4 0.407314 0.240934 0.002070
O O5 0.375000 0.575402 0.375000
O O6 0.485437 0.569530 0.338714
O O7 0.450113 0.499405 0.438307
O O8 0.460653 0.661035 0.424499
O O9 0.742631 0.296436 0.269458
O O10 0.125000 0.625000 0.211498
O O11 0.054938 0.625000 0.125000
O O12 0.008848 0.602405 0.227239
#
# Coordination Sequence:
#
# PCOD9516655 Si02
#       6
#    32   8  32  32  32  32
#     4  11  24  39  67  98 133 170 220 279 330 403
#     4  12  20  44  72  96 124 186 236 260 336 420
#     4  12  22  42  71  97 126 178 231 272 335 417
#     4  11  23  41  63  98 138 166 221 286 326 396
#     4  11  22  42  69  95 134 176 226 284 339 403
#     4  12  23  42  69  97 131 179 223 278 344 400
#
# _framework density 19.773067000000001
#
# number of rings (size 3 to 8) (size 9 to 14) (size 15 to 20)
#    0.000    0.571    7.619    1.714    0.000    0.000 
#    0.000    3.810    0.000    0.000    0.000    0.000 
#    0.000    0.000    0.000    0.000    0.000    0.000 
#
# Total GULP energy -234329.509030 kJ/mol
# GULP energy per Si atom -5579.274025 kJ/mol
# Density = 1.972806 g / cm^3
# Si number density = 19.773067 Si / 1000 Ang^3
#
#
#
# Elastic Constant Matrix: (Units=GPa)
#
#
# Indices 1 2 3 4 5 6 
#
# 1 106.1172 46.3855 50.1815 0.0000 0.0000 0.0000
# 2 46.3855 163.4978 32.5686 0.0000 0.0000 0.0000
# 3 50.1815 32.5686 41.1187 0.0000 0.0000 0.0000
# 4 0.0000 0.0000 0.0000 50.1686 0.0000 0.0000
# 5 0.0000 0.0000 0.0000 0.0000 23.8201 0.0000
# 6 0.0000 0.0000 0.0000 0.0000 0.0000 28.4205
#
#
#
# Elastic Compliance Matrix: (Units=1/GPa)
#
#
# Indices 1 2 3 4 5 6 
#
# 1 0.022444 -0.001082 -0.026534 0.000000 0.000000 0.000000
# 2 -0.001082 0.007314 -0.004473 0.000000 0.000000 0.000000
# 3 -0.026534 -0.004473 0.060245 0.000000 0.000000 0.000000
# 4 0.000000 0.000000 0.000000 0.019933 0.000000 0.000000
# 5 0.000000 0.000000 0.000000 0.000000 0.041981 0.000000
# 6 0.000000 0.000000 0.000000 0.000000 0.000000 0.035186
#
#
# Mechanical properties :
#
#
# Convention : Reuss Voigt Hill
#
# Bulk Modulus (GPa) = 38.72131 63.22276 50.97203
# Shear Modulus (GPa) = 19.23902 32.58841 25.91371
#
# Velocity S-wave (km/s) = 3.12266 4.06411 3.62409
# Velocity P-wave (km/s) = 5.71198 7.35298 6.58381
#
# Compressibility (1/GPa) = 0.02582558
#
# Stress axis : x y z
#
# Youngs Moduli (GPa) = 44.55535 136.71937 16.59900
#
# Poissons Ratio (x) = 0.14793 0.44043
# Poissons Ratio (y) = 0.04821 0.07424
# Poissons Ratio (z) = 1.18222 0.61153
#
# Static dielectric constant tensor:
#      x y z
#    x 1.722800 0.000000 0.000000 
#    y 0.000000 1.764750 0.000000 
#    z 0.000000 0.000000 1.687470 
# 
# From -- ./inp_files/53630.got.cif
#   From: 2010.05.17/outbox.cif.g08.bks.cpg/sg70_27_cif.got.tgz:53630.got - 2010.06.03 15:57:51.
