data_PCOD9516715
_publ_section_title
;
Structure prediction by ZEFSAII (Michael W. Deem and Ramdas Pophale) SiO2 
 PCOD9516715
Probable space group: F D D D
;
_chemical_formula_sum "Si O2"
_cell_formula_units_Z 104
_cell_length_a 25.658458
_cell_length_b 15.045075
_cell_length_c 11.499835
_cell_angle_alpha 90.000000
_cell_angle_beta 90.000000
_cell_angle_gamma 90.000000
_cell_volume 4439.320692
_symmetry_space_group_name_H-M "F D D D"
_symmetry_group_IT_number 70
_space_group.IT_coordinate_system_code '2'
_symmetry_cell_setting 'orthorhombic'
loop_
_space_group_symop_operation_xyz
x,y,z
1/4-x,1/4-y,z
x,1/4-y,1/4-z
1/4-x,y,1/4-z
-x,-y,-z
3/4+x,3/4+y,-z
-x,3/4+y,3/4+z
3/4+x,-y,3/4+z
x,1/2+y,1/2+z
1/4-x,3/4-y,1/2+z
x,3/4-y,3/4-z
1/4-x,1/2+y,3/4-z
-x,1/2-y,1/2-z
3/4+x,1/4+y,1/2-z
-x,1/4+y,1/4+z
3/4+x,1/2-y,1/4+z
1/2+x,y,1/2+z
3/4-x,1/4-y,1/2+z
1/2+x,1/4-y,3/4-z
3/4-x,y,3/4-z
1/2-x,-y,1/2-z
1/4+x,3/4+y,1/2-z
1/2-x,3/4+y,1/4+z
1/4+x,-y,1/4+z
1/2+x,1/2+y,z
3/4-x,3/4-y,z
1/2+x,3/4-y,1/4-z
3/4-x,1/2+y,1/4-z
1/2-x,1/2-y,-z
1/4+x,1/4+y,-z
1/2-x,1/4+y,3/4+z
1/4+x,1/2-y,3/4+z
loop_
_atom_site_type_symbol
_atom_site_label
_atom_site_fract_x
_atom_site_fract_y
_atom_site_fract_z
Si Si1 0.024850 0.769506 0.875670
Si Si2 0.865076 0.716363 0.506751
Si Si3 0.375000 0.875000 0.375000
Si Si4 0.067102 0.478906 0.774408
O O1 0.019523 0.875000 0.875000
O O2 0.084696 0.757176 0.914883
O O3 0.000000 0.750000 0.750000
O O4 0.989731 0.719255 0.970273
O O5 0.875000 0.745848 0.375000
O O6 0.851602 0.610044 0.501662
O O7 0.818033 0.749552 0.588331
O O8 0.341182 0.810960 0.294850
#
# Coordination Sequence:
#
# PCOD9516715 Si02
#       4
#    32  32   8  32
#     4  12  24  43  77 110 141 196 255 300 365 449
#     4  11  24  47  68 105 160 191 229 319 383 425
#     4  12  20  40  70 112 128 182 260 298 336 448
#     4  11  23  39  73 106 144 190 245 301 366 431
#
# _framework density 23.427005999999999
#
# number of rings (size 3 to 8) (size 9 to 14) (size 15 to 20)
#    0.000    0.615    6.154    3.692    0.000    1.231 
#    0.000    0.769    0.000    0.000    0.000    0.000 
#    0.000    0.000    0.000    0.000    0.000    0.000 
#
# Total GULP energy -145083.716080 kJ/mol
# GULP energy per Si atom -5580.142926 kJ/mol
# Density = 2.337369 g / cm^3
# Si number density = 23.427006 Si / 1000 Ang^3
#
#
#
# Elastic Constant Matrix: (Units=GPa)
#
#
# Indices 1 2 3 4 5 6 
#
# 1 95.3184 -10.1244 25.9170 0.0000 0.0000 0.0000
# 2 -10.1244 35.8649 -9.1231 0.0000 0.0000 0.0000
# 3 25.9170 -9.1231 170.9188 0.0000 0.0000 0.0000
# 4 0.0000 0.0000 0.0000 40.2092 0.0000 0.0000
# 5 0.0000 0.0000 0.0000 0.0000 37.8592 0.0000
# 6 0.0000 0.0000 0.0000 0.0000 0.0000 18.6211
#
#
#
# Elastic Compliance Matrix: (Units=1/GPa)
#
#
# Indices 1 2 3 4 5 6 
#
# 1 0.011207 0.002769 -0.001552 0.000000 0.000000 0.000000
# 2 0.002769 0.028950 0.001125 0.000000 0.000000 0.000000
# 3 -0.001552 0.001125 0.006146 0.000000 0.000000 0.000000
# 4 0.000000 0.000000 0.000000 0.024870 0.000000 0.000000
# 5 0.000000 0.000000 0.000000 0.000000 0.026414 0.000000
# 6 0.000000 0.000000 0.000000 0.000000 0.000000 0.053703
#
#
# Mechanical properties :
#
#
# Convention : Reuss Voigt Hill
#
# Bulk Modulus (GPa) = 19.61198 35.04902 27.33050
# Shear Modulus (GPa) = 30.56226 39.03341 34.79783
#
# Velocity S-wave (km/s) = 3.61581 4.08630 3.85823
# Velocity P-wave (km/s) = 5.08151 6.10387 5.61601
#
# Compressibility (1/GPa) = 0.05098925
#
# Stress axis : x y z
#
# Youngs Moduli (GPa) = 89.22885 34.54188 162.70548
#
# Poissons Ratio (x) = -0.09565 0.25245
# Poissons Ratio (y) = -0.24708 -0.18311
# Poissons Ratio (z) = 0.13845 -0.03887
#
# Static dielectric constant tensor:
#      x y z
#    x 2.064770 0.000000 0.000000 
#    y 0.000000 1.885520 0.000000 
#    z 0.000000 0.000000 1.942440 
# 
# From -- ./inp_files/20196.got.cif
#   From: 2010.05.17/outbox.cif.g08.bks.cpg/sg70_11_cif.got.tgz:20196.got - 2010.06.03 15:57:51.
