data_PCOD9516720
_publ_section_title
;
Structure prediction by ZEFSAII (Michael W. Deem and Ramdas Pophale) SiO2 
 PCOD9516720
Probable space group: F D D D
;
_chemical_formula_sum "Si O2"
_cell_formula_units_Z 216
_cell_length_a 28.791065
_cell_length_b 10.863081
_cell_length_c 31.527956
_cell_angle_alpha 90.000000
_cell_angle_beta 90.000000
_cell_angle_gamma 90.000000
_cell_volume 9860.673151
_symmetry_space_group_name_H-M "F D D D"
_symmetry_group_IT_number 70
_space_group.IT_coordinate_system_code '2'
_symmetry_cell_setting 'orthorhombic'
loop_
_space_group_symop_operation_xyz
x,y,z
1/4-x,1/4-y,z
x,1/4-y,1/4-z
1/4-x,y,1/4-z
-x,-y,-z
3/4+x,3/4+y,-z
-x,3/4+y,3/4+z
3/4+x,-y,3/4+z
x,1/2+y,1/2+z
1/4-x,3/4-y,1/2+z
x,3/4-y,3/4-z
1/4-x,1/2+y,3/4-z
-x,1/2-y,1/2-z
3/4+x,1/4+y,1/2-z
-x,1/4+y,1/4+z
3/4+x,1/2-y,1/4+z
1/2+x,y,1/2+z
3/4-x,1/4-y,1/2+z
1/2+x,1/4-y,3/4-z
3/4-x,y,3/4-z
1/2-x,-y,1/2-z
1/4+x,3/4+y,1/2-z
1/2-x,3/4+y,1/4+z
1/4+x,-y,1/4+z
1/2+x,1/2+y,z
3/4-x,3/4-y,z
1/2+x,3/4-y,1/4-z
3/4-x,1/2+y,1/4-z
1/2-x,1/2-y,-z
1/4+x,1/4+y,-z
1/2-x,1/4+y,3/4+z
1/4+x,1/2-y,3/4+z
loop_
_atom_site_type_symbol
_atom_site_label
_atom_site_fract_x
_atom_site_fract_y
_atom_site_fract_z
Si Si1 0.125000 0.125000 0.625000
Si Si2 0.305767 0.993689 0.749442
Si Si3 0.132530 0.397976 0.060115
Si Si4 0.044231 0.361216 0.328356
Si Si5 0.900802 0.125793 0.671682
Si Si6 0.375000 0.875000 0.296244
Si Si7 0.310392 0.399999 0.034470
Si Si8 0.963897 0.225491 0.993326
O O1 0.106594 0.234647 0.591793
O O2 0.314126 0.850958 0.755956
O O3 0.250000 0.000000 0.750000
O O4 0.335379 0.066335 0.784684
O O5 0.323837 0.036049 0.704100
O O6 0.126066 0.253522 0.072512
O O7 0.176103 0.387620 0.027934
O O8 0.023022 0.375000 0.375000
O O9 0.096990 0.411645 0.331454
O O10 0.048502 0.223117 0.310345
O O11 0.021951 0.437992 0.290674
O O12 0.921720 0.125000 0.625000
O O13 0.904683 0.989684 0.690991
O O14 0.332028 0.869277 0.262228
O O15 0.261830 0.473974 0.031778
#
# Coordination Sequence:
#
# PCOD9516720 Si02
#       8
#     8  32  32  32  32  16  32  32
#     4  12  28  50  72 102 140 186 238 308 340 410
#     4  12  22  44  68 100 133 183 233 279 352 426
#     4  12  25  47  72 100 138 182 240 287 352 421
#     4  11  24  40  66 103 139 177 223 293 357 423
#     4  11  23  40  66 103 139 175 221 295 355 419
#     4  12  22  45  76 101 130 184 233 284 350 435
#     4  12  21  43  67  97 138 181 230 278 346 426
#     4  12  23  41  72  95 133 190 229 281 352 423
#
# _framework density 21.905197999999999
#
# number of rings (size 3 to 8) (size 9 to 14) (size 15 to 20)
#    0.000    0.296    8.889    0.444    2.074    0.296 
#    5.333    1.481    0.000    0.000    0.000    0.000 
#    0.000    0.000    0.000    0.000    0.000    0.000 
#
# Total GULP energy -300989.969630 kJ/mol
# GULP energy per Si atom -5573.888326 kJ/mol
# Density = 2.185534 g / cm^3
# Si number density = 21.905198 Si / 1000 Ang^3
#
#
#
# Elastic Constant Matrix: (Units=GPa)
#
#
# Indices 1 2 3 4 5 6 
#
# 1 64.6751 -0.4518 5.2001 0.0000 0.0000 0.0000
# 2 -0.4518 133.1299 26.0337 0.0000 0.0000 0.0000
# 3 5.2001 26.0337 97.7774 0.0000 0.0000 0.0000
# 4 0.0000 0.0000 0.0000 29.9506 0.0000 0.0000
# 5 0.0000 0.0000 0.0000 0.0000 10.6319 0.0000
# 6 0.0000 0.0000 0.0000 0.0000 0.0000 24.6634
#
#
#
# Elastic Compliance Matrix: (Units=1/GPa)
#
#
# Indices 1 2 3 4 5 6 
#
# 1 0.015535 0.000226 -0.000886 0.000000 0.000000 0.000000
# 2 0.000226 0.007927 -0.002123 0.000000 0.000000 0.000000
# 3 -0.000886 -0.002123 0.010840 0.000000 0.000000 0.000000
# 4 0.000000 0.000000 0.000000 0.033388 0.000000 0.000000
# 5 0.000000 0.000000 0.000000 0.000000 0.094057 0.000000
# 6 0.000000 0.000000 0.000000 0.000000 0.000000 0.040546
#
#
# Mechanical properties :
#
#
# Convention : Reuss Voigt Hill
#
# Bulk Modulus (GPa) = 34.79997 39.68292 37.24145
# Shear Modulus (GPa) = 22.99512 30.70254 26.84883
#
# Velocity S-wave (km/s) = 3.24351 3.74787 3.50477
# Velocity P-wave (km/s) = 5.47250 6.07320 5.78066
#
# Compressibility (1/GPa) = 0.02873565
#
# Stress axis : x y z
#
# Youngs Moduli (GPa) = 64.37185 126.14591 92.25402
#
# Poissons Ratio (x) = -0.02852 0.08177
# Poissons Ratio (y) = -0.01455 0.19583
# Poissons Ratio (z) = 0.05706 0.26777
#
# Static dielectric constant tensor:
#      x y z
#    x 1.792170 0.000000 0.000000 
#    y 0.000000 1.902720 0.000000 
#    z 0.000000 0.000000 1.817270 
# 
# From -- ./inp_files/69030.got.cif
#   From: 2010.05.17/outbox.cif.g08.bks.cpg/sg70_35_cif.got.tgz:69030.got - 2010.06.03 15:57:51.
