data_PCOD9516046
_publ_section_title
;
Structure prediction by ZEFSAII (Michael W. Deem and Ramdas Pophale) SiO2 
 PCOD9516046
Probable space group: F D D D
;
_chemical_formula_sum "Si O2"
_cell_formula_units_Z 208
_cell_length_a 23.724843
_cell_length_b 25.912422
_cell_length_c 14.818290
_cell_angle_alpha 90.000000
_cell_angle_beta 90.000000
_cell_angle_gamma 90.000000
_cell_volume 9109.812636
_symmetry_space_group_name_H-M "F D D D"
_symmetry_group_IT_number 70
_space_group.IT_coordinate_system_code '2'
_symmetry_cell_setting 'orthorhombic'
loop_
_space_group_symop_operation_xyz
x,y,z
1/4-x,1/4-y,z
x,1/4-y,1/4-z
1/4-x,y,1/4-z
-x,-y,-z
3/4+x,3/4+y,-z
-x,3/4+y,3/4+z
3/4+x,-y,3/4+z
x,1/2+y,1/2+z
1/4-x,3/4-y,1/2+z
x,3/4-y,3/4-z
1/4-x,1/2+y,3/4-z
-x,1/2-y,1/2-z
3/4+x,1/4+y,1/2-z
-x,1/4+y,1/4+z
3/4+x,1/2-y,1/4+z
1/2+x,y,1/2+z
3/4-x,1/4-y,1/2+z
1/2+x,1/4-y,3/4-z
3/4-x,y,3/4-z
1/2-x,-y,1/2-z
1/4+x,3/4+y,1/2-z
1/2-x,3/4+y,1/4+z
1/4+x,-y,1/4+z
1/2+x,1/2+y,z
3/4-x,3/4-y,z
1/2+x,3/4-y,1/4-z
3/4-x,1/2+y,1/4-z
1/2-x,1/2-y,-z
1/4+x,1/4+y,-z
1/2-x,1/4+y,3/4+z
1/4+x,1/2-y,3/4+z
loop_
_atom_site_type_symbol
_atom_site_label
_atom_site_fract_x
_atom_site_fract_y
_atom_site_fract_z
Si Si1 0.257604 0.136065 0.366325
Si Si2 0.972151 0.275085 0.161632
Si Si3 0.153513 0.056970 0.966995
Si Si4 0.934028 0.673401 0.562750
Si Si5 0.564763 0.467816 0.390025
Si Si6 0.875000 0.875000 0.375000
Si Si7 0.625000 0.125000 0.625000
Si Si8 0.034967 0.689850 0.224055
O O1 0.258463 0.074442 0.368057
O O2 0.194601 0.157614 0.342748
O O3 0.298713 0.158755 0.289423
O O4 0.261687 0.160607 0.464621
O O5 0.911516 0.300526 0.187932
O O6 0.962041 0.227795 0.092891
O O7 0.000000 0.250000 0.250000
O O8 0.173601 0.998848 0.951922
O O9 0.158476 0.085670 0.061774
O O10 0.953014 0.625000 0.625000
O O11 0.867838 0.682914 0.584091
O O12 0.557163 0.510379 0.471110
O O13 0.501470 0.447972 0.383882
O O14 0.912281 0.841659 0.307730
#
# Coordination Sequence:
#
# PCOD9516046 Si02
#       8
#    32  32  32  32  32   8   8  32
#     4  11  23  44  67 102 142 189 234 296 355 426
#     4  11  22  40  63  98 143 188 238 279 351 431
#     4  10  23  37  67  95 144 184 227 289 345 421
#     4  11  24  40  71 101 147 192 229 293 367 437
#     4   9  23  48  69  96 141 186 231 292 369 424
#     4  12  28  42  80 106 128 180 248 304 368 424
#     4  12  20  34  68 106 142 190 236 280 354 430
#     4  10  25  47  73 101 134 180 247 301 362 431
#
# _framework density 22.832522000000001
#
# number of rings (size 3 to 8) (size 9 to 14) (size 15 to 20)
#    0.000    1.538    3.077    0.000   10.769    4.308 
#    0.000    0.000    3.385    0.000    0.000    0.000 
#    0.000    0.000    0.000    0.000    0.000    0.000 
#
# Total GULP energy -290042.366786 kJ/mol
# GULP energy per Si atom -5577.737823 kJ/mol
# Density = 2.278055 g / cm^3
# Si number density = 22.832522 Si / 1000 Ang^3
#
#
#
# Elastic Constant Matrix: (Units=GPa)
#
#
# Indices 1 2 3 4 5 6 
#
# 1 76.0266 39.9521 9.9838 0.0000 0.0000 0.0000
# 2 39.9521 127.3283 25.2854 0.0000 0.0000 0.0000
# 3 9.9838 25.2854 54.8888 0.0000 0.0000 0.0000
# 4 0.0000 0.0000 0.0000 29.4031 0.0000 0.0000
# 5 0.0000 0.0000 0.0000 0.0000 37.5449 0.0000
# 6 0.0000 0.0000 0.0000 0.0000 0.0000 76.7409
#
#
#
# Elastic Compliance Matrix: (Units=1/GPa)
#
#
# Indices 1 2 3 4 5 6 
#
# 1 0.015771 -0.004820 -0.000648 0.000000 0.000000 0.000000
# 2 -0.004820 0.010118 -0.003784 0.000000 0.000000 0.000000
# 3 -0.000648 -0.003784 0.020080 0.000000 0.000000 0.000000
# 4 0.000000 0.000000 0.000000 0.034010 0.000000 0.000000
# 5 0.000000 0.000000 0.000000 0.000000 0.026635 0.000000
# 6 0.000000 0.000000 0.000000 0.000000 0.000000 0.013031
#
#
# Mechanical properties :
#
#
# Convention : Reuss Voigt Hill
#
# Bulk Modulus (GPa) = 36.41126 45.40960 40.91043
# Shear Modulus (GPa) = 33.94354 40.93927 37.44140
#
# Velocity S-wave (km/s) = 3.85987 4.23901 4.05387
# Velocity P-wave (km/s) = 5.98719 6.62497 6.31414
#
# Compressibility (1/GPa) = 0.02746403
#
# Stress axis : x y z
#
# Youngs Moduli (GPa) = 63.40642 98.83847 49.80129
#
# Poissons Ratio (x) = 0.47639 0.03229
# Poissons Ratio (y) = 0.30561 0.18845
# Poissons Ratio (z) = 0.04111 0.37402
#
# Static dielectric constant tensor:
#      x y z
#    x 1.880660 0.000000 0.000000 
#    y 0.000000 1.963980 0.000000 
#    z 0.000000 0.000000 1.961420 
# 
# From -- ./inp_files/37744.got.cif
#   From: 2010.05.17/outbox.cif.g08.bks.cpg/sg70_19_cif.got.tgz:37744.got - 2010.06.03 15:57:51.
