data_PCOD9516674
_publ_section_title
;
Structure prediction by ZEFSAII (Michael W. Deem and Ramdas Pophale) SiO2 
 PCOD9516674
Probable space group: F D D D
;
_chemical_formula_sum "Si O2"
_cell_formula_units_Z 160
_cell_length_a 13.791430
_cell_length_b 17.998121
_cell_length_c 27.825555
_cell_angle_alpha 90.000000
_cell_angle_beta 90.000000
_cell_angle_gamma 90.000000
_cell_volume 6906.854418
_symmetry_space_group_name_H-M "F D D D"
_symmetry_group_IT_number 70
_space_group.IT_coordinate_system_code '2'
_symmetry_cell_setting 'orthorhombic'
loop_
_space_group_symop_operation_xyz
x,y,z
1/4-x,1/4-y,z
x,1/4-y,1/4-z
1/4-x,y,1/4-z
-x,-y,-z
3/4+x,3/4+y,-z
-x,3/4+y,3/4+z
3/4+x,-y,3/4+z
x,1/2+y,1/2+z
1/4-x,3/4-y,1/2+z
x,3/4-y,3/4-z
1/4-x,1/2+y,3/4-z
-x,1/2-y,1/2-z
3/4+x,1/4+y,1/2-z
-x,1/4+y,1/4+z
3/4+x,1/2-y,1/4+z
1/2+x,y,1/2+z
3/4-x,1/4-y,1/2+z
1/2+x,1/4-y,3/4-z
3/4-x,y,3/4-z
1/2-x,-y,1/2-z
1/4+x,3/4+y,1/2-z
1/2-x,3/4+y,1/4+z
1/4+x,-y,1/4+z
1/2+x,1/2+y,z
3/4-x,3/4-y,z
1/2+x,3/4-y,1/4-z
3/4-x,1/2+y,1/4-z
1/2-x,1/2-y,-z
1/4+x,1/4+y,-z
1/2-x,1/4+y,3/4+z
1/4+x,1/2-y,3/4+z
loop_
_atom_site_type_symbol
_atom_site_label
_atom_site_fract_x
_atom_site_fract_y
_atom_site_fract_z
Si Si1 0.169778 0.919657 0.509994
Si Si2 0.575587 0.543305 0.337438
Si Si3 0.159687 0.796041 0.674608
Si Si4 0.881338 0.459112 0.058275
Si Si5 0.004484 0.826825 0.825933
O O1 0.236939 0.957200 0.550470
O O2 0.108351 0.854324 0.533707
O O3 0.235942 0.879455 0.470088
O O4 0.105490 0.979808 0.482191
O O5 0.625000 0.625000 0.332632
O O6 0.551866 0.535963 0.394412
O O7 0.653008 0.478895 0.325487
O O8 0.125000 0.832614 0.625000
O O9 0.271990 0.777222 0.671803
O O10 0.089995 0.724925 0.678953
O O11 0.875000 0.375000 0.039972
O O12 0.003409 0.875000 0.875000
#
# Coordination Sequence:
#
# PCOD9516674 Si02
#       5
#    32  32  32  32  32
#     4  12  25  41  76 101 139 191 241 290 366 441
#     4  11  22  44  67 101 149 183 229 299 373 435
#     4  12  23  42  67 102 142 180 234 296 367 427
#     4  11  25  46  66  98 142 187 240 300 355 433
#     4  12  24  41  68 113 146 180 234 306 369 440
#
# _framework density 23.165393000000002
#
# number of rings (size 3 to 8) (size 9 to 14) (size 15 to 20)
#    0.000    0.400    6.000    3.000    2.800    2.800 
#    0.000    0.000    0.000    0.000    0.000    0.000 
#    0.000    0.000    0.000    0.000    0.000    0.000 
#
# Total GULP energy -224113.700524 kJ/mol
# GULP energy per Si atom -5602.842513 kJ/mol
# Density = 2.311267 g / cm^3
# Si number density = 23.165393 Si / 1000 Ang^3
#
#
#
# Elastic Constant Matrix: (Units=GPa)
#
#
# Indices 1 2 3 4 5 6 
#
# 1 69.2417 25.1562 29.1183 0.0000 0.0000 0.0000
# 2 25.1562 137.7904 69.3548 0.0000 0.0000 0.0000
# 3 29.1183 69.3548 159.4191 0.0000 0.0000 0.0000
# 4 0.0000 0.0000 0.0000 55.2778 0.0000 0.0000
# 5 0.0000 0.0000 0.0000 0.0000 24.5833 0.0000
# 6 0.0000 0.0000 0.0000 0.0000 0.0000 28.7383
#
#
#
# Elastic Compliance Matrix: (Units=1/GPa)
#
#
# Indices 1 2 3 4 5 6 
#
# 1 0.016007 -0.001857 -0.002116 0.000000 0.000000 0.000000
# 2 -0.001857 0.009508 -0.003797 0.000000 0.000000 0.000000
# 3 -0.002116 -0.003797 0.008311 0.000000 0.000000 0.000000
# 4 0.000000 0.000000 0.000000 0.018090 0.000000 0.000000
# 5 0.000000 0.000000 0.000000 0.000000 0.040678 0.000000
# 6 0.000000 0.000000 0.000000 0.000000 0.000000 0.034797
#
#
# Mechanical properties :
#
#
# Convention : Reuss Voigt Hill
#
# Bulk Modulus (GPa) = 54.68874 68.18998 61.43936
# Shear Modulus (GPa) = 33.55122 37.90800 35.72961
#
# Velocity S-wave (km/s) = 3.80983 4.04964 3.93156
# Velocity P-wave (km/s) = 6.55837 7.16702 6.86944
#
# Compressibility (1/GPa) = 0.01828530
#
# Stress axis : x y z
#
# Youngs Moduli (GPa) = 62.47395 105.17801 120.32146
#
# Poissons Ratio (x) = 0.19537 0.25455
# Poissons Ratio (y) = 0.11604 0.45686
# Poissons Ratio (z) = 0.13217 0.39936
#
# Static dielectric constant tensor:
#      x y z
#    x 1.876060 0.000000 0.000000 
#    y 0.000000 1.881790 0.000000 
#    z 0.000000 0.000000 1.923620 
# 
# From -- ./inp_files/59384.got.cif
#   From: 2010.05.17/outbox.cif.g08.bks.cpg/sg70_30_cif.got.tgz:59384.got - 2010.06.03 15:57:51.
