data_PCOD9516512
_publ_section_title
;
Structure prediction by ZEFSAII (Michael W. Deem and Ramdas Pophale) SiO2 
 PCOD9516512
Probable space group: F D D D
;
_chemical_formula_sum "Si O2"
_cell_formula_units_Z 160
_cell_length_a 17.692307
_cell_length_b 19.082636
_cell_length_c 19.114387
_cell_angle_alpha 90.000000
_cell_angle_beta 90.000000
_cell_angle_gamma 90.000000
_cell_volume 6453.320100
_symmetry_space_group_name_H-M "F D D D"
_symmetry_group_IT_number 70
_space_group.IT_coordinate_system_code '2'
_symmetry_cell_setting 'orthorhombic'
loop_
_space_group_symop_operation_xyz
x,y,z
1/4-x,1/4-y,z
x,1/4-y,1/4-z
1/4-x,y,1/4-z
-x,-y,-z
3/4+x,3/4+y,-z
-x,3/4+y,3/4+z
3/4+x,-y,3/4+z
x,1/2+y,1/2+z
1/4-x,3/4-y,1/2+z
x,3/4-y,3/4-z
1/4-x,1/2+y,3/4-z
-x,1/2-y,1/2-z
3/4+x,1/4+y,1/2-z
-x,1/4+y,1/4+z
3/4+x,1/2-y,1/4+z
1/2+x,y,1/2+z
3/4-x,1/4-y,1/2+z
1/2+x,1/4-y,3/4-z
3/4-x,y,3/4-z
1/2-x,-y,1/2-z
1/4+x,3/4+y,1/2-z
1/2-x,3/4+y,1/4+z
1/4+x,-y,1/4+z
1/2+x,1/2+y,z
3/4-x,3/4-y,z
1/2+x,3/4-y,1/4-z
3/4-x,1/2+y,1/4-z
1/2-x,1/2-y,-z
1/4+x,1/4+y,-z
1/2-x,1/4+y,3/4+z
1/4+x,1/2-y,3/4+z
loop_
_atom_site_type_symbol
_atom_site_label
_atom_site_fract_x
_atom_site_fract_y
_atom_site_fract_z
Si Si1 0.766655 0.947515 0.589762
Si Si2 0.347822 0.565639 0.680880
Si Si3 0.375000 0.875000 0.257278
Si Si4 0.125000 0.219713 0.125000
Si Si5 0.280255 0.433934 0.434675
Si Si6 0.718914 0.342902 0.192241
O O1 0.802207 0.923808 0.516603
O O2 0.725392 0.879764 0.618885
O O3 0.816486 0.991713 0.647231
O O4 0.693612 0.996733 0.583215
O O5 0.325110 0.625000 0.625000
O O6 0.438740 0.562939 0.682080
O O7 0.321175 0.601844 0.754327
O O8 0.414205 0.822361 0.312244
O O9 0.443132 0.907755 0.215386
O O10 0.298922 0.375000 0.375000
O O11 0.309050 0.514411 0.429558
#
# Coordination Sequence:
#
# PCOD9516512 Si02
#       6
#    32  32  16  16  32  32
#     4  12  23  38  62  96 136 179 218 280 353 412
#     4  11  21  41  66  96 137 175 222 285 344 397
#     4  11  20  34  60 100 137 166 218 276 355 428
#     4  11  20  34  60 100 137 166 218 276 355 428
#     4  11  26  44  64  96 130 184 241 278 333 420
#     4  12  23  38  62  96 136 179 218 280 353 412
#
# _framework density 24.793438999999999
#
# number of rings (size 3 to 8) (size 9 to 14) (size 15 to 20)
#    0.000    0.600    6.000    3.000    0.000    0.800 
#    0.000    0.000    0.000    0.000    0.000    0.000 
#    0.000    0.000    0.000    0.000    0.000    0.000 
#
# Total GULP energy -222790.137808 kJ/mol
# GULP energy per Si atom -5569.753445 kJ/mol
# Density = 2.473701 g / cm^3
# Si number density = 24.793439 Si / 1000 Ang^3
#
#
#
# Elastic Constant Matrix: (Units=GPa)
#
#
# Indices 1 2 3 4 5 6 
#
# 1 106.8044 2.4887 18.5324 0.0000 0.0000 0.0000
# 2 2.4887 95.7136 75.0045 0.0000 0.0000 0.0000
# 3 18.5324 75.0045 105.7600 0.0000 0.0000 0.0000
# 4 0.0000 0.0000 0.0000 62.1428 0.0000 0.0000
# 5 0.0000 0.0000 0.0000 0.0000 5.9102 0.0000
# 6 0.0000 0.0000 0.0000 0.0000 0.0000 0.2570
#
#
#
# Elastic Compliance Matrix: (Units=1/GPa)
#
#
# Indices 1 2 3 4 5 6 
#
# 1 0.009912 0.002484 -0.003498 0.000000 0.000000 0.000000
# 2 0.002484 0.024140 -0.017555 0.000000 0.000000 0.000000
# 3 -0.003498 -0.017555 0.022519 0.000000 0.000000 0.000000
# 4 0.000000 0.000000 0.000000 0.016092 0.000000 0.000000
# 5 0.000000 0.000000 0.000000 0.000000 0.169200 0.000000
# 6 0.000000 0.000000 0.000000 0.000000 0.000000 3.891142
#
#
# Mechanical properties :
#
#
# Convention : Reuss Voigt Hill
#
# Bulk Modulus (GPa) = 51.46452 55.59214 53.52833
# Shear Modulus (GPa) = 1.19714 27.81214 14.50464
#
# Velocity S-wave (km/s) = 0.69562 3.35289 2.42134
# Velocity P-wave (km/s) = 4.63115 6.12046 5.42713
#
# Compressibility (1/GPa) = 0.01943086
#
# Stress axis : x y z
#
# Youngs Moduli (GPa) = 100.88726 41.42455 44.40780
#
# Poissons Ratio (x) = -0.10288 0.15535
# Poissons Ratio (y) = -0.25057 0.77960
# Poissons Ratio (z) = 0.35293 0.72722
#
# Static dielectric constant tensor:
#      x y z
#    x 1.782210 0.000000 0.000000 
#    y 0.000000 2.297160 0.000000 
#    z 0.000000 0.000000 1.944270 
# 
# From -- ./inp_files/44738.got.cif
#   From: 2010.05.17/outbox.cif.g08.bks.cpg/sg70_23_cif.got.tgz:44738.got - 2010.06.03 15:57:51.
