data_PCOD9516530
_publ_section_title
;
Structure prediction by ZEFSAII (Michael W. Deem and Ramdas Pophale) SiO2 
 PCOD9516530
Probable space group: F D D D
;
_chemical_formula_sum "Si O2"
_cell_formula_units_Z 176
_cell_length_a 26.214655
_cell_length_b 11.202976
_cell_length_c 26.703530
_cell_angle_alpha 90.000000
_cell_angle_beta 90.000000
_cell_angle_gamma 90.000000
_cell_volume 7842.350125
_symmetry_space_group_name_H-M "F D D D"
_symmetry_group_IT_number 70
_space_group.IT_coordinate_system_code '2'
_symmetry_cell_setting 'orthorhombic'
loop_
_space_group_symop_operation_xyz
x,y,z
1/4-x,1/4-y,z
x,1/4-y,1/4-z
1/4-x,y,1/4-z
-x,-y,-z
3/4+x,3/4+y,-z
-x,3/4+y,3/4+z
3/4+x,-y,3/4+z
x,1/2+y,1/2+z
1/4-x,3/4-y,1/2+z
x,3/4-y,3/4-z
1/4-x,1/2+y,3/4-z
-x,1/2-y,1/2-z
3/4+x,1/4+y,1/2-z
-x,1/4+y,1/4+z
3/4+x,1/2-y,1/4+z
1/2+x,y,1/2+z
3/4-x,1/4-y,1/2+z
1/2+x,1/4-y,3/4-z
3/4-x,y,3/4-z
1/2-x,-y,1/2-z
1/4+x,3/4+y,1/2-z
1/2-x,3/4+y,1/4+z
1/4+x,-y,1/4+z
1/2+x,1/2+y,z
3/4-x,3/4-y,z
1/2+x,3/4-y,1/4-z
3/4-x,1/2+y,1/4-z
1/2-x,1/2-y,-z
1/4+x,1/4+y,-z
1/2-x,1/4+y,3/4+z
1/4+x,1/2-y,3/4+z
loop_
_atom_site_type_symbol
_atom_site_label
_atom_site_fract_x
_atom_site_fract_y
_atom_site_fract_z
Si Si1 0.430396 0.311590 0.783226
Si Si2 0.522084 0.125000 0.125000
Si Si3 0.847046 0.196602 0.822484
Si Si4 0.125000 0.125000 0.757192
Si Si5 0.880924 0.125000 0.125000
Si Si6 0.716498 0.766458 0.928309
Si Si7 0.802246 0.822266 0.594564
O O1 0.375000 0.375000 0.788945
O O2 0.423036 0.175061 0.799889
O O3 0.451492 0.312475 0.726608
O O4 0.481463 0.341730 0.814991
O O5 0.554881 0.206846 0.088202
O O6 0.490076 0.218854 0.158063
O O7 0.875000 0.171343 0.875000
O O8 0.878848 0.261478 0.779316
O O9 0.174337 0.121689 0.793314
O O10 0.918755 0.145835 0.171013
O O11 0.847986 0.244045 0.119408
O O12 0.716871 0.676407 0.881275
#
# Coordination Sequence:
#
# PCOD9516530 Si02
#       7
#    32  16  32  16  16  32  32
#     4  11  26  46  71 106 148 204 252 299 381 464
#     4  11  23  48  69 102 147 202 245 313 376 440
#     4  12  25  49  72  98 150 196 251 314 375 453
#     4  12  23  42  72 116 136 196 245 316 392 446
#     4  11  20  38  68 100 144 188 236 313 376 438
#     4  11  23  44  69 106 152 192 243 316 375 446
#     4  11  23  40  73 106 146 186 248 316 379 442
#
# _framework density 22.442252
#
# number of rings (size 3 to 8) (size 9 to 14) (size 15 to 20)
#    0.000    0.727    5.455    2.182    0.000    4.000 
#    0.000    0.000    0.000    0.000    0.000    0.000 
#    0.000    0.000    0.000    0.000    0.000    0.000 
#
# Total GULP energy -245715.421722 kJ/mol
# GULP energy per Si atom -5584.441403 kJ/mol
# Density = 2.239117 g / cm^3
# Si number density = 22.442252 Si / 1000 Ang^3
#
#
#
# Elastic Constant Matrix: (Units=GPa)
#
#
# Indices 1 2 3 4 5 6 
#
# 1 110.2044 14.4742 12.6512 0.0000 0.0000 0.0000
# 2 14.4742 74.2849 16.4363 0.0000 0.0000 0.0000
# 3 12.6512 16.4363 103.9629 0.0000 0.0000 0.0000
# 4 0.0000 0.0000 0.0000 21.4882 0.0000 0.0000
# 5 0.0000 0.0000 0.0000 0.0000 14.8540 0.0000
# 6 0.0000 0.0000 0.0000 0.0000 0.0000 62.6983
#
#
#
# Elastic Compliance Matrix: (Units=1/GPa)
#
#
# Indices 1 2 3 4 5 6 
#
# 1 0.009390 -0.001634 -0.000884 0.000000 0.000000 0.000000
# 2 -0.001634 0.014234 -0.002052 0.000000 0.000000 0.000000
# 3 -0.000884 -0.002052 0.010051 0.000000 0.000000 0.000000
# 4 0.000000 0.000000 0.000000 0.046537 0.000000 0.000000
# 5 0.000000 0.000000 0.000000 0.000000 0.067322 0.000000
# 6 0.000000 0.000000 0.000000 0.000000 0.000000 0.015949
#
#
# Mechanical properties :
#
#
# Convention : Reuss Voigt Hill
#
# Bulk Modulus (GPa) = 40.75775 41.73064 41.24419
# Shear Modulus (GPa) = 27.65467 36.13416 31.89441
#
# Velocity S-wave (km/s) = 3.51416 4.01695 3.77394
# Velocity P-wave (km/s) = 5.88782 6.33637 6.11621
#
# Compressibility (1/GPa) = 0.02453521
#
# Stress axis : x y z
#
# Youngs Moduli (GPa) = 106.49426 70.25440 99.49486
#
# Poissons Ratio (x) = 0.11479 0.08799
# Poissons Ratio (y) = 0.17401 0.20412
# Poissons Ratio (z) = 0.09418 0.14413
#
# Static dielectric constant tensor:
#      x y z
#    x 1.934950 0.000000 0.000000 
#    y 0.000000 1.795470 0.000000 
#    z 0.000000 0.000000 1.866680 
# 
# From -- ./inp_files/61702.got.cif
#   From: 2010.05.17/outbox.cif.g08.bks.cpg/sg70_31_cif.got.tgz:61702.got - 2010.06.03 15:57:51.
