data_PCOD9516351
_publ_section_title
;
Structure prediction by ZEFSAII (Michael W. Deem and Ramdas Pophale) SiO2 
 PCOD9516351
Probable space group: F D D D
;
_chemical_formula_sum "Si O2"
_cell_formula_units_Z 104
_cell_length_a 27.531059
_cell_length_b 9.376859
_cell_length_c 18.784257
_cell_angle_alpha 90.000000
_cell_angle_beta 90.000000
_cell_angle_gamma 90.000000
_cell_volume 4849.247205
_symmetry_space_group_name_H-M "F D D D"
_symmetry_group_IT_number 70
_space_group.IT_coordinate_system_code '2'
_symmetry_cell_setting 'orthorhombic'
loop_
_space_group_symop_operation_xyz
x,y,z
1/4-x,1/4-y,z
x,1/4-y,1/4-z
1/4-x,y,1/4-z
-x,-y,-z
3/4+x,3/4+y,-z
-x,3/4+y,3/4+z
3/4+x,-y,3/4+z
x,1/2+y,1/2+z
1/4-x,3/4-y,1/2+z
x,3/4-y,3/4-z
1/4-x,1/2+y,3/4-z
-x,1/2-y,1/2-z
3/4+x,1/4+y,1/2-z
-x,1/4+y,1/4+z
3/4+x,1/2-y,1/4+z
1/2+x,y,1/2+z
3/4-x,1/4-y,1/2+z
1/2+x,1/4-y,3/4-z
3/4-x,y,3/4-z
1/2-x,-y,1/2-z
1/4+x,3/4+y,1/2-z
1/2-x,3/4+y,1/4+z
1/4+x,-y,1/4+z
1/2+x,1/2+y,z
3/4-x,3/4-y,z
1/2+x,3/4-y,1/4-z
3/4-x,1/2+y,1/4-z
1/2-x,1/2-y,-z
1/4+x,1/4+y,-z
1/2-x,1/4+y,3/4+z
1/4+x,1/2-y,3/4+z
loop_
_atom_site_type_symbol
_atom_site_label
_atom_site_fract_x
_atom_site_fract_y
_atom_site_fract_z
Si Si1 0.013640 0.148015 0.041251
Si Si2 0.125000 0.625000 0.125000
Si Si3 0.846180 0.234115 0.187727
Si Si4 0.587021 0.749643 0.496738
O O1 0.025883 0.125000 0.125000
O O2 0.965438 0.247558 0.038034
O O3 0.054740 0.221907 0.993238
O O4 0.000000 0.000000 0.000000
O O5 0.088472 0.524496 0.168963
O O6 0.829592 0.125000 0.125000
O O7 0.875000 0.375000 0.163476
O O8 0.887394 0.145628 0.228172
O O9 0.625000 0.625000 0.477335
#
# Coordination Sequence:
#
# PCOD9516351 Si02
#       4
#    32   8  32  32
#     4  12  29  47  75 110 153 195 254 315 380 449
#     4   8  24  40  74 104 148 188 248 312 364 444
#     4  12  27  47  79 109 152 199 250 312 388 450
#     4  10  24  46  72 107 154 189 257 306 381 443
#
# _framework density 21.446628
#
# number of rings (size 3 to 8) (size 9 to 14) (size 15 to 20)
#    0.923    0.000    3.077    1.846   10.769    1.846 
#    0.000    0.000    0.000    0.000    0.000    0.000 
#    0.000    0.000    0.000    0.000    0.000    0.000 
#
# Total GULP energy -144872.895209 kJ/mol
# GULP energy per Si atom -5572.034431 kJ/mol
# Density = 2.139781 g / cm^3
# Si number density = 21.446628 Si / 1000 Ang^3
#
#
#
# Elastic Constant Matrix: (Units=GPa)
#
#
# Indices 1 2 3 4 5 6 
#
# 1 143.9066 31.9324 52.8048 0.0000 0.0000 0.0000
# 2 31.9324 105.4802 39.5363 0.0000 0.0000 0.0000
# 3 52.8048 39.5363 161.5801 0.0000 0.0000 0.0000
# 4 0.0000 0.0000 0.0000 -26.0920 0.0000 0.0000
# 5 0.0000 0.0000 0.0000 0.0000 -31.4693 0.0000
# 6 0.0000 0.0000 0.0000 0.0000 0.0000 33.2791
#
#
#
# Elastic Compliance Matrix: (Units=1/GPa)
#
#
# Indices 1 2 3 4 5 6 
#
# 1 0.008138 -0.001615 -0.002264 0.000000 0.000000 0.000000
# 2 -0.001615 0.010758 -0.002105 0.000000 0.000000 0.000000
# 3 -0.002264 -0.002105 0.007444 0.000000 0.000000 0.000000
# 4 0.000000 0.000000 0.000000 -0.038326 0.000000 0.000000
# 5 0.000000 0.000000 0.000000 0.000000 -0.031777 0.000000
# 6 0.000000 0.000000 0.000000 0.000000 0.000000 0.030049
#
#
# Mechanical properties :
#
#
# Convention : Reuss Voigt Hill
#
# Bulk Modulus (GPa) = 69.57826 73.27931 71.42878
# Shear Modulus (GPa) = 1642.00056 14.25644 828.12850
#
# Velocity S-wave (km/s) = 27.69989 2.58105 19.67163
# Velocity P-wave (km/s) = 32.48935 6.56695 23.43803
#
# Compressibility (1/GPa) = 0.01437231
#
# Stress axis : x y z
#
# Youngs Moduli (GPa) = 122.87715 92.95235 134.33877
#
# Poissons Ratio (x) = 0.15011 0.30420
# Poissons Ratio (y) = 0.19844 0.28273
# Poissons Ratio (z) = 0.27825 0.19563
#
# Static dielectric constant tensor:
#      x y z
#    x 1.784550 0.000000 0.000000 
#    y 0.000000 1.674090 0.000000 
#    z 0.000000 0.000000 1.940120 
# 
# From -- ./inp_files/47391.got.cif
#   From: 2010.05.17/outbox.cif.g08.bks.cpg/sg70_24_cif.got.tgz:47391.got - 2010.06.03 15:57:51.
