data_PCOD9516517
_publ_section_title
;
Structure prediction by ZEFSAII (Michael W. Deem and Ramdas Pophale) SiO2 
 PCOD9516517
Probable space group: F D D D
;
_chemical_formula_sum "Si O2"
_cell_formula_units_Z 192
_cell_length_a 17.559642
_cell_length_b 24.556342
_cell_length_c 20.991654
_cell_angle_alpha 90.000000
_cell_angle_beta 90.000000
_cell_angle_gamma 90.000000
_cell_volume 9051.613261
_symmetry_space_group_name_H-M "F D D D"
_symmetry_group_IT_number 70
_space_group.IT_coordinate_system_code '2'
_symmetry_cell_setting 'orthorhombic'
loop_
_space_group_symop_operation_xyz
x,y,z
1/4-x,1/4-y,z
x,1/4-y,1/4-z
1/4-x,y,1/4-z
-x,-y,-z
3/4+x,3/4+y,-z
-x,3/4+y,3/4+z
3/4+x,-y,3/4+z
x,1/2+y,1/2+z
1/4-x,3/4-y,1/2+z
x,3/4-y,3/4-z
1/4-x,1/2+y,3/4-z
-x,1/2-y,1/2-z
3/4+x,1/4+y,1/2-z
-x,1/4+y,1/4+z
3/4+x,1/2-y,1/4+z
1/2+x,y,1/2+z
3/4-x,1/4-y,1/2+z
1/2+x,1/4-y,3/4-z
3/4-x,y,3/4-z
1/2-x,-y,1/2-z
1/4+x,3/4+y,1/2-z
1/2-x,3/4+y,1/4+z
1/4+x,-y,1/4+z
1/2+x,1/2+y,z
3/4-x,3/4-y,z
1/2+x,3/4-y,1/4-z
3/4-x,1/2+y,1/4-z
1/2-x,1/2-y,-z
1/4+x,1/4+y,-z
1/2-x,1/4+y,3/4+z
1/4+x,1/2-y,3/4+z
loop_
_atom_site_type_symbol
_atom_site_label
_atom_site_fract_x
_atom_site_fract_y
_atom_site_fract_z
Si Si1 0.558931 0.258496 0.002031
Si Si2 0.282108 0.583608 0.067817
Si Si3 0.140467 0.740366 0.381593
Si Si4 0.440417 0.226502 0.820532
Si Si5 0.126552 0.880723 0.548248
Si Si6 0.400591 0.435127 0.747965
O O1 0.532173 0.210008 0.047905
O O2 0.604648 0.307837 0.032014
O O3 0.481150 0.290155 0.979333
O O4 0.608140 0.235543 0.943908
O O5 0.261978 0.625000 0.125000
O O6 0.350832 0.546321 0.095954
O O7 0.310071 0.611229 0.000925
O O8 0.228926 0.738231 0.399609
O O9 0.098885 0.692914 0.421410
O O10 0.375000 0.226772 0.875000
O O11 0.439042 0.167130 0.787455
O O12 0.412559 0.272762 0.772889
O O13 0.125000 0.880572 0.625000
O O14 0.375000 0.375000 0.766701
#
# Coordination Sequence:
#
# PCOD9516517 Si02
#       6
#    32  32  32  32  32  32
#     4  11  22  40  63  90 120 164 221 263 320 394
#     4  11  23  41  66  94 126 173 217 267 329 390
#     4  11  21  37  58  83 126 165 207 258 318 386
#     4  11  20  36  53  85 128 166 207 256 319 384
#     4  11  22  40  65  91 127 168 212 271 329 381
#     4  11  23  34  53  87 125 161 208 258 312 386
#
# _framework density 21.211687999999999
#
# number of rings (size 3 to 8) (size 9 to 14) (size 15 to 20)
#    0.000    1.000    6.667    2.500    2.333    0.333 
#    0.000    0.833    3.667    0.000    0.000    0.000 
#    0.000    0.000    0.000    0.000    0.000    0.000 
#
# Total GULP energy -267602.438198 kJ/mol
# GULP energy per Si atom -5575.050796 kJ/mol
# Density = 2.116341 g / cm^3
# Si number density = 21.211688 Si / 1000 Ang^3
#
#
#
# Elastic Constant Matrix: (Units=GPa)
#
#
# Indices 1 2 3 4 5 6 
#
# 1 5.7622 -4.6724 -1.2900 0.0000 0.0000 0.0000
# 2 -4.6724 115.7756 37.0770 0.0000 0.0000 0.0000
# 3 -1.2900 37.0770 96.8437 0.0000 0.0000 0.0000
# 4 0.0000 0.0000 0.0000 23.9553 0.0000 0.0000
# 5 0.0000 0.0000 0.0000 0.0000 26.7639 0.0000
# 6 0.0000 0.0000 0.0000 0.0000 0.0000 23.6189
#
#
#
# Elastic Compliance Matrix: (Units=1/GPa)
#
#
# Indices 1 2 3 4 5 6 
#
# 1 0.179431 0.007381 -0.000436 0.000000 0.000000 0.000000
# 2 0.007381 0.010148 -0.003787 0.000000 0.000000 0.000000
# 3 -0.000436 -0.003787 0.011770 0.000000 0.000000 0.000000
# 4 0.000000 0.000000 0.000000 0.041744 0.000000 0.000000
# 5 0.000000 0.000000 0.000000 0.000000 0.037364 0.000000
# 6 0.000000 0.000000 0.000000 0.000000 0.000000 0.042339
#
#
# Mechanical properties :
#
#
# Convention : Reuss Voigt Hill
#
# Bulk Modulus (GPa) = 4.81543 31.17896 17.99719
# Shear Modulus (GPa) = 12.96339 27.35210 20.15775
#
# Velocity S-wave (km/s) = 2.47481 3.59483 3.08606
# Velocity P-wave (km/s) = 3.23131 5.65343 4.60449
#
# Compressibility (1/GPa) = 0.20766590
#
# Stress axis : x y z
#
# Youngs Moduli (GPa) = 5.57317 98.54143 84.96225
#
# Poissons Ratio (x) = -0.72732 0.03701
# Poissons Ratio (y) = -0.04113 0.32174
# Poissons Ratio (z) = 0.00243 0.37317
#
# Static dielectric constant tensor:
#      x y z
#    x 1.837380 0.000000 0.000000 
#    y 0.000000 1.771110 0.000000 
#    z 0.000000 0.000000 -0.581370 
# 
# From -- ./inp_files/44960.got.cif
#   From: 2010.05.17/outbox.cif.g08.bks.cpg/sg70_23_cif.got.tgz:44960.got - 2010.06.03 15:57:51.
