data_PCOD9516890
_publ_section_title
;
Structure prediction by ZEFSAII (Michael W. Deem and Ramdas Pophale) SiO2 
 PCOD9516890
Probable space group: F D D D
;
_chemical_formula_sum "Si O2"
_cell_formula_units_Z 112
_cell_length_a 31.604157
_cell_length_b 30.775216
_cell_length_c 5.052197
_cell_angle_alpha 90.000000
_cell_angle_beta 90.000000
_cell_angle_gamma 90.000000
_cell_volume 4913.891885
_symmetry_space_group_name_H-M "F D D D"
_symmetry_group_IT_number 70
_space_group.IT_coordinate_system_code '2'
_symmetry_cell_setting 'orthorhombic'
loop_
_space_group_symop_operation_xyz
x,y,z
1/4-x,1/4-y,z
x,1/4-y,1/4-z
1/4-x,y,1/4-z
-x,-y,-z
3/4+x,3/4+y,-z
-x,3/4+y,3/4+z
3/4+x,-y,3/4+z
x,1/2+y,1/2+z
1/4-x,3/4-y,1/2+z
x,3/4-y,3/4-z
1/4-x,1/2+y,3/4-z
-x,1/2-y,1/2-z
3/4+x,1/4+y,1/2-z
-x,1/4+y,1/4+z
3/4+x,1/2-y,1/4+z
1/2+x,y,1/2+z
3/4-x,1/4-y,1/2+z
1/2+x,1/4-y,3/4-z
3/4-x,y,3/4-z
1/2-x,-y,1/2-z
1/4+x,3/4+y,1/2-z
1/2-x,3/4+y,1/4+z
1/4+x,-y,1/4+z
1/2+x,1/2+y,z
3/4-x,3/4-y,z
1/2+x,3/4-y,1/4-z
3/4-x,1/2+y,1/4-z
1/2-x,1/2-y,-z
1/4+x,1/4+y,-z
1/2-x,1/4+y,3/4+z
1/4+x,1/2-y,3/4+z
loop_
_atom_site_type_symbol
_atom_site_label
_atom_site_fract_x
_atom_site_fract_y
_atom_site_fract_z
Si Si1 0.329625 0.716480 0.006931
Si Si2 0.220949 0.625000 0.625000
Si Si3 0.724070 0.454145 0.258775
Si Si4 0.346048 0.815416 0.113319
O O1 0.375000 0.704647 0.875000
O O2 0.294562 0.700817 0.802457
O O3 0.314702 0.703085 0.299877
O O4 0.328784 0.768713 0.024851
O O5 0.247281 0.588220 0.778468
O O6 0.190851 0.598053 0.431687
O O7 0.750000 0.500000 0.250000
O O8 0.375000 0.809714 0.375000
O O9 0.375000 0.830081 0.875000
#
# Coordination Sequence:
#
# PCOD9516890 Si02
#       4
#    32  16  32  32
#     4  11  24  48  77 100 142 198 244 291 358 436
#     4  12  29  44  74 112 154 186 242 308 374 436
#     4  12  26  47  71 110 147 189 240 298 365 434
#     4  11  25  45  72 110 147 183 234 299 376 449
#
# _framework density 22.792522000000002
#
# number of rings (size 3 to 8) (size 9 to 14) (size 15 to 20)
#    0.000    0.571    2.857    5.571    0.000    5.714 
#    0.000    2.857    0.000    1.714    0.000    0.000 
#    0.000    0.000    0.000    0.000    0.000    0.000 
#
# Total GULP energy -156757.197621 kJ/mol
# GULP energy per Si atom -5598.471344 kJ/mol
# Density = 2.274065 g / cm^3
# Si number density = 22.792522 Si / 1000 Ang^3
#
#
#
# Elastic Constant Matrix: (Units=GPa)
#
#
# Indices 1 2 3 4 5 6 
#
# 1 87.5978 43.2154 8.2684 0.0103 -0.0450 -0.9314
# 2 43.2154 76.7300 0.7494 0.0190 -0.0938 -3.1485
# 3 8.2684 0.7494 94.0769 0.1150 -0.1801 -1.1440
# 4 0.0103 0.0190 0.1150 32.2632 -0.0168 -0.8084
# 5 -0.0450 -0.0938 -0.1801 -0.0168 54.8522 3.9090
# 6 -0.9314 -3.1485 -1.1440 -0.8084 3.9090 404.8580
#
#
#
# Elastic Compliance Matrix: (Units=1/GPa)
#
#
# Indices 1 2 3 4 5 6 
#
# 1 0.015974 -0.008985 -0.001333 0.000004 -0.000004 -0.000037
# 2 -0.008985 0.018092 0.000647 -0.000007 0.000017 0.000122
# 3 -0.001333 0.000647 0.010742 -0.000037 0.000033 0.000032
# 4 0.000004 -0.000007 -0.000037 0.030997 0.000005 0.000062
# 5 -0.000004 0.000017 0.000033 0.000005 0.018243 -0.000176
# 6 -0.000037 0.000122 0.000032 0.000062 -0.000176 0.002473
#
#
# Mechanical properties :
#
#
# Convention : Reuss Voigt Hill
#
# Bulk Modulus (GPa) = 39.26785 40.31902 39.79344
# Shear Modulus (GPa) = 40.20846 112.13945 76.17396
#
# Velocity S-wave (km/s) = 4.20468 7.02189 5.78733
# Velocity P-wave (km/s) = 6.39048 9.13622 7.88381
#
# Compressibility (1/GPa) = 0.02546612
#
# Stress axis : x y z
#
# Youngs Moduli (GPa) = 62.60166 55.27290 93.09180
#
# Poissons Ratio (x) = 0.49664 0.12408
# Poissons Ratio (y) = 0.56249 -0.06024
# Poissons Ratio (z) = 0.08344 -0.03577
#
# Static dielectric constant tensor:
#      x y z
#    x 1.854060 -0.000170 -0.002180 
#    y -0.000170 1.835480 0.001850 
#    z -0.002180 0.001850 1.543380 
# 
# From -- ./inp_files/4054.got.cif
#   From: 2010.05.17/outbox.cif.g08.bks.cpg/sg70_3_cif.got.tgz:4054.got - 2010.06.03 15:57:51.
