data_PCOD9516598
_publ_section_title
;
Structure prediction by ZEFSAII (Michael W. Deem and Ramdas Pophale) SiO2 
 PCOD9516598
Probable space group: F D D D
;
_chemical_formula_sum "Si O2"
_cell_formula_units_Z 136
_cell_length_a 9.373659
_cell_length_b 26.844713
_cell_length_c 23.541648
_cell_angle_alpha 90.000000
_cell_angle_beta 90.000000
_cell_angle_gamma 90.000000
_cell_volume 5923.859881
_symmetry_space_group_name_H-M "F D D D"
_symmetry_group_IT_number 70
_space_group.IT_coordinate_system_code '2'
_symmetry_cell_setting 'orthorhombic'
loop_
_space_group_symop_operation_xyz
x,y,z
1/4-x,1/4-y,z
x,1/4-y,1/4-z
1/4-x,y,1/4-z
-x,-y,-z
3/4+x,3/4+y,-z
-x,3/4+y,3/4+z
3/4+x,-y,3/4+z
x,1/2+y,1/2+z
1/4-x,3/4-y,1/2+z
x,3/4-y,3/4-z
1/4-x,1/2+y,3/4-z
-x,1/2-y,1/2-z
3/4+x,1/4+y,1/2-z
-x,1/4+y,1/4+z
3/4+x,1/2-y,1/4+z
1/2+x,y,1/2+z
3/4-x,1/4-y,1/2+z
1/2+x,1/4-y,3/4-z
3/4-x,y,3/4-z
1/2-x,-y,1/2-z
1/4+x,3/4+y,1/2-z
1/2-x,3/4+y,1/4+z
1/4+x,-y,1/4+z
1/2+x,1/2+y,z
3/4-x,3/4-y,z
1/2+x,3/4-y,1/4-z
3/4-x,1/2+y,1/4-z
1/2-x,1/2-y,-z
1/4+x,1/4+y,-z
1/2-x,1/4+y,3/4+z
1/4+x,1/2-y,3/4+z
loop_
_atom_site_type_symbol
_atom_site_label
_atom_site_fract_x
_atom_site_fract_y
_atom_site_fract_z
Si Si1 0.025341 0.305201 0.962782
Si Si2 0.748006 0.469826 0.083892
Si Si3 0.506079 0.797348 0.584727
Si Si4 0.625000 0.625000 0.625000
Si Si5 0.863958 0.430580 0.282700
O O1 0.945395 0.254620 0.943618
O O2 0.976860 0.344689 0.917100
O O3 0.982791 0.313306 0.027942
O O4 0.198349 0.301969 0.966122
O O5 0.625000 0.450136 0.125000
O O6 0.887074 0.470061 0.121195
O O7 0.700522 0.525384 0.064015
O O8 0.625000 0.821965 0.625000
O O9 0.431979 0.823549 0.530852
O O10 0.875000 0.375000 0.307448
#
# Coordination Sequence:
#
# PCOD9516598 Si02
#       5
#    32  32  32   8  32
#     4  11  24  44  68 101 142 182 233 295 344 424
#     4  11  21  44  74  93 133 192 224 282 360 414
#     4  11  23  45  68  99 142 184 235 283 352 430
#     4  12  28  44  66 108 148 184 242 294 356 412
#     4  11  25  41  69 105 135 179 240 287 354 421
#
# _framework density 22.958005
#
# number of rings (size 3 to 8) (size 9 to 14) (size 15 to 20)
#    0.000    0.941    5.882    1.412    3.294    6.118 
#    6.353    0.000    0.000    0.000    0.000    0.000 
#    0.000    0.000    0.000    0.000    0.000    0.000 
#
# Total GULP energy -189911.806299 kJ/mol
# GULP energy per Si atom -5585.641362 kJ/mol
# Density = 2.290575 g / cm^3
# Si number density = 22.958005 Si / 1000 Ang^3
#
#
#
# Elastic Constant Matrix: (Units=GPa)
#
#
# Indices 1 2 3 4 5 6 
#
# 1 69.8606 -4.2761 41.2521 0.0000 0.0000 0.0000
# 2 -4.2761 71.9674 32.5688 0.0000 0.0000 0.0000
# 3 41.2521 32.5688 193.3036 0.0000 0.0000 0.0000
# 4 0.0000 0.0000 0.0000 -15.7772 0.0000 0.0000
# 5 0.0000 0.0000 0.0000 0.0000 38.9430 0.0000
# 6 0.0000 0.0000 0.0000 0.0000 0.0000 12.1263
#
#
#
# Elastic Compliance Matrix: (Units=1/GPa)
#
#
# Indices 1 2 3 4 5 6 
#
# 1 0.016903 0.002854 -0.004088 0.000000 0.000000 0.000000
# 2 0.002854 0.015524 -0.003225 0.000000 0.000000 0.000000
# 3 -0.004088 -0.003225 0.006589 0.000000 0.000000 0.000000
# 4 0.000000 0.000000 0.000000 -0.063383 0.000000 0.000000
# 5 0.000000 0.000000 0.000000 0.000000 0.025679 0.000000
# 6 0.000000 0.000000 0.000000 0.000000 0.000000 0.082466
#
#
# Mechanical properties :
#
#
# Convention : Reuss Voigt Hill
#
# Bulk Modulus (GPa) = 33.22358 52.69125 42.95741
# Shear Modulus (GPa) = 48.67258 24.76421 36.71839
#
# Velocity S-wave (km/s) = 4.60942 3.28788 4.00355
# Velocity P-wave (km/s) = 6.54460 6.11674 6.33429
#
# Compressibility (1/GPa) = 0.03009911
#
# Stress axis : x y z
#
# Youngs Moduli (GPa) = 59.16141 64.41585 151.76929
#
# Poissons Ratio (x) = -0.18387 0.62045
# Poissons Ratio (y) = -0.16887 0.48941
# Poissons Ratio (z) = 0.24186 0.20772
#
# Static dielectric constant tensor:
#      x y z
#    x 1.987720 0.000000 0.000000 
#    y 0.000000 1.911610 0.000000 
#    z 0.000000 0.000000 1.887550 
# 
# From -- ./inp_files/42062.got.cif
#   From: 2010.05.17/outbox.cif.g08.bks.cpg/sg70_22_cif.got.tgz:42062.got - 2010.06.03 15:57:51.
