data_PCOD9516543
_publ_section_title
;
Structure prediction by ZEFSAII (Michael W. Deem and Ramdas Pophale) SiO2 
 PCOD9516543
Probable space group: F D D D
;
_chemical_formula_sum "Si O2"
_cell_formula_units_Z 136
_cell_length_a 25.316682
_cell_length_b 10.542197
_cell_length_c 23.838692
_cell_angle_alpha 90.000000
_cell_angle_beta 90.000000
_cell_angle_gamma 90.000000
_cell_volume 6362.390728
_symmetry_space_group_name_H-M "F D D D"
_symmetry_group_IT_number 70
_space_group.IT_coordinate_system_code '2'
_symmetry_cell_setting 'orthorhombic'
loop_
_space_group_symop_operation_xyz
x,y,z
1/4-x,1/4-y,z
x,1/4-y,1/4-z
1/4-x,y,1/4-z
-x,-y,-z
3/4+x,3/4+y,-z
-x,3/4+y,3/4+z
3/4+x,-y,3/4+z
x,1/2+y,1/2+z
1/4-x,3/4-y,1/2+z
x,3/4-y,3/4-z
1/4-x,1/2+y,3/4-z
-x,1/2-y,1/2-z
3/4+x,1/4+y,1/2-z
-x,1/4+y,1/4+z
3/4+x,1/2-y,1/4+z
1/2+x,y,1/2+z
3/4-x,1/4-y,1/2+z
1/2+x,1/4-y,3/4-z
3/4-x,y,3/4-z
1/2-x,-y,1/2-z
1/4+x,3/4+y,1/2-z
1/2-x,3/4+y,1/4+z
1/4+x,-y,1/4+z
1/2+x,1/2+y,z
3/4-x,3/4-y,z
1/2+x,3/4-y,1/4-z
3/4-x,1/2+y,1/4-z
1/2-x,1/2-y,-z
1/4+x,1/4+y,-z
1/2-x,1/4+y,3/4+z
1/4+x,1/2-y,3/4+z
loop_
_atom_site_type_symbol
_atom_site_label
_atom_site_fract_x
_atom_site_fract_y
_atom_site_fract_z
Si Si1 0.125000 0.125000 0.125000
Si Si2 0.368232 0.183361 0.968329
Si Si3 0.401827 0.754160 0.588277
Si Si4 0.523031 0.798112 0.578760
Si Si5 0.045143 0.518510 0.045756
O O1 0.146335 0.224960 0.172205
O O2 0.308890 0.158867 0.946506
O O3 0.401825 0.053989 0.970187
O O4 0.368874 0.232549 0.031484
O O5 0.404016 0.625000 0.625000
O O6 0.460816 0.789855 0.567899
O O7 0.375000 0.875000 0.618699
O O8 0.548955 0.667618 0.556774
O O9 0.527285 0.793061 0.645697
O O10 0.000000 0.500000 0.000000
#
# Coordination Sequence:
#
# PCOD9516543 Si02
#       5
#     8  32  32  32  32
#     4  12  24  44  66 100 148 176 232 308 360 420
#     4  12  24  44  72 104 142 184 241 301 364 430
#     4  12  27  50  70 103 150 191 241 300 364 439
#     4  11  23  42  72 101 134 185 242 290 355 430
#     4  11  20  40  72 102 137 175 230 299 351 417
#
# _framework density 21.375612
#
# number of rings (size 3 to 8) (size 9 to 14) (size 15 to 20)
#    0.000    0.471    8.235    0.706    0.000    6.588 
#    2.118    0.000    0.000    0.000    0.000    0.000 
#    0.000    0.000    0.000    0.000    0.000    0.000 
#
# Total GULP energy -189658.268683 kJ/mol
# GULP energy per Si atom -5578.184373 kJ/mol
# Density = 2.132696 g / cm^3
# Si number density = 21.375612 Si / 1000 Ang^3
#
#
#
# Elastic Constant Matrix: (Units=GPa)
#
#
# Indices 1 2 3 4 5 6 
#
# 1 99.2677 65.6579 27.4603 0.0000 0.0000 0.0000
# 2 65.6579 98.1242 28.0769 0.0000 0.0000 0.0000
# 3 27.4603 28.0769 107.3305 0.0000 0.0000 0.0000
# 4 0.0000 0.0000 0.0000 11.9171 0.0000 0.0000
# 5 0.0000 0.0000 0.0000 0.0000 17.8233 0.0000
# 6 0.0000 0.0000 0.0000 0.0000 0.0000 18.3313
#
#
#
# Elastic Compliance Matrix: (Units=1/GPa)
#
#
# Indices 1 2 3 4 5 6 
#
# 1 0.018323 -0.011802 -0.001600 0.000000 0.000000 0.000000
# 2 -0.011802 0.018618 -0.001851 0.000000 0.000000 0.000000
# 3 -0.001600 -0.001851 0.010211 0.000000 0.000000 0.000000
# 4 0.000000 0.000000 0.000000 0.083913 0.000000 0.000000
# 5 0.000000 0.000000 0.000000 0.000000 0.056106 0.000000
# 6 0.000000 0.000000 0.000000 0.000000 0.000000 0.054551
#
#
# Mechanical properties :
#
#
# Convention : Reuss Voigt Hill
#
# Bulk Modulus (GPa) = 60.08034 60.79027 60.43531
# Shear Modulus (GPa) = 18.00002 21.84952 19.92477
#
# Velocity S-wave (km/s) = 2.90501 3.20061 3.05639
# Velocity P-wave (km/s) = 6.27854 6.49302 6.38668
#
# Compressibility (1/GPa) = 0.01664438
#
# Stress axis : x y z
#
# Youngs Moduli (GPa) = 54.57649 53.71111 97.93718
#
# Poissons Ratio (x) = 0.63392 0.15674
# Poissons Ratio (y) = 0.64414 0.18126
# Poissons Ratio (z) = 0.08735 0.09941
#
# Static dielectric constant tensor:
#      x y z
#    x 1.785350 0.000000 0.000000 
#    y 0.000000 1.865840 0.000000 
#    z 0.000000 0.000000 1.766090 
# 
# From -- ./inp_files/18965.got.cif
#   From: 2010.05.17/outbox.cif.g08.bks.cpg/sg70_10_cif.got.tgz:18965.got - 2010.06.03 15:57:51.
