data_PCOD9516920
_publ_section_title
;
Structure prediction by ZEFSAII (Michael W. Deem and Ramdas Pophale) SiO2 
 PCOD9516920
Probable space group: F D D D
;
_chemical_formula_sum "Si O2"
_cell_formula_units_Z 112
_cell_length_a 7.634768
_cell_length_b 25.834422
_cell_length_c 24.374784
_cell_angle_alpha 90.000000
_cell_angle_beta 90.000000
_cell_angle_gamma 90.000000
_cell_volume 4807.677969
_symmetry_space_group_name_H-M "F D D D"
_symmetry_group_IT_number 70
_space_group.IT_coordinate_system_code '2'
_symmetry_cell_setting 'orthorhombic'
loop_
_space_group_symop_operation_xyz
x,y,z
1/4-x,1/4-y,z
x,1/4-y,1/4-z
1/4-x,y,1/4-z
-x,-y,-z
3/4+x,3/4+y,-z
-x,3/4+y,3/4+z
3/4+x,-y,3/4+z
x,1/2+y,1/2+z
1/4-x,3/4-y,1/2+z
x,3/4-y,3/4-z
1/4-x,1/2+y,3/4-z
-x,1/2-y,1/2-z
3/4+x,1/4+y,1/2-z
-x,1/4+y,1/4+z
3/4+x,1/2-y,1/4+z
1/2+x,y,1/2+z
3/4-x,1/4-y,1/2+z
1/2+x,1/4-y,3/4-z
3/4-x,y,3/4-z
1/2-x,-y,1/2-z
1/4+x,3/4+y,1/2-z
1/2-x,3/4+y,1/4+z
1/4+x,-y,1/4+z
1/2+x,1/2+y,z
3/4-x,3/4-y,z
1/2+x,3/4-y,1/4-z
3/4-x,1/2+y,1/4-z
1/2-x,1/2-y,-z
1/4+x,1/4+y,-z
1/2-x,1/4+y,3/4+z
1/4+x,1/2-y,3/4+z
loop_
_atom_site_type_symbol
_atom_site_label
_atom_site_fract_x
_atom_site_fract_y
_atom_site_fract_z
Si Si1 0.827801 0.293954 0.632445
Si Si2 0.826645 0.682319 0.606755
Si Si3 0.375000 0.375000 0.047246
Si Si4 0.527441 0.909880 0.009843
O O1 0.625000 0.311176 0.625000
O O2 0.833542 0.233345 0.619447
O O3 0.919151 0.325480 0.584073
O O4 0.931046 0.313169 0.687673
O O5 0.891431 0.625000 0.625000
O O6 0.625000 0.685522 0.625000
O O7 0.839604 0.693662 0.541307
O O8 0.558968 0.379359 0.017358
O O9 0.375000 0.875000 0.984592
#
# Coordination Sequence:
#
# PCOD9516920 Si02
#       4
#    32  32  16  32
#     4  12  24  43  72 103 139 179 231 287 343 411
#     4  11  25  46  67  95 145 186 224 284 348 405
#     4  12  24  44  75 104 135 178 236 286 342 408
#     4  12  23  46  72 102 138 181 229 286 346 405
#
# _framework density 23.296068999999999
#
# number of rings (size 3 to 8) (size 9 to 14) (size 15 to 20)
#    0.000    0.286    7.143    3.429    0.000    2.857 
#    0.000    4.286    0.000    0.000    0.000    0.000 
#    0.000    0.000    0.000    0.000    0.000    0.000 
#
# Total GULP energy -155920.891939 kJ/mol
# GULP energy per Si atom -5568.603284 kJ/mol
# Density = 2.324305 g / cm^3
# Si number density = 23.296069 Si / 1000 Ang^3
#
#
#
# Elastic Constant Matrix: (Units=GPa)
#
#
# Indices 1 2 3 4 5 6 
#
# 1 109.4818 10.3528 19.8840 0.0000 0.0000 0.0000
# 2 10.3528 92.5639 1.6494 0.0000 0.0000 0.0000
# 3 19.8840 1.6494 73.9768 0.0000 0.0000 0.0000
# 4 0.0000 0.0000 0.0000 7.5681 0.0000 0.0000
# 5 0.0000 0.0000 0.0000 0.0000 -29.5484 0.0000
# 6 0.0000 0.0000 0.0000 0.0000 0.0000 26.0143
#
#
#
# Elastic Compliance Matrix: (Units=1/GPa)
#
#
# Indices 1 2 3 4 5 6 
#
# 1 0.009702 -0.001039 -0.002584 0.000000 0.000000 0.000000
# 2 -0.001039 0.010919 0.000036 0.000000 0.000000 0.000000
# 3 -0.002584 0.000036 0.014212 0.000000 0.000000 0.000000
# 4 0.000000 0.000000 0.000000 0.132134 0.000000 0.000000
# 5 0.000000 0.000000 0.000000 0.000000 -0.033843 0.000000
# 6 0.000000 0.000000 0.000000 0.000000 0.000000 0.038440
#
#
# Mechanical properties :
#
#
# Convention : Reuss Voigt Hill
#
# Bulk Modulus (GPa) = 36.15750 37.75496 36.95623
# Shear Modulus (GPa) = 26.60172 17.08255 21.84214
#
# Velocity S-wave (km/s) = 3.38286 2.71085 3.06533
# Velocity P-wave (km/s) = 5.55094 5.10295 5.33165
#
# Compressibility (1/GPa) = 0.02765678
#
# Stress axis : x y z
#
# Youngs Moduli (GPa) = 103.07601 91.58416 70.36492
#
# Poissons Ratio (x) = 0.09516 0.18186
# Poissons Ratio (y) = 0.10710 -0.00252
# Poissons Ratio (z) = 0.26640 -0.00328
#
# Static dielectric constant tensor:
#      x y z
#    x 1.922220 0.000000 0.000000 
#    y 0.000000 1.914230 0.000000 
#    z 0.000000 0.000000 1.953120 
# 
# From -- ./inp_files/49104.got.cif
#   From: 2010.05.17/outbox.cif.g08.bks.cpg/sg70_25_cif.got.tgz:49104.got - 2010.06.03 15:57:51.
