data_PCOD9516214
_publ_section_title
;
Structure prediction by ZEFSAII (Michael W. Deem and Ramdas Pophale) SiO2 
 PCOD9516214
Probable space group: F D D D
;
_chemical_formula_sum "Si O2"
_cell_formula_units_Z 176
_cell_length_a 16.566706
_cell_length_b 18.285658
_cell_length_c 25.255745
_cell_angle_alpha 90.000000
_cell_angle_beta 90.000000
_cell_angle_gamma 90.000000
_cell_volume 7650.801633
_symmetry_space_group_name_H-M "F D D D"
_symmetry_group_IT_number 70
_space_group.IT_coordinate_system_code '2'
_symmetry_cell_setting 'orthorhombic'
loop_
_space_group_symop_operation_xyz
x,y,z
1/4-x,1/4-y,z
x,1/4-y,1/4-z
1/4-x,y,1/4-z
-x,-y,-z
3/4+x,3/4+y,-z
-x,3/4+y,3/4+z
3/4+x,-y,3/4+z
x,1/2+y,1/2+z
1/4-x,3/4-y,1/2+z
x,3/4-y,3/4-z
1/4-x,1/2+y,3/4-z
-x,1/2-y,1/2-z
3/4+x,1/4+y,1/2-z
-x,1/4+y,1/4+z
3/4+x,1/2-y,1/4+z
1/2+x,y,1/2+z
3/4-x,1/4-y,1/2+z
1/2+x,1/4-y,3/4-z
3/4-x,y,3/4-z
1/2-x,-y,1/2-z
1/4+x,3/4+y,1/2-z
1/2-x,3/4+y,1/4+z
1/4+x,-y,1/4+z
1/2+x,1/2+y,z
3/4-x,3/4-y,z
1/2+x,3/4-y,1/4-z
3/4-x,1/2+y,1/4-z
1/2-x,1/2-y,-z
1/4+x,1/4+y,-z
1/2-x,1/4+y,3/4+z
1/4+x,1/2-y,3/4+z
loop_
_atom_site_type_symbol
_atom_site_label
_atom_site_fract_x
_atom_site_fract_y
_atom_site_fract_z
Si Si1 0.953641 0.835822 0.455424
Si Si2 0.625000 0.519836 0.125000
Si Si3 0.032707 0.049091 0.888662
Si Si4 0.525490 0.417445 0.721953
Si Si5 0.611041 0.838974 0.319093
Si Si6 0.625000 0.125000 0.945060
Si Si7 0.875000 0.375000 0.285310
O O1 0.875000 0.875000 0.430472
O O2 0.941768 0.748309 0.460572
O O3 0.949353 0.874249 0.513936
O O4 0.041962 0.842819 0.431364
O O5 0.703950 0.477711 0.106905
O O6 0.589957 0.566710 0.076610
O O7 0.103362 0.061651 0.845925
O O8 0.996369 0.118201 0.920758
O O9 0.073076 0.992111 0.929062
O O10 0.581308 0.377876 0.765549
O O11 0.439501 0.417763 0.751390
O O12 0.583045 0.875000 0.375000
#
# Coordination Sequence:
#
# PCOD9516214 Si02
#       7
#    32  16  32  32  32  16  16
#     4  10  26  47  72  96 141 196 253 300 356 426
#     4  11  24  38  68 108 145 180 228 298 389 452
#     4  12  25  42  71 110 145 189 237 314 383 454
#     4  12  25  42  72 107 141 188 241 300 371 451
#     4  12  25  46  72 105 145 193 240 302 376 439
#     4  10  23  46  70  96 147 189 242 303 360 438
#     4  11  21  40  67 102 146 179 228 293 377 448
#
# _framework density 23.004125999999999
#
# number of rings (size 3 to 8) (size 9 to 14) (size 15 to 20)
#    0.545    0.182    1.818    6.545    5.091    1.091 
#    0.000    1.818    0.000    0.000    0.000    0.000 
#    0.000    0.000    0.000    0.000    0.000    0.000 
#
# Total GULP energy -245304.531160 kJ/mol
# GULP energy per Si atom -5575.102981 kJ/mol
# Density = 2.295177 g / cm^3
# Si number density = 23.004126 Si / 1000 Ang^3
#
#
#
# Elastic Constant Matrix: (Units=GPa)
#
#
# Indices 1 2 3 4 5 6 
#
# 1 130.8238 59.3178 23.2295 0.0000 0.0000 0.0000
# 2 59.3178 110.3405 44.5216 0.0000 0.0000 0.0000
# 3 23.2295 44.5216 93.6027 0.0000 0.0000 0.0000
# 4 0.0000 0.0000 0.0000 21.2331 0.0000 0.0000
# 5 0.0000 0.0000 0.0000 0.0000 41.8652 0.0000
# 6 0.0000 0.0000 0.0000 0.0000 0.0000 41.8680
#
#
#
# Elastic Compliance Matrix: (Units=1/GPa)
#
#
# Indices 1 2 3 4 5 6 
#
# 1 0.010108 -0.005472 0.000094 0.000000 0.000000 0.000000
# 2 -0.005472 0.014178 -0.005385 0.000000 0.000000 0.000000
# 3 0.000094 -0.005385 0.013222 0.000000 0.000000 0.000000
# 4 0.000000 0.000000 0.000000 0.047096 0.000000 0.000000
# 5 0.000000 0.000000 0.000000 0.000000 0.023886 0.000000
# 6 0.000000 0.000000 0.000000 0.000000 0.000000 0.023885
#
#
# Mechanical properties :
#
#
# Convention : Reuss Voigt Hill
#
# Bulk Modulus (GPa) = 62.57529 65.43388 64.00458
# Shear Modulus (GPa) = 31.40144 34.83980 33.12062
#
# Velocity S-wave (km/s) = 3.69865 3.89588 3.79854
# Velocity P-wave (km/s) = 6.74543 6.98164 6.86455
#
# Compressibility (1/GPa) = 0.01598075
#
# Stress axis : x y z
#
# Youngs Moduli (GPa) = 98.92864 70.53377 75.63352
#
# Poissons Ratio (x) = 0.38597 -0.00712
# Poissons Ratio (y) = 0.54135 0.40732
# Poissons Ratio (z) = -0.00932 0.37986
#
# Static dielectric constant tensor:
#      x y z
#    x 1.888090 0.000000 0.000000 
#    y 0.000000 1.983450 0.000000 
#    z 0.000000 0.000000 1.887190 
# 
# From -- ./inp_files/59504.got.cif
#   From: 2010.05.17/outbox.cif.g08.bks.cpg/sg70_30_cif.got.tgz:59504.got - 2010.06.03 15:57:51.
