data_PCOD9516377
_publ_section_title
;
Structure prediction by ZEFSAII (Michael W. Deem and Ramdas Pophale) SiO2 
 PCOD9516377
Probable space group: F D D D
;
_chemical_formula_sum "Si O2"
_cell_formula_units_Z 64
_cell_length_a 17.718099
_cell_length_b 30.468133
_cell_length_c 4.899823
_cell_angle_alpha 90.000000
_cell_angle_beta 90.000000
_cell_angle_gamma 90.000000
_cell_volume 2645.107693
_symmetry_space_group_name_H-M "F D D D"
_symmetry_group_IT_number 70
_space_group.IT_coordinate_system_code '2'
_symmetry_cell_setting 'orthorhombic'
loop_
_space_group_symop_operation_xyz
x,y,z
1/4-x,1/4-y,z
x,1/4-y,1/4-z
1/4-x,y,1/4-z
-x,-y,-z
3/4+x,3/4+y,-z
-x,3/4+y,3/4+z
3/4+x,-y,3/4+z
x,1/2+y,1/2+z
1/4-x,3/4-y,1/2+z
x,3/4-y,3/4-z
1/4-x,1/2+y,3/4-z
-x,1/2-y,1/2-z
3/4+x,1/4+y,1/2-z
-x,1/4+y,1/4+z
3/4+x,1/2-y,1/4+z
1/2+x,y,1/2+z
3/4-x,1/4-y,1/2+z
1/2+x,1/4-y,3/4-z
3/4-x,y,3/4-z
1/2-x,-y,1/2-z
1/4+x,3/4+y,1/2-z
1/2-x,3/4+y,1/4+z
1/4+x,-y,1/4+z
1/2+x,1/2+y,z
3/4-x,3/4-y,z
1/2+x,3/4-y,1/4-z
3/4-x,1/2+y,1/4-z
1/2-x,1/2-y,-z
1/4+x,1/4+y,-z
1/2-x,1/4+y,3/4+z
1/4+x,1/2-y,3/4+z
loop_
_atom_site_type_symbol
_atom_site_label
_atom_site_fract_x
_atom_site_fract_y
_atom_site_fract_z
Si Si1 0.676650 0.875000 0.375000
Si Si2 0.875000 0.258489 0.375000
Si Si3 0.976153 0.709895 0.443506
O O1 0.625000 0.891203 0.625000
O O2 0.718052 0.915698 0.230872
O O3 0.803118 0.291113 0.366035
O O4 0.843783 0.226077 0.617012
O O5 0.000000 0.750000 0.250000
#
# Coordination Sequence:
#
# PCOD9516377 Si02
#       3
#    16  16  32
#     4  12  30  48  81 117 158 214 276 328 404 495
#     4  10  24  48  85 118 158 216 272 338 413 490
#     4  11  25  49  81 116 161 210 269 335 416 479
#
# _framework density 24.195613000000002
#
# number of rings (size 3 to 8) (size 9 to 14) (size 15 to 20)
#    0.000    1.000    0.000    4.500   21.000    0.000 
#    0.000    7.500   22.000    0.000    0.000    0.000 
#    0.000    0.000    0.000    0.000    0.000    0.000 
#
# Total GULP energy -89176.491973 kJ/mol
# GULP energy per Si atom -5573.530748 kJ/mol
# Density = 2.414054 g / cm^3
# Si number density = 24.195613 Si / 1000 Ang^3
#
#
#
# Elastic Constant Matrix: (Units=GPa)
#
#
# Indices 1 2 3 4 5 6 
#
# 1 135.9886 77.7119 59.0025 -0.0087 0.0188 0.0432
# 2 77.7119 230.2167 88.5795 -0.0003 -0.0015 0.0014
# 3 59.0025 88.5795 166.4662 -0.0200 0.0714 0.0524
# 4 -0.0087 -0.0003 -0.0200 66.0790 0.0148 0.0283
# 5 0.0188 -0.0015 0.0714 0.0148 49.7612 -0.0420
# 6 0.0432 0.0014 0.0524 0.0283 -0.0420 -32.5944
#
#
#
# Elastic Compliance Matrix: (Units=1/GPa)
#
#
# Indices 1 2 3 4 5 6 
#
# 1 0.009675 -0.002448 -0.002127 0.000001 -0.000001 0.000009
# 2 -0.002448 0.006081 -0.002368 -0.000001 0.000004 -0.000007
# 3 -0.002127 -0.002368 0.008021 0.000002 -0.000011 0.000010
# 4 0.000001 -0.000001 0.000002 0.015133 -0.000004 0.000013
# 5 -0.000001 0.000004 -0.000011 -0.000004 0.020096 -0.000026
# 6 0.000009 -0.000007 0.000010 0.000013 -0.000026 -0.030680
#
#
# Mechanical properties :
#
#
# Convention : Reuss Voigt Hill
#
# Bulk Modulus (GPa) = 101.09218 109.25104 105.17161
# Shear Modulus (GPa) = 109.86638 37.14099 73.50368
#
# Velocity S-wave (km/s) = 6.74582 3.92220 5.51769
# Velocity P-wave (km/s) = 10.12654 8.10942 9.17359
#
# Compressibility (1/GPa) = 0.00989196
#
# Stress axis : x y z
#
# Youngs Moduli (GPa) = 103.35888 164.44090 124.66755
#
# Poissons Ratio (x) = 0.40248 0.26515
# Poissons Ratio (y) = 0.25298 0.29526
# Poissons Ratio (z) = 0.21983 0.38946
#
# Static dielectric constant tensor:
#      x y z
#    x 2.586920 0.000160 0.002830 
#    y 0.000160 1.907650 -0.000360 
#    z 0.002830 -0.000360 2.916870 
# 
# From -- ./inp_files/1678.got.cif
#   From: 2010.05.17/outbox.cif.g08.bks.cpg/sg70_1_cif.got.tgz:1678.got - 2010.06.03 15:57:51.
