data_PCOD9516634
_publ_section_title
;
Structure prediction by ZEFSAII (Michael W. Deem and Ramdas Pophale) SiO2 
 PCOD9516634
Probable space group: F D D D
;
_chemical_formula_sum "Si O2"
_cell_formula_units_Z 160
_cell_length_a 20.574006
_cell_length_b 15.710304
_cell_length_c 23.860442
_cell_angle_alpha 90.000000
_cell_angle_beta 90.000000
_cell_angle_gamma 90.000000
_cell_volume 7712.264851
_symmetry_space_group_name_H-M "F D D D"
_symmetry_group_IT_number 70
_space_group.IT_coordinate_system_code '2'
_symmetry_cell_setting 'orthorhombic'
loop_
_space_group_symop_operation_xyz
x,y,z
1/4-x,1/4-y,z
x,1/4-y,1/4-z
1/4-x,y,1/4-z
-x,-y,-z
3/4+x,3/4+y,-z
-x,3/4+y,3/4+z
3/4+x,-y,3/4+z
x,1/2+y,1/2+z
1/4-x,3/4-y,1/2+z
x,3/4-y,3/4-z
1/4-x,1/2+y,3/4-z
-x,1/2-y,1/2-z
3/4+x,1/4+y,1/2-z
-x,1/4+y,1/4+z
3/4+x,1/2-y,1/4+z
1/2+x,y,1/2+z
3/4-x,1/4-y,1/2+z
1/2+x,1/4-y,3/4-z
3/4-x,y,3/4-z
1/2-x,-y,1/2-z
1/4+x,3/4+y,1/2-z
1/2-x,3/4+y,1/4+z
1/4+x,-y,1/4+z
1/2+x,1/2+y,z
3/4-x,3/4-y,z
1/2+x,3/4-y,1/4-z
3/4-x,1/2+y,1/4-z
1/2-x,1/2-y,-z
1/4+x,1/4+y,-z
1/2-x,1/4+y,3/4+z
1/4+x,1/2-y,3/4+z
loop_
_atom_site_type_symbol
_atom_site_label
_atom_site_fract_x
_atom_site_fract_y
_atom_site_fract_z
Si Si1 0.141488 0.366194 0.686471
Si Si2 0.866096 0.528838 0.608388
Si Si3 0.280010 0.425212 0.713808
Si Si4 0.104344 0.216868 0.476973
Si Si5 0.046482 0.756339 0.503873
O O1 0.125000 0.337088 0.625000
O O2 0.217611 0.386894 0.683193
O O3 0.128446 0.293237 0.731570
O O4 0.100042 0.447193 0.707942
O O5 0.887343 0.625000 0.625000
O O6 0.918576 0.470127 0.576371
O O7 0.858709 0.482975 0.668104
O O8 0.809280 0.534784 0.561374
O O9 0.250000 0.500000 0.750000
O O10 0.304289 0.345809 0.750876
O O11 0.125000 0.125000 0.498604
O O12 0.025488 0.221963 0.473546
#
# Coordination Sequence:
#
# PCOD9516634 Si02
#       5
#    32  32  32  32  32
#     4  11  24  43  63  96 136 176 228 287 350 417
#     4  12  22  44  71 100 138 184 229 286 354 428
#     4  11  22  40  68  99 135 169 222 285 348 419
#     4  11  25  45  67  99 133 182 237 289 350 416
#     4  11  23  44  68  99 136 177 231 282 350 423
#
# _framework density 20.746175000000001
#
# number of rings (size 3 to 8) (size 9 to 14) (size 15 to 20)
#    0.000    0.800    4.000    4.200    0.000    2.800 
#    7.200    1.000    0.000    0.000    0.000    0.000 
#    0.000    0.000    0.000    0.000    0.000    0.000 
#
# Total GULP energy -223288.348608 kJ/mol
# GULP energy per Si atom -5582.208715 kJ/mol
# Density = 2.069896 g / cm^3
# Si number density = 20.746175 Si / 1000 Ang^3
#
#
#
# Elastic Constant Matrix: (Units=GPa)
#
#
# Indices 1 2 3 4 5 6 
#
# 1 36.9822 6.4775 -7.8247 0.0000 0.0000 0.0000
# 2 6.4775 117.9170 -22.5801 0.0000 0.0000 0.0000
# 3 -7.8247 -22.5801 67.3373 0.0000 0.0000 0.0000
# 4 0.0000 0.0000 0.0000 18.2300 0.0000 0.0000
# 5 0.0000 0.0000 0.0000 0.0000 25.4775 0.0000
# 6 0.0000 0.0000 0.0000 0.0000 0.0000 23.2339
#
#
#
# Elastic Compliance Matrix: (Units=1/GPa)
#
#
# Indices 1 2 3 4 5 6 
#
# 1 0.027825 -0.000972 0.002907 0.000000 0.000000 0.000000
# 2 -0.000972 0.009096 0.002937 0.000000 0.000000 0.000000
# 3 0.002907 0.002937 0.016173 0.000000 0.000000 0.000000
# 4 0.000000 0.000000 0.000000 0.054855 0.000000 0.000000
# 5 0.000000 0.000000 0.000000 0.000000 0.039250 0.000000
# 6 0.000000 0.000000 0.000000 0.000000 0.000000 0.043041
#
#
# Mechanical properties :
#
#
# Convention : Reuss Voigt Hill
#
# Bulk Modulus (GPa) = 15.91309 19.37579 17.64444
# Shear Modulus (GPa) = 24.82109 29.79921 27.31015
#
# Velocity S-wave (km/s) = 3.46268 3.79406 3.63215
# Velocity P-wave (km/s) = 4.86558 5.34349 5.11013
#
# Compressibility (1/GPa) = 0.06284135
#
# Stress axis : x y z
#
# Youngs Moduli (GPa) = 35.93842 109.93362 61.82981
#
# Poissons Ratio (x) = 0.10683 -0.17977
# Poissons Ratio (y) = 0.03492 -0.18162
# Poissons Ratio (z) = -0.10449 -0.32291
#
# Static dielectric constant tensor:
#      x y z
#    x 1.226610 0.000000 0.000000 
#    y 0.000000 1.739910 0.000000 
#    z 0.000000 0.000000 1.746130 
# 
# From -- ./inp_files/28645.got.cif
#   From: 2010.05.17/outbox.cif.g08.bks.cpg/sg70_15_cif.got.tgz:28645.got - 2010.06.03 15:57:51.
