data_PCOD9516944
_publ_section_title
;
Structure prediction by ZEFSAII (Michael W. Deem and Ramdas Pophale) SiO2 
 PCOD9516944
Probable space group: F D D D
;
_chemical_formula_sum "Si O2"
_cell_formula_units_Z 160
_cell_length_a 17.083885
_cell_length_b 15.786005
_cell_length_c 24.360929
_cell_angle_alpha 90.000000
_cell_angle_beta 90.000000
_cell_angle_gamma 90.000000
_cell_volume 6569.808661
_symmetry_space_group_name_H-M "F D D D"
_symmetry_group_IT_number 70
_space_group.IT_coordinate_system_code '2'
_symmetry_cell_setting 'orthorhombic'
loop_
_space_group_symop_operation_xyz
x,y,z
1/4-x,1/4-y,z
x,1/4-y,1/4-z
1/4-x,y,1/4-z
-x,-y,-z
3/4+x,3/4+y,-z
-x,3/4+y,3/4+z
3/4+x,-y,3/4+z
x,1/2+y,1/2+z
1/4-x,3/4-y,1/2+z
x,3/4-y,3/4-z
1/4-x,1/2+y,3/4-z
-x,1/2-y,1/2-z
3/4+x,1/4+y,1/2-z
-x,1/4+y,1/4+z
3/4+x,1/2-y,1/4+z
1/2+x,y,1/2+z
3/4-x,1/4-y,1/2+z
1/2+x,1/4-y,3/4-z
3/4-x,y,3/4-z
1/2-x,-y,1/2-z
1/4+x,3/4+y,1/2-z
1/2-x,3/4+y,1/4+z
1/4+x,-y,1/4+z
1/2+x,1/2+y,z
3/4-x,3/4-y,z
1/2+x,3/4-y,1/4-z
3/4-x,1/2+y,1/4-z
1/2-x,1/2-y,-z
1/4+x,1/4+y,-z
1/2-x,1/4+y,3/4+z
1/4+x,1/2-y,3/4+z
loop_
_atom_site_type_symbol
_atom_site_label
_atom_site_fract_x
_atom_site_fract_y
_atom_site_fract_z
Si Si1 0.270657 0.529040 0.610684
Si Si2 0.462072 0.157694 0.794138
Si Si3 0.911845 0.787155 0.192839
Si Si4 0.089238 0.708607 0.516724
Si Si5 0.843148 0.238862 0.930564
O O1 0.251338 0.625000 0.625000
O O2 0.249116 0.467321 0.659879
O O3 0.359294 0.530284 0.589046
O O4 0.219235 0.498106 0.559100
O O5 0.410264 0.224361 0.755494
O O6 0.530959 0.091882 0.775061
O O7 0.395389 0.095106 0.815296
O O8 0.875000 0.875000 0.174266
O O9 0.900415 0.780145 0.258686
O O10 0.001297 0.779136 0.176306
O O11 0.125000 0.625000 0.544789
O O12 0.875000 0.282227 0.875000
#
# Coordination Sequence:
#
# PCOD9516944 Si02
#       5
#    32  32  32  32  32
#     4  12  26  50  76 113 154 203 257 327 399 467
#     4  12  26  47  80 114 159 207 257 325 406 471
#     4  11  25  50  73 105 157 198 256 329 384 467
#     4  12  25  45  72 114 158 199 259 327 392 476
#     4  11  25  48  76 110 146 206 261 315 392 471
#
# _framework density 24.353829999999999
#
# number of rings (size 3 to 8) (size 9 to 14) (size 15 to 20)
#    0.000    0.400    4.000    4.800    0.000    2.800 
#    7.200    0.000    0.000    0.000    0.000    0.000 
#    0.000    0.000    0.000    0.000    0.000    0.000 
#
# Total GULP energy -223315.939093 kJ/mol
# GULP energy per Si atom -5582.898477 kJ/mol
# Density = 2.429840 g / cm^3
# Si number density = 24.353830 Si / 1000 Ang^3
#
#
#
# Elastic Constant Matrix: (Units=GPa)
#
#
# Indices 1 2 3 4 5 6 
#
# 1 189.6701 49.8076 83.2070 0.0000 0.0000 0.0000
# 2 49.8076 84.9466 43.9524 0.0000 0.0000 0.0000
# 3 83.2070 43.9524 102.4200 0.0000 0.0000 0.0000
# 4 0.0000 0.0000 0.0000 15.2890 0.0000 0.0000
# 5 0.0000 0.0000 0.0000 0.0000 30.2972 0.0000
# 6 0.0000 0.0000 0.0000 0.0000 0.0000 39.6005
#
#
#
# Elastic Compliance Matrix: (Units=1/GPa)
#
#
# Indices 1 2 3 4 5 6 
#
# 1 0.008399 -0.001792 -0.006054 0.000000 0.000000 0.000000
# 2 -0.001792 0.015514 -0.005202 0.000000 0.000000 0.000000
# 3 -0.006054 -0.005202 0.016915 0.000000 0.000000 0.000000
# 4 0.000000 0.000000 0.000000 0.065406 0.000000 0.000000
# 5 0.000000 0.000000 0.000000 0.000000 0.033006 0.000000
# 6 0.000000 0.000000 0.000000 0.000000 0.000000 0.025252
#
#
# Mechanical properties :
#
#
# Convention : Reuss Voigt Hill
#
# Bulk Modulus (GPa) = 67.88253 81.21896 74.55075
# Shear Modulus (GPa) = 25.57545 30.37533 27.97539
#
# Velocity S-wave (km/s) = 3.24414 3.53548 3.39293
# Velocity P-wave (km/s) = 6.47816 7.07729 6.78434
#
# Compressibility (1/GPa) = 0.01473133
#
# Stress axis : x y z
#
# Youngs Moduli (GPa) = 119.06351 64.45627 59.12035
#
# Poissons Ratio (x) = 0.11551 0.35793
# Poissons Ratio (y) = 0.21336 0.30754
# Poissons Ratio (z) = 0.72085 0.33530
#
# Static dielectric constant tensor:
#      x y z
#    x 2.020330 0.000000 0.000000 
#    y 0.000000 1.926090 0.000000 
#    z 0.000000 0.000000 2.003000 
# 
# From -- ./inp_files/59396.got.cif
#   From: 2010.05.17/outbox.cif.g08.bks.cpg/sg70_30_cif.got.tgz:59396.got - 2010.06.03 15:57:51.
