data_PCOD9516815
_publ_section_title
;
Structure prediction by ZEFSAII (Michael W. Deem and Ramdas Pophale) SiO2 
 PCOD9516815
Probable space group: F D D D
;
_chemical_formula_sum "Si O2"
_cell_formula_units_Z 160
_cell_length_a 20.515940
_cell_length_b 12.340972
_cell_length_c 33.879733
_cell_angle_alpha 90.000000
_cell_angle_beta 90.000000
_cell_angle_gamma 90.000000
_cell_volume 8577.895799
_symmetry_space_group_name_H-M "F D D D"
_symmetry_group_IT_number 70
_space_group.IT_coordinate_system_code '2'
_symmetry_cell_setting 'orthorhombic'
loop_
_space_group_symop_operation_xyz
x,y,z
1/4-x,1/4-y,z
x,1/4-y,1/4-z
1/4-x,y,1/4-z
-x,-y,-z
3/4+x,3/4+y,-z
-x,3/4+y,3/4+z
3/4+x,-y,3/4+z
x,1/2+y,1/2+z
1/4-x,3/4-y,1/2+z
x,3/4-y,3/4-z
1/4-x,1/2+y,3/4-z
-x,1/2-y,1/2-z
3/4+x,1/4+y,1/2-z
-x,1/4+y,1/4+z
3/4+x,1/2-y,1/4+z
1/2+x,y,1/2+z
3/4-x,1/4-y,1/2+z
1/2+x,1/4-y,3/4-z
3/4-x,y,3/4-z
1/2-x,-y,1/2-z
1/4+x,3/4+y,1/2-z
1/2-x,3/4+y,1/4+z
1/4+x,-y,1/4+z
1/2+x,1/2+y,z
3/4-x,3/4-y,z
1/2+x,3/4-y,1/4-z
3/4-x,1/2+y,1/4-z
1/2-x,1/2-y,-z
1/4+x,1/4+y,-z
1/2-x,1/4+y,3/4+z
1/4+x,1/2-y,3/4+z
loop_
_atom_site_type_symbol
_atom_site_label
_atom_site_fract_x
_atom_site_fract_y
_atom_site_fract_z
Si Si1 0.599250 0.247929 0.467573
Si Si2 0.737416 0.492577 0.895306
Si Si3 0.312668 0.662659 0.670722
Si Si4 0.625000 0.848697 0.625000
Si Si5 0.375000 0.375000 0.601975
Si Si6 0.832069 0.767249 0.808126
O O1 0.625000 0.125000 0.465811
O O2 0.534602 0.262599 0.440936
O O3 0.654097 0.321956 0.447337
O O4 0.588351 0.273969 0.513305
O O5 0.726501 0.375000 0.875000
O O6 0.811299 0.529899 0.887501
O O7 0.686540 0.580999 0.877258
O O8 0.313380 0.625000 0.625000
O O9 0.353578 0.772531 0.673088
O O10 0.240547 0.692810 0.683350
O O11 0.604003 0.926220 0.661075
O O12 0.875000 0.875000 0.812948
#
# Coordination Sequence:
#
# PCOD9516815 Si02
#       6
#    32  32  32  16  16  32
#     4  11  24  41  67 100 131 170 222 281 325 391
#     4  12  23  43  68  98 131 177 225 266 332 397
#     4  12  22  42  70  93 129 175 224 268 325 403
#     4  12  26  44  64  94 144 178 210 276 340 400
#     4  12  20  42  68  98 118 174 228 260 312 400
#     4  11  27  40  65 101 133 169 217 279 342 387
#
# _framework density 18.652594000000001
#
# number of rings (size 3 to 8) (size 9 to 14) (size 15 to 20)
#    0.000    0.400    7.000    1.800    5.600    1.600 
#    0.000    4.000    0.000    0.000    0.000    0.000 
#    0.000    0.000    0.000    0.000    0.000    0.000 
#
# Total GULP energy -223594.722356 kJ/mol
# GULP energy per Si atom -5589.868059 kJ/mol
# Density = 1.861014 g / cm^3
# Si number density = 18.652594 Si / 1000 Ang^3
#
#
#
# Elastic Constant Matrix: (Units=GPa)
#
#
# Indices 1 2 3 4 5 6 
#
# 1 143.7576 41.1082 58.8637 0.0000 0.0000 0.0000
# 2 41.1082 104.5789 69.4285 0.0000 0.0000 0.0000
# 3 58.8637 69.4285 154.7335 0.0000 0.0000 0.0000
# 4 0.0000 0.0000 0.0000 4.0375 0.0000 0.0000
# 5 0.0000 0.0000 0.0000 0.0000 9.3087 0.0000
# 6 0.0000 0.0000 0.0000 0.0000 0.0000 32.6651
#
#
#
# Elastic Compliance Matrix: (Units=1/GPa)
#
#
# Indices 1 2 3 4 5 6 
#
# 1 0.008444 -0.001690 -0.002454 0.000000 0.000000 0.000000
# 2 -0.001690 0.013957 -0.005620 0.000000 0.000000 0.000000
# 3 -0.002454 -0.005620 0.009918 0.000000 0.000000 0.000000
# 4 0.000000 0.000000 0.000000 0.247675 0.000000 0.000000
# 5 0.000000 0.000000 0.000000 0.000000 0.107426 0.000000
# 6 0.000000 0.000000 0.000000 0.000000 0.000000 0.030614
#
#
# Mechanical properties :
#
#
# Convention : Reuss Voigt Hill
#
# Bulk Modulus (GPa) = 78.17491 82.43007 80.30249
# Shear Modulus (GPa) = 11.31668 24.78027 18.04847
#
# Velocity S-wave (km/s) = 2.46582 3.64884 3.11402
# Velocity P-wave (km/s) = 7.07877 7.87656 7.48830
#
# Compressibility (1/GPa) = 0.01279183
#
# Stress axis : x y z
#
# Youngs Moduli (GPa) = 118.42326 71.64701 100.82869
#
# Poissons Ratio (x) = 0.12109 0.24744
# Poissons Ratio (y) = 0.20015 0.56662
# Poissons Ratio (z) = 0.29061 0.40263
#
# Static dielectric constant tensor:
#      x y z
#    x 1.625030 0.000000 0.000000 
#    y 0.000000 1.626590 0.000000 
#    z 0.000000 0.000000 1.647680 
# 
# From -- ./inp_files/67743.got.cif
#   From: 2010.05.17/outbox.cif.g08.bks.cpg/sg70_34_cif.got.tgz:67743.got - 2010.06.03 15:57:51.
