data_PCOD9516357
_publ_section_title
;
Structure prediction by ZEFSAII (Michael W. Deem and Ramdas Pophale) SiO2 
 PCOD9516357
Probable space group: F D D D
;
_chemical_formula_sum "Si O2"
_cell_formula_units_Z 104
_cell_length_a 9.275202
_cell_length_b 18.280276
_cell_length_c 23.799176
_cell_angle_alpha 90.000000
_cell_angle_beta 90.000000
_cell_angle_gamma 90.000000
_cell_volume 4035.227698
_symmetry_space_group_name_H-M "F D D D"
_symmetry_group_IT_number 70
_space_group.IT_coordinate_system_code '2'
_symmetry_cell_setting 'orthorhombic'
loop_
_space_group_symop_operation_xyz
x,y,z
1/4-x,1/4-y,z
x,1/4-y,1/4-z
1/4-x,y,1/4-z
-x,-y,-z
3/4+x,3/4+y,-z
-x,3/4+y,3/4+z
3/4+x,-y,3/4+z
x,1/2+y,1/2+z
1/4-x,3/4-y,1/2+z
x,3/4-y,3/4-z
1/4-x,1/2+y,3/4-z
-x,1/2-y,1/2-z
3/4+x,1/4+y,1/2-z
-x,1/4+y,1/4+z
3/4+x,1/2-y,1/4+z
1/2+x,y,1/2+z
3/4-x,1/4-y,1/2+z
1/2+x,1/4-y,3/4-z
3/4-x,y,3/4-z
1/2-x,-y,1/2-z
1/4+x,3/4+y,1/2-z
1/2-x,3/4+y,1/4+z
1/4+x,-y,1/4+z
1/2+x,1/2+y,z
3/4-x,3/4-y,z
1/2+x,3/4-y,1/4-z
3/4-x,1/2+y,1/4-z
1/2-x,1/2-y,-z
1/4+x,1/4+y,-z
1/2-x,1/4+y,3/4+z
1/4+x,1/2-y,3/4+z
loop_
_atom_site_type_symbol
_atom_site_label
_atom_site_fract_x
_atom_site_fract_y
_atom_site_fract_z
Si Si1 0.153553 0.884200 0.289611
Si Si2 0.966063 0.988514 0.600018
Si Si3 0.625000 0.125000 0.625000
Si Si4 0.375000 0.375000 0.689994
Si Si5 0.625000 0.625000 0.490335
O O1 0.272368 0.918122 0.331623
O O2 0.239062 0.876857 0.231586
O O3 0.997197 0.917268 0.275787
O O4 0.105932 0.939682 0.427303
O O5 0.883078 0.944829 0.649226
O O6 0.960455 0.931396 0.548462
O O7 0.125000 0.002062 0.625000
#
# Coordination Sequence:
#
# PCOD9516357 Si02
#       5
#    32  32   8  16  16
#     4  11  25  45  71 104 145 197 238 308 372 427
#     4  11  24  44  75 109 141 196 247 298 373 445
#     4  10  28  44  60 108 144 184 252 306 360 434
#     4  10  24  47  70 104 158 179 248 310 362 432
#     4  11  24  42  74 104 144 190 242 305 360 446
#
# _framework density 25.773019000000001
#
# number of rings (size 3 to 8) (size 9 to 14) (size 15 to 20)
#    0.000    1.231    3.077    0.923    4.308    2.462 
#    0.000    6.154    0.000    0.000    0.000    0.000 
#    0.000    0.000    0.000    0.000    0.000    0.000 
#
# Total GULP energy -145274.665489 kJ/mol
# GULP energy per Si atom -5587.487134 kJ/mol
# Density = 2.571436 g / cm^3
# Si number density = 25.773019 Si / 1000 Ang^3
#
#
#
# Elastic Constant Matrix: (Units=GPa)
#
#
# Indices 1 2 3 4 5 6 
#
# 1 199.9717 38.8277 100.3236 0.0000 0.0000 0.0000
# 2 38.8277 81.3604 57.5596 0.0000 0.0000 0.0000
# 3 100.3236 57.5596 188.2043 0.0000 0.0000 0.0000
# 4 0.0000 0.0000 0.0000 52.1457 0.0000 0.0000
# 5 0.0000 0.0000 0.0000 0.0000 75.9709 0.0000
# 6 0.0000 0.0000 0.0000 0.0000 0.0000 14.8889
#
#
#
# Elastic Compliance Matrix: (Units=1/GPa)
#
#
# Indices 1 2 3 4 5 6 
#
# 1 0.006875 -0.000878 -0.003396 0.000000 0.000000 0.000000
# 2 -0.000878 0.015797 -0.004363 0.000000 0.000000 0.000000
# 3 -0.003396 -0.004363 0.008458 0.000000 0.000000 0.000000
# 4 0.000000 0.000000 0.000000 0.019177 0.000000 0.000000
# 5 0.000000 0.000000 0.000000 0.000000 0.013163 0.000000
# 6 0.000000 0.000000 0.000000 0.000000 0.000000 0.067164
#
#
# Mechanical properties :
#
#
# Convention : Reuss Voigt Hill
#
# Bulk Modulus (GPa) = 72.17643 95.88425 84.03034
# Shear Modulus (GPa) = 32.78097 46.78947 39.78522
#
# Velocity S-wave (km/s) = 3.57025 4.26542 3.93323
# Velocity P-wave (km/s) = 6.71275 7.84491 7.30081
#
# Compressibility (1/GPa) = 0.01385494
#
# Stress axis : x y z
#
# Youngs Moduli (GPa) = 145.45291 63.30374 118.22974
#
# Poissons Ratio (x) = 0.05560 0.40153
# Poissons Ratio (y) = 0.12775 0.51584
# Poissons Ratio (z) = 0.49399 0.27620
#
# Static dielectric constant tensor:
#      x y z
#    x 2.059620 0.000000 0.000000 
#    y 0.000000 2.098620 0.000000 
#    z 0.000000 0.000000 2.037270 
# 
# From -- ./inp_files/8220.got.cif
#   From: 2010.05.17/outbox.cif.g08.bks.cpg/sg70_5_cif.got.tgz:8220.got - 2010.06.03 15:57:51.
