data_PCOD9516374
_publ_section_title
;
Structure prediction by ZEFSAII (Michael W. Deem and Ramdas Pophale) SiO2 
 PCOD9516374
Probable space group: F D D D
;
_chemical_formula_sum "Si O2"
_cell_formula_units_Z 104
_cell_length_a 13.584110
_cell_length_b 19.295232
_cell_length_c 14.532758
_cell_angle_alpha 90.000000
_cell_angle_beta 90.000000
_cell_angle_gamma 90.000000
_cell_volume 3809.160184
_symmetry_space_group_name_H-M "F D D D"
_symmetry_group_IT_number 70
_space_group.IT_coordinate_system_code '2'
_symmetry_cell_setting 'orthorhombic'
loop_
_space_group_symop_operation_xyz
x,y,z
1/4-x,1/4-y,z
x,1/4-y,1/4-z
1/4-x,y,1/4-z
-x,-y,-z
3/4+x,3/4+y,-z
-x,3/4+y,3/4+z
3/4+x,-y,3/4+z
x,1/2+y,1/2+z
1/4-x,3/4-y,1/2+z
x,3/4-y,3/4-z
1/4-x,1/2+y,3/4-z
-x,1/2-y,1/2-z
3/4+x,1/4+y,1/2-z
-x,1/4+y,1/4+z
3/4+x,1/2-y,1/4+z
1/2+x,y,1/2+z
3/4-x,1/4-y,1/2+z
1/2+x,1/4-y,3/4-z
3/4-x,y,3/4-z
1/2-x,-y,1/2-z
1/4+x,3/4+y,1/2-z
1/2-x,3/4+y,1/4+z
1/4+x,-y,1/4+z
1/2+x,1/2+y,z
3/4-x,3/4-y,z
1/2+x,3/4-y,1/4-z
3/4-x,1/2+y,1/4-z
1/2-x,1/2-y,-z
1/4+x,1/4+y,-z
1/2-x,1/4+y,3/4+z
1/4+x,1/2-y,3/4+z
loop_
_atom_site_type_symbol
_atom_site_label
_atom_site_fract_x
_atom_site_fract_y
_atom_site_fract_z
Si Si1 0.875000 0.375000 0.375000
Si Si2 0.815470 0.311699 0.554294
Si Si3 0.541819 0.299931 0.523862
Si Si4 0.652923 0.956452 0.231294
O O1 0.803714 0.338210 0.448512
O O2 0.875000 0.375000 0.600309
O O3 0.613587 0.252252 0.463037
O O4 0.718832 0.303813 0.613861
O O5 0.565224 0.377920 0.489921
O O6 0.438627 0.254968 0.514678
O O7 0.625000 0.948936 0.125000
O O8 0.750000 0.000000 0.250000
#
# Coordination Sequence:
#
# PCOD9516374 Si02
#       4
#     8  32  32  32
#     4   8  24  44  72 104 154 204 264 336 428 492
#     4  10  24  48  74 112 156 210 279 342 425 499
#     4  12  26  49  80 115 163 218 280 351 419 507
#     4  12  28  49  79 118 165 221 282 350 422 507
#
# _framework density 27.302606000000001
#
# number of rings (size 3 to 8) (size 9 to 14) (size 15 to 20)
#    0.923    0.000    0.000    6.462    2.154    9.846 
#    0.000    0.000    0.000    0.000    0.000    0.000 
#    0.000    0.000    0.000    0.000    0.000    0.000 
#
# Total GULP energy -144976.190421 kJ/mol
# GULP energy per Si atom -5576.007324 kJ/mol
# Density = 2.724046 g / cm^3
# Si number density = 27.302606 Si / 1000 Ang^3
#
#
#
# Elastic Constant Matrix: (Units=GPa)
#
#
# Indices 1 2 3 4 5 6 
#
# 1 223.3924 125.1085 71.8192 0.0000 0.0000 0.0000
# 2 125.1085 302.4916 51.7154 0.0000 0.0000 0.0000
# 3 71.8192 51.7154 115.5030 0.0000 0.0000 0.0000
# 4 0.0000 0.0000 0.0000 31.0990 0.0000 0.0000
# 5 0.0000 0.0000 0.0000 0.0000 70.4478 0.0000
# 6 0.0000 0.0000 0.0000 0.0000 0.0000 55.6072
#
#
#
# Elastic Compliance Matrix: (Units=1/GPa)
#
#
# Indices 1 2 3 4 5 6 
#
# 1 0.006766 -0.002251 -0.003199 0.000000 0.000000 0.000000
# 2 -0.002251 0.004329 -0.000538 0.000000 0.000000 0.000000
# 3 -0.003199 -0.000538 0.010888 0.000000 0.000000 0.000000
# 4 0.000000 0.000000 0.000000 0.032155 0.000000 0.000000
# 5 0.000000 0.000000 0.000000 0.000000 0.014195 0.000000
# 6 0.000000 0.000000 0.000000 0.000000 0.000000 0.017983
#
#
# Mechanical properties :
#
#
# Convention : Reuss Voigt Hill
#
# Bulk Modulus (GPa) = 99.94607 126.51925 113.23266
# Shear Modulus (GPa) = 49.19875 57.61372 53.40623
#
# Velocity S-wave (km/s) = 4.24958 4.59867 4.42756
# Velocity P-wave (km/s) = 7.79518 8.63928 8.22806
#
# Compressibility (1/GPa) = 0.01000540
#
# Stress axis : x y z
#
# Youngs Moduli (GPa) = 147.80475 230.99635 91.84523
#
# Poissons Ratio (x) = 0.52005 0.29380
# Poissons Ratio (y) = 0.33276 0.04945
# Poissons Ratio (z) = 0.47280 0.12437
#
# Static dielectric constant tensor:
#      x y z
#    x 2.284120 0.000000 0.000000 
#    y 0.000000 2.403750 0.000000 
#    z 0.000000 0.000000 2.320190 
# 
# From -- ./inp_files/33698.got.cif
#   From: 2010.05.17/outbox.cif.g08.bks.cpg/sg70_17_cif.got.tgz:33698.got - 2010.06.03 15:57:51.
