data_PCOD9516448
_publ_section_title
;
Structure prediction by ZEFSAII (Michael W. Deem and Ramdas Pophale) SiO2 
 PCOD9516448
Probable space group: F D D D
;
_chemical_formula_sum "Si O2"
_cell_formula_units_Z 112
_cell_length_a 8.792468
_cell_length_b 18.990917
_cell_length_c 25.648214
_cell_angle_alpha 90.000000
_cell_angle_beta 90.000000
_cell_angle_gamma 90.000000
_cell_volume 4282.662599
_symmetry_space_group_name_H-M "F D D D"
_symmetry_group_IT_number 70
_space_group.IT_coordinate_system_code '2'
_symmetry_cell_setting 'orthorhombic'
loop_
_space_group_symop_operation_xyz
x,y,z
1/4-x,1/4-y,z
x,1/4-y,1/4-z
1/4-x,y,1/4-z
-x,-y,-z
3/4+x,3/4+y,-z
-x,3/4+y,3/4+z
3/4+x,-y,3/4+z
x,1/2+y,1/2+z
1/4-x,3/4-y,1/2+z
x,3/4-y,3/4-z
1/4-x,1/2+y,3/4-z
-x,1/2-y,1/2-z
3/4+x,1/4+y,1/2-z
-x,1/4+y,1/4+z
3/4+x,1/2-y,1/4+z
1/2+x,y,1/2+z
3/4-x,1/4-y,1/2+z
1/2+x,1/4-y,3/4-z
3/4-x,y,3/4-z
1/2-x,-y,1/2-z
1/4+x,3/4+y,1/2-z
1/2-x,3/4+y,1/4+z
1/4+x,-y,1/4+z
1/2+x,1/2+y,z
3/4-x,3/4-y,z
1/2+x,3/4-y,1/4-z
3/4-x,1/2+y,1/4-z
1/2-x,1/2-y,-z
1/4+x,1/4+y,-z
1/2-x,1/4+y,3/4+z
1/4+x,1/2-y,3/4+z
loop_
_atom_site_type_symbol
_atom_site_label
_atom_site_fract_x
_atom_site_fract_y
_atom_site_fract_z
Si Si1 0.622231 0.529681 0.712640
Si Si2 0.456791 0.749281 0.189310
Si Si3 0.625000 0.125000 0.625000
Si Si4 0.375000 0.875000 0.875000
Si Si5 0.625000 0.370207 0.625000
Si Si6 0.625000 0.625000 0.449990
O O1 0.750000 0.500000 0.750000
O O2 0.476666 0.493983 0.686970
O O3 0.704000 0.574196 0.666837
O O4 0.540103 0.576317 0.758320
O O5 0.500000 0.750000 0.250000
O O6 0.522804 0.678531 0.160744
O O7 0.527180 0.816465 0.160317
O O8 0.504798 0.407739 0.586787
#
# Coordination Sequence:
#
# PCOD9516448 Si02
#       6
#    32  32   8   8  16  16
#     4  11  26  45  72 105 146 191 247 303 372 449
#     4  11  24  47  73 107 141 193 251 306 371 448
#     4  10  26  46  84 106 150 202 254 314 382 438
#     4  10  26  46  72 102 146 194 240 308 362 436
#     4  11  26  44  72 104 146 190 244 303 370 440
#     4  11  26  46  64 108 140 192 240 291 376 434
#
# _framework density 26.151955000000001
#
# number of rings (size 3 to 8) (size 9 to 14) (size 15 to 20)
#    0.000    1.143    2.857    0.857    8.000    5.714 
#    0.000    0.000    0.000    0.000    0.000    0.000 
#    0.000    0.000    0.000    0.000    0.000    0.000 
#
# Total GULP energy -156241.508624 kJ/mol
# GULP energy per Si atom -5580.053879 kJ/mol
# Density = 2.609243 g / cm^3
# Si number density = 26.151955 Si / 1000 Ang^3
#
#
#
# Elastic Constant Matrix: (Units=GPa)
#
#
# Indices 1 2 3 4 5 6 
#
# 1 154.7415 26.7856 69.3092 0.0000 0.0000 0.0000
# 2 26.7856 72.0325 65.2399 0.0000 0.0000 0.0000
# 3 69.3092 65.2399 241.2105 0.0000 0.0000 0.0000
# 4 0.0000 0.0000 0.0000 48.6830 0.0000 0.0000
# 5 0.0000 0.0000 0.0000 0.0000 53.6428 0.0000
# 6 0.0000 0.0000 0.0000 0.0000 0.0000 26.7897
#
#
#
# Elastic Compliance Matrix: (Units=1/GPa)
#
#
# Indices 1 2 3 4 5 6 
#
# 1 0.007483 -0.001106 -0.001851 0.000000 0.000000 0.000000
# 2 -0.001106 0.018550 -0.004699 0.000000 0.000000 0.000000
# 3 -0.001851 -0.004699 0.005949 0.000000 0.000000 0.000000
# 4 0.000000 0.000000 0.000000 0.020541 0.000000 0.000000
# 5 0.000000 0.000000 0.000000 0.000000 0.018642 0.000000
# 6 0.000000 0.000000 0.000000 0.000000 0.000000 0.037328
#
#
# Mechanical properties :
#
#
# Convention : Reuss Voigt Hill
#
# Bulk Modulus (GPa) = 59.99253 87.85046 73.92149
# Shear Modulus (GPa) = 38.65131 46.26641 42.45886
#
# Velocity S-wave (km/s) = 3.84858 4.21068 4.03369
# Velocity P-wave (km/s) = 6.53747 7.57000 7.07261
#
# Compressibility (1/GPa) = 0.01666874
#
# Stress axis : x y z
#
# Youngs Moduli (GPa) = 133.63784 53.90776 168.10529
#
# Poissons Ratio (x) = 0.05963 0.31116
# Poissons Ratio (y) = 0.14782 0.79000
# Poissons Ratio (z) = 0.24736 0.25333
#
# Static dielectric constant tensor:
#      x y z
#    x 2.256220 0.000000 0.000000 
#    y 0.000000 2.366870 0.000000 
#    z 0.000000 0.000000 2.038380 
# 
# From -- ./inp_files/9580.got.cif
#   From: 2010.05.17/outbox.cif.g08.bks.cpg/sg70_5_cif.got.tgz:9580.got - 2010.06.03 15:57:51.
