data_PCOD9516931
_publ_section_title
;
Structure prediction by ZEFSAII (Michael W. Deem and Ramdas Pophale) SiO2 
 PCOD9516931
Probable space group: F D D D
;
_chemical_formula_sum "Si O2"
_cell_formula_units_Z 96
_cell_length_a 6.231119
_cell_length_b 17.184430
_cell_length_c 30.129438
_cell_angle_alpha 90.000000
_cell_angle_beta 90.000000
_cell_angle_gamma 90.000000
_cell_volume 3226.206840
_symmetry_space_group_name_H-M "F D D D"
_symmetry_group_IT_number 70
_space_group.IT_coordinate_system_code '2'
_symmetry_cell_setting 'orthorhombic'
loop_
_space_group_symop_operation_xyz
x,y,z
1/4-x,1/4-y,z
x,1/4-y,1/4-z
1/4-x,y,1/4-z
-x,-y,-z
3/4+x,3/4+y,-z
-x,3/4+y,3/4+z
3/4+x,-y,3/4+z
x,1/2+y,1/2+z
1/4-x,3/4-y,1/2+z
x,3/4-y,3/4-z
1/4-x,1/2+y,3/4-z
-x,1/2-y,1/2-z
3/4+x,1/4+y,1/2-z
-x,1/4+y,1/4+z
3/4+x,1/2-y,1/4+z
1/2+x,y,1/2+z
3/4-x,1/4-y,1/2+z
1/2+x,1/4-y,3/4-z
3/4-x,y,3/4-z
1/2-x,-y,1/2-z
1/4+x,3/4+y,1/2-z
1/2-x,3/4+y,1/4+z
1/4+x,-y,1/4+z
1/2+x,1/2+y,z
3/4-x,3/4-y,z
1/2+x,3/4-y,1/4-z
3/4-x,1/2+y,1/4-z
1/2-x,1/2-y,-z
1/4+x,1/4+y,-z
1/2-x,1/4+y,3/4+z
1/4+x,1/2-y,3/4+z
loop_
_atom_site_type_symbol
_atom_site_label
_atom_site_fract_x
_atom_site_fract_y
_atom_site_fract_z
Si Si1 0.283035 0.725007 0.166984
Si Si2 0.129927 0.421780 0.285268
Si Si3 0.658137 0.920836 0.555586
O O1 0.125000 0.730794 0.125000
O O2 0.444744 0.798193 0.167941
O O3 0.393827 0.641360 0.175020
O O4 0.111137 0.712714 0.206985
O O5 0.106691 0.378550 0.238517
O O6 0.975730 0.493301 0.290893
O O7 0.875000 0.875000 0.573634
#
# Coordination Sequence:
#
# PCOD9516931 Si02
#       3
#    32  32  32
#     4  11  26  48  79 117 186 243 299 365 468 550
#     4  11  25  46  85 127 172 231 308 367 462 543
#     4  12  26  45  85 136 174 229 313 388 446 554
#
# _framework density 29.756305999999999
#
# number of rings (size 3 to 8) (size 9 to 14) (size 15 to 20)
#    0.000    0.667    3.333    5.000    0.000    5.333 
#    0.000    6.667   14.667    0.000    0.000    0.000 
#    0.000    0.333    0.000    1.000    0.000    0.000 
#
# Total GULP energy -134135.697253 kJ/mol
# GULP energy per Si atom -5588.987386 kJ/mol
# Density = 2.968858 g / cm^3
# Si number density = 29.756306 Si / 1000 Ang^3
#
#
#
# Elastic Constant Matrix: (Units=GPa)
#
#
# Indices 1 2 3 4 5 6 
#
# 1 210.2423 111.0011 88.7172 0.0000 0.0000 0.0000
# 2 111.0011 323.2240 96.0606 0.0000 0.0000 0.0000
# 3 88.7172 96.0606 163.3140 0.0000 0.0000 0.0000
# 4 0.0000 0.0000 0.0000 30.9853 0.0000 0.0000
# 5 0.0000 0.0000 0.0000 0.0000 34.7566 0.0000
# 6 0.0000 0.0000 0.0000 0.0000 0.0000 88.4327
#
#
#
# Elastic Compliance Matrix: (Units=1/GPa)
#
#
# Indices 1 2 3 4 5 6 
#
# 1 0.006708 -0.001479 -0.002774 0.000000 0.000000 0.000000
# 2 -0.001479 0.004075 -0.001594 0.000000 0.000000 0.000000
# 3 -0.002774 -0.001594 0.008567 0.000000 0.000000 0.000000
# 4 0.000000 0.000000 0.000000 0.032273 0.000000 0.000000
# 5 0.000000 0.000000 0.000000 0.000000 0.028771 0.000000
# 6 0.000000 0.000000 0.000000 0.000000 0.000000 0.011308
#
#
# Mechanical properties :
#
#
# Convention : Reuss Voigt Hill
#
# Bulk Modulus (GPa) = 130.59376 143.14868 136.87122
# Shear Modulus (GPa) = 47.19235 57.56836 52.38035
#
# Velocity S-wave (km/s) = 3.98673 4.40325 4.20016
# Velocity P-wave (km/s) = 8.07311 8.60598 8.34380
#
# Compressibility (1/GPa) = 0.00765733
#
# Stress axis : x y z
#
# Youngs Moduli (GPa) = 149.07767 245.37266 116.72202
#
# Poissons Ratio (x) = 0.36297 0.32377
# Poissons Ratio (y) = 0.22052 0.18601
# Poissons Ratio (z) = 0.41352 0.39102
#
# Static dielectric constant tensor:
#      x y z
#    x 2.661830 0.000000 0.000000 
#    y 0.000000 2.337840 0.000000 
#    z 0.000000 0.000000 2.370720 
# 
# From -- ./inp_files/20325.got.cif
#   From: 2010.05.17/outbox.cif.g08.bks.cpg/sg70_11_cif.got.tgz:20325.got - 2010.06.03 15:57:51.
