data_PCOD9516387
_publ_section_title
;
Structure prediction by ZEFSAII (Michael W. Deem and Ramdas Pophale) SiO2 
 PCOD9516387
Probable space group: F D D D
;
_chemical_formula_sum "Si O2"
_cell_formula_units_Z 128
_cell_length_a 25.243888
_cell_length_b 14.062406
_cell_length_c 13.756292
_cell_angle_alpha 90.000000
_cell_angle_beta 90.000000
_cell_angle_gamma 90.000000
_cell_volume 4883.343374
_symmetry_space_group_name_H-M "F D D D"
_symmetry_group_IT_number 70
_space_group.IT_coordinate_system_code '2'
_symmetry_cell_setting 'orthorhombic'
loop_
_space_group_symop_operation_xyz
x,y,z
1/4-x,1/4-y,z
x,1/4-y,1/4-z
1/4-x,y,1/4-z
-x,-y,-z
3/4+x,3/4+y,-z
-x,3/4+y,3/4+z
3/4+x,-y,3/4+z
x,1/2+y,1/2+z
1/4-x,3/4-y,1/2+z
x,3/4-y,3/4-z
1/4-x,1/2+y,3/4-z
-x,1/2-y,1/2-z
3/4+x,1/4+y,1/2-z
-x,1/4+y,1/4+z
3/4+x,1/2-y,1/4+z
1/2+x,y,1/2+z
3/4-x,1/4-y,1/2+z
1/2+x,1/4-y,3/4-z
3/4-x,y,3/4-z
1/2-x,-y,1/2-z
1/4+x,3/4+y,1/2-z
1/2-x,3/4+y,1/4+z
1/4+x,-y,1/4+z
1/2+x,1/2+y,z
3/4-x,3/4-y,z
1/2+x,3/4-y,1/4-z
3/4-x,1/2+y,1/4-z
1/2-x,1/2-y,-z
1/4+x,1/4+y,-z
1/2-x,1/4+y,3/4+z
1/4+x,1/2-y,3/4+z
loop_
_atom_site_type_symbol
_atom_site_label
_atom_site_fract_x
_atom_site_fract_y
_atom_site_fract_z
Si Si1 0.451135 0.742758 0.176545
Si Si2 0.558820 0.182699 0.327472
Si Si3 0.502170 0.718826 0.519147
Si Si4 0.608945 0.386287 0.515161
O O1 0.500000 0.750000 0.250000
O O2 0.428954 0.849747 0.155669
O O3 0.476506 0.717874 0.070347
O O4 0.405058 0.678533 0.220238
O O5 0.507636 0.229942 0.379609
O O6 0.542282 0.119162 0.235740
O O7 0.597167 0.483184 0.455582
O O8 0.444845 0.675429 0.491249
O O9 0.625000 0.409188 0.625000
#
# Coordination Sequence:
#
# PCOD9516387 Si02
#       4
#    32  32  32  32
#     4  10  24  50  81 121 170 227 280 363 447 530
#     4  10  25  51  86 122 169 227 287 364 449 526
#     4  10  24  51  81 120 168 220 285 361 441 523
#     4  12  23  49  85 120 170 225 294 358 442 537
#
# _framework density 26.211549999999999
#
# number of rings (size 3 to 8) (size 9 to 14) (size 15 to 20)
#    1.500    0.000    2.500    1.500    0.000    2.000 
#   18.000    3.750    0.000    0.000    0.000    0.000 
#    0.000    0.000    0.000    0.000    0.000    0.000 
#
# Total GULP energy -179102.643451 kJ/mol
# GULP energy per Si atom -5596.957608 kJ/mol
# Density = 2.615189 g / cm^3
# Si number density = 26.211550 Si / 1000 Ang^3
#
#
#
# Elastic Constant Matrix: (Units=GPa)
#
#
# Indices 1 2 3 4 5 6 
#
# 1 155.0880 95.8360 26.3775 0.0000 0.0000 0.0000
# 2 95.8360 192.8023 80.7356 0.0000 0.0000 0.0000
# 3 26.3775 80.7356 146.4064 0.0000 0.0000 0.0000
# 4 0.0000 0.0000 0.0000 41.8428 0.0000 0.0000
# 5 0.0000 0.0000 0.0000 0.0000 38.7448 0.0000
# 6 0.0000 0.0000 0.0000 0.0000 0.0000 72.4851
#
#
#
# Elastic Compliance Matrix: (Units=1/GPa)
#
#
# Indices 1 2 3 4 5 6 
#
# 1 0.009454 -0.005183 0.001155 0.000000 0.000000 0.000000
# 2 -0.005183 0.009585 -0.004352 0.000000 0.000000 0.000000
# 3 0.001155 -0.004352 0.009022 0.000000 0.000000 0.000000
# 4 0.000000 0.000000 0.000000 0.023899 0.000000 0.000000
# 5 0.000000 0.000000 0.000000 0.000000 0.025810 0.000000
# 6 0.000000 0.000000 0.000000 0.000000 0.000000 0.013796
#
#
# Mechanical properties :
#
#
# Convention : Reuss Voigt Hill
#
# Bulk Modulus (GPa) = 88.48454 100.02164 94.25309
# Shear Modulus (GPa) = 44.60523 50.03772 47.32147
#
# Velocity S-wave (km/s) = 4.12969 4.37394 4.25357
# Velocity P-wave (km/s) = 7.52132 7.98441 7.75632
#
# Compressibility (1/GPa) = 0.01130141
#
# Stress axis : x y z
#
# Youngs Moduli (GPa) = 105.77099 104.32527 110.83814
#
# Poissons Ratio (x) = 0.54072 -0.12800
# Poissons Ratio (y) = 0.54822 0.48237
# Poissons Ratio (z) = -0.12215 0.45403
#
# Static dielectric constant tensor:
#      x y z
#    x 2.117590 0.000000 0.000000 
#    y 0.000000 2.119790 0.000000 
#    z 0.000000 0.000000 2.017260 
# 
# From -- ./inp_files/45853.got.cif
#   From: 2010.05.17/outbox.cif.g08.bks.cpg/sg70_23_cif.got.tgz:45853.got - 2010.06.03 15:57:51.
