data_PCOD9516000
_publ_section_title
;
Structure prediction by ZEFSAII (Michael W. Deem and Ramdas Pophale) SiO2 
 PCOD9516000
Probable space group: F D D D
;
_chemical_formula_sum "Si O2"
_cell_formula_units_Z 192
_cell_length_a 23.192573
_cell_length_b 15.653213
_cell_length_c 24.914711
_cell_angle_alpha 90.000000
_cell_angle_beta 90.000000
_cell_angle_gamma 90.000000
_cell_volume 9044.993957
_symmetry_space_group_name_H-M "F D D D"
_symmetry_group_IT_number 70
_space_group.IT_coordinate_system_code '2'
_symmetry_cell_setting 'orthorhombic'
loop_
_space_group_symop_operation_xyz
x,y,z
1/4-x,1/4-y,z
x,1/4-y,1/4-z
1/4-x,y,1/4-z
-x,-y,-z
3/4+x,3/4+y,-z
-x,3/4+y,3/4+z
3/4+x,-y,3/4+z
x,1/2+y,1/2+z
1/4-x,3/4-y,1/2+z
x,3/4-y,3/4-z
1/4-x,1/2+y,3/4-z
-x,1/2-y,1/2-z
3/4+x,1/4+y,1/2-z
-x,1/4+y,1/4+z
3/4+x,1/2-y,1/4+z
1/2+x,y,1/2+z
3/4-x,1/4-y,1/2+z
1/2+x,1/4-y,3/4-z
3/4-x,y,3/4-z
1/2-x,-y,1/2-z
1/4+x,3/4+y,1/2-z
1/2-x,3/4+y,1/4+z
1/4+x,-y,1/4+z
1/2+x,1/2+y,z
3/4-x,3/4-y,z
1/2+x,3/4-y,1/4-z
3/4-x,1/2+y,1/4-z
1/2-x,1/2-y,-z
1/4+x,1/4+y,-z
1/2-x,1/4+y,3/4+z
1/4+x,1/2-y,3/4+z
loop_
_atom_site_type_symbol
_atom_site_label
_atom_site_fract_x
_atom_site_fract_y
_atom_site_fract_z
Si Si1 0.875000 0.375000 0.542125
Si Si2 0.803726 0.787232 0.618897
Si Si3 0.628429 0.851587 0.563739
Si Si4 0.944311 0.302152 0.917584
Si Si5 0.888662 0.625000 0.625000
Si Si6 0.246172 0.598712 0.267420
Si Si7 0.188688 0.460552 0.766691
O O1 0.825522 0.407023 0.581888
O O2 0.854199 0.291457 0.511856
O O3 0.740201 0.756785 0.635926
O O4 0.845567 0.704595 0.609897
O O5 0.798146 0.846162 0.566785
O O6 0.625000 0.882116 0.625000
O O7 0.611507 0.751567 0.565315
O O8 0.690020 0.871538 0.537924
O O9 0.579506 0.892674 0.527464
O O10 0.933370 0.375000 0.875000
O O11 0.975406 0.342104 0.969345
O O12 0.926239 0.585889 0.574962
O O13 0.250000 0.500000 0.250000
O O14 0.250000 0.500000 0.750000
#
# Coordination Sequence:
#
# PCOD9516000 Si02
#       7
#    16  32  32  32  16  32  32
#     4  10  24  44  71  96 133 184 236 296 344 426
#     4  11  20  41  65  99 134 174 226 284 347 423
#     4  12  26  46  68 103 142 180 228 300 357 416
#     4  12  24  43  68  97 144 177 224 288 353 421
#     4  10  22  44  72  96 136 180 232 294 344 426
#     4  12  23  39  66  99 136 180 223 274 353 426
#     4  11  25  47  71 101 139 188 242 293 357 426
#
# _framework density 21.227212000000002
#
# number of rings (size 3 to 8) (size 9 to 14) (size 15 to 20)
#    0.000    0.667    4.167    4.000    0.000    6.333 
#    4.500    0.000    0.000    0.000    0.000    0.000 
#    0.000    0.000    0.000    0.000    0.000    0.000 
#
# Total GULP energy -268322.986534 kJ/mol
# GULP energy per Si atom -5590.062219 kJ/mol
# Density = 2.117890 g / cm^3
# Si number density = 21.227212 Si / 1000 Ang^3
#
#
#
# Elastic Constant Matrix: (Units=GPa)
#
#
# Indices 1 2 3 4 5 6 
#
# 1 93.2465 10.6908 47.0953 0.0000 0.0000 0.0000
# 2 10.6908 68.0006 28.7644 0.0000 0.0000 0.0000
# 3 47.0953 28.7644 122.3001 0.0000 0.0000 0.0000
# 4 0.0000 0.0000 0.0000 38.3599 0.0000 0.0000
# 5 0.0000 0.0000 0.0000 0.0000 35.6479 0.0000
# 6 0.0000 0.0000 0.0000 0.0000 0.0000 37.9918
#
#
#
# Elastic Compliance Matrix: (Units=1/GPa)
#
#
# Indices 1 2 3 4 5 6 
#
# 1 0.013314 0.000084 -0.005147 0.000000 0.000000 0.000000
# 2 0.000084 0.016331 -0.003873 0.000000 0.000000 0.000000
# 3 -0.005147 -0.003873 0.011069 0.000000 0.000000 0.000000
# 4 0.000000 0.000000 0.000000 0.026069 0.000000 0.000000
# 5 0.000000 0.000000 0.000000 0.000000 0.028052 0.000000
# 6 0.000000 0.000000 0.000000 0.000000 0.000000 0.026321
#
#
# Mechanical properties :
#
#
# Convention : Reuss Voigt Hill
#
# Bulk Modulus (GPa) = 43.77839 50.73870 47.25855
# Shear Modulus (GPa) = 34.09635 35.53304 34.81470
#
# Velocity S-wave (km/s) = 4.01216 4.09582 4.05421
# Velocity P-wave (km/s) = 6.49090 6.80604 6.65034
#
# Compressibility (1/GPa) = 0.02284232
#
# Stress axis : x y z
#
# Youngs Moduli (GPa) = 75.10860 61.23332 90.33852
#
# Poissons Ratio (x) = -0.00514 0.46495
# Poissons Ratio (y) = -0.00630 0.34991
# Poissons Ratio (z) = 0.38656 0.23717
#
# Static dielectric constant tensor:
#      x y z
#    x 1.811400 0.000000 0.000000 
#    y 0.000000 1.919050 0.000000 
#    z 0.000000 0.000000 1.469390 
# 
# From -- ./inp_files/61173.got.cif
#   From: 2010.05.17/outbox.cif.g08.bks.cpg/sg70_31_cif.got.tgz:61173.got - 2010.06.03 15:57:51.
