data_PCOD9516998
_publ_section_title
;
Structure prediction by ZEFSAII (Michael W. Deem and Ramdas Pophale) SiO2 
 PCOD9516998
Probable space group: F D D D
;
_chemical_formula_sum "Si O2"
_cell_formula_units_Z 184
_cell_length_a 26.411877
_cell_length_b 22.957716
_cell_length_c 14.816628
_cell_angle_alpha 90.000000
_cell_angle_beta 90.000000
_cell_angle_gamma 90.000000
_cell_volume 8984.156787
_symmetry_space_group_name_H-M "F D D D"
_symmetry_group_IT_number 70
_space_group.IT_coordinate_system_code '2'
_symmetry_cell_setting 'orthorhombic'
loop_
_space_group_symop_operation_xyz
x,y,z
1/4-x,1/4-y,z
x,1/4-y,1/4-z
1/4-x,y,1/4-z
-x,-y,-z
3/4+x,3/4+y,-z
-x,3/4+y,3/4+z
3/4+x,-y,3/4+z
x,1/2+y,1/2+z
1/4-x,3/4-y,1/2+z
x,3/4-y,3/4-z
1/4-x,1/2+y,3/4-z
-x,1/2-y,1/2-z
3/4+x,1/4+y,1/2-z
-x,1/4+y,1/4+z
3/4+x,1/2-y,1/4+z
1/2+x,y,1/2+z
3/4-x,1/4-y,1/2+z
1/2+x,1/4-y,3/4-z
3/4-x,y,3/4-z
1/2-x,-y,1/2-z
1/4+x,3/4+y,1/2-z
1/2-x,3/4+y,1/4+z
1/4+x,-y,1/4+z
1/2+x,1/2+y,z
3/4-x,3/4-y,z
1/2+x,3/4-y,1/4-z
3/4-x,1/2+y,1/4-z
1/2-x,1/2-y,-z
1/4+x,1/4+y,-z
1/2-x,1/4+y,3/4+z
1/4+x,1/2-y,3/4+z
loop_
_atom_site_type_symbol
_atom_site_label
_atom_site_fract_x
_atom_site_fract_y
_atom_site_fract_z
Si Si1 0.875000 0.680775 0.875000
Si Si2 0.569273 0.390239 0.768170
Si Si3 0.625000 0.625000 0.625000
Si Si4 0.433433 0.474403 0.254997
Si Si5 0.521519 0.560545 0.037431
Si Si6 0.869000 0.310442 0.575196
Si Si7 0.958576 0.493019 0.283997
O O1 0.888612 0.644176 0.787473
O O2 0.922387 0.719505 0.902552
O O3 0.577450 0.375000 0.875000
O O4 0.572186 0.455824 0.727771
O O5 0.515660 0.358791 0.746549
O O6 0.591755 0.577674 0.684950
O O7 0.409043 0.472575 0.155121
O O8 0.494363 0.469305 0.251140
O O9 0.519831 0.555127 0.145766
O O10 0.500000 0.500000 0.000000
O O11 0.579349 0.566480 0.006792
O O12 0.875000 0.375000 0.611749
O O13 0.921642 0.283652 0.541534
#
# Coordination Sequence:
#
# PCOD9516998 Si02
#       7
#    16  32   8  32  32  32  32
#     4  12  23  42  65 105 146 179 228 294 374 448
#     4  12  23  40  72 103 143 191 239 304 372 439
#     4  12  30  60  72  92 142 222 272 318 356 434
#     4  12  26  50  72  99 141 199 258 307 363 428
#     4  12  20  40  67 106 151 180 215 285 386 458
#     4  12  24  41  69 104 141 183 233 297 370 445
#     4  12  23  41  72 110 145 185 227 290 380 462
#
# _framework density 20.480497
#
# number of rings (size 3 to 8) (size 9 to 14) (size 15 to 20)
#    0.000    0.000    7.826    2.609    0.000    0.696 
#    4.696    0.870    0.000    0.000    0.000    0.000 
#    0.000    0.000    0.000    0.000    0.000    0.000 
#
# Total GULP energy -256567.514168 kJ/mol
# GULP energy per Si atom -5577.554656 kJ/mol
# Density = 2.043388 g / cm^3
# Si number density = 20.480497 Si / 1000 Ang^3
#
#
#
# Elastic Constant Matrix: (Units=GPa)
#
#
# Indices 1 2 3 4 5 6 
#
# 1 117.2696 41.4456 44.6009 0.0000 0.0000 0.0000
# 2 41.4456 125.0847 24.1795 0.0000 0.0000 0.0000
# 3 44.6009 24.1795 75.3549 0.0000 0.0000 0.0000
# 4 0.0000 0.0000 0.0000 11.4372 0.0000 0.0000
# 5 0.0000 0.0000 0.0000 0.0000 31.1836 0.0000
# 6 0.0000 0.0000 0.0000 0.0000 0.0000 35.9655
#
#
#
# Elastic Compliance Matrix: (Units=1/GPa)
#
#
# Indices 1 2 3 4 5 6 
#
# 1 0.011821 -0.002734 -0.006119 0.000000 0.000000 0.000000
# 2 -0.002734 0.009156 -0.001320 0.000000 0.000000 0.000000
# 3 -0.006119 -0.001320 0.017316 0.000000 0.000000 0.000000
# 4 0.000000 0.000000 0.000000 0.087434 0.000000 0.000000
# 5 0.000000 0.000000 0.000000 0.000000 0.032068 0.000000
# 6 0.000000 0.000000 0.000000 0.000000 0.000000 0.027804
#
#
# Mechanical properties :
#
#
# Convention : Reuss Voigt Hill
#
# Bulk Modulus (GPa) = 55.72076 59.79570 57.75823
# Shear Modulus (GPa) = 23.59306 29.54946 26.57126
#
# Velocity S-wave (km/s) = 3.39776 3.80255 3.60584
# Velocity P-wave (km/s) = 6.53137 6.96699 6.75270
#
# Compressibility (1/GPa) = 0.01794663
#
# Stress axis : x y z
#
# Youngs Moduli (GPa) = 84.59595 109.22372 57.75053
#
# Poissons Ratio (x) = 0.29860 0.35339
# Poissons Ratio (y) = 0.23127 0.07621
# Poissons Ratio (z) = 0.51767 0.14414
#
# Static dielectric constant tensor:
#      x y z
#    x 1.755870 0.000000 0.000000 
#    y 0.000000 1.843410 0.000000 
#    z 0.000000 0.000000 1.754010 
# 
# From -- ./inp_files/37620.got.cif
#   From: 2010.05.17/outbox.cif.g08.bks.cpg/sg70_19_cif.got.tgz:37620.got - 2010.06.03 15:57:51.
