data_PCOD9516509
_publ_section_title
;
Structure prediction by ZEFSAII (Michael W. Deem and Ramdas Pophale) SiO2 
 PCOD9516509
Probable space group: F D D D
;
_chemical_formula_sum "Si O2"
_cell_formula_units_Z 128
_cell_length_a 17.184224
_cell_length_b 25.617033
_cell_length_c 11.544085
_cell_angle_alpha 90.000000
_cell_angle_beta 90.000000
_cell_angle_gamma 90.000000
_cell_volume 5081.808189
_symmetry_space_group_name_H-M "F D D D"
_symmetry_group_IT_number 70
_space_group.IT_coordinate_system_code '2'
_symmetry_cell_setting 'orthorhombic'
loop_
_space_group_symop_operation_xyz
x,y,z
1/4-x,1/4-y,z
x,1/4-y,1/4-z
1/4-x,y,1/4-z
-x,-y,-z
3/4+x,3/4+y,-z
-x,3/4+y,3/4+z
3/4+x,-y,3/4+z
x,1/2+y,1/2+z
1/4-x,3/4-y,1/2+z
x,3/4-y,3/4-z
1/4-x,1/2+y,3/4-z
-x,1/2-y,1/2-z
3/4+x,1/4+y,1/2-z
-x,1/4+y,1/4+z
3/4+x,1/2-y,1/4+z
1/2+x,y,1/2+z
3/4-x,1/4-y,1/2+z
1/2+x,1/4-y,3/4-z
3/4-x,y,3/4-z
1/2-x,-y,1/2-z
1/4+x,3/4+y,1/2-z
1/2-x,3/4+y,1/4+z
1/4+x,-y,1/4+z
1/2+x,1/2+y,z
3/4-x,3/4-y,z
1/2+x,3/4-y,1/4-z
3/4-x,1/2+y,1/4-z
1/2-x,1/2-y,-z
1/4+x,1/4+y,-z
1/2-x,1/4+y,3/4+z
1/4+x,1/2-y,3/4+z
loop_
_atom_site_type_symbol
_atom_site_label
_atom_site_fract_x
_atom_site_fract_y
_atom_site_fract_z
Si Si1 0.491845 0.771767 0.496552
Si Si2 0.909734 0.951990 0.113753
Si Si3 0.456909 0.131750 0.387918
Si Si4 0.032957 0.068535 0.565441
O O1 0.401874 0.786236 0.513779
O O2 0.527191 0.746861 0.382860
O O3 0.538628 0.825283 0.513274
O O4 0.509319 0.727324 0.596274
O O5 0.854993 0.946644 0.230486
O O6 0.964655 0.901707 0.103224
O O7 0.375000 0.102503 0.375000
O O8 0.464590 0.167913 0.273778
O O9 0.044866 0.125000 0.625000
#
# Coordination Sequence:
#
# PCOD9516509 Si02
#       4
#    32  32  32  32
#     4  11  21  35  57  90 118 153 190 249 308 357
#     4  11  23  36  59  86 122 155 193 242 307 356
#     4  11  22  36  53  85 120 156 195 243 296 359
#     4  11  20  33  58  87 117 144 186 243 304 354
#
# _framework density 25.187885000000001
#
# number of rings (size 3 to 8) (size 9 to 14) (size 15 to 20)
#    0.000    1.000    2.500    9.750    3.500    0.000 
#    0.000    1.250    0.000    0.000    0.000    0.000 
#    0.000    0.000    0.000    0.000    0.000    0.000 
#
# Total GULP energy -178789.494332 kJ/mol
# GULP energy per Si atom -5587.171698 kJ/mol
# Density = 2.513056 g / cm^3
# Si number density = 25.187885 Si / 1000 Ang^3
#
#
#
# Elastic Constant Matrix: (Units=GPa)
#
#
# Indices 1 2 3 4 5 6 
#
# 1 213.0656 59.7658 22.1301 0.0000 0.0000 0.0000
# 2 59.7658 93.6944 11.2953 0.0000 0.0000 0.0000
# 3 22.1301 11.2953 36.4948 0.0000 0.0000 0.0000
# 4 0.0000 0.0000 0.0000 5.4791 0.0000 0.0000
# 5 0.0000 0.0000 0.0000 0.0000 15.9320 0.0000
# 6 0.0000 0.0000 0.0000 0.0000 0.0000 27.2891
#
#
#
# Elastic Compliance Matrix: (Units=1/GPa)
#
#
# Indices 1 2 3 4 5 6 
#
# 1 0.005931 -0.003480 -0.002520 0.000000 0.000000 0.000000
# 2 -0.003480 0.013128 -0.001953 0.000000 0.000000 0.000000
# 3 -0.002520 -0.001953 0.029534 0.000000 0.000000 0.000000
# 4 0.000000 0.000000 0.000000 0.182512 0.000000 0.000000
# 5 0.000000 0.000000 0.000000 0.000000 0.062767 0.000000
# 6 0.000000 0.000000 0.000000 0.000000 0.000000 0.036645
#
#
# Mechanical properties :
#
#
# Convention : Reuss Voigt Hill
#
# Bulk Modulus (GPa) = 30.59237 58.84857 44.72047
# Shear Modulus (GPa) = 13.99320 26.41095 20.20207
#
# Velocity S-wave (km/s) = 2.35957 3.24166 2.83513
# Velocity P-wave (km/s) = 4.42668 6.11765 5.33953
#
# Compressibility (1/GPa) = 0.03268789
#
# Stress axis : x y z
#
# Youngs Moduli (GPa) = 168.60180 76.17287 33.85979
#
# Poissons Ratio (x) = 0.26505 0.08531
# Poissons Ratio (y) = 0.58667 0.06613
# Poissons Ratio (z) = 0.42481 0.14878
#
# Static dielectric constant tensor:
#      x y z
#    x 2.027220 0.000000 0.000000 
#    y 0.000000 2.012510 0.000000 
#    z 0.000000 0.000000 2.118160 
# 
# From -- ./inp_files/34809.got.cif
#   From: 2010.05.17/outbox.cif.g08.bks.cpg/sg70_18_cif.got.tgz:34809.got - 2010.06.03 15:57:51.
