data_PCOD9516610
_publ_section_title
;
Structure prediction by ZEFSAII (Michael W. Deem and Ramdas Pophale) SiO2 
 PCOD9516610
Probable space group: F D D D
;
_chemical_formula_sum "Si O2"
_cell_formula_units_Z 96
_cell_length_a 12.421933
_cell_length_b 13.273817
_cell_length_c 25.498703
_cell_angle_alpha 90.000000
_cell_angle_beta 90.000000
_cell_angle_gamma 90.000000
_cell_volume 4204.391011
_symmetry_space_group_name_H-M "F D D D"
_symmetry_group_IT_number 70
_space_group.IT_coordinate_system_code '2'
_symmetry_cell_setting 'orthorhombic'
loop_
_space_group_symop_operation_xyz
x,y,z
1/4-x,1/4-y,z
x,1/4-y,1/4-z
1/4-x,y,1/4-z
-x,-y,-z
3/4+x,3/4+y,-z
-x,3/4+y,3/4+z
3/4+x,-y,3/4+z
x,1/2+y,1/2+z
1/4-x,3/4-y,1/2+z
x,3/4-y,3/4-z
1/4-x,1/2+y,3/4-z
-x,1/2-y,1/2-z
3/4+x,1/4+y,1/2-z
-x,1/4+y,1/4+z
3/4+x,1/2-y,1/4+z
1/2+x,y,1/2+z
3/4-x,1/4-y,1/2+z
1/2+x,1/4-y,3/4-z
3/4-x,y,3/4-z
1/2-x,-y,1/2-z
1/4+x,3/4+y,1/2-z
1/2-x,3/4+y,1/4+z
1/4+x,-y,1/4+z
1/2+x,1/2+y,z
3/4-x,3/4-y,z
1/2+x,3/4-y,1/4-z
3/4-x,1/2+y,1/4-z
1/2-x,1/2-y,-z
1/4+x,1/4+y,-z
1/2-x,1/4+y,3/4+z
1/4+x,1/2-y,3/4+z
loop_
_atom_site_type_symbol
_atom_site_label
_atom_site_fract_x
_atom_site_fract_y
_atom_site_fract_z
Si Si1 0.267988 0.140473 0.440516
Si Si2 0.957167 0.462318 0.799480
Si Si3 0.646641 0.764195 0.868613
O O1 0.383767 0.188618 0.447545
O O2 0.241870 0.077374 0.492537
O O3 0.185031 0.234154 0.429596
O O4 0.239377 0.067403 0.391679
O O5 0.875000 0.375000 0.819382
O O6 0.063269 0.484826 0.833080
O O7 0.694749 0.875000 0.875000
#
# Coordination Sequence:
#
# PCOD9516610 Si02
#       3
#    32  32  32
#     4  11  24  40  68 115 149 186 259 299 363 447
#     4  12  21  40  70 109 145 194 241 307 360 434
#     4  11  22  37  66 106 142 193 241 295 360 427
#
# _framework density 22.833271
#
# number of rings (size 3 to 8) (size 9 to 14) (size 15 to 20)
#    0.000    0.667    6.667    4.000    0.000    0.000 
#    0.000    0.000    0.000   66.000    0.000    0.000 
#    0.000    0.000    0.000    0.000    0.000    0.000 
#
# Total GULP energy -133785.216238 kJ/mol
# GULP energy per Si atom -5574.384010 kJ/mol
# Density = 2.278130 g / cm^3
# Si number density = 22.833271 Si / 1000 Ang^3
#
#
#
# Elastic Constant Matrix: (Units=GPa)
#
#
# Indices 1 2 3 4 5 6 
#
# 1 75.2481 63.9467 49.5117 0.0000 0.0000 0.0000
# 2 63.9467 168.7980 66.7109 0.0000 0.0000 0.0000
# 3 49.5117 66.7109 137.4560 0.0000 0.0000 0.0000
# 4 0.0000 0.0000 0.0000 57.8539 0.0000 0.0000
# 5 0.0000 0.0000 0.0000 0.0000 20.7556 0.0000
# 6 0.0000 0.0000 0.0000 0.0000 0.0000 41.7555
#
#
#
# Elastic Compliance Matrix: (Units=1/GPa)
#
#
# Indices 1 2 3 4 5 6 
#
# 1 0.021866 -0.006398 -0.004771 0.000000 0.000000 0.000000
# 2 -0.006398 0.009202 -0.002162 0.000000 0.000000 0.000000
# 3 -0.004771 -0.002162 0.010043 0.000000 0.000000 0.000000
# 4 0.000000 0.000000 0.000000 0.017285 0.000000 0.000000
# 5 0.000000 0.000000 0.000000 0.000000 0.048180 0.000000
# 6 0.000000 0.000000 0.000000 0.000000 0.000000 0.023949
#
#
# Mechanical properties :
#
#
# Convention : Reuss Voigt Hill
#
# Bulk Modulus (GPa) = 69.20586 82.42674 75.81630
# Shear Modulus (GPa) = 30.86390 37.49518 34.17954
#
# Velocity S-wave (km/s) = 3.68055 4.05672 3.87320
# Velocity P-wave (km/s) = 6.95966 7.62367 7.29922
#
# Compressibility (1/GPa) = 0.01444964
#
# Stress axis : x y z
#
# Youngs Moduli (GPa) = 45.73397 108.66862 99.57590
#
# Poissons Ratio (x) = 0.69526 0.47507
# Poissons Ratio (y) = 0.29260 0.21524
# Poissons Ratio (z) = 0.21819 0.23489
#
# Static dielectric constant tensor:
#      x y z
#    x 1.866960 0.000000 0.000000 
#    y 0.000000 1.938840 0.000000 
#    z 0.000000 0.000000 1.917350 
# 
# From -- ./inp_files/59142.got.cif
#   From: 2010.05.17/outbox.cif.g08.bks.cpg/sg70_30_cif.got.tgz:59142.got - 2010.06.03 15:57:51.
