data_PCOD9516761
_publ_section_title
;
Structure prediction by ZEFSAII (Michael W. Deem and Ramdas Pophale) SiO2 
 PCOD9516761
Probable space group: F D D D
;
_chemical_formula_sum "Si O2"
_cell_formula_units_Z 192
_cell_length_a 28.771533
_cell_length_b 12.414387
_cell_length_c 25.012595
_cell_angle_alpha 90.000000
_cell_angle_beta 90.000000
_cell_angle_gamma 90.000000
_cell_volume 8934.022325
_symmetry_space_group_name_H-M "F D D D"
_symmetry_group_IT_number 70
_space_group.IT_coordinate_system_code '2'
_symmetry_cell_setting 'orthorhombic'
loop_
_space_group_symop_operation_xyz
x,y,z
1/4-x,1/4-y,z
x,1/4-y,1/4-z
1/4-x,y,1/4-z
-x,-y,-z
3/4+x,3/4+y,-z
-x,3/4+y,3/4+z
3/4+x,-y,3/4+z
x,1/2+y,1/2+z
1/4-x,3/4-y,1/2+z
x,3/4-y,3/4-z
1/4-x,1/2+y,3/4-z
-x,1/2-y,1/2-z
3/4+x,1/4+y,1/2-z
-x,1/4+y,1/4+z
3/4+x,1/2-y,1/4+z
1/2+x,y,1/2+z
3/4-x,1/4-y,1/2+z
1/2+x,1/4-y,3/4-z
3/4-x,y,3/4-z
1/2-x,-y,1/2-z
1/4+x,3/4+y,1/2-z
1/2-x,3/4+y,1/4+z
1/4+x,-y,1/4+z
1/2+x,1/2+y,z
3/4-x,3/4-y,z
1/2+x,3/4-y,1/4-z
3/4-x,1/2+y,1/4-z
1/2-x,1/2-y,-z
1/4+x,1/4+y,-z
1/2-x,1/4+y,3/4+z
1/4+x,1/2-y,3/4+z
loop_
_atom_site_type_symbol
_atom_site_label
_atom_site_fract_x
_atom_site_fract_y
_atom_site_fract_z
Si Si1 0.892425 0.497561 0.996844
Si Si2 0.875000 0.375000 0.591832
Si Si3 0.558466 0.748087 0.638359
Si Si4 0.751952 0.625000 0.125000
Si Si5 0.300794 0.511129 0.152445
Si Si6 0.924096 0.216484 0.343927
Si Si7 0.574507 0.935194 0.470295
O O1 0.875000 0.375000 0.995844
O O2 0.935655 0.510798 0.036264
O O3 0.853355 0.576575 0.019345
O O4 0.912337 0.529476 0.939868
O O5 0.917975 0.331416 0.626278
O O6 0.894099 0.475438 0.558645
O O7 0.569869 0.625000 0.625000
O O8 0.503585 0.754360 0.646357
O O9 0.569974 0.837839 0.595519
O O10 0.715655 0.725447 0.126729
O O11 0.783738 0.650635 0.072165
O O12 0.313131 0.625000 0.125000
O O13 0.875000 0.243213 0.375000
O O14 0.932303 0.237568 0.280162
#
# Coordination Sequence:
#
# PCOD9516761 Si02
#       7
#    32  16  32  16  32  32  32
#     4  12  24  42  75 104 147 189 240 298 372 433
#     4  12  24  46  77 104 149 188 246 312 366 442
#     4  11  26  46  70 105 146 189 248 300 364 436
#     4  12  29  50  76 112 148 194 252 311 370 446
#     4  11  23  44  68 107 141 184 241 303 360 434
#     4  12  27  51  76 107 151 200 245 303 378 449
#     4  12  27  48  76 110 148 194 251 306 374 439
#
# _framework density 21.490879
#
# number of rings (size 3 to 8) (size 9 to 14) (size 15 to 20)
#    0.000    0.333    4.167    4.250    4.667    0.000 
#    6.000    0.000    0.000    0.000    0.000    0.000 
#    0.000    0.000    0.000    0.000    0.000    0.000 
#
# Total GULP energy -268062.333686 kJ/mol
# GULP energy per Si atom -5584.631952 kJ/mol
# Density = 2.144197 g / cm^3
# Si number density = 21.490879 Si / 1000 Ang^3
#
#
#
# Elastic Constant Matrix: (Units=GPa)
#
#
# Indices 1 2 3 4 5 6 
#
# 1 152.3715 52.8604 75.3601 0.0000 0.0000 0.0000
# 2 52.8604 97.1411 2.0212 0.0000 0.0000 0.0000
# 3 75.3601 2.0212 81.4262 0.0000 0.0000 0.0000
# 4 0.0000 0.0000 0.0000 28.4801 0.0000 0.0000
# 5 0.0000 0.0000 0.0000 0.0000 34.8380 0.0000
# 6 0.0000 0.0000 0.0000 0.0000 0.0000 29.0616
#
#
#
# Elastic Compliance Matrix: (Units=1/GPa)
#
#
# Indices 1 2 3 4 5 6 
#
# 1 0.017906 -0.009404 -0.016339 0.000000 0.000000 0.000000
# 2 -0.009404 0.015238 0.008325 0.000000 0.000000 0.000000
# 3 -0.016339 0.008325 0.027196 0.000000 0.000000 0.000000
# 4 0.000000 0.000000 0.000000 0.035112 0.000000 0.000000
# 5 0.000000 0.000000 0.000000 0.000000 0.028704 0.000000
# 6 0.000000 0.000000 0.000000 0.000000 0.000000 0.034410
#
#
# Mechanical properties :
#
#
# Convention : Reuss Voigt Hill
#
# Bulk Modulus (GPa) = 39.20765 65.71358 52.46062
# Shear Modulus (GPa) = 24.76437 31.85575 28.31006
#
# Velocity S-wave (km/s) = 3.39827 3.85423 3.63341
# Velocity P-wave (km/s) = 5.80354 7.10286 6.48582
#
# Compressibility (1/GPa) = 0.02550523
#
# Stress axis : x y z
#
# Youngs Moduli (GPa) = 55.84709 65.62426 36.77031
#
# Poissons Ratio (x) = 0.61712 0.60078
# Poissons Ratio (y) = 0.52518 -0.30611
# Poissons Ratio (z) = 0.91247 -0.54632
#
# Static dielectric constant tensor:
#      x y z
#    x 1.762230 0.000000 0.000000 
#    y 0.000000 1.797920 0.000000 
#    z 0.000000 0.000000 1.558300 
# 
# From -- ./inp_files/62246.got.cif
#   From: 2010.05.17/outbox.cif.g08.bks.cpg/sg70_32_cif.got.tgz:62246.got - 2010.06.03 15:57:51.
