data_PCOD9516207
_publ_section_title
;
Structure prediction by ZEFSAII (Michael W. Deem and Ramdas Pophale) SiO2 
 PCOD9516207
Probable space group: F D D D
;
_chemical_formula_sum "Si O2"
_cell_formula_units_Z 104
_cell_length_a 22.758883
_cell_length_b 18.947170
_cell_length_c 9.008242
_cell_angle_alpha 90.000000
_cell_angle_beta 90.000000
_cell_angle_gamma 90.000000
_cell_volume 3884.501913
_symmetry_space_group_name_H-M "F D D D"
_symmetry_group_IT_number 70
_space_group.IT_coordinate_system_code '2'
_symmetry_cell_setting 'orthorhombic'
loop_
_space_group_symop_operation_xyz
x,y,z
1/4-x,1/4-y,z
x,1/4-y,1/4-z
1/4-x,y,1/4-z
-x,-y,-z
3/4+x,3/4+y,-z
-x,3/4+y,3/4+z
3/4+x,-y,3/4+z
x,1/2+y,1/2+z
1/4-x,3/4-y,1/2+z
x,3/4-y,3/4-z
1/4-x,1/2+y,3/4-z
-x,1/2-y,1/2-z
3/4+x,1/4+y,1/2-z
-x,1/4+y,1/4+z
3/4+x,1/2-y,1/4+z
1/2+x,y,1/2+z
3/4-x,1/4-y,1/2+z
1/2+x,1/4-y,3/4-z
3/4-x,y,3/4-z
1/2-x,-y,1/2-z
1/4+x,3/4+y,1/2-z
1/2-x,3/4+y,1/4+z
1/4+x,-y,1/4+z
1/2+x,1/2+y,z
3/4-x,3/4-y,z
1/2+x,3/4-y,1/4-z
3/4-x,1/2+y,1/4-z
1/2-x,1/2-y,-z
1/4+x,1/4+y,-z
1/2-x,1/4+y,3/4+z
1/4+x,1/2-y,3/4+z
loop_
_atom_site_type_symbol
_atom_site_label
_atom_site_fract_x
_atom_site_fract_y
_atom_site_fract_z
Si Si1 0.309467 0.177278 0.436790
Si Si2 0.040155 0.566964 0.246782
Si Si3 0.375000 0.875000 0.375000
Si Si4 0.861228 0.753053 0.712974
O O1 0.375000 0.166897 0.375000
O O2 0.263955 0.112078 0.433838
O O3 0.283418 0.245173 0.350076
O O4 0.326432 0.203857 0.602707
O O5 0.083445 0.535992 0.373300
O O6 0.062989 0.625000 0.125000
O O7 0.416217 0.825720 0.475392
O O8 0.875000 0.721116 0.875000
#
# Coordination Sequence:
#
# PCOD9516207 Si02
#       4
#    32  32   8  32
#     4  10  23  45  75 107 151 204 255 324 390 472
#     4  11  22  42  74 109 141 202 255 308 395 473
#     4   8  16  32  66  92 132 168 238 276 386 416
#     4   9  20  41  72 103 145 192 250 315 389 460
#
# _framework density 26.773059
#
# number of rings (size 3 to 8) (size 9 to 14) (size 15 to 20)
#    0.923    1.231    0.000    2.769    0.000    4.308 
#    0.000   10.769    3.385   12.923    0.000    0.000 
#    0.000    0.000    0.000    0.000    0.000    0.000 
#
# Total GULP energy -144813.085724 kJ/mol
# GULP energy per Si atom -5569.734066 kJ/mol
# Density = 2.671212 g / cm^3
# Si number density = 26.773059 Si / 1000 Ang^3
#
#
#
# Elastic Constant Matrix: (Units=GPa)
#
#
# Indices 1 2 3 4 5 6 
#
# 1 204.6819 94.0312 81.1914 0.0000 0.0000 0.0000
# 2 94.0312 212.8691 57.4468 0.0000 0.0000 0.0000
# 3 81.1914 57.4468 191.5685 0.0000 0.0000 0.0000
# 4 0.0000 0.0000 0.0000 18.5443 0.0000 0.0000
# 5 0.0000 0.0000 0.0000 0.0000 34.0010 0.0000
# 6 0.0000 0.0000 0.0000 0.0000 0.0000 63.2309
#
#
#
# Elastic Compliance Matrix: (Units=1/GPa)
#
#
# Indices 1 2 3 4 5 6 
#
# 1 0.006875 -0.002449 -0.002180 0.000000 0.000000 0.000000
# 2 -0.002449 0.005984 -0.000756 0.000000 0.000000 0.000000
# 3 -0.002180 -0.000756 0.006371 0.000000 0.000000 0.000000
# 4 0.000000 0.000000 0.000000 0.053925 0.000000 0.000000
# 5 0.000000 0.000000 0.000000 0.000000 0.029411 0.000000
# 6 0.000000 0.000000 0.000000 0.000000 0.000000 0.015815
#
#
# Mechanical properties :
#
#
# Convention : Reuss Voigt Hill
#
# Bulk Modulus (GPa) = 118.20604 119.38426 118.79515
# Shear Modulus (GPa) = 37.88746 48.25192 43.06969
#
# Velocity S-wave (km/s) = 3.76591 4.24990 4.01521
# Velocity P-wave (km/s) = 7.94710 8.29278 8.12178
#
# Compressibility (1/GPa) = 0.00845980
#
# Stress axis : x y z
#
# Youngs Moduli (GPa) = 145.45107 167.12388 156.96988
#
# Poissons Ratio (x) = 0.40925 0.34212
# Poissons Ratio (y) = 0.35618 0.11874
# Poissons Ratio (z) = 0.31701 0.12642
#
# Static dielectric constant tensor:
#      x y z
#    x 2.215500 0.000000 0.000000 
#    y 0.000000 2.205200 0.000000 
#    z 0.000000 0.000000 2.414490 
# 
# From -- ./inp_files/10384.got.cif
#   From: 2010.05.17/outbox.cif.g08.bks.cpg/sg70_6_cif.got.tgz:10384.got - 2010.06.03 15:57:51.
