data_PCOD9516501
_publ_section_title
;
Structure prediction by ZEFSAII (Michael W. Deem and Ramdas Pophale) SiO2 
 PCOD9516501
Probable space group: F D D D
;
_chemical_formula_sum "Si O2"
_cell_formula_units_Z 176
_cell_length_a 17.840622
_cell_length_b 15.392104
_cell_length_c 33.814617
_cell_angle_alpha 90.000000
_cell_angle_beta 90.000000
_cell_angle_gamma 90.000000
_cell_volume 9285.653070
_symmetry_space_group_name_H-M "F D D D"
_symmetry_group_IT_number 70
_space_group.IT_coordinate_system_code '2'
_symmetry_cell_setting 'orthorhombic'
loop_
_space_group_symop_operation_xyz
x,y,z
1/4-x,1/4-y,z
x,1/4-y,1/4-z
1/4-x,y,1/4-z
-x,-y,-z
3/4+x,3/4+y,-z
-x,3/4+y,3/4+z
3/4+x,-y,3/4+z
x,1/2+y,1/2+z
1/4-x,3/4-y,1/2+z
x,3/4-y,3/4-z
1/4-x,1/2+y,3/4-z
-x,1/2-y,1/2-z
3/4+x,1/4+y,1/2-z
-x,1/4+y,1/4+z
3/4+x,1/2-y,1/4+z
1/2+x,y,1/2+z
3/4-x,1/4-y,1/2+z
1/2+x,1/4-y,3/4-z
3/4-x,y,3/4-z
1/2-x,-y,1/2-z
1/4+x,3/4+y,1/2-z
1/2-x,3/4+y,1/4+z
1/4+x,-y,1/4+z
1/2+x,1/2+y,z
3/4-x,3/4-y,z
1/2+x,3/4-y,1/4-z
3/4-x,1/2+y,1/4-z
1/2-x,1/2-y,-z
1/4+x,1/4+y,-z
1/2-x,1/4+y,3/4+z
1/4+x,1/2-y,3/4+z
loop_
_atom_site_type_symbol
_atom_site_label
_atom_site_fract_x
_atom_site_fract_y
_atom_site_fract_z
Si Si1 0.994171 0.518272 0.783580
Si Si2 0.850982 0.186997 0.922214
Si Si3 0.125000 0.625000 0.432593
Si Si4 0.957176 0.326323 0.047866
Si Si5 0.988686 0.844981 0.333394
Si Si6 0.857795 0.525432 0.116877
O O1 0.925801 0.572099 0.802650
O O2 0.975156 0.479356 0.741002
O O3 0.062533 0.583705 0.789204
O O4 0.009613 0.430174 0.809187
O O5 0.875000 0.179762 0.875000
O O6 0.780288 0.131532 0.938232
O O7 0.823811 0.283953 0.934310
O O8 0.143128 0.706119 0.402763
O O9 0.875000 0.375000 0.043091
O O10 0.945264 0.262269 0.084041
O O11 0.957605 0.875000 0.375000
O O12 0.059670 0.785894 0.346633
O O13 0.837591 0.625000 0.125000
#
# Coordination Sequence:
#
# PCOD9516501 Si02
#       6
#    32  32  16  32  32  32
#     4  12  27  39  67 101 138 180 225 293 353 405
#     4  12  23  41  68 101 138 173 231 285 344 418
#     4  12  22  48  68  96 133 190 235 270 338 424
#     4  12  26  44  66 104 143 178 219 292 363 404
#     4  11  19  38  66 100 130 166 222 285 348 412
#     4  11  21  41  74  97 129 184 235 270 339 422
#
# _framework density 18.953970999999999
#
# number of rings (size 3 to 8) (size 9 to 14) (size 15 to 20)
#    0.000    0.364    8.182    2.727    2.545    1.455 
#    0.000    5.455    0.000    1.091    0.000    0.000 
#    0.000    0.000    0.000    0.000    0.000    0.000 
#
# Total GULP energy -245043.163210 kJ/mol
# GULP energy per Si atom -5569.162800 kJ/mol
# Density = 1.891083 g / cm^3
# Si number density = 18.953971 Si / 1000 Ang^3
#
#
#
# Elastic Constant Matrix: (Units=GPa)
#
#
# Indices 1 2 3 4 5 6 
#
# 1 137.7580 71.9504 56.9423 0.0000 0.0000 0.0000
# 2 71.9504 107.6240 45.4314 0.0000 0.0000 0.0000
# 3 56.9423 45.4314 90.1126 0.0000 0.0000 0.0000
# 4 0.0000 0.0000 0.0000 14.3267 0.0000 0.0000
# 5 0.0000 0.0000 0.0000 0.0000 17.5041 0.0000
# 6 0.0000 0.0000 0.0000 0.0000 0.0000 -17.8192
#
#
#
# Elastic Compliance Matrix: (Units=1/GPa)
#
#
# Indices 1 2 3 4 5 6 
#
# 1 0.012546 -0.006404 -0.004699 0.000000 0.000000 0.000000
# 2 -0.006404 0.015072 -0.003552 0.000000 0.000000 0.000000
# 3 -0.004699 -0.003552 0.015858 0.000000 0.000000 0.000000
# 4 0.000000 0.000000 0.000000 0.069800 0.000000 0.000000
# 5 0.000000 0.000000 0.000000 0.000000 0.057129 0.000000
# 6 0.000000 0.000000 0.000000 0.000000 0.000000 -0.056119
#
#
# Mechanical properties :
#
#
# Convention : Reuss Voigt Hill
#
# Bulk Modulus (GPa) = 70.59561 76.01588 73.30574
# Shear Modulus (GPa) = 33.71097 13.54701 23.62899
#
# Velocity S-wave (km/s) = 4.22189 2.67635 3.53463
# Velocity P-wave (km/s) = 7.81616 7.05287 7.44431
#
# Compressibility (1/GPa) = 0.01416519
#
# Stress axis : x y z
#
# Youngs Moduli (GPa) = 79.70453 66.34668 63.06055
#
# Poissons Ratio (x) = 0.42488 0.29635
# Poissons Ratio (y) = 0.51042 0.22401
# Poissons Ratio (z) = 0.37457 0.23568
#
# Static dielectric constant tensor:
#      x y z
#    x 1.767150 0.000000 0.000000 
#    y 0.000000 1.765140 0.000000 
#    z 0.000000 0.000000 1.650110 
# 
# From -- ./inp_files/66666.got.cif
#   From: 2010.05.17/outbox.cif.g08.bks.cpg/sg70_34_cif.got.tgz:66666.got - 2010.06.03 15:57:51.
