data_PCOD9516009
_publ_section_title
;
Structure prediction by ZEFSAII (Michael W. Deem and Ramdas Pophale) SiO2 
 PCOD9516009
Probable space group: F D D D
;
_chemical_formula_sum "Si O2"
_cell_formula_units_Z 168
_cell_length_a 13.151910
_cell_length_b 20.713847
_cell_length_c 24.650619
_cell_angle_alpha 90.000000
_cell_angle_beta 90.000000
_cell_angle_gamma 90.000000
_cell_volume 6715.485592
_symmetry_space_group_name_H-M "F D D D"
_symmetry_group_IT_number 70
_space_group.IT_coordinate_system_code '2'
_symmetry_cell_setting 'orthorhombic'
loop_
_space_group_symop_operation_xyz
x,y,z
1/4-x,1/4-y,z
x,1/4-y,1/4-z
1/4-x,y,1/4-z
-x,-y,-z
3/4+x,3/4+y,-z
-x,3/4+y,3/4+z
3/4+x,-y,3/4+z
x,1/2+y,1/2+z
1/4-x,3/4-y,1/2+z
x,3/4-y,3/4-z
1/4-x,1/2+y,3/4-z
-x,1/2-y,1/2-z
3/4+x,1/4+y,1/2-z
-x,1/4+y,1/4+z
3/4+x,1/2-y,1/4+z
1/2+x,y,1/2+z
3/4-x,1/4-y,1/2+z
1/2+x,1/4-y,3/4-z
3/4-x,y,3/4-z
1/2-x,-y,1/2-z
1/4+x,3/4+y,1/2-z
1/2-x,3/4+y,1/4+z
1/4+x,-y,1/4+z
1/2+x,1/2+y,z
3/4-x,3/4-y,z
1/2+x,3/4-y,1/4-z
3/4-x,1/2+y,1/4-z
1/2-x,1/2-y,-z
1/4+x,1/4+y,-z
1/2-x,1/4+y,3/4+z
1/4+x,1/2-y,3/4+z
loop_
_atom_site_type_symbol
_atom_site_label
_atom_site_fract_x
_atom_site_fract_y
_atom_site_fract_z
Si Si1 0.125000 0.389769 0.625000
Si Si2 0.439348 0.038443 0.173164
Si Si3 0.197023 0.187302 0.239832
Si Si4 0.875000 0.875000 0.375000
Si Si5 0.125000 0.125000 0.476084
Si Si6 0.975426 0.264699 0.098066
Si Si7 0.164970 0.396315 0.244249
O O1 0.220100 0.435647 0.639488
O O2 0.094428 0.352163 0.679139
O O3 0.542562 0.073929 0.152567
O O4 0.354038 0.032382 0.127214
O O5 0.401606 0.078165 0.225578
O O6 0.443674 0.967957 0.200181
O O7 0.125000 0.125000 0.237205
O O8 0.183848 0.230341 0.185820
O O9 0.319552 0.183004 0.233329
O O10 0.079226 0.183476 0.441562
O O11 0.217446 0.159974 0.507501
#
# Coordination Sequence:
#
# PCOD9516009 Si02
#       7
#    16  32  32   8  16  32  32
#     4  10  22  45  69 100 140 194 238 322 362 452
#     4  12  27  50  73 115 150 206 252 319 389 459
#     4  12  28  46  75 114 149 203 254 317 383 465
#     4  12  30  50  76 110 160 198 260 316 388 464
#     4  10  23  48  72 107 142 193 250 317 382 454
#     4  11  26  45  74 107 152 196 254 317 385 462
#     4  11  25  46  74 104 150 193 253 313 384 455
#
# _framework density 25.016807
#
# number of rings (size 3 to 8) (size 9 to 14) (size 15 to 20)
#    0.000    0.762    3.810    2.857   12.000    2.286 
#    0.000    0.000    0.000    0.000    0.000    0.000 
#    0.000    0.000    0.000    0.000    0.000    0.000 
#
# Total GULP energy -233877.032447 kJ/mol
# GULP energy per Si atom -5568.500773 kJ/mol
# Density = 2.495987 g / cm^3
# Si number density = 25.016807 Si / 1000 Ang^3
#
#
#
# Elastic Constant Matrix: (Units=GPa)
#
#
# Indices 1 2 3 4 5 6 
#
# 1 67.8104 8.2054 3.7363 0.0000 0.0000 0.0000
# 2 8.2054 57.6164 1.6862 0.0000 0.0000 0.0000
# 3 3.7363 1.6862 79.8201 0.0000 0.0000 0.0000
# 4 0.0000 0.0000 0.0000 54.0096 0.0000 0.0000
# 5 0.0000 0.0000 0.0000 0.0000 -50.2950 0.0000
# 6 0.0000 0.0000 0.0000 0.0000 0.0000 48.1853
#
#
#
# Elastic Compliance Matrix: (Units=1/GPa)
#
#
# Indices 1 2 3 4 5 6 
#
# 1 0.015040 -0.002123 -0.000659 0.000000 0.000000 0.000000
# 2 -0.002123 0.017666 -0.000274 0.000000 0.000000 0.000000
# 3 -0.000659 -0.000274 0.012565 0.000000 0.000000 0.000000
# 4 0.000000 0.000000 0.000000 0.018515 0.000000 0.000000
# 5 0.000000 0.000000 0.000000 0.000000 -0.019883 0.000000
# 6 0.000000 0.000000 0.000000 0.000000 0.000000 0.020753
#
#
# Mechanical properties :
#
#
# Convention : Reuss Voigt Hill
#
# Bulk Modulus (GPa) = 25.53619 25.83365 25.68492
# Shear Modulus (GPa) = 59.65024 23.15457 41.40241
#
# Velocity S-wave (km/s) = 4.88834 3.04560 4.07256
# Velocity P-wave (km/s) = 6.48775 4.76619 5.69243
#
# Compressibility (1/GPa) = 0.03916011
#
# Stress axis : x y z
#
# Youngs Moduli (GPa) = 66.48857 56.60440 79.58731
#
# Poissons Ratio (x) = 0.12015 0.05246
# Poissons Ratio (y) = 0.14113 0.02179
# Poissons Ratio (z) = 0.04383 0.01550
#
# Static dielectric constant tensor:
#      x y z
#    x 2.114830 0.000000 0.000000 
#    y 0.000000 2.111810 0.000000 
#    z 0.000000 0.000000 2.032970 
# 
# From -- ./inp_files/58495.got.cif
#   From: 2010.05.17/outbox.cif.g08.bks.cpg/sg70_30_cif.got.tgz:58495.got - 2010.06.03 15:57:51.
