data_PCOD9516934
_publ_section_title
;
Structure prediction by ZEFSAII (Michael W. Deem and Ramdas Pophale) SiO2 
 PCOD9516934
Probable space group: F D D D
;
_chemical_formula_sum "Si O2"
_cell_formula_units_Z 80
_cell_length_a 8.510327
_cell_length_b 14.511242
_cell_length_c 25.583684
_cell_angle_alpha 90.000000
_cell_angle_beta 90.000000
_cell_angle_gamma 90.000000
_cell_volume 3159.467662
_symmetry_space_group_name_H-M "F D D D"
_symmetry_group_IT_number 70
_space_group.IT_coordinate_system_code '2'
_symmetry_cell_setting 'orthorhombic'
loop_
_space_group_symop_operation_xyz
x,y,z
1/4-x,1/4-y,z
x,1/4-y,1/4-z
1/4-x,y,1/4-z
-x,-y,-z
3/4+x,3/4+y,-z
-x,3/4+y,3/4+z
3/4+x,-y,3/4+z
x,1/2+y,1/2+z
1/4-x,3/4-y,1/2+z
x,3/4-y,3/4-z
1/4-x,1/2+y,3/4-z
-x,1/2-y,1/2-z
3/4+x,1/4+y,1/2-z
-x,1/4+y,1/4+z
3/4+x,1/2-y,1/4+z
1/2+x,y,1/2+z
3/4-x,1/4-y,1/2+z
1/2+x,1/4-y,3/4-z
3/4-x,y,3/4-z
1/2-x,-y,1/2-z
1/4+x,3/4+y,1/2-z
1/2-x,3/4+y,1/4+z
1/4+x,-y,1/4+z
1/2+x,1/2+y,z
3/4-x,3/4-y,z
1/2+x,3/4-y,1/4-z
3/4-x,1/2+y,1/4-z
1/2-x,1/2-y,-z
1/4+x,1/4+y,-z
1/2-x,1/4+y,3/4+z
1/4+x,1/2-y,3/4+z
loop_
_atom_site_type_symbol
_atom_site_label
_atom_site_fract_x
_atom_site_fract_y
_atom_site_fract_z
Si Si1 0.045530 0.265416 0.850366
Si Si2 0.861059 0.703380 0.043746
Si Si3 0.125000 0.625000 0.978676
O O1 0.144564 0.240397 0.902246
O O2 0.137149 0.348022 0.819026
O O3 0.019993 0.183971 0.810098
O O4 0.875000 0.287374 0.875000
O O5 0.750000 0.750000 0.000000
O O6 0.025511 0.693781 0.013684
#
# Coordination Sequence:
#
# PCOD9516934 Si02
#       3
#    32  32  16
#     4  11  25  48  74 110 158 205 264 330 400 484
#     4  11  25  47  76 108 154 205 263 333 399 473
#     4  12  26  43  76 112 152 209 266 326 410 474
#
# _framework density 25.320722
#
# number of rings (size 3 to 8) (size 9 to 14) (size 15 to 20)
#    0.000    0.800    4.000    2.400    5.600    1.600 
#    0.000    4.000    0.000    0.000    0.000    0.000 
#    0.000    0.000    0.000    0.000    0.000    0.000 
#
# Total GULP energy -111354.153368 kJ/mol
# GULP energy per Si atom -5567.707668 kJ/mol
# Density = 2.526309 g / cm^3
# Si number density = 25.320722 Si / 1000 Ang^3
#
#
#
# Elastic Constant Matrix: (Units=GPa)
#
#
# Indices 1 2 3 4 5 6 
#
# 1 89.5299 38.2349 65.9807 0.0000 0.0000 0.0000
# 2 38.2349 83.5863 67.9633 0.0000 0.0000 0.0000
# 3 65.9807 67.9633 245.1220 0.0000 0.0000 0.0000
# 4 0.0000 0.0000 0.0000 44.0868 0.0000 0.0000
# 5 0.0000 0.0000 0.0000 0.0000 45.9677 0.0000
# 6 0.0000 0.0000 0.0000 0.0000 0.0000 34.7749
#
#
#
# Elastic Compliance Matrix: (Units=1/GPa)
#
#
# Indices 1 2 3 4 5 6 
#
# 1 0.015237 -0.004693 -0.002800 0.000000 0.000000 0.000000
# 2 -0.004693 0.016891 -0.003420 0.000000 0.000000 0.000000
# 3 -0.002800 -0.003420 0.005782 0.000000 0.000000 0.000000
# 4 0.000000 0.000000 0.000000 0.022683 0.000000 0.000000
# 5 0.000000 0.000000 0.000000 0.000000 0.021754 0.000000
# 6 0.000000 0.000000 0.000000 0.000000 0.000000 0.028756
#
#
# Mechanical properties :
#
#
# Convention : Reuss Voigt Hill
#
# Bulk Modulus (GPa) = 62.17614 84.73289 73.45451
# Shear Modulus (GPa) = 36.15541 41.36982 38.76261
#
# Velocity S-wave (km/s) = 3.78285 4.04645 3.91687
# Velocity P-wave (km/s) = 6.60974 7.44098 7.03765
#
# Compressibility (1/GPa) = 0.01608334
#
# Stress axis : x y z
#
# Youngs Moduli (GPa) = 65.62767 59.20210 172.96177
#
# Poissons Ratio (x) = 0.27785 0.48434
# Poissons Ratio (y) = 0.30800 0.59154
# Poissons Ratio (z) = 0.18378 0.20247
#
# Static dielectric constant tensor:
#      x y z
#    x 2.075420 0.000000 0.000000 
#    y 0.000000 2.101890 0.000000 
#    z 0.000000 0.000000 2.083980 
# 
# From -- ./inp_files/10186.got.cif
#   From: 2010.05.17/outbox.cif.g08.bks.cpg/sg70_6_cif.got.tgz:10186.got - 2010.06.03 15:57:51.
