data_PCOD9516268
_publ_section_title
;
Structure prediction by ZEFSAII (Michael W. Deem and Ramdas Pophale) SiO2 
 PCOD9516268
Probable space group: F D D D
;
_chemical_formula_sum "Si O2"
_cell_formula_units_Z 192
_cell_length_a 15.132586
_cell_length_b 25.224464
_cell_length_c 21.836744
_cell_angle_alpha 90.000000
_cell_angle_beta 90.000000
_cell_angle_gamma 90.000000
_cell_volume 8335.333486
_symmetry_space_group_name_H-M "F D D D"
_symmetry_group_IT_number 70
_space_group.IT_coordinate_system_code '2'
_symmetry_cell_setting 'orthorhombic'
loop_
_space_group_symop_operation_xyz
x,y,z
1/4-x,1/4-y,z
x,1/4-y,1/4-z
1/4-x,y,1/4-z
-x,-y,-z
3/4+x,3/4+y,-z
-x,3/4+y,3/4+z
3/4+x,-y,3/4+z
x,1/2+y,1/2+z
1/4-x,3/4-y,1/2+z
x,3/4-y,3/4-z
1/4-x,1/2+y,3/4-z
-x,1/2-y,1/2-z
3/4+x,1/4+y,1/2-z
-x,1/4+y,1/4+z
3/4+x,1/2-y,1/4+z
1/2+x,y,1/2+z
3/4-x,1/4-y,1/2+z
1/2+x,1/4-y,3/4-z
3/4-x,y,3/4-z
1/2-x,-y,1/2-z
1/4+x,3/4+y,1/2-z
1/2-x,3/4+y,1/4+z
1/4+x,-y,1/4+z
1/2+x,1/2+y,z
3/4-x,3/4-y,z
1/2+x,3/4-y,1/4-z
3/4-x,1/2+y,1/4-z
1/2-x,1/2-y,-z
1/4+x,1/4+y,-z
1/2-x,1/4+y,3/4+z
1/4+x,1/2-y,3/4+z
loop_
_atom_site_type_symbol
_atom_site_label
_atom_site_fract_x
_atom_site_fract_y
_atom_site_fract_z
Si Si1 0.302155 0.686241 0.136653
Si Si2 0.875000 0.154257 0.875000
Si Si3 0.125000 0.258807 0.125000
Si Si4 0.228347 0.612125 0.467865
Si Si5 0.238917 0.987803 0.009211
Si Si6 0.576007 0.747125 0.702252
Si Si7 0.241962 0.325067 0.912527
O O1 0.284067 0.625000 0.125000
O O2 0.307705 0.704545 0.206198
O O3 0.221515 0.716776 0.104294
O O4 0.406547 0.692787 0.121555
O O5 0.789874 0.128624 0.842234
O O6 0.906077 0.194112 0.821920
O O7 0.055993 0.279689 0.073138
O O8 0.189691 0.222263 0.084582
O O9 0.125000 0.625000 0.456874
O O10 0.229454 0.550911 0.492950
O O11 0.268136 0.650244 0.520203
O O12 0.340818 0.975693 0.990788
O O13 0.500000 0.750000 0.750000
O O14 0.279091 0.375000 0.875000
#
# Coordination Sequence:
#
# PCOD9516268 Si02
#       7
#    32  16  16  32  32  32  32
#     4  11  25  43  70 105 140 192 256 305 360 448
#     4  10  24  42  70 100 143 190 246 300 373 456
#     4  12  21  40  71 108 145 186 251 286 388 466
#     4  11  20  42  70 100 147 194 240 298 388 451
#     4  11  23  42  68 104 144 190 234 311 368 450
#     4  11  22  43  71  97 134 189 242 292 371 429
#     4  11  21  36  69 107 139 185 236 299 364 447
#
# _framework density 23.034472000000001
#
# number of rings (size 3 to 8) (size 9 to 14) (size 15 to 20)
#    0.000    1.000    6.667    1.250    7.000    2.000 
#    0.000    2.500    0.000    0.000    0.000    0.000 
#    0.000    0.000    0.000    0.000    0.000    0.000 
#
# Total GULP energy -267429.596444 kJ/mol
# GULP energy per Si atom -5571.449926 kJ/mol
# Density = 2.298204 g / cm^3
# Si number density = 23.034472 Si / 1000 Ang^3
#
#
#
# Elastic Constant Matrix: (Units=GPa)
#
#
# Indices 1 2 3 4 5 6 
#
# 1 170.6745 24.8133 53.0767 0.0000 0.0000 0.0000
# 2 24.8133 53.9162 30.1668 0.0000 0.0000 0.0000
# 3 53.0767 30.1668 149.2264 0.0000 0.0000 0.0000
# 4 0.0000 0.0000 0.0000 22.7230 0.0000 0.0000
# 5 0.0000 0.0000 0.0000 0.0000 61.2285 0.0000
# 6 0.0000 0.0000 0.0000 0.0000 0.0000 15.0175
#
#
#
# Elastic Compliance Matrix: (Units=1/GPa)
#
#
# Indices 1 2 3 4 5 6 
#
# 1 0.006773 -0.001995 -0.002006 0.000000 0.000000 0.000000
# 2 -0.001995 0.021500 -0.003637 0.000000 0.000000 0.000000
# 3 -0.002006 -0.003637 0.008150 0.000000 0.000000 0.000000
# 4 0.000000 0.000000 0.000000 0.044008 0.000000 0.000000
# 5 0.000000 0.000000 0.000000 0.000000 0.016332 0.000000
# 6 0.000000 0.000000 0.000000 0.000000 0.000000 0.066589
#
#
# Mechanical properties :
#
#
# Convention : Reuss Voigt Hill
#
# Bulk Modulus (GPa) = 47.28538 65.54784 56.41661
# Shear Modulus (GPa) = 26.92855 37.51116 32.21985
#
# Velocity S-wave (km/s) = 3.42285 4.03982 3.74407
# Velocity P-wave (km/s) = 6.01614 7.09073 6.57542
#
# Compressibility (1/GPa) = 0.02114818
#
# Stress axis : x y z
#
# Youngs Moduli (GPa) = 147.64831 46.51119 122.70211
#
# Poissons Ratio (x) = 0.09278 0.24610
# Poissons Ratio (y) = 0.29453 0.44625
# Poissons Ratio (z) = 0.29614 0.16915
#
# Static dielectric constant tensor:
#      x y z
#    x 1.076560 0.000000 0.000000 
#    y 0.000000 1.808660 0.000000 
#    z 0.000000 0.000000 1.888060 
# 
# From -- ./inp_files/51443.got.cif
#   From: 2010.05.17/outbox.cif.g08.bks.cpg/sg70_26_cif.got.tgz:51443.got - 2010.06.03 15:57:51.
