data_PCOD9516262
_publ_section_title
;
Structure prediction by ZEFSAII (Michael W. Deem and Ramdas Pophale) SiO2 
 PCOD9516262
Probable space group: F D D D
;
_chemical_formula_sum "Si O2"
_cell_formula_units_Z 120
_cell_length_a 7.184052
_cell_length_b 25.585545
_cell_length_c 28.391925
_cell_angle_alpha 90.000000
_cell_angle_beta 90.000000
_cell_angle_gamma 90.000000
_cell_volume 5218.659706
_symmetry_space_group_name_H-M "F D D D"
_symmetry_group_IT_number 70
_space_group.IT_coordinate_system_code '2'
_symmetry_cell_setting 'orthorhombic'
loop_
_space_group_symop_operation_xyz
x,y,z
1/4-x,1/4-y,z
x,1/4-y,1/4-z
1/4-x,y,1/4-z
-x,-y,-z
3/4+x,3/4+y,-z
-x,3/4+y,3/4+z
3/4+x,-y,3/4+z
x,1/2+y,1/2+z
1/4-x,3/4-y,1/2+z
x,3/4-y,3/4-z
1/4-x,1/2+y,3/4-z
-x,1/2-y,1/2-z
3/4+x,1/4+y,1/2-z
-x,1/4+y,1/4+z
3/4+x,1/2-y,1/4+z
1/2+x,y,1/2+z
3/4-x,1/4-y,1/2+z
1/2+x,1/4-y,3/4-z
3/4-x,y,3/4-z
1/2-x,-y,1/2-z
1/4+x,3/4+y,1/2-z
1/2-x,3/4+y,1/4+z
1/4+x,-y,1/4+z
1/2+x,1/2+y,z
3/4-x,3/4-y,z
1/2+x,3/4-y,1/4-z
3/4-x,1/2+y,1/4-z
1/2-x,1/2-y,-z
1/4+x,1/4+y,-z
1/2-x,1/4+y,3/4+z
1/4+x,1/2-y,3/4+z
loop_
_atom_site_type_symbol
_atom_site_label
_atom_site_fract_x
_atom_site_fract_y
_atom_site_fract_z
Si Si1 0.912286 0.629224 0.449043
Si Si2 0.875000 0.375000 0.875000
Si Si3 0.655992 0.822676 0.801293
Si Si4 0.625000 0.030395 0.625000
Si Si5 0.122524 0.711656 0.924141
O O1 0.125000 0.625000 0.433349
O O2 0.793969 0.577009 0.439696
O O3 0.802617 0.676237 0.424022
O O4 0.907342 0.643834 0.504421
O O5 0.740859 0.407048 0.839909
O O6 0.852814 0.815685 0.828939
O O7 0.610955 0.761683 0.791806
O O8 0.802674 0.991962 0.622746
#
# Coordination Sequence:
#
# PCOD9516262 Si02
#       5
#    32   8  32  16  32
#     4  11  23  40  72 102 140 184 239 295 364 432
#     4  12  24  38  70 104 132 192 248 308 354 438
#     4  10  24  42  67 101 141 187 239 300 359 427
#     4   8  22  45  65  88 148 189 236 291 364 416
#     4   9  22  47  61 102 142 190 234 295 355 441
#
# _framework density 22.994409000000001
#
# number of rings (size 3 to 8) (size 9 to 14) (size 15 to 20)
#    1.600    0.533    0.000    2.400    3.733    3.200 
#    4.800    1.333    0.000    0.000    0.000    0.000 
#    0.000    0.000    0.000    0.000    0.000    0.000 
#
# Total GULP energy -167273.176099 kJ/mol
# GULP energy per Si atom -5575.772537 kJ/mol
# Density = 2.294207 g / cm^3
# Si number density = 22.994409 Si / 1000 Ang^3
#
#
#
# Elastic Constant Matrix: (Units=GPa)
#
#
# Indices 1 2 3 4 5 6 
#
# 1 153.0338 55.7058 43.8662 0.0000 0.0000 0.0000
# 2 55.7058 139.9674 30.8171 0.0000 0.0000 0.0000
# 3 43.8662 30.8171 105.5823 0.0000 0.0000 0.0000
# 4 0.0000 0.0000 0.0000 28.8636 0.0000 0.0000
# 5 0.0000 0.0000 0.0000 0.0000 44.1659 0.0000
# 6 0.0000 0.0000 0.0000 0.0000 0.0000 -65.8140
#
#
#
# Elastic Compliance Matrix: (Units=1/GPa)
#
#
# Indices 1 2 3 4 5 6 
#
# 1 0.008281 -0.002713 -0.002649 0.000000 0.000000 0.000000
# 2 -0.002713 0.008524 -0.001361 0.000000 0.000000 0.000000
# 3 -0.002649 -0.001361 0.010969 0.000000 0.000000 0.000000
# 4 0.000000 0.000000 0.000000 0.034646 0.000000 0.000000
# 5 0.000000 0.000000 0.000000 0.000000 0.022642 0.000000
# 6 0.000000 0.000000 0.000000 0.000000 0.000000 -0.015194
#
#
# Mechanical properties :
#
#
# Convention : Reuss Voigt Hill
#
# Bulk Modulus (GPa) = 69.78721 73.26241 71.52481
# Shear Modulus (GPa) = 56.76119 19.32273 38.04196
#
# Velocity S-wave (km/s) = 4.97377 2.90198 4.07184
# Velocity P-wave (km/s) = 7.96241 6.56953 7.29927
#
# Compressibility (1/GPa) = 0.01432927
#
# Stress axis : x y z
#
# Youngs Moduli (GPa) = 120.75543 117.31920 91.16608
#
# Poissons Ratio (x) = 0.31825 0.24148
# Poissons Ratio (y) = 0.32757 0.12407
# Poissons Ratio (z) = 0.31986 0.15966
#
# Static dielectric constant tensor:
#      x y z
#    x 1.906050 0.000000 0.000000 
#    y 0.000000 1.892170 0.000000 
#    z 0.000000 0.000000 1.884720 
# 
# From -- ./inp_files/56524.got.cif
#   From: 2010.05.17/outbox.cif.g08.bks.cpg/sg70_29_cif.got.tgz:56524.got - 2010.06.03 15:57:51.
