data_PCOD9516587
_publ_section_title
;
Structure prediction by ZEFSAII (Michael W. Deem and Ramdas Pophale) SiO2 
 PCOD9516587
Probable space group: F D D D
;
_chemical_formula_sum "Si O2"
_cell_formula_units_Z 152
_cell_length_a 23.508748
_cell_length_b 13.937616
_cell_length_c 20.735877
_cell_angle_alpha 90.000000
_cell_angle_beta 90.000000
_cell_angle_gamma 90.000000
_cell_volume 6794.232488
_symmetry_space_group_name_H-M "F D D D"
_symmetry_group_IT_number 70
_space_group.IT_coordinate_system_code '2'
_symmetry_cell_setting 'orthorhombic'
loop_
_space_group_symop_operation_xyz
x,y,z
1/4-x,1/4-y,z
x,1/4-y,1/4-z
1/4-x,y,1/4-z
-x,-y,-z
3/4+x,3/4+y,-z
-x,3/4+y,3/4+z
3/4+x,-y,3/4+z
x,1/2+y,1/2+z
1/4-x,3/4-y,1/2+z
x,3/4-y,3/4-z
1/4-x,1/2+y,3/4-z
-x,1/2-y,1/2-z
3/4+x,1/4+y,1/2-z
-x,1/4+y,1/4+z
3/4+x,1/2-y,1/4+z
1/2+x,y,1/2+z
3/4-x,1/4-y,1/2+z
1/2+x,1/4-y,3/4-z
3/4-x,y,3/4-z
1/2-x,-y,1/2-z
1/4+x,3/4+y,1/2-z
1/2-x,3/4+y,1/4+z
1/4+x,-y,1/4+z
1/2+x,1/2+y,z
3/4-x,3/4-y,z
1/2+x,3/4-y,1/4-z
3/4-x,1/2+y,1/4-z
1/2-x,1/2-y,-z
1/4+x,1/4+y,-z
1/2-x,1/4+y,3/4+z
1/4+x,1/2-y,3/4+z
loop_
_atom_site_type_symbol
_atom_site_label
_atom_site_fract_x
_atom_site_fract_y
_atom_site_fract_z
Si Si1 0.125000 0.125000 0.125000
Si Si2 0.788732 0.737870 0.436385
Si Si3 0.920746 0.511747 0.645618
Si Si4 0.295648 0.219290 0.811294
Si Si5 0.875000 0.875000 0.259550
Si Si6 0.443902 0.727533 0.588387
O O1 0.085879 0.195682 0.083565
O O2 0.750000 0.750000 0.500000
O O3 0.821868 0.637418 0.433876
O O4 0.828042 0.829466 0.444158
O O5 0.744732 0.728001 0.378620
O O6 0.926944 0.625000 0.625000
O O7 0.895509 0.463426 0.712629
O O8 0.869751 0.480968 0.597014
O O9 0.985927 0.477020 0.650307
O O10 0.286974 0.227195 0.734780
O O11 0.439488 0.625000 0.625000
#
# Coordination Sequence:
#
# PCOD9516587 Si02
#       6
#     8  32  32  32  16  32
#     4  12  32  58  68 102 166 204 264 328 352 474
#     4  12  22  45  75 113 152 191 247 322 384 451
#     4  11  21  41  78 106 148 204 250 305 384 455
#     4  12  26  52  73 108 150 203 260 314 384 459
#     4  12  22  43  79 114 157 191 248 322 388 452
#     4  11  22  44  77 111 151 191 246 316 382 459
#
# _framework density 22.371917
#
# number of rings (size 3 to 8) (size 9 to 14) (size 15 to 20)
#    0.000    0.421    7.368    1.263    0.000    2.526 
#   15.158    5.263    0.000    0.000    0.000    0.000 
#    0.000    0.000    0.000    0.000    0.000    0.000 
#
# Total GULP energy -211653.195800 kJ/mol
# GULP energy per Si atom -5569.820942 kJ/mol
# Density = 2.232100 g / cm^3
# Si number density = 22.371917 Si / 1000 Ang^3
#
#
#
# Elastic Constant Matrix: (Units=GPa)
#
#
# Indices 1 2 3 4 5 6 
#
# 1 112.5978 53.4696 25.9239 0.0000 0.0000 0.0000
# 2 53.4696 170.8059 59.3804 0.0000 0.0000 0.0000
# 3 25.9239 59.3804 87.2050 0.0000 0.0000 0.0000
# 4 0.0000 0.0000 0.0000 35.1092 0.0000 0.0000
# 5 0.0000 0.0000 0.0000 0.0000 11.0437 0.0000
# 6 0.0000 0.0000 0.0000 0.0000 0.0000 31.6930
#
#
#
# Elastic Compliance Matrix: (Units=1/GPa)
#
#
# Indices 1 2 3 4 5 6 
#
# 1 0.010521 -0.002890 -0.001159 0.000000 0.000000 0.000000
# 2 -0.002890 0.008464 -0.004904 0.000000 0.000000 0.000000
# 3 -0.001159 -0.004904 0.015151 0.000000 0.000000 0.000000
# 4 0.000000 0.000000 0.000000 0.028483 0.000000 0.000000
# 5 0.000000 0.000000 0.000000 0.000000 0.090549 0.000000
# 6 0.000000 0.000000 0.000000 0.000000 0.000000 0.031553
#
#
# Mechanical properties :
#
#
# Convention : Reuss Voigt Hill
#
# Bulk Modulus (GPa) = 61.62131 72.01738 66.81934
# Shear Modulus (GPa) = 24.03397 31.02484 27.52940
#
# Velocity S-wave (km/s) = 3.28120 3.72798 3.51170
# Velocity P-wave (km/s) = 6.47756 7.12680 6.80993
#
# Compressibility (1/GPa) = 0.01622815
#
# Stress axis : x y z
#
# Youngs Moduli (GPa) = 95.05121 118.14147 66.00014
#
# Poissons Ratio (x) = 0.34147 0.07652
# Poissons Ratio (y) = 0.27473 0.32369
# Poissons Ratio (z) = 0.11020 0.57942
#
# Static dielectric constant tensor:
#      x y z
#    x 1.855620 0.000000 0.000000 
#    y 0.000000 1.851500 0.000000 
#    z 0.000000 0.000000 1.783410 
# 
# From -- ./inp_files/27614.got.cif
#   From: 2010.05.17/outbox.cif.g08.bks.cpg/sg70_14_cif.got.tgz:27614.got - 2010.06.03 15:57:51.
