data_PCOD9516308
_publ_section_title
;
Structure prediction by ZEFSAII (Michael W. Deem and Ramdas Pophale) SiO2 
 PCOD9516308
Probable space group: F D D D
;
_chemical_formula_sum "Si O2"
_cell_formula_units_Z 112
_cell_length_a 11.072606
_cell_length_b 22.555882
_cell_length_c 19.373570
_cell_angle_alpha 90.000000
_cell_angle_beta 90.000000
_cell_angle_gamma 90.000000
_cell_volume 4838.595495
_symmetry_space_group_name_H-M "F D D D"
_symmetry_group_IT_number 70
_space_group.IT_coordinate_system_code '2'
_symmetry_cell_setting 'orthorhombic'
loop_
_space_group_symop_operation_xyz
x,y,z
1/4-x,1/4-y,z
x,1/4-y,1/4-z
1/4-x,y,1/4-z
-x,-y,-z
3/4+x,3/4+y,-z
-x,3/4+y,3/4+z
3/4+x,-y,3/4+z
x,1/2+y,1/2+z
1/4-x,3/4-y,1/2+z
x,3/4-y,3/4-z
1/4-x,1/2+y,3/4-z
-x,1/2-y,1/2-z
3/4+x,1/4+y,1/2-z
-x,1/4+y,1/4+z
3/4+x,1/2-y,1/4+z
1/2+x,y,1/2+z
3/4-x,1/4-y,1/2+z
1/2+x,1/4-y,3/4-z
3/4-x,y,3/4-z
1/2-x,-y,1/2-z
1/4+x,3/4+y,1/2-z
1/2-x,3/4+y,1/4+z
1/4+x,-y,1/4+z
1/2+x,1/2+y,z
3/4-x,3/4-y,z
1/2+x,3/4-y,1/4-z
3/4-x,1/2+y,1/4-z
1/2-x,1/2-y,-z
1/4+x,1/4+y,-z
1/2-x,1/4+y,3/4+z
1/4+x,1/2-y,3/4+z
loop_
_atom_site_type_symbol
_atom_site_label
_atom_site_fract_x
_atom_site_fract_y
_atom_site_fract_z
Si Si1 0.001994 0.253730 0.590053
Si Si2 0.737827 0.782986 0.075705
Si Si3 0.247360 0.397860 0.989704
Si Si4 0.054170 0.375000 0.875000
O O1 0.865882 0.271173 0.614305
O O2 0.999804 0.285424 0.516402
O O3 0.009910 0.183029 0.595105
O O4 0.125000 0.276583 0.625000
O O5 0.625000 0.766566 0.125000
O O6 0.750000 0.750000 0.000000
O O7 0.728380 0.851933 0.053330
O O8 0.375000 0.375000 0.959750
O O9 0.140675 0.393432 0.936852
#
# Coordination Sequence:
#
# PCOD9516308 Si02
#       4
#    32  32  32  16
#     4  11  26  45  67 108 149 192 247 310 381 448
#     4  11  24  46  77 111 146 199 258 315 383 471
#     4  10  24  44  71 107 146 196 253 316 376 463
#     4  12  24  42  74 104 151 198 257 306 389 458
#
# _framework density 23.147212
#
# number of rings (size 3 to 8) (size 9 to 14) (size 15 to 20)
#    0.000    1.143    2.857    1.714    8.000    1.143 
#    0.000    0.000    0.000    0.000    0.000    0.000 
#    0.000    0.000    0.000    0.000    0.000    0.000 
#
# Total GULP energy -156149.644284 kJ/mol
# GULP energy per Si atom -5576.773010 kJ/mol
# Density = 2.309453 g / cm^3
# Si number density = 23.147212 Si / 1000 Ang^3
#
#
#
# Elastic Constant Matrix: (Units=GPa)
#
#
# Indices 1 2 3 4 5 6 
#
# 1 168.1721 30.1637 68.5494 0.0000 0.0000 0.0000
# 2 30.1637 151.7468 55.5783 0.0000 0.0000 0.0000
# 3 68.5494 55.5783 74.7711 0.0000 0.0000 0.0000
# 4 0.0000 0.0000 0.0000 30.2367 0.0000 0.0000
# 5 0.0000 0.0000 0.0000 0.0000 28.8231 0.0000
# 6 0.0000 0.0000 0.0000 0.0000 0.0000 33.1114
#
#
#
# Elastic Compliance Matrix: (Units=1/GPa)
#
#
# Indices 1 2 3 4 5 6 
#
# 1 0.009861 0.001856 -0.010420 0.000000 0.000000 0.000000
# 2 0.001856 0.009405 -0.008692 0.000000 0.000000 0.000000
# 3 -0.010420 -0.008692 0.029388 0.000000 0.000000 0.000000
# 4 0.000000 0.000000 0.000000 0.033072 0.000000 0.000000
# 5 0.000000 0.000000 0.000000 0.000000 0.034694 0.000000
# 6 0.000000 0.000000 0.000000 0.000000 0.000000 0.030201
#
#
# Mechanical properties :
#
#
# Convention : Reuss Voigt Hill
#
# Bulk Modulus (GPa) = 70.71447 78.14144 74.42796
# Shear Modulus (GPa) = 26.90378 34.46081 30.68230
#
# Velocity S-wave (km/s) = 3.41294 3.86264 3.64473
# Velocity P-wave (km/s) = 6.79316 7.32974 7.06655
#
# Compressibility (1/GPa) = 0.01414138
#
# Stress axis : x y z
#
# Youngs Moduli (GPa) = 101.41280 106.33102 34.02710
#
# Poissons Ratio (x) = -0.19739 0.35456
# Poissons Ratio (y) = -0.18826 0.29578
# Poissons Ratio (z) = 1.05672 0.92427
#
# Static dielectric constant tensor:
#      x y z
#    x 1.994720 0.000000 0.000000 
#    y 0.000000 1.938370 0.000000 
#    z 0.000000 0.000000 1.900710 
# 
# From -- ./inp_files/49774.got.cif
#   From: 2010.05.17/outbox.cif.g08.bks.cpg/sg70_25_cif.got.tgz:49774.got - 2010.06.03 15:57:51.
