data_PCOD9516476
_publ_section_title
;
Structure prediction by ZEFSAII (Michael W. Deem and Ramdas Pophale) SiO2 
 PCOD9516476
Probable space group: F D D D
;
_chemical_formula_sum "Si O2"
_cell_formula_units_Z 120
_cell_length_a 8.874237
_cell_length_b 33.788270
_cell_length_c 14.234384
_cell_angle_alpha 90.000000
_cell_angle_beta 90.000000
_cell_angle_gamma 90.000000
_cell_volume 4268.110519
_symmetry_space_group_name_H-M "F D D D"
_symmetry_group_IT_number 70
_space_group.IT_coordinate_system_code '2'
_symmetry_cell_setting 'orthorhombic'
loop_
_space_group_symop_operation_xyz
x,y,z
1/4-x,1/4-y,z
x,1/4-y,1/4-z
1/4-x,y,1/4-z
-x,-y,-z
3/4+x,3/4+y,-z
-x,3/4+y,3/4+z
3/4+x,-y,3/4+z
x,1/2+y,1/2+z
1/4-x,3/4-y,1/2+z
x,3/4-y,3/4-z
1/4-x,1/2+y,3/4-z
-x,1/2-y,1/2-z
3/4+x,1/4+y,1/2-z
-x,1/4+y,1/4+z
3/4+x,1/2-y,1/4+z
1/2+x,y,1/2+z
3/4-x,1/4-y,1/2+z
1/2+x,1/4-y,3/4-z
3/4-x,y,3/4-z
1/2-x,-y,1/2-z
1/4+x,3/4+y,1/2-z
1/2-x,3/4+y,1/4+z
1/4+x,-y,1/4+z
1/2+x,1/2+y,z
3/4-x,3/4-y,z
1/2+x,3/4-y,1/4-z
3/4-x,1/2+y,1/4-z
1/2-x,1/2-y,-z
1/4+x,1/4+y,-z
1/2-x,1/4+y,3/4+z
1/4+x,1/2-y,3/4+z
loop_
_atom_site_type_symbol
_atom_site_label
_atom_site_fract_x
_atom_site_fract_y
_atom_site_fract_z
Si Si1 0.617988 0.758325 0.421315
Si Si2 0.375000 0.375000 0.162812
Si Si3 0.883191 0.309489 0.534538
Si Si4 0.125000 0.625000 0.625000
Si Si5 0.040686 0.336804 0.924673
O O1 0.750000 0.750000 0.500000
O O2 0.561571 0.720951 0.360643
O O3 0.492056 0.780557 0.479902
O O4 0.662610 0.792082 0.345365
O O5 0.293178 0.408420 0.103104
O O6 0.250718 0.351691 0.222674
O O7 0.821227 0.340016 0.455247
O O8 0.120447 0.375000 0.875000
O O9 0.875000 0.335925 0.875000
#
# Coordination Sequence:
#
# PCOD9516476 Si02
#       5
#    32  16  32   8  32
#     4  12  23  38  67 105 135 172 225 294 349 412
#     4   9  19  41  63  90 132 190 223 283 337 421
#     4  11  24  43  68  93 139 178 232 286 347 413
#     4  10  28  52  66  92 136 192 242 276 336 434
#     4   9  18  34  59  93 137 175 220 270 342 411
#
# _framework density 28.115485
#
# number of rings (size 3 to 8) (size 9 to 14) (size 15 to 20)
#    0.000    1.867    0.000    7.200    1.867    1.067 
#    0.000    0.000    0.000    0.000    0.000    0.000 
#    0.000    0.000    0.000    0.000    0.000    0.000 
#
# Total GULP energy -167304.379500 kJ/mol
# GULP energy per Si atom -5576.812650 kJ/mol
# Density = 2.805149 g / cm^3
# Si number density = 28.115485 Si / 1000 Ang^3
#
#
#
# Elastic Constant Matrix: (Units=GPa)
#
#
# Indices 1 2 3 4 5 6 
#
# 1 49.0231 83.2758 59.7291 0.0000 0.0000 0.0000
# 2 83.2758 294.0477 130.5308 0.0000 0.0000 0.0000
# 3 59.7291 130.5308 181.7490 0.0000 0.0000 0.0000
# 4 0.0000 0.0000 0.0000 136.4519 0.0000 0.0000
# 5 0.0000 0.0000 0.0000 0.0000 18.8359 0.0000
# 6 0.0000 0.0000 0.0000 0.0000 0.0000 32.3418
#
#
#
# Elastic Compliance Matrix: (Units=1/GPa)
#
#
# Indices 1 2 3 4 5 6 
#
# 1 0.047050 -0.009485 -0.008650 0.000000 0.000000 0.000000
# 2 -0.009485 0.006905 -0.001842 0.000000 0.000000 0.000000
# 3 -0.008650 -0.001842 0.009668 0.000000 0.000000 0.000000
# 4 0.000000 0.000000 0.000000 0.007329 0.000000 0.000000
# 5 0.000000 0.000000 0.000000 0.000000 0.053090 0.000000
# 6 0.000000 0.000000 0.000000 0.000000 0.000000 0.030920
#
#
# Mechanical properties :
#
#
# Convention : Reuss Voigt Hill
#
# Bulk Modulus (GPa) = 42.25060 119.09902 80.67481
# Shear Modulus (GPa) = 24.65437 54.27819 39.46628
#
# Velocity S-wave (km/s) = 2.96446 4.39856 3.75069
# Velocity P-wave (km/s) = 5.17470 8.26130 6.89299
#
# Compressibility (1/GPa) = 0.02366830
#
# Stress axis : x y z
#
# Youngs Moduli (GPa) = 21.25401 144.83258 103.43807
#
# Poissons Ratio (x) = 1.37371 0.89477
# Poissons Ratio (y) = 0.20159 0.19051
# Poissons Ratio (z) = 0.18385 0.26674
#
# Static dielectric constant tensor:
#      x y z
#    x 2.429020 0.000000 0.000000 
#    y 0.000000 2.122470 0.000000 
#    z 0.000000 0.000000 2.098140 
# 
# From -- ./inp_files/25503.got.cif
#   From: 2010.05.17/outbox.cif.g08.bks.cpg/sg70_13_cif.got.tgz:25503.got - 2010.06.03 15:57:51.
