data_PCOD9516935
_publ_section_title
;
Structure prediction by ZEFSAII (Michael W. Deem and Ramdas Pophale) SiO2 
 PCOD9516935
Probable space group: F D D D
;
_chemical_formula_sum "Si O2"
_cell_formula_units_Z 136
_cell_length_a 12.767621
_cell_length_b 18.548188
_cell_length_c 23.963392
_cell_angle_alpha 90.000000
_cell_angle_beta 90.000000
_cell_angle_gamma 90.000000
_cell_volume 5674.920262
_symmetry_space_group_name_H-M "F D D D"
_symmetry_group_IT_number 70
_space_group.IT_coordinate_system_code '2'
_symmetry_cell_setting 'orthorhombic'
loop_
_space_group_symop_operation_xyz
x,y,z
1/4-x,1/4-y,z
x,1/4-y,1/4-z
1/4-x,y,1/4-z
-x,-y,-z
3/4+x,3/4+y,-z
-x,3/4+y,3/4+z
3/4+x,-y,3/4+z
x,1/2+y,1/2+z
1/4-x,3/4-y,1/2+z
x,3/4-y,3/4-z
1/4-x,1/2+y,3/4-z
-x,1/2-y,1/2-z
3/4+x,1/4+y,1/2-z
-x,1/4+y,1/4+z
3/4+x,1/2-y,1/4+z
1/2+x,y,1/2+z
3/4-x,1/4-y,1/2+z
1/2+x,1/4-y,3/4-z
3/4-x,y,3/4-z
1/2-x,-y,1/2-z
1/4+x,3/4+y,1/2-z
1/2-x,3/4+y,1/4+z
1/4+x,-y,1/4+z
1/2+x,1/2+y,z
3/4-x,3/4-y,z
1/2+x,3/4-y,1/4-z
3/4-x,1/2+y,1/4-z
1/2-x,1/2-y,-z
1/4+x,1/4+y,-z
1/2-x,1/4+y,3/4+z
1/4+x,1/2-y,3/4+z
loop_
_atom_site_type_symbol
_atom_site_label
_atom_site_fract_x
_atom_site_fract_y
_atom_site_fract_z
Si Si1 0.553458 0.490505 0.844935
Si Si2 0.522803 0.992844 0.064585
Si Si3 0.995371 0.905082 0.955570
Si Si4 0.125000 0.125000 0.625000
Si Si5 0.384848 0.660259 0.439555
O O1 0.668071 0.525055 0.849903
O O2 0.562057 0.414144 0.813648
O O3 0.509357 0.463120 0.905427
O O4 0.489176 0.541852 0.801829
O O5 0.561586 0.069147 0.087175
O O6 0.600302 0.925285 0.064945
O O7 0.500000 0.000000 0.000000
O O8 0.875000 0.875000 0.958553
O O9 0.047231 0.926868 0.014356
O O10 0.375000 0.681332 0.375000
#
# Coordination Sequence:
#
# PCOD9516935 Si02
#       5
#    32  32  32   8  32
#     4  11  25  47  76 109 155 206 267 326 409 494
#     4  12  27  46  76 111 153 210 258 329 408 483
#     4  11  25  48  77 111 153 214 262 332 417 482
#     4  12  28  52  76 112 166 198 272 328 414 496
#     4  12  27  47  72 117 152 201 272 330 402 481
#
# _framework density 23.965094000000001
#
# number of rings (size 3 to 8) (size 9 to 14) (size 15 to 20)
#    0.000    0.471    3.529    4.941    3.294    7.529 
#    0.000    0.000    0.000    0.000    0.000    0.000 
#    0.000    0.000    0.000    0.000    0.000    0.000 
#
# Total GULP energy -189628.034865 kJ/mol
# GULP energy per Si atom -5577.295143 kJ/mol
# Density = 2.391055 g / cm^3
# Si number density = 23.965094 Si / 1000 Ang^3
#
#
#
# Elastic Constant Matrix: (Units=GPa)
#
#
# Indices 1 2 3 4 5 6 
#
# 1 119.4866 25.3059 69.9030 0.0000 0.0000 0.0000
# 2 25.3059 121.8951 52.8994 0.0000 0.0000 0.0000
# 3 69.9030 52.8994 174.0624 0.0000 0.0000 0.0000
# 4 0.0000 0.0000 0.0000 43.2756 0.0000 0.0000
# 5 0.0000 0.0000 0.0000 0.0000 51.5925 0.0000
# 6 0.0000 0.0000 0.0000 0.0000 0.0000 -4.4197
#
#
#
# Elastic Compliance Matrix: (Units=1/GPa)
#
#
# Indices 1 2 3 4 5 6 
#
# 1 0.010958 -0.000421 -0.004273 0.000000 0.000000 0.000000
# 2 -0.000421 0.009466 -0.002708 0.000000 0.000000 0.000000
# 3 -0.004273 -0.002708 0.008284 0.000000 0.000000 0.000000
# 4 0.000000 0.000000 0.000000 0.023108 0.000000 0.000000
# 5 0.000000 0.000000 0.000000 0.000000 0.019383 0.000000
# 6 0.000000 0.000000 0.000000 0.000000 0.000000 -0.226262
#
#
# Mechanical properties :
#
#
# Convention : Reuss Voigt Hill
#
# Bulk Modulus (GPa) = 71.91471 79.07342 75.49407
# Shear Modulus (GPa) = -36.86625 35.91208 -0.47709
#
# Velocity S-wave (km/s) = -3.92641 3.87527 -0.44666
# Velocity P-wave (km/s) = 3.08507 7.28632 5.59500
#
# Compressibility (1/GPa) = 0.01390536
#
# Stress axis : x y z
#
# Youngs Moduli (GPa) = 91.25792 105.63797 120.71435
#
# Poissons Ratio (x) = 0.04443 0.51580
# Poissons Ratio (y) = 0.03838 0.32689
# Poissons Ratio (z) = 0.38993 0.28607
#
# Static dielectric constant tensor:
#      x y z
#    x 0.863670 0.000000 0.000000 
#    y 0.000000 1.864020 0.000000 
#    z 0.000000 0.000000 1.324070 
# 
# From -- ./inp_files/57261.got.cif
#   From: 2010.05.17/outbox.cif.g08.bks.cpg/sg70_29_cif.got.tgz:57261.got - 2010.06.03 15:57:51.
