data_PCOD9516840
_publ_section_title
;
Structure prediction by ZEFSAII (Michael W. Deem and Ramdas Pophale) SiO2 
 PCOD9516840
Probable space group: F D D D
;
_chemical_formula_sum "Si O2"
_cell_formula_units_Z 152
_cell_length_a 25.396682
_cell_length_b 14.026247
_cell_length_c 20.249754
_cell_angle_alpha 90.000000
_cell_angle_beta 90.000000
_cell_angle_gamma 90.000000
_cell_volume 7213.370098
_symmetry_space_group_name_H-M "F D D D"
_symmetry_group_IT_number 70
_space_group.IT_coordinate_system_code '2'
_symmetry_cell_setting 'orthorhombic'
loop_
_space_group_symop_operation_xyz
x,y,z
1/4-x,1/4-y,z
x,1/4-y,1/4-z
1/4-x,y,1/4-z
-x,-y,-z
3/4+x,3/4+y,-z
-x,3/4+y,3/4+z
3/4+x,-y,3/4+z
x,1/2+y,1/2+z
1/4-x,3/4-y,1/2+z
x,3/4-y,3/4-z
1/4-x,1/2+y,3/4-z
-x,1/2-y,1/2-z
3/4+x,1/4+y,1/2-z
-x,1/4+y,1/4+z
3/4+x,1/2-y,1/4+z
1/2+x,y,1/2+z
3/4-x,1/4-y,1/2+z
1/2+x,1/4-y,3/4-z
3/4-x,y,3/4-z
1/2-x,-y,1/2-z
1/4+x,3/4+y,1/2-z
1/2-x,3/4+y,1/4+z
1/4+x,-y,1/4+z
1/2+x,1/2+y,z
3/4-x,3/4-y,z
1/2+x,3/4-y,1/4-z
3/4-x,1/2+y,1/4-z
1/2-x,1/2-y,-z
1/4+x,1/4+y,-z
1/2-x,1/4+y,3/4+z
1/4+x,1/2-y,3/4+z
loop_
_atom_site_type_symbol
_atom_site_label
_atom_site_fract_x
_atom_site_fract_y
_atom_site_fract_z
Si Si1 0.679222 0.805429 0.814755
Si Si2 0.875000 0.875000 0.622303
Si Si3 0.125000 0.625000 0.625000
Si Si4 0.295903 0.733202 0.317417
Si Si5 0.541550 0.966400 0.829656
Si Si6 0.821711 0.187074 0.837029
O O1 0.664403 0.875000 0.875000
O O2 0.654699 0.702414 0.828271
O O3 0.741527 0.789794 0.819471
O O4 0.666317 0.835333 0.739909
O O5 0.830403 0.808311 0.658509
O O6 0.090963 0.559303 0.672061
O O7 0.298764 0.685638 0.246032
O O8 0.302792 0.657420 0.375216
O O9 0.552311 0.875000 0.875000
O O10 0.480053 0.995916 0.838981
O O11 0.875000 0.220395 0.875000
#
# Coordination Sequence:
#
# PCOD9516840 Si02
#       6
#    32  16   8  32  32  32
#     4  11  26  46  70 103 143 186 233 295 352 413
#     4  12  25  44  69 107 137 188 234 292 345 418
#     4  12  22  40  76 104 136 184 236 302 360 416
#     4  11  24  44  68 106 141 182 235 294 352 415
#     4  11  27  46  72 102 144 188 239 290 349 424
#     4  11  26  46  70 104 143 185 235 288 352 422
#
# _framework density 21.07198
#
# number of rings (size 3 to 8) (size 9 to 14) (size 15 to 20)
#    0.000    0.842    4.211    1.263    5.895    7.158 
#    0.000    0.000    0.000    0.000    0.000    0.000 
#    0.000    0.000    0.000    0.000    0.000    0.000 
#
# Total GULP energy -212236.196924 kJ/mol
# GULP energy per Si atom -5585.163077 kJ/mol
# Density = 2.102402 g / cm^3
# Si number density = 21.071980 Si / 1000 Ang^3
#
#
#
# Elastic Constant Matrix: (Units=GPa)
#
#
# Indices 1 2 3 4 5 6 
#
# 1 151.5076 28.1403 49.3448 0.0000 0.0000 0.0000
# 2 28.1403 103.5664 78.0007 0.0000 0.0000 0.0000
# 3 49.3448 78.0007 197.2863 0.0000 0.0000 0.0000
# 4 0.0000 0.0000 0.0000 -137.8423 0.0000 0.0000
# 5 0.0000 0.0000 0.0000 0.0000 -63.9585 0.0000
# 6 0.0000 0.0000 0.0000 0.0000 0.0000 83.2709
#
#
#
# Elastic Compliance Matrix: (Units=1/GPa)
#
#
# Indices 1 2 3 4 5 6 
#
# 1 0.007239 -0.000859 -0.001471 0.000000 0.000000 0.000000
# 2 -0.000859 0.013852 -0.005262 0.000000 0.000000 0.000000
# 3 -0.001471 -0.005262 0.007517 0.000000 0.000000 0.000000
# 4 0.000000 0.000000 0.000000 -0.007255 0.000000 0.000000
# 5 0.000000 0.000000 0.000000 0.000000 -0.015635 0.000000
# 6 0.000000 0.000000 0.000000 0.000000 0.000000 0.012009
#
#
# Mechanical properties :
#
#
# Convention : Reuss Voigt Hill
#
# Bulk Modulus (GPa) = 74.49137 84.81467 79.65302
# Shear Modulus (GPa) = 133.74199 -3.91436 64.91382
#
# Velocity S-wave (km/s) = 7.97539 -1.36442 5.55631
# Velocity P-wave (km/s) = 10.96526 6.15265 8.89078
#
# Compressibility (1/GPa) = 0.01342437
#
# Stress axis : x y z
#
# Youngs Moduli (GPa) = 138.14130 72.19211 133.03169
#
# Poissons Ratio (x) = 0.06202 0.19568
# Poissons Ratio (y) = 0.11868 0.69998
# Poissons Ratio (z) = 0.20320 0.37986
#
# Static dielectric constant tensor:
#      x y z
#    x 1.877490 0.000000 0.000000 
#    y 0.000000 1.735190 0.000000 
#    z 0.000000 0.000000 1.775970 
# 
# From -- ./inp_files/46750.got.cif
#   From: 2010.05.17/outbox.cif.g08.bks.cpg/sg70_24_cif.got.tgz:46750.got - 2010.06.03 15:57:51.
