data_PCOD9516836
_publ_section_title
;
Structure prediction by ZEFSAII (Michael W. Deem and Ramdas Pophale) SiO2 
 PCOD9516836
Probable space group: F D D D
;
_chemical_formula_sum "Si O2"
_cell_formula_units_Z 136
_cell_length_a 22.911731
_cell_length_b 14.221674
_cell_length_c 16.934863
_cell_angle_alpha 90.000000
_cell_angle_beta 90.000000
_cell_angle_gamma 90.000000
_cell_volume 5518.109427
_symmetry_space_group_name_H-M "F D D D"
_symmetry_group_IT_number 70
_space_group.IT_coordinate_system_code '2'
_symmetry_cell_setting 'orthorhombic'
loop_
_space_group_symop_operation_xyz
x,y,z
1/4-x,1/4-y,z
x,1/4-y,1/4-z
1/4-x,y,1/4-z
-x,-y,-z
3/4+x,3/4+y,-z
-x,3/4+y,3/4+z
3/4+x,-y,3/4+z
x,1/2+y,1/2+z
1/4-x,3/4-y,1/2+z
x,3/4-y,3/4-z
1/4-x,1/2+y,3/4-z
-x,1/2-y,1/2-z
3/4+x,1/4+y,1/2-z
-x,1/4+y,1/4+z
3/4+x,1/2-y,1/4+z
1/2+x,y,1/2+z
3/4-x,1/4-y,1/2+z
1/2+x,1/4-y,3/4-z
3/4-x,y,3/4-z
1/2-x,-y,1/2-z
1/4+x,3/4+y,1/2-z
1/2-x,3/4+y,1/4+z
1/4+x,-y,1/4+z
1/2+x,1/2+y,z
3/4-x,3/4-y,z
1/2+x,3/4-y,1/4-z
3/4-x,1/2+y,1/4-z
1/2-x,1/2-y,-z
1/4+x,1/4+y,-z
1/2-x,1/4+y,3/4+z
1/4+x,1/2-y,3/4+z
loop_
_atom_site_type_symbol
_atom_site_label
_atom_site_fract_x
_atom_site_fract_y
_atom_site_fract_z
Si Si1 0.536411 0.625000 0.125000
Si Si2 0.018042 0.755300 0.146665
Si Si3 0.110548 0.979623 0.393925
Si Si4 0.375000 0.875000 0.241756
Si Si5 0.125000 0.125000 0.625000
Si Si6 0.522655 0.205922 0.960686
O O1 0.574972 0.592037 0.050864
O O2 0.501422 0.711994 0.093635
O O3 0.077428 0.696799 0.166539
O O4 0.955177 0.716975 0.176768
O O5 0.009942 0.862932 0.176186
O O6 0.015730 0.736195 0.051950
O O7 0.131815 0.875000 0.375000
O O8 0.105986 0.039953 0.313777
O O9 0.158037 0.037191 0.444013
#
# Coordination Sequence:
#
# PCOD9516836 Si02
#       6
#    16  32  32  16   8  32
#     4  11  24  43  76 115 158 205 262 350 406 509
#     4  12  29  51  75 118 162 216 276 345 406 514
#     4  12  24  45  76 108 151 209 262 339 402 494
#     4  11  24  45  68 113 156 199 264 332 430 475
#     4  12  32  52  76 114 160 236 260 340 416 514
#     4  12  26  48  80 117 159 215 277 347 420 491
#
# _framework density 24.646121999999998
#
# number of rings (size 3 to 8) (size 9 to 14) (size 15 to 20)
#    0.000    0.235    7.059    0.000    6.588    6.588 
#    0.000    0.000    0.000    0.000    0.000    0.000 
#    0.000    0.000    0.000    0.000    0.000    0.000 
#
# Total GULP energy -189875.662373 kJ/mol
# GULP energy per Si atom -5584.578305 kJ/mol
# Density = 2.459003 g / cm^3
# Si number density = 24.646122 Si / 1000 Ang^3
#
#
#
# Elastic Constant Matrix: (Units=GPa)
#
#
# Indices 1 2 3 4 5 6 
#
# 1 210.8569 70.7199 77.3020 0.0000 0.0000 0.0000
# 2 70.7199 183.2242 87.8173 0.0000 0.0000 0.0000
# 3 77.3020 87.8173 159.4202 0.0000 0.0000 0.0000
# 4 0.0000 0.0000 0.0000 36.8292 0.0000 0.0000
# 5 0.0000 0.0000 0.0000 0.0000 -179.0333 0.0000
# 6 0.0000 0.0000 0.0000 0.0000 0.0000 46.6755
#
#
#
# Elastic Compliance Matrix: (Units=1/GPa)
#
#
# Indices 1 2 3 4 5 6 
#
# 1 0.005970 -0.001246 -0.002209 0.000000 0.000000 0.000000
# 2 -0.001246 0.007676 -0.003624 0.000000 0.000000 0.000000
# 3 -0.002209 -0.003624 0.009340 0.000000 0.000000 0.000000
# 4 0.000000 0.000000 0.000000 0.027152 0.000000 0.000000
# 5 0.000000 0.000000 0.000000 0.000000 -0.005586 0.000000
# 6 0.000000 0.000000 0.000000 0.000000 0.000000 0.021425
#
#
# Mechanical properties :
#
#
# Convention : Reuss Voigt Hill
#
# Bulk Modulus (GPa) = 113.26580 113.90887 113.58734
# Shear Modulus (GPa) = 60.18522 2.07176 31.12849
#
# Velocity S-wave (km/s) = 4.94700 0.91784 3.55775
# Velocity P-wave (km/s) = 8.87057 6.88777 7.94129
#
# Compressibility (1/GPa) = 0.00882879
#
# Stress axis : x y z
#
# Youngs Moduli (GPa) = 167.50233 130.28300 107.06593
#
# Poissons Ratio (x) = 0.16230 0.23647
# Poissons Ratio (y) = 0.20866 0.38802
# Poissons Ratio (z) = 0.36995 0.47216
#
# Static dielectric constant tensor:
#      x y z
#    x 2.054660 0.000000 0.000000 
#    y 0.000000 2.188220 0.000000 
#    z 0.000000 0.000000 1.995430 
# 
# From -- ./inp_files/45727.got.cif
#   From: 2010.05.17/outbox.cif.g08.bks.cpg/sg70_23_cif.got.tgz:45727.got - 2010.06.03 15:57:51.
