data_PCOD9516727
_publ_section_title
;
Structure prediction by ZEFSAII (Michael W. Deem and Ramdas Pophale) SiO2 
 PCOD9516727
Probable space group: F D D D
;
_chemical_formula_sum "Si O2"
_cell_formula_units_Z 160
_cell_length_a 18.635898
_cell_length_b 24.163430
_cell_length_c 16.409200
_cell_angle_alpha 90.000000
_cell_angle_beta 90.000000
_cell_angle_gamma 90.000000
_cell_volume 7389.181182
_symmetry_space_group_name_H-M "F D D D"
_symmetry_group_IT_number 70
_space_group.IT_coordinate_system_code '2'
_symmetry_cell_setting 'orthorhombic'
loop_
_space_group_symop_operation_xyz
x,y,z
1/4-x,1/4-y,z
x,1/4-y,1/4-z
1/4-x,y,1/4-z
-x,-y,-z
3/4+x,3/4+y,-z
-x,3/4+y,3/4+z
3/4+x,-y,3/4+z
x,1/2+y,1/2+z
1/4-x,3/4-y,1/2+z
x,3/4-y,3/4-z
1/4-x,1/2+y,3/4-z
-x,1/2-y,1/2-z
3/4+x,1/4+y,1/2-z
-x,1/4+y,1/4+z
3/4+x,1/2-y,1/4+z
1/2+x,y,1/2+z
3/4-x,1/4-y,1/2+z
1/2+x,1/4-y,3/4-z
3/4-x,y,3/4-z
1/2-x,-y,1/2-z
1/4+x,3/4+y,1/2-z
1/2-x,3/4+y,1/4+z
1/4+x,-y,1/4+z
1/2+x,1/2+y,z
3/4-x,3/4-y,z
1/2+x,3/4-y,1/4-z
3/4-x,1/2+y,1/4-z
1/2-x,1/2-y,-z
1/4+x,1/4+y,-z
1/2-x,1/4+y,3/4+z
1/4+x,1/2-y,3/4+z
loop_
_atom_site_type_symbol
_atom_site_label
_atom_site_fract_x
_atom_site_fract_y
_atom_site_fract_z
Si Si1 0.800461 0.847874 0.285392
Si Si2 0.678280 0.271928 0.455278
Si Si3 0.159164 0.069956 0.033664
Si Si4 0.645701 0.877372 0.532409
Si Si5 0.187262 0.974363 0.484173
O O1 0.790427 0.875000 0.375000
O O2 0.875000 0.875000 0.253636
O O3 0.729140 0.861567 0.234454
O O4 0.806177 0.780995 0.285011
O O5 0.750000 0.250000 0.500000
O O6 0.616017 0.235762 0.493138
O O7 0.654334 0.334354 0.474489
O O8 0.680467 0.259534 0.360225
O O9 0.125000 0.125000 0.995910
O O10 0.125000 0.068256 0.125000
O O11 0.243673 0.066430 0.021202
O O12 0.625000 0.891495 0.625000
O O13 0.627201 0.813646 0.515026
#
# Coordination Sequence:
#
# PCOD9516727 Si02
#       5
#    32  32  32  32  32
#     4  11  27  52  77 104 149 200 259 314 368 445
#     4  12  22  41  71 104 151 187 241 312 379 455
#     4  11  23  41  66 105 152 188 236 301 387 465
#     4  12  27  47  74 109 153 194 254 313 381 452
#     4  12  26  43  75 108 141 197 250 308 384 443
#
# _framework density 21.653278
#
# number of rings (size 3 to 8) (size 9 to 14) (size 15 to 20)
#    0.000    0.400    4.000    4.800    5.600    3.200 
#    0.000    0.000    0.000    0.000    0.000    0.000 
#    0.000    0.000    0.000    0.000    0.000    0.000 
#
# Total GULP energy -223492.557904 kJ/mol
# GULP energy per Si atom -5587.313948 kJ/mol
# Density = 2.160399 g / cm^3
# Si number density = 21.653278 Si / 1000 Ang^3
#
#
#
# Elastic Constant Matrix: (Units=GPa)
#
#
# Indices 1 2 3 4 5 6 
#
# 1 140.7553 46.8914 5.9299 0.0000 0.0000 0.0000
# 2 46.8914 158.2493 24.8314 0.0000 0.0000 0.0000
# 3 5.9299 24.8314 77.6789 0.0000 0.0000 0.0000
# 4 0.0000 0.0000 0.0000 14.9845 0.0000 0.0000
# 5 0.0000 0.0000 0.0000 0.0000 13.9261 0.0000
# 6 0.0000 0.0000 0.0000 0.0000 0.0000 54.0332
#
#
#
# Elastic Compliance Matrix: (Units=1/GPa)
#
#
# Indices 1 2 3 4 5 6 
#
# 1 0.007884 -0.002360 0.000153 0.000000 0.000000 0.000000
# 2 -0.002360 0.007359 -0.002172 0.000000 0.000000 0.000000
# 3 0.000153 -0.002172 0.013556 0.000000 0.000000 0.000000
# 4 0.000000 0.000000 0.000000 0.066736 0.000000 0.000000
# 5 0.000000 0.000000 0.000000 0.000000 0.071807 0.000000
# 6 0.000000 0.000000 0.000000 0.000000 0.000000 0.018507
#
#
# Mechanical properties :
#
#
# Convention : Reuss Voigt Hill
#
# Bulk Modulus (GPa) = 49.89994 59.10989 54.50492
# Shear Modulus (GPa) = 24.83975 36.52415 30.68195
#
# Velocity S-wave (km/s) = 3.39065 4.11149 3.76834
# Velocity P-wave (km/s) = 6.19868 7.06376 6.64531
#
# Compressibility (1/GPa) = 0.02004010
#
# Stress axis : x y z
#
# Youngs Moduli (GPa) = 126.83312 135.88114 73.76642
#
# Poissons Ratio (x) = 0.32071 -0.01126
# Poissons Ratio (y) = 0.29935 0.16025
# Poissons Ratio (z) = -0.01935 0.29518
#
# Static dielectric constant tensor:
#      x y z
#    x 1.935650 0.000000 0.000000 
#    y 0.000000 1.831800 0.000000 
#    z 0.000000 0.000000 1.777220 
# 
# From -- ./inp_files/35138.got.cif
#   From: 2010.05.17/outbox.cif.g08.bks.cpg/sg70_18_cif.got.tgz:35138.got - 2010.06.03 15:57:51.
