data_PCOD9516900
_publ_section_title
;
Structure prediction by ZEFSAII (Michael W. Deem and Ramdas Pophale) SiO2 
 PCOD9516900
Probable space group: F D D D
;
_chemical_formula_sum "Si O2"
_cell_formula_units_Z 136
_cell_length_a 21.677020
_cell_length_b 11.405406
_cell_length_c 22.490131
_cell_angle_alpha 90.000000
_cell_angle_beta 90.000000
_cell_angle_gamma 90.000000
_cell_volume 5560.352350
_symmetry_space_group_name_H-M "F D D D"
_symmetry_group_IT_number 70
_space_group.IT_coordinate_system_code '2'
_symmetry_cell_setting 'orthorhombic'
loop_
_space_group_symop_operation_xyz
x,y,z
1/4-x,1/4-y,z
x,1/4-y,1/4-z
1/4-x,y,1/4-z
-x,-y,-z
3/4+x,3/4+y,-z
-x,3/4+y,3/4+z
3/4+x,-y,3/4+z
x,1/2+y,1/2+z
1/4-x,3/4-y,1/2+z
x,3/4-y,3/4-z
1/4-x,1/2+y,3/4-z
-x,1/2-y,1/2-z
3/4+x,1/4+y,1/2-z
-x,1/4+y,1/4+z
3/4+x,1/2-y,1/4+z
1/2+x,y,1/2+z
3/4-x,1/4-y,1/2+z
1/2+x,1/4-y,3/4-z
3/4-x,y,3/4-z
1/2-x,-y,1/2-z
1/4+x,3/4+y,1/2-z
1/2-x,3/4+y,1/4+z
1/4+x,-y,1/4+z
1/2+x,1/2+y,z
3/4-x,3/4-y,z
1/2+x,3/4-y,1/4-z
3/4-x,1/2+y,1/4-z
1/2-x,1/2-y,-z
1/4+x,1/4+y,-z
1/2-x,1/4+y,3/4+z
1/4+x,1/2-y,3/4+z
loop_
_atom_site_type_symbol
_atom_site_label
_atom_site_fract_x
_atom_site_fract_y
_atom_site_fract_z
Si Si1 0.543514 0.752220 0.408495
Si Si2 0.040564 0.246967 0.907689
Si Si3 0.410175 0.724303 0.462782
Si Si4 0.875000 0.875000 0.875000
Si Si5 0.654407 0.504872 0.539584
O O1 0.552975 0.626041 0.376424
O O2 0.471959 0.761208 0.428560
O O3 0.581146 0.747514 0.469442
O O4 0.557804 0.875000 0.375000
O O5 0.047724 0.375000 0.875000
O O6 0.969403 0.237431 0.928363
O O7 0.081511 0.250059 0.967995
O O8 0.353708 0.783654 0.426846
O O9 0.398546 0.589519 0.451816
O O10 0.625000 0.625000 0.557777
#
# Coordination Sequence:
#
# PCOD9516900 Si02
#       5
#    32  32  32   8  32
#     4  11  25  44  68 103 146 181 236 307 359 420
#     4  11  25  46  71 101 147 186 237 302 363 423
#     4  11  25  44  70 101 139 187 238 291 353 429
#     4  12  24  44  70 100 136 184 244 276 340 436
#     4  11  25  43  71 103 137 189 242 292 362 430
#
# _framework density 24.458881999999999
#
# number of rings (size 3 to 8) (size 9 to 14) (size 15 to 20)
#    0.000    0.941    1.176    4.235    3.294   10.824 
#    0.000    0.000    0.000    0.000    0.000    0.000 
#    0.000    0.000    0.000    0.000    0.000    0.000 
#
# Total GULP energy -189900.343535 kJ/mol
# GULP energy per Si atom -5585.304222 kJ/mol
# Density = 2.440321 g / cm^3
# Si number density = 24.458882 Si / 1000 Ang^3
#
#
#
# Elastic Constant Matrix: (Units=GPa)
#
#
# Indices 1 2 3 4 5 6 
#
# 1 87.3376 15.2084 27.5511 0.0000 0.0000 0.0000
# 2 15.2084 168.5971 77.4017 0.0000 0.0000 0.0000
# 3 27.5511 77.4017 177.2310 0.0000 0.0000 0.0000
# 4 0.0000 0.0000 0.0000 41.4930 0.0000 0.0000
# 5 0.0000 0.0000 0.0000 0.0000 87.7685 0.0000
# 6 0.0000 0.0000 0.0000 0.0000 0.0000 339.5646
#
#
#
# Elastic Compliance Matrix: (Units=1/GPa)
#
#
# Indices 1 2 3 4 5 6 
#
# 1 0.012051 -0.000284 -0.001749 0.000000 0.000000 0.000000
# 2 -0.000284 0.007425 -0.003199 0.000000 0.000000 0.000000
# 3 -0.001749 -0.003199 0.007311 0.000000 0.000000 0.000000
# 4 0.000000 0.000000 0.000000 0.024100 0.000000 0.000000
# 5 0.000000 0.000000 0.000000 0.000000 0.011394 0.000000
# 6 0.000000 0.000000 0.000000 0.000000 0.000000 0.002945
#
#
# Mechanical properties :
#
#
# Convention : Reuss Voigt Hill
#
# Bulk Modulus (GPa) = 61.26068 74.83200 68.04634
# Shear Modulus (GPa) = 61.62780 114.63220 88.13000
#
# Velocity S-wave (km/s) = 5.02506 6.85340 6.00917
# Velocity P-wave (km/s) = 7.66610 9.65851 8.71940
#
# Compressibility (1/GPa) = 0.01632369
#
# Stress axis : x y z
#
# Youngs Moduli (GPa) = 82.97983 134.67215 136.77487
#
# Poissons Ratio (x) = 0.03824 0.23927
# Poissons Ratio (y) = 0.02356 0.43751
# Poissons Ratio (z) = 0.14516 0.43078
#
# Static dielectric constant tensor:
#      x y z
#    x 3.224840 0.000000 0.000000 
#    y 0.000000 2.130610 0.000000 
#    z 0.000000 0.000000 1.938930 
# 
# From -- ./inp_files/17651.got.cif
#   From: 2010.05.17/outbox.cif.g08.bks.cpg/sg70_9_cif.got.tgz:17651.got - 2010.06.03 15:57:51.
