data_PCOD9516660
_publ_section_title
;
Structure prediction by ZEFSAII (Michael W. Deem and Ramdas Pophale) SiO2 
 PCOD9516660
Probable space group: F D D D
;
_chemical_formula_sum "Si O2"
_cell_formula_units_Z 208
_cell_length_a 25.469069
_cell_length_b 20.158283
_cell_length_c 18.681830
_cell_angle_alpha 90.000000
_cell_angle_beta 90.000000
_cell_angle_gamma 90.000000
_cell_volume 9591.488793
_symmetry_space_group_name_H-M "F D D D"
_symmetry_group_IT_number 70
_space_group.IT_coordinate_system_code '2'
_symmetry_cell_setting 'orthorhombic'
loop_
_space_group_symop_operation_xyz
x,y,z
1/4-x,1/4-y,z
x,1/4-y,1/4-z
1/4-x,y,1/4-z
-x,-y,-z
3/4+x,3/4+y,-z
-x,3/4+y,3/4+z
3/4+x,-y,3/4+z
x,1/2+y,1/2+z
1/4-x,3/4-y,1/2+z
x,3/4-y,3/4-z
1/4-x,1/2+y,3/4-z
-x,1/2-y,1/2-z
3/4+x,1/4+y,1/2-z
-x,1/4+y,1/4+z
3/4+x,1/2-y,1/4+z
1/2+x,y,1/2+z
3/4-x,1/4-y,1/2+z
1/2+x,1/4-y,3/4-z
3/4-x,y,3/4-z
1/2-x,-y,1/2-z
1/4+x,3/4+y,1/2-z
1/2-x,3/4+y,1/4+z
1/4+x,-y,1/4+z
1/2+x,1/2+y,z
3/4-x,3/4-y,z
1/2+x,3/4-y,1/4-z
3/4-x,1/2+y,1/4-z
1/2-x,1/2-y,-z
1/4+x,1/4+y,-z
1/2-x,1/4+y,3/4+z
1/4+x,1/2-y,3/4+z
loop_
_atom_site_type_symbol
_atom_site_label
_atom_site_fract_x
_atom_site_fract_y
_atom_site_fract_z
Si Si1 0.062473 0.116947 0.437211
Si Si2 0.382445 0.656690 0.009399
Si Si3 0.514027 0.254649 0.574623
Si Si4 0.002228 0.233502 0.907915
Si Si5 0.454331 0.625000 0.625000
Si Si6 0.969142 0.125000 0.125000
Si Si7 0.125000 0.314925 0.125000
Si Si8 0.086972 0.722288 0.185285
O O1 0.125000 0.125000 0.430077
O O2 0.026758 0.182644 0.425398
O O3 0.043760 0.064365 0.378630
O O4 0.057043 0.080992 0.515212
O O5 0.331611 0.637694 0.055713
O O6 0.430817 0.639615 0.059343
O O7 0.389989 0.612020 0.940461
O O8 0.373156 0.732976 0.987623
O O9 0.507219 0.227292 0.493172
O O10 0.500545 0.193979 0.628288
O O11 0.573140 0.276676 0.595902
O O12 0.013768 0.309981 0.892128
O O13 0.949902 0.226480 0.859022
O O14 0.125000 0.693412 0.125000
#
# Coordination Sequence:
#
# PCOD9516660 Si02
#       8
#    32  32  32  32  16  16  16  32
#     4  12  27  46  70 113 150 192 245 317 378 450
#     4  11  23  44  75 107 146 203 250 301 379 465
#     4  12  29  50  74 108 150 198 264 322 380 452
#     4  12  25  44  72 111 144 196 240 308 378 449
#     4  11  22  42  73 103 151 191 244 297 368 454
#     4  11  28  51  76 105 143 206 263 323 380 450
#     4  12  26  47  76 110 151 204 260 312 384 455
#     4  12  24  42  74 110 157 197 237 297 381 470
#
# _framework density 21.685894000000001
#
# number of rings (size 3 to 8) (size 9 to 14) (size 15 to 20)
#    0.000    0.308    3.846    5.077    4.308    2.462 
#    2.769    0.000    0.000    0.000    0.000    0.000 
#    0.000    0.000    0.000    0.000    0.000    0.000 
#
# Total GULP energy -290577.451884 kJ/mol
# GULP energy per Si atom -5588.027921 kJ/mol
# Density = 2.163654 g / cm^3
# Si number density = 21.685894 Si / 1000 Ang^3
#
#
#
# Elastic Constant Matrix: (Units=GPa)
#
#
# Indices 1 2 3 4 5 6 
#
# 1 112.4337 49.9748 44.7413 0.0000 0.0000 0.0000
# 2 49.9748 129.6796 52.7736 0.0000 0.0000 0.0000
# 3 44.7413 52.7736 115.9013 0.0000 0.0000 0.0000
# 4 0.0000 0.0000 0.0000 5.4083 0.0000 0.0000
# 5 0.0000 0.0000 0.0000 0.0000 69.7284 0.0000
# 6 0.0000 0.0000 0.0000 0.0000 0.0000 26.0210
#
#
#
# Elastic Compliance Matrix: (Units=1/GPa)
#
#
# Indices 1 2 3 4 5 6 
#
# 1 0.011512 -0.003226 -0.002975 0.000000 0.000000 0.000000
# 2 -0.003226 0.010369 -0.003476 0.000000 0.000000 0.000000
# 3 -0.002975 -0.003476 0.011359 0.000000 0.000000 0.000000
# 4 0.000000 0.000000 0.000000 0.184901 0.000000 0.000000
# 5 0.000000 0.000000 0.000000 0.000000 0.014341 0.000000
# 6 0.000000 0.000000 0.000000 0.000000 0.000000 0.038431
#
#
# Mechanical properties :
#
#
# Convention : Reuss Voigt Hill
#
# Bulk Modulus (GPa) = 72.01345 72.55488 72.28417
# Shear Modulus (GPa) = 16.95514 34.26653 25.61084
#
# Velocity S-wave (km/s) = 2.79919 3.97940 3.44028
# Velocity P-wave (km/s) = 6.61263 7.39215 7.01323
#
# Compressibility (1/GPa) = 0.01388629
#
# Stress axis : x y z
#
# Youngs Moduli (GPa) = 86.86771 96.44136 88.03316
#
# Poissons Ratio (x) = 0.31108 0.26191
# Poissons Ratio (y) = 0.28020 0.30602
# Poissons Ratio (z) = 0.25845 0.33525
#
# Static dielectric constant tensor:
#      x y z
#    x 1.861930 0.000000 0.000000 
#    y 0.000000 1.960520 0.000000 
#    z 0.000000 0.000000 1.566250 
# 
# From -- ./inp_files/38781.got.cif
#   From: 2010.05.17/outbox.cif.g08.bks.cpg/sg70_20_cif.got.tgz:38781.got - 2010.06.03 15:57:51.
