data_PCOD9516204
_publ_section_title
;
Structure prediction by ZEFSAII (Michael W. Deem and Ramdas Pophale) SiO2 
 PCOD9516204
Probable space group: F D D D
;
_chemical_formula_sum "Si O2"
_cell_formula_units_Z 104
_cell_length_a 10.016178
_cell_length_b 17.574753
_cell_length_c 23.255419
_cell_angle_alpha 90.000000
_cell_angle_beta 90.000000
_cell_angle_gamma 90.000000
_cell_volume 4093.694530
_symmetry_space_group_name_H-M "F D D D"
_symmetry_group_IT_number 70
_space_group.IT_coordinate_system_code '2'
_symmetry_cell_setting 'orthorhombic'
loop_
_space_group_symop_operation_xyz
x,y,z
1/4-x,1/4-y,z
x,1/4-y,1/4-z
1/4-x,y,1/4-z
-x,-y,-z
3/4+x,3/4+y,-z
-x,3/4+y,3/4+z
3/4+x,-y,3/4+z
x,1/2+y,1/2+z
1/4-x,3/4-y,1/2+z
x,3/4-y,3/4-z
1/4-x,1/2+y,3/4-z
-x,1/2-y,1/2-z
3/4+x,1/4+y,1/2-z
-x,1/4+y,1/4+z
3/4+x,1/2-y,1/4+z
1/2+x,y,1/2+z
3/4-x,1/4-y,1/2+z
1/2+x,1/4-y,3/4-z
3/4-x,y,3/4-z
1/2-x,-y,1/2-z
1/4+x,3/4+y,1/2-z
1/2-x,3/4+y,1/4+z
1/4+x,-y,1/4+z
1/2+x,1/2+y,z
3/4-x,3/4-y,z
1/2+x,3/4-y,1/4-z
3/4-x,1/2+y,1/4-z
1/2-x,1/2-y,-z
1/4+x,1/4+y,-z
1/2-x,1/4+y,3/4+z
1/4+x,1/2-y,3/4+z
loop_
_atom_site_type_symbol
_atom_site_label
_atom_site_fract_x
_atom_site_fract_y
_atom_site_fract_z
Si Si1 0.238635 0.257715 0.194950
Si Si2 0.307598 0.798714 0.573737
Si Si3 0.375000 0.375000 0.875000
Si Si4 0.682761 0.539380 0.565287
O O1 0.284703 0.309290 0.141933
O O2 0.216475 0.176305 0.165688
O O3 0.333630 0.257989 0.250134
O O4 0.085293 0.284055 0.204733
O O5 0.375000 0.875000 0.549767
O O6 0.409979 0.728268 0.571247
O O7 0.625000 0.625000 0.563821
O O8 0.625000 0.504613 0.625000
#
# Coordination Sequence:
#
# PCOD9516204 Si02
#       4
#    32  32   8  32
#     4  10  23  47  78 103 154 201 267 320 386 485
#     4  10  23  45  73 109 146 201 268 321 397 463
#     4   8  20  40  76 116 126 200 258 318 384 446
#     4  11  26  46  69 112 159 203 257 325 400 466
#
# _framework density 25.404924000000001
#
# number of rings (size 3 to 8) (size 9 to 14) (size 15 to 20)
#    0.000    2.154    0.000    1.846    6.462   11.077 
#   11.077    0.000    0.000    0.000    0.000    0.000 
#    0.000    0.000    0.000    0.000    0.000    0.000 
#
# Total GULP energy -145029.239666 kJ/mol
# GULP energy per Si atom -5578.047679 kJ/mol
# Density = 2.534710 g / cm^3
# Si number density = 25.404924 Si / 1000 Ang^3
#
#
#
# Elastic Constant Matrix: (Units=GPa)
#
#
# Indices 1 2 3 4 5 6 
#
# 1 133.6254 65.6444 46.3806 0.0000 0.0000 0.0000
# 2 65.6444 131.2604 22.0047 0.0000 0.0000 0.0000
# 3 46.3806 22.0047 234.4082 0.0000 0.0000 0.0000
# 4 0.0000 0.0000 0.0000 9.5804 0.0000 0.0000
# 5 0.0000 0.0000 0.0000 0.0000 49.8729 0.0000
# 6 0.0000 0.0000 0.0000 0.0000 0.0000 39.3650
#
#
#
# Elastic Compliance Matrix: (Units=1/GPa)
#
#
# Indices 1 2 3 4 5 6 
#
# 1 0.010485 -0.004974 -0.001608 0.000000 0.000000 0.000000
# 2 -0.004974 0.010100 0.000036 0.000000 0.000000 0.000000
# 3 -0.001608 0.000036 0.004581 0.000000 0.000000 0.000000
# 4 0.000000 0.000000 0.000000 0.104379 0.000000 0.000000
# 5 0.000000 0.000000 0.000000 0.000000 0.020051 0.000000
# 6 0.000000 0.000000 0.000000 0.000000 0.000000 0.025403
#
#
# Mechanical properties :
#
#
# Convention : Reuss Voigt Hill
#
# Bulk Modulus (GPa) = 82.81988 85.26149 84.04068
# Shear Modulus (GPa) = 26.02592 44.11463 35.07028
#
# Velocity S-wave (km/s) = 3.20417 4.17161 3.71947
# Velocity P-wave (km/s) = 6.80879 7.53903 7.18319
#
# Compressibility (1/GPa) = 0.01207440
#
# Stress axis : x y z
#
# Youngs Moduli (GPa) = 95.37198 99.00941 218.30361
#
# Poissons Ratio (x) = 0.49250 0.35096
# Poissons Ratio (y) = 0.47440 -0.00788
# Poissons Ratio (z) = 0.15333 -0.00357
#
# Static dielectric constant tensor:
#      x y z
#    x 1.440900 0.000000 0.000000 
#    y 0.000000 2.035120 0.000000 
#    z 0.000000 0.000000 2.125030 
# 
# From -- ./inp_files/56255.got.cif
#   From: 2010.05.17/outbox.cif.g08.bks.cpg/sg70_29_cif.got.tgz:56255.got - 2010.06.03 15:57:51.
