data_PCOD9516955
_publ_section_title
;
Structure prediction by ZEFSAII (Michael W. Deem and Ramdas Pophale) SiO2 
 PCOD9516955
Probable space group: F D D D
;
_chemical_formula_sum "Si O2"
_cell_formula_units_Z 160
_cell_length_a 15.989755
_cell_length_b 20.903552
_cell_length_c 22.920698
_cell_angle_alpha 90.000000
_cell_angle_beta 90.000000
_cell_angle_gamma 90.000000
_cell_volume 7661.075415
_symmetry_space_group_name_H-M "F D D D"
_symmetry_group_IT_number 70
_space_group.IT_coordinate_system_code '2'
_symmetry_cell_setting 'orthorhombic'
loop_
_space_group_symop_operation_xyz
x,y,z
1/4-x,1/4-y,z
x,1/4-y,1/4-z
1/4-x,y,1/4-z
-x,-y,-z
3/4+x,3/4+y,-z
-x,3/4+y,3/4+z
3/4+x,-y,3/4+z
x,1/2+y,1/2+z
1/4-x,3/4-y,1/2+z
x,3/4-y,3/4-z
1/4-x,1/2+y,3/4-z
-x,1/2-y,1/2-z
3/4+x,1/4+y,1/2-z
-x,1/4+y,1/4+z
3/4+x,1/2-y,1/4+z
1/2+x,y,1/2+z
3/4-x,1/4-y,1/2+z
1/2+x,1/4-y,3/4-z
3/4-x,y,3/4-z
1/2-x,-y,1/2-z
1/4+x,3/4+y,1/2-z
1/2-x,3/4+y,1/4+z
1/4+x,-y,1/4+z
1/2+x,1/2+y,z
3/4-x,3/4-y,z
1/2+x,3/4-y,1/4-z
3/4-x,1/2+y,1/4-z
1/2-x,1/2-y,-z
1/4+x,1/4+y,-z
1/2-x,1/4+y,3/4+z
1/4+x,1/2-y,3/4+z
loop_
_atom_site_type_symbol
_atom_site_label
_atom_site_fract_x
_atom_site_fract_y
_atom_site_fract_z
Si Si1 0.552683 0.219437 0.301983
Si Si2 0.987441 0.819373 0.537677
Si Si3 0.079259 0.763149 0.425706
Si Si4 0.125000 0.478290 0.625000
Si Si5 0.125000 0.125000 0.973070
Si Si6 0.241545 0.079091 0.179807
O O1 0.500000 0.250000 0.250000
O O2 0.653608 0.221899 0.297760
O O3 0.533127 0.144013 0.295718
O O4 0.534819 0.255848 0.362917
O O5 0.022448 0.795203 0.475556
O O6 0.057315 0.807438 0.586520
O O7 0.107497 0.689928 0.438601
O O8 0.164280 0.804512 0.427821
O O9 0.178020 0.520771 0.670119
O O10 0.207300 0.136071 0.012928
O O11 0.228839 0.125000 0.125000
#
# Coordination Sequence:
#
# PCOD9516955 Si02
#       6
#    32  32  32  16  16  32
#     4  11  28  51  68  99 145 190 249 302 347 438
#     4  11  26  46  73 105 143 187 240 301 361 435
#     4  12  27  43  75 104 143 196 238 297 376 433
#     4  12  21  44  72 112 146 179 222 298 376 428
#     4  12  23  42  66 114 148 173 230 302 368 448
#     4  12  23  41  69 109 148 179 227 292 365 445
#
# _framework density 20.884796999999999
#
# number of rings (size 3 to 8) (size 9 to 14) (size 15 to 20)
#    0.000    0.400    6.000    1.800    2.800    2.400 
#    0.000    2.000    0.000    0.000    0.000    0.000 
#    0.000    0.000    0.000    0.000    0.000    0.000 
#
# Total GULP energy -223621.929945 kJ/mol
# GULP energy per Si atom -5590.548249 kJ/mol
# Density = 2.083726 g / cm^3
# Si number density = 20.884797 Si / 1000 Ang^3
#
#
#
# Elastic Constant Matrix: (Units=GPa)
#
#
# Indices 1 2 3 4 5 6 
#
# 1 103.2127 37.1854 61.1104 0.0000 0.0000 0.0000
# 2 37.1854 51.4758 32.1543 0.0000 0.0000 0.0000
# 3 61.1104 32.1543 126.6153 0.0000 0.0000 0.0000
# 4 0.0000 0.0000 0.0000 33.7100 0.0000 0.0000
# 5 0.0000 0.0000 0.0000 0.0000 -56.0514 0.0000
# 6 0.0000 0.0000 0.0000 0.0000 0.0000 30.5348
#
#
#
# Elastic Compliance Matrix: (Units=1/GPa)
#
#
# Indices 1 2 3 4 5 6 
#
# 1 0.015904 -0.007956 -0.005655 0.000000 0.000000 0.000000
# 2 -0.007956 0.027069 -0.003034 0.000000 0.000000 0.000000
# 3 -0.005655 -0.003034 0.011398 0.000000 0.000000 0.000000
# 4 0.000000 0.000000 0.000000 0.029665 0.000000 0.000000
# 5 0.000000 0.000000 0.000000 0.000000 -0.017841 0.000000
# 6 0.000000 0.000000 0.000000 0.000000 0.000000 0.032750
#
#
# Mechanical properties :
#
#
# Convention : Reuss Voigt Hill
#
# Bulk Modulus (GPa) = 47.43941 60.24490 53.84216
# Shear Modulus (GPa) = 35.90350 11.69559 23.79955
#
# Velocity S-wave (km/s) = 4.15073 2.36901 3.37940
# Velocity P-wave (km/s) = 6.76280 6.03257 6.40809
#
# Compressibility (1/GPa) = 0.02107952
#
# Stress axis : x y z
#
# Youngs Moduli (GPa) = 62.87922 36.94227 87.73407
#
# Poissons Ratio (x) = 0.29391 0.49617
# Poissons Ratio (y) = 0.50026 0.26622
# Poissons Ratio (z) = 0.35560 0.11210
#
# Static dielectric constant tensor:
#      x y z
#    x 1.695830 0.000000 0.000000 
#    y 0.000000 1.681240 0.000000 
#    z 0.000000 0.000000 1.700410 
# 
# From -- ./inp_files/43698.got.cif
#   From: 2010.05.17/outbox.cif.g08.bks.cpg/sg70_22_cif.got.tgz:43698.got - 2010.06.03 15:57:51.
