data_PCOD9516310
_publ_section_title
;
Structure prediction by ZEFSAII (Michael W. Deem and Ramdas Pophale) SiO2 
 PCOD9516310
Probable space group: F D D D
;
_chemical_formula_sum "Si O2"
_cell_formula_units_Z 120
_cell_length_a 17.124460
_cell_length_b 12.865444
_cell_length_c 23.354759
_cell_angle_alpha 90.000000
_cell_angle_beta 90.000000
_cell_angle_gamma 90.000000
_cell_volume 5145.375263
_symmetry_space_group_name_H-M "F D D D"
_symmetry_group_IT_number 70
_space_group.IT_coordinate_system_code '2'
_symmetry_cell_setting 'orthorhombic'
loop_
_space_group_symop_operation_xyz
x,y,z
1/4-x,1/4-y,z
x,1/4-y,1/4-z
1/4-x,y,1/4-z
-x,-y,-z
3/4+x,3/4+y,-z
-x,3/4+y,3/4+z
3/4+x,-y,3/4+z
x,1/2+y,1/2+z
1/4-x,3/4-y,1/2+z
x,3/4-y,3/4-z
1/4-x,1/2+y,3/4-z
-x,1/2-y,1/2-z
3/4+x,1/4+y,1/2-z
-x,1/4+y,1/4+z
3/4+x,1/2-y,1/4+z
1/2+x,y,1/2+z
3/4-x,1/4-y,1/2+z
1/2+x,1/4-y,3/4-z
3/4-x,y,3/4-z
1/2-x,-y,1/2-z
1/4+x,3/4+y,1/2-z
1/2-x,3/4+y,1/4+z
1/4+x,-y,1/4+z
1/2+x,1/2+y,z
3/4-x,3/4-y,z
1/2+x,3/4-y,1/4-z
3/4-x,1/2+y,1/4-z
1/2-x,1/2-y,-z
1/4+x,1/4+y,-z
1/2-x,1/4+y,3/4+z
1/4+x,1/2-y,3/4+z
loop_
_atom_site_type_symbol
_atom_site_label
_atom_site_fract_x
_atom_site_fract_y
_atom_site_fract_z
Si Si1 0.416147 0.032823 0.815515
Si Si2 0.030848 0.386730 0.988113
Si Si3 0.750880 0.018440 0.817825
Si Si4 0.875000 0.875000 0.875000
Si Si5 0.877083 0.625000 0.625000
O O1 0.375000 0.994637 0.875000
O O2 0.352758 0.111024 0.784505
O O3 0.485960 0.111313 0.831521
O O4 0.459769 0.947628 0.773416
O O5 0.073054 0.395828 0.928050
O O6 0.000000 0.500000 0.000000
O O7 0.750000 0.000000 0.750000
O O8 0.822167 0.948576 0.837747
O O9 0.679906 0.970697 0.853763
#
# Coordination Sequence:
#
# PCOD9516310 Si02
#       5
#    32  32  32   8  16
#     4  12  28  50  83 117 160 211 269 346 405 500
#     4  12  28  51  78 110 157 208 268 330 414 481
#     4  11  24  44  76 113 156 204 264 321 406 474
#     4  10  24  44  72 108 164 208 254 332 388 474
#     4  11  26  49  77 114 155 206 266 330 403 494
#
# _framework density 23.321915000000001
#
# number of rings (size 3 to 8) (size 9 to 14) (size 15 to 20)
#    0.000    0.533    4.000    2.400    7.467    2.133 
#    4.800    0.000    0.000    0.000    0.000    0.000 
#    0.000    0.000    0.000    0.000    0.000    0.000 
#
# Total GULP energy -167290.570955 kJ/mol
# GULP energy per Si atom -5576.352365 kJ/mol
# Density = 2.326883 g / cm^3
# Si number density = 23.321915 Si / 1000 Ang^3
#
#
#
# Elastic Constant Matrix: (Units=GPa)
#
#
# Indices 1 2 3 4 5 6 
#
# 1 102.4613 46.4508 34.7426 0.0000 0.0000 0.0000
# 2 46.4508 146.3821 14.2240 0.0000 0.0000 0.0000
# 3 34.7426 14.2240 108.6819 0.0000 0.0000 0.0000
# 4 0.0000 0.0000 0.0000 36.5414 0.0000 0.0000
# 5 0.0000 0.0000 0.0000 0.0000 49.1866 0.0000
# 6 0.0000 0.0000 0.0000 0.0000 0.0000 -30.7743
#
#
#
# Elastic Compliance Matrix: (Units=1/GPa)
#
#
# Indices 1 2 3 4 5 6 
#
# 1 0.012625 -0.003661 -0.003557 0.000000 0.000000 0.000000
# 2 -0.003661 0.007981 0.000126 0.000000 0.000000 0.000000
# 3 -0.003557 0.000126 0.010322 0.000000 0.000000 0.000000
# 4 0.000000 0.000000 0.000000 0.027366 0.000000 0.000000
# 5 0.000000 0.000000 0.000000 0.000000 0.020331 0.000000
# 6 0.000000 0.000000 0.000000 0.000000 0.000000 -0.032495
#
#
# Mechanical properties :
#
#
# Convention : Reuss Voigt Hill
#
# Bulk Modulus (GPa) = 59.72210 60.92891 60.32550
# Shear Modulus (GPa) = 75.87747 28.46458 52.17102
#
# Velocity S-wave (km/s) = 5.71012 3.49737 4.73482
# Velocity P-wave (km/s) = 8.31488 6.51849 7.47087
#
# Compressibility (1/GPa) = 0.01674422
#
# Stress axis : x y z
#
# Youngs Moduli (GPa) = 79.20496 125.29957 96.88270
#
# Poissons Ratio (x) = 0.45869 0.34460
# Poissons Ratio (y) = 0.28995 -0.01218
# Poissons Ratio (z) = 0.28172 -0.01575
#
# Static dielectric constant tensor:
#      x y z
#    x 2.169820 0.000000 0.000000 
#    y 0.000000 1.898960 0.000000 
#    z 0.000000 0.000000 2.010870 
# 
# From -- ./inp_files/52754.got.cif
#   From: 2010.05.17/outbox.cif.g08.bks.cpg/sg70_27_cif.got.tgz:52754.got - 2010.06.03 15:57:51.
