data_PCOD9516647
_publ_section_title
;
Structure prediction by ZEFSAII (Michael W. Deem and Ramdas Pophale) SiO2 
 PCOD9516647
Probable space group: F D D D
;
_chemical_formula_sum "Si O2"
_cell_formula_units_Z 160
_cell_length_a 31.165224
_cell_length_b 22.236336
_cell_length_c 11.148976
_cell_angle_alpha 90.000000
_cell_angle_beta 90.000000
_cell_angle_gamma 90.000000
_cell_volume 7726.244743
_symmetry_space_group_name_H-M "F D D D"
_symmetry_group_IT_number 70
_space_group.IT_coordinate_system_code '2'
_symmetry_cell_setting 'orthorhombic'
loop_
_space_group_symop_operation_xyz
x,y,z
1/4-x,1/4-y,z
x,1/4-y,1/4-z
1/4-x,y,1/4-z
-x,-y,-z
3/4+x,3/4+y,-z
-x,3/4+y,3/4+z
3/4+x,-y,3/4+z
x,1/2+y,1/2+z
1/4-x,3/4-y,1/2+z
x,3/4-y,3/4-z
1/4-x,1/2+y,3/4-z
-x,1/2-y,1/2-z
3/4+x,1/4+y,1/2-z
-x,1/4+y,1/4+z
3/4+x,1/2-y,1/4+z
1/2+x,y,1/2+z
3/4-x,1/4-y,1/2+z
1/2+x,1/4-y,3/4-z
3/4-x,y,3/4-z
1/2-x,-y,1/2-z
1/4+x,3/4+y,1/2-z
1/2-x,3/4+y,1/4+z
1/4+x,-y,1/4+z
1/2+x,1/2+y,z
3/4-x,3/4-y,z
1/2+x,3/4-y,1/4-z
3/4-x,1/2+y,1/4-z
1/2-x,1/2-y,-z
1/4+x,1/4+y,-z
1/2-x,1/4+y,3/4+z
1/4+x,1/2-y,3/4+z
loop_
_atom_site_type_symbol
_atom_site_label
_atom_site_fract_x
_atom_site_fract_y
_atom_site_fract_z
Si Si1 0.241528 0.625000 0.125000
Si Si2 0.306304 0.696991 0.421419
Si Si3 0.679748 0.788206 0.357299
Si Si4 0.534698 0.166736 0.737890
Si Si5 0.669951 0.100275 0.319565
Si Si6 0.391312 0.125000 0.625000
O O1 0.273918 0.568075 0.132407
O O2 0.208798 0.620045 0.234662
O O3 0.324867 0.699992 0.286630
O O4 0.300707 0.766609 0.457788
O O5 0.257781 0.672162 0.430282
O O6 0.331767 0.657290 0.519619
O O7 0.674652 0.720002 0.399226
O O8 0.641785 0.824649 0.422423
O O9 0.523086 0.125000 0.625000
O O10 0.572706 0.134383 0.806232
O O11 0.625000 0.125000 0.270034
#
# Coordination Sequence:
#
# PCOD9516647 Si02
#       6
#    16  32  32  32  32  16
#     4  11  25  48  69  96 138 186 229 280 349 435
#     4  11  22  42  68 103 141 178 235 290 354 430
#     4  11  24  45  69  98 139 186 233 286 356 423
#     4  11  22  41  73 103 135 179 234 296 353 422
#     4  12  25  45  69 103 137 181 236 292 350 418
#     4  11  24  40  63 102 140 182 231 292 352 421
#
# _framework density 20.708635999999998
#
# number of rings (size 3 to 8) (size 9 to 14) (size 15 to 20)
#    0.000    0.800    5.000    2.700    0.000    0.400 
#    3.600    6.000    0.000    0.000    0.000    0.000 
#    0.000    0.000    0.000    0.000    0.000    0.000 
#
# Total GULP energy -223193.425900 kJ/mol
# GULP energy per Si atom -5579.835648 kJ/mol
# Density = 2.066150 g / cm^3
# Si number density = 20.708636 Si / 1000 Ang^3
#
#
#
# Elastic Constant Matrix: (Units=GPa)
#
#
# Indices 1 2 3 4 5 6 
#
# 1 145.8781 86.4518 44.4288 0.0000 0.0000 0.0000
# 2 86.4518 148.1677 55.1301 0.0000 0.0000 0.0000
# 3 44.4288 55.1301 68.2953 0.0000 0.0000 0.0000
# 4 0.0000 0.0000 0.0000 10.9769 0.0000 0.0000
# 5 0.0000 0.0000 0.0000 0.0000 41.8049 0.0000
# 6 0.0000 0.0000 0.0000 0.0000 0.0000 62.9270
#
#
#
# Elastic Compliance Matrix: (Units=1/GPa)
#
#
# Indices 1 2 3 4 5 6 
#
# 1 0.010836 -0.005288 -0.002781 0.000000 0.000000 0.000000
# 2 -0.005288 0.012227 -0.006430 0.000000 0.000000 0.000000
# 3 -0.002781 -0.006430 0.021642 0.000000 0.000000 0.000000
# 4 0.000000 0.000000 0.000000 0.091100 0.000000 0.000000
# 5 0.000000 0.000000 0.000000 0.000000 0.023921 0.000000
# 6 0.000000 0.000000 0.000000 0.000000 0.000000 0.015891
#
#
# Mechanical properties :
#
#
# Convention : Reuss Voigt Hill
#
# Bulk Modulus (GPa) = 63.66384 81.59583 72.62984
# Shear Modulus (GPa) = 23.82669 34.89713 29.36191
#
# Velocity S-wave (km/s) = 3.39568 4.10951 3.76953
# Velocity P-wave (km/s) = 6.79585 7.87431 7.35488
#
# Compressibility (1/GPa) = 0.01570750
#
# Stress axis : x y z
#
# Youngs Moduli (GPa) = 92.28914 81.78769 46.20706
#
# Poissons Ratio (x) = 0.43246 0.12848
# Poissons Ratio (y) = 0.48799 0.29711
# Poissons Ratio (z) = 0.25662 0.52590
#
# Static dielectric constant tensor:
#      x y z
#    x 1.766640 0.000000 0.000000 
#    y 0.000000 1.779600 0.000000 
#    z 0.000000 0.000000 1.753160 
# 
# From -- ./inp_files/22237.got.cif
#   From: 2010.05.17/outbox.cif.g08.bks.cpg/sg70_12_cif.got.tgz:22237.got - 2010.06.03 15:57:51.
