data_PCOD9516469
_publ_section_title
;
Structure prediction by ZEFSAII (Michael W. Deem and Ramdas Pophale) SiO2 
 PCOD9516469
Probable space group: F D D D
;
_chemical_formula_sum "Si O2"
_cell_formula_units_Z 120
_cell_length_a 18.369125
_cell_length_b 15.038931
_cell_length_c 20.092200
_cell_angle_alpha 90.000000
_cell_angle_beta 90.000000
_cell_angle_gamma 90.000000
_cell_volume 5550.510503
_symmetry_space_group_name_H-M "F D D D"
_symmetry_group_IT_number 70
_space_group.IT_coordinate_system_code '2'
_symmetry_cell_setting 'orthorhombic'
loop_
_space_group_symop_operation_xyz
x,y,z
1/4-x,1/4-y,z
x,1/4-y,1/4-z
1/4-x,y,1/4-z
-x,-y,-z
3/4+x,3/4+y,-z
-x,3/4+y,3/4+z
3/4+x,-y,3/4+z
x,1/2+y,1/2+z
1/4-x,3/4-y,1/2+z
x,3/4-y,3/4-z
1/4-x,1/2+y,3/4-z
-x,1/2-y,1/2-z
3/4+x,1/4+y,1/2-z
-x,1/4+y,1/4+z
3/4+x,1/2-y,1/4+z
1/2+x,y,1/2+z
3/4-x,1/4-y,1/2+z
1/2+x,1/4-y,3/4-z
3/4-x,y,3/4-z
1/2-x,-y,1/2-z
1/4+x,3/4+y,1/2-z
1/2-x,3/4+y,1/4+z
1/4+x,-y,1/4+z
1/2+x,1/2+y,z
3/4-x,3/4-y,z
1/2+x,3/4-y,1/4-z
3/4-x,1/2+y,1/4-z
1/2-x,1/2-y,-z
1/4+x,1/4+y,-z
1/2-x,1/4+y,3/4+z
1/4+x,1/2-y,3/4+z
loop_
_atom_site_type_symbol
_atom_site_label
_atom_site_fract_x
_atom_site_fract_y
_atom_site_fract_z
Si Si1 0.880425 0.734608 0.204468
Si Si2 0.125000 0.625000 0.625000
Si Si3 0.875000 0.375000 0.592799
Si Si4 0.219049 0.112195 0.699862
Si Si5 0.767348 0.799206 0.764746
O O1 0.856387 0.793838 0.141679
O O2 0.954761 0.687058 0.188418
O O3 0.814829 0.667440 0.221166
O O4 0.910463 0.798760 0.263424
O O5 0.178262 0.566200 0.577032
O O6 0.807838 0.403717 0.546480
O O7 0.195075 0.125000 0.625000
O O8 0.244526 0.198426 0.743070
#
# Coordination Sequence:
#
# PCOD9516469 Si02
#       5
#    32   8  16  32  32
#     4  11  24  43  67 100 134 179 230 293 345 415
#     4  10  28  44  68 104 142 190 244 272 350 440
#     4  11  22  43  65 100 139 170 232 290 349 416
#     4  11  23  43  69 102 134 177 236 287 355 410
#     4  11  24  44  68  97 139 186 231 288 346 424
#
# _framework density 21.619634000000001
#
# number of rings (size 3 to 8) (size 9 to 14) (size 15 to 20)
#    0.000    1.067    5.333    0.000    1.867    4.267 
#    0.000    5.333    0.000    0.000    0.000    0.000 
#    0.000    0.000    0.000    0.000    0.000    0.000 
#
# Total GULP energy -167206.166622 kJ/mol
# GULP energy per Si atom -5573.538887 kJ/mol
# Density = 2.157043 g / cm^3
# Si number density = 21.619634 Si / 1000 Ang^3
#
#
#
# Elastic Constant Matrix: (Units=GPa)
#
#
# Indices 1 2 3 4 5 6 
#
# 1 214.8280 45.7826 92.4427 0.0000 0.0000 0.0000
# 2 45.7826 47.5418 46.2134 0.0000 0.0000 0.0000
# 3 92.4427 46.2134 176.9030 0.0000 0.0000 0.0000
# 4 0.0000 0.0000 0.0000 26.0095 0.0000 0.0000
# 5 0.0000 0.0000 0.0000 0.0000 82.6160 0.0000
# 6 0.0000 0.0000 0.0000 0.0000 0.0000 28.0641
#
#
#
# Elastic Compliance Matrix: (Units=1/GPa)
#
#
# Indices 1 2 3 4 5 6 
#
# 1 0.006522 -0.003978 -0.002369 0.000000 0.000000 0.000000
# 2 -0.003978 0.030620 -0.005920 0.000000 0.000000 0.000000
# 3 -0.002369 -0.005920 0.008437 0.000000 0.000000 0.000000
# 4 0.000000 0.000000 0.000000 0.038448 0.000000 0.000000
# 5 0.000000 0.000000 0.000000 0.000000 0.012104 0.000000
# 6 0.000000 0.000000 0.000000 0.000000 0.000000 0.035633
#
#
# Mechanical properties :
#
#
# Convention : Reuss Voigt Hill
#
# Bulk Modulus (GPa) = 47.51779 89.79445 68.65612
# Shear Modulus (GPa) = 30.61611 44.32685 37.47148
#
# Velocity S-wave (km/s) = 3.76723 4.53294 4.16771
# Velocity P-wave (km/s) = 6.39917 8.30787 7.41519
#
# Compressibility (1/GPa) = 0.02104475
#
# Stress axis : x y z
#
# Youngs Moduli (GPa) = 153.32660 32.65875 118.52067
#
# Poissons Ratio (x) = 0.12991 0.28077
# Poissons Ratio (y) = 0.60992 0.70167
# Poissons Ratio (z) = 0.36323 0.19335
#
# Static dielectric constant tensor:
#      x y z
#    x 1.859540 0.000000 0.000000 
#    y 0.000000 1.902500 0.000000 
#    z 0.000000 0.000000 -6.035480 
# 
# From -- ./inp_files/36002.got.cif
#   From: 2010.05.17/outbox.cif.g08.bks.cpg/sg70_19_cif.got.tgz:36002.got - 2010.06.03 15:57:51.
