data_PCOD9516180
_publ_section_title
;
Structure prediction by ZEFSAII (Michael W. Deem and Ramdas Pophale) SiO2 
 PCOD9516180
Probable space group: F D D D
;
_chemical_formula_sum "Si O2"
_cell_formula_units_Z 128
_cell_length_a 11.515319
_cell_length_b 20.991185
_cell_length_c 23.707741
_cell_angle_alpha 90.000000
_cell_angle_beta 90.000000
_cell_angle_gamma 90.000000
_cell_volume 5730.639694
_symmetry_space_group_name_H-M "F D D D"
_symmetry_group_IT_number 70
_space_group.IT_coordinate_system_code '2'
_symmetry_cell_setting 'orthorhombic'
loop_
_space_group_symop_operation_xyz
x,y,z
1/4-x,1/4-y,z
x,1/4-y,1/4-z
1/4-x,y,1/4-z
-x,-y,-z
3/4+x,3/4+y,-z
-x,3/4+y,3/4+z
3/4+x,-y,3/4+z
x,1/2+y,1/2+z
1/4-x,3/4-y,1/2+z
x,3/4-y,3/4-z
1/4-x,1/2+y,3/4-z
-x,1/2-y,1/2-z
3/4+x,1/4+y,1/2-z
-x,1/4+y,1/4+z
3/4+x,1/2-y,1/4+z
1/2+x,y,1/2+z
3/4-x,1/4-y,1/2+z
1/2+x,1/4-y,3/4-z
3/4-x,y,3/4-z
1/2-x,-y,1/2-z
1/4+x,3/4+y,1/2-z
1/2-x,3/4+y,1/4+z
1/4+x,-y,1/4+z
1/2+x,1/2+y,z
3/4-x,3/4-y,z
1/2+x,3/4-y,1/4-z
3/4-x,1/2+y,1/4-z
1/2-x,1/2-y,-z
1/4+x,1/4+y,-z
1/2-x,1/4+y,3/4+z
1/4+x,1/2-y,3/4+z
loop_
_atom_site_type_symbol
_atom_site_label
_atom_site_fract_x
_atom_site_fract_y
_atom_site_fract_z
Si Si1 0.294550 0.070347 0.445494
Si Si2 0.502150 0.109582 0.518808
Si Si3 0.875000 0.567042 0.875000
Si Si4 0.125000 0.040790 0.125000
Si Si5 0.136007 0.490605 0.009589
O O1 0.417029 0.068873 0.479525
O O2 0.290196 0.133842 0.408113
O O3 0.291437 0.009383 0.405444
O O4 0.196609 0.055197 0.490025
O O5 0.625000 0.125000 0.488984
O O6 0.547109 0.078118 0.577729
O O7 0.431874 0.176334 0.522246
O O8 0.830088 0.524132 0.925681
O O9 0.000000 0.500000 0.000000
#
# Coordination Sequence:
#
# PCOD9516180 Si02
#       5
#    32  32  16  16  32
#     4  10  23  44  72 100 143 180 237 296 349 428
#     4  11  23  41  65 103 138 177 239 288 347 426
#     4   9  24  47  66 106 128 197 234 273 376 408
#     4  11  21  39  68 110 128 183 226 298 360 394
#     4  11  25  46  68 102 144 185 236 292 359 432
#
# _framework density 22.336077
#
# number of rings (size 3 to 8) (size 9 to 14) (size 15 to 20)
#    0.000    1.500    2.500    1.125    0.000    6.000 
#   22.500    0.000    0.000    6.000    0.000    0.000 
#    0.000    0.000    0.000    0.000    0.000    0.000 
#
# Total GULP energy -178209.891497 kJ/mol
# GULP energy per Si atom -5569.059109 kJ/mol
# Density = 2.228524 g / cm^3
# Si number density = 22.336077 Si / 1000 Ang^3
#
#
#
# Elastic Constant Matrix: (Units=GPa)
#
#
# Indices 1 2 3 4 5 6 
#
# 1 133.3028 32.1196 20.5659 0.0000 0.0000 0.0000
# 2 32.1196 79.4450 47.9005 0.0000 0.0000 0.0000
# 3 20.5659 47.9005 118.3927 0.0000 0.0000 0.0000
# 4 0.0000 0.0000 0.0000 56.4811 0.0000 0.0000
# 5 0.0000 0.0000 0.0000 0.0000 29.2816 0.0000
# 6 0.0000 0.0000 0.0000 0.0000 0.0000 -28.7434
#
#
#
# Elastic Compliance Matrix: (Units=1/GPa)
#
#
# Indices 1 2 3 4 5 6 
#
# 1 0.008312 -0.003294 -0.000111 0.000000 0.000000 0.000000
# 2 -0.003294 0.017954 -0.006692 0.000000 0.000000 0.000000
# 3 -0.000111 -0.006692 0.011173 0.000000 0.000000 0.000000
# 4 0.000000 0.000000 0.000000 0.017705 0.000000 0.000000
# 5 0.000000 0.000000 0.000000 0.000000 0.034151 0.000000
# 6 0.000000 0.000000 0.000000 0.000000 0.000000 -0.034791
#
#
# Mechanical properties :
#
#
# Convention : Reuss Voigt Hill
#
# Bulk Modulus (GPa) = 57.98473 59.14584 58.56529
# Shear Modulus (GPa) = 62.15274 26.77416 44.46345
#
# Velocity S-wave (km/s) = 5.28077 3.46597 4.46652
# Velocity P-wave (km/s) = 7.94975 6.52340 7.27163
#
# Compressibility (1/GPa) = 0.01724592
#
# Stress axis : x y z
#
# Youngs Moduli (GPa) = 120.30078 55.69911 89.49969
#
# Poissons Ratio (x) = 0.18345 0.00997
# Poissons Ratio (y) = 0.39622 0.59891
# Poissons Ratio (z) = 0.01340 0.37272
#
# Static dielectric constant tensor:
#      x y z
#    x 1.902370 0.000000 0.000000 
#    y 0.000000 1.897450 0.000000 
#    z 0.000000 0.000000 1.995120 
# 
# From -- ./inp_files/49954.got.cif
#   From: 2010.05.17/outbox.cif.g08.bks.cpg/sg70_25_cif.got.tgz:49954.got - 2010.06.03 15:57:51.
