data_PCOD9516925
_publ_section_title
;
Structure prediction by ZEFSAII (Michael W. Deem and Ramdas Pophale) SiO2 
 PCOD9516925
Probable space group: F D D D
;
_chemical_formula_sum "Si O2"
_cell_formula_units_Z 216
_cell_length_a 13.323906
_cell_length_b 29.065777
_cell_length_c 24.707168
_cell_angle_alpha 90.000000
_cell_angle_beta 90.000000
_cell_angle_gamma 90.000000
_cell_volume 9568.337059
_symmetry_space_group_name_H-M "F D D D"
_symmetry_group_IT_number 70
_space_group.IT_coordinate_system_code '2'
_symmetry_cell_setting 'orthorhombic'
loop_
_space_group_symop_operation_xyz
x,y,z
1/4-x,1/4-y,z
x,1/4-y,1/4-z
1/4-x,y,1/4-z
-x,-y,-z
3/4+x,3/4+y,-z
-x,3/4+y,3/4+z
3/4+x,-y,3/4+z
x,1/2+y,1/2+z
1/4-x,3/4-y,1/2+z
x,3/4-y,3/4-z
1/4-x,1/2+y,3/4-z
-x,1/2-y,1/2-z
3/4+x,1/4+y,1/2-z
-x,1/4+y,1/4+z
3/4+x,1/2-y,1/4+z
1/2+x,y,1/2+z
3/4-x,1/4-y,1/2+z
1/2+x,1/4-y,3/4-z
3/4-x,y,3/4-z
1/2-x,-y,1/2-z
1/4+x,3/4+y,1/2-z
1/2-x,3/4+y,1/4+z
1/4+x,-y,1/4+z
1/2+x,1/2+y,z
3/4-x,3/4-y,z
1/2+x,3/4-y,1/4-z
3/4-x,1/2+y,1/4-z
1/2-x,1/2-y,-z
1/4+x,1/4+y,-z
1/2-x,1/4+y,3/4+z
1/4+x,1/2-y,3/4+z
loop_
_atom_site_type_symbol
_atom_site_label
_atom_site_fract_x
_atom_site_fract_y
_atom_site_fract_z
Si Si1 0.875000 0.375000 0.517545
Si Si2 0.664910 0.521647 0.292613
Si Si3 0.235094 0.340404 0.823065
Si Si4 0.859235 0.428157 0.700064
Si Si5 0.988903 0.058277 0.555855
Si Si6 0.242500 0.777030 0.135535
Si Si7 0.375000 0.875000 0.875000
Si Si8 0.274132 0.010297 0.400604
O O1 0.835674 0.327139 0.542895
O O2 0.783966 0.386419 0.478025
O O3 0.750000 0.500000 0.250000
O O4 0.542218 0.514583 0.305497
O O5 0.705085 0.502060 0.348744
O O6 0.241374 0.375000 0.875000
O O7 0.122316 0.328211 0.806867
O O8 0.293189 0.291255 0.828186
O O9 0.875000 0.375000 0.713433
O O10 0.789985 0.448743 0.747686
O O11 0.800991 0.430906 0.642801
O O12 0.962496 0.456817 0.690997
O O13 0.057999 0.093862 0.587197
O O14 0.985810 0.014272 0.594150
O O15 0.125000 0.785560 0.125000
O O16 0.375000 0.031187 0.375000
#
# Coordination Sequence:
#
# PCOD9516925 Si02
#       8
#    16  32  32  32  32  32   8  32
#     4  12  29  42  75 112 150 191 272 305 400 480
#     4  11  25  47  70 110 154 201 254 322 386 477
#     4  12  24  45  73 105 143 195 251 313 379 458
#     4  11  26  45  72 106 146 190 255 310 379 468
#     4  12  24  45  71 105 140 191 246 315 373 455
#     4  11  26  45  77 101 152 198 256 311 392 466
#     4  12  24  44  70 106 140 174 248 304 376 430
#     4  11  25  46  74 103 148 199 248 313 389 455
#
# _framework density 22.574456000000001
#
# number of rings (size 3 to 8) (size 9 to 14) (size 15 to 20)
#    0.000    0.593    5.185    3.333    6.222    2.963 
#    0.000    1.481    0.000    0.000    0.000    0.000 
#    0.000    0.000    0.000    0.000    0.000    0.000 
#
# Total GULP energy -300820.672164 kJ/mol
# GULP energy per Si atom -5570.753188 kJ/mol
# Density = 2.252308 g / cm^3
# Si number density = 22.574456 Si / 1000 Ang^3
#
#
#
# Elastic Constant Matrix: (Units=GPa)
#
#
# Indices 1 2 3 4 5 6 
#
# 1 111.0256 25.0438 7.3597 0.0000 0.0000 0.0000
# 2 25.0438 110.6801 36.0166 0.0000 0.0000 0.0000
# 3 7.3597 36.0166 81.4306 0.0000 0.0000 0.0000
# 4 0.0000 0.0000 0.0000 36.7253 0.0000 0.0000
# 5 0.0000 0.0000 0.0000 0.0000 59.0351 0.0000
# 6 0.0000 0.0000 0.0000 0.0000 0.0000 34.8687
#
#
#
# Elastic Compliance Matrix: (Units=1/GPa)
#
#
# Indices 1 2 3 4 5 6 
#
# 1 0.009492 -0.002183 0.000108 0.000000 0.000000 0.000000
# 2 -0.002183 0.011056 -0.004693 0.000000 0.000000 0.000000
# 3 0.000108 -0.004693 0.014346 0.000000 0.000000 0.000000
# 4 0.000000 0.000000 0.000000 0.027229 0.000000 0.000000
# 5 0.000000 0.000000 0.000000 0.000000 0.016939 0.000000
# 6 0.000000 0.000000 0.000000 0.000000 0.000000 0.028679
#
#
# Mechanical properties :
#
#
# Convention : Reuss Voigt Hill
#
# Bulk Modulus (GPa) = 46.81996 48.88628 47.85312
# Shear Modulus (GPa) = 38.94160 41.77356 40.35758
#
# Velocity S-wave (km/s) = 4.15785 4.30639 4.23277
# Velocity P-wave (km/s) = 6.62085 6.81390 6.71807
#
# Compressibility (1/GPa) = 0.02135841
#
# Stress axis : x y z
#
# Youngs Moduli (GPa) = 105.34992 90.44822 69.70440
#
# Poissons Ratio (x) = 0.19743 -0.00750
# Poissons Ratio (y) = 0.22996 0.32711
# Poissons Ratio (z) = -0.01133 0.42445
#
# Static dielectric constant tensor:
#      x y z
#    x 9.143640 0.000000 0.000000 
#    y 0.000000 1.801670 0.000000 
#    z 0.000000 0.000000 1.844720 
# 
# From -- ./inp_files/58802.got.cif
#   From: 2010.05.17/outbox.cif.g08.bks.cpg/sg70_30_cif.got.tgz:58802.got - 2010.06.03 15:57:51.
