data_PCOD9516303
_publ_section_title
;
Structure prediction by ZEFSAII (Michael W. Deem and Ramdas Pophale) SiO2 
 PCOD9516303
Probable space group: F D D D
;
_chemical_formula_sum "Si O2"
_cell_formula_units_Z 152
_cell_length_a 10.488539
_cell_length_b 19.189684
_cell_length_c 27.817514
_cell_angle_alpha 90.000000
_cell_angle_beta 90.000000
_cell_angle_gamma 90.000000
_cell_volume 5598.879696
_symmetry_space_group_name_H-M "F D D D"
_symmetry_group_IT_number 70
_space_group.IT_coordinate_system_code '2'
_symmetry_cell_setting 'orthorhombic'
loop_
_space_group_symop_operation_xyz
x,y,z
1/4-x,1/4-y,z
x,1/4-y,1/4-z
1/4-x,y,1/4-z
-x,-y,-z
3/4+x,3/4+y,-z
-x,3/4+y,3/4+z
3/4+x,-y,3/4+z
x,1/2+y,1/2+z
1/4-x,3/4-y,1/2+z
x,3/4-y,3/4-z
1/4-x,1/2+y,3/4-z
-x,1/2-y,1/2-z
3/4+x,1/4+y,1/2-z
-x,1/4+y,1/4+z
3/4+x,1/2-y,1/4+z
1/2+x,y,1/2+z
3/4-x,1/4-y,1/2+z
1/2+x,1/4-y,3/4-z
3/4-x,y,3/4-z
1/2-x,-y,1/2-z
1/4+x,3/4+y,1/2-z
1/2-x,3/4+y,1/4+z
1/4+x,-y,1/4+z
1/2+x,1/2+y,z
3/4-x,3/4-y,z
1/2+x,3/4-y,1/4-z
3/4-x,1/2+y,1/4-z
1/2-x,1/2-y,-z
1/4+x,1/4+y,-z
1/2-x,1/4+y,3/4+z
1/4+x,1/2-y,3/4+z
loop_
_atom_site_type_symbol
_atom_site_label
_atom_site_fract_x
_atom_site_fract_y
_atom_site_fract_z
Si Si1 0.375000 0.375000 0.375000
Si Si2 0.243297 0.610184 0.780545
Si Si3 0.668766 0.264797 0.894336
Si Si4 0.877679 0.457299 0.737100
Si Si5 0.632136 0.972987 0.787493
Si Si6 0.125000 0.854283 0.125000
O O1 0.475260 0.425317 0.402123
O O2 0.250000 0.500000 0.750000
O O3 0.324482 0.607214 0.733297
O O4 0.102762 0.570728 0.785157
O O5 0.327404 0.605375 0.827693
O O6 0.577821 0.245262 0.938097
O O7 0.595072 0.278576 0.844850
O O8 0.756526 0.195212 0.888464
O O9 0.750000 0.250000 0.000000
O O10 0.875000 0.375000 0.727966
O O11 0.981100 0.466232 0.777977
#
# Coordination Sequence:
#
# PCOD9516303 Si02
#       6
#     8  32  32  32  32  16
#     4  10  24  44  68 108 166 194 260 334 404 472
#     4  11  25  45  75 108 154 200 260 339 411 490
#     4  11  25  45  76 113 151 209 262 336 406 490
#     4  12  29  48  83 120 157 213 277 343 426 504
#     4  11  27  45  70 116 153 197 262 338 405 495
#     4  11  22  45  78 104 143 201 274 328 392 495
#
# _framework density 27.148288999999998
#
# number of rings (size 3 to 8) (size 9 to 14) (size 15 to 20)
#    0.000    0.842    2.105    3.789   14.737    0.000 
#    0.000    0.000    0.000    1.263    0.000    0.000 
#    0.000    0.000    0.000    0.000    0.000    0.000 
#
# Total GULP energy -211901.096094 kJ/mol
# GULP energy per Si atom -5576.344634 kJ/mol
# Density = 2.708650 g / cm^3
# Si number density = 27.148289 Si / 1000 Ang^3
#
#
#
# Elastic Constant Matrix: (Units=GPa)
#
#
# Indices 1 2 3 4 5 6 
#
# 1 121.6570 52.0243 53.4043 0.0000 0.0000 0.0000
# 2 52.0243 144.1884 49.6985 0.0000 0.0000 0.0000
# 3 53.4043 49.6985 160.2995 0.0000 0.0000 0.0000
# 4 0.0000 0.0000 0.0000 41.5063 0.0000 0.0000
# 5 0.0000 0.0000 0.0000 0.0000 32.0629 0.0000
# 6 0.0000 0.0000 0.0000 0.0000 0.0000 29.4593
#
#
#
# Elastic Compliance Matrix: (Units=1/GPa)
#
#
# Indices 1 2 3 4 5 6 
#
# 1 0.010627 -0.002927 -0.002633 0.000000 0.000000 0.000000
# 2 -0.002927 0.008571 -0.001682 0.000000 0.000000 0.000000
# 3 -0.002633 -0.001682 0.007637 0.000000 0.000000 0.000000
# 4 0.000000 0.000000 0.000000 0.024093 0.000000 0.000000
# 5 0.000000 0.000000 0.000000 0.000000 0.031189 0.000000
# 6 0.000000 0.000000 0.000000 0.000000 0.000000 0.033945
#
#
# Mechanical properties :
#
#
# Convention : Reuss Voigt Hill
#
# Bulk Modulus (GPa) = 80.96388 81.82213 81.39300
# Shear Modulus (GPa) = 37.12948 38.67353 37.90150
#
# Velocity S-wave (km/s) = 3.70219 3.77839 3.74048
# Velocity P-wave (km/s) = 6.93992 7.01708 6.97861
#
# Compressibility (1/GPa) = 0.01235119
#
# Stress axis : x y z
#
# Youngs Moduli (GPa) = 94.09727 116.66902 130.93941
#
# Poissons Ratio (x) = 0.34147 0.34478
# Poissons Ratio (y) = 0.27541 0.22028
# Poissons Ratio (z) = 0.24777 0.19627
#
# Static dielectric constant tensor:
#      x y z
#    x 1.974560 0.000000 0.000000 
#    y 0.000000 1.540500 0.000000 
#    z 0.000000 0.000000 2.006580 
# 
# From -- ./inp_files/42776.got.cif
#   From: 2010.05.17/outbox.cif.g08.bks.cpg/sg70_22_cif.got.tgz:42776.got - 2010.06.03 15:57:51.
