data_PCOD9516418
_publ_section_title
;
Structure prediction by ZEFSAII (Michael W. Deem and Ramdas Pophale) SiO2 
 PCOD9516418
Probable space group: F D D D
;
_chemical_formula_sum "Si O2"
_cell_formula_units_Z 176
_cell_length_a 22.021891
_cell_length_b 14.051757
_cell_length_c 24.238254
_cell_angle_alpha 90.000000
_cell_angle_beta 90.000000
_cell_angle_gamma 90.000000
_cell_volume 7500.437074
_symmetry_space_group_name_H-M "F D D D"
_symmetry_group_IT_number 70
_space_group.IT_coordinate_system_code '2'
_symmetry_cell_setting 'orthorhombic'
loop_
_space_group_symop_operation_xyz
x,y,z
1/4-x,1/4-y,z
x,1/4-y,1/4-z
1/4-x,y,1/4-z
-x,-y,-z
3/4+x,3/4+y,-z
-x,3/4+y,3/4+z
3/4+x,-y,3/4+z
x,1/2+y,1/2+z
1/4-x,3/4-y,1/2+z
x,3/4-y,3/4-z
1/4-x,1/2+y,3/4-z
-x,1/2-y,1/2-z
3/4+x,1/4+y,1/2-z
-x,1/4+y,1/4+z
3/4+x,1/2-y,1/4+z
1/2+x,y,1/2+z
3/4-x,1/4-y,1/2+z
1/2+x,1/4-y,3/4-z
3/4-x,y,3/4-z
1/2-x,-y,1/2-z
1/4+x,3/4+y,1/2-z
1/2-x,3/4+y,1/4+z
1/4+x,-y,1/4+z
1/2+x,1/2+y,z
3/4-x,3/4-y,z
1/2+x,3/4-y,1/4-z
3/4-x,1/2+y,1/4-z
1/2-x,1/2-y,-z
1/4+x,1/4+y,-z
1/2-x,1/4+y,3/4+z
1/4+x,1/2-y,3/4+z
loop_
_atom_site_type_symbol
_atom_site_label
_atom_site_fract_x
_atom_site_fract_y
_atom_site_fract_z
Si Si1 0.021387 0.432161 0.176467
Si Si2 0.308168 0.269097 0.036872
Si Si3 0.502284 0.658747 0.487291
Si Si4 0.400777 0.625000 0.125000
Si Si5 0.045595 0.994305 0.424486
Si Si6 0.119478 0.281398 0.065826
O O1 0.961256 0.364977 0.181879
O O2 0.024880 0.500781 0.229221
O O3 0.006809 0.493444 0.121935
O O4 0.082223 0.368512 0.176754
O O5 0.313664 0.179634 0.077575
O O6 0.250000 0.250000 0.000000
O O7 0.361530 0.269258 0.991514
O O8 0.550389 0.594867 0.455086
O O9 0.472944 0.586587 0.531792
O O10 0.449449 0.687654 0.444745
O O11 0.356887 0.707028 0.102035
O O12 0.125000 0.230313 0.125000
#
# Coordination Sequence:
#
# PCOD9516418 Si02
#       6
#    32  32  32  16  32  32
#     4  11  23  44  71  99 139 184 234 294 355 424
#     4  10  25  45  69 103 139 181 242 294 349 442
#     4  11  23  43  69 103 141 177 238 293 348 435
#     4  12  22  46  76  99 147 190 236 298 370 426
#     4  11  22  41  70 100 137 182 232 292 352 423
#     4  11  22  45  70  98 142 183 226 293 359 421
#
# _framework density 23.465298000000001
#
# number of rings (size 3 to 8) (size 9 to 14) (size 15 to 20)
#    0.000    1.091    5.455    0.000    0.000    5.818 
#    3.273    3.636    4.000    0.000    0.000    0.000 
#    0.000    0.000    0.000    0.000    0.000    0.000 
#
# Total GULP energy -246064.261567 kJ/mol
# GULP energy per Si atom -5592.369581 kJ/mol
# Density = 2.341189 g / cm^3
# Si number density = 23.465298 Si / 1000 Ang^3
#
#
#
# Elastic Constant Matrix: (Units=GPa)
#
#
# Indices 1 2 3 4 5 6 
#
# 1 50.5604 25.0477 13.4870 0.0000 0.0000 0.0000
# 2 25.0477 100.1416 37.6466 0.0000 0.0000 0.0000
# 3 13.4870 37.6466 118.7937 0.0000 0.0000 0.0000
# 4 0.0000 0.0000 0.0000 14.3954 0.0000 0.0000
# 5 0.0000 0.0000 0.0000 0.0000 37.3380 0.0000
# 6 0.0000 0.0000 0.0000 0.0000 0.0000 31.4981
#
#
#
# Elastic Compliance Matrix: (Units=1/GPa)
#
#
# Indices 1 2 3 4 5 6 
#
# 1 0.022657 -0.005336 -0.000881 0.000000 0.000000 0.000000
# 2 -0.005336 0.012593 -0.003385 0.000000 0.000000 0.000000
# 3 -0.000881 -0.003385 0.009591 0.000000 0.000000 0.000000
# 4 0.000000 0.000000 0.000000 0.069467 0.000000 0.000000
# 5 0.000000 0.000000 0.000000 0.000000 0.026782 0.000000
# 6 0.000000 0.000000 0.000000 0.000000 0.000000 0.031748
#
#
# Mechanical properties :
#
#
# Convention : Reuss Voigt Hill
#
# Bulk Modulus (GPa) = 39.00708 46.87314 42.94011
# Shear Modulus (GPa) = 24.92681 29.53391 27.23036
#
# Velocity S-wave (km/s) = 3.26281 3.55155 3.41024
# Velocity P-wave (km/s) = 5.55463 6.06934 5.81768
#
# Compressibility (1/GPa) = 0.02563637
#
# Stress axis : x y z
#
# Youngs Moduli (GPa) = 44.13699 79.40932 104.26697
#
# Poissons Ratio (x) = 0.42370 0.09190
# Poissons Ratio (y) = 0.23550 0.35295
# Poissons Ratio (z) = 0.03890 0.26880
#
# Static dielectric constant tensor:
#      x y z
#    x 1.881640 0.000000 0.000000 
#    y 0.000000 1.914890 0.000000 
#    z 0.000000 0.000000 2.045020 
# 
# From -- ./inp_files/53628.got.cif
#   From: 2010.05.17/outbox.cif.g08.bks.cpg/sg70_27_cif.got.tgz:53628.got - 2010.06.03 15:57:51.
