data_PCOD9516305
_publ_section_title
;
Structure prediction by ZEFSAII (Michael W. Deem and Ramdas Pophale) SiO2 
 PCOD9516305
Probable space group: F D D D
;
_chemical_formula_sum "Si O2"
_cell_formula_units_Z 88
_cell_length_a 15.071572
_cell_length_b 16.272970
_cell_length_c 14.940356
_cell_angle_alpha 90.000000
_cell_angle_beta 90.000000
_cell_angle_gamma 90.000000
_cell_volume 3664.260343
_symmetry_space_group_name_H-M "F D D D"
_symmetry_group_IT_number 70
_space_group.IT_coordinate_system_code '2'
_symmetry_cell_setting 'orthorhombic'
loop_
_space_group_symop_operation_xyz
x,y,z
1/4-x,1/4-y,z
x,1/4-y,1/4-z
1/4-x,y,1/4-z
-x,-y,-z
3/4+x,3/4+y,-z
-x,3/4+y,3/4+z
3/4+x,-y,3/4+z
x,1/2+y,1/2+z
1/4-x,3/4-y,1/2+z
x,3/4-y,3/4-z
1/4-x,1/2+y,3/4-z
-x,1/2-y,1/2-z
3/4+x,1/4+y,1/2-z
-x,1/4+y,1/4+z
3/4+x,1/2-y,1/4+z
1/2+x,y,1/2+z
3/4-x,1/4-y,1/2+z
1/2+x,1/4-y,3/4-z
3/4-x,y,3/4-z
1/2-x,-y,1/2-z
1/4+x,3/4+y,1/2-z
1/2-x,3/4+y,1/4+z
1/4+x,-y,1/4+z
1/2+x,1/2+y,z
3/4-x,3/4-y,z
1/2+x,3/4-y,1/4-z
3/4-x,1/2+y,1/4-z
1/2-x,1/2-y,-z
1/4+x,1/4+y,-z
1/2-x,1/4+y,3/4+z
1/4+x,1/2-y,3/4+z
loop_
_atom_site_type_symbol
_atom_site_label
_atom_site_fract_x
_atom_site_fract_y
_atom_site_fract_z
Si Si1 0.625000 0.625000 0.625000
Si Si2 0.856434 0.512087 0.743496
Si Si3 0.625000 0.406852 0.125000
Si Si4 0.733741 0.968813 0.850519
O O1 0.656335 0.558049 0.551280
O O2 0.750000 0.500000 0.750000
O O3 0.886943 0.596190 0.791083
O O4 0.886588 0.515178 0.641069
O O5 0.546647 0.467551 0.151850
O O6 0.757805 0.875000 0.875000
O O7 0.750000 0.000000 0.750000
#
# Coordination Sequence:
#
# PCOD9516305 Si02
#       4
#     8  32  16  32
#     4  10  24  44  70 108 148 206 266 344 388 490
#     4  11  25  46  77 115 161 214 280 340 423 499
#     4  11  25  47  73 114 162 220 281 347 417 509
#     4  12  26  50  81 119 166 221 276 349 427 511
#
# _framework density 24.01576
#
# number of rings (size 3 to 8) (size 9 to 14) (size 15 to 20)
#    0.000    0.727    3.636    2.727    2.545    5.818 
#   13.091    0.000    0.000    0.000    0.000    0.000 
#    0.000    0.000    0.000    0.000    0.000    0.000 
#
# Total GULP energy -122602.393692 kJ/mol
# GULP energy per Si atom -5572.836077 kJ/mol
# Density = 2.396110 g / cm^3
# Si number density = 24.015760 Si / 1000 Ang^3
#
#
#
# Elastic Constant Matrix: (Units=GPa)
#
#
# Indices 1 2 3 4 5 6 
#
# 1 112.2606 41.5440 45.8837 0.0000 0.0000 0.0000
# 2 41.5440 223.6941 67.6114 0.0000 0.0000 0.0000
# 3 45.8837 67.6114 182.4475 0.0000 0.0000 0.0000
# 4 0.0000 0.0000 0.0000 18.0692 0.0000 0.0000
# 5 0.0000 0.0000 0.0000 0.0000 38.7596 0.0000
# 6 0.0000 0.0000 0.0000 0.0000 0.0000 13.0052
#
#
#
# Elastic Compliance Matrix: (Units=1/GPa)
#
#
# Indices 1 2 3 4 5 6 
#
# 1 0.010237 -0.001265 -0.002106 0.000000 0.000000 0.000000
# 2 -0.001265 0.005191 -0.001605 0.000000 0.000000 0.000000
# 3 -0.002106 -0.001605 0.006606 0.000000 0.000000 0.000000
# 4 0.000000 0.000000 0.000000 0.055343 0.000000 0.000000
# 5 0.000000 0.000000 0.000000 0.000000 0.025800 0.000000
# 6 0.000000 0.000000 0.000000 0.000000 0.000000 0.076893
#
#
# Mechanical properties :
#
#
# Convention : Reuss Voigt Hill
#
# Bulk Modulus (GPa) = 82.77520 92.05336 87.41428
# Shear Modulus (GPa) = 25.76702 38.19100 31.97901
#
# Velocity S-wave (km/s) = 3.27910 3.99212 3.65305
# Velocity P-wave (km/s) = 6.99132 7.72418 7.36687
#
# Compressibility (1/GPa) = 0.01208091
#
# Stress axis : x y z
#
# Youngs Moduli (GPa) = 97.68949 192.65945 151.38800
#
# Poissons Ratio (x) = 0.24365 0.31878
# Poissons Ratio (y) = 0.12354 0.24305
# Poissons Ratio (z) = 0.20571 0.30930
#
# Static dielectric constant tensor:
#      x y z
#    x 2.035370 0.000000 0.000000 
#    y 0.000000 1.903650 0.000000 
#    z 0.000000 0.000000 2.020580 
# 
# From -- ./inp_files/24901.got.cif
#   From: 2010.05.17/outbox.cif.g08.bks.cpg/sg70_13_cif.got.tgz:24901.got - 2010.06.03 15:57:51.
