data_PCOD9516027
_publ_section_title
;
Structure prediction by ZEFSAII (Michael W. Deem and Ramdas Pophale) SiO2 
 PCOD9516027
Probable space group: F D D D
;
_chemical_formula_sum "Si O2"
_cell_formula_units_Z 216
_cell_length_a 29.868659
_cell_length_b 12.378655
_cell_length_c 27.943520
_cell_angle_alpha 90.000000
_cell_angle_beta 90.000000
_cell_angle_gamma 90.000000
_cell_volume 10331.664536
_symmetry_space_group_name_H-M "F D D D"
_symmetry_group_IT_number 70
_space_group.IT_coordinate_system_code '2'
_symmetry_cell_setting 'orthorhombic'
loop_
_space_group_symop_operation_xyz
x,y,z
1/4-x,1/4-y,z
x,1/4-y,1/4-z
1/4-x,y,1/4-z
-x,-y,-z
3/4+x,3/4+y,-z
-x,3/4+y,3/4+z
3/4+x,-y,3/4+z
x,1/2+y,1/2+z
1/4-x,3/4-y,1/2+z
x,3/4-y,3/4-z
1/4-x,1/2+y,3/4-z
-x,1/2-y,1/2-z
3/4+x,1/4+y,1/2-z
-x,1/4+y,1/4+z
3/4+x,1/2-y,1/4+z
1/2+x,y,1/2+z
3/4-x,1/4-y,1/2+z
1/2+x,1/4-y,3/4-z
3/4-x,y,3/4-z
1/2-x,-y,1/2-z
1/4+x,3/4+y,1/2-z
1/2-x,3/4+y,1/4+z
1/4+x,-y,1/4+z
1/2+x,1/2+y,z
3/4-x,3/4-y,z
1/2+x,3/4-y,1/4-z
3/4-x,1/2+y,1/4-z
1/2-x,1/2-y,-z
1/4+x,1/4+y,-z
1/2-x,1/4+y,3/4+z
1/4+x,1/2-y,3/4+z
loop_
_atom_site_type_symbol
_atom_site_label
_atom_site_fract_x
_atom_site_fract_y
_atom_site_fract_z
Si Si1 0.875000 0.875000 0.468703
Si Si2 0.323542 0.371353 0.722376
Si Si3 0.449007 0.111948 0.241319
Si Si4 0.699056 0.244422 0.561616
Si Si5 0.457471 0.251173 0.634057
Si Si6 0.373359 0.604199 0.431315
Si Si7 0.625000 0.125000 0.625000
Si Si8 0.545602 0.645971 0.789211
O O1 0.868019 0.771756 0.436638
O O2 0.916993 0.853681 0.502875
O O3 0.375000 0.375000 0.738802
O O4 0.306491 0.249920 0.712816
O O5 0.293330 0.424040 0.764216
O O6 0.321458 0.446802 0.676187
O O7 0.411828 0.099476 0.283684
O O8 0.444587 0.223535 0.210845
O O9 0.496804 0.124907 0.266864
O O10 0.741845 0.254785 0.595175
O O11 0.675187 0.357959 0.549635
O O12 0.659323 0.186120 0.590430
O O13 0.446796 0.125000 0.625000
O O14 0.452406 0.328426 0.588105
O O15 0.375000 0.628600 0.375000
#
# Coordination Sequence:
#
# PCOD9516027 Si02
#       8
#    16  32  32  32  32  32   8  32
#     4  10  25  40  65  92 132 183 222 277 328 412
#     4  12  26  45  69 101 138 185 233 292 353 418
#     4  10  22  46  68  96 138 175 229 282 347 417
#     4  12  23  41  68 103 135 171 225 293 361 407
#     4  12  28  43  67 101 139 182 236 288 346 423
#     4  11  21  38  66  99 132 170 219 283 346 407
#     4  12  20  40  70  98 136 170 212 292 360 410
#     4  10  24  44  68  95 134 185 225 277 343 412
#
# _framework density 20.906603
#
# number of rings (size 3 to 8) (size 9 to 14) (size 15 to 20)
#    0.000    0.889    3.704    2.444    5.185    0.593 
#    0.000    0.000    0.000    0.000    0.000    0.000 
#    0.000    0.000    0.000    0.000    0.000    0.000 
#
# Total GULP energy -301466.048361 kJ/mol
# GULP energy per Si atom -5582.704599 kJ/mol
# Density = 2.085902 g / cm^3
# Si number density = 20.906603 Si / 1000 Ang^3
#
#
#
# Elastic Constant Matrix: (Units=GPa)
#
#
# Indices 1 2 3 4 5 6 
#
# 1 37.7110 38.3405 11.6004 0.0000 0.0000 0.0000
# 2 38.3405 110.0775 70.5510 0.0000 0.0000 0.0000
# 3 11.6004 70.5510 107.5250 0.0000 0.0000 0.0000
# 4 0.0000 0.0000 0.0000 21.8102 0.0000 0.0000
# 5 0.0000 0.0000 0.0000 0.0000 38.9171 0.0000
# 6 0.0000 0.0000 0.0000 0.0000 0.0000 31.1881
#
#
#
# Elastic Compliance Matrix: (Units=1/GPa)
#
#
# Indices 1 2 3 4 5 6 
#
# 1 0.046177 -0.022246 0.009614 0.000000 0.000000 0.000000
# 2 -0.022246 0.026394 -0.014918 0.000000 0.000000 0.000000
# 3 0.009614 -0.014918 0.018051 0.000000 0.000000 0.000000
# 4 0.000000 0.000000 0.000000 0.045850 0.000000 0.000000
# 5 0.000000 0.000000 0.000000 0.000000 0.025696 0.000000
# 6 0.000000 0.000000 0.000000 0.000000 0.000000 0.032064
#
#
# Mechanical properties :
#
#
# Convention : Reuss Voigt Hill
#
# Bulk Modulus (GPa) = 28.15039 55.14415 41.64727
# Shear Modulus (GPa) = 19.14446 27.37119 23.25783
#
# Velocity S-wave (km/s) = 3.02936 3.62223 3.33898
# Velocity P-wave (km/s) = 5.07248 6.62780 5.90160
#
# Compressibility (1/GPa) = 0.03552348
#
# Stress axis : x y z
#
# Youngs Moduli (GPa) = 21.65574 37.88706 55.39775
#
# Poissons Ratio (x) = 0.84283 -0.53262
# Poissons Ratio (y) = 0.48175 0.82644
# Poissons Ratio (z) = -0.20821 0.56521
#
# Static dielectric constant tensor:
#      x y z
#    x 1.746530 0.000000 0.000000 
#    y 0.000000 1.834550 0.000000 
#    z 0.000000 0.000000 1.738190 
# 
# From -- ./inp_files/69034.got.cif
#   From: 2010.05.17/outbox.cif.g08.bks.cpg/sg70_35_cif.got.tgz:69034.got - 2010.06.03 15:57:51.
