data_PCOD9516828
_publ_section_title
;
Structure prediction by ZEFSAII (Michael W. Deem and Ramdas Pophale) SiO2 
 PCOD9516828
Probable space group: F D D D
;
_chemical_formula_sum "Si O2"
_cell_formula_units_Z 160
_cell_length_a 28.156515
_cell_length_b 24.472732
_cell_length_c 9.175182
_cell_angle_alpha 90.000000
_cell_angle_beta 90.000000
_cell_angle_gamma 90.000000
_cell_volume 6322.313719
_symmetry_space_group_name_H-M "F D D D"
_symmetry_group_IT_number 70
_space_group.IT_coordinate_system_code '2'
_symmetry_cell_setting 'orthorhombic'
loop_
_space_group_symop_operation_xyz
x,y,z
1/4-x,1/4-y,z
x,1/4-y,1/4-z
1/4-x,y,1/4-z
-x,-y,-z
3/4+x,3/4+y,-z
-x,3/4+y,3/4+z
3/4+x,-y,3/4+z
x,1/2+y,1/2+z
1/4-x,3/4-y,1/2+z
x,3/4-y,3/4-z
1/4-x,1/2+y,3/4-z
-x,1/2-y,1/2-z
3/4+x,1/4+y,1/2-z
-x,1/4+y,1/4+z
3/4+x,1/2-y,1/4+z
1/2+x,y,1/2+z
3/4-x,1/4-y,1/2+z
1/2+x,1/4-y,3/4-z
3/4-x,y,3/4-z
1/2-x,-y,1/2-z
1/4+x,3/4+y,1/2-z
1/2-x,3/4+y,1/4+z
1/4+x,-y,1/4+z
1/2+x,1/2+y,z
3/4-x,3/4-y,z
1/2+x,3/4-y,1/4-z
3/4-x,1/2+y,1/4-z
1/2-x,1/2-y,-z
1/4+x,1/4+y,-z
1/2-x,1/4+y,3/4+z
1/4+x,1/2-y,3/4+z
loop_
_atom_site_type_symbol
_atom_site_label
_atom_site_fract_x
_atom_site_fract_y
_atom_site_fract_z
Si Si1 0.125000 0.808302 0.625000
Si Si2 0.042023 0.811990 0.820898
Si Si3 0.010445 0.563836 0.001175
Si Si4 0.581066 0.530796 0.732862
Si Si5 0.557411 0.145316 0.779661
Si Si6 0.575797 0.875000 0.875000
O O1 0.075504 0.787428 0.691908
O O2 0.107008 0.839743 0.482433
O O3 0.050439 0.875000 0.875000
O O4 0.988843 0.816698 0.757021
O O5 0.055170 0.773255 0.956851
O O6 0.037194 0.593020 0.868650
O O7 0.043426 0.567020 0.144108
O O8 0.000000 0.500000 0.000000
O O9 0.959667 0.591074 0.024153
O O10 0.625000 0.518986 0.625000
O O11 0.592998 0.569050 0.871582
O O12 0.575080 0.125000 0.625000
#
# Coordination Sequence:
#
# PCOD9516828 Si02
#       6
#    16  32  32  32  32  16
#     4  12  24  40  76 104 163 177 254 326 404 436
#     4  11  24  42  77 116 155 192 256 330 397 453
#     4  12  25  47  77 107 153 207 258 312 398 465
#     4  12  28  49  77 110 154 212 266 312 388 484
#     4  11  24  50  78 110 152 202 258 327 390 463
#     4  12  26  46  69 118 148 202 243 332 384 472
#
# _framework density 25.307191
#
# number of rings (size 3 to 8) (size 9 to 14) (size 15 to 20)
#    0.000    0.400    5.000    3.000    4.200    3.200 
#    0.000    1.000    0.000    0.000    0.000    0.000 
#    0.000    0.000    0.000    0.000    0.000    0.000 
#
# Total GULP energy -223752.984866 kJ/mol
# GULP energy per Si atom -5593.824622 kJ/mol
# Density = 2.524959 g / cm^3
# Si number density = 25.307191 Si / 1000 Ang^3
#
#
#
# Elastic Constant Matrix: (Units=GPa)
#
#
# Indices 1 2 3 4 5 6 
#
# 1 111.3804 13.9441 26.3628 0.0004 -0.0003 -0.0001
# 2 13.9441 139.2199 45.4633 0.0015 -0.0009 -0.0006
# 3 26.3628 45.4633 162.5596 0.0043 -0.0030 -0.0021
# 4 0.0004 0.0015 0.0043 59.9979 -0.0017 -0.0011
# 5 -0.0003 -0.0009 -0.0030 -0.0017 50.9187 0.0008
# 6 -0.0001 -0.0006 -0.0021 -0.0011 0.0008 25.6870
#
#
#
# Elastic Compliance Matrix: (Units=1/GPa)
#
#
# Indices 1 2 3 4 5 6 
#
# 1 0.009366 -0.000487 -0.001383 0.000000 0.000000 0.000000
# 2 -0.000487 0.007930 -0.002139 0.000000 0.000000 0.000000
# 3 -0.001383 -0.002139 0.006974 0.000000 0.000000 0.000001
# 4 0.000000 0.000000 0.000000 0.016667 0.000001 0.000001
# 5 0.000000 0.000000 0.000000 0.000001 0.019639 -0.000001
# 6 0.000000 0.000000 0.000001 0.000001 -0.000001 0.038930
#
#
# Mechanical properties :
#
#
# Convention : Reuss Voigt Hill
#
# Bulk Modulus (GPa) = 61.52377 64.96670 63.24524
# Shear Modulus (GPa) = 44.27054 49.14671 46.70862
#
# Velocity S-wave (km/s) = 4.18703 4.41160 4.30078
# Velocity P-wave (km/s) = 6.90931 7.18864 7.05036
#
# Compressibility (1/GPa) = 0.01625388
#
# Stress axis : x y z
#
# Youngs Moduli (GPa) = 106.76376 126.10196 143.38857
#
# Poissons Ratio (x) = 0.06135 0.19830
# Poissons Ratio (y) = 0.05194 0.30670
# Poissons Ratio (z) = 0.14765 0.26972
#
# Static dielectric constant tensor:
#      x y z
#    x 1.972010 0.000000 0.000000 
#    y 0.000000 2.030520 0.000000 
#    z 0.000000 0.000000 2.014010 
# 
# From -- ./inp_files/12354.got.cif
#   From: 2010.05.17/outbox.cif.g08.bks.cpg/sg70_7_cif.got.tgz:12354.got - 2010.06.03 15:57:51.
