data_PCOD9516172
_publ_section_title
;
Structure prediction by ZEFSAII (Michael W. Deem and Ramdas Pophale) SiO2 
 PCOD9516172
Probable space group: F D D D
;
_chemical_formula_sum "Si O2"
_cell_formula_units_Z 192
_cell_length_a 11.914832
_cell_length_b 31.845793
_cell_length_c 26.352997
_cell_angle_alpha 90.000000
_cell_angle_beta 90.000000
_cell_angle_gamma 90.000000
_cell_volume 9999.309330
_symmetry_space_group_name_H-M "F D D D"
_symmetry_group_IT_number 70
_space_group.IT_coordinate_system_code '2'
_symmetry_cell_setting 'orthorhombic'
loop_
_space_group_symop_operation_xyz
x,y,z
1/4-x,1/4-y,z
x,1/4-y,1/4-z
1/4-x,y,1/4-z
-x,-y,-z
3/4+x,3/4+y,-z
-x,3/4+y,3/4+z
3/4+x,-y,3/4+z
x,1/2+y,1/2+z
1/4-x,3/4-y,1/2+z
x,3/4-y,3/4-z
1/4-x,1/2+y,3/4-z
-x,1/2-y,1/2-z
3/4+x,1/4+y,1/2-z
-x,1/4+y,1/4+z
3/4+x,1/2-y,1/4+z
1/2+x,y,1/2+z
3/4-x,1/4-y,1/2+z
1/2+x,1/4-y,3/4-z
3/4-x,y,3/4-z
1/2-x,-y,1/2-z
1/4+x,3/4+y,1/2-z
1/2-x,3/4+y,1/4+z
1/4+x,-y,1/4+z
1/2+x,1/2+y,z
3/4-x,3/4-y,z
1/2+x,3/4-y,1/4-z
3/4-x,1/2+y,1/4-z
1/2-x,1/2-y,-z
1/4+x,1/4+y,-z
1/2-x,1/4+y,3/4+z
1/4+x,1/2-y,3/4+z
loop_
_atom_site_type_symbol
_atom_site_label
_atom_site_fract_x
_atom_site_fract_y
_atom_site_fract_z
Si Si1 0.636356 0.990570 0.350632
Si Si2 0.268927 0.555479 0.941612
Si Si3 0.803629 0.146707 0.673143
Si Si4 0.125000 0.125000 0.992490
Si Si5 0.875000 0.276622 0.875000
Si Si6 0.726441 0.054546 0.830837
Si Si7 0.727839 0.656181 0.700832
O O1 0.597363 0.942907 0.341951
O O2 0.770572 0.996485 0.348152
O O3 0.566969 0.016694 0.308826
O O4 0.592302 0.012584 0.403093
O O5 0.399522 0.542505 0.938770
O O6 0.243269 0.576132 0.886536
O O7 0.246508 0.582046 0.990931
O O8 0.746317 0.125000 0.625000
O O9 0.722513 0.143614 0.721422
O O10 0.911525 0.117612 0.683146
O O11 0.170594 0.163012 0.957545
O O12 0.807496 0.304698 0.834088
O O13 0.625000 0.625000 0.695666
#
# Coordination Sequence:
#
# PCOD9516172 Si02
#       7
#    32  32  32  16  16  32  32
#     4  10  23  44  68 100 141 175 230 286 343 416
#     4   9  22  44  69  93 135 181 222 277 355 406
#     4  12  24  44  67 105 137 183 231 285 343 420
#     4  12  25  42  74 104 136 181 242 288 342 418
#     4  12  23  42  68  96 140 182 236 278 344 414
#     4   9  22  47  66  98 138 178 228 286 345 412
#     4  12  22  42  70  95 135 185 225 286 343 404
#
# _framework density 19.201326999999999
#
# number of rings (size 3 to 8) (size 9 to 14) (size 15 to 20)
#    1.000    0.333    5.000    0.500    1.167    4.667 
#    3.000    4.167    0.000    0.000    0.000    0.000 
#    0.000    0.000    0.000    0.000    0.000    0.000 
#
# Total GULP energy -267388.612347 kJ/mol
# GULP energy per Si atom -5570.596091 kJ/mol
# Density = 1.915762 g / cm^3
# Si number density = 19.201327 Si / 1000 Ang^3
#
#
#
# Elastic Constant Matrix: (Units=GPa)
#
#
# Indices 1 2 3 4 5 6 
#
# 1 163.0653 46.0653 43.7239 0.0000 0.0000 0.0000
# 2 46.0653 55.5462 28.9441 0.0000 0.0000 0.0000
# 3 43.7239 28.9441 93.4061 0.0000 0.0000 0.0000
# 4 0.0000 0.0000 0.0000 9.8284 0.0000 0.0000
# 5 0.0000 0.0000 0.0000 0.0000 28.9590 0.0000
# 6 0.0000 0.0000 0.0000 0.0000 0.0000 -2.7789
#
#
#
# Elastic Compliance Matrix: (Units=1/GPa)
#
#
# Indices 1 2 3 4 5 6 
#
# 1 0.008340 -0.005823 -0.002100 0.000000 0.000000 0.000000
# 2 -0.005823 0.025535 -0.005187 0.000000 0.000000 0.000000
# 3 -0.002100 -0.005187 0.013296 0.000000 0.000000 0.000000
# 4 0.000000 0.000000 0.000000 0.101746 0.000000 0.000000
# 5 0.000000 0.000000 0.000000 0.000000 0.034532 0.000000
# 6 0.000000 0.000000 0.000000 0.000000 0.000000 -0.359849
#
#
# Mechanical properties :
#
#
# Convention : Reuss Voigt Hill
#
# Bulk Modulus (GPa) = 47.72733 61.05381 54.39057
# Shear Modulus (GPa) = -34.91714 20.08730 -7.41492
#
# Velocity S-wave (km/s) = -4.26898 3.23792 -1.96725
# Velocity P-wave (km/s) = 0.78183 6.77086 4.81953
#
# Compressibility (1/GPa) = 0.02095236
#
# Stress axis : x y z
#
# Youngs Moduli (GPa) = 119.89760 39.16250 75.20936
#
# Poissons Ratio (x) = 0.22803 0.15793
# Poissons Ratio (y) = 0.69812 0.39010
# Poissons Ratio (z) = 0.25178 0.20313
#
# Static dielectric constant tensor:
#      x y z
#    x 1.757460 0.000000 0.000000 
#    y 0.000000 1.625430 0.000000 
#    z 0.000000 0.000000 2.709480 
# 
# From -- ./inp_files/65124.got.cif
#   From: 2010.05.17/outbox.cif.g08.bks.cpg/sg70_33_cif.got.tgz:65124.got - 2010.06.03 15:57:51.
