data_PCOD9516612
_publ_section_title
;
Structure prediction by ZEFSAII (Michael W. Deem and Ramdas Pophale) SiO2 
 PCOD9516612
Probable space group: F D D D
;
_chemical_formula_sum "Si O2"
_cell_formula_units_Z 128
_cell_length_a 26.764363
_cell_length_b 28.935476
_cell_length_c 8.519175
_cell_angle_alpha 90.000000
_cell_angle_beta 90.000000
_cell_angle_gamma 90.000000
_cell_volume 6597.586337
_symmetry_space_group_name_H-M "F D D D"
_symmetry_group_IT_number 70
_space_group.IT_coordinate_system_code '2'
_symmetry_cell_setting 'orthorhombic'
loop_
_space_group_symop_operation_xyz
x,y,z
1/4-x,1/4-y,z
x,1/4-y,1/4-z
1/4-x,y,1/4-z
-x,-y,-z
3/4+x,3/4+y,-z
-x,3/4+y,3/4+z
3/4+x,-y,3/4+z
x,1/2+y,1/2+z
1/4-x,3/4-y,1/2+z
x,3/4-y,3/4-z
1/4-x,1/2+y,3/4-z
-x,1/2-y,1/2-z
3/4+x,1/4+y,1/2-z
-x,1/4+y,1/4+z
3/4+x,1/2-y,1/4+z
1/2+x,y,1/2+z
3/4-x,1/4-y,1/2+z
1/2+x,1/4-y,3/4-z
3/4-x,y,3/4-z
1/2-x,-y,1/2-z
1/4+x,3/4+y,1/2-z
1/2-x,3/4+y,1/4+z
1/4+x,-y,1/4+z
1/2+x,1/2+y,z
3/4-x,3/4-y,z
1/2+x,3/4-y,1/4-z
3/4-x,1/2+y,1/4-z
1/2-x,1/2-y,-z
1/4+x,1/4+y,-z
1/2-x,1/4+y,3/4+z
1/4+x,1/2-y,3/4+z
loop_
_atom_site_type_symbol
_atom_site_label
_atom_site_fract_x
_atom_site_fract_y
_atom_site_fract_z
Si Si1 0.197783 0.071604 0.576678
Si Si2 0.900039 0.303869 0.613862
Si Si3 0.482819 0.049939 0.435797
Si Si4 0.875000 0.223692 0.375000
Si Si5 0.203051 0.125000 0.125000
O O1 0.200354 0.125000 0.625000
O O2 0.152082 0.066268 0.451961
O O3 0.186500 0.046203 0.739264
O O4 0.246816 0.054678 0.490396
O O5 0.892694 0.258386 0.511817
O O6 0.920833 0.343734 0.497035
O O7 0.511648 0.089268 0.532510
O O8 0.500000 0.000000 0.500000
O O9 0.423182 0.053663 0.435415
#
# Coordination Sequence:
#
# PCOD9516612 Si02
#       5
#    32  32  32  16  16
#     4  11  23  38  67 106 132 163 224 291 346 400
#     4  11  22  37  71 102 127 169 224 292 340 401
#     4  12  25  46  68 100 137 181 229 281 353 419
#     4  12  26  45  68  96 140 180 228 284 343 426
#     4  12  24  43  70  98 136 184 226 285 348 418
#
# _framework density 19.401036000000001
#
# number of rings (size 3 to 8) (size 9 to 14) (size 15 to 20)
#    0.000    0.500    7.500    1.500    3.500    2.000 
#    2.250    0.000    0.000    0.000    0.000    0.000 
#    0.000    0.000    0.000    0.000    0.000    0.000 
#
# Total GULP energy -178884.482337 kJ/mol
# GULP energy per Si atom -5590.140073 kJ/mol
# Density = 1.935688 g / cm^3
# Si number density = 19.401036 Si / 1000 Ang^3
#
#
#
# Elastic Constant Matrix: (Units=GPa)
#
#
# Indices 1 2 3 4 5 6 
#
# 1 108.9706 27.7639 43.4207 -0.0008 0.0031 -0.0068
# 2 27.7639 52.1636 28.7234 -0.0050 0.0057 -0.0147
# 3 43.4207 28.7234 121.2040 -0.0167 0.0148 -0.0311
# 4 -0.0008 -0.0050 -0.0167 34.6058 0.0101 -0.0234
# 5 0.0031 0.0057 0.0148 0.0101 35.8703 0.0205
# 6 -0.0068 -0.0147 -0.0311 -0.0234 0.0205 12.8202
#
#
#
# Elastic Compliance Matrix: (Units=1/GPa)
#
#
# Indices 1 2 3 4 5 6 
#
# 1 0.011536 -0.004444 -0.003080 -0.000002 0.000001 -0.000006
# 2 -0.004444 0.023760 -0.004038 0.000001 -0.000002 0.000015
# 3 -0.003080 -0.004038 0.010311 0.000004 -0.000003 0.000019
# 4 -0.000002 0.000001 0.000004 0.028897 -0.000008 0.000053
# 5 0.000001 -0.000002 -0.000003 -0.000008 0.027878 -0.000045
# 6 -0.000006 0.000015 0.000019 0.000053 -0.000045 0.078002
#
#
# Mechanical properties :
#
#
# Convention : Reuss Voigt Hill
#
# Bulk Modulus (GPa) = 44.48012 53.57269 49.02641
# Shear Modulus (GPa) = 23.69637 28.82127 26.25882
#
# Velocity S-wave (km/s) = 3.49864 3.85847 3.68295
# Velocity P-wave (km/s) = 6.26874 6.89374 6.58865
#
# Compressibility (1/GPa) = 0.02248195
#
# Stress axis : x y z
#
# Youngs Moduli (GPa) = 86.68341 42.08799 96.98527
#
# Poissons Ratio (x) = 0.18706 0.29867
# Poissons Ratio (y) = 0.38526 0.39167
# Poissons Ratio (z) = 0.26695 0.16997
#
# Static dielectric constant tensor:
#      x y z
#    x 1.709890 0.000000 0.000000 
#    y 0.000000 1.657880 0.000000 
#    z 0.000000 0.000000 1.703690 
# 
# From -- ./inp_files/11065.got.cif
#   From: 2010.05.17/outbox.cif.g08.bks.cpg/sg70_6_cif.got.tgz:11065.got - 2010.06.03 15:57:51.
