data_PCOD9516884
_publ_section_title
;
Structure prediction by ZEFSAII (Michael W. Deem and Ramdas Pophale) SiO2 
 PCOD9516884
Probable space group: F D D D
;
_chemical_formula_sum "Si O2"
_cell_formula_units_Z 176
_cell_length_a 18.785207
_cell_length_b 15.819427
_cell_length_c 26.496553
_cell_angle_alpha 90.000000
_cell_angle_beta 90.000000
_cell_angle_gamma 90.000000
_cell_volume 7874.012737
_symmetry_space_group_name_H-M "F D D D"
_symmetry_group_IT_number 70
_space_group.IT_coordinate_system_code '2'
_symmetry_cell_setting 'orthorhombic'
loop_
_space_group_symop_operation_xyz
x,y,z
1/4-x,1/4-y,z
x,1/4-y,1/4-z
1/4-x,y,1/4-z
-x,-y,-z
3/4+x,3/4+y,-z
-x,3/4+y,3/4+z
3/4+x,-y,3/4+z
x,1/2+y,1/2+z
1/4-x,3/4-y,1/2+z
x,3/4-y,3/4-z
1/4-x,1/2+y,3/4-z
-x,1/2-y,1/2-z
3/4+x,1/4+y,1/2-z
-x,1/4+y,1/4+z
3/4+x,1/2-y,1/4+z
1/2+x,y,1/2+z
3/4-x,1/4-y,1/2+z
1/2+x,1/4-y,3/4-z
3/4-x,y,3/4-z
1/2-x,-y,1/2-z
1/4+x,3/4+y,1/2-z
1/2-x,3/4+y,1/4+z
1/4+x,-y,1/4+z
1/2+x,1/2+y,z
3/4-x,3/4-y,z
1/2+x,3/4-y,1/4-z
3/4-x,1/2+y,1/4-z
1/2-x,1/2-y,-z
1/4+x,1/4+y,-z
1/2-x,1/4+y,3/4+z
1/4+x,1/2-y,3/4+z
loop_
_atom_site_type_symbol
_atom_site_label
_atom_site_fract_x
_atom_site_fract_y
_atom_site_fract_z
Si Si1 0.375000 0.875000 0.784036
Si Si2 0.448135 0.928951 0.243073
Si Si3 0.721690 0.331291 0.925303
Si Si4 0.703384 0.159868 0.874286
Si Si5 0.422401 0.692240 0.417079
Si Si6 0.393008 0.180879 0.491188
O O1 0.448100 0.859629 0.813900
O O2 0.359356 0.783728 0.757931
O O3 0.375000 0.875000 0.246535
O O4 0.457272 0.946187 0.182865
O O5 0.528459 0.896104 0.255067
O O6 0.437477 0.002399 0.283842
O O7 0.694106 0.375000 0.875000
O O8 0.721606 0.232294 0.913878
O O9 0.667970 0.347686 0.970436
O O10 0.625000 0.125000 0.881673
O O11 0.757401 0.085555 0.887548
O O12 0.375000 0.738118 0.375000
O O13 0.379686 0.609333 0.437442
#
# Coordination Sequence:
#
# PCOD9516884 Si02
#       6
#    16  32  32  32  32  32
#     4  12  25  42  74 110 154 190 242 310 383 462
#     4  11  27  50  73 103 148 196 262 314 361 447
#     4  12  26  42  71 111 150 190 243 308 386 453
#     4  11  24  47  75 107 147 199 243 311 378 452
#     4  12  25  47  74 106 145 200 248 305 389 443
#     4  12  25  46  72 108 152 193 246 313 378 461
#
# _framework density 22.352008000000001
#
# number of rings (size 3 to 8) (size 9 to 14) (size 15 to 20)
#    0.000    0.364    3.636    5.182    3.818    1.091 
#    6.545    0.000    0.000    0.000    0.000    0.000 
#    0.000    0.000    0.000    0.000    0.000    0.000 
#
# Total GULP energy -245797.828964 kJ/mol
# GULP energy per Si atom -5586.314295 kJ/mol
# Density = 2.230113 g / cm^3
# Si number density = 22.352008 Si / 1000 Ang^3
#
#
#
# Elastic Constant Matrix: (Units=GPa)
#
#
# Indices 1 2 3 4 5 6 
#
# 1 177.3279 33.1113 73.2706 0.0000 0.0000 0.0000
# 2 33.1113 27.9695 38.5449 0.0000 0.0000 0.0000
# 3 73.2706 38.5449 129.9985 0.0000 0.0000 0.0000
# 4 0.0000 0.0000 0.0000 30.9851 0.0000 0.0000
# 5 0.0000 0.0000 0.0000 0.0000 861.5530 0.0000
# 6 0.0000 0.0000 0.0000 0.0000 0.0000 26.5316
#
#
#
# Elastic Compliance Matrix: (Units=1/GPa)
#
#
# Indices 1 2 3 4 5 6 
#
# 1 0.007801 -0.005370 -0.002805 0.000000 0.000000 0.000000
# 2 -0.005370 0.064153 -0.015995 0.000000 0.000000 0.000000
# 3 -0.002805 -0.015995 0.014016 0.000000 0.000000 0.000000
# 4 0.000000 0.000000 0.000000 0.032274 0.000000 0.000000
# 5 0.000000 0.000000 0.000000 0.000000 0.001161 0.000000
# 6 0.000000 0.000000 0.000000 0.000000 0.000000 0.037691
#
#
# Mechanical properties :
#
#
# Convention : Reuss Voigt Hill
#
# Bulk Modulus (GPa) = 26.57411 69.46104 48.01758
# Shear Modulus (GPa) = 22.93828 196.50524 109.72176
#
# Velocity S-wave (km/s) = 3.20696 9.38641 7.01389
# Velocity P-wave (km/s) = 5.06236 12.19083 9.33391
#
# Compressibility (1/GPa) = 0.03763061
#
# Stress axis : x y z
#
# Youngs Moduli (GPa) = 128.19262 15.58781 71.34896
#
# Poissons Ratio (x) = 0.08370 0.20010
# Poissons Ratio (y) = 0.68838 1.14122
# Poissons Ratio (z) = 0.35952 0.24932
#
# Static dielectric constant tensor:
#      x y z
#    x 1.806710 0.000000 0.000000 
#    y 0.000000 1.883050 0.000000 
#    z 0.000000 0.000000 1.813020 
# 
# From -- ./inp_files/59467.got.cif
#   From: 2010.05.17/outbox.cif.g08.bks.cpg/sg70_30_cif.got.tgz:59467.got - 2010.06.03 15:57:51.
