data_PCOD9516261
_publ_section_title
;
Structure prediction by ZEFSAII (Michael W. Deem and Ramdas Pophale) SiO2 
 PCOD9516261
Probable space group: F D D D
;
_chemical_formula_sum "Si O2"
_cell_formula_units_Z 176
_cell_length_a 30.536319
_cell_length_b 11.041221
_cell_length_c 23.934402
_cell_angle_alpha 90.000000
_cell_angle_beta 90.000000
_cell_angle_gamma 90.000000
_cell_volume 8069.681012
_symmetry_space_group_name_H-M "F D D D"
_symmetry_group_IT_number 70
_space_group.IT_coordinate_system_code '2'
_symmetry_cell_setting 'orthorhombic'
loop_
_space_group_symop_operation_xyz
x,y,z
1/4-x,1/4-y,z
x,1/4-y,1/4-z
1/4-x,y,1/4-z
-x,-y,-z
3/4+x,3/4+y,-z
-x,3/4+y,3/4+z
3/4+x,-y,3/4+z
x,1/2+y,1/2+z
1/4-x,3/4-y,1/2+z
x,3/4-y,3/4-z
1/4-x,1/2+y,3/4-z
-x,1/2-y,1/2-z
3/4+x,1/4+y,1/2-z
-x,1/4+y,1/4+z
3/4+x,1/2-y,1/4+z
1/2+x,y,1/2+z
3/4-x,1/4-y,1/2+z
1/2+x,1/4-y,3/4-z
3/4-x,y,3/4-z
1/2-x,-y,1/2-z
1/4+x,3/4+y,1/2-z
1/2-x,3/4+y,1/4+z
1/4+x,-y,1/4+z
1/2+x,1/2+y,z
3/4-x,3/4-y,z
1/2+x,3/4-y,1/4-z
3/4-x,1/2+y,1/4-z
1/2-x,1/2-y,-z
1/4+x,1/4+y,-z
1/2-x,1/4+y,3/4+z
1/4+x,1/2-y,3/4+z
loop_
_atom_site_type_symbol
_atom_site_label
_atom_site_fract_x
_atom_site_fract_y
_atom_site_fract_z
Si Si1 0.288004 0.232745 0.953340
Si Si2 0.994271 0.496348 0.148171
Si Si3 0.464009 0.328258 0.214419
Si Si4 0.875000 0.375000 0.970046
Si Si5 0.963697 0.252344 0.475198
Si Si6 0.376015 0.137821 0.937489
O O1 0.274328 0.124880 0.909711
O O2 0.294992 0.374441 0.941427
O O3 0.336026 0.191428 0.973321
O O4 0.250000 0.250000 0.000000
O O5 0.015929 0.625000 0.125000
O O6 0.961253 0.474300 0.097359
O O7 0.969261 0.500094 0.207276
O O8 0.500000 0.250000 0.250000
O O9 0.418228 0.347841 0.243770
O O10 0.488846 0.455203 0.207409
O O11 0.882704 0.254502 0.935585
O O12 0.923361 0.165383 0.461965
O O13 0.375000 0.189352 0.875000
#
# Coordination Sequence:
#
# PCOD9516261 Si02
#       6
#    32  32  32  16  32  32
#     4  10  24  42  67 101 135 182 232 292 361 442
#     4  11  22  42  71  96 136 189 228 293 373 429
#     4  12  24  44  71 101 140 185 236 305 366 447
#     4  12  25  44  66 108 138 178 245 300 358 444
#     4  11  24  46  67  98 145 179 233 302 366 442
#     4  12  25  41  71 101 137 182 238 296 369 436
#
# _framework density 21.810032
#
# number of rings (size 3 to 8) (size 9 to 14) (size 15 to 20)
#    0.000    0.727    3.636    4.091    0.000    3.636 
#    6.545    0.000    0.000    0.000    0.000    0.000 
#    0.000    0.000    0.000    0.000    0.000    0.000 
#
# Total GULP energy -245095.674008 kJ/mol
# GULP energy per Si atom -5570.356227 kJ/mol
# Density = 2.176039 g / cm^3
# Si number density = 21.810032 Si / 1000 Ang^3
#
#
#
# Elastic Constant Matrix: (Units=GPa)
#
#
# Indices 1 2 3 4 5 6 
#
# 1 131.5118 27.9868 30.2231 0.0000 0.0000 0.0000
# 2 27.9868 155.2805 16.6969 0.0000 0.0000 0.0000
# 3 30.2231 16.6969 113.9887 0.0000 0.0000 0.0000
# 4 0.0000 0.0000 0.0000 31.9535 0.0000 0.0000
# 5 0.0000 0.0000 0.0000 0.0000 21.1265 0.0000
# 6 0.0000 0.0000 0.0000 0.0000 0.0000 39.7819
#
#
#
# Elastic Compliance Matrix: (Units=1/GPa)
#
#
# Indices 1 2 3 4 5 6 
#
# 1 0.008343 -0.001286 -0.002024 0.000000 0.000000 0.000000
# 2 -0.001286 0.006741 -0.000646 0.000000 0.000000 0.000000
# 3 -0.002024 -0.000646 0.009404 0.000000 0.000000 0.000000
# 4 0.000000 0.000000 0.000000 0.031296 0.000000 0.000000
# 5 0.000000 0.000000 0.000000 0.000000 0.047334 0.000000
# 6 0.000000 0.000000 0.000000 0.000000 0.000000 0.025137
#
#
# Mechanical properties :
#
#
# Convention : Reuss Voigt Hill
#
# Bulk Modulus (GPa) = 60.32923 61.17717 60.75320
# Shear Modulus (GPa) = 35.28786 40.29732 37.79259
#
# Velocity S-wave (km/s) = 4.02676 4.30309 4.16722
# Velocity P-wave (km/s) = 7.02431 7.26634 7.14635
#
# Compressibility (1/GPa) = 0.01657571
#
# Stress axis : x y z
#
# Youngs Moduli (GPa) = 119.86668 148.34031 106.33739
#
# Poissons Ratio (x) = 0.19077 0.21518
# Poissons Ratio (y) = 0.15415 0.06874
# Poissons Ratio (z) = 0.24256 0.09590
#
# Static dielectric constant tensor:
#      x y z
#    x 1.767840 0.000000 0.000000 
#    y 0.000000 1.982180 0.000000 
#    z 0.000000 0.000000 1.853560 
# 
# From -- ./inp_files/54971.got.cif
#   From: 2010.05.17/outbox.cif.g08.bks.cpg/sg70_28_cif.got.tgz:54971.got - 2010.06.03 15:57:51.
