data_PCOD9516095
_publ_section_title
;
Structure prediction by ZEFSAII (Michael W. Deem and Ramdas Pophale) SiO2 
 PCOD9516095
Probable space group: F D D D
;
_chemical_formula_sum "Si O2"
_cell_formula_units_Z 136
_cell_length_a 21.721324
_cell_length_b 12.782619
_cell_length_c 21.959979
_cell_angle_alpha 90.000000
_cell_angle_beta 90.000000
_cell_angle_gamma 90.000000
_cell_volume 6097.306948
_symmetry_space_group_name_H-M "F D D D"
_symmetry_group_IT_number 70
_space_group.IT_coordinate_system_code '2'
_symmetry_cell_setting 'orthorhombic'
loop_
_space_group_symop_operation_xyz
x,y,z
1/4-x,1/4-y,z
x,1/4-y,1/4-z
1/4-x,y,1/4-z
-x,-y,-z
3/4+x,3/4+y,-z
-x,3/4+y,3/4+z
3/4+x,-y,3/4+z
x,1/2+y,1/2+z
1/4-x,3/4-y,1/2+z
x,3/4-y,3/4-z
1/4-x,1/2+y,3/4-z
-x,1/2-y,1/2-z
3/4+x,1/4+y,1/2-z
-x,1/4+y,1/4+z
3/4+x,1/2-y,1/4+z
1/2+x,y,1/2+z
3/4-x,1/4-y,1/2+z
1/2+x,1/4-y,3/4-z
3/4-x,y,3/4-z
1/2-x,-y,1/2-z
1/4+x,3/4+y,1/2-z
1/2-x,3/4+y,1/4+z
1/4+x,-y,1/4+z
1/2+x,1/2+y,z
3/4-x,3/4-y,z
1/2+x,3/4-y,1/4-z
3/4-x,1/2+y,1/4-z
1/2-x,1/2-y,-z
1/4+x,1/4+y,-z
1/2-x,1/4+y,3/4+z
1/4+x,1/2-y,3/4+z
loop_
_atom_site_type_symbol
_atom_site_label
_atom_site_fract_x
_atom_site_fract_y
_atom_site_fract_z
Si Si1 0.681562 0.769496 0.022761
Si Si2 0.080505 0.013651 0.741808
Si Si3 0.625000 0.625000 0.929379
Si Si4 0.875000 0.875000 0.875000
Si Si5 0.964692 0.875000 0.375000
Si Si6 0.045956 0.687794 0.319706
O O1 0.665544 0.702488 0.082761
O O2 0.676378 0.892952 0.022932
O O3 0.750000 0.750000 0.000000
O O4 0.636013 0.723752 0.971688
O O5 0.073240 0.064962 0.676076
O O6 0.030799 0.079395 0.783299
O O7 0.145114 0.023716 0.779199
O O8 0.568568 0.647552 0.885063
O O9 0.002786 0.785805 0.336352
#
# Coordination Sequence:
#
# PCOD9516095 Si02
#       6
#    32  32  16   8  16  32
#     4  11  23  41  64  91 127 170 213 264 323 384
#     4  10  24  40  64  94 124 168 220 261 318 387
#     4   9  20  41  62  89 126 167 210 266 322 381
#     4  10  28  44  62  98 132 166 222 270 320 394
#     4  12  22  41  65  92 132 174 207 265 330 378
#     4  10  23  41  62  93 128 164 214 269 314 381
#
# _framework density 22.304929999999999
#
# number of rings (size 3 to 8) (size 9 to 14) (size 15 to 20)
#    0.000    1.882    0.000    3.529    0.000   16.000 
#    0.000    0.000    0.000    0.000    0.000    0.000 
#    0.000    0.000    0.000    0.000    0.000    0.000 
#
# Total GULP energy -189594.816014 kJ/mol
# GULP energy per Si atom -5576.318118 kJ/mol
# Density = 2.225416 g / cm^3
# Si number density = 22.304930 Si / 1000 Ang^3
#
#
#
# Elastic Constant Matrix: (Units=GPa)
#
#
# Indices 1 2 3 4 5 6 
#
# 1 50.5429 60.6527 51.9071 0.0000 0.0000 0.0000
# 2 60.6527 256.8805 106.1142 0.0000 0.0000 0.0000
# 3 51.9071 106.1142 182.8659 0.0000 0.0000 0.0000
# 4 0.0000 0.0000 0.0000 21.1986 0.0000 0.0000
# 5 0.0000 0.0000 0.0000 0.0000 30.8812 0.0000
# 6 0.0000 0.0000 0.0000 0.0000 0.0000 13.5576
#
#
#
# Elastic Compliance Matrix: (Units=1/GPa)
#
#
# Indices 1 2 3 4 5 6 
#
# 1 0.032221 -0.005037 -0.006223 0.000000 0.000000 0.000000
# 2 -0.005037 0.005908 -0.001998 0.000000 0.000000 0.000000
# 3 -0.006223 -0.001998 0.008395 0.000000 0.000000 0.000000
# 4 0.000000 0.000000 0.000000 0.047173 0.000000 0.000000
# 5 0.000000 0.000000 0.000000 0.000000 0.032382 0.000000
# 6 0.000000 0.000000 0.000000 0.000000 0.000000 0.073759
#
#
# Mechanical properties :
#
#
# Convention : Reuss Voigt Hill
#
# Bulk Modulus (GPa) = 49.98481 103.07082 76.52781
# Shear Modulus (GPa) = 21.45710 31.23516 26.34613
#
# Velocity S-wave (km/s) = 3.10496 3.74621 3.44056
# Velocity P-wave (km/s) = 5.94246 8.06364 7.08291
#
# Compressibility (1/GPa) = 0.02000608
#
# Stress axis : x y z
#
# Youngs Moduli (GPa) = 31.03585 169.27176 119.12524
#
# Poissons Ratio (x) = 0.85263 0.74132
# Poissons Ratio (y) = 0.15633 0.23805
# Poissons Ratio (z) = 0.19314 0.33826
#
# Static dielectric constant tensor:
#      x y z
#    x 1.874830 0.000000 0.000000 
#    y 0.000000 2.003800 0.000000 
#    z 0.000000 0.000000 1.834400 
# 
# From -- ./inp_files/17714.got.cif
#   From: 2010.05.17/outbox.cif.g08.bks.cpg/sg70_9_cif.got.tgz:17714.got - 2010.06.03 15:57:51.
