data_PCOD9516605
_publ_section_title
;
Structure prediction by ZEFSAII (Michael W. Deem and Ramdas Pophale) SiO2 
 PCOD9516605
Probable space group: F D D D
;
_chemical_formula_sum "Si O2"
_cell_formula_units_Z 192
_cell_length_a 20.560215
_cell_length_b 21.182792
_cell_length_c 21.673547
_cell_angle_alpha 90.000000
_cell_angle_beta 90.000000
_cell_angle_gamma 90.000000
_cell_volume 9439.322961
_symmetry_space_group_name_H-M "F D D D"
_symmetry_group_IT_number 70
_space_group.IT_coordinate_system_code '2'
_symmetry_cell_setting 'orthorhombic'
loop_
_space_group_symop_operation_xyz
x,y,z
1/4-x,1/4-y,z
x,1/4-y,1/4-z
1/4-x,y,1/4-z
-x,-y,-z
3/4+x,3/4+y,-z
-x,3/4+y,3/4+z
3/4+x,-y,3/4+z
x,1/2+y,1/2+z
1/4-x,3/4-y,1/2+z
x,3/4-y,3/4-z
1/4-x,1/2+y,3/4-z
-x,1/2-y,1/2-z
3/4+x,1/4+y,1/2-z
-x,1/4+y,1/4+z
3/4+x,1/2-y,1/4+z
1/2+x,y,1/2+z
3/4-x,1/4-y,1/2+z
1/2+x,1/4-y,3/4-z
3/4-x,y,3/4-z
1/2-x,-y,1/2-z
1/4+x,3/4+y,1/2-z
1/2-x,3/4+y,1/4+z
1/4+x,-y,1/4+z
1/2+x,1/2+y,z
3/4-x,3/4-y,z
1/2+x,3/4-y,1/4-z
3/4-x,1/2+y,1/4-z
1/2-x,1/2-y,-z
1/4+x,1/4+y,-z
1/2-x,1/4+y,3/4+z
1/4+x,1/2-y,3/4+z
loop_
_atom_site_type_symbol
_atom_site_label
_atom_site_fract_x
_atom_site_fract_y
_atom_site_fract_z
Si Si1 0.721963 0.016409 0.456682
Si Si2 0.122488 0.955625 0.718561
Si Si3 0.569133 0.430861 0.406233
Si Si4 0.200789 0.612387 0.359274
Si Si5 0.923816 0.565938 0.322366
Si Si6 0.312348 0.328743 0.471097
O O1 0.799558 0.020012 0.461846
O O2 0.707690 0.085663 0.428748
O O3 0.700337 0.977558 0.396959
O O4 0.688246 0.982430 0.515599
O O5 0.137964 0.958795 0.790527
O O6 0.141132 0.884693 0.696813
O O7 0.168053 0.011196 0.692293
O O8 0.608488 0.375000 0.375000
O O9 0.503730 0.401602 0.437025
O O10 0.125000 0.625000 0.354527
O O11 0.255517 0.666019 0.350300
O O12 0.209214 0.574887 0.293210
O O13 0.875000 0.540382 0.375000
O O14 0.375000 0.375000 0.464850
#
# Coordination Sequence:
#
# PCOD9516605 Si02
#       6
#    32  32  32  32  32  32
#     4  12  25  41  69  96 131 184 231 289 355 415
#     4  12  23  39  63  94 134 179 221 280 344 416
#     4  12  22  37  58  94 134 169 229 275 335 423
#     4  11  22  41  66  97 140 182 227 287 346 413
#     4  12  25  45  69  99 135 183 234 286 353 421
#     4  11  22  36  57  92 140 182 217 272 343 410
#
# _framework density 20.340440999999998
#
# number of rings (size 3 to 8) (size 9 to 14) (size 15 to 20)
#    0.000    0.333    6.667    4.500    0.000    1.667 
#    0.000    1.667    3.667    0.000    0.000    0.000 
#    0.000    0.000    0.000    0.000    0.000    0.000 
#
# Total GULP energy -267346.343372 kJ/mol
# GULP energy per Si atom -5569.715487 kJ/mol
# Density = 2.029415 g / cm^3
# Si number density = 20.340441 Si / 1000 Ang^3
#
#
#
# Elastic Constant Matrix: (Units=GPa)
#
#
# Indices 1 2 3 4 5 6 
#
# 1 81.3955 -9.7282 45.6924 0.0000 0.0000 0.0000
# 2 -9.7282 17.6134 30.1977 0.0000 0.0000 0.0000
# 3 45.6924 30.1977 129.5222 0.0000 0.0000 0.0000
# 4 0.0000 0.0000 0.0000 23.7003 0.0000 0.0000
# 5 0.0000 0.0000 0.0000 0.0000 35.9323 0.0000
# 6 0.0000 0.0000 0.0000 0.0000 0.0000 20.5316
#
#
#
# Elastic Compliance Matrix: (Units=1/GPa)
#
#
# Indices 1 2 3 4 5 6 
#
# 1 0.038480 0.074176 -0.030869 0.000000 0.000000 0.000000
# 2 0.074176 0.237569 -0.081556 0.000000 0.000000 0.000000
# 3 -0.030869 -0.081556 0.037625 0.000000 0.000000 0.000000
# 4 0.000000 0.000000 0.000000 0.042194 0.000000 0.000000
# 5 0.000000 0.000000 0.000000 0.000000 0.027830 0.000000
# 6 0.000000 0.000000 0.000000 0.000000 0.000000 0.048705
#
#
# Mechanical properties :
#
#
# Convention : Reuss Voigt Hill
#
# Bulk Modulus (GPa) = 4.21626 40.09499 22.15562
# Shear Modulus (GPa) = 8.50399 26.85745 17.68072
#
# Velocity S-wave (km/s) = 2.04693 3.63767 2.95149
# Velocity P-wave (km/s) = 2.76837 6.11541 4.74669
#
# Compressibility (1/GPa) = 0.23717694
#
# Stress axis : x y z
#
# Youngs Moduli (GPa) = 25.98775 4.20930 26.57806
#
# Poissons Ratio (x) = -0.31223 0.82043
# Poissons Ratio (y) = -1.92768 2.16761
# Poissons Ratio (z) = 0.80221 0.34329
#
# Static dielectric constant tensor:
#      x y z
#    x 0.567500 0.000000 0.000000 
#    y 0.000000 1.898000 0.000000 
#    z 0.000000 0.000000 1.720270 
# 
# From -- ./inp_files/44966.got.cif
#   From: 2010.05.17/outbox.cif.g08.bks.cpg/sg70_23_cif.got.tgz:44966.got - 2010.06.03 15:57:51.
