data_PCOD9516473
_publ_section_title
;
Structure prediction by ZEFSAII (Michael W. Deem and Ramdas Pophale) SiO2 
 PCOD9516473
Probable space group: F D D D
;
_chemical_formula_sum "Si O2"
_cell_formula_units_Z 88
_cell_length_a 11.815956
_cell_length_b 20.362878
_cell_length_c 15.713938
_cell_angle_alpha 90.000000
_cell_angle_beta 90.000000
_cell_angle_gamma 90.000000
_cell_volume 3780.881445
_symmetry_space_group_name_H-M "F D D D"
_symmetry_group_IT_number 70
_space_group.IT_coordinate_system_code '2'
_symmetry_cell_setting 'orthorhombic'
loop_
_space_group_symop_operation_xyz
x,y,z
1/4-x,1/4-y,z
x,1/4-y,1/4-z
1/4-x,y,1/4-z
-x,-y,-z
3/4+x,3/4+y,-z
-x,3/4+y,3/4+z
3/4+x,-y,3/4+z
x,1/2+y,1/2+z
1/4-x,3/4-y,1/2+z
x,3/4-y,3/4-z
1/4-x,1/2+y,3/4-z
-x,1/2-y,1/2-z
3/4+x,1/4+y,1/2-z
-x,1/4+y,1/4+z
3/4+x,1/2-y,1/4+z
1/2+x,y,1/2+z
3/4-x,1/4-y,1/2+z
1/2+x,1/4-y,3/4-z
3/4-x,y,3/4-z
1/2-x,-y,1/2-z
1/4+x,3/4+y,1/2-z
1/2-x,3/4+y,1/4+z
1/4+x,-y,1/4+z
1/2+x,1/2+y,z
3/4-x,3/4-y,z
1/2+x,3/4-y,1/4-z
3/4-x,1/2+y,1/4-z
1/2-x,1/2-y,-z
1/4+x,1/4+y,-z
1/2-x,1/4+y,3/4+z
1/4+x,1/2-y,3/4+z
loop_
_atom_site_type_symbol
_atom_site_label
_atom_site_fract_x
_atom_site_fract_y
_atom_site_fract_z
Si Si1 0.457287 0.968576 0.587413
Si Si2 0.125000 0.625000 0.125000
Si Si3 0.375000 0.602561 0.375000
Si Si4 0.535995 0.750091 0.526187
O O1 0.521991 0.900179 0.600930
O O2 0.323131 0.972979 0.575933
O O3 0.500000 0.000000 0.500000
O O4 0.486006 0.003563 0.676211
O O5 0.060605 0.676865 0.062253
O O6 0.386989 0.550785 0.452251
#
# Coordination Sequence:
#
# PCOD9516473 Si02
#       4
#    32   8  16  32
#     4  12  25  47  75 111 151 199 250 312 381 459
#     4  10  28  48  76 110 142 198 252 318 380 452
#     4  11  26  47  70 109 152 199 250 310 380 451
#     4  11  27  45  79 107 153 197 250 315 381 459
#
# _framework density 23.274995000000001
#
# number of rings (size 3 to 8) (size 9 to 14) (size 15 to 20)
#    0.000    0.727    3.636    1.091   10.182    4.364 
#    0.000    3.636    0.000    0.000    0.000    0.000 
#    0.000    0.000    0.000    0.000    0.000    0.000 
#
# Total GULP energy -122729.236033 kJ/mol
# GULP energy per Si atom -5578.601638 kJ/mol
# Density = 2.322202 g / cm^3
# Si number density = 23.274995 Si / 1000 Ang^3
#
#
#
# Elastic Constant Matrix: (Units=GPa)
#
#
# Indices 1 2 3 4 5 6 
#
# 1 117.5861 79.1657 45.0298 0.0000 0.0000 0.0000
# 2 79.1657 190.9405 74.2709 0.0000 0.0000 0.0000
# 3 45.0298 74.2709 125.6562 0.0000 0.0000 0.0000
# 4 0.0000 0.0000 0.0000 -3.7410 0.0000 0.0000
# 5 0.0000 0.0000 0.0000 0.0000 46.2799 0.0000
# 6 0.0000 0.0000 0.0000 0.0000 0.0000 38.5303
#
#
#
# Elastic Compliance Matrix: (Units=1/GPa)
#
#
# Indices 1 2 3 4 5 6 
#
# 1 0.012096 -0.004323 -0.001780 0.000000 0.000000 0.000000
# 2 -0.004323 0.008346 -0.003384 0.000000 0.000000 0.000000
# 3 -0.001780 -0.003384 0.010596 0.000000 0.000000 0.000000
# 4 0.000000 0.000000 0.000000 -0.267308 0.000000 0.000000
# 5 0.000000 0.000000 0.000000 0.000000 0.021608 0.000000
# 6 0.000000 0.000000 0.000000 0.000000 0.000000 0.025954
#
#
# Mechanical properties :
#
#
# Convention : Reuss Voigt Hill
#
# Bulk Modulus (GPa) = 82.88169 92.34616 87.61393
# Shear Modulus (GPa) = -30.17247 31.92826 0.87789
#
# Velocity S-wave (km/s) = -3.60439 3.70778 0.61482
# Velocity P-wave (km/s) = 4.28543 7.62184 6.18293
#
# Compressibility (1/GPa) = 0.01206539
#
# Stress axis : x y z
#
# Youngs Moduli (GPa) = 82.66884 119.82089 94.37566
#
# Poissons Ratio (x) = 0.51799 0.16795
# Poissons Ratio (y) = 0.35738 0.31934
# Poissons Ratio (z) = 0.14712 0.40544
#
# Static dielectric constant tensor:
#      x y z
#    x 2.053810 0.000000 0.000000 
#    y 0.000000 1.863350 0.000000 
#    z 0.000000 0.000000 1.793510 
# 
# From -- ./inp_files/14792.got.cif
#   From: 2010.05.17/outbox.cif.g08.bks.cpg/sg70_8_cif.got.tgz:14792.got - 2010.06.03 15:57:51.
