data_PCOD9516433
_publ_section_title
;
Structure prediction by ZEFSAII (Michael W. Deem and Ramdas Pophale) SiO2 
 PCOD9516433
Probable space group: F D D D
;
_chemical_formula_sum "Si O2"
_cell_formula_units_Z 80
_cell_length_a 22.389600
_cell_length_b 18.453683
_cell_length_c 7.469762
_cell_angle_alpha 90.000000
_cell_angle_beta 90.000000
_cell_angle_gamma 90.000000
_cell_volume 3086.285905
_symmetry_space_group_name_H-M "F D D D"
_symmetry_group_IT_number 70
_space_group.IT_coordinate_system_code '2'
_symmetry_cell_setting 'orthorhombic'
loop_
_space_group_symop_operation_xyz
x,y,z
1/4-x,1/4-y,z
x,1/4-y,1/4-z
1/4-x,y,1/4-z
-x,-y,-z
3/4+x,3/4+y,-z
-x,3/4+y,3/4+z
3/4+x,-y,3/4+z
x,1/2+y,1/2+z
1/4-x,3/4-y,1/2+z
x,3/4-y,3/4-z
1/4-x,1/2+y,3/4-z
-x,1/2-y,1/2-z
3/4+x,1/4+y,1/2-z
-x,1/4+y,1/4+z
3/4+x,1/2-y,1/4+z
1/2+x,y,1/2+z
3/4-x,1/4-y,1/2+z
1/2+x,1/4-y,3/4-z
3/4-x,y,3/4-z
1/2-x,-y,1/2-z
1/4+x,3/4+y,1/2-z
1/2-x,3/4+y,1/4+z
1/4+x,-y,1/4+z
1/2+x,1/2+y,z
3/4-x,3/4-y,z
1/2+x,3/4-y,1/4-z
3/4-x,1/2+y,1/4-z
1/2-x,1/2-y,-z
1/4+x,1/4+y,-z
1/2-x,1/4+y,3/4+z
1/4+x,1/2-y,3/4+z
loop_
_atom_site_type_symbol
_atom_site_label
_atom_site_fract_x
_atom_site_fract_y
_atom_site_fract_z
Si Si1 0.308810 0.897492 0.170048
Si Si2 0.216816 0.875000 0.875000
Si Si3 0.355550 0.547302 0.581460
O O1 0.304672 0.875000 0.375000
O O2 0.375000 0.875000 0.104791
O O3 0.313363 0.983806 0.144235
O O4 0.259279 0.862518 0.043104
O O5 0.171198 0.809109 0.827865
O O6 0.327105 0.625000 0.625000
O O7 0.375000 0.540180 0.375000
#
# Coordination Sequence:
#
# PCOD9516433 Si02
#       3
#    32  16  32
#     4  11  25  46  76 112 156 205 266 322 389 472
#     4  10  25  50  78 110 160 212 259 326 402 462
#     4  10  25  48  75 111 162 207 260 327 391 470
#
# _framework density 25.921126000000001
#
# number of rings (size 3 to 8) (size 9 to 14) (size 15 to 20)
#    1.200    0.400    0.000    3.000    5.600    8.000 
#    0.000   18.000    0.000    0.000    0.000    0.000 
#    0.000    0.000    0.000    0.000    0.000    0.000 
#
# Total GULP energy -111969.028203 kJ/mol
# GULP energy per Si atom -5598.451410 kJ/mol
# Density = 2.586213 g / cm^3
# Si number density = 25.921126 Si / 1000 Ang^3
#
#
#
# Elastic Constant Matrix: (Units=GPa)
#
#
# Indices 1 2 3 4 5 6 
#
# 1 135.1009 -10.7649 7.8023 -0.0001 0.0000 0.0003
# 2 -10.7649 136.4459 17.9548 -0.0004 0.0001 0.0030
# 3 7.8023 17.9548 123.1813 -0.0018 0.0004 0.0115
# 4 -0.0001 -0.0004 -0.0018 31.4115 0.0002 0.0088
# 5 0.0000 0.0001 0.0004 0.0002 50.2160 -0.0014
# 6 0.0003 0.0030 0.0115 0.0088 -0.0014 172.5373
#
#
#
# Elastic Compliance Matrix: (Units=1/GPa)
#
#
# Indices 1 2 3 4 5 6 
#
# 1 0.007488 0.000666 -0.000571 0.000000 0.000000 0.000000
# 2 0.000666 0.007531 -0.001140 0.000000 0.000000 0.000000
# 3 -0.000571 -0.001140 0.008320 0.000000 0.000000 -0.000001
# 4 0.000000 0.000000 0.000000 0.031835 0.000000 -0.000002
# 5 0.000000 0.000000 0.000000 0.000000 0.019914 0.000000
# 6 0.000000 0.000000 -0.000001 -0.000002 0.000000 0.005796
#
#
# Mechanical properties :
#
#
# Convention : Reuss Voigt Hill
#
# Bulk Modulus (GPa) = 47.06078 47.19029 47.12553
# Shear Modulus (GPa) = 55.51921 76.14869 65.83395
#
# Velocity S-wave (km/s) = 4.63304 5.42594 5.04509
# Velocity P-wave (km/s) = 6.84213 7.58283 7.22199
#
# Compressibility (1/GPa) = 0.02124912
#
# Stress axis : x y z
#
# Youngs Moduli (GPa) = 133.54815 132.77645 120.18557
#
# Poissons Ratio (x) = -0.08842 0.06867
# Poissons Ratio (y) = -0.08894 0.13701
# Poissons Ratio (z) = 0.07630 0.15136
#
# Static dielectric constant tensor:
#      x y z
#    x 2.055000 0.000000 0.000000 
#    y 0.000000 2.308830 0.000000 
#    z 0.000000 0.000000 1.999350 
# 
# From -- ./inp_files/11524.got.cif
#   From: 2010.05.17/outbox.cif.g08.bks.cpg/sg70_6_cif.got.tgz:11524.got - 2010.06.03 15:57:51.
