data_PCOD9516193
_publ_section_title
;
Structure prediction by ZEFSAII (Michael W. Deem and Ramdas Pophale) SiO2 
 PCOD9516193
Probable space group: F D D D
;
_chemical_formula_sum "Si O2"
_cell_formula_units_Z 232
_cell_length_a 30.598138
_cell_length_b 21.228865
_cell_length_c 19.247468
_cell_angle_alpha 90.000000
_cell_angle_beta 90.000000
_cell_angle_gamma 90.000000
_cell_volume 12502.457316
_symmetry_space_group_name_H-M "F D D D"
_symmetry_group_IT_number 70
_space_group.IT_coordinate_system_code '2'
_symmetry_cell_setting 'orthorhombic'
loop_
_space_group_symop_operation_xyz
x,y,z
1/4-x,1/4-y,z
x,1/4-y,1/4-z
1/4-x,y,1/4-z
-x,-y,-z
3/4+x,3/4+y,-z
-x,3/4+y,3/4+z
3/4+x,-y,3/4+z
x,1/2+y,1/2+z
1/4-x,3/4-y,1/2+z
x,3/4-y,3/4-z
1/4-x,1/2+y,3/4-z
-x,1/2-y,1/2-z
3/4+x,1/4+y,1/2-z
-x,1/4+y,1/4+z
3/4+x,1/2-y,1/4+z
1/2+x,y,1/2+z
3/4-x,1/4-y,1/2+z
1/2+x,1/4-y,3/4-z
3/4-x,y,3/4-z
1/2-x,-y,1/2-z
1/4+x,3/4+y,1/2-z
1/2-x,3/4+y,1/4+z
1/4+x,-y,1/4+z
1/2+x,1/2+y,z
3/4-x,3/4-y,z
1/2+x,3/4-y,1/4-z
3/4-x,1/2+y,1/4-z
1/2-x,1/2-y,-z
1/4+x,1/4+y,-z
1/2-x,1/4+y,3/4+z
1/4+x,1/2-y,3/4+z
loop_
_atom_site_type_symbol
_atom_site_label
_atom_site_fract_x
_atom_site_fract_y
_atom_site_fract_z
Si Si1 0.302225 0.317464 0.829691
Si Si2 0.997170 0.365510 0.085983
Si Si3 0.656510 0.311491 0.688767
Si Si4 0.228706 0.497940 0.825086
Si Si5 0.017522 0.808282 0.033750
Si Si6 0.089896 0.855416 0.796987
Si Si7 0.125000 0.125000 0.625000
Si Si8 0.459982 0.838206 0.944144
O O1 0.319942 0.375000 0.875000
O O2 0.337432 0.263852 0.813444
O O3 0.262812 0.290615 0.877745
O O4 0.275381 0.329831 0.759254
O O5 0.044636 0.336946 0.067874
O O6 0.008866 0.422161 0.137076
O O7 0.973358 0.313262 0.134379
O O8 0.971246 0.376308 0.014544
O O9 0.625000 0.329083 0.625000
O O10 0.633100 0.340569 0.754699
O O11 0.250000 0.500000 0.750000
O O12 0.185483 0.459650 0.809700
O O13 0.024578 0.732776 0.036588
O O14 0.057737 0.846419 0.996111
O O15 0.099553 0.875000 0.875000
O O16 0.158508 0.163692 0.673700
O O17 0.478613 0.875000 0.875000
#
# Coordination Sequence:
#
# PCOD9516193 Si02
#       8
#    32  32  32  32  32  32   8  32
#     4  11  20  38  62  91 131 177 215 253 327 411
#     4  11  22  39  68  94 128 173 219 266 326 412
#     4  11  23  38  56  96 140 164 209 281 327 382
#     4  11  17  34  61  94 128 168 211 261 318 391
#     4  12  20  39  71  94 120 175 227 260 324 412
#     4  12  21  36  62  97 129 173 220 270 326 392
#     4   8  24  48  68  84 132 168 218 296 358 368
#     4  10  23  45  68  91 129 170 222 281 336 390
#
# _framework density 18.556352
#
# number of rings (size 3 to 8) (size 9 to 14) (size 15 to 20)
#    0.414    0.552    8.276    0.828    0.000    2.483 
#    0.000    2.759    0.000    0.000    0.000    0.000 
#    0.000    0.000    0.000    0.000    0.000    0.000 
#
# Total GULP energy -322977.940105 kJ/mol
# GULP energy per Si atom -5568.585174 kJ/mol
# Density = 1.851412 g / cm^3
# Si number density = 18.556352 Si / 1000 Ang^3
#
#
#
# Elastic Constant Matrix: (Units=GPa)
#
#
# Indices 1 2 3 4 5 6 
#
# 1 60.3681 13.4475 34.1301 0.0000 0.0000 0.0000
# 2 13.4475 39.2788 18.3001 0.0000 0.0000 0.0000
# 3 34.1301 18.3001 132.4868 0.0000 0.0000 0.0000
# 4 0.0000 0.0000 0.0000 30.6596 0.0000 0.0000
# 5 0.0000 0.0000 0.0000 0.0000 24.9200 0.0000
# 6 0.0000 0.0000 0.0000 0.0000 0.0000 20.1067
#
#
#
# Elastic Compliance Matrix: (Units=1/GPa)
#
#
# Indices 1 2 3 4 5 6 
#
# 1 0.020202 -0.004801 -0.004541 0.000000 0.000000 0.000000
# 2 -0.004801 0.028351 -0.002679 0.000000 0.000000 0.000000
# 3 -0.004541 -0.002679 0.009088 0.000000 0.000000 0.000000
# 4 0.000000 0.000000 0.000000 0.032616 0.000000 0.000000
# 5 0.000000 0.000000 0.000000 0.000000 0.040128 0.000000
# 6 0.000000 0.000000 0.000000 0.000000 0.000000 0.049735
#
#
# Mechanical properties :
#
#
# Convention : Reuss Voigt Hill
#
# Bulk Modulus (GPa) = 29.76329 40.43212 35.09771
# Shear Modulus (GPa) = 23.21678 26.22098 24.71888
#
# Velocity S-wave (km/s) = 3.54100 3.76313 3.65375
# Velocity P-wave (km/s) = 5.72647 6.38104 6.06259
#
# Compressibility (1/GPa) = 0.03359843
#
# Stress axis : x y z
#
# Youngs Moduli (GPa) = 49.50054 35.27234 110.03689
#
# Poissons Ratio (x) = 0.16933 0.49969
# Poissons Ratio (y) = 0.23763 0.29483
# Poissons Ratio (z) = 0.22479 0.09451
#
# Static dielectric constant tensor:
#      x y z
#    x 1.672360 0.000000 0.000000 
#    y 0.000000 1.707700 0.000000 
#    z 0.000000 0.000000 1.829600 
# 
# From -- ./inp_files/39969.got.cif
#   From: 2010.05.17/outbox.cif.g08.bks.cpg/sg70_20_cif.got.tgz:39969.got - 2010.06.03 15:57:51.
