data_PCOD9516649
_publ_section_title
;
Structure prediction by ZEFSAII (Michael W. Deem and Ramdas Pophale) SiO2 
 PCOD9516649
Probable space group: F D D D
;
_chemical_formula_sum "Si O2"
_cell_formula_units_Z 216
_cell_length_a 12.169113
_cell_length_b 29.871313
_cell_length_c 28.340099
_cell_angle_alpha 90.000000
_cell_angle_beta 90.000000
_cell_angle_gamma 90.000000
_cell_volume 10301.835232
_symmetry_space_group_name_H-M "F D D D"
_symmetry_group_IT_number 70
_space_group.IT_coordinate_system_code '2'
_symmetry_cell_setting 'orthorhombic'
loop_
_space_group_symop_operation_xyz
x,y,z
1/4-x,1/4-y,z
x,1/4-y,1/4-z
1/4-x,y,1/4-z
-x,-y,-z
3/4+x,3/4+y,-z
-x,3/4+y,3/4+z
3/4+x,-y,3/4+z
x,1/2+y,1/2+z
1/4-x,3/4-y,1/2+z
x,3/4-y,3/4-z
1/4-x,1/2+y,3/4-z
-x,1/2-y,1/2-z
3/4+x,1/4+y,1/2-z
-x,1/4+y,1/4+z
3/4+x,1/2-y,1/4+z
1/2+x,y,1/2+z
3/4-x,1/4-y,1/2+z
1/2+x,1/4-y,3/4-z
3/4-x,y,3/4-z
1/2-x,-y,1/2-z
1/4+x,3/4+y,1/2-z
1/2-x,3/4+y,1/4+z
1/4+x,-y,1/4+z
1/2+x,1/2+y,z
3/4-x,3/4-y,z
1/2+x,3/4-y,1/4-z
3/4-x,1/2+y,1/4-z
1/2-x,1/2-y,-z
1/4+x,1/4+y,-z
1/2-x,1/4+y,3/4+z
1/4+x,1/2-y,3/4+z
loop_
_atom_site_type_symbol
_atom_site_label
_atom_site_fract_x
_atom_site_fract_y
_atom_site_fract_z
Si Si1 0.491778 0.853205 0.518551
Si Si2 0.546641 0.584633 0.560314
Si Si3 0.258644 0.041942 0.401869
Si Si4 0.625000 0.239309 0.125000
Si Si5 0.532502 0.570842 0.372972
Si Si6 0.029500 0.371404 0.034443
Si Si7 0.625000 0.125000 0.625000
Si Si8 0.295329 0.559624 0.572277
O O1 0.375000 0.875000 0.507965
O O2 0.498491 0.840512 0.572916
O O3 0.597987 0.884360 0.513505
O O4 0.517819 0.812472 0.483482
O O5 0.625000 0.625000 0.576865
O O6 0.612985 0.541379 0.578521
O O7 0.528594 0.597981 0.505404
O O8 0.421568 0.576544 0.579445
O O9 0.375000 0.046215 0.375000
O O10 0.162757 0.064877 0.371811
O O11 0.250789 0.070948 0.450066
O O12 0.227444 0.990325 0.409850
O O13 0.521957 0.272310 0.126052
O O14 0.490692 0.600545 0.417032
O O15 0.707577 0.093346 0.595609
#
# Coordination Sequence:
#
# PCOD9516649 Si02
#       8
#    32  32  32  16  32  32   8  32
#     4  11  22  42  66 104 136 186 230 288 353 423
#     4  11  26  47  69 102 140 186 236 292 356 422
#     4  12  24  44  70 108 137 188 239 293 355 433
#     4  12  25  42  67 104 134 183 236 291 340 424
#     4  12  23  42  70 102 142 185 230 295 355 418
#     4  11  24  44  71 101 147 191 227 295 368 422
#     4  12  24  52  64  92 140 194 232 270 372 406
#     4  11  26  44  75  97 141 186 234 296 347 429
#
# _framework density 20.967137000000001
#
# number of rings (size 3 to 8) (size 9 to 14) (size 15 to 20)
#    0.000    0.593    4.444    4.222    2.074    2.963 
#    0.000    4.444    0.000    0.000    0.000    0.000 
#    0.000    0.000    0.000    0.000    0.000    0.000 
#
# Total GULP energy -301034.572319 kJ/mol
# GULP energy per Si atom -5574.714302 kJ/mol
# Density = 2.091941 g / cm^3
# Si number density = 20.967137 Si / 1000 Ang^3
#
#
#
# Elastic Constant Matrix: (Units=GPa)
#
#
# Indices 1 2 3 4 5 6 
#
# 1 149.6593 39.8592 19.8029 0.0000 0.0000 0.0000
# 2 39.8592 119.4463 30.3875 0.0000 0.0000 0.0000
# 3 19.8029 30.3875 92.2717 0.0000 0.0000 0.0000
# 4 0.0000 0.0000 0.0000 -598.6578 0.0000 0.0000
# 5 0.0000 0.0000 0.0000 0.0000 16.9562 0.0000
# 6 0.0000 0.0000 0.0000 0.0000 0.0000 34.7691
#
#
#
# Elastic Compliance Matrix: (Units=1/GPa)
#
#
# Indices 1 2 3 4 5 6 
#
# 1 0.007394 -0.002252 -0.000845 0.000000 0.000000 0.000000
# 2 -0.002252 0.009824 -0.002752 0.000000 0.000000 0.000000
# 3 -0.000845 -0.002752 0.011925 0.000000 0.000000 0.000000
# 4 0.000000 0.000000 0.000000 -0.001670 0.000000 0.000000
# 5 0.000000 0.000000 0.000000 0.000000 0.058975 0.000000
# 6 0.000000 0.000000 0.000000 0.000000 0.000000 0.028761
#
#
# Mechanical properties :
#
#
# Convention : Reuss Voigt Hill
#
# Bulk Modulus (GPa) = 57.32595 60.16407 58.74501
# Shear Modulus (GPa) = 37.67293 -91.29799 -26.81253
#
# Velocity S-wave (km/s) = 4.24342 -6.60590 -3.57989
# Velocity P-wave (km/s) = 7.17001 5.42468 3.31526
#
# Compressibility (1/GPa) = 0.01744411
#
# Stress axis : x y z
#
# Youngs Moduli (GPa) = 135.25392 101.79564 83.85627
#
# Poissons Ratio (x) = 0.22927 0.07086
# Poissons Ratio (y) = 0.30462 0.23076
# Poissons Ratio (z) = 0.11430 0.28012
#
# Static dielectric constant tensor:
#      x y z
#    x 1.851190 0.000000 0.000000 
#    y 0.000000 1.780590 0.000000 
#    z 0.000000 0.000000 1.779990 
# 
# From -- ./inp_files/65161.got.cif
#   From: 2010.05.17/outbox.cif.g08.bks.cpg/sg70_33_cif.got.tgz:65161.got - 2010.06.03 15:57:51.
