data_PCOD9516736
_publ_section_title
;
Structure prediction by ZEFSAII (Michael W. Deem and Ramdas Pophale) SiO2 
 PCOD9516736
Probable space group: F D D D
;
_chemical_formula_sum "Si O2"
_cell_formula_units_Z 136
_cell_length_a 19.707383
_cell_length_b 24.424581
_cell_length_c 12.010933
_cell_angle_alpha 90.000000
_cell_angle_beta 90.000000
_cell_angle_gamma 90.000000
_cell_volume 5781.397409
_symmetry_space_group_name_H-M "F D D D"
_symmetry_group_IT_number 70
_space_group.IT_coordinate_system_code '2'
_symmetry_cell_setting 'orthorhombic'
loop_
_space_group_symop_operation_xyz
x,y,z
1/4-x,1/4-y,z
x,1/4-y,1/4-z
1/4-x,y,1/4-z
-x,-y,-z
3/4+x,3/4+y,-z
-x,3/4+y,3/4+z
3/4+x,-y,3/4+z
x,1/2+y,1/2+z
1/4-x,3/4-y,1/2+z
x,3/4-y,3/4-z
1/4-x,1/2+y,3/4-z
-x,1/2-y,1/2-z
3/4+x,1/4+y,1/2-z
-x,1/4+y,1/4+z
3/4+x,1/2-y,1/4+z
1/2+x,y,1/2+z
3/4-x,1/4-y,1/2+z
1/2+x,1/4-y,3/4-z
3/4-x,y,3/4-z
1/2-x,-y,1/2-z
1/4+x,3/4+y,1/2-z
1/2-x,3/4+y,1/4+z
1/4+x,-y,1/4+z
1/2+x,1/2+y,z
3/4-x,3/4-y,z
1/2+x,3/4-y,1/4-z
3/4-x,1/2+y,1/4-z
1/2-x,1/2-y,-z
1/4+x,1/4+y,-z
1/2-x,1/4+y,3/4+z
1/4+x,1/2-y,3/4+z
loop_
_atom_site_type_symbol
_atom_site_label
_atom_site_fract_x
_atom_site_fract_y
_atom_site_fract_z
Si Si1 0.561661 0.791179 0.555482
Si Si2 0.990509 0.821284 0.450686
Si Si3 0.354112 0.185943 0.071308
Si Si4 0.520742 0.598955 0.944922
Si Si5 0.625000 0.125000 0.625000
O O1 0.625000 0.814464 0.625000
O O2 0.540640 0.732800 0.604495
O O3 0.584817 0.779266 0.429241
O O4 0.503594 0.837229 0.553883
O O5 0.986172 0.875000 0.375000
O O6 0.958887 0.835486 0.570053
O O7 0.069869 0.806559 0.469257
O O8 0.352075 0.125000 0.125000
O O9 0.295220 0.186022 0.980739
O O10 0.576668 0.591700 0.040731
#
# Coordination Sequence:
#
# PCOD9516736 Si02
#       5
#    32  32  32  32   8
#     4  11  23  42  69 100 142 187 232 284 345 415
#     4  11  25  41  70 106 137 188 233 283 351 415
#     4   9  19  43  67  96 131 183 237 274 347 411
#     4  11  23  47  69  99 142 182 227 295 343 422
#     4  12  24  44  74 104 140 172 226 290 360 400
#
# _framework density 23.523723
#
# number of rings (size 3 to 8) (size 9 to 14) (size 15 to 20)
#    0.000    1.412    3.529    4.941    0.000    8.941 
#    4.235    0.000    0.000    0.000    0.000    0.000 
#    0.000    0.000    0.000    0.000    0.000    0.000 
#
# Total GULP energy -190101.005859 kJ/mol
# GULP energy per Si atom -5591.206055 kJ/mol
# Density = 2.347018 g / cm^3
# Si number density = 23.523723 Si / 1000 Ang^3
#
#
#
# Elastic Constant Matrix: (Units=GPa)
#
#
# Indices 1 2 3 4 5 6 
#
# 1 64.6405 30.7503 9.6987 0.0000 0.0000 0.0000
# 2 30.7503 88.6142 22.4836 0.0000 0.0000 0.0000
# 3 9.6987 22.4836 100.4821 0.0000 0.0000 0.0000
# 4 0.0000 0.0000 0.0000 14.9017 0.0000 0.0000
# 5 0.0000 0.0000 0.0000 0.0000 35.5552 0.0000
# 6 0.0000 0.0000 0.0000 0.0000 0.0000 9.5577
#
#
#
# Elastic Compliance Matrix: (Units=1/GPa)
#
#
# Indices 1 2 3 4 5 6 
#
# 1 0.018542 -0.006340 -0.000371 0.000000 0.000000 0.000000
# 2 -0.006340 0.014132 -0.002550 0.000000 0.000000 0.000000
# 3 -0.000371 -0.002550 0.010558 0.000000 0.000000 0.000000
# 4 0.000000 0.000000 0.000000 0.067106 0.000000 0.000000
# 5 0.000000 0.000000 0.000000 0.000000 0.028125 0.000000
# 6 0.000000 0.000000 0.000000 0.000000 0.000000 0.104628
#
#
# Mechanical properties :
#
#
# Convention : Reuss Voigt Hill
#
# Bulk Modulus (GPa) = 40.46999 42.17801 41.32400
# Shear Modulus (GPa) = 18.52871 24.72319 21.62595
#
# Velocity S-wave (km/s) = 2.80957 3.24541 3.03533
# Velocity P-wave (km/s) = 5.26936 5.65796 5.46712
#
# Compressibility (1/GPa) = 0.02470967
#
# Stress axis : x y z
#
# Youngs Moduli (GPa) = 53.93173 70.76118 94.71074
#
# Poissons Ratio (x) = 0.44864 0.03514
# Poissons Ratio (y) = 0.34194 0.24153
# Poissons Ratio (z) = 0.02001 0.18045
#
# Static dielectric constant tensor:
#      x y z
#    x 1.901280 0.000000 0.000000 
#    y 0.000000 1.938790 0.000000 
#    z 0.000000 0.000000 1.883880 
# 
# From -- ./inp_files/17652.got.cif
#   From: 2010.05.17/outbox.cif.g08.bks.cpg/sg70_9_cif.got.tgz:17652.got - 2010.06.03 15:57:51.
