data_PCOD9516971
_publ_section_title
;
Structure prediction by ZEFSAII (Michael W. Deem and Ramdas Pophale) SiO2 
 PCOD9516971
Probable space group: F D D D
;
_chemical_formula_sum "Si O2"
_cell_formula_units_Z 96
_cell_length_a 9.448257
_cell_length_b 22.848095
_cell_length_c 17.285162
_cell_angle_alpha 90.000000
_cell_angle_beta 90.000000
_cell_angle_gamma 90.000000
_cell_volume 3731.428703
_symmetry_space_group_name_H-M "F D D D"
_symmetry_group_IT_number 70
_space_group.IT_coordinate_system_code '2'
_symmetry_cell_setting 'orthorhombic'
loop_
_space_group_symop_operation_xyz
x,y,z
1/4-x,1/4-y,z
x,1/4-y,1/4-z
1/4-x,y,1/4-z
-x,-y,-z
3/4+x,3/4+y,-z
-x,3/4+y,3/4+z
3/4+x,-y,3/4+z
x,1/2+y,1/2+z
1/4-x,3/4-y,1/2+z
x,3/4-y,3/4-z
1/4-x,1/2+y,3/4-z
-x,1/2-y,1/2-z
3/4+x,1/4+y,1/2-z
-x,1/4+y,1/4+z
3/4+x,1/2-y,1/4+z
1/2+x,y,1/2+z
3/4-x,1/4-y,1/2+z
1/2+x,1/4-y,3/4-z
3/4-x,y,3/4-z
1/2-x,-y,1/2-z
1/4+x,3/4+y,1/2-z
1/2-x,3/4+y,1/4+z
1/4+x,-y,1/4+z
1/2+x,1/2+y,z
3/4-x,3/4-y,z
1/2+x,3/4-y,1/4-z
3/4-x,1/2+y,1/4-z
1/2-x,1/2-y,-z
1/4+x,1/4+y,-z
1/2-x,1/4+y,3/4+z
1/4+x,1/2-y,3/4+z
loop_
_atom_site_type_symbol
_atom_site_label
_atom_site_fract_x
_atom_site_fract_y
_atom_site_fract_z
Si Si1 0.125000 0.125000 0.481435
Si Si2 0.474544 0.259454 0.484216
Si Si3 0.544212 0.807913 0.363997
Si Si4 0.375000 0.658247 0.875000
O O1 0.261590 0.122879 0.425246
O O2 0.123701 0.184106 0.530908
O O3 0.425123 0.238290 0.568308
O O4 0.630844 0.283596 0.463022
O O5 0.454282 0.202019 0.433063
O O6 0.594209 0.875000 0.375000
O O7 0.375000 0.810849 0.375000
#
# Coordination Sequence:
#
# PCOD9516971 Si02
#       4
#    16  32  32  16
#     4  12  28  47  82 112 155 202 262 336 386 480
#     4  12  26  49  76 113 153 209 257 322 392 475
#     4  11  26  48  78 114 157 202 259 324 393 461
#     4  12  28  49  74 116 151 204 266 318 406 460
#
# _framework density 25.727411
#
# number of rings (size 3 to 8) (size 9 to 14) (size 15 to 20)
#    0.000    0.333    3.333    4.000    7.000    5.333 
#    0.000    0.000    0.000    0.000    0.000    0.000 
#    0.000    0.000    0.000    0.000    0.000    0.000 
#
# Total GULP energy -134175.636510 kJ/mol
# GULP energy per Si atom -5590.651521 kJ/mol
# Density = 2.566885 g / cm^3
# Si number density = 25.727411 Si / 1000 Ang^3
#
#
#
# Elastic Constant Matrix: (Units=GPa)
#
#
# Indices 1 2 3 4 5 6 
#
# 1 134.4428 36.8257 34.5341 0.0000 0.0000 0.0000
# 2 36.8257 146.8738 40.5662 0.0000 0.0000 0.0000
# 3 34.5341 40.5662 85.1088 0.0000 0.0000 0.0000
# 4 0.0000 0.0000 0.0000 47.5644 0.0000 0.0000
# 5 0.0000 0.0000 0.0000 0.0000 28.6933 0.0000
# 6 0.0000 0.0000 0.0000 0.0000 0.0000 34.2786
#
#
#
# Elastic Compliance Matrix: (Units=1/GPa)
#
#
# Indices 1 2 3 4 5 6 
#
# 1 0.008534 -0.001363 -0.002813 0.000000 0.000000 0.000000
# 2 -0.001363 0.008058 -0.003288 0.000000 0.000000 0.000000
# 3 -0.002813 -0.003288 0.014458 0.000000 0.000000 0.000000
# 4 0.000000 0.000000 0.000000 0.021024 0.000000 0.000000
# 5 0.000000 0.000000 0.000000 0.000000 0.034851 0.000000
# 6 0.000000 0.000000 0.000000 0.000000 0.000000 0.029173
#
#
# Mechanical properties :
#
#
# Convention : Reuss Voigt Hill
#
# Bulk Modulus (GPa) = 62.02397 65.58638 63.80518
# Shear Modulus (GPa) = 36.65656 39.07388 37.86522
#
# Velocity S-wave (km/s) = 3.77875 3.90136 3.84055
# Velocity P-wave (km/s) = 6.57260 6.77069 6.67238
#
# Compressibility (1/GPa) = 0.01612280
#
# Stress axis : x y z
#
# Youngs Moduli (GPa) = 117.17818 124.09440 69.16407
#
# Poissons Ratio (x) = 0.16911 0.19458
# Poissons Ratio (y) = 0.15968 0.22741
# Poissons Ratio (z) = 0.32965 0.40802
#
# Static dielectric constant tensor:
#      x y z
#    x 1.305400 0.000000 0.000000 
#    y 0.000000 1.944130 0.000000 
#    z 0.000000 0.000000 2.274040 
# 
# From -- ./inp_files/18438.got.cif
#   From: 2010.05.17/outbox.cif.g08.bks.cpg/sg70_10_cif.got.tgz:18438.got - 2010.06.03 15:57:51.
