data_PCOD9516654
_publ_section_title
;
Structure prediction by ZEFSAII (Michael W. Deem and Ramdas Pophale) SiO2 
 PCOD9516654
Probable space group: F D D D
;
_chemical_formula_sum "Si O2"
_cell_formula_units_Z 160
_cell_length_a 12.942926
_cell_length_b 26.014902
_cell_length_c 23.149195
_cell_angle_alpha 90.000000
_cell_angle_beta 90.000000
_cell_angle_gamma 90.000000
_cell_volume 7794.541176
_symmetry_space_group_name_H-M "F D D D"
_symmetry_group_IT_number 70
_space_group.IT_coordinate_system_code '2'
_symmetry_cell_setting 'orthorhombic'
loop_
_space_group_symop_operation_xyz
x,y,z
1/4-x,1/4-y,z
x,1/4-y,1/4-z
1/4-x,y,1/4-z
-x,-y,-z
3/4+x,3/4+y,-z
-x,3/4+y,3/4+z
3/4+x,-y,3/4+z
x,1/2+y,1/2+z
1/4-x,3/4-y,1/2+z
x,3/4-y,3/4-z
1/4-x,1/2+y,3/4-z
-x,1/2-y,1/2-z
3/4+x,1/4+y,1/2-z
-x,1/4+y,1/4+z
3/4+x,1/2-y,1/4+z
1/2+x,y,1/2+z
3/4-x,1/4-y,1/2+z
1/2+x,1/4-y,3/4-z
3/4-x,y,3/4-z
1/2-x,-y,1/2-z
1/4+x,3/4+y,1/2-z
1/2-x,3/4+y,1/4+z
1/4+x,-y,1/4+z
1/2+x,1/2+y,z
3/4-x,3/4-y,z
1/2+x,3/4-y,1/4-z
3/4-x,1/2+y,1/4-z
1/2-x,1/2-y,-z
1/4+x,1/4+y,-z
1/2-x,1/4+y,3/4+z
1/4+x,1/2-y,3/4+z
loop_
_atom_site_type_symbol
_atom_site_label
_atom_site_fract_x
_atom_site_fract_y
_atom_site_fract_z
Si Si1 0.650857 0.758021 0.912463
Si Si2 0.958706 0.413262 0.104903
Si Si3 0.136237 0.988629 0.043608
Si Si4 0.471188 0.583734 0.168286
Si Si5 0.896702 0.129984 0.957082
O O1 0.603711 0.712879 0.874409
O O2 0.771100 0.750686 0.932150
O O3 0.636027 0.808795 0.874234
O O4 0.599319 0.758074 0.974871
O O5 0.875000 0.375000 0.078692
O O6 0.008040 0.388953 0.163450
O O7 0.055689 0.418635 0.062185
O O8 0.146957 0.927526 0.054820
O O9 0.209130 0.033893 0.067017
O O10 0.520252 0.625000 0.125000
O O11 0.434160 0.610010 0.227677
#
# Coordination Sequence:
#
# PCOD9516654 Si02
#       5
#    32  32  32  32  32
#     4  11  23  39  64  95 136 180 226 283 347 414
#     4  11  22  42  69  94 134 188 230 279 341 421
#     4  11  23  41  62  99 141 178 221 286 355 422
#     4  12  25  43  68 105 142 180 231 295 356 415
#     4  11  24  43  69 100 138 183 235 282 358 424
#
# _framework density 20.527187000000001
#
# number of rings (size 3 to 8) (size 9 to 14) (size 15 to 20)
#    0.000    0.800    6.000    1.800    2.800    2.400 
#    3.600    0.000    0.000    0.600    0.000    0.000 
#    0.000    0.000    0.000    0.000    0.000    0.000 
#
# Total GULP energy -223055.807299 kJ/mol
# GULP energy per Si atom -5576.395182 kJ/mol
# Density = 2.048047 g / cm^3
# Si number density = 20.527187 Si / 1000 Ang^3
#
#
#
# Elastic Constant Matrix: (Units=GPa)
#
#
# Indices 1 2 3 4 5 6 
#
# 1 50.5504 14.5636 21.1727 0.0000 0.0000 0.0000
# 2 14.5636 108.9513 36.1518 0.0000 0.0000 0.0000
# 3 21.1727 36.1518 140.3489 0.0000 0.0000 0.0000
# 4 0.0000 0.0000 0.0000 20.9447 0.0000 0.0000
# 5 0.0000 0.0000 0.0000 0.0000 -1.8777 0.0000
# 6 0.0000 0.0000 0.0000 0.0000 0.0000 23.0873
#
#
#
# Elastic Compliance Matrix: (Units=1/GPa)
#
#
# Indices 1 2 3 4 5 6 
#
# 1 0.021495 -0.001965 -0.002736 0.000000 0.000000 0.000000
# 2 -0.001965 0.010216 -0.002335 0.000000 0.000000 0.000000
# 3 -0.002736 -0.002335 0.008139 0.000000 0.000000 0.000000
# 4 0.000000 0.000000 0.000000 0.047745 0.000000 0.000000
# 5 0.000000 0.000000 0.000000 0.000000 -0.532557 0.000000
# 6 0.000000 0.000000 0.000000 0.000000 0.000000 0.043314
#
#
# Mechanical properties :
#
#
# Convention : Reuss Voigt Hill
#
# Bulk Modulus (GPa) = 38.79490 49.29188 44.04339
# Shear Modulus (GPa) = -13.19320 23.62834 5.21757
#
# Velocity S-wave (km/s) = -2.53794 3.39643 1.59603
# Velocity P-wave (km/s) = 3.21747 6.28061 4.98990
#
# Compressibility (1/GPa) = 0.02577659
#
# Stress axis : x y z
#
# Youngs Moduli (GPa) = 46.52341 97.88667 122.85965
#
# Poissons Ratio (x) = 0.19237 0.33619
# Poissons Ratio (y) = 0.09143 0.28688
# Poissons Ratio (z) = 0.12731 0.22857
#
# Static dielectric constant tensor:
#      x y z
#    x 1.750180 0.000000 0.000000 
#    y 0.000000 1.806380 0.000000 
#    z 0.000000 0.000000 1.792880 
# 
# From -- ./inp_files/28664.got.cif
#   From: 2010.05.17/outbox.cif.g08.bks.cpg/sg70_15_cif.got.tgz:28664.got - 2010.06.03 15:57:51.
