data_PCOD9516348
_publ_section_title
;
Structure prediction by ZEFSAII (Michael W. Deem and Ramdas Pophale) SiO2 
 PCOD9516348
Probable space group: F D D D
;
_chemical_formula_sum "Si O2"
_cell_formula_units_Z 120
_cell_length_a 11.976324
_cell_length_b 17.827623
_cell_length_c 23.691774
_cell_angle_alpha 90.000000
_cell_angle_beta 90.000000
_cell_angle_gamma 90.000000
_cell_volume 5058.416196
_symmetry_space_group_name_H-M "F D D D"
_symmetry_group_IT_number 70
_space_group.IT_coordinate_system_code '2'
_symmetry_cell_setting 'orthorhombic'
loop_
_space_group_symop_operation_xyz
x,y,z
1/4-x,1/4-y,z
x,1/4-y,1/4-z
1/4-x,y,1/4-z
-x,-y,-z
3/4+x,3/4+y,-z
-x,3/4+y,3/4+z
3/4+x,-y,3/4+z
x,1/2+y,1/2+z
1/4-x,3/4-y,1/2+z
x,3/4-y,3/4-z
1/4-x,1/2+y,3/4-z
-x,1/2-y,1/2-z
3/4+x,1/4+y,1/2-z
-x,1/4+y,1/4+z
3/4+x,1/2-y,1/4+z
1/2+x,y,1/2+z
3/4-x,1/4-y,1/2+z
1/2+x,1/4-y,3/4-z
3/4-x,y,3/4-z
1/2-x,-y,1/2-z
1/4+x,3/4+y,1/2-z
1/2-x,3/4+y,1/4+z
1/4+x,-y,1/4+z
1/2+x,1/2+y,z
3/4-x,3/4-y,z
1/2+x,3/4-y,1/4-z
3/4-x,1/2+y,1/4-z
1/2-x,1/2-y,-z
1/4+x,1/4+y,-z
1/2-x,1/4+y,3/4+z
1/4+x,1/2-y,3/4+z
loop_
_atom_site_type_symbol
_atom_site_label
_atom_site_fract_x
_atom_site_fract_y
_atom_site_fract_z
Si Si1 0.665670 0.793312 0.278815
Si Si2 0.875000 0.875000 0.222544
Si Si3 0.875000 0.875000 0.375000
Si Si4 0.182009 0.195668 0.064297
Si Si5 0.743775 0.276034 0.116035
O O1 0.776311 0.837596 0.259643
O O2 0.562186 0.825221 0.314936
O O3 0.603286 0.766713 0.222384
O O4 0.704620 0.728457 0.321732
O O5 0.819017 0.936626 0.181357
O O6 0.790078 0.810608 0.399289
O O7 0.125000 0.125000 0.035132
O O8 0.125000 0.204235 0.125000
O O9 0.625000 0.316628 0.125000
#
# Coordination Sequence:
#
# PCOD9516348 Si02
#       5
#    32  16   8  32  32
#     4  11  25  44  72 108 149 196 256 321 398 462
#     4  12  27  44  79 124 151 204 272 339 394 476
#     4   8  22  48  68 104 154 210 244 326 388 482
#     4  10  24  46  71  98 142 200 250 308 387 484
#     4  10  25  46  73 107 159 201 258 325 396 473
#
# _framework density 23.722840000000001
#
# number of rings (size 3 to 8) (size 9 to 14) (size 15 to 20)
#    0.800    0.800    0.000    2.400    5.600    8.533 
#    0.000    0.000    0.000    0.000    0.000    0.000 
#    0.000    0.000    0.000    0.000    0.000    0.000 
#
# Total GULP energy -167109.300576 kJ/mol
# GULP energy per Si atom -5570.310019 kJ/mol
# Density = 2.366885 g / cm^3
# Si number density = 23.722840 Si / 1000 Ang^3
#
#
#
# Elastic Constant Matrix: (Units=GPa)
#
#
# Indices 1 2 3 4 5 6 
#
# 1 220.0564 44.0984 72.1436 0.0000 0.0000 0.0000
# 2 44.0984 59.4176 40.5768 0.0000 0.0000 0.0000
# 3 72.1436 40.5768 145.0732 0.0000 0.0000 0.0000
# 4 0.0000 0.0000 0.0000 38.6585 0.0000 0.0000
# 5 0.0000 0.0000 0.0000 0.0000 44.3769 0.0000
# 6 0.0000 0.0000 0.0000 0.0000 0.0000 11.3162
#
#
#
# Elastic Compliance Matrix: (Units=1/GPa)
#
#
# Indices 1 2 3 4 5 6 
#
# 1 0.005805 -0.002889 -0.002079 0.000000 0.000000 0.000000
# 2 -0.002889 0.022241 -0.004784 0.000000 0.000000 0.000000
# 3 -0.002079 -0.004784 0.009265 0.000000 0.000000 0.000000
# 4 0.000000 0.000000 0.000000 0.025868 0.000000 0.000000
# 5 0.000000 0.000000 0.000000 0.000000 0.022534 0.000000
# 6 0.000000 0.000000 0.000000 0.000000 0.000000 0.088369
#
#
# Mechanical properties :
#
#
# Convention : Reuss Voigt Hill
#
# Bulk Modulus (GPa) = 56.15591 82.02053 69.08822
# Shear Modulus (GPa) = 25.06014 36.71890 30.88952
#
# Velocity S-wave (km/s) = 3.25371 3.93851 3.61238
# Velocity P-wave (km/s) = 6.15131 7.43855 6.82534
#
# Compressibility (1/GPa) = 0.01780756
#
# Stress axis : x y z
#
# Youngs Moduli (GPa) = 172.27695 44.96178 107.93362
#
# Poissons Ratio (x) = 0.12987 0.22436
# Poissons Ratio (y) = 0.49762 0.51640
# Poissons Ratio (z) = 0.35811 0.21511
#
# Static dielectric constant tensor:
#      x y z
#    x 1.819370 0.000000 0.000000 
#    y 0.000000 2.025130 0.000000 
#    z 0.000000 0.000000 1.982010 
# 
# From -- ./inp_files/49812.got.cif
#   From: 2010.05.17/outbox.cif.g08.bks.cpg/sg70_25_cif.got.tgz:49812.got - 2010.06.03 15:57:51.
