data_PCOD9516181
_publ_section_title
;
Structure prediction by ZEFSAII (Michael W. Deem and Ramdas Pophale) SiO2 
 PCOD9516181
Probable space group: F D D D
;
_chemical_formula_sum "Si O2"
_cell_formula_units_Z 160
_cell_length_a 31.446672
_cell_length_b 18.262303
_cell_length_c 10.994727
_cell_angle_alpha 90.000000
_cell_angle_beta 90.000000
_cell_angle_gamma 90.000000
_cell_volume 6314.146952
_symmetry_space_group_name_H-M "F D D D"
_symmetry_group_IT_number 70
_space_group.IT_coordinate_system_code '2'
_symmetry_cell_setting 'orthorhombic'
loop_
_space_group_symop_operation_xyz
x,y,z
1/4-x,1/4-y,z
x,1/4-y,1/4-z
1/4-x,y,1/4-z
-x,-y,-z
3/4+x,3/4+y,-z
-x,3/4+y,3/4+z
3/4+x,-y,3/4+z
x,1/2+y,1/2+z
1/4-x,3/4-y,1/2+z
x,3/4-y,3/4-z
1/4-x,1/2+y,3/4-z
-x,1/2-y,1/2-z
3/4+x,1/4+y,1/2-z
-x,1/4+y,1/4+z
3/4+x,1/2-y,1/4+z
1/2+x,y,1/2+z
3/4-x,1/4-y,1/2+z
1/2+x,1/4-y,3/4-z
3/4-x,y,3/4-z
1/2-x,-y,1/2-z
1/4+x,3/4+y,1/2-z
1/2-x,3/4+y,1/4+z
1/4+x,-y,1/4+z
1/2+x,1/2+y,z
3/4-x,3/4-y,z
1/2+x,3/4-y,1/4-z
3/4-x,1/2+y,1/4-z
1/2-x,1/2-y,-z
1/4+x,1/4+y,-z
1/2-x,1/4+y,3/4+z
1/4+x,1/2-y,3/4+z
loop_
_atom_site_type_symbol
_atom_site_label
_atom_site_fract_x
_atom_site_fract_y
_atom_site_fract_z
Si Si1 0.329291 0.734008 0.348427
Si Si2 0.494267 0.224351 0.546451
Si Si3 0.740950 0.603548 0.792921
Si Si4 0.571168 0.986145 0.944595
Si Si5 0.345991 0.087502 0.008128
O O1 0.375000 0.769657 0.375000
O O2 0.285422 0.775014 0.386392
O O3 0.240635 0.689138 0.271481
O O4 0.332966 0.653227 0.413769
O O5 0.505438 0.171498 0.433642
O O6 0.576076 0.266288 0.451596
O O7 0.445865 0.199923 0.565568
O O8 0.697593 0.563082 0.757079
O O9 0.782387 0.567840 0.730804
O O10 0.614588 0.967136 0.012221
O O11 0.366409 0.125000 0.125000
#
# Coordination Sequence:
#
# PCOD9516181 Si02
#       5
#    32  32  32  32  32
#     4  11  22  44  68  99 138 191 252 301 373 460
#     4  11  24  43  68 108 143 188 245 318 379 449
#     4  10  23  44  72 106 146 189 241 312 384 460
#     4  10  24  41  74 102 139 193 249 300 382 458
#     4  12  25  41  70 101 143 193 248 311 371 468
#
# _framework density 25.339922000000001
#
# number of rings (size 3 to 8) (size 9 to 14) (size 15 to 20)
#    0.000    1.200    4.000    1.200    2.800    5.600 
#    0.000    0.000    0.000    7.800    0.000    0.000 
#    0.000    0.000    0.000    0.000    0.000    0.000 
#
# Total GULP energy -223032.376027 kJ/mol
# GULP energy per Si atom -5575.809401 kJ/mol
# Density = 2.528225 g / cm^3
# Si number density = 25.339922 Si / 1000 Ang^3
#
#
#
# Elastic Constant Matrix: (Units=GPa)
#
#
# Indices 1 2 3 4 5 6 
#
# 1 226.0316 30.6586 30.3776 0.0000 0.0000 0.0000
# 2 30.6586 83.4481 25.7851 0.0000 0.0000 0.0000
# 3 30.3776 25.7851 92.0620 0.0000 0.0000 0.0000
# 4 0.0000 0.0000 0.0000 24.0019 0.0000 0.0000
# 5 0.0000 0.0000 0.0000 0.0000 35.9175 0.0000
# 6 0.0000 0.0000 0.0000 0.0000 0.0000 40.3309
#
#
#
# Elastic Compliance Matrix: (Units=1/GPa)
#
#
# Indices 1 2 3 4 5 6 
#
# 1 0.004772 -0.001387 -0.001186 0.000000 0.000000 0.000000
# 2 -0.001387 0.013522 -0.003330 0.000000 0.000000 0.000000
# 3 -0.001186 -0.003330 0.012186 0.000000 0.000000 0.000000
# 4 0.000000 0.000000 0.000000 0.041663 0.000000 0.000000
# 5 0.000000 0.000000 0.000000 0.000000 0.027842 0.000000
# 6 0.000000 0.000000 0.000000 0.000000 0.000000 0.024795
#
#
# Mechanical properties :
#
#
# Convention : Reuss Voigt Hill
#
# Bulk Modulus (GPa) = 53.54805 63.90937 58.72871
# Shear Modulus (GPa) = 35.01173 41.03143 38.02158
#
# Velocity S-wave (km/s) = 3.72113 4.02834 3.87778
# Velocity P-wave (km/s) = 6.29605 6.84926 6.57847
#
# Compressibility (1/GPa) = 0.01867482
#
# Stress axis : x y z
#
# Youngs Moduli (GPa) = 209.57137 73.95474 82.05988
#
# Poissons Ratio (x) = 0.10254 0.09733
# Poissons Ratio (y) = 0.29059 0.27324
# Poissons Ratio (z) = 0.24858 0.24625
#
# Static dielectric constant tensor:
#      x y z
#    x 2.123960 0.000000 0.000000 
#    y 0.000000 2.017080 0.000000 
#    z 0.000000 0.000000 2.247450 
# 
# From -- ./inp_files/29925.got.cif
#   From: 2010.05.17/outbox.cif.g08.bks.cpg/sg70_15_cif.got.tgz:29925.got - 2010.06.03 15:57:51.
