data_PCOD9516479
_publ_section_title
;
Structure prediction by ZEFSAII (Michael W. Deem and Ramdas Pophale) SiO2 
 PCOD9516479
Probable space group: F D D D
;
_chemical_formula_sum "Si O2"
_cell_formula_units_Z 160
_cell_length_a 13.793563
_cell_length_b 21.188927
_cell_length_c 24.848197
_cell_angle_alpha 90.000000
_cell_angle_beta 90.000000
_cell_angle_gamma 90.000000
_cell_volume 7262.402403
_symmetry_space_group_name_H-M "F D D D"
_symmetry_group_IT_number 70
_space_group.IT_coordinate_system_code '2'
_symmetry_cell_setting 'orthorhombic'
loop_
_space_group_symop_operation_xyz
x,y,z
1/4-x,1/4-y,z
x,1/4-y,1/4-z
1/4-x,y,1/4-z
-x,-y,-z
3/4+x,3/4+y,-z
-x,3/4+y,3/4+z
3/4+x,-y,3/4+z
x,1/2+y,1/2+z
1/4-x,3/4-y,1/2+z
x,3/4-y,3/4-z
1/4-x,1/2+y,3/4-z
-x,1/2-y,1/2-z
3/4+x,1/4+y,1/2-z
-x,1/4+y,1/4+z
3/4+x,1/2-y,1/4+z
1/2+x,y,1/2+z
3/4-x,1/4-y,1/2+z
1/2+x,1/4-y,3/4-z
3/4-x,y,3/4-z
1/2-x,-y,1/2-z
1/4+x,3/4+y,1/2-z
1/2-x,3/4+y,1/4+z
1/4+x,-y,1/4+z
1/2+x,1/2+y,z
3/4-x,3/4-y,z
1/2+x,3/4-y,1/4-z
3/4-x,1/2+y,1/4-z
1/2-x,1/2-y,-z
1/4+x,1/4+y,-z
1/2-x,1/4+y,3/4+z
1/4+x,1/2-y,3/4+z
loop_
_atom_site_type_symbol
_atom_site_label
_atom_site_fract_x
_atom_site_fract_y
_atom_site_fract_z
Si Si1 0.577671 0.185652 0.566400
Si Si2 0.723214 0.782955 0.055358
Si Si3 0.418616 0.525553 0.656484
Si Si4 0.328663 0.676427 0.815870
Si Si5 0.147934 0.415594 0.298333
O O1 0.625000 0.125000 0.535902
O O2 0.625000 0.181275 0.625000
O O3 0.612634 0.256783 0.556675
O O4 0.465589 0.174230 0.561911
O O5 0.810209 0.755027 0.092332
O O6 0.718439 0.857265 0.059398
O O7 0.750000 0.750000 0.000000
O O8 0.493811 0.478401 0.684513
O O9 0.447839 0.541811 0.594517
O O10 0.419098 0.592492 0.687806
O O11 0.375000 0.679254 0.875000
O O12 0.402018 0.682403 0.764864
#
# Coordination Sequence:
#
# PCOD9516479 Si02
#       5
#    32  32  32  32  32
#     4  11  17  32  62  97 133 168 216 280 353 415
#     4  12  21  38  65 102 143 179 223 295 367 426
#     4  11  23  44  68  99 139 189 238 288 354 436
#     4  12  28  43  65 102 146 190 242 300 352 418
#     4  11  23  43  69  99 138 186 240 291 354 430
#
# _framework density 22.031276999999999
#
# number of rings (size 3 to 8) (size 9 to 14) (size 15 to 20)
#    0.000    0.600    6.000    3.600    0.000    0.800 
#    0.000    2.000    0.000    0.000    0.000    0.000 
#    0.000    0.000    0.000    0.000    0.000    0.000 
#
# Total GULP energy -222892.429890 kJ/mol
# GULP energy per Si atom -5572.310747 kJ/mol
# Density = 2.198113 g / cm^3
# Si number density = 22.031277 Si / 1000 Ang^3
#
#
#
# Elastic Constant Matrix: (Units=GPa)
#
#
# Indices 1 2 3 4 5 6 
#
# 1 32.8089 39.2314 20.2551 0.0000 0.0000 0.0000
# 2 39.2314 160.5864 41.9629 0.0000 0.0000 0.0000
# 3 20.2551 41.9629 142.8179 0.0000 0.0000 0.0000
# 4 0.0000 0.0000 0.0000 27.0691 0.0000 0.0000
# 5 0.0000 0.0000 0.0000 0.0000 32.5942 0.0000
# 6 0.0000 0.0000 0.0000 0.0000 0.0000 46.4538
#
#
#
# Elastic Compliance Matrix: (Units=1/GPa)
#
#
# Indices 1 2 3 4 5 6 
#
# 1 0.044512 -0.009992 -0.003377 0.000000 0.000000 0.000000
# 2 -0.009992 0.008988 -0.001224 0.000000 0.000000 0.000000
# 3 -0.003377 -0.001224 0.007840 0.000000 0.000000 0.000000
# 4 0.000000 0.000000 0.000000 0.036942 0.000000 0.000000
# 5 0.000000 0.000000 0.000000 0.000000 0.030680 0.000000
# 6 0.000000 0.000000 0.000000 0.000000 0.000000 0.021527
#
#
# Mechanical properties :
#
#
# Convention : Reuss Voigt Hill
#
# Bulk Modulus (GPa) = 31.09914 59.90134 45.50024
# Shear Modulus (GPa) = 26.26127 36.87435 31.56781
#
# Velocity S-wave (km/s) = 3.45628 4.09556 3.78942
# Velocity P-wave (km/s) = 5.48401 7.04365 6.31219
#
# Compressibility (1/GPa) = 0.03215523
#
# Stress axis : x y z
#
# Youngs Moduli (GPa) = 22.46563 111.25947 127.54375
#
# Poissons Ratio (x) = 1.11170 0.43073
# Poissons Ratio (y) = 0.22448 0.15608
# Poissons Ratio (z) = 0.07587 0.13615
#
# Static dielectric constant tensor:
#      x y z
#    x 1.888560 0.000000 0.000000 
#    y 0.000000 1.825130 0.000000 
#    z 0.000000 0.000000 2.116440 
# 
# From -- ./inp_files/58525.got.cif
#   From: 2010.05.17/outbox.cif.g08.bks.cpg/sg70_30_cif.got.tgz:58525.got - 2010.06.03 15:57:51.
