data_PCOD9516334
_publ_section_title
;
Structure prediction by ZEFSAII (Michael W. Deem and Ramdas Pophale) SiO2 
 PCOD9516334
Probable space group: F D D D
;
_chemical_formula_sum "Si O2"
_cell_formula_units_Z 176
_cell_length_a 12.023206
_cell_length_b 25.376955
_cell_length_c 25.265063
_cell_angle_alpha 90.000000
_cell_angle_beta 90.000000
_cell_angle_gamma 90.000000
_cell_volume 7708.682937
_symmetry_space_group_name_H-M "F D D D"
_symmetry_group_IT_number 70
_space_group.IT_coordinate_system_code '2'
_symmetry_cell_setting 'orthorhombic'
loop_
_space_group_symop_operation_xyz
x,y,z
1/4-x,1/4-y,z
x,1/4-y,1/4-z
1/4-x,y,1/4-z
-x,-y,-z
3/4+x,3/4+y,-z
-x,3/4+y,3/4+z
3/4+x,-y,3/4+z
x,1/2+y,1/2+z
1/4-x,3/4-y,1/2+z
x,3/4-y,3/4-z
1/4-x,1/2+y,3/4-z
-x,1/2-y,1/2-z
3/4+x,1/4+y,1/2-z
-x,1/4+y,1/4+z
3/4+x,1/2-y,1/4+z
1/2+x,y,1/2+z
3/4-x,1/4-y,1/2+z
1/2+x,1/4-y,3/4-z
3/4-x,y,3/4-z
1/2-x,-y,1/2-z
1/4+x,3/4+y,1/2-z
1/2-x,3/4+y,1/4+z
1/4+x,-y,1/4+z
1/2+x,1/2+y,z
3/4-x,3/4-y,z
1/2+x,3/4-y,1/4-z
3/4-x,1/2+y,1/4-z
1/2-x,1/2-y,-z
1/4+x,1/4+y,-z
1/2-x,1/4+y,3/4+z
1/4+x,1/2-y,3/4+z
loop_
_atom_site_type_symbol
_atom_site_label
_atom_site_fract_x
_atom_site_fract_y
_atom_site_fract_z
Si Si1 0.830491 0.485287 0.515060
Si Si2 0.875000 0.875000 0.245802
Si Si3 0.625000 0.625000 0.212772
Si Si4 0.336518 0.263836 0.454565
Si Si5 0.296363 0.565663 0.926582
Si Si6 0.607181 0.489199 0.381239
Si Si7 0.809319 0.125000 0.625000
O O1 0.859805 0.427507 0.496057
O O2 0.699873 0.484914 0.530686
O O3 0.856483 0.529751 0.471102
O O4 0.883009 0.500599 0.570361
O O5 0.887191 0.825160 0.284460
O O6 0.767940 0.863293 0.207291
O O7 0.729371 0.615119 0.174612
O O8 0.250000 0.250000 0.500000
O O9 0.267759 0.250697 0.401610
O O10 0.375000 0.576998 0.875000
O O11 0.195132 0.526486 0.910420
O O12 0.624210 0.427166 0.389681
#
# Coordination Sequence:
#
# PCOD9516334 Si02
#       7
#    32  16  16  32  32  32  16
#     4  11  25  45  72 104 142 192 239 299 361 436
#     4  10  24  45  75 107 135 194 246 288 368 434
#     4  11  22  47  70 103 143 192 249 299 364 428
#     4  11  22  49  73  99 148 186 237 301 362 426
#     4  11  24  49  69 102 150 189 237 305 356 428
#     4  12  25  45  70 107 147 190 241 301 362 432
#     4  11  24  40  75 102 142 198 247 300 355 426
#
# _framework density 22.831396999999999
#
# number of rings (size 3 to 8) (size 9 to 14) (size 15 to 20)
#    0.000    0.909    5.455    1.636    5.091    3.636 
#    6.545    0.000    0.000    0.000    0.000    0.000 
#    0.000    0.000    0.000    0.000    0.000    0.000 
#
# Total GULP energy -245940.665935 kJ/mol
# GULP energy per Si atom -5589.560589 kJ/mol
# Density = 2.277943 g / cm^3
# Si number density = 22.831397 Si / 1000 Ang^3
#
#
#
# Elastic Constant Matrix: (Units=GPa)
#
#
# Indices 1 2 3 4 5 6 
#
# 1 62.1301 21.7907 23.4603 0.0000 0.0000 0.0000
# 2 21.7907 84.9076 19.9765 0.0000 0.0000 0.0000
# 3 23.4603 19.9765 126.0256 0.0000 0.0000 0.0000
# 4 0.0000 0.0000 0.0000 33.8887 0.0000 0.0000
# 5 0.0000 0.0000 0.0000 0.0000 18.5074 0.0000
# 6 0.0000 0.0000 0.0000 0.0000 0.0000 212.6577
#
#
#
# Elastic Compliance Matrix: (Units=1/GPa)
#
#
# Indices 1 2 3 4 5 6 
#
# 1 0.018599 -0.004112 -0.002810 0.000000 0.000000 0.000000
# 2 -0.004112 0.013143 -0.001318 0.000000 0.000000 0.000000
# 3 -0.002810 -0.001318 0.008667 0.000000 0.000000 0.000000
# 4 0.000000 0.000000 0.000000 0.029508 0.000000 0.000000
# 5 0.000000 0.000000 0.000000 0.000000 0.054032 0.000000
# 6 0.000000 0.000000 0.000000 0.000000 0.000000 0.004702
#
#
# Mechanical properties :
#
#
# Convention : Reuss Voigt Hill
#
# Bulk Modulus (GPa) = 41.79200 44.83538 43.31369
# Shear Modulus (GPa) = 32.65669 66.86648 49.76158
#
# Velocity S-wave (km/s) = 3.78609 5.41762 4.67360
# Velocity P-wave (km/s) = 6.12021 7.66906 6.93799
#
# Compressibility (1/GPa) = 0.02392802
#
# Stress axis : x y z
#
# Youngs Moduli (GPa) = 53.76735 76.08705 115.38061
#
# Poissons Ratio (x) = 0.31287 0.32427
# Poissons Ratio (y) = 0.22109 0.15205
# Poissons Ratio (z) = 0.15111 0.10027
#
# Static dielectric constant tensor:
#      x y z
#    x 1.874810 0.000000 0.000000 
#    y 0.000000 2.033270 0.000000 
#    z 0.000000 0.000000 2.106990 
# 
# From -- ./inp_files/57802.got.cif
#   From: 2010.05.17/outbox.cif.g08.bks.cpg/sg70_29_cif.got.tgz:57802.got - 2010.06.03 15:57:51.
