data_PCOD9516173
_publ_section_title
;
Structure prediction by ZEFSAII (Michael W. Deem and Ramdas Pophale) SiO2 
 PCOD9516173
Probable space group: F D D D
;
_chemical_formula_sum "Si O2"
_cell_formula_units_Z 160
_cell_length_a 23.732064
_cell_length_b 20.572991
_cell_length_c 15.253331
_cell_angle_alpha 90.000000
_cell_angle_beta 90.000000
_cell_angle_gamma 90.000000
_cell_volume 7447.279297
_symmetry_space_group_name_H-M "F D D D"
_symmetry_group_IT_number 70
_space_group.IT_coordinate_system_code '2'
_symmetry_cell_setting 'orthorhombic'
loop_
_space_group_symop_operation_xyz
x,y,z
1/4-x,1/4-y,z
x,1/4-y,1/4-z
1/4-x,y,1/4-z
-x,-y,-z
3/4+x,3/4+y,-z
-x,3/4+y,3/4+z
3/4+x,-y,3/4+z
x,1/2+y,1/2+z
1/4-x,3/4-y,1/2+z
x,3/4-y,3/4-z
1/4-x,1/2+y,3/4-z
-x,1/2-y,1/2-z
3/4+x,1/4+y,1/2-z
-x,1/4+y,1/4+z
3/4+x,1/2-y,1/4+z
1/2+x,y,1/2+z
3/4-x,1/4-y,1/2+z
1/2+x,1/4-y,3/4-z
3/4-x,y,3/4-z
1/2-x,-y,1/2-z
1/4+x,3/4+y,1/2-z
1/2-x,3/4+y,1/4+z
1/4+x,-y,1/4+z
1/2+x,1/2+y,z
3/4-x,3/4-y,z
1/2+x,3/4-y,1/4-z
3/4-x,1/2+y,1/4-z
1/2-x,1/2-y,-z
1/4+x,1/4+y,-z
1/2-x,1/4+y,3/4+z
1/4+x,1/2-y,3/4+z
loop_
_atom_site_type_symbol
_atom_site_label
_atom_site_fract_x
_atom_site_fract_y
_atom_site_fract_z
Si Si1 0.250107 0.621624 0.522005
Si Si2 0.648599 0.056617 0.772583
Si Si3 0.235230 0.846488 0.958609
Si Si4 0.047828 0.043472 0.382853
Si Si5 0.872816 0.661566 0.974583
O O1 0.235029 0.625000 0.625000
O O2 0.214901 0.680002 0.475705
O O3 0.231344 0.559847 0.461782
O O4 0.316568 0.632048 0.516133
O O5 0.625000 0.125000 0.733445
O O6 0.614083 0.050782 0.863333
O O7 0.634055 0.989507 0.726157
O O8 0.267357 0.875000 0.875000
O O9 0.215214 0.775852 0.925229
O O10 0.271970 0.842209 0.045907
O O11 0.179610 0.888856 0.978319
O O12 0.875000 0.638223 0.875000
#
# Coordination Sequence:
#
# PCOD9516173 Si02
#       5
#    32  32  32  32  32
#     4  11  25  44  69 107 142 188 238 297 369 441
#     4  10  24  42  64  99 144 183 229 301 365 425
#     4  11  22  44  74 101 139 192 241 302 357 424
#     4  10  23  44  68 102 142 184 239 298 359 429
#     4  12  24  43  71 104 139 193 246 294 363 445
#
# _framework density 21.484356999999999
#
# number of rings (size 3 to 8) (size 9 to 14) (size 15 to 20)
#    0.000    1.200    4.000    1.200    5.600    0.800 
#    7.200    0.000    0.000    0.000    0.000    0.000 
#    0.000    0.000    0.000    0.000    0.000    0.000 
#
# Total GULP energy -223055.223355 kJ/mol
# GULP energy per Si atom -5576.380584 kJ/mol
# Density = 2.143546 g / cm^3
# Si number density = 21.484357 Si / 1000 Ang^3
#
#
#
# Elastic Constant Matrix: (Units=GPa)
#
#
# Indices 1 2 3 4 5 6 
#
# 1 72.9751 -12.7788 31.3097 0.0000 0.0000 0.0000
# 2 -12.7788 52.1763 -0.0685 0.0000 0.0000 0.0000
# 3 31.3097 -0.0685 125.5917 0.0000 0.0000 0.0000
# 4 0.0000 0.0000 0.0000 28.5272 0.0000 0.0000
# 5 0.0000 0.0000 0.0000 0.0000 26.4843 0.0000
# 6 0.0000 0.0000 0.0000 0.0000 0.0000 24.6472
#
#
#
# Elastic Compliance Matrix: (Units=1/GPa)
#
#
# Indices 1 2 3 4 5 6 
#
# 1 0.016116 0.003942 -0.004016 0.000000 0.000000 0.000000
# 2 0.003942 0.020130 -0.000972 0.000000 0.000000 0.000000
# 3 -0.004016 -0.000972 0.008963 0.000000 0.000000 0.000000
# 4 0.000000 0.000000 0.000000 0.035054 0.000000 0.000000
# 5 0.000000 0.000000 0.000000 0.000000 0.037758 0.000000
# 6 0.000000 0.000000 0.000000 0.000000 0.000000 0.040573
#
#
# Mechanical properties :
#
#
# Convention : Reuss Voigt Hill
#
# Bulk Modulus (GPa) = 23.19199 31.96312 27.57755
# Shear Modulus (GPa) = 28.56195 31.41712 29.98954
#
# Velocity S-wave (km/s) = 3.65009 3.82819 3.74020
# Velocity P-wave (km/s) = 5.34626 5.86939 5.61392
#
# Compressibility (1/GPa) = 0.04311833
#
# Stress axis : x y z
#
# Youngs Moduli (GPa) = 62.04830 49.67726 111.57143
#
# Poissons Ratio (x) = -0.19582 0.44803
# Poissons Ratio (y) = -0.24459 0.10842
# Poissons Ratio (z) = 0.24916 0.04827
#
# Static dielectric constant tensor:
#      x y z
#    x 1.804440 0.000000 0.000000 
#    y 0.000000 1.823940 0.000000 
#    z 0.000000 0.000000 1.772100 
# 
# From -- ./inp_files/28651.got.cif
#   From: 2010.05.17/outbox.cif.g08.bks.cpg/sg70_15_cif.got.tgz:28651.got - 2010.06.03 15:57:51.
