data_PCOD9516053
_publ_section_title
;
Structure prediction by ZEFSAII (Michael W. Deem and Ramdas Pophale) SiO2 
 PCOD9516053
Probable space group: F D D D
;
_chemical_formula_sum "Si O2"
_cell_formula_units_Z 160
_cell_length_a 16.930296
_cell_length_b 18.130053
_cell_length_c 24.838815
_cell_angle_alpha 90.000000
_cell_angle_beta 90.000000
_cell_angle_gamma 90.000000
_cell_volume 7624.203816
_symmetry_space_group_name_H-M "F D D D"
_symmetry_group_IT_number 70
_space_group.IT_coordinate_system_code '2'
_symmetry_cell_setting 'orthorhombic'
loop_
_space_group_symop_operation_xyz
x,y,z
1/4-x,1/4-y,z
x,1/4-y,1/4-z
1/4-x,y,1/4-z
-x,-y,-z
3/4+x,3/4+y,-z
-x,3/4+y,3/4+z
3/4+x,-y,3/4+z
x,1/2+y,1/2+z
1/4-x,3/4-y,1/2+z
x,3/4-y,3/4-z
1/4-x,1/2+y,3/4-z
-x,1/2-y,1/2-z
3/4+x,1/4+y,1/2-z
-x,1/4+y,1/4+z
3/4+x,1/2-y,1/4+z
1/2+x,y,1/2+z
3/4-x,1/4-y,1/2+z
1/2+x,1/4-y,3/4-z
3/4-x,y,3/4-z
1/2-x,-y,1/2-z
1/4+x,3/4+y,1/2-z
1/2-x,3/4+y,1/4+z
1/4+x,-y,1/4+z
1/2+x,1/2+y,z
3/4-x,3/4-y,z
1/2+x,3/4-y,1/4-z
3/4-x,1/2+y,1/4-z
1/2-x,1/2-y,-z
1/4+x,1/4+y,-z
1/2-x,1/4+y,3/4+z
1/4+x,1/2-y,3/4+z
loop_
_atom_site_type_symbol
_atom_site_label
_atom_site_fract_x
_atom_site_fract_y
_atom_site_fract_z
Si Si1 0.501472 0.707901 0.060355
Si Si2 0.166306 0.469944 0.183273
Si Si3 0.250489 0.704852 0.564255
Si Si4 0.872360 0.686541 0.987592
Si Si5 0.847134 0.956375 0.207446
O O1 0.523293 0.625742 0.041298
O O2 0.520058 0.707898 0.123325
O O3 0.550384 0.767207 0.026999
O O4 0.410376 0.732069 0.059324
O O5 0.125000 0.478009 0.125000
O O6 0.135474 0.394427 0.212623
O O7 0.154214 0.534122 0.227541
O O8 0.261330 0.465790 0.181192
O O9 0.201613 0.772908 0.541033
O O10 0.343786 0.699709 0.549200
O O11 0.875000 0.875000 0.192873
#
# Coordination Sequence:
#
# PCOD9516053 Si02
#       5
#    32  32  32  32  32
#     4  11  21  41  63  92 131 169 212 273 325 395
#     4  11  24  43  67  94 129 176 225 276 335 395
#     4  10  23  38  63  96 128 171 213 263 340 390
#     4  11  21  39  64  96 131 168 213 270 328 401
#     4  11  24  43  65  95 131 173 224 276 332 397
#
# _framework density 20.985797000000002
#
# number of rings (size 3 to 8) (size 9 to 14) (size 15 to 20)
#    0.000    1.200    4.000    2.400    0.000    3.600 
#    0.000    0.000    0.000    0.000    0.000    0.000 
#    0.000    0.000    0.000    0.000    0.000    0.000 
#
# Total GULP energy -222816.649720 kJ/mol
# GULP energy per Si atom -5570.416243 kJ/mol
# Density = 2.093803 g / cm^3
# Si number density = 20.985797 Si / 1000 Ang^3
#
#
#
# Elastic Constant Matrix: (Units=GPa)
#
#
# Indices 1 2 3 4 5 6 
#
# 1 107.6187 19.8771 23.9249 0.0000 0.0000 0.0000
# 2 19.8771 66.2162 2.4212 0.0000 0.0000 0.0000
# 3 23.9249 2.4212 46.7620 0.0000 0.0000 0.0000
# 4 0.0000 0.0000 0.0000 18.7416 0.0000 0.0000
# 5 0.0000 0.0000 0.0000 0.0000 26.6071 0.0000
# 6 0.0000 0.0000 0.0000 0.0000 0.0000 25.1014
#
#
#
# Elastic Compliance Matrix: (Units=1/GPa)
#
#
# Indices 1 2 3 4 5 6 
#
# 1 0.011096 -0.003129 -0.005515 0.000000 0.000000 0.000000
# 2 -0.003129 0.016013 0.000772 0.000000 0.000000 0.000000
# 3 -0.005515 0.000772 0.024167 0.000000 0.000000 0.000000
# 4 0.000000 0.000000 0.000000 0.053357 0.000000 0.000000
# 5 0.000000 0.000000 0.000000 0.000000 0.037584 0.000000
# 6 0.000000 0.000000 0.000000 0.000000 0.000000 0.039838
#
#
# Mechanical properties :
#
#
# Convention : Reuss Voigt Hill
#
# Bulk Modulus (GPa) = 28.14443 34.78260 31.46351
# Shear Modulus (GPa) = 23.84994 25.71492 24.78243
#
# Velocity S-wave (km/s) = 3.37483 3.50430 3.44017
# Velocity P-wave (km/s) = 5.35035 5.74315 5.55023
#
# Compressibility (1/GPa) = 0.03553102
#
# Stress axis : x y z
#
# Youngs Moduli (GPa) = 90.12180 62.44861 41.37940
#
# Poissons Ratio (x) = 0.19541 0.22821
# Poissons Ratio (y) = 0.28201 -0.03194
# Poissons Ratio (z) = 0.49703 -0.04820
#
# Static dielectric constant tensor:
#      x y z
#    x 1.807190 0.000000 0.000000 
#    y 0.000000 1.760680 0.000000 
#    z 0.000000 0.000000 1.892370 
# 
# From -- ./inp_files/38427.got.cif
#   From: 2010.05.17/outbox.cif.g08.bks.cpg/sg70_20_cif.got.tgz:38427.got - 2010.06.03 15:57:51.
