data_PCOD9516388
_publ_section_title
;
Structure prediction by ZEFSAII (Michael W. Deem and Ramdas Pophale) SiO2 
 PCOD9516388
Probable space group: F D D D
;
_chemical_formula_sum "Si O2"
_cell_formula_units_Z 208
_cell_length_a 15.819566
_cell_length_b 19.853087
_cell_length_c 29.951598
_cell_angle_alpha 90.000000
_cell_angle_beta 90.000000
_cell_angle_gamma 90.000000
_cell_volume 9406.815121
_symmetry_space_group_name_H-M "F D D D"
_symmetry_group_IT_number 70
_space_group.IT_coordinate_system_code '2'
_symmetry_cell_setting 'orthorhombic'
loop_
_space_group_symop_operation_xyz
x,y,z
1/4-x,1/4-y,z
x,1/4-y,1/4-z
1/4-x,y,1/4-z
-x,-y,-z
3/4+x,3/4+y,-z
-x,3/4+y,3/4+z
3/4+x,-y,3/4+z
x,1/2+y,1/2+z
1/4-x,3/4-y,1/2+z
x,3/4-y,3/4-z
1/4-x,1/2+y,3/4-z
-x,1/2-y,1/2-z
3/4+x,1/4+y,1/2-z
-x,1/4+y,1/4+z
3/4+x,1/2-y,1/4+z
1/2+x,y,1/2+z
3/4-x,1/4-y,1/2+z
1/2+x,1/4-y,3/4-z
3/4-x,y,3/4-z
1/2-x,-y,1/2-z
1/4+x,3/4+y,1/2-z
1/2-x,3/4+y,1/4+z
1/4+x,-y,1/4+z
1/2+x,1/2+y,z
3/4-x,3/4-y,z
1/2+x,3/4-y,1/4-z
3/4-x,1/2+y,1/4-z
1/2-x,1/2-y,-z
1/4+x,1/4+y,-z
1/2-x,1/4+y,3/4+z
1/4+x,1/2-y,3/4+z
loop_
_atom_site_type_symbol
_atom_site_label
_atom_site_fract_x
_atom_site_fract_y
_atom_site_fract_z
Si Si1 0.625000 0.625000 0.693490
Si Si2 0.489216 0.138989 0.979760
Si Si3 0.316738 0.270126 0.087630
Si Si4 0.947387 0.641023 0.444741
Si Si5 0.426124 0.275175 0.002197
Si Si6 0.918848 0.803035 0.833889
Si Si7 0.125000 0.125000 0.407385
Si Si8 0.125000 0.750983 0.125000
O O1 0.541558 0.626688 0.725285
O O2 0.614048 0.693700 0.664413
O O3 0.392794 0.117673 0.969520
O O4 0.544988 0.113815 0.938864
O O5 0.486420 0.219731 0.980837
O O6 0.242061 0.323470 0.074026
O O7 0.381079 0.255649 0.048082
O O8 0.266501 0.201724 0.095772
O O9 0.361805 0.309281 0.127189
O O10 0.933106 0.694941 0.403937
O O11 0.014911 0.664214 0.482148
O O12 0.352546 0.282229 0.966196
O O13 0.875000 0.763705 0.875000
O O14 0.875000 0.875000 0.833720
#
# Coordination Sequence:
#
# PCOD9516388 Si02
#       8
#    16  32  32  32  32  32  16  16
#     4  10  24  51  66 104 144 188 231 322 372 450
#     4  11  25  44  72 103 147 186 249 306 380 438
#     4  12  24  43  71 106 151 188 249 310 363 451
#     4  12  24  42  73 107 134 200 244 303 374 449
#     4  12  24  45  70 109 145 192 244 303 376 445
#     4  11  25  43  68 100 148 197 237 300 375 450
#     4  11  24  45  68 109 141 192 255 316 369 456
#     4  11  24  44  76  96 143 180 248 288 383 444
#
# _framework density 22.111629000000001
#
# number of rings (size 3 to 8) (size 9 to 14) (size 15 to 20)
#    0.000    0.615    4.615    3.231    3.231    0.615 
#    2.769    0.000    0.000    0.000    0.000    0.000 
#    0.000    0.000    0.000    0.000    0.000    0.000 
#
# Total GULP energy -289515.279601 kJ/mol
# GULP energy per Si atom -5567.601531 kJ/mol
# Density = 2.206130 g / cm^3
# Si number density = 22.111629 Si / 1000 Ang^3
#
#
#
# Elastic Constant Matrix: (Units=GPa)
#
#
# Indices 1 2 3 4 5 6 
#
# 1 83.7016 5.5669 18.5354 0.0000 0.0000 0.0000
# 2 5.5669 68.6868 9.5909 0.0000 0.0000 0.0000
# 3 18.5354 9.5909 100.9094 0.0000 0.0000 0.0000
# 4 0.0000 0.0000 0.0000 114.4141 0.0000 0.0000
# 5 0.0000 0.0000 0.0000 0.0000 -9.7698 0.0000
# 6 0.0000 0.0000 0.0000 0.0000 0.0000 53.4542
#
#
#
# Elastic Compliance Matrix: (Units=1/GPa)
#
#
# Indices 1 2 3 4 5 6 
#
# 1 0.012487 -0.000701 -0.002227 0.000000 0.000000 0.000000
# 2 -0.000701 0.014794 -0.001277 0.000000 0.000000 0.000000
# 3 -0.002227 -0.001277 0.010440 0.000000 0.000000 0.000000
# 4 0.000000 0.000000 0.000000 0.008740 0.000000 0.000000
# 5 0.000000 0.000000 0.000000 0.000000 -0.102356 0.000000
# 6 0.000000 0.000000 0.000000 0.000000 0.000000 0.018708
#
#
# Mechanical properties :
#
#
# Convention : Reuss Voigt Hill
#
# Bulk Modulus (GPa) = 34.11745 35.63159 34.87452
# Shear Modulus (GPa) = -263.07795 46.25999 -108.40898
#
# Velocity S-wave (km/s) = -10.91950 4.57892 -7.00960
# Velocity P-wave (km/s) = 11.97988 6.64114 7.05027
#
# Compressibility (1/GPa) = 0.02931051
#
# Stress axis : x y z
#
# Youngs Moduli (GPa) = 80.08332 67.59495 95.78222
#
# Poissons Ratio (x) = 0.04739 0.21331
# Poissons Ratio (y) = 0.05615 0.12234
# Poissons Ratio (z) = 0.17835 0.08634
#
# Static dielectric constant tensor:
#      x y z
#    x 1.886690 0.000000 0.000000 
#    y 0.000000 1.955030 0.000000 
#    z 0.000000 0.000000 1.927330 
# 
# From -- ./inp_files/59659.got.cif
#   From: 2010.05.17/outbox.cif.g08.bks.cpg/sg70_30_cif.got.tgz:59659.got - 2010.06.03 15:57:51.
