data_PCOD9516025
_publ_section_title
;
Structure prediction by ZEFSAII (Michael W. Deem and Ramdas Pophale) SiO2 
 PCOD9516025
Probable space group: F D D D
;
_chemical_formula_sum "Si O2"
_cell_formula_units_Z 112
_cell_length_a 25.789539
_cell_length_b 7.547519
_cell_length_c 27.169523
_cell_angle_alpha 90.000000
_cell_angle_beta 90.000000
_cell_angle_gamma 90.000000
_cell_volume 5288.467111
_symmetry_space_group_name_H-M "F D D D"
_symmetry_group_IT_number 70
_space_group.IT_coordinate_system_code '2'
_symmetry_cell_setting 'orthorhombic'
loop_
_space_group_symop_operation_xyz
x,y,z
1/4-x,1/4-y,z
x,1/4-y,1/4-z
1/4-x,y,1/4-z
-x,-y,-z
3/4+x,3/4+y,-z
-x,3/4+y,3/4+z
3/4+x,-y,3/4+z
x,1/2+y,1/2+z
1/4-x,3/4-y,1/2+z
x,3/4-y,3/4-z
1/4-x,1/2+y,3/4-z
-x,1/2-y,1/2-z
3/4+x,1/4+y,1/2-z
-x,1/4+y,1/4+z
3/4+x,1/2-y,1/4+z
1/2+x,y,1/2+z
3/4-x,1/4-y,1/2+z
1/2+x,1/4-y,3/4-z
3/4-x,y,3/4-z
1/2-x,-y,1/2-z
1/4+x,3/4+y,1/2-z
1/2-x,3/4+y,1/4+z
1/4+x,-y,1/4+z
1/2+x,1/2+y,z
3/4-x,3/4-y,z
1/2+x,3/4-y,1/4-z
3/4-x,1/2+y,1/4-z
1/2-x,1/2-y,-z
1/4+x,1/4+y,-z
1/2-x,1/4+y,3/4+z
1/4+x,1/2-y,3/4+z
loop_
_atom_site_type_symbol
_atom_site_label
_atom_site_fract_x
_atom_site_fract_y
_atom_site_fract_z
Si Si1 0.491142 0.788408 0.661427
Si Si2 0.393704 0.678527 0.713841
Si Si3 0.674447 0.375000 0.375000
Si Si4 0.855136 0.576779 0.426896
O O1 0.502888 0.625000 0.625000
O O2 0.454915 0.693591 0.702624
O O3 0.544110 0.881083 0.678102
O O4 0.459140 0.951712 0.636954
O O5 0.362618 0.576929 0.671187
O O6 0.376854 0.636910 0.769178
O O7 0.375000 0.875000 0.704688
O O8 0.875000 0.657433 0.375000
O O9 0.875000 0.375000 0.425014
#
# Coordination Sequence:
#
# PCOD9516025 Si02
#       4
#    32  32  16  32
#     4  11  24  43  73 102 134 180 231 278 342 408
#     4  10  23  42  70 101 135 179 229 280 342 399
#     4  10  22  46  67 106 137 172 230 290 338 396
#     4  11  26  45  64  96 142 183 224 277 344 403
#
# _framework density 21.178159000000001
#
# number of rings (size 3 to 8) (size 9 to 14) (size 15 to 20)
#    0.000    1.429    1.429    2.571    8.000    0.000 
#    0.000    4.286    0.000    0.000    0.000    0.000 
#    0.000    0.000    0.000    0.000    0.000    0.000 
#
# Total GULP energy -155930.339790 kJ/mol
# GULP energy per Si atom -5568.940707 kJ/mol
# Density = 2.112996 g / cm^3
# Si number density = 21.178159 Si / 1000 Ang^3
#
#
#
# Elastic Constant Matrix: (Units=GPa)
#
#
# Indices 1 2 3 4 5 6 
#
# 1 65.5066 4.6954 9.4612 -0.0001 0.0000 0.0003
# 2 4.6954 96.5835 -2.8171 -0.0004 0.0000 0.0003
# 3 9.4612 -2.8171 110.4620 0.0000 0.0000 0.0002
# 4 -0.0001 -0.0004 0.0000 24.5934 0.0000 0.0001
# 5 0.0000 0.0000 0.0000 0.0000 21.4789 0.0000
# 6 0.0003 0.0003 0.0002 0.0001 0.0000 21.8794
#
#
#
# Elastic Compliance Matrix: (Units=1/GPa)
#
#
# Indices 1 2 3 4 5 6 
#
# 1 0.015517 -0.000794 -0.001349 0.000000 0.000000 0.000000
# 2 -0.000794 0.010402 0.000333 0.000000 0.000000 0.000000
# 3 -0.001349 0.000333 0.009177 0.000000 0.000000 0.000000
# 4 0.000000 0.000000 0.000000 0.040661 0.000000 0.000000
# 5 0.000000 0.000000 0.000000 0.000000 0.046557 0.000000
# 6 0.000000 0.000000 0.000000 0.000000 0.000000 0.045705
#
#
# Mechanical properties :
#
#
# Convention : Reuss Voigt Hill
#
# Bulk Modulus (GPa) = 31.76941 32.80346 32.28643
# Shear Modulus (GPa) = 27.45258 31.00449 29.22853
#
# Velocity S-wave (km/s) = 3.60428 3.83036 3.71904
# Velocity P-wave (km/s) = 5.68812 5.92327 5.80688
#
# Compressibility (1/GPa) = 0.03147682
#
# Stress axis : x y z
#
# Youngs Moduli (GPa) = 64.44372 96.13495 108.96860
#
# Poissons Ratio (x) = 0.07631 0.14703
# Poissons Ratio (y) = 0.05115 -0.03632
# Poissons Ratio (z) = 0.08696 -0.03204
#
# Static dielectric constant tensor:
#      x y z
#    x 1.833530 0.000000 0.000000 
#    y 0.000000 1.825420 0.000000 
#    z 0.000000 0.000000 1.887380 
# 
# From -- ./inp_files/9510.got.cif
#   From: 2010.05.17/outbox.cif.g08.bks.cpg/sg70_5_cif.got.tgz:9510.got - 2010.06.03 15:57:51.
