data_PCOD9516965
_publ_section_title
;
Structure prediction by ZEFSAII (Michael W. Deem and Ramdas Pophale) SiO2 
 PCOD9516965
Probable space group: F D D D
;
_chemical_formula_sum "Si O2"
_cell_formula_units_Z 176
_cell_length_a 23.069149
_cell_length_b 11.009467
_cell_length_c 31.667299
_cell_angle_alpha 90.000000
_cell_angle_beta 90.000000
_cell_angle_gamma 90.000000
_cell_volume 8042.830029
_symmetry_space_group_name_H-M "F D D D"
_symmetry_group_IT_number 70
_space_group.IT_coordinate_system_code '2'
_symmetry_cell_setting 'orthorhombic'
loop_
_space_group_symop_operation_xyz
x,y,z
1/4-x,1/4-y,z
x,1/4-y,1/4-z
1/4-x,y,1/4-z
-x,-y,-z
3/4+x,3/4+y,-z
-x,3/4+y,3/4+z
3/4+x,-y,3/4+z
x,1/2+y,1/2+z
1/4-x,3/4-y,1/2+z
x,3/4-y,3/4-z
1/4-x,1/2+y,3/4-z
-x,1/2-y,1/2-z
3/4+x,1/4+y,1/2-z
-x,1/4+y,1/4+z
3/4+x,1/2-y,1/4+z
1/2+x,y,1/2+z
3/4-x,1/4-y,1/2+z
1/2+x,1/4-y,3/4-z
3/4-x,y,3/4-z
1/2-x,-y,1/2-z
1/4+x,3/4+y,1/2-z
1/2-x,3/4+y,1/4+z
1/4+x,-y,1/4+z
1/2+x,1/2+y,z
3/4-x,3/4-y,z
1/2+x,3/4-y,1/4-z
3/4-x,1/2+y,1/4-z
1/2-x,1/2-y,-z
1/4+x,1/4+y,-z
1/2-x,1/4+y,3/4+z
1/4+x,1/2-y,3/4+z
loop_
_atom_site_type_symbol
_atom_site_label
_atom_site_fract_x
_atom_site_fract_y
_atom_site_fract_z
Si Si1 0.649900 0.383696 0.171608
Si Si2 0.233459 0.233992 0.361933
Si Si3 0.941969 0.436128 0.487872
Si Si4 0.552834 0.854095 0.010347
Si Si5 0.438312 0.434910 0.548817
Si Si6 0.125000 0.625000 0.811819
O O1 0.625000 0.402049 0.125000
O O2 0.707967 0.302282 0.163513
O O3 0.670817 0.506492 0.194390
O O4 0.597761 0.343038 0.203707
O O5 0.234987 0.375000 0.375000
O O6 0.222707 0.170411 0.407207
O O7 0.176379 0.188806 0.337105
O O8 0.944997 0.291498 0.486191
O O9 0.903786 0.468426 0.528985
O O10 0.000000 0.500000 0.500000
O O11 0.484168 0.878452 0.016349
O O12 0.567794 0.926516 0.967454
O O13 0.375000 0.375000 0.550543
#
# Coordination Sequence:
#
# PCOD9516965 Si02
#       6
#    32  32  32  32  32  16
#     4  12  26  49  72 111 151 195 251 313 381 451
#     4  12  27  47  75 107 154 195 257 313 382 462
#     4  12  26  45  77 110 146 197 250 308 386 456
#     4  11  26  47  76 110 150 195 256 313 383 465
#     4  11  26  48  74 109 147 201 249 316 385 453
#     4  12  24  48  71 112 144 194 249 314 374 456
#
# _framework density 21.882845
#
# number of rings (size 3 to 8) (size 9 to 14) (size 15 to 20)
#    0.000    0.364    6.364    1.091    2.545    3.273 
#    0.000    0.000    0.000    0.000    0.000    0.000 
#    0.000    0.000    0.000    0.000    0.000    0.000 
#
# Total GULP energy -245255.956356 kJ/mol
# GULP energy per Si atom -5573.999008 kJ/mol
# Density = 2.183304 g / cm^3
# Si number density = 21.882845 Si / 1000 Ang^3
#
#
#
# Elastic Constant Matrix: (Units=GPa)
#
#
# Indices 1 2 3 4 5 6 
#
# 1 174.5881 56.1077 29.1085 0.0000 0.0000 0.0000
# 2 56.1077 103.8932 20.2056 0.0000 0.0000 0.0000
# 3 29.1085 20.2056 93.2055 0.0000 0.0000 0.0000
# 4 0.0000 0.0000 0.0000 34.9528 0.0000 0.0000
# 5 0.0000 0.0000 0.0000 0.0000 47.8546 0.0000
# 6 0.0000 0.0000 0.0000 0.0000 0.0000 30.4945
#
#
#
# Elastic Compliance Matrix: (Units=1/GPa)
#
#
# Indices 1 2 3 4 5 6 
#
# 1 0.007113 -0.003560 -0.001450 0.000000 0.000000 0.000000
# 2 -0.003560 0.011830 -0.001453 0.000000 0.000000 0.000000
# 3 -0.001450 -0.001453 0.011497 0.000000 0.000000 0.000000
# 4 0.000000 0.000000 0.000000 0.028610 0.000000 0.000000
# 5 0.000000 0.000000 0.000000 0.000000 0.020897 0.000000
# 6 0.000000 0.000000 0.000000 0.000000 0.000000 0.032793
#
#
# Mechanical properties :
#
#
# Convention : Reuss Voigt Hill
#
# Bulk Modulus (GPa) = 57.09218 64.72559 60.90889
# Shear Modulus (GPa) = 38.02184 40.41139 39.21661
#
# Velocity S-wave (km/s) = 4.17288 4.30200 4.23793
# Velocity P-wave (km/s) = 7.02594 7.37013 7.20009
#
# Compressibility (1/GPa) = 0.01751553
#
# Stress axis : x y z
#
# Youngs Moduli (GPa) = 140.57817 84.52907 86.98101
#
# Poissons Ratio (x) = 0.30090 0.12611
# Poissons Ratio (y) = 0.50041 0.12638
# Poissons Ratio (z) = 0.20382 0.12281
#
# Static dielectric constant tensor:
#      x y z
#    x 2.063070 0.000000 0.000000 
#    y 0.000000 1.871080 0.000000 
#    z 0.000000 0.000000 1.857310 
# 
# From -- ./inp_files/67792.got.cif
#   From: 2010.05.17/outbox.cif.g08.bks.cpg/sg70_34_cif.got.tgz:67792.got - 2010.06.03 15:57:51.
