data_PCOD9516663
_publ_section_title
;
Structure prediction by ZEFSAII (Michael W. Deem and Ramdas Pophale) SiO2 
 PCOD9516663
Probable space group: F D D D
;
_chemical_formula_sum "Si O2"
_cell_formula_units_Z 136
_cell_length_a 23.459271
_cell_length_b 12.292337
_cell_length_c 23.234164
_cell_angle_alpha 90.000000
_cell_angle_beta 90.000000
_cell_angle_gamma 90.000000
_cell_volume 6700.018793
_symmetry_space_group_name_H-M "F D D D"
_symmetry_group_IT_number 70
_space_group.IT_coordinate_system_code '2'
_symmetry_cell_setting 'orthorhombic'
loop_
_space_group_symop_operation_xyz
x,y,z
1/4-x,1/4-y,z
x,1/4-y,1/4-z
1/4-x,y,1/4-z
-x,-y,-z
3/4+x,3/4+y,-z
-x,3/4+y,3/4+z
3/4+x,-y,3/4+z
x,1/2+y,1/2+z
1/4-x,3/4-y,1/2+z
x,3/4-y,3/4-z
1/4-x,1/2+y,3/4-z
-x,1/2-y,1/2-z
3/4+x,1/4+y,1/2-z
-x,1/4+y,1/4+z
3/4+x,1/2-y,1/4+z
1/2+x,y,1/2+z
3/4-x,1/4-y,1/2+z
1/2+x,1/4-y,3/4-z
3/4-x,y,3/4-z
1/2-x,-y,1/2-z
1/4+x,3/4+y,1/2-z
1/2-x,3/4+y,1/4+z
1/4+x,-y,1/4+z
1/2+x,1/2+y,z
3/4-x,3/4-y,z
1/2+x,3/4-y,1/4-z
3/4-x,1/2+y,1/4-z
1/2-x,1/2-y,-z
1/4+x,1/4+y,-z
1/2-x,1/4+y,3/4+z
1/4+x,1/2-y,3/4+z
loop_
_atom_site_type_symbol
_atom_site_label
_atom_site_fract_x
_atom_site_fract_y
_atom_site_fract_z
Si Si1 0.717352 0.287181 0.582819
Si Si2 0.375000 0.875000 0.375000
Si Si3 0.306149 0.653952 0.060605
Si Si4 0.767074 0.393383 0.051894
Si Si5 0.935050 0.121104 0.037507
O O1 0.666673 0.200238 0.588371
O O2 0.725522 0.350532 0.642578
O O3 0.700536 0.361951 0.529657
O O4 0.774247 0.218141 0.567602
O O5 0.286094 0.625000 0.125000
O O6 0.305056 0.785241 0.055957
O O7 0.368946 0.604520 0.051385
O O8 0.266896 0.612710 0.008275
O O9 0.799971 0.506682 0.055234
#
# Coordination Sequence:
#
# PCOD9516663 Si02
#       5
#    32   8  32  32  32
#     4  11  23  39  65  94 129 164 212 264 326 388
#     4  12  20  40  64  88 134 164 204 272 312 396
#     4  11  24  40  65  90 125 170 215 262 318 384
#     4  11  22  43  62  90 129 167 211 263 318 385
#     4  11  23  40  63  96 125 165 210 264 324 381
#
# _framework density 20.298451
#
# number of rings (size 3 to 8) (size 9 to 14) (size 15 to 20)
#    0.000    0.941    2.353    4.941    0.000    0.000 
#    0.000    0.000    0.000    4.235    0.000    0.000 
#    0.000    0.000    0.000    0.000    0.000    0.000 
#
# Total GULP energy -190004.562432 kJ/mol
# GULP energy per Si atom -5588.369483 kJ/mol
# Density = 2.025225 g / cm^3
# Si number density = 20.298451 Si / 1000 Ang^3
#
#
#
# Elastic Constant Matrix: (Units=GPa)
#
#
# Indices 1 2 3 4 5 6 
#
# 1 79.2801 -0.3729 30.8087 0.0000 0.0000 0.0000
# 2 -0.3729 30.9093 14.2844 0.0000 0.0000 0.0000
# 3 30.8087 14.2844 166.8498 0.0000 0.0000 0.0000
# 4 0.0000 0.0000 0.0000 22.3134 0.0000 0.0000
# 5 0.0000 0.0000 0.0000 0.0000 0.9209 0.0000
# 6 0.0000 0.0000 0.0000 0.0000 0.0000 3.7735
#
#
#
# Elastic Compliance Matrix: (Units=1/GPa)
#
#
# Indices 1 2 3 4 5 6 
#
# 1 0.013645 0.001384 -0.002638 0.000000 0.000000 0.000000
# 2 0.001384 0.033826 -0.003151 0.000000 0.000000 0.000000
# 3 -0.002638 -0.003151 0.006750 0.000000 0.000000 0.000000
# 4 0.000000 0.000000 0.000000 0.044816 0.000000 0.000000
# 5 0.000000 0.000000 0.000000 0.000000 1.085884 0.000000
# 6 0.000000 0.000000 0.000000 0.000000 0.000000 0.265008
#
#
# Mechanical properties :
#
#
# Convention : Reuss Voigt Hill
#
# Bulk Modulus (GPa) = 22.02162 40.71995 31.37078
# Shear Modulus (GPa) = 3.39241 20.88949 12.14095
#
# Velocity S-wave (km/s) = 1.29418 3.21147 2.44831
# Velocity P-wave (km/s) = 3.62017 5.81855 4.84568
#
# Compressibility (1/GPa) = 0.04540992
#
# Stress axis : x y z
#
# Youngs Moduli (GPa) = 73.28605 29.56319 148.14103
#
# Poissons Ratio (x) = -0.04091 0.39080
# Poissons Ratio (y) = -0.10141 0.46685
# Poissons Ratio (z) = 0.19333 0.09317
#
# Static dielectric constant tensor:
#      x y z
#    x 1.702600 0.000000 0.000000 
#    y 0.000000 1.815120 0.000000 
#    z 0.000000 0.000000 1.757130 
# 
# From -- ./inp_files/18949.got.cif
#   From: 2010.05.17/outbox.cif.g08.bks.cpg/sg70_10_cif.got.tgz:18949.got - 2010.06.03 15:57:51.
