data_PCOD9516933
_publ_section_title
;
Structure prediction by ZEFSAII (Michael W. Deem and Ramdas Pophale) SiO2 
 PCOD9516933
Probable space group: F D D D
;
_chemical_formula_sum "Si O2"
_cell_formula_units_Z 72
_cell_length_a 23.454084
_cell_length_b 10.962857
_cell_length_c 11.855616
_cell_angle_alpha 90.000000
_cell_angle_beta 90.000000
_cell_angle_gamma 90.000000
_cell_volume 3048.360669
_symmetry_space_group_name_H-M "F D D D"
_symmetry_group_IT_number 70
_space_group.IT_coordinate_system_code '2'
_symmetry_cell_setting 'orthorhombic'
loop_
_space_group_symop_operation_xyz
x,y,z
1/4-x,1/4-y,z
x,1/4-y,1/4-z
1/4-x,y,1/4-z
-x,-y,-z
3/4+x,3/4+y,-z
-x,3/4+y,3/4+z
3/4+x,-y,3/4+z
x,1/2+y,1/2+z
1/4-x,3/4-y,1/2+z
x,3/4-y,3/4-z
1/4-x,1/2+y,3/4-z
-x,1/2-y,1/2-z
3/4+x,1/4+y,1/2-z
-x,1/4+y,1/4+z
3/4+x,1/2-y,1/4+z
1/2+x,y,1/2+z
3/4-x,1/4-y,1/2+z
1/2+x,1/4-y,3/4-z
3/4-x,y,3/4-z
1/2-x,-y,1/2-z
1/4+x,3/4+y,1/2-z
1/2-x,3/4+y,1/4+z
1/4+x,-y,1/4+z
1/2+x,1/2+y,z
3/4-x,3/4-y,z
1/2+x,3/4-y,1/4-z
3/4-x,1/2+y,1/4-z
1/2-x,1/2-y,-z
1/4+x,1/4+y,-z
1/2-x,1/4+y,3/4+z
1/4+x,1/2-y,3/4+z
loop_
_atom_site_type_symbol
_atom_site_label
_atom_site_fract_x
_atom_site_fract_y
_atom_site_fract_z
Si Si1 0.375000 0.875000 0.875000
Si Si2 0.816906 0.322878 0.250113
Si Si3 0.536167 0.820642 0.655801
O O1 0.421961 0.771864 0.910453
O O2 0.813567 0.375000 0.375000
O O3 0.875000 0.375000 0.196038
O O4 0.761998 0.363469 0.180688
O O5 0.817312 0.177976 0.275001
O O6 0.500000 0.750000 0.750000
#
# Coordination Sequence:
#
# PCOD9516933 Si02
#       3
#     8  32  32
#     4  12  24  44  74 104 146 180 260 288 384 440
#     4  11  25  47  73 108 149 196 248 305 375 440
#     4  12  25  47  73 108 146 195 245 310 367 446
#
# _framework density 23.619250999999998
#
# number of rings (size 3 to 8) (size 9 to 14) (size 15 to 20)
#    0.000    0.444    4.444    4.000    3.111    0.000 
#    0.000    0.000    0.000    0.000    0.000    0.000 
#    0.000    0.000    0.000    0.000    0.000    0.000 
#
# Total GULP energy -100309.032763 kJ/mol
# GULP energy per Si atom -5572.724042 kJ/mol
# Density = 2.356549 g / cm^3
# Si number density = 23.619251 Si / 1000 Ang^3
#
#
#
# Elastic Constant Matrix: (Units=GPa)
#
#
# Indices 1 2 3 4 5 6 
#
# 1 187.9195 55.7851 25.5135 0.0000 0.0000 0.0000
# 2 55.7851 149.5358 -6.7970 0.0000 0.0000 0.0000
# 3 25.5135 -6.7970 43.6726 0.0000 0.0000 0.0000
# 4 0.0000 0.0000 0.0000 31.5258 0.0000 0.0000
# 5 0.0000 0.0000 0.0000 0.0000 10.6373 0.0000
# 6 0.0000 0.0000 0.0000 0.0000 0.0000 57.8756
#
#
#
# Elastic Compliance Matrix: (Units=1/GPa)
#
#
# Indices 1 2 3 4 5 6 
#
# 1 0.006713 -0.002702 -0.004342 0.000000 0.000000 0.000000
# 2 -0.002702 0.007822 0.002796 0.000000 0.000000 0.000000
# 3 -0.004342 0.002796 0.025869 0.000000 0.000000 0.000000
# 4 0.000000 0.000000 0.000000 0.031720 0.000000 0.000000
# 5 0.000000 0.000000 0.000000 0.000000 0.094009 0.000000
# 6 0.000000 0.000000 0.000000 0.000000 0.000000 0.017278
#
#
# Mechanical properties :
#
#
# Convention : Reuss Voigt Hill
#
# Bulk Modulus (GPa) = 31.33959 58.90344 45.12152
# Shear Modulus (GPa) = 24.68594 40.44950 32.56772
#
# Velocity S-wave (km/s) = 3.23640 4.14280 3.71733
# Velocity P-wave (km/s) = 5.22142 6.91930 6.12943
#
# Compressibility (1/GPa) = 0.03190852
#
# Stress axis : x y z
#
# Youngs Moduli (GPa) = 148.96545 127.83941 38.65559
#
# Poissons Ratio (x) = 0.34538 0.16785
# Poissons Ratio (y) = 0.40246 -0.10807
# Poissons Ratio (z) = 0.64683 -0.35741
#
# Static dielectric constant tensor:
#      x y z
#    x 1.985330 0.000000 0.000000 
#    y 0.000000 1.939360 0.000000 
#    z 0.000000 0.000000 3.206490 
# 
# From -- ./inp_files/13704.got.cif
#   From: 2010.05.17/outbox.cif.g08.bks.cpg/sg70_7_cif.got.tgz:13704.got - 2010.06.03 15:57:51.
