data_PCOD9516237
_publ_section_title
;
Structure prediction by ZEFSAII (Michael W. Deem and Ramdas Pophale) SiO2 
 PCOD9516237
Probable space group: F D D D
;
_chemical_formula_sum "Si O2"
_cell_formula_units_Z 120
_cell_length_a 19.957728
_cell_length_b 11.347061
_cell_length_c 22.614793
_cell_angle_alpha 90.000000
_cell_angle_beta 90.000000
_cell_angle_gamma 90.000000
_cell_volume 5121.381235
_symmetry_space_group_name_H-M "F D D D"
_symmetry_group_IT_number 70
_space_group.IT_coordinate_system_code '2'
_symmetry_cell_setting 'orthorhombic'
loop_
_space_group_symop_operation_xyz
x,y,z
1/4-x,1/4-y,z
x,1/4-y,1/4-z
1/4-x,y,1/4-z
-x,-y,-z
3/4+x,3/4+y,-z
-x,3/4+y,3/4+z
3/4+x,-y,3/4+z
x,1/2+y,1/2+z
1/4-x,3/4-y,1/2+z
x,3/4-y,3/4-z
1/4-x,1/2+y,3/4-z
-x,1/2-y,1/2-z
3/4+x,1/4+y,1/2-z
-x,1/4+y,1/4+z
3/4+x,1/2-y,1/4+z
1/2+x,y,1/2+z
3/4-x,1/4-y,1/2+z
1/2+x,1/4-y,3/4-z
3/4-x,y,3/4-z
1/2-x,-y,1/2-z
1/4+x,3/4+y,1/2-z
1/2-x,3/4+y,1/4+z
1/4+x,-y,1/4+z
1/2+x,1/2+y,z
3/4-x,3/4-y,z
1/2+x,3/4-y,1/4-z
3/4-x,1/2+y,1/4-z
1/2-x,1/2-y,-z
1/4+x,1/4+y,-z
1/2-x,1/4+y,3/4+z
1/4+x,1/2-y,3/4+z
loop_
_atom_site_type_symbol
_atom_site_label
_atom_site_fract_x
_atom_site_fract_y
_atom_site_fract_z
Si Si1 0.490882 0.504226 0.653597
Si Si2 0.388732 0.625000 0.125000
Si Si3 0.125000 0.125000 0.125000
Si Si4 0.820734 0.101908 0.923058
Si Si5 0.344051 0.744143 0.741203
O O1 0.519862 0.625000 0.625000
O O2 0.412098 0.529489 0.654322
O O3 0.503967 0.402515 0.605493
O O4 0.529941 0.487384 0.714992
O O5 0.425043 0.562072 0.178617
O O6 0.167796 0.212972 0.166102
O O7 0.875000 0.150364 0.875000
O O8 0.845578 0.162916 0.982336
O O9 0.375000 0.875000 0.738265
#
# Coordination Sequence:
#
# PCOD9516237 Si02
#       5
#    32  16   8  32  32
#     4   9  18  35  63  95 121 160 221 268 325 380
#     4  10  24  36  57 109 128 166 218 274 330 392
#     4   8  16  28  54  94 108 160 218 234 326 396
#     4   8  16  29  55  89 112 159 213 252 312 383
#     4  11  19  36  63  90 128 170 210 279 323 381
#
# _framework density 23.431179
#
# number of rings (size 3 to 8) (size 9 to 14) (size 15 to 20)
#    1.600    1.067    2.667    0.000    0.000    4.267 
#    2.400    0.000    0.000    9.600    0.000    0.000 
#    0.000    0.000    0.000    0.000    0.000    0.000 
#
# Total GULP energy -167220.233715 kJ/mol
# GULP energy per Si atom -5574.007790 kJ/mol
# Density = 2.337785 g / cm^3
# Si number density = 23.431179 Si / 1000 Ang^3
#
#
#
# Elastic Constant Matrix: (Units=GPa)
#
#
# Indices 1 2 3 4 5 6 
#
# 1 70.9264 28.2284 37.0204 0.0000 0.0000 0.0000
# 2 28.2284 169.3954 60.8439 0.0000 0.0000 0.0000
# 3 37.0204 60.8439 157.5605 0.0000 0.0000 0.0000
# 4 0.0000 0.0000 0.0000 39.3753 0.0000 0.0000
# 5 0.0000 0.0000 0.0000 0.0000 12.7343 0.0000
# 6 0.0000 0.0000 0.0000 0.0000 0.0000 -43.9142
#
#
#
# Elastic Compliance Matrix: (Units=1/GPa)
#
#
# Indices 1 2 3 4 5 6 
#
# 1 0.016421 -0.001568 -0.003253 0.000000 0.000000 0.000000
# 2 -0.001568 0.007004 -0.002336 0.000000 0.000000 0.000000
# 3 -0.003253 -0.002336 0.008013 0.000000 0.000000 0.000000
# 4 0.000000 0.000000 0.000000 0.025397 0.000000 0.000000
# 5 0.000000 0.000000 0.000000 0.000000 0.078528 0.000000
# 6 0.000000 0.000000 0.000000 0.000000 0.000000 -0.022772
#
#
# Mechanical properties :
#
#
# Convention : Reuss Voigt Hill
#
# Bulk Modulus (GPa) = 58.39774 72.22976 65.31375
# Shear Modulus (GPa) = 37.70372 19.75839 28.73106
#
# Velocity S-wave (km/s) = 4.01574 2.90703 3.50550
# Velocity P-wave (km/s) = 6.81754 6.49315 6.65732
#
# Compressibility (1/GPa) = 0.01712395
#
# Stress axis : x y z
#
# Youngs Moduli (GPa) = 60.89765 142.78041 124.79469
#
# Poissons Ratio (x) = 0.22389 0.40592
# Poissons Ratio (y) = 0.09549 0.29154
# Poissons Ratio (z) = 0.19808 0.33356
#
# Static dielectric constant tensor:
#      x y z
#    x 1.966360 0.000000 0.000000 
#    y 0.000000 1.882430 0.000000 
#    z 0.000000 0.000000 1.928720 
# 
# From -- ./inp_files/45651.got.cif
#   From: 2010.05.17/outbox.cif.g08.bks.cpg/sg70_23_cif.got.tgz:45651.got - 2010.06.03 15:57:51.
