data_PCOD9516489
_publ_section_title
;
Structure prediction by ZEFSAII (Michael W. Deem and Ramdas Pophale) SiO2 
 PCOD9516489
Probable space group: F D D D
;
_chemical_formula_sum "Si O2"
_cell_formula_units_Z 168
_cell_length_a 33.721794
_cell_length_b 11.327212
_cell_length_c 22.932618
_cell_angle_alpha 90.000000
_cell_angle_beta 90.000000
_cell_angle_gamma 90.000000
_cell_volume 8759.661756
_symmetry_space_group_name_H-M "F D D D"
_symmetry_group_IT_number 70
_space_group.IT_coordinate_system_code '2'
_symmetry_cell_setting 'orthorhombic'
loop_
_space_group_symop_operation_xyz
x,y,z
1/4-x,1/4-y,z
x,1/4-y,1/4-z
1/4-x,y,1/4-z
-x,-y,-z
3/4+x,3/4+y,-z
-x,3/4+y,3/4+z
3/4+x,-y,3/4+z
x,1/2+y,1/2+z
1/4-x,3/4-y,1/2+z
x,3/4-y,3/4-z
1/4-x,1/2+y,3/4-z
-x,1/2-y,1/2-z
3/4+x,1/4+y,1/2-z
-x,1/4+y,1/4+z
3/4+x,1/2-y,1/4+z
1/2+x,y,1/2+z
3/4-x,1/4-y,1/2+z
1/2+x,1/4-y,3/4-z
3/4-x,y,3/4-z
1/2-x,-y,1/2-z
1/4+x,3/4+y,1/2-z
1/2-x,3/4+y,1/4+z
1/4+x,-y,1/4+z
1/2+x,1/2+y,z
3/4-x,3/4-y,z
1/2+x,3/4-y,1/4-z
3/4-x,1/2+y,1/4-z
1/2-x,1/2-y,-z
1/4+x,1/4+y,-z
1/2-x,1/4+y,3/4+z
1/4+x,1/2-y,3/4+z
loop_
_atom_site_type_symbol
_atom_site_label
_atom_site_fract_x
_atom_site_fract_y
_atom_site_fract_z
Si Si1 0.952224 0.624585 0.267184
Si Si2 0.971883 0.000241 0.658699
Si Si3 0.454140 0.386694 0.544289
Si Si4 0.936971 0.716370 0.449286
Si Si5 0.828522 0.745055 0.881559
Si Si6 0.125000 0.125000 0.625000
O O1 0.948688 0.522296 0.218719
O O2 0.937397 0.748179 0.240049
O O3 0.934108 0.587852 0.328031
O O4 0.999074 0.637546 0.279225
O O5 0.970285 0.125000 0.625000
O O6 0.953522 0.906633 0.613602
O O7 0.018365 0.982710 0.673554
O O8 0.436857 0.270393 0.514203
O O9 0.929412 0.577843 0.440308
O O10 0.904359 0.791656 0.413095
O O11 0.875000 0.757756 0.875000
O O12 0.809730 0.875000 0.875000
#
# Coordination Sequence:
#
# PCOD9516489 Si02
#       6
#    32  32  32  32  32   8
#     4   9  17  31  53  79 109 141 179 220 281 332
#     4   9  16  30  53  81 112 138 168 224 286 338
#     4   9  17  29  53  84 108 132 174 235 288 322
#     4  11  19  30  51  80 112 138 177 235 277 328
#     4  11  23  37  52  75 110 154 189 222 272 341
#     4  12  20  28  50  84 112 132 168 234 294 312
#
# _framework density 19.178823000000001
#
# number of rings (size 3 to 8) (size 9 to 14) (size 15 to 20)
#    0.000    2.095    3.810    2.286    0.000    0.000 
#    0.000    3.810    0.000    2.286    0.000    0.000 
#    0.000    0.000    0.000    0.000    0.000    0.000 
#
# Total GULP energy -233955.887790 kJ/mol
# GULP energy per Si atom -5570.378281 kJ/mol
# Density = 1.913517 g / cm^3
# Si number density = 19.178823 Si / 1000 Ang^3
#
#
#
# Elastic Constant Matrix: (Units=GPa)
#
#
# Indices 1 2 3 4 5 6 
#
# 1 29.4235 13.2755 3.9699 0.0000 0.0000 0.0000
# 2 13.2755 92.3993 37.8805 0.0000 0.0000 0.0000
# 3 3.9699 37.8805 86.7007 0.0000 0.0000 0.0000
# 4 0.0000 0.0000 0.0000 129.8933 0.0000 0.0000
# 5 0.0000 0.0000 0.0000 0.0000 4.6966 0.0000
# 6 0.0000 0.0000 0.0000 0.0000 0.0000 11.1881
#
#
#
# Elastic Compliance Matrix: (Units=1/GPa)
#
#
# Indices 1 2 3 4 5 6 
#
# 1 0.036383 -0.005536 0.000753 0.000000 0.000000 0.000000
# 2 -0.005536 0.014026 -0.005875 0.000000 0.000000 0.000000
# 3 0.000753 -0.005875 0.014066 0.000000 0.000000 0.000000
# 4 0.000000 0.000000 0.000000 0.007699 0.000000 0.000000
# 5 0.000000 0.000000 0.000000 0.000000 0.212918 0.000000
# 6 0.000000 0.000000 0.000000 0.000000 0.000000 0.089381
#
#
# Mechanical properties :
#
#
# Convention : Reuss Voigt Hill
#
# Bulk Modulus (GPa) = 23.16990 35.41947 29.29468
# Shear Modulus (GPa) = 12.18991 39.38210 25.78601
#
# Velocity S-wave (km/s) = 2.52383 4.53638 3.67073
# Velocity P-wave (km/s) = 4.53874 6.77838 5.76830
#
# Compressibility (1/GPa) = 0.04315945
#
# Stress axis : x y z
#
# Youngs Moduli (GPa) = 27.48562 71.29393 71.09220
#
# Poissons Ratio (x) = 0.39468 -0.05352
# Poissons Ratio (y) = 0.15216 0.41765
# Poissons Ratio (z) = -0.02069 0.41884
#
# Static dielectric constant tensor:
#      x y z
#    x 1.540730 0.000000 0.000000 
#    y 0.000000 1.743930 0.000000 
#    z 0.000000 0.000000 1.709650 
# 
# From -- ./inp_files/54990.got.cif
#   From: 2010.05.17/outbox.cif.g08.bks.cpg/sg70_28_cif.got.tgz:54990.got - 2010.06.03 15:57:51.
