data_PCOD9516416
_publ_section_title
;
Structure prediction by ZEFSAII (Michael W. Deem and Ramdas Pophale) SiO2 
 PCOD9516416
Probable space group: F D D D
;
_chemical_formula_sum "Si O2"
_cell_formula_units_Z 136
_cell_length_a 15.979252
_cell_length_b 13.386862
_cell_length_c 23.744640
_cell_angle_alpha 90.000000
_cell_angle_beta 90.000000
_cell_angle_gamma 90.000000
_cell_volume 5079.264414
_symmetry_space_group_name_H-M "F D D D"
_symmetry_group_IT_number 70
_space_group.IT_coordinate_system_code '2'
_symmetry_cell_setting 'orthorhombic'
loop_
_space_group_symop_operation_xyz
x,y,z
1/4-x,1/4-y,z
x,1/4-y,1/4-z
1/4-x,y,1/4-z
-x,-y,-z
3/4+x,3/4+y,-z
-x,3/4+y,3/4+z
3/4+x,-y,3/4+z
x,1/2+y,1/2+z
1/4-x,3/4-y,1/2+z
x,3/4-y,3/4-z
1/4-x,1/2+y,3/4-z
-x,1/2-y,1/2-z
3/4+x,1/4+y,1/2-z
-x,1/4+y,1/4+z
3/4+x,1/2-y,1/4+z
1/2+x,y,1/2+z
3/4-x,1/4-y,1/2+z
1/2+x,1/4-y,3/4-z
3/4-x,y,3/4-z
1/2-x,-y,1/2-z
1/4+x,3/4+y,1/2-z
1/2-x,3/4+y,1/4+z
1/4+x,-y,1/4+z
1/2+x,1/2+y,z
3/4-x,3/4-y,z
1/2+x,3/4-y,1/4-z
3/4-x,1/2+y,1/4-z
1/2-x,1/2-y,-z
1/4+x,1/4+y,-z
1/2-x,1/4+y,3/4+z
1/4+x,1/2-y,3/4+z
loop_
_atom_site_type_symbol
_atom_site_label
_atom_site_fract_x
_atom_site_fract_y
_atom_site_fract_z
Si Si1 0.729832 0.227153 0.747124
Si Si2 0.928230 0.047176 0.933376
Si Si3 0.986100 0.067074 0.554294
Si Si4 0.875000 0.375000 0.875000
Si Si5 0.831293 0.478192 0.114122
O O1 0.780954 0.136379 0.777751
O O2 0.634584 0.230362 0.721403
O O3 0.728412 0.317026 0.790945
O O4 0.781159 0.273965 0.694711
O O5 0.875000 0.072942 0.875000
O O6 0.011421 0.990520 0.909612
O O7 0.070292 0.053536 0.587764
O O8 0.000000 0.000000 0.500000
O O9 0.909683 0.038894 0.592838
O O10 0.875000 0.375000 0.133174
#
# Coordination Sequence:
#
# PCOD9516416 Si02
#       5
#    32  32  32   8  32
#     4  11  22  43  72 112 156 206 268 327 404 474
#     4  10  25  44  77 115 161 212 268 334 403 487
#     4  12  25  42  70 114 156 198 257 332 403 470
#     4  12  32  40  80 116 150 196 258 324 408 466
#     4  11  23  42  68 108 162 201 259 327 398 474
#
# _framework density 26.775531000000001
#
# number of rings (size 3 to 8) (size 9 to 14) (size 15 to 20)
#    0.000    0.941    4.706    1.412    4.941    0.000 
#    0.000    1.176    5.176    0.000    0.000    5.765 
#    0.000    0.000    0.000    0.000    0.000    0.000 
#
# Total GULP energy -190095.893864 kJ/mol
# GULP energy per Si atom -5591.055702 kJ/mol
# Density = 2.671459 g / cm^3
# Si number density = 26.775531 Si / 1000 Ang^3
#
#
#
# Elastic Constant Matrix: (Units=GPa)
#
#
# Indices 1 2 3 4 5 6 
#
# 1 245.5561 70.1266 105.4464 0.0000 0.0000 0.0000
# 2 70.1266 121.9391 51.6412 0.0000 0.0000 0.0000
# 3 105.4464 51.6412 166.1905 0.0000 0.0000 0.0000
# 4 0.0000 0.0000 0.0000 45.0986 0.0000 0.0000
# 5 0.0000 0.0000 0.0000 0.0000 81.1861 0.0000
# 6 0.0000 0.0000 0.0000 0.0000 0.0000 41.3103
#
#
#
# Elastic Compliance Matrix: (Units=1/GPa)
#
#
# Indices 1 2 3 4 5 6 
#
# 1 0.006043 -0.002132 -0.003172 0.000000 0.000000 0.000000
# 2 -0.002132 0.010196 -0.001815 0.000000 0.000000 0.000000
# 3 -0.003172 -0.001815 0.008594 0.000000 0.000000 0.000000
# 4 0.000000 0.000000 0.000000 0.022174 0.000000 0.000000
# 5 0.000000 0.000000 0.000000 0.000000 0.012317 0.000000
# 6 0.000000 0.000000 0.000000 0.000000 0.000000 0.024207
#
#
# Mechanical properties :
#
#
# Convention : Reuss Voigt Hill
#
# Bulk Modulus (GPa) = 94.39199 109.79046 102.09123
# Shear Modulus (GPa) = 49.35763 53.95043 51.65403
#
# Velocity S-wave (km/s) = 4.29812 4.49365 4.39697
# Velocity P-wave (km/s) = 7.74348 8.24724 7.99932
#
# Compressibility (1/GPa) = 0.01059412
#
# Stress axis : x y z
#
# Youngs Moduli (GPa) = 165.46976 98.07926 116.36244
#
# Poissons Ratio (x) = 0.20913 0.36909
# Poissons Ratio (y) = 0.35282 0.21124
# Poissons Ratio (z) = 0.52486 0.17805
#
# Static dielectric constant tensor:
#      x y z
#    x 1.754380 0.000000 0.000000 
#    y 0.000000 16.162130 0.000000 
#    z 0.000000 0.000000 2.057410 
# 
# From -- ./inp_files/60228.got.cif
#   From: 2010.05.17/outbox.cif.g08.bks.cpg/sg70_31_cif.got.tgz:60228.got - 2010.06.03 15:57:51.
