data_PCOD9516339
_publ_section_title
;
Structure prediction by ZEFSAII (Michael W. Deem and Ramdas Pophale) SiO2 
 PCOD9516339
Probable space group: F D D D
;
_chemical_formula_sum "Si O2"
_cell_formula_units_Z 144
_cell_length_a 11.602540
_cell_length_b 24.869132
_cell_length_c 25.566893
_cell_angle_alpha 90.000000
_cell_angle_beta 90.000000
_cell_angle_gamma 90.000000
_cell_volume 7377.201667
_symmetry_space_group_name_H-M "F D D D"
_symmetry_group_IT_number 70
_space_group.IT_coordinate_system_code '2'
_symmetry_cell_setting 'orthorhombic'
loop_
_space_group_symop_operation_xyz
x,y,z
1/4-x,1/4-y,z
x,1/4-y,1/4-z
1/4-x,y,1/4-z
-x,-y,-z
3/4+x,3/4+y,-z
-x,3/4+y,3/4+z
3/4+x,-y,3/4+z
x,1/2+y,1/2+z
1/4-x,3/4-y,1/2+z
x,3/4-y,3/4-z
1/4-x,1/2+y,3/4-z
-x,1/2-y,1/2-z
3/4+x,1/4+y,1/2-z
-x,1/4+y,1/4+z
3/4+x,1/2-y,1/4+z
1/2+x,y,1/2+z
3/4-x,1/4-y,1/2+z
1/2+x,1/4-y,3/4-z
3/4-x,y,3/4-z
1/2-x,-y,1/2-z
1/4+x,3/4+y,1/2-z
1/2-x,3/4+y,1/4+z
1/4+x,-y,1/4+z
1/2+x,1/2+y,z
3/4-x,3/4-y,z
1/2+x,3/4-y,1/4-z
3/4-x,1/2+y,1/4-z
1/2-x,1/2-y,-z
1/4+x,1/4+y,-z
1/2-x,1/4+y,3/4+z
1/4+x,1/2-y,3/4+z
loop_
_atom_site_type_symbol
_atom_site_label
_atom_site_fract_x
_atom_site_fract_y
_atom_site_fract_z
Si Si1 0.625000 0.125000 0.851403
Si Si2 0.074645 0.970886 0.752787
Si Si3 0.510559 0.933204 0.364643
Si Si4 0.204041 0.076640 0.794920
Si Si5 0.331420 0.481937 0.701513
O O1 0.700935 0.159763 0.892969
O O2 0.688178 0.080203 0.816274
O O3 0.025578 0.943049 0.803905
O O4 0.166333 0.932209 0.724415
O O5 0.965138 0.985787 0.717821
O O6 0.139373 0.022985 0.776126
O O7 0.563982 0.875000 0.375000
O O8 0.375000 0.931805 0.375000
O O9 0.559039 0.979318 0.402294
O O10 0.125000 0.125000 0.772249
O O11 0.250000 0.500000 0.750000
#
# Coordination Sequence:
#
# PCOD9516339 Si02
#       5
#    16  32  32  32  32
#     4  10  24  46  66 101 137 186 240 288 354 432
#     4  11  23  43  69 100 136 174 235 289 346 423
#     4  11  24  43  65 100 142 178 225 285 350 424
#     4   9  22  46  68  96 136 179 227 292 350 418
#     4  12  26  42  70 103 135 185 235 287 358 420
#
# _framework density 19.519596
#
# number of rings (size 3 to 8) (size 9 to 14) (size 15 to 20)
#    0.667    0.667    4.444    0.000    6.222    0.889 
#    8.000    0.000    0.000    0.000    0.000    0.000 
#    0.000    0.000    0.000    0.000    0.000    0.000 
#
# Total GULP energy -200686.398209 kJ/mol
# GULP energy per Si atom -5574.622172 kJ/mol
# Density = 1.947517 g / cm^3
# Si number density = 19.519596 Si / 1000 Ang^3
#
#
#
# Elastic Constant Matrix: (Units=GPa)
#
#
# Indices 1 2 3 4 5 6 
#
# 1 119.0448 27.3913 44.3668 0.0000 0.0000 0.0000
# 2 27.3913 117.5648 40.4777 0.0000 0.0000 0.0000
# 3 44.3668 40.4777 101.4249 0.0000 0.0000 0.0000
# 4 0.0000 0.0000 0.0000 35.6427 0.0000 0.0000
# 5 0.0000 0.0000 0.0000 0.0000 19.8343 0.0000
# 6 0.0000 0.0000 0.0000 0.0000 0.0000 27.0518
#
#
#
# Elastic Compliance Matrix: (Units=1/GPa)
#
#
# Indices 1 2 3 4 5 6 
#
# 1 0.010130 -0.000967 -0.004045 0.000000 0.000000 0.000000
# 2 -0.000967 0.009953 -0.003549 0.000000 0.000000 0.000000
# 3 -0.004045 -0.003549 0.013045 0.000000 0.000000 0.000000
# 4 0.000000 0.000000 0.000000 0.028056 0.000000 0.000000
# 5 0.000000 0.000000 0.000000 0.000000 0.050418 0.000000
# 6 0.000000 0.000000 0.000000 0.000000 0.000000 0.036966
#
#
# Mechanical properties :
#
#
# Convention : Reuss Voigt Hill
#
# Bulk Modulus (GPa) = 62.47836 62.50066 62.48951
# Shear Modulus (GPa) = 29.23496 31.55902 30.39699
#
# Velocity S-wave (km/s) = 3.87424 4.02529 3.95049
# Velocity P-wave (km/s) = 7.21738 7.32754 7.27267
#
# Compressibility (1/GPa) = 0.01600554
#
# Stress axis : x y z
#
# Youngs Moduli (GPa) = 98.71224 100.46913 76.65499
#
# Poissons Ratio (x) = 0.09720 0.31009
# Poissons Ratio (y) = 0.09550 0.27205
# Poissons Ratio (z) = 0.39932 0.35657
#
# Static dielectric constant tensor:
#      x y z
#    x 1.663290 0.000000 0.000000 
#    y 0.000000 1.700490 0.000000 
#    z 0.000000 0.000000 1.668490 
# 
# From -- ./inp_files/19201.got.cif
#   From: 2010.05.17/outbox.cif.g08.bks.cpg/sg70_10_cif.got.tgz:19201.got - 2010.06.03 15:57:51.
