data_PCOD9516471
_publ_section_title
;
Structure prediction by ZEFSAII (Michael W. Deem and Ramdas Pophale) SiO2 
 PCOD9516471
Probable space group: F D D D
;
_chemical_formula_sum "Si O2"
_cell_formula_units_Z 88
_cell_length_a 8.553025
_cell_length_b 27.132087
_cell_length_c 13.180126
_cell_angle_alpha 90.000000
_cell_angle_beta 90.000000
_cell_angle_gamma 90.000000
_cell_volume 3058.598734
_symmetry_space_group_name_H-M "F D D D"
_symmetry_group_IT_number 70
_space_group.IT_coordinate_system_code '2'
_symmetry_cell_setting 'orthorhombic'
loop_
_space_group_symop_operation_xyz
x,y,z
1/4-x,1/4-y,z
x,1/4-y,1/4-z
1/4-x,y,1/4-z
-x,-y,-z
3/4+x,3/4+y,-z
-x,3/4+y,3/4+z
3/4+x,-y,3/4+z
x,1/2+y,1/2+z
1/4-x,3/4-y,1/2+z
x,3/4-y,3/4-z
1/4-x,1/2+y,3/4-z
-x,1/2-y,1/2-z
3/4+x,1/4+y,1/2-z
-x,1/4+y,1/4+z
3/4+x,1/2-y,1/4+z
1/2+x,y,1/2+z
3/4-x,1/4-y,1/2+z
1/2+x,1/4-y,3/4-z
3/4-x,y,3/4-z
1/2-x,-y,1/2-z
1/4+x,3/4+y,1/2-z
1/2-x,3/4+y,1/4+z
1/4+x,-y,1/4+z
1/2+x,1/2+y,z
3/4-x,3/4-y,z
1/2+x,3/4-y,1/4-z
3/4-x,1/2+y,1/4-z
1/2-x,1/2-y,-z
1/4+x,1/4+y,-z
1/2-x,1/4+y,3/4+z
1/4+x,1/2-y,3/4+z
loop_
_atom_site_type_symbol
_atom_site_label
_atom_site_fract_x
_atom_site_fract_y
_atom_site_fract_z
Si Si1 0.875000 0.375000 0.375000
Si Si2 0.375000 0.375000 0.550299
Si Si3 0.945461 0.303770 0.520714
Si Si4 0.198009 0.802452 0.842051
O O1 0.814263 0.335018 0.457116
O O2 0.304100 0.332686 0.623531
O O3 0.503252 0.348522 0.479607
O O4 0.903396 0.247431 0.533831
O O5 0.095172 0.308128 0.445567
O O6 0.375000 0.787331 0.875000
#
# Coordination Sequence:
#
# PCOD9516471 Si02
#       4
#     8  16  32  32
#     4  10  28  48  72 120 162 222 268 346 410 494
#     4  11  27  51  81 124 168 229 263 355 409 480
#     4  11  26  51  76 117 168 212 284 336 412 494
#     4  12  26  48  81 121 164 221 278 339 414 496
#
# _framework density 28.771346999999999
#
# number of rings (size 3 to 8) (size 9 to 14) (size 15 to 20)
#    0.000    0.727    3.636    1.636    5.091    1.455 
#    6.545    0.000    0.000    0.000    0.000    0.000 
#    0.000    0.000    0.000    0.000    0.000    0.000 
#
# Total GULP energy -122897.724605 kJ/mol
# GULP energy per Si atom -5586.260209 kJ/mol
# Density = 2.870586 g / cm^3
# Si number density = 28.771347 Si / 1000 Ang^3
#
#
#
# Elastic Constant Matrix: (Units=GPa)
#
#
# Indices 1 2 3 4 5 6 
#
# 1 206.8131 68.2027 111.8705 0.0000 0.0000 0.0000
# 2 68.2027 317.3680 124.9331 0.0000 0.0000 0.0000
# 3 111.8705 124.9331 232.4967 0.0000 0.0000 0.0000
# 4 0.0000 0.0000 0.0000 72.3081 0.0000 0.0000
# 5 0.0000 0.0000 0.0000 0.0000 52.2121 0.0000
# 6 0.0000 0.0000 0.0000 0.0000 0.0000 39.2190
#
#
#
# Elastic Compliance Matrix: (Units=1/GPa)
#
#
# Indices 1 2 3 4 5 6 
#
# 1 0.006548 -0.000212 -0.003037 0.000000 0.000000 0.000000
# 2 -0.000212 0.004003 -0.002049 0.000000 0.000000 0.000000
# 3 -0.003037 -0.002049 0.006864 0.000000 0.000000 0.000000
# 4 0.000000 0.000000 0.000000 0.013830 0.000000 0.000000
# 5 0.000000 0.000000 0.000000 0.000000 0.019153 0.000000
# 6 0.000000 0.000000 0.000000 0.000000 0.000000 0.025498
#
#
# Mechanical properties :
#
#
# Convention : Reuss Voigt Hill
#
# Bulk Modulus (GPa) = 146.65076 151.85448 149.25262
# Shear Modulus (GPa) = 56.32968 62.85929 59.59449
#
# Velocity S-wave (km/s) = 4.42955 4.67924 4.55611
# Velocity P-wave (km/s) = 8.78880 9.06025 8.92555
#
# Compressibility (1/GPa) = 0.00681892
#
# Stress axis : x y z
#
# Youngs Moduli (GPa) = 152.72296 249.80699 145.69709
#
# Poissons Ratio (x) = 0.05287 0.44246
# Poissons Ratio (y) = 0.03232 0.29857
# Poissons Ratio (z) = 0.46380 0.51191
#
# Static dielectric constant tensor:
#      x y z
#    x 8.068110 0.000000 0.000000 
#    y 0.000000 2.264610 0.000000 
#    z 0.000000 0.000000 2.162390 
# 
# From -- ./inp_files/24379.got.cif
#   From: 2010.05.17/outbox.cif.g08.bks.cpg/sg70_13_cif.got.tgz:24379.got - 2010.06.03 15:57:51.
