data_PCOD9516559
_publ_section_title
;
Structure prediction by ZEFSAII (Michael W. Deem and Ramdas Pophale) SiO2 
 PCOD9516559
Probable space group: F D D D
;
_chemical_formula_sum "Si O2"
_cell_formula_units_Z 128
_cell_length_a 17.134610
_cell_length_b 19.252885
_cell_length_c 19.665315
_cell_angle_alpha 90.000000
_cell_angle_beta 90.000000
_cell_angle_gamma 90.000000
_cell_volume 6487.404056
_symmetry_space_group_name_H-M "F D D D"
_symmetry_group_IT_number 70
_space_group.IT_coordinate_system_code '2'
_symmetry_cell_setting 'orthorhombic'
loop_
_space_group_symop_operation_xyz
x,y,z
1/4-x,1/4-y,z
x,1/4-y,1/4-z
1/4-x,y,1/4-z
-x,-y,-z
3/4+x,3/4+y,-z
-x,3/4+y,3/4+z
3/4+x,-y,3/4+z
x,1/2+y,1/2+z
1/4-x,3/4-y,1/2+z
x,3/4-y,3/4-z
1/4-x,1/2+y,3/4-z
-x,1/2-y,1/2-z
3/4+x,1/4+y,1/2-z
-x,1/4+y,1/4+z
3/4+x,1/2-y,1/4+z
1/2+x,y,1/2+z
3/4-x,1/4-y,1/2+z
1/2+x,1/4-y,3/4-z
3/4-x,y,3/4-z
1/2-x,-y,1/2-z
1/4+x,3/4+y,1/2-z
1/2-x,3/4+y,1/4+z
1/4+x,-y,1/4+z
1/2+x,1/2+y,z
3/4-x,3/4-y,z
1/2+x,3/4-y,1/4-z
3/4-x,1/2+y,1/4-z
1/2-x,1/2-y,-z
1/4+x,1/4+y,-z
1/2-x,1/4+y,3/4+z
1/4+x,1/2-y,3/4+z
loop_
_atom_site_type_symbol
_atom_site_label
_atom_site_fract_x
_atom_site_fract_y
_atom_site_fract_z
Si Si1 0.875000 0.988578 0.375000
Si Si2 0.870409 0.164638 0.002802
Si Si3 0.219683 0.193367 0.173146
Si Si4 0.575357 0.985412 0.544132
Si Si5 0.245970 0.375000 0.375000
O O1 0.850455 0.035266 0.310194
O O2 0.947001 0.938482 0.354876
O O3 0.807113 0.151457 0.062155
O O4 0.949744 0.192851 0.037777
O O5 0.891770 0.089407 0.973144
O O6 0.216842 0.125000 0.125000
O O7 0.207225 0.256320 0.120433
O O8 0.142777 0.206685 0.218212
O O9 0.500000 0.000000 0.500000
#
# Coordination Sequence:
#
# PCOD9516559 Si02
#       5
#    16  32  32  32  16
#     4  11  26  42  70  96 129 170 224 284 333 422
#     4  12  23  43  66  95 129 176 218 273 342 401
#     4  11  22  38  60  89 131 166 215 269 325 384
#     4  11  21  35  60  94 126 170 212 265 318 390
#     4  11  24  48  66  95 130 174 218 277 350 404
#
# _framework density 19.730542
#
# number of rings (size 3 to 8) (size 9 to 14) (size 15 to 20)
#    0.000    0.750    3.750    5.250    0.000    0.000 
#    0.000    0.000    0.000    0.000    0.000    0.000 
#    0.000    0.000    0.000    0.000    0.000    0.000 
#
# Total GULP energy -178566.770263 kJ/mol
# GULP energy per Si atom -5580.211571 kJ/mol
# Density = 1.968563 g / cm^3
# Si number density = 19.730542 Si / 1000 Ang^3
#
#
#
# Elastic Constant Matrix: (Units=GPa)
#
#
# Indices 1 2 3 4 5 6 
#
# 1 131.1624 39.2040 55.5163 0.0000 0.0000 0.0000
# 2 39.2040 91.6729 41.3718 0.0000 0.0000 0.0000
# 3 55.5163 41.3718 96.6542 0.0000 0.0000 0.0000
# 4 0.0000 0.0000 0.0000 44.7936 0.0000 0.0000
# 5 0.0000 0.0000 0.0000 0.0000 44.3685 0.0000
# 6 0.0000 0.0000 0.0000 0.0000 0.0000 33.0580
#
#
#
# Elastic Compliance Matrix: (Units=1/GPa)
#
#
# Indices 1 2 3 4 5 6 
#
# 1 0.010411 -0.002173 -0.005050 0.000000 0.000000 0.000000
# 2 -0.002173 0.013974 -0.004733 0.000000 0.000000 0.000000
# 3 -0.005050 -0.004733 0.015272 0.000000 0.000000 0.000000
# 4 0.000000 0.000000 0.000000 0.022325 0.000000 0.000000
# 5 0.000000 0.000000 0.000000 0.000000 0.022539 0.000000
# 6 0.000000 0.000000 0.000000 0.000000 0.000000 0.030250
#
#
# Mechanical properties :
#
#
# Convention : Reuss Voigt Hill
#
# Bulk Modulus (GPa) = 63.51088 65.74152 64.62620
# Shear Modulus (GPa) = 34.73891 36.67050 35.70470
#
# Velocity S-wave (km/s) = 4.20058 4.31578 4.25857
# Velocity P-wave (km/s) = 7.46897 7.63064 7.55024
#
# Compressibility (1/GPa) = 0.01574533
#
# Stress axis : x y z
#
# Youngs Moduli (GPa) = 96.05143 71.56258 65.47734
#
# Poissons Ratio (x) = 0.15554 0.33064
# Poissons Ratio (y) = 0.20876 0.30990
# Poissons Ratio (z) = 0.48502 0.33870
#
# Static dielectric constant tensor:
#      x y z
#    x 1.748080 0.000000 0.000000 
#    y 0.000000 1.682360 0.000000 
#    z 0.000000 0.000000 1.768420 
# 
# From -- ./inp_files/43553.got.cif
#   From: 2010.05.17/outbox.cif.g08.bks.cpg/sg70_22_cif.got.tgz:43553.got - 2010.06.03 15:57:51.
