data_PCOD9516667
_publ_section_title
;
Structure prediction by ZEFSAII (Michael W. Deem and Ramdas Pophale) SiO2 
 PCOD9516667
Probable space group: F D D D
;
_chemical_formula_sum "Si O2"
_cell_formula_units_Z 208
_cell_length_a 22.034900
_cell_length_b 17.795783
_cell_length_c 26.585163
_cell_angle_alpha 90.000000
_cell_angle_beta 90.000000
_cell_angle_gamma 90.000000
_cell_volume 10424.794741
_symmetry_space_group_name_H-M "F D D D"
_symmetry_group_IT_number 70
_space_group.IT_coordinate_system_code '2'
_symmetry_cell_setting 'orthorhombic'
loop_
_space_group_symop_operation_xyz
x,y,z
1/4-x,1/4-y,z
x,1/4-y,1/4-z
1/4-x,y,1/4-z
-x,-y,-z
3/4+x,3/4+y,-z
-x,3/4+y,3/4+z
3/4+x,-y,3/4+z
x,1/2+y,1/2+z
1/4-x,3/4-y,1/2+z
x,3/4-y,3/4-z
1/4-x,1/2+y,3/4-z
-x,1/2-y,1/2-z
3/4+x,1/4+y,1/2-z
-x,1/4+y,1/4+z
3/4+x,1/2-y,1/4+z
1/2+x,y,1/2+z
3/4-x,1/4-y,1/2+z
1/2+x,1/4-y,3/4-z
3/4-x,y,3/4-z
1/2-x,-y,1/2-z
1/4+x,3/4+y,1/2-z
1/2-x,3/4+y,1/4+z
1/4+x,-y,1/4+z
1/2+x,1/2+y,z
3/4-x,3/4-y,z
1/2+x,3/4-y,1/4-z
3/4-x,1/2+y,1/4-z
1/2-x,1/2-y,-z
1/4+x,1/4+y,-z
1/2-x,1/4+y,3/4+z
1/4+x,1/2-y,3/4+z
loop_
_atom_site_type_symbol
_atom_site_label
_atom_site_fract_x
_atom_site_fract_y
_atom_site_fract_z
Si Si1 0.489415 0.202861 0.005974
Si Si2 0.649397 0.004378 0.943243
Si Si3 0.727111 0.402424 0.565195
Si Si4 0.144453 0.839332 0.478886
Si Si5 0.053915 0.199731 0.723395
Si Si6 0.663131 0.192218 0.414742
Si Si7 0.875000 0.511323 0.875000
O O1 0.488522 0.274504 0.042873
O O2 0.420967 0.176877 0.995994
O O3 0.524871 0.132689 0.030614
O O4 0.531294 0.227543 0.959145
O O5 0.635084 0.037036 0.889011
O O6 0.638683 0.914926 0.945619
O O7 0.607239 0.041079 0.985749
O O8 0.694921 0.359362 0.519588
O O9 0.771295 0.344952 0.592465
O O10 0.674479 0.436843 0.598540
O O11 0.163437 0.766976 0.447354
O O12 0.086317 0.220155 0.669911
O O13 0.000000 0.250000 0.750000
O O14 0.625000 0.125000 0.439614
#
# Coordination Sequence:
#
# PCOD9516667 Si02
#       7
#    32  32  32  32  32  32  16
#     4  11  22  43  66  95 138 175 214 280 341 408
#     4  11  25  43  66  99 140 176 223 279 344 416
#     4  11  26  43  67  97 131 176 233 282 331 409
#     4  11  23  47  66  98 133 180 225 286 342 402
#     4  12  24  42  69  99 142 179 220 283 344 422
#     4  12  25  41  70  98 130 181 230 279 340 407
#     4  12  26  45  68 102 137 184 224 274 361 412
#
# _framework density 19.952431000000001
#
# number of rings (size 3 to 8) (size 9 to 14) (size 15 to 20)
#    0.000    0.615    6.154    2.308    6.462    1.231 
#    2.769    0.000    0.000    0.000    0.000    0.000 
#    0.000    0.000    0.000    0.000    0.000    0.000 
#
# Total GULP energy -290397.247186 kJ/mol
# GULP energy per Si atom -5584.562446 kJ/mol
# Density = 1.990702 g / cm^3
# Si number density = 19.952431 Si / 1000 Ang^3
#
#
#
# Elastic Constant Matrix: (Units=GPa)
#
#
# Indices 1 2 3 4 5 6 
#
# 1 68.6888 33.4854 4.0004 0.0000 0.0000 0.0000
# 2 33.4854 133.7566 43.7724 0.0000 0.0000 0.0000
# 3 4.0004 43.7724 82.8756 0.0000 0.0000 0.0000
# 4 0.0000 0.0000 0.0000 19.9932 0.0000 0.0000
# 5 0.0000 0.0000 0.0000 0.0000 16.2229 0.0000
# 6 0.0000 0.0000 0.0000 0.0000 0.0000 38.7386
#
#
#
# Elastic Compliance Matrix: (Units=1/GPa)
#
#
# Indices 1 2 3 4 5 6 
#
# 1 0.016779 -0.004758 0.001703 0.000000 0.000000 0.000000
# 2 -0.004758 0.010388 -0.005257 0.000000 0.000000 0.000000
# 3 0.001703 -0.005257 0.014761 0.000000 0.000000 0.000000
# 4 0.000000 0.000000 0.000000 0.050017 0.000000 0.000000
# 5 0.000000 0.000000 0.000000 0.000000 0.061641 0.000000
# 6 0.000000 0.000000 0.000000 0.000000 0.000000 0.025814
#
#
# Mechanical properties :
#
#
# Convention : Reuss Voigt Hill
#
# Bulk Modulus (GPa) = 39.51987 49.75972 44.63980
# Shear Modulus (GPa) = 24.45504 28.59513 26.52508
#
# Velocity S-wave (km/s) = 3.50475 3.78982 3.65007
# Velocity P-wave (km/s) = 6.01895 6.64407 6.33922
#
# Compressibility (1/GPa) = 0.02530372
#
# Stress axis : x y z
#
# Youngs Moduli (GPa) = 59.59961 96.26800 67.74817
#
# Poissons Ratio (x) = 0.45802 -0.11538
# Poissons Ratio (y) = 0.28356 0.35614
# Poissons Ratio (z) = -0.10150 0.50606
#
# Static dielectric constant tensor:
#      x y z
#    x 1.773490 0.000000 0.000000 
#    y 0.000000 1.712960 0.000000 
#    z 0.000000 0.000000 1.693520 
# 
# From -- ./inp_files/60426.got.cif
#   From: 2010.05.17/outbox.cif.g08.bks.cpg/sg70_31_cif.got.tgz:60426.got - 2010.06.03 15:57:51.
