data_PCOD9516346
_publ_section_title
;
Structure prediction by ZEFSAII (Michael W. Deem and Ramdas Pophale) SiO2 
 PCOD9516346
Probable space group: F D D D
;
_chemical_formula_sum "Si O2"
_cell_formula_units_Z 240
_cell_length_a 24.162744
_cell_length_b 20.390649
_cell_length_c 20.367924
_cell_angle_alpha 90.000000
_cell_angle_beta 90.000000
_cell_angle_gamma 90.000000
_cell_volume 10035.154595
_symmetry_space_group_name_H-M "F D D D"
_symmetry_group_IT_number 70
_space_group.IT_coordinate_system_code '2'
_symmetry_cell_setting 'orthorhombic'
loop_
_space_group_symop_operation_xyz
x,y,z
1/4-x,1/4-y,z
x,1/4-y,1/4-z
1/4-x,y,1/4-z
-x,-y,-z
3/4+x,3/4+y,-z
-x,3/4+y,3/4+z
3/4+x,-y,3/4+z
x,1/2+y,1/2+z
1/4-x,3/4-y,1/2+z
x,3/4-y,3/4-z
1/4-x,1/2+y,3/4-z
-x,1/2-y,1/2-z
3/4+x,1/4+y,1/2-z
-x,1/4+y,1/4+z
3/4+x,1/2-y,1/4+z
1/2+x,y,1/2+z
3/4-x,1/4-y,1/2+z
1/2+x,1/4-y,3/4-z
3/4-x,y,3/4-z
1/2-x,-y,1/2-z
1/4+x,3/4+y,1/2-z
1/2-x,3/4+y,1/4+z
1/4+x,-y,1/4+z
1/2+x,1/2+y,z
3/4-x,3/4-y,z
1/2+x,3/4-y,1/4-z
3/4-x,1/2+y,1/4-z
1/2-x,1/2-y,-z
1/4+x,1/4+y,-z
1/2-x,1/4+y,3/4+z
1/4+x,1/2-y,3/4+z
loop_
_atom_site_type_symbol
_atom_site_label
_atom_site_fract_x
_atom_site_fract_y
_atom_site_fract_z
Si Si1 0.400326 0.096155 0.226066
Si Si2 0.419965 0.818660 0.061268
Si Si3 0.536173 0.872744 0.524590
Si Si4 0.179989 0.010474 0.580923
Si Si5 0.435488 0.331511 0.938979
Si Si6 0.621688 0.703575 0.304004
Si Si7 0.486848 0.125000 0.125000
Si Si8 0.036566 0.937134 0.152942
O O1 0.336710 0.119219 0.223844
O O2 0.444932 0.137486 0.185734
O O3 0.414590 0.093802 0.303567
O O4 0.406808 0.021772 0.198041
O O5 0.375000 0.875000 0.051622
O O6 0.413415 0.779951 0.130328
O O7 0.481457 0.846783 0.069060
O O8 0.416869 0.777122 0.995025
O O9 0.544114 0.811407 0.573564
O O10 0.476765 0.865601 0.491173
O O11 0.538664 0.932764 0.574901
O O12 0.125000 0.011017 0.625000
O O13 0.223216 0.064094 0.607836
O O14 0.432101 0.375000 0.875000
O O15 0.465213 0.263319 0.921394
O O16 0.378268 0.308228 0.974618
O O17 0.625000 0.625000 0.320631
#
# Coordination Sequence:
#
# PCOD9516346 Si02
#       8
#    32  32  32  32  32  32  16  32
#     4  11  26  44  72 106 147 195 240 303 372 442
#     4  11  22  43  73 102 142 190 241 305 368 433
#     4  12  26  47  73 109 149 194 246 302 376 451
#     4  12  25  46  72 109 146 192 255 307 376 450
#     4  11  26  46  73 110 147 190 247 304 367 458
#     4  10  24  46  71 106 144 188 244 300 369 450
#     4  12  25  46  74 106 150 188 241 318 360 446
#     4  11  24  49  71 104 151 188 236 313 366 434
#
# _framework density 23.915924
#
# number of rings (size 3 to 8) (size 9 to 14) (size 15 to 20)
#    0.000    0.800    2.667    4.600    6.533    0.800 
#    0.000    1.333    0.000    0.000    0.000    0.000 
#    0.000    0.000    0.000    0.000    0.000    0.000 
#
# Total GULP energy -334141.954901 kJ/mol
# GULP energy per Si atom -5569.032582 kJ/mol
# Density = 2.386149 g / cm^3
# Si number density = 23.915924 Si / 1000 Ang^3
#
#
#
# Elastic Constant Matrix: (Units=GPa)
#
#
# Indices 1 2 3 4 5 6 
#
# 1 144.0716 23.3361 57.1829 0.0000 0.0000 0.0000
# 2 23.3361 53.8614 18.3070 0.0000 0.0000 0.0000
# 3 57.1829 18.3070 148.0402 0.0000 0.0000 0.0000
# 4 0.0000 0.0000 0.0000 25.6017 0.0000 0.0000
# 5 0.0000 0.0000 0.0000 0.0000 54.0971 0.0000
# 6 0.0000 0.0000 0.0000 0.0000 0.0000 22.9499
#
#
#
# Elastic Compliance Matrix: (Units=1/GPa)
#
#
# Indices 1 2 3 4 5 6 
#
# 1 0.008557 -0.002698 -0.002972 0.000000 0.000000 0.000000
# 2 -0.002698 0.020231 -0.001460 0.000000 0.000000 0.000000
# 3 -0.002972 -0.001460 0.008083 0.000000 0.000000 0.000000
# 4 0.000000 0.000000 0.000000 0.039060 0.000000 0.000000
# 5 0.000000 0.000000 0.000000 0.000000 0.018485 0.000000
# 6 0.000000 0.000000 0.000000 0.000000 0.000000 0.043573
#
#
# Mechanical properties :
#
#
# Convention : Reuss Voigt Hill
#
# Bulk Modulus (GPa) = 44.22148 60.40279 52.31213
# Shear Modulus (GPa) = 31.29172 37.00622 34.14897
#
# Velocity S-wave (km/s) = 3.62111 3.93790 3.78282
# Velocity P-wave (km/s) = 6.00115 6.78139 6.40316
#
# Compressibility (1/GPa) = 0.02261345
#
# Stress axis : x y z
#
# Youngs Moduli (GPa) = 116.85675 49.42882 123.71047
#
# Poissons Ratio (x) = 0.13334 0.36765
# Poissons Ratio (y) = 0.31522 0.18060
# Poissons Ratio (z) = 0.34728 0.07216
#
# Static dielectric constant tensor:
#      x y z
#    x 2.027480 0.000000 0.000000 
#    y 0.000000 2.043250 0.000000 
#    z 0.000000 0.000000 1.943540 
# 
# From -- ./inp_files/47147.got.cif
#   From: 2010.05.17/outbox.cif.g08.bks.cpg/sg70_24_cif.got.tgz:47147.got - 2010.06.03 15:57:51.
