data_PCOD9516868
_publ_section_title
;
Structure prediction by ZEFSAII (Michael W. Deem and Ramdas Pophale) SiO2 
 PCOD9516868
Probable space group: F D D D
;
_chemical_formula_sum "Si O2"
_cell_formula_units_Z 136
_cell_length_a 17.627974
_cell_length_b 16.372896
_cell_length_c 23.383798
_cell_angle_alpha 90.000000
_cell_angle_beta 90.000000
_cell_angle_gamma 90.000000
_cell_volume 6749.054812
_symmetry_space_group_name_H-M "F D D D"
_symmetry_group_IT_number 70
_space_group.IT_coordinate_system_code '2'
_symmetry_cell_setting 'orthorhombic'
loop_
_space_group_symop_operation_xyz
x,y,z
1/4-x,1/4-y,z
x,1/4-y,1/4-z
1/4-x,y,1/4-z
-x,-y,-z
3/4+x,3/4+y,-z
-x,3/4+y,3/4+z
3/4+x,-y,3/4+z
x,1/2+y,1/2+z
1/4-x,3/4-y,1/2+z
x,3/4-y,3/4-z
1/4-x,1/2+y,3/4-z
-x,1/2-y,1/2-z
3/4+x,1/4+y,1/2-z
-x,1/4+y,1/4+z
3/4+x,1/2-y,1/4+z
1/2+x,y,1/2+z
3/4-x,1/4-y,1/2+z
1/2+x,1/4-y,3/4-z
3/4-x,y,3/4-z
1/2-x,-y,1/2-z
1/4+x,3/4+y,1/2-z
1/2-x,3/4+y,1/4+z
1/4+x,-y,1/4+z
1/2+x,1/2+y,z
3/4-x,3/4-y,z
1/2+x,3/4-y,1/4-z
3/4-x,1/2+y,1/4-z
1/2-x,1/2-y,-z
1/4+x,1/4+y,-z
1/2-x,1/4+y,3/4+z
1/4+x,1/2-y,3/4+z
loop_
_atom_site_type_symbol
_atom_site_label
_atom_site_fract_x
_atom_site_fract_y
_atom_site_fract_z
Si Si1 0.722647 0.431919 0.086564
Si Si2 0.004875 0.008308 0.567149
Si Si3 0.625000 0.125000 0.125000
Si Si4 0.066433 0.446021 0.529992
Si Si5 0.838306 0.180454 0.678127
O O1 0.731302 0.334726 0.084794
O O2 0.655702 0.465019 0.044244
O O3 0.709451 0.443313 0.154147
O O4 0.795490 0.483692 0.069470
O O5 0.072068 0.066572 0.587375
O O6 0.000000 0.000000 0.500000
O O7 0.925354 0.047950 0.585377
O O8 0.074987 0.368263 0.487414
O O9 0.000000 0.500000 0.500000
O O10 0.809164 0.125000 0.625000
#
# Coordination Sequence:
#
# PCOD9516868 Si02
#       5
#    32  32   8  32  32
#     4  11  26  46  73 107 146 187 240 299 369 427
#     4  12  27  45  73 103 141 187 239 298 362 427
#     4  12  28  48  72 104 146 186 240 304 358 428
#     4  11  24  46  71 105 144 190 239 292 358 442
#     4  12  25  47  73 105 143 187 244 296 364 438
#
# _framework density 20.150970000000001
#
# number of rings (size 3 to 8) (size 9 to 14) (size 15 to 20)
#    0.000    0.471    5.882    2.118    3.294    2.824 
#    4.235    0.000    0.000    0.000    0.000    0.000 
#    0.000    0.000    0.000    0.000    0.000    0.000 
#
# Total GULP energy -189401.529553 kJ/mol
# GULP energy per Si atom -5570.633222 kJ/mol
# Density = 2.010511 g / cm^3
# Si number density = 20.150970 Si / 1000 Ang^3
#
#
#
# Elastic Constant Matrix: (Units=GPa)
#
#
# Indices 1 2 3 4 5 6 
#
# 1 155.7001 90.8635 47.0260 0.0000 0.0000 0.0000
# 2 90.8635 121.3661 34.1115 0.0000 0.0000 0.0000
# 3 47.0260 34.1115 93.9943 0.0000 0.0000 0.0000
# 4 0.0000 0.0000 0.0000 31.2642 0.0000 0.0000
# 5 0.0000 0.0000 0.0000 0.0000 32.8183 0.0000
# 6 0.0000 0.0000 0.0000 0.0000 0.0000 180.5492
#
#
#
# Elastic Compliance Matrix: (Units=1/GPa)
#
#
# Indices 1 2 3 4 5 6 
#
# 1 0.012165 -0.008237 -0.003097 0.000000 0.000000 0.000000
# 2 -0.008237 0.014753 -0.001233 0.000000 0.000000 0.000000
# 3 -0.003097 -0.001233 0.012636 0.000000 0.000000 0.000000
# 4 0.000000 0.000000 0.000000 0.031985 0.000000 0.000000
# 5 0.000000 0.000000 0.000000 0.000000 0.030471 0.000000
# 6 0.000000 0.000000 0.000000 0.000000 0.000000 0.005539
#
#
# Mechanical properties :
#
#
# Convention : Reuss Voigt Hill
#
# Bulk Modulus (GPa) = 69.34881 79.45138 74.40009
# Shear Modulus (GPa) = 36.36645 62.19697 49.28171
#
# Velocity S-wave (km/s) = 4.25278 5.56170 4.95069
# Velocity P-wave (km/s) = 7.65534 8.98649 8.34749
#
# Compressibility (1/GPa) = 0.01441986
#
# Stress axis : x y z
#
# Youngs Moduli (GPa) = 82.20283 67.78264 79.14041
#
# Poissons Ratio (x) = 0.55834 0.24509
# Poissons Ratio (y) = 0.67712 0.09757
# Poissons Ratio (z) = 0.25457 0.08357
#
# Static dielectric constant tensor:
#      x y z
#    x 1.686990 0.000000 0.000000 
#    y 0.000000 1.634500 0.000000 
#    z 0.000000 0.000000 1.686700 
# 
# From -- ./inp_files/38339.got.cif
#   From: 2010.05.17/outbox.cif.g08.bks.cpg/sg70_20_cif.got.tgz:38339.got - 2010.06.03 15:57:51.
