data_PCOD9516800
_publ_section_title
;
Structure prediction by ZEFSAII (Michael W. Deem and Ramdas Pophale) SiO2 
 PCOD9516800
Probable space group: F D D D
;
_chemical_formula_sum "Si O2"
_cell_formula_units_Z 104
_cell_length_a 31.536789
_cell_length_b 21.694951
_cell_length_c 7.015200
_cell_angle_alpha 90.000000
_cell_angle_beta 90.000000
_cell_angle_gamma 90.000000
_cell_volume 4799.723319
_symmetry_space_group_name_H-M "F D D D"
_symmetry_group_IT_number 70
_space_group.IT_coordinate_system_code '2'
_symmetry_cell_setting 'orthorhombic'
loop_
_space_group_symop_operation_xyz
x,y,z
1/4-x,1/4-y,z
x,1/4-y,1/4-z
1/4-x,y,1/4-z
-x,-y,-z
3/4+x,3/4+y,-z
-x,3/4+y,3/4+z
3/4+x,-y,3/4+z
x,1/2+y,1/2+z
1/4-x,3/4-y,1/2+z
x,3/4-y,3/4-z
1/4-x,1/2+y,3/4-z
-x,1/2-y,1/2-z
3/4+x,1/4+y,1/2-z
-x,1/4+y,1/4+z
3/4+x,1/2-y,1/4+z
1/2+x,y,1/2+z
3/4-x,1/4-y,1/2+z
1/2+x,1/4-y,3/4-z
3/4-x,y,3/4-z
1/2-x,-y,1/2-z
1/4+x,3/4+y,1/2-z
1/2-x,3/4+y,1/4+z
1/4+x,-y,1/4+z
1/2+x,1/2+y,z
3/4-x,3/4-y,z
1/2+x,3/4-y,1/4-z
3/4-x,1/2+y,1/4-z
1/2-x,1/2-y,-z
1/4+x,1/4+y,-z
1/2-x,1/4+y,3/4+z
1/4+x,1/2-y,3/4+z
loop_
_atom_site_type_symbol
_atom_site_label
_atom_site_fract_x
_atom_site_fract_y
_atom_site_fract_z
Si Si1 0.875000 0.875000 0.875000
Si Si2 0.875000 0.520195 0.875000
Si Si3 0.561148 0.206303 0.880110
Si Si4 0.279079 0.167949 0.941328
Si Si5 0.843323 0.625000 0.625000
O O1 0.905420 0.833386 0.741848
O O2 0.915439 0.478865 0.821928
O O3 0.868761 0.565027 0.693343
O O4 0.516605 0.172023 0.910075
O O5 0.546195 0.265777 0.758816
O O6 0.313944 0.140538 0.802554
O O7 0.273968 0.125000 0.125000
#
# Coordination Sequence:
#
# PCOD9516800 Si02
#       5
#     8  16  32  32  16
#     4  12  24  44  66 104 146 186 220 302 348 412
#     4  12  24  42  68 110 133 185 232 296 350 404
#     4  11  25  43  70  99 145 180 232 285 354 409
#     4  11  23  48  70 100 134 191 232 285 345 421
#     4  12  24  42  75  97 138 176 238 289 341 416
#
# _framework density 21.667916000000002
#
# number of rings (size 3 to 8) (size 9 to 14) (size 15 to 20)
#    0.000    0.615    4.615    3.692    0.000    4.308 
#    0.000    0.000    0.000    0.000    0.000    0.000 
#    0.000    0.000    0.000    0.000    0.000    0.000 
#
# Total GULP energy -145492.532618 kJ/mol
# GULP energy per Si atom -5595.866639 kJ/mol
# Density = 2.161860 g / cm^3
# Si number density = 21.667916 Si / 1000 Ang^3
#
#
#
# Elastic Constant Matrix: (Units=GPa)
#
#
# Indices 1 2 3 4 5 6 
#
# 1 136.5635 40.3447 28.1648 0.0000 0.0001 -0.0002
# 2 40.3447 80.9679 16.1017 -0.0014 -0.0001 -0.0024
# 3 28.1648 16.1017 59.6869 -0.0036 -0.0006 -0.0029
# 4 0.0000 -0.0014 -0.0036 39.7914 -0.0003 -0.0025
# 5 0.0001 -0.0001 -0.0006 -0.0003 46.7008 -0.0003
# 6 -0.0002 -0.0024 -0.0029 -0.0025 -0.0003 69.8620
#
#
#
# Elastic Compliance Matrix: (Units=1/GPa)
#
#
# Indices 1 2 3 4 5 6 
#
# 1 0.009151 -0.003911 -0.003263 0.000000 0.000000 0.000000
# 2 -0.003911 0.014722 -0.002126 0.000000 0.000000 0.000000
# 3 -0.003263 -0.002126 0.018867 0.000002 0.000000 0.000001
# 4 0.000000 0.000000 0.000002 0.025131 0.000000 0.000001
# 5 0.000000 0.000000 0.000000 0.000000 0.021413 0.000000
# 6 0.000000 0.000000 0.000001 0.000001 0.000000 0.014314
#
#
# Mechanical properties :
#
#
# Convention : Reuss Voigt Hill
#
# Bulk Modulus (GPa) = 41.42446 49.60455 45.51450
# Shear Modulus (GPa) = 38.38911 44.11130 41.25021
#
# Velocity S-wave (km/s) = 4.21373 4.51687 4.36793
# Velocity P-wave (km/s) = 6.54472 7.08135 6.81832
#
# Compressibility (1/GPa) = 0.02414033
#
# Stress axis : x y z
#
# Youngs Moduli (GPa) = 109.27827 67.92518 53.00140
#
# Poissons Ratio (x) = 0.26564 0.17295
# Poissons Ratio (y) = 0.42737 0.11269
# Poissons Ratio (z) = 0.35658 0.14442
#
# Static dielectric constant tensor:
#      x y z
#    x 1.777700 0.000000 0.000000 
#    y 0.000000 1.731990 0.000000 
#    z 0.000000 0.000000 1.744710 
# 
# From -- ./inp_files/8221.got.cif
#   From: 2010.05.17/outbox.cif.g08.bks.cpg/sg70_5_cif.got.tgz:8221.got - 2010.06.03 15:57:51.
