data_PCOD9516436
_publ_section_title
;
Structure prediction by ZEFSAII (Michael W. Deem and Ramdas Pophale) SiO2 
 PCOD9516436
Probable space group: F D D D
;
_chemical_formula_sum "Si O2"
_cell_formula_units_Z 64
_cell_length_a 5.143959
_cell_length_b 18.301200
_cell_length_c 25.843449
_cell_angle_alpha 90.000000
_cell_angle_beta 90.000000
_cell_angle_gamma 90.000000
_cell_volume 2432.918375
_symmetry_space_group_name_H-M "F D D D"
_symmetry_group_IT_number 70
_space_group.IT_coordinate_system_code '2'
_symmetry_cell_setting 'orthorhombic'
loop_
_space_group_symop_operation_xyz
x,y,z
1/4-x,1/4-y,z
x,1/4-y,1/4-z
1/4-x,y,1/4-z
-x,-y,-z
3/4+x,3/4+y,-z
-x,3/4+y,3/4+z
3/4+x,-y,3/4+z
x,1/2+y,1/2+z
1/4-x,3/4-y,1/2+z
x,3/4-y,3/4-z
1/4-x,1/2+y,3/4-z
-x,1/2-y,1/2-z
3/4+x,1/4+y,1/2-z
-x,1/4+y,1/4+z
3/4+x,1/2-y,1/4+z
1/2+x,y,1/2+z
3/4-x,1/4-y,1/2+z
1/2+x,1/4-y,3/4-z
3/4-x,y,3/4-z
1/2-x,-y,1/2-z
1/4+x,3/4+y,1/2-z
1/2-x,3/4+y,1/4+z
1/4+x,-y,1/4+z
1/2+x,1/2+y,z
3/4-x,3/4-y,z
1/2+x,3/4-y,1/4-z
3/4-x,1/2+y,1/4-z
1/2-x,1/2-y,-z
1/4+x,1/4+y,-z
1/2-x,1/4+y,3/4+z
1/4+x,1/2-y,3/4+z
loop_
_atom_site_type_symbol
_atom_site_label
_atom_site_fract_x
_atom_site_fract_y
_atom_site_fract_z
Si Si1 0.625000 0.425198 0.625000
Si Si2 0.125000 0.625000 0.492993
Si Si3 0.507021 0.756310 0.066227
O O1 0.375000 0.375000 0.628432
O O2 0.204422 0.275887 0.576771
O O3 0.339526 0.676281 0.462138
O O4 0.007550 0.685333 0.531406
O O5 0.625000 0.742610 0.125000
#
# Coordination Sequence:
#
# PCOD9516436 Si02
#       3
#    16  16  32
#     4  12  24  48  91 115 166 230 266 346 432 491
#     4  10  25  50  88 130 162 224 291 342 426 516
#     4  11  23  50  87 122 172 220 279 354 425 502
#
# _framework density 26.305858000000001
#
# number of rings (size 3 to 8) (size 9 to 14) (size 15 to 20)
#    0.000    1.000    2.500    3.750    0.000    0.000 
#    0.000   35.000   27.500    0.000    0.000    0.000 
#    0.000    0.000    0.000    0.000    0.000    0.000 
#
# Total GULP energy -89307.583016 kJ/mol
# GULP energy per Si atom -5581.723938 kJ/mol
# Density = 2.624598 g / cm^3
# Si number density = 26.305858 Si / 1000 Ang^3
#
#
#
# Elastic Constant Matrix: (Units=GPa)
#
#
# Indices 1 2 3 4 5 6 
#
# 1 171.1565 82.0591 83.9187 0.0000 0.0000 0.0000
# 2 82.0591 207.5254 121.9632 0.0000 0.0000 0.0000
# 3 83.9187 121.9632 203.3284 0.0000 0.0000 0.0000
# 4 0.0000 0.0000 0.0000 47.1907 0.0000 0.0000
# 5 0.0000 0.0000 0.0000 0.0000 60.1642 0.0000
# 6 0.0000 0.0000 0.0000 0.0000 0.0000 31.2614
#
#
#
# Elastic Compliance Matrix: (Units=1/GPa)
#
#
# Indices 1 2 3 4 5 6 
#
# 1 0.007750 -0.001830 -0.002101 0.000000 0.000000 0.000000
# 2 -0.001830 0.007874 -0.003968 0.000000 0.000000 0.000000
# 3 -0.002101 -0.003968 0.008166 0.000000 0.000000 0.000000
# 4 0.000000 0.000000 0.000000 0.021191 0.000000 0.000000
# 5 0.000000 0.000000 0.000000 0.000000 0.016621 0.000000
# 6 0.000000 0.000000 0.000000 0.000000 0.000000 0.031988
#
#
# Mechanical properties :
#
#
# Convention : Reuss Voigt Hill
#
# Bulk Modulus (GPa) = 125.12468 128.65472 126.88970
# Shear Modulus (GPa) = 44.62227 47.32786 45.97507
#
# Velocity S-wave (km/s) = 4.12307 4.24623 4.18510
# Velocity P-wave (km/s) = 8.38659 8.54716 8.46726
#
# Compressibility (1/GPa) = 0.00799203
#
# Stress axis : x y z
#
# Youngs Moduli (GPa) = 129.03218 126.99692 122.46596
#
# Poissons Ratio (x) = 0.23236 0.25732
# Poissons Ratio (y) = 0.23608 0.48595
# Poissons Ratio (z) = 0.27112 0.50393
#
# Static dielectric constant tensor:
#      x y z
#    x 2.331690 0.000000 0.000000 
#    y 0.000000 2.113080 0.000000 
#    z 0.000000 0.000000 2.371220 
# 
# From -- ./inp_files/1200.got.cif
#   From: 2010.05.17/outbox.cif.g08.bks.cpg/sg70_1_cif.got.tgz:1200.got - 2010.06.03 15:57:51.
