data_PCOD9516350
_publ_section_title
;
Structure prediction by ZEFSAII (Michael W. Deem and Ramdas Pophale) SiO2 
 PCOD9516350
Probable space group: F D D D
;
_chemical_formula_sum "Si O2"
_cell_formula_units_Z 120
_cell_length_a 23.950230
_cell_length_b 6.284279
_cell_length_c 33.566499
_cell_angle_alpha 90.000000
_cell_angle_beta 90.000000
_cell_angle_gamma 90.000000
_cell_volume 5052.091329
_symmetry_space_group_name_H-M "F D D D"
_symmetry_group_IT_number 70
_space_group.IT_coordinate_system_code '2'
_symmetry_cell_setting 'orthorhombic'
loop_
_space_group_symop_operation_xyz
x,y,z
1/4-x,1/4-y,z
x,1/4-y,1/4-z
1/4-x,y,1/4-z
-x,-y,-z
3/4+x,3/4+y,-z
-x,3/4+y,3/4+z
3/4+x,-y,3/4+z
x,1/2+y,1/2+z
1/4-x,3/4-y,1/2+z
x,3/4-y,3/4-z
1/4-x,1/2+y,3/4-z
-x,1/2-y,1/2-z
3/4+x,1/4+y,1/2-z
-x,1/4+y,1/4+z
3/4+x,1/2-y,1/4+z
1/2+x,y,1/2+z
3/4-x,1/4-y,1/2+z
1/2+x,1/4-y,3/4-z
3/4-x,y,3/4-z
1/2-x,-y,1/2-z
1/4+x,3/4+y,1/2-z
1/2-x,3/4+y,1/4+z
1/4+x,-y,1/4+z
1/2+x,1/2+y,z
3/4-x,3/4-y,z
1/2+x,3/4-y,1/4-z
3/4-x,1/2+y,1/4-z
1/2-x,1/2-y,-z
1/4+x,1/4+y,-z
1/2-x,1/4+y,3/4+z
1/4+x,1/2-y,3/4+z
loop_
_atom_site_type_symbol
_atom_site_label
_atom_site_fract_x
_atom_site_fract_y
_atom_site_fract_z
Si Si1 0.271504 0.638141 0.173275
Si Si2 0.125000 0.125000 0.625000
Si Si3 0.553883 0.932462 0.524840
Si Si4 0.625000 0.625000 0.962861
Si Si5 0.541739 0.275724 0.587652
O O1 0.269310 0.625000 0.125000
O O2 0.219247 0.745626 0.196837
O O3 0.325630 0.768006 0.187107
O O4 0.262479 0.861380 0.068187
O O5 0.085759 0.293295 0.648756
O O6 0.500000 0.000000 0.500000
O O7 0.602268 0.936399 0.491920
O O8 0.566382 0.122169 0.555088
O O9 0.526847 0.125000 0.625000
#
# Coordination Sequence:
#
# PCOD9516350 Si02
#       5
#    32   8  32  16  32
#     4  11  23  50  76 113 149 208 255 311 384 458
#     4  12  26  40  76 124 136 200 258 324 382 440
#     4  10  24  46  72 105 155 198 247 315 383 454
#     4  10  26  46  73 115 160 198 254 318 392 460
#     4  12  24  44  79 109 156 193 260 324 375 462
#
# _framework density 23.75254
#
# number of rings (size 3 to 8) (size 9 to 14) (size 15 to 20)
#    0.000    1.067    4.000    0.400    7.467    4.267 
#    9.600    5.333    0.000    0.000    0.000    0.000 
#    0.000    0.000    0.000    0.000    0.000    0.000 
#
# Total GULP energy -167251.777190 kJ/mol
# GULP energy per Si atom -5575.059240 kJ/mol
# Density = 2.369848 g / cm^3
# Si number density = 23.752540 Si / 1000 Ang^3
#
#
#
# Elastic Constant Matrix: (Units=GPa)
#
#
# Indices 1 2 3 4 5 6 
#
# 1 106.6131 53.7431 52.3292 -0.0038 0.0343 -0.0048
# 2 53.7431 129.2065 61.5727 -0.0069 0.0573 -0.0103
# 3 52.3292 61.5727 142.9414 0.0003 0.0000 0.0024
# 4 -0.0038 -0.0069 0.0003 37.1129 -0.0152 0.0053
# 5 0.0343 0.0573 0.0000 -0.0152 114.9489 -0.0330
# 6 -0.0048 -0.0103 0.0024 0.0053 -0.0330 33.8522
#
#
#
# Elastic Compliance Matrix: (Units=1/GPa)
#
#
# Indices 1 2 3 4 5 6 
#
# 1 0.012825 -0.003897 -0.003016 0.000001 -0.000002 0.000001
# 2 -0.003897 0.010923 -0.003278 0.000002 -0.000004 0.000003
# 3 -0.003016 -0.003278 0.009512 -0.000001 0.000003 -0.000002
# 4 0.000001 0.000002 -0.000001 0.026945 0.000004 -0.000004
# 5 -0.000002 -0.000004 0.000003 0.000004 0.008700 0.000008
# 6 0.000001 0.000003 -0.000002 -0.000004 0.000008 0.029540
#
#
# Mechanical properties :
#
#
# Convention : Reuss Voigt Hill
#
# Bulk Modulus (GPa) = 77.66173 79.33901 78.50037
# Shear Modulus (GPa) = 40.61083 51.25719 45.93401
#
# Velocity S-wave (km/s) = 4.13939 4.65043 4.40233
# Velocity P-wave (km/s) = 7.45743 7.89368 7.67865
#
# Compressibility (1/GPa) = 0.01287635
#
# Stress axis : x y z
#
# Youngs Moduli (GPa) = 77.97474 91.55165 105.12701
#
# Poissons Ratio (x) = 0.35677 0.31710
# Poissons Ratio (y) = 0.30387 0.34465
# Poissons Ratio (z) = 0.23520 0.30014
#
# Static dielectric constant tensor:
#      x y z
#    x 2.012910 -0.000010 0.000010 
#    y -0.000010 1.973860 -0.000020 
#    z 0.000010 -0.000020 2.028920 
# 
# From -- ./inp_files/61511.got.cif
#   From: 2010.05.17/outbox.cif.g08.bks.cpg/sg70_31_cif.got.tgz:61511.got - 2010.06.03 15:57:51.
