data_PCOD9516016
_publ_section_title
;
Structure prediction by ZEFSAII (Michael W. Deem and Ramdas Pophale) SiO2 
 PCOD9516016
Probable space group: F D D D
;
_chemical_formula_sum "Si O2"
_cell_formula_units_Z 176
_cell_length_a 24.193750
_cell_length_b 19.891711
_cell_length_c 16.220025
_cell_angle_alpha 90.000000
_cell_angle_beta 90.000000
_cell_angle_gamma 90.000000
_cell_volume 7805.969478
_symmetry_space_group_name_H-M "F D D D"
_symmetry_group_IT_number 70
_space_group.IT_coordinate_system_code '2'
_symmetry_cell_setting 'orthorhombic'
loop_
_space_group_symop_operation_xyz
x,y,z
1/4-x,1/4-y,z
x,1/4-y,1/4-z
1/4-x,y,1/4-z
-x,-y,-z
3/4+x,3/4+y,-z
-x,3/4+y,3/4+z
3/4+x,-y,3/4+z
x,1/2+y,1/2+z
1/4-x,3/4-y,1/2+z
x,3/4-y,3/4-z
1/4-x,1/2+y,3/4-z
-x,1/2-y,1/2-z
3/4+x,1/4+y,1/2-z
-x,1/4+y,1/4+z
3/4+x,1/2-y,1/4+z
1/2+x,y,1/2+z
3/4-x,1/4-y,1/2+z
1/2+x,1/4-y,3/4-z
3/4-x,y,3/4-z
1/2-x,-y,1/2-z
1/4+x,3/4+y,1/2-z
1/2-x,3/4+y,1/4+z
1/4+x,-y,1/4+z
1/2+x,1/2+y,z
3/4-x,3/4-y,z
1/2+x,3/4-y,1/4-z
3/4-x,1/2+y,1/4-z
1/2-x,1/2-y,-z
1/4+x,1/4+y,-z
1/2-x,1/4+y,3/4+z
1/4+x,1/2-y,3/4+z
loop_
_atom_site_type_symbol
_atom_site_label
_atom_site_fract_x
_atom_site_fract_y
_atom_site_fract_z
Si Si1 0.769047 0.636429 0.814375
Si Si2 0.805884 0.667225 0.999044
Si Si3 0.284662 0.375000 0.875000
Si Si4 0.161457 0.569718 0.337459
Si Si5 0.366550 0.705387 0.972612
Si Si6 0.836248 0.987585 0.992713
O O1 0.708109 0.613512 0.794965
O O2 0.806196 0.577306 0.776549
O O3 0.794103 0.704654 0.782461
O O4 0.776799 0.648049 0.912577
O O5 0.757744 0.669517 0.067710
O O6 0.843516 0.600693 0.012227
O O7 0.850936 0.729059 0.990031
O O8 0.321349 0.325867 0.816350
O O9 0.125000 0.625000 0.382693
O O10 0.130670 0.523265 0.272954
O O11 0.180477 0.525432 0.413099
O O12 0.375000 0.714115 0.875000
#
# Coordination Sequence:
#
# PCOD9516016 Si02
#       6
#    32  32  16  32  32  32
#     4  10  23  45  68  97 139 191 237 304 363 442
#     4  10  22  45  71 100 143 193 245 302 367 453
#     4  12  24  44  79 104 146 202 241 316 380 424
#     4  12  26  41  66 108 144 178 247 312 354 448
#     4   9  21  44  73  98 139 187 239 297 375 435
#     4  11  26  43  69 104 141 194 249 291 377 446
#
# _framework density 22.546848000000001
#
# number of rings (size 3 to 8) (size 9 to 14) (size 15 to 20)
#    0.000    1.455    1.818    3.273    5.091    6.182 
#    0.000    1.818    0.000    0.000    0.000    0.000 
#    0.000    0.000    0.000    0.000    0.000    0.000 
#
# Total GULP energy -245512.598364 kJ/mol
# GULP energy per Si atom -5579.831781 kJ/mol
# Density = 2.249553 g / cm^3
# Si number density = 22.546848 Si / 1000 Ang^3
#
#
#
# Elastic Constant Matrix: (Units=GPa)
#
#
# Indices 1 2 3 4 5 6 
#
# 1 71.0281 51.2538 23.1676 0.0000 0.0000 0.0000
# 2 51.2538 85.6061 23.8958 0.0000 0.0000 0.0000
# 3 23.1676 23.8958 40.3364 0.0000 0.0000 0.0000
# 4 0.0000 0.0000 0.0000 -3.3314 0.0000 0.0000
# 5 0.0000 0.0000 0.0000 0.0000 -1.4069 0.0000
# 6 0.0000 0.0000 0.0000 0.0000 0.0000 -8.6648
#
#
#
# Elastic Compliance Matrix: (Units=1/GPa)
#
#
# Indices 1 2 3 4 5 6 
#
# 1 0.026309 -0.013819 -0.006924 0.000000 0.000000 0.000000
# 2 -0.013819 0.021254 -0.004654 0.000000 0.000000 0.000000
# 3 -0.006924 -0.004654 0.031526 0.000000 0.000000 0.000000
# 4 0.000000 0.000000 0.000000 -0.300177 0.000000 0.000000
# 5 0.000000 0.000000 0.000000 0.000000 -0.710797 0.000000
# 6 0.000000 0.000000 0.000000 0.000000 0.000000 -0.115410
#
#
# Mechanical properties :
#
#
# Convention : Reuss Voigt Hill
#
# Bulk Modulus (GPa) = 35.34311 43.73392 39.53852
# Shear Modulus (GPa) = -5.06551 3.89628 -0.58461
#
# Velocity S-wave (km/s) = -1.50051 1.31599 -0.50976
# Velocity P-wave (km/s) = 3.56474 4.66349 4.15063
#
# Compressibility (1/GPa) = 0.02829405
#
# Stress axis : x y z
#
# Youngs Moduli (GPa) = 38.00942 47.04952 31.71999
#
# Poissons Ratio (x) = 0.65017 0.21964
# Poissons Ratio (y) = 0.52525 0.14763
# Poissons Ratio (z) = 0.26320 0.21898
#
# Static dielectric constant tensor:
#      x y z
#    x 1.880760 0.000000 0.000000 
#    y 0.000000 1.822240 0.000000 
#    z 0.000000 0.000000 1.821870 
# 
# From -- ./inp_files/38522.got.cif
#   From: 2010.05.17/outbox.cif.g08.bks.cpg/sg70_20_cif.got.tgz:38522.got - 2010.06.03 15:57:51.
