data_PCOD9516602
_publ_section_title
;
Structure prediction by ZEFSAII (Michael W. Deem and Ramdas Pophale) SiO2 
 PCOD9516602
Probable space group: F D D D
;
_chemical_formula_sum "Si O2"
_cell_formula_units_Z 160
_cell_length_a 13.800074
_cell_length_b 24.309174
_cell_length_c 18.501576
_cell_angle_alpha 90.000000
_cell_angle_beta 90.000000
_cell_angle_gamma 90.000000
_cell_volume 6206.694100
_symmetry_space_group_name_H-M "F D D D"
_symmetry_group_IT_number 70
_space_group.IT_coordinate_system_code '2'
_symmetry_cell_setting 'orthorhombic'
loop_
_space_group_symop_operation_xyz
x,y,z
1/4-x,1/4-y,z
x,1/4-y,1/4-z
1/4-x,y,1/4-z
-x,-y,-z
3/4+x,3/4+y,-z
-x,3/4+y,3/4+z
3/4+x,-y,3/4+z
x,1/2+y,1/2+z
1/4-x,3/4-y,1/2+z
x,3/4-y,3/4-z
1/4-x,1/2+y,3/4-z
-x,1/2-y,1/2-z
3/4+x,1/4+y,1/2-z
-x,1/4+y,1/4+z
3/4+x,1/2-y,1/4+z
1/2+x,y,1/2+z
3/4-x,1/4-y,1/2+z
1/2+x,1/4-y,3/4-z
3/4-x,y,3/4-z
1/2-x,-y,1/2-z
1/4+x,3/4+y,1/2-z
1/2-x,3/4+y,1/4+z
1/4+x,-y,1/4+z
1/2+x,1/2+y,z
3/4-x,3/4-y,z
1/2+x,3/4-y,1/4-z
3/4-x,1/2+y,1/4-z
1/2-x,1/2-y,-z
1/4+x,1/4+y,-z
1/2-x,1/4+y,3/4+z
1/4+x,1/2-y,3/4+z
loop_
_atom_site_type_symbol
_atom_site_label
_atom_site_fract_x
_atom_site_fract_y
_atom_site_fract_z
Si Si1 0.327242 0.953926 0.124044
Si Si2 0.978248 0.245506 0.902825
Si Si3 0.375000 0.875000 0.494873
Si Si4 0.625000 0.954355 0.625000
Si Si5 0.578960 0.389122 0.745382
Si Si6 0.522458 0.604302 0.733106
O O1 0.353999 0.926691 0.200803
O O2 0.226317 0.988137 0.122545
O O3 0.294666 0.906790 0.067944
O O4 0.429341 0.981306 0.102369
O O5 0.875000 0.265436 0.875000
O O6 0.945206 0.190843 0.945258
O O7 0.010231 0.295281 0.953468
O O8 0.480211 0.868199 0.459737
O O9 0.650703 0.913201 0.692074
O O10 0.683577 0.395090 0.781912
O O11 0.625000 0.625000 0.704679
#
# Coordination Sequence:
#
# PCOD9516602 Si02
#       6
#    32  32  16  16  32  32
#     4   9  17  33  54  80 106 140 177 223 273 322
#     4  11  22  35  54  80 111 146 186 229 275 334
#     4   8  14  30  58  80 103 135 174 222 268 318
#     4   8  14  30  58  80 103 135 174 222 268 318
#     4   9  17  33  54  80 106 140 177 223 273 322
#     4  11  22  35  54  80 111 146 186 229 275 334
#
# _framework density 25.778618000000002
#
# number of rings (size 3 to 8) (size 9 to 14) (size 15 to 20)
#    0.000    2.400    2.000    1.200    0.000    3.600 
#    0.000   16.000    0.000    0.000    0.000    0.000 
#    0.000   19.200    0.000    0.000    0.000    0.000 
#
# Total GULP energy -222747.893372 kJ/mol
# GULP energy per Si atom -5568.697334 kJ/mol
# Density = 2.571995 g / cm^3
# Si number density = 25.778618 Si / 1000 Ang^3
#
#
#
# Elastic Constant Matrix: (Units=GPa)
#
#
# Indices 1 2 3 4 5 6 
#
# 1 337.8550 50.8791 19.8078 0.0000 0.0000 0.0000
# 2 50.8791 59.4853 8.6999 0.0000 0.0000 0.0000
# 3 19.8078 8.6999 45.5853 0.0000 0.0000 0.0000
# 4 0.0000 0.0000 0.0000 29.4579 0.0000 0.0000
# 5 0.0000 0.0000 0.0000 0.0000 -30.0765 0.0000
# 6 0.0000 0.0000 0.0000 0.0000 0.0000 -6.3797
#
#
#
# Elastic Compliance Matrix: (Units=1/GPa)
#
#
# Indices 1 2 3 4 5 6 
#
# 1 0.003438 -0.002800 -0.000959 0.000000 0.000000 0.000000
# 2 -0.002800 0.019574 -0.002519 0.000000 0.000000 0.000000
# 3 -0.000959 -0.002519 0.022835 0.000000 0.000000 0.000000
# 4 0.000000 0.000000 0.000000 0.033947 0.000000 0.000000
# 5 0.000000 0.000000 0.000000 0.000000 -0.033249 0.000000
# 6 0.000000 0.000000 0.000000 0.000000 0.000000 -0.156746
#
#
# Mechanical properties :
#
#
# Convention : Reuss Voigt Hill
#
# Bulk Modulus (GPa) = 30.03945 66.85547 48.44746
# Shear Modulus (GPa) = -57.77127 22.83626 -17.46751
#
# Velocity S-wave (km/s) = -4.73911 2.97957 -2.60589
# Velocity P-wave (km/s) = 4.27404 6.15044 3.12734
#
# Compressibility (1/GPa) = 0.03328955
#
# Stress axis : x y z
#
# Youngs Moduli (GPa) = 290.88578 51.08750 43.79336
#
# Poissons Ratio (x) = 0.14305 0.04202
# Poissons Ratio (y) = 0.81451 0.11032
# Poissons Ratio (z) = 0.27907 0.12869
#
# Static dielectric constant tensor:
#      x y z
#    x 2.364650 0.000000 0.000000 
#    y 0.000000 2.016660 0.000000 
#    z 0.000000 0.000000 2.104690 
# 
# From -- ./inp_files/58550.got.cif
#   From: 2010.05.17/outbox.cif.g08.bks.cpg/sg70_30_cif.got.tgz:58550.got - 2010.06.03 15:57:51.
