data_PCOD9516266
_publ_section_title
;
Structure prediction by ZEFSAII (Michael W. Deem and Ramdas Pophale) SiO2 
 PCOD9516266
Probable space group: F D D D
;
_chemical_formula_sum "Si O2"
_cell_formula_units_Z 112
_cell_length_a 26.165398
_cell_length_b 25.956298
_cell_length_c 7.580457
_cell_angle_alpha 90.000000
_cell_angle_beta 90.000000
_cell_angle_gamma 90.000000
_cell_volume 5148.319432
_symmetry_space_group_name_H-M "F D D D"
_symmetry_group_IT_number 70
_space_group.IT_coordinate_system_code '2'
_symmetry_cell_setting 'orthorhombic'
loop_
_space_group_symop_operation_xyz
x,y,z
1/4-x,1/4-y,z
x,1/4-y,1/4-z
1/4-x,y,1/4-z
-x,-y,-z
3/4+x,3/4+y,-z
-x,3/4+y,3/4+z
3/4+x,-y,3/4+z
x,1/2+y,1/2+z
1/4-x,3/4-y,1/2+z
x,3/4-y,3/4-z
1/4-x,1/2+y,3/4-z
-x,1/2-y,1/2-z
3/4+x,1/4+y,1/2-z
-x,1/4+y,1/4+z
3/4+x,1/2-y,1/4+z
1/2+x,y,1/2+z
3/4-x,1/4-y,1/2+z
1/2+x,1/4-y,3/4-z
3/4-x,y,3/4-z
1/2-x,-y,1/2-z
1/4+x,3/4+y,1/2-z
1/2-x,3/4+y,1/4+z
1/4+x,-y,1/4+z
1/2+x,1/2+y,z
3/4-x,3/4-y,z
1/2+x,3/4-y,1/4-z
3/4-x,1/2+y,1/4-z
1/2-x,1/2-y,-z
1/4+x,1/4+y,-z
1/2-x,1/4+y,3/4+z
1/4+x,1/2-y,3/4+z
loop_
_atom_site_type_symbol
_atom_site_label
_atom_site_fract_x
_atom_site_fract_y
_atom_site_fract_z
Si Si1 0.337903 0.746559 0.718010
Si Si2 0.875000 0.683654 0.875000
Si Si3 0.209864 0.393722 0.070724
Si Si4 0.430615 0.890664 0.670783
O O1 0.362569 0.719064 0.545970
O O2 0.305547 0.703170 0.820262
O O3 0.310573 0.798158 0.652226
O O4 0.375000 0.765457 0.875000
O O5 0.827616 0.645349 0.825067
O O6 0.269678 0.387393 0.098547
O O7 0.198222 0.375000 0.875000
O O8 0.375000 0.875000 0.595794
O O9 0.429773 0.875000 0.875000
#
# Coordination Sequence:
#
# PCOD9516266 Si02
#       4
#    32  16  32  32
#     4  11  23  44  70  97 137 177 221 281 336 392
#     4  10  24  42  69 106 129 172 236 270 334 400
#     4  10  24  42  69 100 133 174 229 277 329 400
#     4  11  25  43  61 100 136 175 230 266 340 407
#
# _framework density 21.754673
#
# number of rings (size 3 to 8) (size 9 to 14) (size 15 to 20)
#    0.000    1.429    4.286    0.000    4.000   10.857 
#    0.000    0.000    0.000    0.000    0.000    0.000 
#    0.000    0.000    0.000    0.000    0.000    0.000 
#
# Total GULP energy -156192.187603 kJ/mol
# GULP energy per Si atom -5578.292414 kJ/mol
# Density = 2.170516 g / cm^3
# Si number density = 21.754673 Si / 1000 Ang^3
#
#
#
# Elastic Constant Matrix: (Units=GPa)
#
#
# Indices 1 2 3 4 5 6 
#
# 1 66.2924 21.6814 2.4889 -0.0119 0.0025 0.0050
# 2 21.6814 122.9560 14.0391 -0.0151 0.0028 0.0063
# 3 2.4889 14.0391 71.4786 -0.0436 0.0078 0.0133
# 4 -0.0119 -0.0151 -0.0436 -16.0211 0.0222 0.0513
# 5 0.0025 0.0028 0.0078 0.0222 21.3969 -0.0059
# 6 0.0050 0.0063 0.0133 0.0513 -0.0059 30.1674
#
#
#
# Elastic Compliance Matrix: (Units=1/GPa)
#
#
# Indices 1 2 3 4 5 6 
#
# 1 0.016008 -0.002822 -0.000003 -0.000009 -0.000001 -0.000002
# 2 -0.002822 0.008817 -0.001634 -0.000002 0.000000 -0.000001
# 3 -0.000003 -0.001634 0.014311 -0.000037 -0.000005 -0.000006
# 4 -0.000009 -0.000002 -0.000037 -0.062417 0.000065 0.000106
# 5 -0.000001 0.000000 -0.000005 0.000065 0.046736 0.000009
# 6 -0.000002 -0.000001 -0.000006 0.000106 0.000009 0.033148
#
#
# Mechanical properties :
#
#
# Convention : Reuss Voigt Hill
#
# Bulk Modulus (GPa) = 33.09255 37.46063 35.27659
# Shear Modulus (GPa) = 66.14338 21.94317 44.04327
#
# Velocity S-wave (km/s) = 5.51998 3.17939 4.50437
# Velocity P-wave (km/s) = 7.47474 5.54392 6.58053
#
# Compressibility (1/GPa) = 0.03021828
#
# Stress axis : x y z
#
# Youngs Moduli (GPa) = 62.46925 113.41479 69.87574
#
# Poissons Ratio (x) = 0.32010 0.00021
# Poissons Ratio (y) = 0.17631 0.11414
# Poissons Ratio (z) = 0.00019 0.18526
#
# Static dielectric constant tensor:
#      x y z
#    x 1.838520 0.000000 0.000000 
#    y 0.000000 1.813940 -0.000010 
#    z 0.000000 -0.000010 1.825740 
# 
# From -- ./inp_files/9498.got.cif
#   From: 2010.05.17/outbox.cif.g08.bks.cpg/sg70_5_cif.got.tgz:9498.got - 2010.06.03 15:57:51.
