data_PCOD9516115
_publ_section_title
;
Structure prediction by ZEFSAII (Michael W. Deem and Ramdas Pophale) SiO2 
 PCOD9516115
Probable space group: F D D D
;
_chemical_formula_sum "Si O2"
_cell_formula_units_Z 160
_cell_length_a 27.757481
_cell_length_b 26.890589
_cell_length_c 10.294299
_cell_angle_alpha 90.000000
_cell_angle_beta 90.000000
_cell_angle_gamma 90.000000
_cell_volume 7683.819324
_symmetry_space_group_name_H-M "F D D D"
_symmetry_group_IT_number 70
_space_group.IT_coordinate_system_code '2'
_symmetry_cell_setting 'orthorhombic'
loop_
_space_group_symop_operation_xyz
x,y,z
1/4-x,1/4-y,z
x,1/4-y,1/4-z
1/4-x,y,1/4-z
-x,-y,-z
3/4+x,3/4+y,-z
-x,3/4+y,3/4+z
3/4+x,-y,3/4+z
x,1/2+y,1/2+z
1/4-x,3/4-y,1/2+z
x,3/4-y,3/4-z
1/4-x,1/2+y,3/4-z
-x,1/2-y,1/2-z
3/4+x,1/4+y,1/2-z
-x,1/4+y,1/4+z
3/4+x,1/2-y,1/4+z
1/2+x,y,1/2+z
3/4-x,1/4-y,1/2+z
1/2+x,1/4-y,3/4-z
3/4-x,y,3/4-z
1/2-x,-y,1/2-z
1/4+x,3/4+y,1/2-z
1/2-x,3/4+y,1/4+z
1/4+x,-y,1/4+z
1/2+x,1/2+y,z
3/4-x,3/4-y,z
1/2+x,3/4-y,1/4-z
3/4-x,1/2+y,1/4-z
1/2-x,1/2-y,-z
1/4+x,1/4+y,-z
1/2-x,1/4+y,3/4+z
1/4+x,1/2-y,3/4+z
loop_
_atom_site_type_symbol
_atom_site_label
_atom_site_fract_x
_atom_site_fract_y
_atom_site_fract_z
Si Si1 0.712152 0.638430 0.267163
Si Si2 0.468844 0.280485 0.638991
Si Si3 0.801897 0.047983 0.451014
Si Si4 0.859725 0.975204 0.024344
Si Si5 0.092485 0.431080 0.926133
O O1 0.725388 0.589336 0.348027
O O2 0.762847 0.664306 0.244953
O O3 0.674329 0.679566 0.318012
O O4 0.691983 0.625000 0.125000
O O5 0.500000 0.250000 0.750000
O O6 0.471115 0.254147 0.499175
O O7 0.411814 0.276642 0.662146
O O8 0.853282 0.061483 0.516100
O O9 0.808480 0.054856 0.297445
O O10 0.875000 0.972915 0.875000
O O11 0.836732 0.028062 0.062857
O O12 0.086223 0.375000 0.875000
#
# Coordination Sequence:
#
# PCOD9516115 Si02
#       5
#    32  32  32  32  32
#     4  12  22  39  67  98 133 174 225 289 340 409
#     4  11  22  38  64  96 132 177 215 282 351 401
#     4  10  23  42  62  94 135 171 238 277 350 421
#     4  11  23  38  63  98 133 167 229 286 342 412
#     4  10  24  42  65  92 133 184 224 289 350 417
#
# _framework density 20.822977999999999
#
# number of rings (size 3 to 8) (size 9 to 14) (size 15 to 20)
#    0.000    1.200    4.000    1.200    5.600    2.400 
#    0.000    1.000    0.000    4.800    0.000    0.000 
#    0.000    0.000    0.000    0.000    0.000    0.000 
#
# Total GULP energy -222891.589751 kJ/mol
# GULP energy per Si atom -5572.289744 kJ/mol
# Density = 2.077558 g / cm^3
# Si number density = 20.822978 Si / 1000 Ang^3
#
#
#
# Elastic Constant Matrix: (Units=GPa)
#
#
# Indices 1 2 3 4 5 6 
#
# 1 70.5738 26.4829 7.2045 -0.0006 0.0003 0.0000
# 2 26.4829 177.3165 47.8749 -0.0008 0.0005 0.0001
# 3 7.2045 47.8749 68.0323 -0.0015 0.0009 0.0003
# 4 -0.0006 -0.0008 -0.0015 34.5846 0.0006 0.0002
# 5 0.0003 0.0005 0.0009 0.0006 20.9974 -0.0001
# 6 0.0000 0.0001 0.0003 0.0002 -0.0001 34.2088
#
#
#
# Elastic Compliance Matrix: (Units=1/GPa)
#
#
# Indices 1 2 3 4 5 6 
#
# 1 0.015011 -0.002238 -0.000015 0.000000 0.000000 0.000000
# 2 -0.002238 0.007296 -0.004897 0.000000 0.000000 0.000000
# 3 -0.000015 -0.004897 0.018147 0.000001 -0.000001 0.000000
# 4 0.000000 0.000000 0.000001 0.028915 -0.000001 0.000000
# 5 0.000000 0.000000 -0.000001 -0.000001 0.047625 0.000000
# 6 0.000000 0.000000 0.000000 0.000000 0.000000 0.029232
#
#
# Mechanical properties :
#
#
# Convention : Reuss Voigt Hill
#
# Bulk Modulus (GPa) = 38.23562 53.22748 45.73155
# Shear Modulus (GPa) = 29.54320 33.58218 31.56269
#
# Velocity S-wave (km/s) = 3.77075 4.02026 3.89750
# Velocity P-wave (km/s) = 6.11230 6.86785 6.50106
#
# Compressibility (1/GPa) = 0.02615362
#
# Stress axis : x y z
#
# Youngs Moduli (GPa) = 66.61846 137.05864 55.10624
#
# Poissons Ratio (x) = 0.30673 0.00081
# Poissons Ratio (y) = 0.14909 0.26987
# Poissons Ratio (z) = 0.00098 0.67123
#
# Static dielectric constant tensor:
#      x y z
#    x 1.501480 0.000000 0.000000 
#    y 0.000000 1.731800 0.000000 
#    z 0.000000 0.000000 1.695840 
# 
# From -- ./inp_files/19476.got.cif
#   From: 2010.05.17/outbox.cif.g08.bks.cpg/sg70_10_cif.got.tgz:19476.got - 2010.06.03 15:57:51.
