data_PCOD9516824
_publ_section_title
;
Structure prediction by ZEFSAII (Michael W. Deem and Ramdas Pophale) SiO2 
 PCOD9516824
Probable space group: F D D D
;
_chemical_formula_sum "Si O2"
_cell_formula_units_Z 144
_cell_length_a 14.701161
_cell_length_b 23.391393
_cell_length_c 20.338307
_cell_angle_alpha 90.000000
_cell_angle_beta 90.000000
_cell_angle_gamma 90.000000
_cell_volume 6993.949916
_symmetry_space_group_name_H-M "F D D D"
_symmetry_group_IT_number 70
_space_group.IT_coordinate_system_code '2'
_symmetry_cell_setting 'orthorhombic'
loop_
_space_group_symop_operation_xyz
x,y,z
1/4-x,1/4-y,z
x,1/4-y,1/4-z
1/4-x,y,1/4-z
-x,-y,-z
3/4+x,3/4+y,-z
-x,3/4+y,3/4+z
3/4+x,-y,3/4+z
x,1/2+y,1/2+z
1/4-x,3/4-y,1/2+z
x,3/4-y,3/4-z
1/4-x,1/2+y,3/4-z
-x,1/2-y,1/2-z
3/4+x,1/4+y,1/2-z
-x,1/4+y,1/4+z
3/4+x,1/2-y,1/4+z
1/2+x,y,1/2+z
3/4-x,1/4-y,1/2+z
1/2+x,1/4-y,3/4-z
3/4-x,y,3/4-z
1/2-x,-y,1/2-z
1/4+x,3/4+y,1/2-z
1/2-x,3/4+y,1/4+z
1/4+x,-y,1/4+z
1/2+x,1/2+y,z
3/4-x,3/4-y,z
1/2+x,3/4-y,1/4-z
3/4-x,1/2+y,1/4-z
1/2-x,1/2-y,-z
1/4+x,1/4+y,-z
1/2-x,1/4+y,3/4+z
1/4+x,1/2-y,3/4+z
loop_
_atom_site_type_symbol
_atom_site_label
_atom_site_fract_x
_atom_site_fract_y
_atom_site_fract_z
Si Si1 0.879358 0.285838 0.297498
Si Si2 0.063986 0.375000 0.875000
Si Si3 0.969554 0.545711 0.805817
Si Si4 0.032819 0.237097 0.677827
Si Si5 0.686339 0.912230 0.750735
O O1 0.875000 0.296764 0.375000
O O2 0.787057 0.291101 0.255438
O O3 0.907420 0.220301 0.284664
O O4 0.958290 0.326829 0.269472
O O5 0.127710 0.349716 0.933323
O O6 0.002060 0.324582 0.845343
O O7 0.890986 0.497815 0.811772
O O8 0.011769 0.533549 0.877250
O O9 0.926200 0.607714 0.796377
O O10 0.000000 0.250000 0.750000
#
# Coordination Sequence:
#
# PCOD9516824 Si02
#       5
#    32  16  32  32  32
#     4  11  25  43  69 107 137 184 240 298 372 442
#     4  12  22  47  73 104 144 202 242 314 387 449
#     4  11  24  45  68 104 141 188 244 298 374 446
#     4  11  25  43  76 102 146 192 242 305 370 459
#     4  11  24  42  71  98 143 183 236 307 364 443
#
# _framework density 20.589223
#
# number of rings (size 3 to 8) (size 9 to 14) (size 15 to 20)
#    0.000    0.889    4.444    2.000    3.111    2.667 
#    0.000    0.000    4.889    0.000    0.000    0.000 
#    0.000    0.000    0.000    0.000    0.000    0.000 
#
# Total GULP energy -200874.504639 kJ/mol
# GULP energy per Si atom -5579.847351 kJ/mol
# Density = 2.054236 g / cm^3
# Si number density = 20.589223 Si / 1000 Ang^3
#
#
#
# Elastic Constant Matrix: (Units=GPa)
#
#
# Indices 1 2 3 4 5 6 
#
# 1 98.3696 44.7786 30.3973 0.0000 0.0000 0.0000
# 2 44.7786 120.4735 46.7417 0.0000 0.0000 0.0000
# 3 30.3973 46.7417 141.6325 0.0000 0.0000 0.0000
# 4 0.0000 0.0000 0.0000 29.6863 0.0000 0.0000
# 5 0.0000 0.0000 0.0000 0.0000 37.0759 0.0000
# 6 0.0000 0.0000 0.0000 0.0000 0.0000 29.5836
#
#
#
# Elastic Compliance Matrix: (Units=1/GPa)
#
#
# Indices 1 2 3 4 5 6 
#
# 1 0.012445 -0.004117 -0.001312 0.000000 0.000000 0.000000
# 2 -0.004117 0.010881 -0.002708 0.000000 0.000000 0.000000
# 3 -0.001312 -0.002708 0.008236 0.000000 0.000000 0.000000
# 4 0.000000 0.000000 0.000000 0.033686 0.000000 0.000000
# 5 0.000000 0.000000 0.000000 0.000000 0.026972 0.000000
# 6 0.000000 0.000000 0.000000 0.000000 0.000000 0.033803
#
#
# Mechanical properties :
#
#
# Convention : Reuss Voigt Hill
#
# Bulk Modulus (GPa) = 65.40623 67.14566 66.27594
# Shear Modulus (GPa) = 33.92334 35.17302 34.54818
#
# Velocity S-wave (km/s) = 4.06350 4.13767 4.10075
# Velocity P-wave (km/s) = 7.33841 7.45050 7.39466
#
# Compressibility (1/GPa) = 0.01528906
#
# Stress axis : x y z
#
# Youngs Moduli (GPa) = 80.35241 91.90241 121.42195
#
# Poissons Ratio (x) = 0.37832 0.15936
# Poissons Ratio (y) = 0.33077 0.32875
# Poissons Ratio (z) = 0.10546 0.24883
#
# Static dielectric constant tensor:
#      x y z
#    x 2.104300 0.000000 0.000000 
#    y 0.000000 1.713140 0.000000 
#    z 0.000000 0.000000 1.931450 
# 
# From -- ./inp_files/34923.got.cif
#   From: 2010.05.17/outbox.cif.g08.bks.cpg/sg70_18_cif.got.tgz:34923.got - 2010.06.03 15:57:51.
