data_PCOD9516711
_publ_section_title
;
Structure prediction by ZEFSAII (Michael W. Deem and Ramdas Pophale) SiO2 
 PCOD9516711
Probable space group: F D D D
;
_chemical_formula_sum "Si O2"
_cell_formula_units_Z 160
_cell_length_a 8.013447
_cell_length_b 33.328671
_cell_length_c 29.662932
_cell_angle_alpha 90.000000
_cell_angle_beta 90.000000
_cell_angle_gamma 90.000000
_cell_volume 7922.302867
_symmetry_space_group_name_H-M "F D D D"
_symmetry_group_IT_number 70
_space_group.IT_coordinate_system_code '2'
_symmetry_cell_setting 'orthorhombic'
loop_
_space_group_symop_operation_xyz
x,y,z
1/4-x,1/4-y,z
x,1/4-y,1/4-z
1/4-x,y,1/4-z
-x,-y,-z
3/4+x,3/4+y,-z
-x,3/4+y,3/4+z
3/4+x,-y,3/4+z
x,1/2+y,1/2+z
1/4-x,3/4-y,1/2+z
x,3/4-y,3/4-z
1/4-x,1/2+y,3/4-z
-x,1/2-y,1/2-z
3/4+x,1/4+y,1/2-z
-x,1/4+y,1/4+z
3/4+x,1/2-y,1/4+z
1/2+x,y,1/2+z
3/4-x,1/4-y,1/2+z
1/2+x,1/4-y,3/4-z
3/4-x,y,3/4-z
1/2-x,-y,1/2-z
1/4+x,3/4+y,1/2-z
1/2-x,3/4+y,1/4+z
1/4+x,-y,1/4+z
1/2+x,1/2+y,z
3/4-x,3/4-y,z
1/2+x,3/4-y,1/4-z
3/4-x,1/2+y,1/4-z
1/2-x,1/2-y,-z
1/4+x,1/4+y,-z
1/2-x,1/4+y,3/4+z
1/4+x,1/2-y,3/4+z
loop_
_atom_site_type_symbol
_atom_site_label
_atom_site_fract_x
_atom_site_fract_y
_atom_site_fract_z
Si Si1 0.912408 0.234928 0.703557
Si Si2 0.955363 0.649456 0.517469
Si Si3 0.125000 0.266978 0.625000
Si Si4 0.691217 0.942373 0.572867
Si Si5 0.875000 0.875000 0.231029
Si Si6 0.404374 0.419291 0.674213
O O1 0.834748 0.190747 0.707142
O O2 0.763756 0.264712 0.689091
O O3 0.000000 0.250000 0.750000
O O4 0.052445 0.240546 0.665218
O O5 0.782409 0.625789 0.514928
O O6 0.125000 0.625000 0.529351
O O7 0.969101 0.661617 0.464612
O O8 0.270079 0.297161 0.642063
O O9 0.625000 0.937689 0.625000
O O10 0.826340 0.911422 0.552865
O O11 0.737363 0.933623 0.699473
O O12 0.375000 0.375000 0.653325
#
# Coordination Sequence:
#
# PCOD9516711 Si02
#       6
#    32  32  16  32  16  32
#     4  12  25  44  68 102 140 185 238 290 356 428
#     4  11  24  46  68  99 136 182 236 291 349 429
#     4  12  24  42  64 103 146 184 236 296 363 426
#     4  12  25  37  65 105 143 182 220 282 364 437
#     4  12  22  40  68 103 138 180 224 284 371 438
#     4  11  23  37  64 102 143 180 215 280 367 447
#
# _framework density 20.196148000000001
#
# number of rings (size 3 to 8) (size 9 to 14) (size 15 to 20)
#    0.000    0.400   10.000    0.000    2.800    0.800 
#    3.600    0.000    0.000    3.600    0.000    0.000 
#    0.000    0.000    0.000    0.000    0.000    0.000 
#
# Total GULP energy -222947.728041 kJ/mol
# GULP energy per Si atom -5573.693201 kJ/mol
# Density = 2.015018 g / cm^3
# Si number density = 20.196148 Si / 1000 Ang^3
#
#
#
# Elastic Constant Matrix: (Units=GPa)
#
#
# Indices 1 2 3 4 5 6 
#
# 1 153.0298 57.0357 35.3086 0.0000 0.0000 0.0000
# 2 57.0357 139.7110 56.2425 0.0000 0.0000 0.0000
# 3 35.3086 56.2425 67.8339 0.0000 0.0000 0.0000
# 4 0.0000 0.0000 0.0000 30.7151 0.0000 0.0000
# 5 0.0000 0.0000 0.0000 0.0000 10.7697 0.0000
# 6 0.0000 0.0000 0.0000 0.0000 0.0000 37.7492
#
#
#
# Elastic Compliance Matrix: (Units=1/GPa)
#
#
# Indices 1 2 3 4 5 6 
#
# 1 0.007913 -0.002360 -0.002162 0.000000 0.000000 0.000000
# 2 -0.002360 0.011447 -0.008263 0.000000 0.000000 0.000000
# 3 -0.002162 -0.008263 0.022718 0.000000 0.000000 0.000000
# 4 0.000000 0.000000 0.000000 0.032557 0.000000 0.000000
# 5 0.000000 0.000000 0.000000 0.000000 0.092853 0.000000
# 6 0.000000 0.000000 0.000000 0.000000 0.000000 0.026491
#
#
# Mechanical properties :
#
#
# Convention : Reuss Voigt Hill
#
# Bulk Modulus (GPa) = 60.57416 73.08315 66.82865
# Shear Modulus (GPa) = 22.21700 29.97932 26.09816
#
# Velocity S-wave (km/s) = 3.32031 3.85698 3.59867
# Velocity P-wave (km/s) = 6.69009 7.49001 7.10133
#
# Compressibility (1/GPa) = 0.01650869
#
# Stress axis : x y z
#
# Youngs Moduli (GPa) = 126.37162 87.35580 44.01751
#
# Poissons Ratio (x) = 0.20617 0.09517
# Poissons Ratio (y) = 0.29825 0.36371
# Poissons Ratio (z) = 0.27323 0.72181
#
# Static dielectric constant tensor:
#      x y z
#    x 1.893670 0.000000 0.000000 
#    y 0.000000 1.743370 0.000000 
#    z 0.000000 0.000000 1.756110 
# 
# From -- ./inp_files/63921.got.cif
#   From: 2010.05.17/outbox.cif.g08.bks.cpg/sg70_32_cif.got.tgz:63921.got - 2010.06.03 15:57:51.
