data_PCOD9516596
_publ_section_title
;
Structure prediction by ZEFSAII (Michael W. Deem and Ramdas Pophale) SiO2 
 PCOD9516596
Probable space group: F D D D
;
_chemical_formula_sum "Si O2"
_cell_formula_units_Z 136
_cell_length_a 23.014829
_cell_length_b 28.580535
_cell_length_c 9.067589
_cell_angle_alpha 90.000000
_cell_angle_beta 90.000000
_cell_angle_gamma 90.000000
_cell_volume 5964.443562
_symmetry_space_group_name_H-M "F D D D"
_symmetry_group_IT_number 70
_space_group.IT_coordinate_system_code '2'
_symmetry_cell_setting 'orthorhombic'
loop_
_space_group_symop_operation_xyz
x,y,z
1/4-x,1/4-y,z
x,1/4-y,1/4-z
1/4-x,y,1/4-z
-x,-y,-z
3/4+x,3/4+y,-z
-x,3/4+y,3/4+z
3/4+x,-y,3/4+z
x,1/2+y,1/2+z
1/4-x,3/4-y,1/2+z
x,3/4-y,3/4-z
1/4-x,1/2+y,3/4-z
-x,1/2-y,1/2-z
3/4+x,1/4+y,1/2-z
-x,1/4+y,1/4+z
3/4+x,1/2-y,1/4+z
1/2+x,y,1/2+z
3/4-x,1/4-y,1/2+z
1/2+x,1/4-y,3/4-z
3/4-x,y,3/4-z
1/2-x,-y,1/2-z
1/4+x,3/4+y,1/2-z
1/2-x,3/4+y,1/4+z
1/4+x,-y,1/4+z
1/2+x,1/2+y,z
3/4-x,3/4-y,z
1/2+x,3/4-y,1/4-z
3/4-x,1/2+y,1/4-z
1/2-x,1/2-y,-z
1/4+x,1/4+y,-z
1/2-x,1/4+y,3/4+z
1/4+x,1/2-y,3/4+z
loop_
_atom_site_type_symbol
_atom_site_label
_atom_site_fract_x
_atom_site_fract_y
_atom_site_fract_z
Si Si1 0.220259 0.179374 0.645507
Si Si2 0.375000 0.375000 0.875000
Si Si3 0.895191 0.552242 0.218199
Si Si4 0.039493 0.489266 0.353428
Si Si5 0.814337 0.298378 0.177395
O O1 0.205700 0.125000 0.625000
O O2 0.291319 0.182283 0.662918
O O3 0.196046 0.209420 0.783800
O O4 0.192808 0.200569 0.497721
O O5 0.413275 0.406722 0.764891
O O6 0.875000 0.572752 0.375000
O O7 0.838341 0.550936 0.118781
O O8 0.898532 0.495778 0.229958
O O9 0.000000 0.500000 0.500000
O O10 0.998546 0.465879 0.233481
#
# Coordination Sequence:
#
# PCOD9516596 Si02
#       5
#    32   8  32  32  32
#     4  11  27  44  66 107 143 174 237 305 344 417
#     4  12  24  44  70 100 136 188 242 292 360 426
#     4  11  21  44  71  96 137 187 228 273 360 433
#     4  11  21  44  73  95 134 189 224 275 356 426
#     4  11  25  42  68 100 136 177 237 288 350 426
#
# _framework density 22.801791999999999
#
# number of rings (size 3 to 8) (size 9 to 14) (size 15 to 20)
#    0.000    0.941    5.882    2.824    6.588    3.765 
#    6.353    0.000    0.000    0.000    0.000    0.000 
#    0.000    0.000    0.000    0.000    0.000    0.000 
#
# Total GULP energy -189452.780681 kJ/mol
# GULP energy per Si atom -5572.140608 kJ/mol
# Density = 2.274989 g / cm^3
# Si number density = 22.801792 Si / 1000 Ang^3
#
#
#
# Elastic Constant Matrix: (Units=GPa)
#
#
# Indices 1 2 3 4 5 6 
#
# 1 -10.2044 -3.2438 44.2536 0.0002 -0.0003 0.0000
# 2 -3.2438 60.7048 6.8134 0.0002 -0.0003 -0.0002
# 3 44.2536 6.8134 105.5211 0.0014 -0.0022 -0.0010
# 4 0.0002 0.0002 0.0014 24.3179 -0.0005 -0.0005
# 5 -0.0003 -0.0003 -0.0022 -0.0005 41.2985 0.0003
# 6 0.0000 -0.0002 -0.0010 -0.0005 0.0003 7.1924
#
#
#
# Elastic Compliance Matrix: (Units=1/GPa)
#
#
# Indices 1 2 3 4 5 6 
#
# 1 -0.034035 -0.003446 0.014496 -0.000001 0.000000 0.000002
# 2 -0.003446 0.016245 0.000396 0.000000 0.000000 0.000001
# 3 0.014496 0.000396 0.003372 0.000000 0.000000 0.000001
# 4 -0.000001 0.000000 0.000000 0.041122 0.000001 0.000003
# 5 0.000000 0.000000 0.000000 0.000001 0.024214 -0.000001
# 6 0.000002 0.000001 0.000001 0.000003 -0.000001 0.139036
#
#
# Mechanical properties :
#
#
# Convention : Reuss Voigt Hill
#
# Bulk Modulus (GPa) = 118.00301 27.96313 72.98307
# Shear Modulus (GPa) = 29.43186 21.77496 25.60341
#
# Velocity S-wave (km/s) = 3.59663 3.09361 3.35456
# Velocity P-wave (km/s) = 8.31334 5.00507 6.86157
#
# Compressibility (1/GPa) = 0.00847436
#
# Stress axis : x y z
#
# Youngs Moduli (GPa) = -29.38116 61.55903 296.58498
#
# Poissons Ratio (x) = 0.21212 -4.29939
# Poissons Ratio (y) = -0.10124 -0.11750
# Poissons Ratio (z) = 0.42592 -0.02439
#
# Static dielectric constant tensor:
#      x y z
#    x 3.763110 0.000000 0.000070 
#    y 0.000000 1.808360 0.000000 
#    z 0.000070 0.000000 2.844390 
# 
# From -- ./inp_files/11032.got.cif
#   From: 2010.05.17/outbox.cif.g08.bks.cpg/sg70_6_cif.got.tgz:11032.got - 2010.06.03 15:57:51.
