data_PCOD9516574
_publ_section_title
;
Structure prediction by ZEFSAII (Michael W. Deem and Ramdas Pophale) SiO2 
 PCOD9516574
Probable space group: F D D D
;
_chemical_formula_sum "Si O2"
_cell_formula_units_Z 128
_cell_length_a 25.125408
_cell_length_b 25.660756
_cell_length_c 10.063327
_cell_angle_alpha 90.000000
_cell_angle_beta 90.000000
_cell_angle_gamma 90.000000
_cell_volume 6488.198899
_symmetry_space_group_name_H-M "F D D D"
_symmetry_group_IT_number 70
_space_group.IT_coordinate_system_code '2'
_symmetry_cell_setting 'orthorhombic'
loop_
_space_group_symop_operation_xyz
x,y,z
1/4-x,1/4-y,z
x,1/4-y,1/4-z
1/4-x,y,1/4-z
-x,-y,-z
3/4+x,3/4+y,-z
-x,3/4+y,3/4+z
3/4+x,-y,3/4+z
x,1/2+y,1/2+z
1/4-x,3/4-y,1/2+z
x,3/4-y,3/4-z
1/4-x,1/2+y,3/4-z
-x,1/2-y,1/2-z
3/4+x,1/4+y,1/2-z
-x,1/4+y,1/4+z
3/4+x,1/2-y,1/4+z
1/2+x,y,1/2+z
3/4-x,1/4-y,1/2+z
1/2+x,1/4-y,3/4-z
3/4-x,y,3/4-z
1/2-x,-y,1/2-z
1/4+x,3/4+y,1/2-z
1/2-x,3/4+y,1/4+z
1/4+x,-y,1/4+z
1/2+x,1/2+y,z
3/4-x,3/4-y,z
1/2+x,3/4-y,1/4-z
3/4-x,1/2+y,1/4-z
1/2-x,1/2-y,-z
1/4+x,1/4+y,-z
1/2-x,1/4+y,3/4+z
1/4+x,1/2-y,3/4+z
loop_
_atom_site_type_symbol
_atom_site_label
_atom_site_fract_x
_atom_site_fract_y
_atom_site_fract_z
Si Si1 0.263773 0.038337 0.878861
Si Si2 0.594657 0.035463 0.251635
Si Si3 0.413897 0.747790 0.499154
Si Si4 0.990160 0.150088 0.481965
O O1 0.270467 0.098869 0.852241
O O2 0.250000 0.000000 0.750000
O O3 0.316751 0.014374 0.936964
O O4 0.217007 0.032161 0.986725
O O5 0.625000 0.060942 0.125000
O O6 0.545304 0.070513 0.303338
O O7 0.631905 0.015076 0.369067
O O8 0.375000 0.755342 0.375000
O O9 0.440685 0.690119 0.491698
O O10 0.999913 0.125000 0.625000
#
# Coordination Sequence:
#
# PCOD9516574 Si02
#       4
#    32  32  32  32
#     4  11  21  42  62  92 130 163 217 269 308 396
#     4  11  21  40  67  91 127 167 217 271 320 387
#     4  11  25  42  62  96 135 164 214 281 324 380
#     4  11  21  39  66  95 126 172 219 263 328 390
#
# _framework density 19.728124000000001
#
# number of rings (size 3 to 8) (size 9 to 14) (size 15 to 20)
#    0.000    1.000    7.500    0.000    0.000   10.500 
#    0.000    5.000    0.000    0.000    0.000    0.000 
#    0.000    0.000    0.000    0.000    0.000    0.000 
#
# Total GULP energy -178317.710990 kJ/mol
# GULP energy per Si atom -5572.428468 kJ/mol
# Density = 1.968322 g / cm^3
# Si number density = 19.728124 Si / 1000 Ang^3
#
#
#
# Elastic Constant Matrix: (Units=GPa)
#
#
# Indices 1 2 3 4 5 6 
#
# 1 79.7706 -6.9416 34.6784 0.0004 0.0002 0.0001
# 2 -6.9416 84.4277 16.7286 0.0010 0.0003 0.0001
# 3 34.6784 16.7286 59.7324 0.0064 0.0006 0.0000
# 4 0.0004 0.0010 0.0064 254.6796 -0.0017 -0.0023
# 5 0.0002 0.0003 0.0006 -0.0017 42.8261 -0.0001
# 6 0.0001 0.0001 0.0000 -0.0023 -0.0001 9.3299
#
#
#
# Elastic Compliance Matrix: (Units=1/GPa)
#
#
# Indices 1 2 3 4 5 6 
#
# 1 0.017806 0.003719 -0.011379 0.000000 0.000000 0.000000
# 2 0.003719 0.013317 -0.005888 0.000000 0.000000 0.000000
# 3 -0.011379 -0.005888 0.024997 -0.000001 0.000000 0.000000
# 4 0.000000 0.000000 -0.000001 0.003927 0.000000 0.000001
# 5 0.000000 0.000000 0.000000 0.000000 0.023350 0.000000
# 6 0.000000 0.000000 0.000000 0.000001 0.000000 0.107183
#
#
# Mechanical properties :
#
#
# Convention : Reuss Voigt Hill
#
# Bulk Modulus (GPa) = 34.45635 34.76239 34.60937
# Shear Modulus (GPa) = 21.99235 73.33146 47.66190
#
# Velocity S-wave (km/s) = 3.34244 6.10342 4.92055
# Velocity P-wave (km/s) = 5.69205 8.20536 7.06142
#
# Compressibility (1/GPa) = 0.02902222
#
# Stress axis : x y z
#
# Youngs Moduli (GPa) = 56.15957 75.09225 40.00508
#
# Poissons Ratio (x) = -0.27925 0.45523
# Poissons Ratio (y) = -0.20884 0.23557
# Poissons Ratio (z) = 0.63905 0.44218
#
# Static dielectric constant tensor:
#      x y z
#    x 1.689300 -0.000020 0.000000 
#    y -0.000020 1.095380 0.000010 
#    z 0.000000 0.000010 1.657610 
# 
# From -- ./inp_files/19116.got.cif
#   From: 2010.05.17/outbox.cif.g08.bks.cpg/sg70_10_cif.got.tgz:19116.got - 2010.06.03 15:57:51.
