data_PCOD9516684
_publ_section_title
;
Structure prediction by ZEFSAII (Michael W. Deem and Ramdas Pophale) SiO2 
 PCOD9516684
Probable space group: F D D D
;
_chemical_formula_sum "Si O2"
_cell_formula_units_Z 224
_cell_length_a 17.778686
_cell_length_b 20.345347
_cell_length_c 25.854131
_cell_angle_alpha 90.000000
_cell_angle_beta 90.000000
_cell_angle_gamma 90.000000
_cell_volume 9351.789141
_symmetry_space_group_name_H-M "F D D D"
_symmetry_group_IT_number 70
_space_group.IT_coordinate_system_code '2'
_symmetry_cell_setting 'orthorhombic'
loop_
_space_group_symop_operation_xyz
x,y,z
1/4-x,1/4-y,z
x,1/4-y,1/4-z
1/4-x,y,1/4-z
-x,-y,-z
3/4+x,3/4+y,-z
-x,3/4+y,3/4+z
3/4+x,-y,3/4+z
x,1/2+y,1/2+z
1/4-x,3/4-y,1/2+z
x,3/4-y,3/4-z
1/4-x,1/2+y,3/4-z
-x,1/2-y,1/2-z
3/4+x,1/4+y,1/2-z
-x,1/4+y,1/4+z
3/4+x,1/2-y,1/4+z
1/2+x,y,1/2+z
3/4-x,1/4-y,1/2+z
1/2+x,1/4-y,3/4-z
3/4-x,y,3/4-z
1/2-x,-y,1/2-z
1/4+x,3/4+y,1/2-z
1/2-x,3/4+y,1/4+z
1/4+x,-y,1/4+z
1/2+x,1/2+y,z
3/4-x,3/4-y,z
1/2+x,3/4-y,1/4-z
3/4-x,1/2+y,1/4-z
1/2-x,1/2-y,-z
1/4+x,1/4+y,-z
1/2-x,1/4+y,3/4+z
1/4+x,1/2-y,3/4+z
loop_
_atom_site_type_symbol
_atom_site_label
_atom_site_fract_x
_atom_site_fract_y
_atom_site_fract_z
Si Si1 0.197767 0.767079 0.549037
Si Si2 0.875000 0.875000 0.286371
Si Si3 0.068685 0.187328 0.021855
Si Si4 0.711709 0.917748 0.071907
Si Si5 0.285766 0.050983 0.118291
Si Si6 0.591252 0.990591 0.998613
Si Si7 0.239529 0.125000 0.625000
Si Si8 0.931018 0.249219 0.631126
O O1 0.250000 0.750000 0.500000
O O2 0.115453 0.753399 0.527743
O O3 0.201345 0.839891 0.572195
O O4 0.217020 0.714395 0.593164
O O5 0.866566 0.811088 0.251759
O O6 0.811144 0.897106 0.326886
O O7 0.125000 0.125000 0.028515
O O8 0.001706 0.194880 0.062443
O O9 0.030015 0.181195 0.966964
O O10 0.636812 0.949702 0.043509
O O11 0.751687 0.947815 0.124101
O O12 0.316223 0.125000 0.125000
O O13 0.344982 0.994076 0.136785
O O14 0.500000 0.000000 0.000000
O O15 0.592848 0.971224 0.938214
O O16 0.283518 0.186571 0.646600
#
# Coordination Sequence:
#
# PCOD9516684 Si02
#       8
#    32  16  32  32  32  32  16  32
#     4  12  26  45  75 109 155 205 254 321 406 481
#     4  11  24  46  72 102 140 198 256 316 393 456
#     4  12  24  46  74 104 152 204 256 322 393 478
#     4  12  28  50  74 116 161 203 262 335 404 475
#     4  12  24  42  73 111 143 198 265 312 379 479
#     4  12  27  49  76 105 150 198 261 324 385 471
#     4  11  22  44  78 102 135 210 254 308 387 466
#     4  12  26  46  78 110 150 199 263 320 388 473
#
# _framework density 23.952635999999998
#
# number of rings (size 3 to 8) (size 9 to 14) (size 15 to 20)
#    0.000    0.143    7.857    1.286    0.000    4.000 
#    5.143    0.000    0.000    0.000    0.000    0.000 
#    0.000    0.000    0.000    0.000    0.000    0.000 
#
# Total GULP energy -311764.736648 kJ/mol
# GULP energy per Si atom -5567.227440 kJ/mol
# Density = 2.389812 g / cm^3
# Si number density = 23.952636 Si / 1000 Ang^3
#
#
#
# Elastic Constant Matrix: (Units=GPa)
#
#
# Indices 1 2 3 4 5 6 
#
# 1 129.5943 29.7121 13.6335 0.0000 0.0000 0.0000
# 2 29.7121 112.0026 -11.5426 0.0000 0.0000 0.0000
# 3 13.6335 -11.5426 37.1746 0.0000 0.0000 0.0000
# 4 0.0000 0.0000 0.0000 26.2069 0.0000 0.0000
# 5 0.0000 0.0000 0.0000 0.0000 37.9481 0.0000
# 6 0.0000 0.0000 0.0000 0.0000 0.0000 34.6108
#
#
#
# Elastic Compliance Matrix: (Units=1/GPa)
#
#
# Indices 1 2 3 4 5 6 
#
# 1 0.008775 -0.002747 -0.004071 0.000000 0.000000 0.000000
# 2 -0.002747 0.010084 0.004138 0.000000 0.000000 0.000000
# 3 -0.004071 0.004138 0.029678 0.000000 0.000000 0.000000
# 4 0.000000 0.000000 0.000000 0.038158 0.000000 0.000000
# 5 0.000000 0.000000 0.000000 0.000000 0.026352 0.000000
# 6 0.000000 0.000000 0.000000 0.000000 0.000000 0.028893
#
#
# Mechanical properties :
#
#
# Convention : Reuss Voigt Hill
#
# Bulk Modulus (GPa) = 23.16066 38.04195 30.60131
# Shear Modulus (GPa) = 30.92330 36.21773 33.57052
#
# Velocity S-wave (km/s) = 3.59697 3.89274 3.74777
# Velocity P-wave (km/s) = 5.19050 6.01009 5.61527
#
# Compressibility (1/GPa) = 0.04317667
#
# Stress axis : x y z
#
# Youngs Moduli (GPa) = 113.96635 99.17048 33.69492
#
# Poissons Ratio (x) = 0.27245 0.13717
# Poissons Ratio (y) = 0.31309 -0.13945
# Poissons Ratio (z) = 0.46396 -0.41041
#
# Static dielectric constant tensor:
#      x y z
#    x 3.734310 0.000000 0.000000 
#    y 0.000000 1.884360 0.000000 
#    z 0.000000 0.000000 2.474710 
# 
# From -- ./inp_files/66826.got.cif
#   From: 2010.05.17/outbox.cif.g08.bks.cpg/sg70_34_cif.got.tgz:66826.got - 2010.06.03 15:57:51.
