data_PCOD9516481
_publ_section_title
;
Structure prediction by ZEFSAII (Michael W. Deem and Ramdas Pophale) SiO2 
 PCOD9516481
Probable space group: F D D D
;
_chemical_formula_sum "Si O2"
_cell_formula_units_Z 176
_cell_length_a 21.661670
_cell_length_b 14.211874
_cell_length_c 21.993263
_cell_angle_alpha 90.000000
_cell_angle_beta 90.000000
_cell_angle_gamma 90.000000
_cell_volume 6770.690338
_symmetry_space_group_name_H-M "F D D D"
_symmetry_group_IT_number 70
_space_group.IT_coordinate_system_code '2'
_symmetry_cell_setting 'orthorhombic'
loop_
_space_group_symop_operation_xyz
x,y,z
1/4-x,1/4-y,z
x,1/4-y,1/4-z
1/4-x,y,1/4-z
-x,-y,-z
3/4+x,3/4+y,-z
-x,3/4+y,3/4+z
3/4+x,-y,3/4+z
x,1/2+y,1/2+z
1/4-x,3/4-y,1/2+z
x,3/4-y,3/4-z
1/4-x,1/2+y,3/4-z
-x,1/2-y,1/2-z
3/4+x,1/4+y,1/2-z
-x,1/4+y,1/4+z
3/4+x,1/2-y,1/4+z
1/2+x,y,1/2+z
3/4-x,1/4-y,1/2+z
1/2+x,1/4-y,3/4-z
3/4-x,y,3/4-z
1/2-x,-y,1/2-z
1/4+x,3/4+y,1/2-z
1/2-x,3/4+y,1/4+z
1/4+x,-y,1/4+z
1/2+x,1/2+y,z
3/4-x,3/4-y,z
1/2+x,3/4-y,1/4-z
3/4-x,1/2+y,1/4-z
1/2-x,1/2-y,-z
1/4+x,1/4+y,-z
1/2-x,1/4+y,3/4+z
1/4+x,1/2-y,3/4+z
loop_
_atom_site_type_symbol
_atom_site_label
_atom_site_fract_x
_atom_site_fract_y
_atom_site_fract_z
Si Si1 0.875000 0.875000 0.979945
Si Si2 0.970299 0.698740 0.307842
Si Si3 0.625000 0.476267 0.125000
Si Si4 0.584656 0.871474 0.524027
Si Si5 0.106213 0.254491 0.929005
Si Si6 0.254243 0.625000 0.125000
Si Si7 0.576629 0.553647 0.803722
O O1 0.892787 0.794996 0.930254
O O2 0.920519 0.835605 0.034518
O O3 0.904269 0.660098 0.290399
O O4 0.966291 0.784265 0.355424
O O5 0.000000 0.750000 0.250000
O O6 0.019486 0.617592 0.322259
O O7 0.571046 0.417025 0.089944
O O8 0.557483 0.781258 0.490312
O O9 0.590230 0.953741 0.473141
O O10 0.135579 0.234646 0.862871
O O11 0.052760 0.331405 0.923150
O O12 0.625000 0.625000 0.771778
#
# Coordination Sequence:
#
# PCOD9516481 Si02
#       7
#    16  32  16  32  32  16  32
#     4   9  18  34  66  80 110 159 224 238 316 403
#     4  12  23  37  59  94 127 169 212 275 331 413
#     4   9  22  40  57  88 116 176 201 248 326 415
#     4  11  23  41  62  89 135 168 217 271 343 407
#     4  11  17  36  65  90 114 165 215 282 320 386
#     4  12  20  34  60  93 124 158 220 261 344 390
#     4  12  20  36  63  94 119 162 224 271 337 385
#
# _framework density 25.994395999999998
#
# number of rings (size 3 to 8) (size 9 to 14) (size 15 to 20)
#    0.000    0.909    8.182    0.000    0.000    1.455 
#    0.000    0.000   16.000    3.273    0.000    0.000 
#    0.000    0.000    0.000    0.000    0.000    0.000 
#
# Total GULP energy -245091.931439 kJ/mol
# GULP energy per Si atom -5570.271169 kJ/mol
# Density = 2.593523 g / cm^3
# Si number density = 25.994396 Si / 1000 Ang^3
#
#
#
# Elastic Constant Matrix: (Units=GPa)
#
#
# Indices 1 2 3 4 5 6 
#
# 1 68.4428 29.5235 10.3972 0.0000 0.0000 0.0000
# 2 29.5235 167.6969 60.7008 0.0000 0.0000 0.0000
# 3 10.3972 60.7008 141.0196 0.0000 0.0000 0.0000
# 4 0.0000 0.0000 0.0000 69.8446 0.0000 0.0000
# 5 0.0000 0.0000 0.0000 0.0000 24.6689 0.0000
# 6 0.0000 0.0000 0.0000 0.0000 0.0000 24.7282
#
#
#
# Elastic Compliance Matrix: (Units=1/GPa)
#
#
# Indices 1 2 3 4 5 6 
#
# 1 0.015812 -0.002798 0.000038 0.000000 0.000000 0.000000
# 2 -0.002798 0.007559 -0.003047 0.000000 0.000000 0.000000
# 3 0.000038 -0.003047 0.008400 0.000000 0.000000 0.000000
# 4 0.000000 0.000000 0.000000 0.014318 0.000000 0.000000
# 5 0.000000 0.000000 0.000000 0.000000 0.040537 0.000000
# 6 0.000000 0.000000 0.000000 0.000000 0.000000 0.040440
#
#
# Mechanical properties :
#
#
# Convention : Reuss Voigt Hill
#
# Bulk Modulus (GPa) = 49.60941 64.26694 56.93818
# Shear Modulus (GPa) = 34.38871 42.28420 38.33645
#
# Velocity S-wave (km/s) = 3.64115 4.03757 3.84447
# Velocity P-wave (km/s) = 6.06658 6.82005 6.45432
#
# Compressibility (1/GPa) = 0.02015747
#
# Stress axis : x y z
#
# Youngs Moduli (GPa) = 63.24441 132.29798 119.04659
#
# Poissons Ratio (x) = 0.37012 -0.00458
# Poissons Ratio (y) = 0.17693 0.36277
# Poissons Ratio (z) = -0.00243 0.40315
#
# Static dielectric constant tensor:
#      x y z
#    x 2.050040 0.000000 0.000000 
#    y 0.000000 2.331420 0.000000 
#    z 0.000000 0.000000 2.132980 
# 
# From -- ./inp_files/55098.got.cif
#   From: 2010.05.17/outbox.cif.g08.bks.cpg/sg70_28_cif.got.tgz:55098.got - 2010.06.03 15:57:51.
