data_PCOD9516972
_publ_section_title
;
Structure prediction by ZEFSAII (Michael W. Deem and Ramdas Pophale) SiO2 
 PCOD9516972
Probable space group: F D D D
;
_chemical_formula_sum "Si O2"
_cell_formula_units_Z 80
_cell_length_a 5.330149
_cell_length_b 28.636740
_cell_length_c 21.654539
_cell_angle_alpha 90.000000
_cell_angle_beta 90.000000
_cell_angle_gamma 90.000000
_cell_volume 3305.307496
_symmetry_space_group_name_H-M "F D D D"
_symmetry_group_IT_number 70
_space_group.IT_coordinate_system_code '2'
_symmetry_cell_setting 'orthorhombic'
loop_
_space_group_symop_operation_xyz
x,y,z
1/4-x,1/4-y,z
x,1/4-y,1/4-z
1/4-x,y,1/4-z
-x,-y,-z
3/4+x,3/4+y,-z
-x,3/4+y,3/4+z
3/4+x,-y,3/4+z
x,1/2+y,1/2+z
1/4-x,3/4-y,1/2+z
x,3/4-y,3/4-z
1/4-x,1/2+y,3/4-z
-x,1/2-y,1/2-z
3/4+x,1/4+y,1/2-z
-x,1/4+y,1/4+z
3/4+x,1/2-y,1/4+z
1/2+x,y,1/2+z
3/4-x,1/4-y,1/2+z
1/2+x,1/4-y,3/4-z
3/4-x,y,3/4-z
1/2-x,-y,1/2-z
1/4+x,3/4+y,1/2-z
1/2-x,3/4+y,1/4+z
1/4+x,-y,1/4+z
1/2+x,1/2+y,z
3/4-x,3/4-y,z
1/2+x,3/4-y,1/4-z
3/4-x,1/2+y,1/4-z
1/2-x,1/2-y,-z
1/4+x,1/4+y,-z
1/2-x,1/4+y,3/4+z
1/4+x,1/2-y,3/4+z
loop_
_atom_site_type_symbol
_atom_site_label
_atom_site_fract_x
_atom_site_fract_y
_atom_site_fract_z
Si Si1 0.625000 0.125000 0.259494
Si Si2 0.445201 0.726745 0.448376
Si Si3 0.626907 0.318804 0.914936
O O1 0.528052 0.076494 0.289012
O O2 0.395584 0.143188 0.217976
O O3 0.375000 0.724976 0.375000
O O4 0.250000 0.750000 0.500000
O O5 0.650269 0.767705 0.444489
O O6 0.375000 0.321851 0.875000
O O7 0.875000 0.324767 0.875000
#
# Coordination Sequence:
#
# PCOD9516972 Si02
#       3
#    16  32  32
#     4  12  25  42  76 112 147 200 260 318 386 458
#     4  11  27  49  74 110 156 200 254 323 389 463
#     4  11  26  49  75 109 153 204 255 310 381 471
#
# _framework density 24.203498
#
# number of rings (size 3 to 8) (size 9 to 14) (size 15 to 20)
#    0.000    0.800    0.000    6.600    0.000   17.600 
#    0.000    0.000    0.000    0.000    0.000    0.000 
#    0.000    0.000    0.000    0.000    0.000    0.000 
#
# Total GULP energy -111461.801419 kJ/mol
# GULP energy per Si atom -5573.090071 kJ/mol
# Density = 2.414841 g / cm^3
# Si number density = 24.203498 Si / 1000 Ang^3
#
#
#
# Elastic Constant Matrix: (Units=GPa)
#
#
# Indices 1 2 3 4 5 6 
#
# 1 114.0465 54.1963 60.7953 0.0000 0.0000 0.0000
# 2 54.1963 301.1585 103.7207 0.0000 0.0000 0.0000
# 3 60.7953 103.7207 161.6629 0.0000 0.0000 0.0000
# 4 0.0000 0.0000 0.0000 69.8984 0.0000 0.0000
# 5 0.0000 0.0000 0.0000 0.0000 21.2015 0.0000
# 6 0.0000 0.0000 0.0000 0.0000 0.0000 222.0184
#
#
#
# Elastic Compliance Matrix: (Units=1/GPa)
#
#
# Indices 1 2 3 4 5 6 
#
# 1 0.011086 -0.000718 -0.003709 0.000000 0.000000 0.000000
# 2 -0.000718 0.004309 -0.002495 0.000000 0.000000 0.000000
# 3 -0.003709 -0.002495 0.009181 0.000000 0.000000 0.000000
# 4 0.000000 0.000000 0.000000 0.014306 0.000000 0.000000
# 5 0.000000 0.000000 0.000000 0.000000 0.047167 0.000000
# 6 0.000000 0.000000 0.000000 0.000000 0.000000 0.004504
#
#
# Mechanical properties :
#
#
# Convention : Reuss Voigt Hill
#
# Bulk Modulus (GPa) = 93.16092 112.69916 102.93004
# Shear Modulus (GPa) = 46.30771 86.50070 66.40420
#
# Velocity S-wave (km/s) = 4.37883 5.98469 5.24360
# Velocity P-wave (km/s) = 8.00873 9.71697 8.90392
#
# Compressibility (1/GPa) = 0.01073411
#
# Stress axis : x y z
#
# Youngs Moduli (GPa) = 90.20007 232.08198 108.92234
#
# Poissons Ratio (x) = 0.16660 0.40395
# Poissons Ratio (y) = 0.06475 0.27171
# Poissons Ratio (z) = 0.33452 0.57894
#
# Static dielectric constant tensor:
#      x y z
#    x 2.002840 0.000000 0.000000 
#    y 0.000000 1.977990 0.000000 
#    z 0.000000 0.000000 8.129260 
# 
# From -- ./inp_files/2436.got.cif
#   From: 2010.05.17/outbox.cif.g08.bks.cpg/sg70_2_cif.got.tgz:2436.got - 2010.06.03 15:57:51.
