data_PCOD9516020
_publ_section_title
;
Structure prediction by ZEFSAII (Michael W. Deem and Ramdas Pophale) SiO2 
 PCOD9516020
Probable space group: F D D D
;
_chemical_formula_sum "Si O2"
_cell_formula_units_Z 176
_cell_length_a 13.726333
_cell_length_b 23.593409
_cell_length_c 22.983545
_cell_angle_alpha 90.000000
_cell_angle_beta 90.000000
_cell_angle_gamma 90.000000
_cell_volume 7443.243768
_symmetry_space_group_name_H-M "F D D D"
_symmetry_group_IT_number 70
_space_group.IT_coordinate_system_code '2'
_symmetry_cell_setting 'orthorhombic'
loop_
_space_group_symop_operation_xyz
x,y,z
1/4-x,1/4-y,z
x,1/4-y,1/4-z
1/4-x,y,1/4-z
-x,-y,-z
3/4+x,3/4+y,-z
-x,3/4+y,3/4+z
3/4+x,-y,3/4+z
x,1/2+y,1/2+z
1/4-x,3/4-y,1/2+z
x,3/4-y,3/4-z
1/4-x,1/2+y,3/4-z
-x,1/2-y,1/2-z
3/4+x,1/4+y,1/2-z
-x,1/4+y,1/4+z
3/4+x,1/2-y,1/4+z
1/2+x,y,1/2+z
3/4-x,1/4-y,1/2+z
1/2+x,1/4-y,3/4-z
3/4-x,y,3/4-z
1/2-x,-y,1/2-z
1/4+x,3/4+y,1/2-z
1/2-x,3/4+y,1/4+z
1/4+x,-y,1/4+z
1/2+x,1/2+y,z
3/4-x,3/4-y,z
1/2+x,3/4-y,1/4-z
3/4-x,1/2+y,1/4-z
1/2-x,1/2-y,-z
1/4+x,1/4+y,-z
1/2-x,1/4+y,3/4+z
1/4+x,1/2-y,3/4+z
loop_
_atom_site_type_symbol
_atom_site_label
_atom_site_fract_x
_atom_site_fract_y
_atom_site_fract_z
Si Si1 0.399122 0.224839 0.770077
Si Si2 0.834748 0.124196 0.194518
Si Si3 0.707912 0.173144 0.889092
Si Si4 0.729201 0.793986 0.741065
Si Si5 0.625000 0.348306 0.625000
Si Si6 0.064036 0.030830 0.566259
O O1 0.500000 0.250000 0.750000
O O2 0.345040 0.186313 0.721542
O O3 0.315178 0.270306 0.781263
O O4 0.424855 0.190042 0.827544
O O5 0.841941 0.125000 0.125000
O O6 0.924836 0.092501 0.223987
O O7 0.737288 0.087434 0.207087
O O8 0.625000 0.125000 0.898385
O O9 0.722665 0.184669 0.819796
O O10 0.803247 0.138998 0.909064
O O11 0.727446 0.235054 0.917982
O O12 0.644725 0.748758 0.724240
O O13 0.125000 0.043217 0.625000
#
# Coordination Sequence:
#
# PCOD9516020 Si02
#       6
#    32  32  32  32  16  32
#     4  12  29  48  73 105 147 198 252 303 369 448
#     4  12  26  45  71 110 146 186 241 303 374 440
#     4  11  21  42  75 104 142 190 238 300 364 445
#     4  11  24  45  70 104 144 190 241 303 362 437
#     4  12  24  48  70 107 139 192 250 290 366 454
#     4  10  22  45  73 107 146 183 236 304 376 434
#
# _framework density 23.645605
#
# number of rings (size 3 to 8) (size 9 to 14) (size 15 to 20)
#    0.000    0.727    4.545    3.818    5.091    2.545 
#    0.000    0.909    0.000    0.000    0.000    0.000 
#    0.000    0.000    0.000    0.000    0.000    0.000 
#
# Total GULP energy -246041.191043 kJ/mol
# GULP energy per Si atom -5591.845251 kJ/mol
# Density = 2.359179 g / cm^3
# Si number density = 23.645605 Si / 1000 Ang^3
#
#
#
# Elastic Constant Matrix: (Units=GPa)
#
#
# Indices 1 2 3 4 5 6 
#
# 1 108.2753 55.7841 8.9400 0.0000 0.0000 0.0000
# 2 55.7841 84.2053 14.9299 0.0000 0.0000 0.0000
# 3 8.9400 14.9299 63.9370 0.0000 0.0000 0.0000
# 4 0.0000 0.0000 0.0000 30.1417 0.0000 0.0000
# 5 0.0000 0.0000 0.0000 0.0000 33.4529 0.0000
# 6 0.0000 0.0000 0.0000 0.0000 0.0000 30.8541
#
#
#
# Elastic Compliance Matrix: (Units=1/GPa)
#
#
# Indices 1 2 3 4 5 6 
#
# 1 0.014024 -0.009329 0.000218 0.000000 0.000000 0.000000
# 2 -0.009329 0.018595 -0.003038 0.000000 0.000000 0.000000
# 3 0.000218 -0.003038 0.016319 0.000000 0.000000 0.000000
# 4 0.000000 0.000000 0.000000 0.033177 0.000000 0.000000
# 5 0.000000 0.000000 0.000000 0.000000 0.029893 0.000000
# 6 0.000000 0.000000 0.000000 0.000000 0.000000 0.032411
#
#
# Mechanical properties :
#
#
# Convention : Reuss Voigt Hill
#
# Bulk Modulus (GPa) = 40.58510 46.19174 43.38842
# Shear Modulus (GPa) = 28.25971 30.67398 29.46685
#
# Velocity S-wave (km/s) = 3.46082 3.60563 3.53397
# Velocity P-wave (km/s) = 5.75942 6.07548 5.91956
#
# Compressibility (1/GPa) = 0.02463959
#
# Stress axis : x y z
#
# Youngs Moduli (GPa) = 71.30491 53.77849 61.27716
#
# Poissons Ratio (x) = 0.50172 -0.01333
# Poissons Ratio (y) = 0.66523 0.18614
# Poissons Ratio (z) = -0.01551 0.16336
#
# Static dielectric constant tensor:
#      x y z
#    x 1.878550 0.000000 0.000000 
#    y 0.000000 1.991350 0.000000 
#    z 0.000000 0.000000 1.923180 
# 
# From -- ./inp_files/51215.got.cif
#   From: 2010.05.17/outbox.cif.g08.bks.cpg/sg70_26_cif.got.tgz:51215.got - 2010.06.03 15:57:51.
