data_PCOD9516643
_publ_section_title
;
Structure prediction by ZEFSAII (Michael W. Deem and Ramdas Pophale) SiO2 
 PCOD9516643
Probable space group: F D D D
;
_chemical_formula_sum "Si O2"
_cell_formula_units_Z 176
_cell_length_a 11.324817
_cell_length_b 28.194544
_cell_length_c 27.057934
_cell_angle_alpha 90.000000
_cell_angle_beta 90.000000
_cell_angle_gamma 90.000000
_cell_volume 8639.545596
_symmetry_space_group_name_H-M "F D D D"
_symmetry_group_IT_number 70
_space_group.IT_coordinate_system_code '2'
_symmetry_cell_setting 'orthorhombic'
loop_
_space_group_symop_operation_xyz
x,y,z
1/4-x,1/4-y,z
x,1/4-y,1/4-z
1/4-x,y,1/4-z
-x,-y,-z
3/4+x,3/4+y,-z
-x,3/4+y,3/4+z
3/4+x,-y,3/4+z
x,1/2+y,1/2+z
1/4-x,3/4-y,1/2+z
x,3/4-y,3/4-z
1/4-x,1/2+y,3/4-z
-x,1/2-y,1/2-z
3/4+x,1/4+y,1/2-z
-x,1/4+y,1/4+z
3/4+x,1/2-y,1/4+z
1/2+x,y,1/2+z
3/4-x,1/4-y,1/2+z
1/2+x,1/4-y,3/4-z
3/4-x,y,3/4-z
1/2-x,-y,1/2-z
1/4+x,3/4+y,1/2-z
1/2-x,3/4+y,1/4+z
1/4+x,-y,1/4+z
1/2+x,1/2+y,z
3/4-x,3/4-y,z
1/2+x,3/4-y,1/4-z
3/4-x,1/2+y,1/4-z
1/2-x,1/2-y,-z
1/4+x,1/4+y,-z
1/2-x,1/4+y,3/4+z
1/4+x,1/2-y,3/4+z
loop_
_atom_site_type_symbol
_atom_site_label
_atom_site_fract_x
_atom_site_fract_y
_atom_site_fract_z
Si Si1 0.512452 0.452553 0.891744
Si Si2 0.392244 0.696417 0.709117
Si Si3 0.111030 0.198994 0.495749
Si Si4 0.397056 0.155674 0.739232
Si Si5 0.375000 0.375000 0.588281
Si Si6 0.512628 0.306761 0.657326
O O1 0.375000 0.447853 0.875000
O O2 0.594058 0.438560 0.845706
O O3 0.535960 0.421809 0.940174
O O4 0.552916 0.506387 0.906393
O O5 0.343192 0.746840 0.728434
O O6 0.534431 0.698684 0.714190
O O7 0.352702 0.651212 0.741046
O O8 0.157395 0.167899 0.448905
O O9 0.988396 0.174863 0.511733
O O10 0.455731 0.177736 0.787806
O O11 0.464145 0.350489 0.625881
O O12 0.625000 0.293350 0.625000
#
# Coordination Sequence:
#
# PCOD9516643 Si02
#       6
#    32  32  32  32  16  32
#     4  11  25  44  64  94 139 177 224 278 335 409
#     4  11  23  42  69  97 134 181 220 279 347 404
#     4  11  22  43  69  97 135 173 226 284 339 405
#     4  12  24  42  68  99 134 179 226 279 341 410
#     4  12  20  42  68  95 131 168 222 282 326 404
#     4  11  22  41  68  96 132 176 219 277 346 394
#
# _framework density 20.371441000000001
#
# number of rings (size 3 to 8) (size 9 to 14) (size 15 to 20)
#    0.000    0.727    5.455    2.182    0.000    5.091 
#    0.000    1.818    0.000    0.000    0.000    0.000 
#    0.000    0.000    0.000    0.000    0.000    0.000 
#
# Total GULP energy -245523.327964 kJ/mol
# GULP energy per Si atom -5580.075636 kJ/mol
# Density = 2.032507 g / cm^3
# Si number density = 20.371441 Si / 1000 Ang^3
#
#
#
# Elastic Constant Matrix: (Units=GPa)
#
#
# Indices 1 2 3 4 5 6 
#
# 1 58.0114 19.8961 51.5636 0.0000 0.0000 0.0000
# 2 19.8961 133.7244 32.1861 0.0000 0.0000 0.0000
# 3 51.5636 32.1861 135.5842 0.0000 0.0000 0.0000
# 4 0.0000 0.0000 0.0000 42.9558 0.0000 0.0000
# 5 0.0000 0.0000 0.0000 0.0000 26.7612 0.0000
# 6 0.0000 0.0000 0.0000 0.0000 0.0000 49.9061
#
#
#
# Elastic Compliance Matrix: (Units=1/GPa)
#
#
# Indices 1 2 3 4 5 6 
#
# 1 0.026360 -0.001600 -0.009645 0.000000 0.000000 0.000000
# 2 -0.001600 0.008028 -0.001297 0.000000 0.000000 0.000000
# 3 -0.009645 -0.001297 0.011351 0.000000 0.000000 0.000000
# 4 0.000000 0.000000 0.000000 0.023280 0.000000 0.000000
# 5 0.000000 0.000000 0.000000 0.000000 0.037368 0.000000
# 6 0.000000 0.000000 0.000000 0.000000 0.000000 0.020038
#
#
# Mechanical properties :
#
#
# Convention : Reuss Voigt Hill
#
# Bulk Modulus (GPa) = 48.41545 59.40127 53.90836
# Shear Modulus (GPa) = 31.56676 38.83623 35.20149
#
# Velocity S-wave (km/s) = 3.94071 4.37098 4.16141
# Velocity P-wave (km/s) = 6.67260 7.39570 7.04343
#
# Compressibility (1/GPa) = 0.02065456
#
# Stress axis : x y z
#
# Youngs Moduli (GPa) = 37.93660 124.55763 88.09467
#
# Poissons Ratio (x) = 0.19935 0.84966
# Poissons Ratio (y) = 0.06072 0.11427
# Poissons Ratio (z) = 0.36589 0.16157
#
# Static dielectric constant tensor:
#      x y z
#    x 1.734760 0.000000 0.000000 
#    y 0.000000 1.959300 0.000000 
#    z 0.000000 0.000000 1.674520 
# 
# From -- ./inp_files/20977.got.cif
#   From: 2010.05.17/outbox.cif.g08.bks.cpg/sg70_11_cif.got.tgz:20977.got - 2010.06.03 15:57:51.
