data_PCOD9516153
_publ_section_title
;
Structure prediction by ZEFSAII (Michael W. Deem and Ramdas Pophale) SiO2 
 PCOD9516153
Probable space group: F D D D
;
_chemical_formula_sum "Si O2"
_cell_formula_units_Z 208
_cell_length_a 17.474913
_cell_length_b 29.406310
_cell_length_c 18.188865
_cell_angle_alpha 90.000000
_cell_angle_beta 90.000000
_cell_angle_gamma 90.000000
_cell_volume 9346.761329
_symmetry_space_group_name_H-M "F D D D"
_symmetry_group_IT_number 70
_space_group.IT_coordinate_system_code '2'
_symmetry_cell_setting 'orthorhombic'
loop_
_space_group_symop_operation_xyz
x,y,z
1/4-x,1/4-y,z
x,1/4-y,1/4-z
1/4-x,y,1/4-z
-x,-y,-z
3/4+x,3/4+y,-z
-x,3/4+y,3/4+z
3/4+x,-y,3/4+z
x,1/2+y,1/2+z
1/4-x,3/4-y,1/2+z
x,3/4-y,3/4-z
1/4-x,1/2+y,3/4-z
-x,1/2-y,1/2-z
3/4+x,1/4+y,1/2-z
-x,1/4+y,1/4+z
3/4+x,1/2-y,1/4+z
1/2+x,y,1/2+z
3/4-x,1/4-y,1/2+z
1/2+x,1/4-y,3/4-z
3/4-x,y,3/4-z
1/2-x,-y,1/2-z
1/4+x,3/4+y,1/2-z
1/2-x,3/4+y,1/4+z
1/4+x,-y,1/4+z
1/2+x,1/2+y,z
3/4-x,3/4-y,z
1/2+x,3/4-y,1/4-z
3/4-x,1/2+y,1/4-z
1/2-x,1/2-y,-z
1/4+x,1/4+y,-z
1/2-x,1/4+y,3/4+z
1/4+x,1/2-y,3/4+z
loop_
_atom_site_type_symbol
_atom_site_label
_atom_site_fract_x
_atom_site_fract_y
_atom_site_fract_z
Si Si1 0.785926 0.860657 0.756504
Si Si2 0.875000 0.375000 0.000589
Si Si3 0.343358 0.276579 0.449740
Si Si4 0.365309 0.474575 0.023446
Si Si5 0.625000 0.976919 0.625000
Si Si6 0.915591 0.532892 0.086691
Si Si7 0.330733 0.125000 0.125000
Si Si8 0.268814 0.914661 0.123184
O O1 0.875000 0.875000 0.769660
O O2 0.795292 0.806429 0.756295
O O3 0.729941 0.886553 0.811261
O O4 0.751941 0.873540 0.678069
O O5 0.943631 0.360535 0.054754
O O6 0.883550 0.420932 0.956121
O O7 0.375000 0.255027 0.375000
O O8 0.370248 0.249664 0.523030
O O9 0.252672 0.281207 0.439340
O O10 0.339725 0.512216 0.081599
O O11 0.421825 0.444070 0.075449
O O12 0.398944 0.494825 0.947847
O O13 0.697119 0.945618 0.604077
O O14 0.879724 0.582968 0.094454
#
# Coordination Sequence:
#
# PCOD9516153 Si02
#       8
#    32  16  32  32  16  32  16  32
#     4  10  23  43  67 100 142 191 230 287 372 439
#     4  12  23  48  76 101 142 190 246 299 372 434
#     4  11  27  48  78 103 140 195 245 302 372 435
#     4  11  24  45  72 101 146 188 235 297 368 444
#     4  12  28  36  77 106 144 188 250 291 362 448
#     4  11  27  49  69 108 146 188 242 310 363 429
#     4  12  27  40  75 108 146 186 248 312 349 456
#     4  11  23  47  66 103 143 190 228 302 364 439
#
# _framework density 22.253698
#
# number of rings (size 3 to 8) (size 9 to 14) (size 15 to 20)
#    0.000    0.923    3.846    1.846   12.923    1.231 
#    0.000    0.000    1.692    0.000    0.000    0.000 
#    0.000    0.000    0.000    0.000    0.000    0.000 
#
# Total GULP energy -289986.222726 kJ/mol
# GULP energy per Si atom -5576.658129 kJ/mol
# Density = 2.220305 g / cm^3
# Si number density = 22.253698 Si / 1000 Ang^3
#
#
#
# Elastic Constant Matrix: (Units=GPa)
#
#
# Indices 1 2 3 4 5 6 
#
# 1 42.2586 8.8745 10.0972 0.0000 0.0000 0.0000
# 2 8.8745 86.3378 29.7792 0.0000 0.0000 0.0000
# 3 10.0972 29.7792 133.4723 0.0000 0.0000 0.0000
# 4 0.0000 0.0000 0.0000 31.5743 0.0000 0.0000
# 5 0.0000 0.0000 0.0000 0.0000 17.5980 0.0000
# 6 0.0000 0.0000 0.0000 0.0000 0.0000 36.7227
#
#
#
# Elastic Compliance Matrix: (Units=1/GPa)
#
#
# Indices 1 2 3 4 5 6 
#
# 1 0.024423 -0.002029 -0.001395 0.000000 0.000000 0.000000
# 2 -0.002029 0.012717 -0.002684 0.000000 0.000000 0.000000
# 3 -0.001395 -0.002684 0.008196 0.000000 0.000000 0.000000
# 4 0.000000 0.000000 0.000000 0.031671 0.000000 0.000000
# 5 0.000000 0.000000 0.000000 0.000000 0.056825 0.000000
# 6 0.000000 0.000000 0.000000 0.000000 0.000000 0.027231
#
#
# Mechanical properties :
#
#
# Convention : Reuss Voigt Hill
#
# Bulk Modulus (GPa) = 30.19269 39.95230 35.07249
# Shear Modulus (GPa) = 27.12678 31.40017 29.26348
#
# Velocity S-wave (km/s) = 3.49518 3.76042 3.63022
# Velocity P-wave (km/s) = 5.46674 6.07012 5.77632
#
# Compressibility (1/GPa) = 0.03312060
#
# Stress axis : x y z
#
# Youngs Moduli (GPa) = 40.94456 78.63699 122.00355
#
# Poissons Ratio (x) = 0.15958 0.17018
# Poissons Ratio (y) = 0.08309 0.32742
# Poissons Ratio (z) = 0.05711 0.21104
#
# Static dielectric constant tensor:
#      x y z
#    x 1.870730 0.000000 0.000000 
#    y 0.000000 1.856980 0.000000 
#    z 0.000000 0.000000 1.467320 
# 
# From -- ./inp_files/36762.got.cif
#   From: 2010.05.17/outbox.cif.g08.bks.cpg/sg70_19_cif.got.tgz:36762.got - 2010.06.03 15:57:51.
