data_PCOD9516062
_publ_section_title
;
Structure prediction by ZEFSAII (Michael W. Deem and Ramdas Pophale) SiO2 
 PCOD9516062
Probable space group: F D D D
;
_chemical_formula_sum "Si O2"
_cell_formula_units_Z 144
_cell_length_a 16.880452
_cell_length_b 23.463134
_cell_length_c 17.174799
_cell_angle_alpha 90.000000
_cell_angle_beta 90.000000
_cell_angle_gamma 90.000000
_cell_volume 6802.393567
_symmetry_space_group_name_H-M "F D D D"
_symmetry_group_IT_number 70
_space_group.IT_coordinate_system_code '2'
_symmetry_cell_setting 'orthorhombic'
loop_
_space_group_symop_operation_xyz
x,y,z
1/4-x,1/4-y,z
x,1/4-y,1/4-z
1/4-x,y,1/4-z
-x,-y,-z
3/4+x,3/4+y,-z
-x,3/4+y,3/4+z
3/4+x,-y,3/4+z
x,1/2+y,1/2+z
1/4-x,3/4-y,1/2+z
x,3/4-y,3/4-z
1/4-x,1/2+y,3/4-z
-x,1/2-y,1/2-z
3/4+x,1/4+y,1/2-z
-x,1/4+y,1/4+z
3/4+x,1/2-y,1/4+z
1/2+x,y,1/2+z
3/4-x,1/4-y,1/2+z
1/2+x,1/4-y,3/4-z
3/4-x,y,3/4-z
1/2-x,-y,1/2-z
1/4+x,3/4+y,1/2-z
1/2-x,3/4+y,1/4+z
1/4+x,-y,1/4+z
1/2+x,1/2+y,z
3/4-x,3/4-y,z
1/2+x,3/4-y,1/4-z
3/4-x,1/2+y,1/4-z
1/2-x,1/2-y,-z
1/4+x,1/4+y,-z
1/2-x,1/4+y,3/4+z
1/4+x,1/2-y,3/4+z
loop_
_atom_site_type_symbol
_atom_site_label
_atom_site_fract_x
_atom_site_fract_y
_atom_site_fract_z
Si Si1 0.705611 0.944014 0.722349
Si Si2 0.832259 0.076657 0.541837
Si Si3 0.023832 0.781638 0.559201
Si Si4 0.875000 0.528793 0.875000
Si Si5 0.500540 0.937008 0.866323
O O1 0.700388 0.891477 0.782859
O O2 0.742096 0.930977 0.636517
O O3 0.617482 0.966310 0.704827
O O4 0.750000 0.000000 0.750000
O O5 0.912116 0.066569 0.593226
O O6 0.766621 0.030383 0.567125
O O7 0.854185 0.064486 0.451340
O O8 0.996063 0.804426 0.476413
O O9 0.801738 0.488223 0.851143
O O10 0.464854 0.875000 0.875000
#
# Coordination Sequence:
#
# PCOD9516062 Si02
#       5
#    32  32  32  16  32
#     4  11  23  42  65  90 129 171 225 273 328 394
#     4  11  23  41  66  90 133 172 210 276 332 389
#     4  10  23  39  63  97 122 170 221 265 331 396
#     4  10  23  40  64  98 128 167 216 260 326 408
#     4  11  21  39  66  94 130 168 209 264 332 390
#
# _framework density 21.169018999999999
#
# number of rings (size 3 to 8) (size 9 to 14) (size 15 to 20)
#    0.000    1.333    2.222    3.667    0.000    0.889 
#    0.000    2.222    4.889    0.000    0.000    0.000 
#    0.000    0.000    0.000    0.000    0.000    0.000 
#
# Total GULP energy -200669.278466 kJ/mol
# GULP energy per Si atom -5574.146624 kJ/mol
# Density = 2.112084 g / cm^3
# Si number density = 21.169019 Si / 1000 Ang^3
#
#
#
# Elastic Constant Matrix: (Units=GPa)
#
#
# Indices 1 2 3 4 5 6 
#
# 1 30.5184 42.7628 3.3187 0.0000 0.0000 0.0000
# 2 42.7628 115.7139 41.7729 0.0000 0.0000 0.0000
# 3 3.3187 41.7729 80.4720 0.0000 0.0000 0.0000
# 4 0.0000 0.0000 0.0000 34.6193 0.0000 0.0000
# 5 0.0000 0.0000 0.0000 0.0000 31.6715 0.0000
# 6 0.0000 0.0000 0.0000 0.0000 0.0000 51.5646
#
#
#
# Elastic Compliance Matrix: (Units=1/GPa)
#
#
# Indices 1 2 3 4 5 6 
#
# 1 0.080197 -0.035003 0.014862 0.000000 0.000000 0.000000
# 2 -0.035003 0.025912 -0.012007 0.000000 0.000000 0.000000
# 3 0.014862 -0.012007 0.018047 0.000000 0.000000 0.000000
# 4 0.000000 0.000000 0.000000 0.028886 0.000000 0.000000
# 5 0.000000 0.000000 0.000000 0.000000 0.031574 0.000000
# 6 0.000000 0.000000 0.000000 0.000000 0.000000 0.019393
#
#
# Mechanical properties :
#
#
# Convention : Reuss Voigt Hill
#
# Bulk Modulus (GPa) = 16.70549 44.71257 30.70903
# Shear Modulus (GPa) = 17.34561 32.82775 25.08668
#
# Velocity S-wave (km/s) = 2.86560 3.94222 3.44621
# Velocity P-wave (km/s) = 4.34252 6.47217 5.51119
#
# Compressibility (1/GPa) = 0.05986057
#
# Stress axis : x y z
#
# Youngs Moduli (GPa) = 12.46931 38.59200 55.41165
#
# Poissons Ratio (x) = 1.35082 -0.82355
# Poissons Ratio (y) = 0.43646 0.66535
# Poissons Ratio (z) = -0.18532 0.46339
#
# Static dielectric constant tensor:
#      x y z
#    x 1.942130 0.000000 0.000000 
#    y 0.000000 1.787390 0.000000 
#    z 0.000000 0.000000 1.949860 
# 
# From -- ./inp_files/26603.got.cif
#   From: 2010.05.17/outbox.cif.g08.bks.cpg/sg70_14_cif.got.tgz:26603.got - 2010.06.03 15:57:51.
