data_PCOD9516595
_publ_section_title
;
Structure prediction by ZEFSAII (Michael W. Deem and Ramdas Pophale) SiO2 
 PCOD9516595
Probable space group: F D D D
;
_chemical_formula_sum "Si O2"
_cell_formula_units_Z 168
_cell_length_a 17.749824
_cell_length_b 23.034806
_cell_length_c 14.597189
_cell_angle_alpha 90.000000
_cell_angle_beta 90.000000
_cell_angle_gamma 90.000000
_cell_volume 5968.261469
_symmetry_space_group_name_H-M "F D D D"
_symmetry_group_IT_number 70
_space_group.IT_coordinate_system_code '2'
_symmetry_cell_setting 'orthorhombic'
loop_
_space_group_symop_operation_xyz
x,y,z
1/4-x,1/4-y,z
x,1/4-y,1/4-z
1/4-x,y,1/4-z
-x,-y,-z
3/4+x,3/4+y,-z
-x,3/4+y,3/4+z
3/4+x,-y,3/4+z
x,1/2+y,1/2+z
1/4-x,3/4-y,1/2+z
x,3/4-y,3/4-z
1/4-x,1/2+y,3/4-z
-x,1/2-y,1/2-z
3/4+x,1/4+y,1/2-z
-x,1/4+y,1/4+z
3/4+x,1/2-y,1/4+z
1/2+x,y,1/2+z
3/4-x,1/4-y,1/2+z
1/2+x,1/4-y,3/4-z
3/4-x,y,3/4-z
1/2-x,-y,1/2-z
1/4+x,3/4+y,1/2-z
1/2-x,3/4+y,1/4+z
1/4+x,-y,1/4+z
1/2+x,1/2+y,z
3/4-x,3/4-y,z
1/2+x,3/4-y,1/4-z
3/4-x,1/2+y,1/4-z
1/2-x,1/2-y,-z
1/4+x,1/4+y,-z
1/2-x,1/4+y,3/4+z
1/4+x,1/2-y,3/4+z
loop_
_atom_site_type_symbol
_atom_site_label
_atom_site_fract_x
_atom_site_fract_y
_atom_site_fract_z
Si Si1 0.112381 0.796903 0.233294
Si Si2 0.995422 0.193519 0.314586
Si Si3 0.900002 0.931902 0.572242
Si Si4 0.625000 0.625000 0.125000
Si Si5 0.218342 0.042208 0.987389
Si Si6 0.590958 0.920457 0.753669
O O1 0.125000 0.805058 0.125000
O O2 0.197234 0.787244 0.272692
O O3 0.069928 0.853582 0.273303
O O4 0.919507 0.765971 0.243768
O O5 0.080445 0.187467 0.353638
O O6 0.000000 0.250000 0.250000
O O7 0.931619 0.161458 0.251723
O O8 0.947203 0.191339 0.407971
O O9 0.875000 0.875000 0.517818
O O10 0.968312 0.921378 0.642816
O O11 0.672476 0.580650 0.061231
O O12 0.184930 0.980327 0.948415
#
# Coordination Sequence:
#
# PCOD9516595 Si02
#       6
#    32  32  32   8  32  32
#     4  12  29  50  73 105 154 217 270 315 384 471
#     4  11  21  43  76 107 152 183 241 330 405 458
#     4  12  27  46  72 108 151 204 264 327 386 463
#     4  12  28  44  84 132 154 188 242 334 432 480
#     4  12  27  47  77 118 158 197 252 327 414 477
#     4  11  24  44  74 111 153 195 245 324 402 479
#
# _framework density 28.148900999999999
#
# number of rings (size 3 to 8) (size 9 to 14) (size 15 to 20)
#    0.000    0.381    6.667    2.286    0.000    3.429 
#    0.000    1.905    0.000    0.000    0.000    0.000 
#    0.000    0.000    0.000    0.000    0.000    0.000 
#
# Total GULP energy -233994.081641 kJ/mol
# GULP energy per Si atom -5571.287658 kJ/mol
# Density = 2.808483 g / cm^3
# Si number density = 28.148901 Si / 1000 Ang^3
#
#
#
# Elastic Constant Matrix: (Units=GPa)
#
#
# Indices 1 2 3 4 5 6 
#
# 1 145.4950 23.6642 5.3294 0.0000 0.0000 0.0000
# 2 23.6642 225.2493 45.4929 0.0000 0.0000 0.0000
# 3 5.3294 45.4929 60.3041 0.0000 0.0000 0.0000
# 4 0.0000 0.0000 0.0000 49.2738 0.0000 0.0000
# 5 0.0000 0.0000 0.0000 0.0000 23.6190 0.0000
# 6 0.0000 0.0000 0.0000 0.0000 0.0000 27.3202
#
#
#
# Elastic Compliance Matrix: (Units=1/GPa)
#
#
# Indices 1 2 3 4 5 6 
#
# 1 0.006993 -0.000719 -0.000075 0.000000 0.000000 0.000000
# 2 -0.000719 0.005312 -0.003943 0.000000 0.000000 0.000000
# 3 -0.000075 -0.003943 0.019564 0.000000 0.000000 0.000000
# 4 0.000000 0.000000 0.000000 0.020295 0.000000 0.000000
# 5 0.000000 0.000000 0.000000 0.000000 0.042339 0.000000
# 6 0.000000 0.000000 0.000000 0.000000 0.000000 0.036603
#
#
# Mechanical properties :
#
#
# Convention : Reuss Voigt Hill
#
# Bulk Modulus (GPa) = 44.65814 64.44684 54.55249
# Shear Modulus (GPa) = 33.77340 43.81337 38.79339
#
# Velocity S-wave (km/s) = 3.46759 3.94951 3.71637
# Velocity P-wave (km/s) = 5.65081 6.61384 6.15120
#
# Compressibility (1/GPa) = 0.02239233
#
# Stress axis : x y z
#
# Youngs Moduli (GPa) = 143.00297 188.26904 51.11390
#
# Poissons Ratio (x) = 0.13545 0.00385
# Poissons Ratio (y) = 0.10288 0.20156
# Poissons Ratio (z) = 0.01076 0.74242
#
# Static dielectric constant tensor:
#      x y z
#    x 2.392970 0.000000 0.000000 
#    y 0.000000 2.974740 0.000000 
#    z 0.000000 0.000000 2.238100 
# 
# From -- ./inp_files/42967.got.cif
#   From: 2010.05.17/outbox.cif.g08.bks.cpg/sg70_22_cif.got.tgz:42967.got - 2010.06.03 15:57:51.
