data_PCOD9516146
_publ_section_title
;
Structure prediction by ZEFSAII (Michael W. Deem and Ramdas Pophale) SiO2 
 PCOD9516146
Probable space group: F D D D
;
_chemical_formula_sum "Si O2"
_cell_formula_units_Z 80
_cell_length_a 5.190273
_cell_length_b 28.295440
_cell_length_c 23.501434
_cell_angle_alpha 90.000000
_cell_angle_beta 90.000000
_cell_angle_gamma 90.000000
_cell_volume 3451.445468
_symmetry_space_group_name_H-M "F D D D"
_symmetry_group_IT_number 70
_space_group.IT_coordinate_system_code '2'
_symmetry_cell_setting 'orthorhombic'
loop_
_space_group_symop_operation_xyz
x,y,z
1/4-x,1/4-y,z
x,1/4-y,1/4-z
1/4-x,y,1/4-z
-x,-y,-z
3/4+x,3/4+y,-z
-x,3/4+y,3/4+z
3/4+x,-y,3/4+z
x,1/2+y,1/2+z
1/4-x,3/4-y,1/2+z
x,3/4-y,3/4-z
1/4-x,1/2+y,3/4-z
-x,1/2-y,1/2-z
3/4+x,1/4+y,1/2-z
-x,1/4+y,1/4+z
3/4+x,1/2-y,1/4+z
1/2+x,y,1/2+z
3/4-x,1/4-y,1/2+z
1/2+x,1/4-y,3/4-z
3/4-x,y,3/4-z
1/2-x,-y,1/2-z
1/4+x,3/4+y,1/2-z
1/2-x,3/4+y,1/4+z
1/4+x,-y,1/4+z
1/2+x,1/2+y,z
3/4-x,3/4-y,z
1/2+x,3/4-y,1/4-z
3/4-x,1/2+y,1/4-z
1/2-x,1/2-y,-z
1/4+x,1/4+y,-z
1/2-x,1/4+y,3/4+z
1/4+x,1/2-y,3/4+z
loop_
_atom_site_type_symbol
_atom_site_label
_atom_site_fract_x
_atom_site_fract_y
_atom_site_fract_z
Si Si1 0.663631 0.178408 0.440863
Si Si2 0.086822 0.178652 0.730644
Si Si3 0.375000 0.251675 0.375000
O O1 0.625000 0.125000 0.417791
O O2 0.431470 0.182784 0.486332
O O3 0.604335 0.216582 0.392867
O O4 0.927855 0.185546 0.475087
O O5 0.125000 0.125000 0.709014
O O6 0.084121 0.215228 0.679317
#
# Coordination Sequence:
#
# PCOD9516146 Si02
#       3
#    32  32  16
#     4  10  24  42  61  91 132 167 208 262 315 374
#     4  10  23  43  63  93 131 165 206 262 317 376
#     4  12  23  40  70  96 120 170 217 256 314 380
#
# _framework density 23.178692999999999
#
# number of rings (size 3 to 8) (size 9 to 14) (size 15 to 20)
#    0.000    1.600    0.000    3.000    0.000   11.200 
#    0.000    6.000    0.000    0.000    0.000    0.000 
#    0.000    0.000    0.000    0.000    0.000    0.000 
#
# Total GULP energy -112084.851304 kJ/mol
# GULP energy per Si atom -5604.242565 kJ/mol
# Density = 2.312594 g / cm^3
# Si number density = 23.178693 Si / 1000 Ang^3
#
#
#
# Elastic Constant Matrix: (Units=GPa)
#
#
# Indices 1 2 3 4 5 6 
#
# 1 66.4436 27.1342 19.1332 0.0000 0.0000 0.0000
# 2 27.1342 197.4735 102.9070 0.0000 0.0000 0.0000
# 3 19.1332 102.9070 101.9324 0.0000 0.0000 0.0000
# 4 0.0000 0.0000 0.0000 194.2585 0.0000 0.0000
# 5 0.0000 0.0000 0.0000 0.0000 12.3330 0.0000
# 6 0.0000 0.0000 0.0000 0.0000 0.0000 5.9350
#
#
#
# Elastic Compliance Matrix: (Units=1/GPa)
#
#
# Indices 1 2 3 4 5 6 
#
# 1 0.016077 -0.001343 -0.001662 0.000000 0.000000 0.000000
# 2 -0.001343 0.010798 -0.010649 0.000000 0.000000 0.000000
# 3 -0.001662 -0.010649 0.020873 0.000000 0.000000 0.000000
# 4 0.000000 0.000000 0.000000 0.005148 0.000000 0.000000
# 5 0.000000 0.000000 0.000000 0.000000 0.081083 0.000000
# 6 0.000000 0.000000 0.000000 0.000000 0.000000 0.168492
#
#
# Mechanical properties :
#
#
# Convention : Reuss Voigt Hill
#
# Bulk Modulus (GPa) = 48.92244 73.79982 61.36113
# Shear Modulus (GPa) = 14.85472 56.95030 35.90251
#
# Velocity S-wave (km/s) = 2.53430 4.96220 3.93993
# Velocity P-wave (km/s) = 5.45124 8.04611 6.87226
#
# Compressibility (1/GPa) = 0.02044052
#
# Stress axis : x y z
#
# Youngs Moduli (GPa) = 62.19908 92.61012 47.90821
#
# Poissons Ratio (x) = 0.12439 0.07962
# Poissons Ratio (y) = 0.08354 0.51018
# Poissons Ratio (z) = 0.10336 0.98621
#
# Static dielectric constant tensor:
#      x y z
#    x 1.861960 0.000000 0.000000 
#    y 0.000000 1.901970 0.000000 
#    z 0.000000 0.000000 1.826860 
# 
# From -- ./inp_files/2423.got.cif
#   From: 2010.05.17/outbox.cif.g08.bks.cpg/sg70_2_cif.got.tgz:2423.got - 2010.06.03 15:57:51.
