data_PCOD9516862
_publ_section_title
;
Structure prediction by ZEFSAII (Michael W. Deem and Ramdas Pophale) SiO2 
 PCOD9516862
Probable space group: F D D D
;
_chemical_formula_sum "Si O2"
_cell_formula_units_Z 136
_cell_length_a 13.745314
_cell_length_b 26.252403
_cell_length_c 16.426949
_cell_angle_alpha 90.000000
_cell_angle_beta 90.000000
_cell_angle_gamma 90.000000
_cell_volume 5927.623849
_symmetry_space_group_name_H-M "F D D D"
_symmetry_group_IT_number 70
_space_group.IT_coordinate_system_code '2'
_symmetry_cell_setting 'orthorhombic'
loop_
_space_group_symop_operation_xyz
x,y,z
1/4-x,1/4-y,z
x,1/4-y,1/4-z
1/4-x,y,1/4-z
-x,-y,-z
3/4+x,3/4+y,-z
-x,3/4+y,3/4+z
3/4+x,-y,3/4+z
x,1/2+y,1/2+z
1/4-x,3/4-y,1/2+z
x,3/4-y,3/4-z
1/4-x,1/2+y,3/4-z
-x,1/2-y,1/2-z
3/4+x,1/4+y,1/2-z
-x,1/4+y,1/4+z
3/4+x,1/2-y,1/4+z
1/2+x,y,1/2+z
3/4-x,1/4-y,1/2+z
1/2+x,1/4-y,3/4-z
3/4-x,y,3/4-z
1/2-x,-y,1/2-z
1/4+x,3/4+y,1/2-z
1/2-x,3/4+y,1/4+z
1/4+x,-y,1/4+z
1/2+x,1/2+y,z
3/4-x,3/4-y,z
1/2+x,3/4-y,1/4-z
3/4-x,1/2+y,1/4-z
1/2-x,1/2-y,-z
1/4+x,1/4+y,-z
1/2-x,1/4+y,3/4+z
1/4+x,1/2-y,3/4+z
loop_
_atom_site_type_symbol
_atom_site_label
_atom_site_fract_x
_atom_site_fract_y
_atom_site_fract_z
Si Si1 0.875000 0.456435 0.375000
Si Si2 0.765809 0.200600 0.215564
Si Si3 0.625000 0.625000 0.264902
Si Si4 0.375000 0.875000 0.875000
Si Si5 0.917689 0.027122 0.166432
Si Si6 0.910155 0.629935 0.459415
O O1 0.888237 0.422576 0.294972
O O2 0.767984 0.479088 0.365029
O O3 0.696258 0.158709 0.178218
O O4 0.827267 0.228826 0.144385
O O5 0.692577 0.237357 0.263229
O O6 0.846687 0.170234 0.269315
O O7 0.523063 0.632598 0.308086
O O8 0.904334 0.081867 0.212744
O O9 0.875000 0.654182 0.375000
#
# Coordination Sequence:
#
# PCOD9516862 Si02
#       6
#    16  32  16   8  32  32
#     4   9  18  38  74 101 136 183 236 298 370 435
#     4  12  27  49  77 107 152 197 257 316 390 462
#     4   9  18  39  72  99 141 194 232 298 371 435
#     4  12  28  50  76  98 148 206 246 312 388 456
#     4  11  25  46  76 109 147 197 255 315 381 466
#     4  11  24  45  72 109 151 192 250 315 380 454
#
# _framework density 22.943425000000001
#
# number of rings (size 3 to 8) (size 9 to 14) (size 15 to 20)
#    0.000    1.176    4.706    0.000    3.294    8.471 
#    0.000    0.000    0.000    0.000    0.000    0.000 
#    0.000    0.000    0.000    0.000    0.000    0.000 
#
# Total GULP energy -189787.995154 kJ/mol
# GULP energy per Si atom -5581.999857 kJ/mol
# Density = 2.289120 g / cm^3
# Si number density = 22.943425 Si / 1000 Ang^3
#
#
#
# Elastic Constant Matrix: (Units=GPa)
#
#
# Indices 1 2 3 4 5 6 
#
# 1 153.5972 34.8491 52.4614 0.0000 0.0000 0.0000
# 2 34.8491 59.5991 26.1874 0.0000 0.0000 0.0000
# 3 52.4614 26.1874 81.5374 0.0000 0.0000 0.0000
# 4 0.0000 0.0000 0.0000 25.3438 0.0000 0.0000
# 5 0.0000 0.0000 0.0000 0.0000 -150.2796 0.0000
# 6 0.0000 0.0000 0.0000 0.0000 0.0000 51.1340
#
#
#
# Elastic Compliance Matrix: (Units=1/GPa)
#
#
# Indices 1 2 3 4 5 6 
#
# 1 0.008809 -0.003098 -0.004673 0.000000 0.000000 0.000000
# 2 -0.003098 0.020625 -0.004631 0.000000 0.000000 0.000000
# 3 -0.004673 -0.004631 0.016758 0.000000 0.000000 0.000000
# 4 0.000000 0.000000 0.000000 0.039457 0.000000 0.000000
# 5 0.000000 0.000000 0.000000 0.000000 -0.006654 0.000000
# 6 0.000000 0.000000 0.000000 0.000000 0.000000 0.019556
#
#
# Mechanical properties :
#
#
# Convention : Reuss Voigt Hill
#
# Bulk Modulus (GPa) = 46.75309 57.96994 52.36151
# Shear Modulus (GPa) = 38.31832 -2.67797 17.82018
#
# Velocity S-wave (km/s) = 4.09115 -1.08154 2.78996
# Velocity P-wave (km/s) = 6.53746 4.87459 5.76629
#
# Compressibility (1/GPa) = 0.02138896
#
# Stress axis : x y z
#
# Youngs Moduli (GPa) = 113.51386 48.48496 59.67170
#
# Poissons Ratio (x) = 0.15020 0.27885
# Poissons Ratio (y) = 0.35164 0.27634
# Poissons Ratio (z) = 0.53047 0.22453
#
# Static dielectric constant tensor:
#      x y z
#    x 1.887140 0.000000 0.000000 
#    y 0.000000 1.922990 0.000000 
#    z 0.000000 0.000000 1.881730 
# 
# From -- ./inp_files/42087.got.cif
#   From: 2010.05.17/outbox.cif.g08.bks.cpg/sg70_22_cif.got.tgz:42087.got - 2010.06.03 15:57:51.
