data_PCOD9516716
_publ_section_title
;
Structure prediction by ZEFSAII (Michael W. Deem and Ramdas Pophale) SiO2 
 PCOD9516716
Probable space group: F D D D
;
_chemical_formula_sum "Si O2"
_cell_formula_units_Z 168
_cell_length_a 22.724725
_cell_length_b 21.118789
_cell_length_c 15.434722
_cell_angle_alpha 90.000000
_cell_angle_beta 90.000000
_cell_angle_gamma 90.000000
_cell_volume 7407.411290
_symmetry_space_group_name_H-M "F D D D"
_symmetry_group_IT_number 70
_space_group.IT_coordinate_system_code '2'
_symmetry_cell_setting 'orthorhombic'
loop_
_space_group_symop_operation_xyz
x,y,z
1/4-x,1/4-y,z
x,1/4-y,1/4-z
1/4-x,y,1/4-z
-x,-y,-z
3/4+x,3/4+y,-z
-x,3/4+y,3/4+z
3/4+x,-y,3/4+z
x,1/2+y,1/2+z
1/4-x,3/4-y,1/2+z
x,3/4-y,3/4-z
1/4-x,1/2+y,3/4-z
-x,1/2-y,1/2-z
3/4+x,1/4+y,1/2-z
-x,1/4+y,1/4+z
3/4+x,1/2-y,1/4+z
1/2+x,y,1/2+z
3/4-x,1/4-y,1/2+z
1/2+x,1/4-y,3/4-z
3/4-x,y,3/4-z
1/2-x,-y,1/2-z
1/4+x,3/4+y,1/2-z
1/2-x,3/4+y,1/4+z
1/4+x,-y,1/4+z
1/2+x,1/2+y,z
3/4-x,3/4-y,z
1/2+x,3/4-y,1/4-z
3/4-x,1/2+y,1/4-z
1/2-x,1/2-y,-z
1/4+x,1/4+y,-z
1/2-x,1/4+y,3/4+z
1/4+x,1/2-y,3/4+z
loop_
_atom_site_type_symbol
_atom_site_label
_atom_site_fract_x
_atom_site_fract_y
_atom_site_fract_z
Si Si1 0.707191 0.956040 0.950056
Si Si2 0.625000 0.125000 0.125000
Si Si3 0.591930 0.882020 0.978762
Si Si4 0.967643 0.898513 0.222942
Si Si5 0.534790 0.601431 0.967015
Si Si6 0.672854 0.775486 0.001646
O O1 0.645748 0.931369 0.994227
O O2 0.690208 0.957980 0.848584
O O3 0.758959 0.907712 0.975655
O O4 0.726979 0.025838 0.973854
O O5 0.673466 0.107278 0.051873
O O6 0.585780 0.875000 0.875000
O O7 0.527014 0.892342 0.014507
O O8 0.614726 0.815273 0.017378
O O9 0.943560 0.879296 0.127937
O O10 0.578103 0.550036 0.010424
O O11 0.476568 0.557846 0.948107
#
# Coordination Sequence:
#
# PCOD9516716 Si02
#       6
#    32   8  32  32  32  32
#     4   9  19  36  61  94 121 154 201 247 311 381
#     4  12  28  48  52  76 126 160 212 280 292 344
#     4   9  17  36  60  82 115 160 195 242 305 365
#     4  11  23  40  59  83 117 162 212 259 306 362
#     4   9  17  34  58  90 118 159 192 245 305 364
#     4   8  16  32  61  91 125 155 187 243 308 370
#
# _framework density 22.679988000000002
#
# number of rings (size 3 to 8) (size 9 to 14) (size 15 to 20)
#    0.000    2.667    0.952    1.714    0.000    4.571 
#   10.286    1.905    0.000    0.000    4.952    0.000 
#    0.000    0.000    0.000    0.000    0.000    0.000 
#
# Total GULP energy -233867.186592 kJ/mol
# GULP energy per Si atom -5568.266347 kJ/mol
# Density = 2.262837 g / cm^3
# Si number density = 22.679988 Si / 1000 Ang^3
#
#
#
# Elastic Constant Matrix: (Units=GPa)
#
#
# Indices 1 2 3 4 5 6 
#
# 1 130.3217 -41.3932 28.6372 0.0000 0.0000 0.0000
# 2 -41.3932 169.2701 13.2132 0.0000 0.0000 0.0000
# 3 28.6372 13.2132 66.4497 0.0000 0.0000 0.0000
# 4 0.0000 0.0000 0.0000 20.7216 0.0000 0.0000
# 5 0.0000 0.0000 0.0000 0.0000 6.6608 0.0000
# 6 0.0000 0.0000 0.0000 0.0000 0.0000 -1.6126
#
#
#
# Elastic Compliance Matrix: (Units=1/GPa)
#
#
# Indices 1 2 3 4 5 6 
#
# 1 0.009553 0.002699 -0.004654 0.000000 0.000000 0.000000
# 2 0.002699 0.006764 -0.002508 0.000000 0.000000 0.000000
# 3 -0.004654 -0.002508 0.017553 0.000000 0.000000 0.000000
# 4 0.000000 0.000000 0.000000 0.048259 0.000000 0.000000
# 5 0.000000 0.000000 0.000000 0.000000 0.150133 0.000000
# 6 0.000000 0.000000 0.000000 0.000000 0.000000 -0.620110
#
#
# Mechanical properties :
#
#
# Convention : Reuss Voigt Hill
#
# Bulk Modulus (GPa) = 40.08826 40.77289 40.43057
# Shear Modulus (GPa) = -13.49138 29.52623 8.01743
#
# Velocity S-wave (km/s) = -2.44162 3.61205 1.88221
# Velocity P-wave (km/s) = 3.12495 5.95083 4.75277
#
# Compressibility (1/GPa) = 0.02494496
#
# Stress axis : x y z
#
# Youngs Moduli (GPa) = 104.67480 147.84939 56.96902
#
# Poissons Ratio (x) = -0.39911 0.26513
# Poissons Ratio (y) = -0.28257 0.14289
# Poissons Ratio (z) = 0.48715 0.37085
#
# Static dielectric constant tensor:
#      x y z
#    x 1.937520 0.000000 0.000000 
#    y 0.000000 1.877870 0.000000 
#    z 0.000000 0.000000 1.857760 
# 
# From -- ./inp_files/37553.got.cif
#   From: 2010.05.17/outbox.cif.g08.bks.cpg/sg70_19_cif.got.tgz:37553.got - 2010.06.03 15:57:51.
