data_PCOD9516102
_publ_section_title
;
Structure prediction by ZEFSAII (Michael W. Deem and Ramdas Pophale) SiO2 
 PCOD9516102
Probable space group: F D D D
;
_chemical_formula_sum "Si O2"
_cell_formula_units_Z 160
_cell_length_a 19.570789
_cell_length_b 20.144393
_cell_length_c 18.657518
_cell_angle_alpha 90.000000
_cell_angle_beta 90.000000
_cell_angle_gamma 90.000000
_cell_volume 7355.570960
_symmetry_space_group_name_H-M "F D D D"
_symmetry_group_IT_number 70
_space_group.IT_coordinate_system_code '2'
_symmetry_cell_setting 'orthorhombic'
loop_
_space_group_symop_operation_xyz
x,y,z
1/4-x,1/4-y,z
x,1/4-y,1/4-z
1/4-x,y,1/4-z
-x,-y,-z
3/4+x,3/4+y,-z
-x,3/4+y,3/4+z
3/4+x,-y,3/4+z
x,1/2+y,1/2+z
1/4-x,3/4-y,1/2+z
x,3/4-y,3/4-z
1/4-x,1/2+y,3/4-z
-x,1/2-y,1/2-z
3/4+x,1/4+y,1/2-z
-x,1/4+y,1/4+z
3/4+x,1/2-y,1/4+z
1/2+x,y,1/2+z
3/4-x,1/4-y,1/2+z
1/2+x,1/4-y,3/4-z
3/4-x,y,3/4-z
1/2-x,-y,1/2-z
1/4+x,3/4+y,1/2-z
1/2-x,3/4+y,1/4+z
1/4+x,-y,1/4+z
1/2+x,1/2+y,z
3/4-x,3/4-y,z
1/2+x,3/4-y,1/4-z
3/4-x,1/2+y,1/4-z
1/2-x,1/2-y,-z
1/4+x,1/4+y,-z
1/2-x,1/4+y,3/4+z
1/4+x,1/2-y,3/4+z
loop_
_atom_site_type_symbol
_atom_site_label
_atom_site_fract_x
_atom_site_fract_y
_atom_site_fract_z
Si Si1 0.334471 0.057045 0.301200
Si Si2 0.778808 0.060334 0.031898
Si Si3 0.963788 0.535365 0.064974
Si Si4 0.559224 0.670666 0.255485
Si Si5 0.160671 0.554081 0.921068
O O1 0.375000 0.075771 0.375000
O O2 0.394036 0.051303 0.242830
O O3 0.270521 0.100745 0.271024
O O4 0.306348 0.981088 0.301461
O O5 0.775350 0.137612 0.051368
O O6 0.761217 0.020228 0.104110
O O7 0.729035 0.046772 0.966406
O O8 0.887289 0.508085 0.062888
O O9 0.000000 0.500000 0.000000
O O10 0.625000 0.625000 0.234862
O O11 0.577126 0.692158 0.336699
O O12 0.125000 0.625000 0.941254
#
# Coordination Sequence:
#
# PCOD9516102 Si02
#       5
#    32  32  32  32  32
#     4  11  22  42  66  96 132 171 217 271 328 400
#     4  11  24  42  67  98 132 172 225 278 333 406
#     4  11  24  44  64  94 134 172 224 277 338 397
#     4  10  23  41  67  95 130 171 218 269 335 400
#     4  11  21  42  68  91 130 174 217 277 335 398
#
# _framework density 21.752220000000001
#
# number of rings (size 3 to 8) (size 9 to 14) (size 15 to 20)
#    0.000    1.200    6.000    0.000    0.000    2.800 
#    3.600    0.000    0.000    0.000    0.000    0.000 
#    0.000    0.000    0.000    0.000    0.000    0.000 
#
# Total GULP energy -222887.099108 kJ/mol
# GULP energy per Si atom -5572.177478 kJ/mol
# Density = 2.170271 g / cm^3
# Si number density = 21.752220 Si / 1000 Ang^3
#
#
#
# Elastic Constant Matrix: (Units=GPa)
#
#
# Indices 1 2 3 4 5 6 
#
# 1 100.0144 9.6563 15.7927 0.0000 0.0000 0.0000
# 2 9.6563 30.4455 14.2990 0.0000 0.0000 0.0000
# 3 15.7927 14.2990 60.7788 0.0000 0.0000 0.0000
# 4 0.0000 0.0000 0.0000 21.8769 0.0000 0.0000
# 5 0.0000 0.0000 0.0000 0.0000 -48.2102 0.0000
# 6 0.0000 0.0000 0.0000 0.0000 0.0000 39.3548
#
#
#
# Elastic Compliance Matrix: (Units=1/GPa)
#
#
# Indices 1 2 3 4 5 6 
#
# 1 0.010570 -0.002319 -0.002201 0.000000 0.000000 0.000000
# 2 -0.002319 0.037434 -0.008204 0.000000 0.000000 0.000000
# 3 -0.002201 -0.008204 0.018955 0.000000 0.000000 0.000000
# 4 0.000000 0.000000 0.000000 0.045710 0.000000 0.000000
# 5 0.000000 0.000000 0.000000 0.000000 -0.020743 0.000000
# 6 0.000000 0.000000 0.000000 0.000000 0.000000 0.025410
#
#
# Mechanical properties :
#
#
# Convention : Reuss Voigt Hill
#
# Bulk Modulus (GPa) = 24.08988 30.08163 27.08575
# Shear Modulus (GPa) = 31.92391 12.70368 22.31379
#
# Velocity S-wave (km/s) = 3.83510 2.41927 3.20631
# Velocity P-wave (km/s) = 5.54161 4.65436 5.11725
#
# Compressibility (1/GPa) = 0.04151121
#
# Stress axis : x y z
#
# Youngs Moduli (GPa) = 94.60754 26.71349 52.75593
#
# Poissons Ratio (x) = 0.06194 0.11612
# Poissons Ratio (y) = 0.21937 0.43283
# Poissons Ratio (z) = 0.20823 0.21917
#
# Static dielectric constant tensor:
#      x y z
#    x 1.875020 0.000000 0.000000 
#    y 0.000000 1.857090 0.000000 
#    z 0.000000 0.000000 1.786370 
# 
# From -- ./inp_files/36290.got.cif
#   From: 2010.05.17/outbox.cif.g08.bks.cpg/sg70_19_cif.got.tgz:36290.got - 2010.06.03 15:57:51.
