data_PCOD9516646
_publ_section_title
;
Structure prediction by ZEFSAII (Michael W. Deem and Ramdas Pophale) SiO2 
 PCOD9516646
Probable space group: F D D D
;
_chemical_formula_sum "Si O2"
_cell_formula_units_Z 192
_cell_length_a 27.843077
_cell_length_b 31.158173
_cell_length_c 10.581220
_cell_angle_alpha 90.000000
_cell_angle_beta 90.000000
_cell_angle_gamma 90.000000
_cell_volume 9179.625356
_symmetry_space_group_name_H-M "F D D D"
_symmetry_group_IT_number 70
_space_group.IT_coordinate_system_code '2'
_symmetry_cell_setting 'orthorhombic'
loop_
_space_group_symop_operation_xyz
x,y,z
1/4-x,1/4-y,z
x,1/4-y,1/4-z
1/4-x,y,1/4-z
-x,-y,-z
3/4+x,3/4+y,-z
-x,3/4+y,3/4+z
3/4+x,-y,3/4+z
x,1/2+y,1/2+z
1/4-x,3/4-y,1/2+z
x,3/4-y,3/4-z
1/4-x,1/2+y,3/4-z
-x,1/2-y,1/2-z
3/4+x,1/4+y,1/2-z
-x,1/4+y,1/4+z
3/4+x,1/2-y,1/4+z
1/2+x,y,1/2+z
3/4-x,1/4-y,1/2+z
1/2+x,1/4-y,3/4-z
3/4-x,y,3/4-z
1/2-x,-y,1/2-z
1/4+x,3/4+y,1/2-z
1/2-x,3/4+y,1/4+z
1/4+x,-y,1/4+z
1/2+x,1/2+y,z
3/4-x,3/4-y,z
1/2+x,3/4-y,1/4-z
3/4-x,1/2+y,1/4-z
1/2-x,1/2-y,-z
1/4+x,1/4+y,-z
1/2-x,1/4+y,3/4+z
1/4+x,1/2-y,3/4+z
loop_
_atom_site_type_symbol
_atom_site_label
_atom_site_fract_x
_atom_site_fract_y
_atom_site_fract_z
Si Si1 0.633775 0.777627 0.924305
Si Si2 0.685021 0.330674 0.014695
Si Si3 0.125000 0.844051 0.625000
Si Si4 0.125000 0.625000 0.125000
Si Si5 0.875000 0.375000 0.375000
Si Si6 0.284393 0.519666 0.487195
Si Si7 0.682145 0.700952 0.262721
Si Si8 0.710985 0.061689 0.195422
O O1 0.597738 0.801325 0.825946
O O2 0.677961 0.759100 0.845896
O O3 0.605288 0.739757 0.993070
O O4 0.650645 0.813146 0.024638
O O5 0.660057 0.375455 0.045744
O O6 0.692776 0.306908 0.149288
O O7 0.737784 0.334751 0.956658
O O8 0.166741 0.588825 0.146530
O O9 0.841635 0.342683 0.291408
O O10 0.233686 0.535488 0.543873
O O11 0.279611 0.479803 0.391371
O O12 0.695524 0.698368 0.411004
#
# Coordination Sequence:
#
# PCOD9516646 Si02
#       8
#    32  32  16   8   8  32  32  32
#     4  12  23  44  69 100 143 180 236 287 353 430
#     4  11  22  41  70  97 137 179 232 297 354 408
#     4  12  27  37  64 109 140 185 222 291 359 420
#     4  12  26  34  64 104 142 176 234 310 364 416
#     4  12  28  48  68  96 154 192 234 278 366 442
#     4  11  22  42  76 101 129 184 247 294 353 419
#     4  11  24  46  69  97 138 193 231 294 357 433
#     4  11  23  43  67 102 132 181 243 297 358 415
#
# _framework density 20.915887000000001
#
# number of rings (size 3 to 8) (size 9 to 14) (size 15 to 20)
#    0.000    0.667    5.000    3.500    2.333    2.667 
#    0.000    5.000    0.000    0.000    0.000    0.000 
#    0.000    0.000    0.000    0.000    0.000    0.000 
#
# Total GULP energy -267845.490752 kJ/mol
# GULP energy per Si atom -5580.114391 kJ/mol
# Density = 2.086828 g / cm^3
# Si number density = 20.915887 Si / 1000 Ang^3
#
#
#
# Elastic Constant Matrix: (Units=GPa)
#
#
# Indices 1 2 3 4 5 6 
#
# 1 151.5436 54.3103 48.0516 0.0005 -0.0007 -0.0002
# 2 54.3103 129.3998 36.2562 0.0002 -0.0007 -0.0007
# 3 48.0516 36.2562 66.7136 0.0019 -0.0036 -0.0027
# 4 0.0005 0.0002 0.0019 40.7426 -0.0011 -0.0016
# 5 -0.0007 -0.0007 -0.0036 -0.0011 2.7532 0.0014
# 6 -0.0002 -0.0007 -0.0027 -0.0016 0.0014 22.7922
#
#
#
# Elastic Compliance Matrix: (Units=1/GPa)
#
#
# Indices 1 2 3 4 5 6 
#
# 1 0.009117 -0.002343 -0.005293 0.000000 -0.000005 -0.000001
# 2 -0.002343 0.009718 -0.003594 0.000000 -0.000003 0.000000
# 3 -0.005293 -0.003594 0.020755 -0.000001 0.000025 0.000002
# 4 0.000000 0.000000 -0.000001 0.024544 0.000010 0.000002
# 5 -0.000005 -0.000003 0.000025 0.000010 0.363211 -0.000023
# 6 -0.000001 0.000000 0.000002 0.000002 -0.000023 0.043875
#
#
# Mechanical properties :
#
#
# Convention : Reuss Voigt Hill
#
# Bulk Modulus (GPa) = 58.37744 69.43258 63.90501
# Shear Modulus (GPa) = 10.01220 27.19353 18.60286
#
# Velocity S-wave (km/s) = 2.19027 3.60965 2.98554
# Velocity P-wave (km/s) = 5.86238 7.11625 6.51953
#
# Compressibility (1/GPa) = 0.01712991
#
# Stress axis : x y z
#
# Youngs Moduli (GPa) = 109.68608 102.89707 48.18133
#
# Poissons Ratio (x) = 0.24113 0.25503
# Poissons Ratio (y) = 0.25704 0.17315
# Poissons Ratio (z) = 0.58058 0.36978
#
# Static dielectric constant tensor:
#      x y z
#    x 1.799690 0.000000 0.000000 
#    y 0.000000 1.753000 0.000000 
#    z 0.000000 0.000000 1.803890 
# 
# From -- ./inp_files/21256.got.cif
#   From: 2010.05.17/outbox.cif.g08.bks.cpg/sg70_11_cif.got.tgz:21256.got - 2010.06.03 15:57:51.
