data_PCOD9516419
_publ_section_title
;
Structure prediction by ZEFSAII (Michael W. Deem and Ramdas Pophale) SiO2 
 PCOD9516419
Probable space group: F D D D
;
_chemical_formula_sum "Si O2"
_cell_formula_units_Z 96
_cell_length_a 21.094523
_cell_length_b 13.277422
_cell_length_c 13.277423
_cell_angle_alpha 90.000000
_cell_angle_beta 90.000000
_cell_angle_gamma 90.000000
_cell_volume 3718.752368
_symmetry_space_group_name_H-M "F D D D"
_symmetry_group_IT_number 70
_space_group.IT_coordinate_system_code '2'
_symmetry_cell_setting 'orthorhombic'
loop_
_space_group_symop_operation_xyz
x,y,z
1/4-x,1/4-y,z
x,1/4-y,1/4-z
1/4-x,y,1/4-z
-x,-y,-z
3/4+x,3/4+y,-z
-x,3/4+y,3/4+z
3/4+x,-y,3/4+z
x,1/2+y,1/2+z
1/4-x,3/4-y,1/2+z
x,3/4-y,3/4-z
1/4-x,1/2+y,3/4-z
-x,1/2-y,1/2-z
3/4+x,1/4+y,1/2-z
-x,1/4+y,1/4+z
3/4+x,1/2-y,1/4+z
1/2+x,y,1/2+z
3/4-x,1/4-y,1/2+z
1/2+x,1/4-y,3/4-z
3/4-x,y,3/4-z
1/2-x,-y,1/2-z
1/4+x,3/4+y,1/2-z
1/2-x,3/4+y,1/4+z
1/4+x,-y,1/4+z
1/2+x,1/2+y,z
3/4-x,3/4-y,z
1/2+x,3/4-y,1/4-z
3/4-x,1/2+y,1/4-z
1/2-x,1/2-y,-z
1/4+x,1/4+y,-z
1/2-x,1/4+y,3/4+z
1/4+x,1/2-y,3/4+z
loop_
_atom_site_type_symbol
_atom_site_label
_atom_site_fract_x
_atom_site_fract_y
_atom_site_fract_z
Si Si1 0.252933 0.375000 0.375000
Si Si2 0.752933 0.375000 0.375000
Si Si3 0.059457 0.829570 0.176201
Si Si4 0.440543 0.926201 0.579570
O O1 0.204325 0.363403 0.280863
O O2 0.299598 0.459051 0.326768
O O3 0.799598 0.326768 0.459052
O O4 0.704325 0.280863 0.363403
O O5 0.125000 0.857626 0.125000
O O6 0.000000 0.858378 0.108378
O O7 0.375000 0.875000 0.607626
#
# Coordination Sequence:
#
# PCOD9516419 Si02
#       4
#    16  16  32  32
#     4  10  25  45  70 104 147 191 248 314 381 453
#     4  10  25  45  70 104 147 191 248 314 381 453
#     4  11  25  45  72 105 144 193 249 311 379 452
#     4  11  25  45  72 105 144 193 249 311 379 452
#
# _framework density 25.815111000000002
#
# number of rings (size 3 to 8) (size 9 to 14) (size 15 to 20)
#    0.000    1.333    0.000    3.000    0.000   24.000 
#    0.000    0.000    0.000    0.000    0.000    0.000 
#    0.000    0.000    0.000    0.000    0.000    0.000 
#
# Total GULP energy -133979.669119 kJ/mol
# GULP energy per Si atom -5582.486213 kJ/mol
# Density = 2.575635 g / cm^3
# Si number density = 25.815111 Si / 1000 Ang^3
#
#
#
# Elastic Constant Matrix: (Units=GPa)
#
#
# Indices 1 2 3 4 5 6 
#
# 1 213.5347 38.1735 38.1738 0.0000 0.0000 0.0000
# 2 38.1735 105.5909 6.3445 0.0000 0.0000 0.0000
# 3 38.1738 6.3445 105.5924 0.0000 0.0000 0.0000
# 4 0.0000 0.0000 0.0000 36.9943 0.0000 0.0000
# 5 0.0000 0.0000 0.0000 0.0000 28.8502 0.0000
# 6 0.0000 0.0000 0.0000 0.0000 0.0000 28.8498
#
#
#
# Elastic Compliance Matrix: (Units=1/GPa)
#
#
# Indices 1 2 3 4 5 6 
#
# 1 0.005333 -0.001819 -0.001819 0.000000 0.000000 0.000000
# 2 -0.001819 0.010125 0.000049 0.000000 0.000000 0.000000
# 3 -0.001819 0.000049 0.010125 0.000000 0.000000 0.000000
# 4 0.000000 0.000000 0.000000 0.027031 0.000000 0.000000
# 5 0.000000 0.000000 0.000000 0.000000 0.034662 0.000000
# 6 0.000000 0.000000 0.000000 0.000000 0.000000 0.034662
#
#
# Mechanical properties :
#
#
# Convention : Reuss Voigt Hill
#
# Bulk Modulus (GPa) = 54.32877 65.56685 59.94781
# Shear Modulus (GPa) = 36.96822 41.74060 39.35441
#
# Velocity S-wave (km/s) = 3.78833 4.02544 3.90868
# Velocity P-wave (km/s) = 6.34242 6.85998 6.60627
#
# Compressibility (1/GPa) = 0.01840645
#
# Stress axis : x y z
#
# Youngs Moduli (GPa) = 187.49798 98.76434 98.76566
#
# Poissons Ratio (x) = 0.17964 0.17964
# Poissons Ratio (y) = 0.34103 -0.00486
# Poissons Ratio (z) = 0.34103 -0.00486
#
# Static dielectric constant tensor:
#      x y z
#    x 1.992640 0.000000 0.000000 
#    y 0.000000 2.501700 0.000000 
#    z 0.000000 0.000000 2.501680 
# 
# From -- ./inp_files/27020.got.cif
#   From: 2010.05.17/outbox.cif.g08.bks.cpg/sg70_14_cif.got.tgz:27020.got - 2010.06.03 15:57:51.
