data_PCOD9516093
_publ_section_title
;
Structure prediction by ZEFSAII (Michael W. Deem and Ramdas Pophale) SiO2 
 PCOD9516093
Probable space group: F D D D
;
_chemical_formula_sum "Si O2"
_cell_formula_units_Z 168
_cell_length_a 15.233053
_cell_length_b 25.384333
_cell_length_c 21.382376
_cell_angle_alpha 90.000000
_cell_angle_beta 90.000000
_cell_angle_gamma 90.000000
_cell_volume 8268.156181
_symmetry_space_group_name_H-M "F D D D"
_symmetry_group_IT_number 70
_space_group.IT_coordinate_system_code '2'
_symmetry_cell_setting 'orthorhombic'
loop_
_space_group_symop_operation_xyz
x,y,z
1/4-x,1/4-y,z
x,1/4-y,1/4-z
1/4-x,y,1/4-z
-x,-y,-z
3/4+x,3/4+y,-z
-x,3/4+y,3/4+z
3/4+x,-y,3/4+z
x,1/2+y,1/2+z
1/4-x,3/4-y,1/2+z
x,3/4-y,3/4-z
1/4-x,1/2+y,3/4-z
-x,1/2-y,1/2-z
3/4+x,1/4+y,1/2-z
-x,1/4+y,1/4+z
3/4+x,1/2-y,1/4+z
1/2+x,y,1/2+z
3/4-x,1/4-y,1/2+z
1/2+x,1/4-y,3/4-z
3/4-x,y,3/4-z
1/2-x,-y,1/2-z
1/4+x,3/4+y,1/2-z
1/2-x,3/4+y,1/4+z
1/4+x,-y,1/4+z
1/2+x,1/2+y,z
3/4-x,3/4-y,z
1/2+x,3/4-y,1/4-z
3/4-x,1/2+y,1/4-z
1/2-x,1/2-y,-z
1/4+x,1/4+y,-z
1/2-x,1/4+y,3/4+z
1/4+x,1/2-y,3/4+z
loop_
_atom_site_type_symbol
_atom_site_label
_atom_site_fract_x
_atom_site_fract_y
_atom_site_fract_z
Si Si1 0.490320 0.946473 0.078155
Si Si2 0.375000 0.280615 0.375000
Si Si3 0.375000 0.375000 0.668528
Si Si4 0.983902 0.437881 0.484090
Si Si5 0.625000 0.125000 0.625000
Si Si6 0.153855 0.848819 0.698030
Si Si7 0.915586 0.932332 0.243471
O O1 0.447437 0.907799 0.130099
O O2 0.559411 0.908078 0.043833
O O3 0.545230 0.993544 0.105317
O O4 0.409007 0.968138 0.037770
O O5 0.338183 0.312460 0.316931
O O6 0.329519 0.417777 0.711488
O O7 0.936955 0.413245 0.420513
O O8 0.000000 0.500000 0.500000
O O9 0.077495 0.411925 0.502244
O O10 0.125000 0.841732 0.625000
O O11 0.238926 0.812884 0.713611
O O12 0.875000 0.875000 0.229427
#
# Coordination Sequence:
#
# PCOD9516093 Si02
#       7
#    32  16  16  32   8  32  32
#     4  11  20  41  66  89 125 169 217 277 311 403
#     4  12  23  36  61  98 122 167 216 255 332 398
#     4  11  20  43  68  95 132 169 230 284 334 403
#     4  11  25  43  70 100 140 188 227 292 359 415
#     4  10  28  52  62 112 154 176 252 306 340 452
#     4  11  20  43  68  94 121 178 225 265 340 410
#     4  10  23  41  60  89 135 164 203 271 331 382
#
# _framework density 20.318919999999999
#
# number of rings (size 3 to 8) (size 9 to 14) (size 15 to 20)
#    0.000    1.143    5.714    0.857    4.000    0.000 
#    6.857    0.000    0.000    0.000    0.000    0.000 
#    0.000    0.000    0.000    0.000    0.000    0.000 
#
# Total GULP energy -233889.057772 kJ/mol
# GULP energy per Si atom -5568.787090 kJ/mol
# Density = 2.027267 g / cm^3
# Si number density = 20.318920 Si / 1000 Ang^3
#
#
#
# Elastic Constant Matrix: (Units=GPa)
#
#
# Indices 1 2 3 4 5 6 
#
# 1 154.4288 37.0442 69.1475 0.0000 0.0000 0.0000
# 2 37.0442 64.6380 27.2961 0.0000 0.0000 0.0000
# 3 69.1475 27.2961 115.8648 0.0000 0.0000 0.0000
# 4 0.0000 0.0000 0.0000 21.7527 0.0000 0.0000
# 5 0.0000 0.0000 0.0000 0.0000 31.9864 0.0000
# 6 0.0000 0.0000 0.0000 0.0000 0.0000 -55.0779
#
#
#
# Elastic Compliance Matrix: (Units=1/GPa)
#
#
# Indices 1 2 3 4 5 6 
#
# 1 0.009455 -0.003371 -0.004849 0.000000 0.000000 0.000000
# 2 -0.003371 0.018382 -0.002319 0.000000 0.000000 0.000000
# 3 -0.004849 -0.002319 0.012071 0.000000 0.000000 0.000000
# 4 0.000000 0.000000 0.000000 0.045971 0.000000 0.000000
# 5 0.000000 0.000000 0.000000 0.000000 0.031263 0.000000
# 6 0.000000 0.000000 0.000000 0.000000 0.000000 -0.018156
#
#
# Mechanical properties :
#
#
# Convention : Reuss Voigt Hill
#
# Bulk Modulus (GPa) = 53.10426 66.87856 59.99141
# Shear Modulus (GPa) = 39.57572 13.16182 26.36877
#
# Velocity S-wave (km/s) = 4.41809 2.54788 3.60633
# Velocity P-wave (km/s) = 7.22622 6.45302 6.85053
#
# Compressibility (1/GPa) = 0.01883088
#
# Stress axis : x y z
#
# Youngs Moduli (GPa) = 105.76203 54.40118 82.84603
#
# Poissons Ratio (x) = 0.18340 0.40169
# Poissons Ratio (y) = 0.35655 0.19208
# Poissons Ratio (z) = 0.51280 0.12613
#
# Static dielectric constant tensor:
#      x y z
#    x 1.781450 0.000000 0.000000 
#    y 0.000000 1.768390 0.000000 
#    z 0.000000 0.000000 1.779610 
# 
# From -- ./inp_files/43003.got.cif
#   From: 2010.05.17/outbox.cif.g08.bks.cpg/sg70_22_cif.got.tgz:43003.got - 2010.06.03 15:57:51.
