data_PCOD9516754
_publ_section_title
;
Structure prediction by ZEFSAII (Michael W. Deem and Ramdas Pophale) SiO2 
 PCOD9516754
Probable space group: F D D D
;
_chemical_formula_sum "Si O2"
_cell_formula_units_Z 160
_cell_length_a 27.876024
_cell_length_b 12.777663
_cell_length_c 20.768762
_cell_angle_alpha 90.000000
_cell_angle_beta 90.000000
_cell_angle_gamma 90.000000
_cell_volume 7397.634484
_symmetry_space_group_name_H-M "F D D D"
_symmetry_group_IT_number 70
_space_group.IT_coordinate_system_code '2'
_symmetry_cell_setting 'orthorhombic'
loop_
_space_group_symop_operation_xyz
x,y,z
1/4-x,1/4-y,z
x,1/4-y,1/4-z
1/4-x,y,1/4-z
-x,-y,-z
3/4+x,3/4+y,-z
-x,3/4+y,3/4+z
3/4+x,-y,3/4+z
x,1/2+y,1/2+z
1/4-x,3/4-y,1/2+z
x,3/4-y,3/4-z
1/4-x,1/2+y,3/4-z
-x,1/2-y,1/2-z
3/4+x,1/4+y,1/2-z
-x,1/4+y,1/4+z
3/4+x,1/2-y,1/4+z
1/2+x,y,1/2+z
3/4-x,1/4-y,1/2+z
1/2+x,1/4-y,3/4-z
3/4-x,y,3/4-z
1/2-x,-y,1/2-z
1/4+x,3/4+y,1/2-z
1/2-x,3/4+y,1/4+z
1/4+x,-y,1/4+z
1/2+x,1/2+y,z
3/4-x,3/4-y,z
1/2+x,3/4-y,1/4-z
3/4-x,1/2+y,1/4-z
1/2-x,1/2-y,-z
1/4+x,1/4+y,-z
1/2-x,1/4+y,3/4+z
1/4+x,1/2-y,3/4+z
loop_
_atom_site_type_symbol
_atom_site_label
_atom_site_fract_x
_atom_site_fract_y
_atom_site_fract_z
Si Si1 0.057496 0.057031 0.336477
Si Si2 0.660007 0.963911 0.818774
Si Si3 0.806102 0.266636 0.014097
Si Si4 0.460412 0.952868 0.816527
Si Si5 0.614383 0.379686 0.690625
O O1 0.058847 0.183269 0.335324
O O2 0.060888 0.016481 0.409757
O O3 0.106354 0.010200 0.308973
O O4 0.010437 0.010254 0.302783
O O5 0.662313 0.875000 0.875000
O O6 0.668384 0.918445 0.747603
O O7 0.750000 0.250000 0.000000
O O8 0.813502 0.385026 0.989720
O O9 0.840912 0.185188 0.977928
O O10 0.470468 0.875000 0.875000
O O11 0.420177 0.032109 0.838814
O O12 0.625000 0.314334 0.625000
#
# Coordination Sequence:
#
# PCOD9516754 Si02
#       5
#    32  32  32  32  32
#     4  11  24  43  66  97 130 180 235 275 342 413
#     4  11  23  43  69  94 133 184 230 282 332 416
#     4  12  22  38  66  96 134 171 219 288 341 403
#     4  12  23  38  63 101 135 168 218 289 348 402
#     4  12  24  39  64  99 139 174 220 280 352 402
#
# _framework density 21.628534999999999
#
# number of rings (size 3 to 8) (size 9 to 14) (size 15 to 20)
#    0.000    0.400    6.000    3.600    2.800    0.800 
#    0.000    2.000    0.000    0.000    0.000    0.000 
#    0.000    0.000    0.000    0.000    0.000    0.000 
#
# Total GULP energy -223214.766007 kJ/mol
# GULP energy per Si atom -5580.369150 kJ/mol
# Density = 2.157931 g / cm^3
# Si number density = 21.628535 Si / 1000 Ang^3
#
#
#
# Elastic Constant Matrix: (Units=GPa)
#
#
# Indices 1 2 3 4 5 6 
#
# 1 65.1220 8.0853 -13.3770 0.0000 0.0000 0.0000
# 2 8.0853 82.4122 22.4741 0.0000 0.0000 0.0000
# 3 -13.3770 22.4741 106.0399 0.0000 0.0000 0.0000
# 4 0.0000 0.0000 0.0000 18.6995 0.0000 0.0000
# 5 0.0000 0.0000 0.0000 0.0000 12.1178 0.0000
# 6 0.0000 0.0000 0.0000 0.0000 0.0000 35.4800
#
#
#
# Elastic Compliance Matrix: (Units=1/GPa)
#
#
# Indices 1 2 3 4 5 6 
#
# 1 0.016155 -0.002272 0.002520 0.000000 0.000000 0.000000
# 2 -0.002272 0.013198 -0.003084 0.000000 0.000000 0.000000
# 3 0.002520 -0.003084 0.010402 0.000000 0.000000 0.000000
# 4 0.000000 0.000000 0.000000 0.053477 0.000000 0.000000
# 5 0.000000 0.000000 0.000000 0.000000 0.082523 0.000000
# 6 0.000000 0.000000 0.000000 0.000000 0.000000 0.028185
#
#
# Mechanical properties :
#
#
# Convention : Reuss Voigt Hill
#
# Bulk Modulus (GPa) = 29.34043 31.99320 30.66682
# Shear Modulus (GPa) = 22.62707 29.01891 25.82299
#
# Velocity S-wave (km/s) = 3.23796 3.66689 3.45908
# Velocity P-wave (km/s) = 5.25112 5.72297 5.49211
#
# Compressibility (1/GPa) = 0.03408266
#
# Stress axis : x y z
#
# Youngs Moduli (GPa) = 61.89863 75.76911 96.13685
#
# Poissons Ratio (x) = 0.17215 -0.24222
# Poissons Ratio (y) = 0.14064 0.29647
# Poissons Ratio (z) = -0.15596 0.23366
#
# Static dielectric constant tensor:
#      x y z
#    x 1.791310 0.000000 0.000000 
#    y 0.000000 1.944590 0.000000 
#    z 0.000000 0.000000 1.964990 
# 
# From -- ./inp_files/54869.got.cif
#   From: 2010.05.17/outbox.cif.g08.bks.cpg/sg70_28_cif.got.tgz:54869.got - 2010.06.03 15:57:51.
