data_PCOD9516309
_publ_section_title
;
Structure prediction by ZEFSAII (Michael W. Deem and Ramdas Pophale) SiO2 
 PCOD9516309
Probable space group: F D D D
;
_chemical_formula_sum "Si O2"
_cell_formula_units_Z 72
_cell_length_a 33.416083
_cell_length_b 4.874996
_cell_length_c 19.387578
_cell_angle_alpha 90.000000
_cell_angle_beta 90.000000
_cell_angle_gamma 90.000000
_cell_volume 3158.299872
_symmetry_space_group_name_H-M "F D D D"
_symmetry_group_IT_number 70
_space_group.IT_coordinate_system_code '2'
_symmetry_cell_setting 'orthorhombic'
loop_
_space_group_symop_operation_xyz
x,y,z
1/4-x,1/4-y,z
x,1/4-y,1/4-z
1/4-x,y,1/4-z
-x,-y,-z
3/4+x,3/4+y,-z
-x,3/4+y,3/4+z
3/4+x,-y,3/4+z
x,1/2+y,1/2+z
1/4-x,3/4-y,1/2+z
x,3/4-y,3/4-z
1/4-x,1/2+y,3/4-z
-x,1/2-y,1/2-z
3/4+x,1/4+y,1/2-z
-x,1/4+y,1/4+z
3/4+x,1/2-y,1/4+z
1/2+x,y,1/2+z
3/4-x,1/4-y,1/2+z
1/2+x,1/4-y,3/4-z
3/4-x,y,3/4-z
1/2-x,-y,1/2-z
1/4+x,3/4+y,1/2-z
1/2-x,3/4+y,1/4+z
1/4+x,-y,1/4+z
1/2+x,1/2+y,z
3/4-x,3/4-y,z
1/2+x,3/4-y,1/4-z
3/4-x,1/2+y,1/4-z
1/2-x,1/2-y,-z
1/4+x,1/4+y,-z
1/2-x,1/4+y,3/4+z
1/4+x,1/2-y,3/4+z
loop_
_atom_site_type_symbol
_atom_site_label
_atom_site_fract_x
_atom_site_fract_y
_atom_site_fract_z
Si Si1 0.787941 0.169369 0.544941
Si Si2 0.125000 0.125000 0.625000
Si Si3 0.410856 0.066717 0.008233
O O1 0.750000 0.250000 0.500000
O O2 0.824661 0.389761 0.535815
O O3 0.778633 0.125000 0.625000
O O4 0.801624 0.878114 0.516759
O O5 0.149464 0.933421 0.677565
O O6 0.375000 0.875000 0.040730
#
# Coordination Sequence:
#
# PCOD9516309 Si02
#       3
#    32   8  32
#     4  12  27  43  70 103 147 190 240 305 368 439
#     4   8  24  42  80  98 144 186 242 310 360 442
#     4  10  24  44  72 100 138 189 243 294 366 440
#
# _framework density 22.797073000000001
#
# number of rings (size 3 to 8) (size 9 to 14) (size 15 to 20)
#    1.333    0.000    0.000    4.000    6.222    5.333 
#    0.000    0.000    0.000    0.000    0.000    0.000 
#    0.000    0.000    0.000    0.000    0.000    0.000 
#
# Total GULP energy -100395.639326 kJ/mol
# GULP energy per Si atom -5577.535518 kJ/mol
# Density = 2.274519 g / cm^3
# Si number density = 22.797073 Si / 1000 Ang^3
#
#
#
# Elastic Constant Matrix: (Units=GPa)
#
#
# Indices 1 2 3 4 5 6 
#
# 1 60.4277 14.0328 59.9211 0.0057 -0.0023 -0.0209
# 2 14.0328 134.4401 41.3690 0.0137 0.0107 0.0019
# 3 59.9211 41.3690 194.3956 0.0043 0.0048 0.0087
# 4 0.0057 0.0137 0.0043 29.7924 0.0050 0.0047
# 5 -0.0023 0.0107 0.0048 0.0050 73.7353 0.0255
# 6 -0.0209 0.0019 0.0087 0.0047 0.0255 154.5523
#
#
#
# Elastic Compliance Matrix: (Units=1/GPa)
#
#
# Indices 1 2 3 4 5 6 
#
# 1 0.023841 -0.000243 -0.007297 -0.000003 0.000001 0.000004
# 2 -0.000243 0.007962 -0.001619 -0.000003 -0.000001 0.000000
# 3 -0.007297 -0.001619 0.007738 0.000001 0.000000 -0.000001
# 4 -0.000003 -0.000003 0.000001 0.033566 -0.000002 -0.000001
# 5 0.000001 -0.000001 0.000000 -0.000002 0.013562 -0.000002
# 6 0.000004 0.000000 -0.000001 -0.000001 -0.000002 0.006470
#
#
# Mechanical properties :
#
#
# Convention : Reuss Voigt Hill
#
# Bulk Modulus (GPa) = 47.12132 68.87882 58.00007
# Shear Modulus (GPa) = 42.18255 69.87870 56.03063
#
# Velocity S-wave (km/s) = 4.30624 5.54248 4.96300
# Velocity P-wave (km/s) = 6.74089 8.44027 7.63799
#
# Compressibility (1/GPa) = 0.02122182
#
# Stress axis : x y z
#
# Youngs Moduli (GPa) = 41.94430 125.59729 129.23114
#
# Poissons Ratio (x) = 0.03053 0.94302
# Poissons Ratio (y) = 0.01020 0.20928
# Poissons Ratio (z) = 0.30607 0.20340
#
# Static dielectric constant tensor:
#      x y z
#    x 1.893810 0.000000 0.000000 
#    y 0.000000 1.819270 0.000000 
#    z 0.000000 0.000000 1.752700 
# 
# From -- ./inp_files/2388.got.cif
#   From: 2010.05.17/outbox.cif.g08.bks.cpg/sg70_2_cif.got.tgz:2388.got - 2010.06.03 15:57:51.
