data_PCOD9516877
_publ_section_title
;
Structure prediction by ZEFSAII (Michael W. Deem and Ramdas Pophale) SiO2 
 PCOD9516877
Probable space group: F D D D
;
_chemical_formula_sum "Si O2"
_cell_formula_units_Z 136
_cell_length_a 16.558148
_cell_length_b 21.278504
_cell_length_c 15.435746
_cell_angle_alpha 90.000000
_cell_angle_beta 90.000000
_cell_angle_gamma 90.000000
_cell_volume 5438.516806
_symmetry_space_group_name_H-M "F D D D"
_symmetry_group_IT_number 70
_space_group.IT_coordinate_system_code '2'
_symmetry_cell_setting 'orthorhombic'
loop_
_space_group_symop_operation_xyz
x,y,z
1/4-x,1/4-y,z
x,1/4-y,1/4-z
1/4-x,y,1/4-z
-x,-y,-z
3/4+x,3/4+y,-z
-x,3/4+y,3/4+z
3/4+x,-y,3/4+z
x,1/2+y,1/2+z
1/4-x,3/4-y,1/2+z
x,3/4-y,3/4-z
1/4-x,1/2+y,3/4-z
-x,1/2-y,1/2-z
3/4+x,1/4+y,1/2-z
-x,1/4+y,1/4+z
3/4+x,1/2-y,1/4+z
1/2+x,y,1/2+z
3/4-x,1/4-y,1/2+z
1/2+x,1/4-y,3/4-z
3/4-x,y,3/4-z
1/2-x,-y,1/2-z
1/4+x,3/4+y,1/2-z
1/2-x,3/4+y,1/4+z
1/4+x,-y,1/4+z
1/2+x,1/2+y,z
3/4-x,3/4-y,z
1/2+x,3/4-y,1/4-z
3/4-x,1/2+y,1/4-z
1/2-x,1/2-y,-z
1/4+x,1/4+y,-z
1/2-x,1/4+y,3/4+z
1/4+x,1/2-y,3/4+z
loop_
_atom_site_type_symbol
_atom_site_label
_atom_site_fract_x
_atom_site_fract_y
_atom_site_fract_z
Si Si1 0.375000 0.875000 0.375000
Si Si2 0.683019 0.684836 0.813415
Si Si3 0.528451 0.727677 0.612548
Si Si4 0.607840 0.324195 0.302066
Si Si5 0.254344 0.392887 0.037915
O O1 0.308356 0.851072 0.300632
O O2 0.625000 0.625000 0.797478
O O3 0.737187 0.689987 0.726673
O O4 0.650276 0.756380 0.817013
O O5 0.721412 0.666951 0.905628
O O6 0.625000 0.730644 0.625000
O O7 0.485531 0.693996 0.692551
O O8 0.486736 0.794552 0.595815
O O9 0.623118 0.375000 0.375000
O O10 0.657982 0.354772 0.225486
#
# Coordination Sequence:
#
# PCOD9516877 Si02
#       5
#     8  32  32  32  32
#     4  12  20  48  80 104 156 200 252 328 382 460
#     4  11  24  46  77 106 152 208 253 324 381 458
#     4  11  27  48  77 112 163 208 256 325 387 463
#     4  11  25  46  73 117 149 201 261 309 387 461
#     4  11  24  48  76 109 155 207 258 322 383 467
#
# _framework density 25.006817000000002
#
# number of rings (size 3 to 8) (size 9 to 14) (size 15 to 20)
#    0.000    0.941    4.706    0.000    3.294    8.471 
#    8.471    0.000    0.000    0.000    0.000    0.000 
#    0.000    0.000    0.000    0.000    0.000    0.000 
#
# Total GULP energy -189423.621161 kJ/mol
# GULP energy per Si atom -5571.282975 kJ/mol
# Density = 2.494990 g / cm^3
# Si number density = 25.006817 Si / 1000 Ang^3
#
#
#
# Elastic Constant Matrix: (Units=GPa)
#
#
# Indices 1 2 3 4 5 6 
#
# 1 124.9827 26.5112 48.6185 0.0000 0.0000 0.0000
# 2 26.5112 131.3795 43.3746 0.0000 0.0000 0.0000
# 3 48.6185 43.3746 127.4260 0.0000 0.0000 0.0000
# 4 0.0000 0.0000 0.0000 44.1631 0.0000 0.0000
# 5 0.0000 0.0000 0.0000 0.0000 45.6303 0.0000
# 6 0.0000 0.0000 0.0000 0.0000 0.0000 29.3450
#
#
#
# Elastic Compliance Matrix: (Units=1/GPa)
#
#
# Indices 1 2 3 4 5 6 
#
# 1 0.009471 -0.000809 -0.003338 0.000000 0.000000 0.000000
# 2 -0.000809 0.008644 -0.002634 0.000000 0.000000 0.000000
# 3 -0.003338 -0.002634 0.010018 0.000000 0.000000 0.000000
# 4 0.000000 0.000000 0.000000 0.022643 0.000000 0.000000
# 5 0.000000 0.000000 0.000000 0.000000 0.021915 0.000000
# 6 0.000000 0.000000 0.000000 0.000000 0.000000 0.034077
#
#
# Mechanical properties :
#
#
# Convention : Reuss Voigt Hill
#
# Bulk Modulus (GPa) = 68.62823 68.97744 68.80283
# Shear Modulus (GPa) = 39.93964 41.51328 40.72646
#
# Velocity S-wave (km/s) = 4.00077 4.07883 4.03999
# Velocity P-wave (km/s) = 6.98892 7.05874 7.02391
#
# Compressibility (1/GPa) = 0.01457126
#
# Stress axis : x y z
#
# Youngs Moduli (GPa) = 105.58172 115.68276 99.82129
#
# Poissons Ratio (x) = 0.09360 0.33323
# Poissons Ratio (y) = 0.08543 0.26290
# Poissons Ratio (z) = 0.35246 0.30468
#
# Static dielectric constant tensor:
#      x y z
#    x 2.134300 0.000000 0.000000 
#    y 0.000000 1.975790 0.000000 
#    z 0.000000 0.000000 2.055430 
# 
# From -- ./inp_files/34699.got.cif
#   From: 2010.05.17/outbox.cif.g08.bks.cpg/sg70_18_cif.got.tgz:34699.got - 2010.06.03 15:57:51.
