data_PCOD9516956
_publ_section_title
;
Structure prediction by ZEFSAII (Michael W. Deem and Ramdas Pophale) SiO2 
 PCOD9516956
Probable space group: F D D D
;
_chemical_formula_sum "Si O2"
_cell_formula_units_Z 176
_cell_length_a 11.818023
_cell_length_b 29.684743
_cell_length_c 21.448037
_cell_angle_alpha 90.000000
_cell_angle_beta 90.000000
_cell_angle_gamma 90.000000
_cell_volume 7524.292575
_symmetry_space_group_name_H-M "F D D D"
_symmetry_group_IT_number 70
_space_group.IT_coordinate_system_code '2'
_symmetry_cell_setting 'orthorhombic'
loop_
_space_group_symop_operation_xyz
x,y,z
1/4-x,1/4-y,z
x,1/4-y,1/4-z
1/4-x,y,1/4-z
-x,-y,-z
3/4+x,3/4+y,-z
-x,3/4+y,3/4+z
3/4+x,-y,3/4+z
x,1/2+y,1/2+z
1/4-x,3/4-y,1/2+z
x,3/4-y,3/4-z
1/4-x,1/2+y,3/4-z
-x,1/2-y,1/2-z
3/4+x,1/4+y,1/2-z
-x,1/4+y,1/4+z
3/4+x,1/2-y,1/4+z
1/2+x,y,1/2+z
3/4-x,1/4-y,1/2+z
1/2+x,1/4-y,3/4-z
3/4-x,y,3/4-z
1/2-x,-y,1/2-z
1/4+x,3/4+y,1/2-z
1/2-x,3/4+y,1/4+z
1/4+x,-y,1/4+z
1/2+x,1/2+y,z
3/4-x,3/4-y,z
1/2+x,3/4-y,1/4-z
3/4-x,1/2+y,1/4-z
1/2-x,1/2-y,-z
1/4+x,1/4+y,-z
1/2-x,1/4+y,3/4+z
1/4+x,1/2-y,3/4+z
loop_
_atom_site_type_symbol
_atom_site_label
_atom_site_fract_x
_atom_site_fract_y
_atom_site_fract_z
Si Si1 0.244282 0.449027 0.610411
Si Si2 0.375000 0.875000 0.574532
Si Si3 0.301339 0.702810 0.622220
Si Si4 0.045595 0.088448 0.738173
Si Si5 0.447794 0.624789 0.031605
Si Si6 0.956547 0.768394 0.321960
O O1 0.346464 0.420203 0.637945
O O2 0.244113 0.499296 0.634538
O O3 0.253430 0.448814 0.536232
O O4 0.125000 0.426082 0.625000
O O5 0.485637 0.868762 0.531758
O O6 0.271535 0.673250 0.561910
O O7 0.270404 0.667526 0.676446
O O8 0.430499 0.716835 0.640750
O O9 0.125000 0.125000 0.770764
O O10 0.127292 0.061448 0.692656
O O11 0.937654 0.117523 0.717566
O O12 0.875000 0.742692 0.375000
O O13 0.000000 0.750000 0.250000
#
# Coordination Sequence:
#
# PCOD9516956 Si02
#       6
#    32  16  32  32  32  32
#     4  12  27  47  73 109 153 206 256 328 406 484
#     4  12  28  47  74 110 157 206 260 332 404 490
#     4  11  26  46  73 110 152 202 264 323 403 482
#     4  12  23  44  76 106 149 199 262 324 404 468
#     4  11  26  46  73 111 149 204 260 331 392 484
#     4  12  25  44  74 116 157 202 264 337 402 477
#
# _framework density 23.390903000000002
#
# number of rings (size 3 to 8) (size 9 to 14) (size 15 to 20)
#    0.000    0.364    8.182    0.000    2.545    4.727 
#    0.000    1.818    0.000    0.000    0.000    0.000 
#    0.000    0.000    0.000    0.000    0.000    0.000 
#
# Total GULP energy -244974.064614 kJ/mol
# GULP energy per Si atom -5567.592378 kJ/mol
# Density = 2.333766 g / cm^3
# Si number density = 23.390903 Si / 1000 Ang^3
#
#
#
# Elastic Constant Matrix: (Units=GPa)
#
#
# Indices 1 2 3 4 5 6 
#
# 1 119.2093 25.5370 32.8491 0.0000 0.0000 0.0000
# 2 25.5370 116.1128 33.4491 0.0000 0.0000 0.0000
# 3 32.8491 33.4491 71.3767 0.0000 0.0000 0.0000
# 4 0.0000 0.0000 0.0000 30.2380 0.0000 0.0000
# 5 0.0000 0.0000 0.0000 0.0000 39.7985 0.0000
# 6 0.0000 0.0000 0.0000 0.0000 0.0000 27.2325
#
#
#
# Elastic Compliance Matrix: (Units=1/GPa)
#
#
# Indices 1 2 3 4 5 6 
#
# 1 0.009702 -0.000980 -0.004006 0.000000 0.000000 0.000000
# 2 -0.000980 0.010055 -0.004261 0.000000 0.000000 0.000000
# 3 -0.004006 -0.004261 0.017851 0.000000 0.000000 0.000000
# 4 0.000000 0.000000 0.000000 0.033071 0.000000 0.000000
# 5 0.000000 0.000000 0.000000 0.000000 0.025127 0.000000
# 6 0.000000 0.000000 0.000000 0.000000 0.000000 0.036721
#
#
# Mechanical properties :
#
#
# Convention : Reuss Voigt Hill
#
# Bulk Modulus (GPa) = 52.31714 54.48549 53.40132
# Shear Modulus (GPa) = 31.76765 33.77804 32.77285
#
# Velocity S-wave (km/s) = 3.68927 3.80421 3.74718
# Velocity P-wave (km/s) = 6.36888 6.52993 6.44991
#
# Compressibility (1/GPa) = 0.01911419
#
# Stress axis : x y z
#
# Youngs Moduli (GPa) = 103.06709 99.44924 56.01986
#
# Poissons Ratio (x) = 0.09744 0.22442
# Poissons Ratio (y) = 0.10099 0.23872
# Poissons Ratio (z) = 0.41290 0.42378
#
# Static dielectric constant tensor:
#      x y z
#    x 1.835560 0.000000 0.000000 
#    y 0.000000 1.851550 0.000000 
#    z 0.000000 0.000000 1.983010 
# 
# From -- ./inp_files/50409.got.cif
#   From: 2010.05.17/outbox.cif.g08.bks.cpg/sg70_26_cif.got.tgz:50409.got - 2010.06.03 15:57:51.
