data_PCOD9516182
_publ_section_title
;
Structure prediction by ZEFSAII (Michael W. Deem and Ramdas Pophale) SiO2 
 PCOD9516182
Probable space group: F D D D
;
_chemical_formula_sum "Si O2"
_cell_formula_units_Z 104
_cell_length_a 22.518518
_cell_length_b 11.287613
_cell_length_c 15.656265
_cell_angle_alpha 90.000000
_cell_angle_beta 90.000000
_cell_angle_gamma 90.000000
_cell_volume 3979.514393
_symmetry_space_group_name_H-M "F D D D"
_symmetry_group_IT_number 70
_space_group.IT_coordinate_system_code '2'
_symmetry_cell_setting 'orthorhombic'
loop_
_space_group_symop_operation_xyz
x,y,z
1/4-x,1/4-y,z
x,1/4-y,1/4-z
1/4-x,y,1/4-z
-x,-y,-z
3/4+x,3/4+y,-z
-x,3/4+y,3/4+z
3/4+x,-y,3/4+z
x,1/2+y,1/2+z
1/4-x,3/4-y,1/2+z
x,3/4-y,3/4-z
1/4-x,1/2+y,3/4-z
-x,1/2-y,1/2-z
3/4+x,1/4+y,1/2-z
-x,1/4+y,1/4+z
3/4+x,1/2-y,1/4+z
1/2+x,y,1/2+z
3/4-x,1/4-y,1/2+z
1/2+x,1/4-y,3/4-z
3/4-x,y,3/4-z
1/2-x,-y,1/2-z
1/4+x,3/4+y,1/2-z
1/2-x,3/4+y,1/4+z
1/4+x,-y,1/4+z
1/2+x,1/2+y,z
3/4-x,3/4-y,z
1/2+x,3/4-y,1/4-z
3/4-x,1/2+y,1/4-z
1/2-x,1/2-y,-z
1/4+x,1/4+y,-z
1/2-x,1/4+y,3/4+z
1/4+x,1/2-y,3/4+z
loop_
_atom_site_type_symbol
_atom_site_label
_atom_site_fract_x
_atom_site_fract_y
_atom_site_fract_z
Si Si1 0.875000 0.375000 0.375000
Si Si2 0.392999 0.759752 0.151072
Si Si3 0.769550 0.202859 0.210932
Si Si4 0.473532 0.570897 0.902861
O O1 0.827253 0.473129 0.339374
O O2 0.385060 0.625000 0.125000
O O3 0.334338 0.768760 0.211548
O O4 0.462310 0.765078 0.171676
O O5 0.375000 0.875000 0.092860
O O6 0.769813 0.141211 0.302541
O O7 0.720329 0.306928 0.205396
O O8 0.763521 0.125000 0.125000
#
# Coordination Sequence:
#
# PCOD9516182 Si02
#       4
#     8  32  32  32
#     4  12  28  40  66 108 144 180 246 292 352 436
#     4   9  19  39  65  96 128 186 228 289 348 427
#     4  10  23  44  73 101 141 188 237 295 368 433
#     4  11  24  42  68 106 142 187 237 297 356 437
#
# _framework density 26.133841
#
# number of rings (size 3 to 8) (size 9 to 14) (size 15 to 20)
#    0.000    1.846    1.538    0.923    6.462    6.154 
#    0.000    3.846    0.000    0.000    0.000    0.000 
#    0.000    0.000    0.000    0.000    0.000    0.000 
#
# Total GULP energy -144751.014633 kJ/mol
# GULP energy per Si atom -5567.346717 kJ/mol
# Density = 2.607436 g / cm^3
# Si number density = 26.133841 Si / 1000 Ang^3
#
#
#
# Elastic Constant Matrix: (Units=GPa)
#
#
# Indices 1 2 3 4 5 6 
#
# 1 176.6070 74.5256 0.5112 0.0000 0.0000 0.0000
# 2 74.5256 165.2197 20.7760 0.0000 0.0000 0.0000
# 3 0.5112 20.7760 106.4768 0.0000 0.0000 0.0000
# 4 0.0000 0.0000 0.0000 38.2494 0.0000 0.0000
# 5 0.0000 0.0000 0.0000 0.0000 38.8626 0.0000
# 6 0.0000 0.0000 0.0000 0.0000 0.0000 19.5574
#
#
#
# Elastic Compliance Matrix: (Units=1/GPa)
#
#
# Indices 1 2 3 4 5 6 
#
# 1 0.007031 -0.003247 0.000600 0.000000 0.000000 0.000000
# 2 -0.003247 0.007704 -0.001488 0.000000 0.000000 0.000000
# 3 0.000600 -0.001488 0.009679 0.000000 0.000000 0.000000
# 4 0.000000 0.000000 0.000000 0.026144 0.000000 0.000000
# 5 0.000000 0.000000 0.000000 0.000000 0.025732 0.000000
# 6 0.000000 0.000000 0.000000 0.000000 0.000000 0.051132
#
#
# Mechanical properties :
#
#
# Convention : Reuss Voigt Hill
#
# Bulk Modulus (GPa) = 61.94022 71.10324 66.52173
# Shear Modulus (GPa) = 35.44285 42.83324 39.13805
#
# Velocity S-wave (km/s) = 3.68666 4.05284 3.87408
# Velocity P-wave (km/s) = 6.47106 7.01193 6.74691
#
# Compressibility (1/GPa) = 0.01614460
#
# Stress axis : x y z
#
# Youngs Moduli (GPa) = 142.23490 129.80077 103.31528
#
# Poissons Ratio (x) = 0.42143 -0.06196
# Poissons Ratio (y) = 0.46180 0.15370
# Poissons Ratio (z) = -0.08531 0.19310
#
# Static dielectric constant tensor:
#      x y z
#    x 1.970640 0.000000 0.000000 
#    y 0.000000 2.432740 0.000000 
#    z 0.000000 0.000000 2.345060 
# 
# From -- ./inp_files/38192.got.cif
#   From: 2010.05.17/outbox.cif.g08.bks.cpg/sg70_20_cif.got.tgz:38192.got - 2010.06.03 15:57:51.
