data_PCOD9516194
_publ_section_title
;
Structure prediction by ZEFSAII (Michael W. Deem and Ramdas Pophale) SiO2 
 PCOD9516194
Probable space group: F D D D
;
_chemical_formula_sum "Si O2"
_cell_formula_units_Z 176
_cell_length_a 25.946423
_cell_length_b 25.492594
_cell_length_c 9.829813
_cell_angle_alpha 90.000000
_cell_angle_beta 90.000000
_cell_angle_gamma 90.000000
_cell_volume 6501.847507
_symmetry_space_group_name_H-M "F D D D"
_symmetry_group_IT_number 70
_space_group.IT_coordinate_system_code '2'
_symmetry_cell_setting 'orthorhombic'
loop_
_space_group_symop_operation_xyz
x,y,z
1/4-x,1/4-y,z
x,1/4-y,1/4-z
1/4-x,y,1/4-z
-x,-y,-z
3/4+x,3/4+y,-z
-x,3/4+y,3/4+z
3/4+x,-y,3/4+z
x,1/2+y,1/2+z
1/4-x,3/4-y,1/2+z
x,3/4-y,3/4-z
1/4-x,1/2+y,3/4-z
-x,1/2-y,1/2-z
3/4+x,1/4+y,1/2-z
-x,1/4+y,1/4+z
3/4+x,1/2-y,1/4+z
1/2+x,y,1/2+z
3/4-x,1/4-y,1/2+z
1/2+x,1/4-y,3/4-z
3/4-x,y,3/4-z
1/2-x,-y,1/2-z
1/4+x,3/4+y,1/2-z
1/2-x,3/4+y,1/4+z
1/4+x,-y,1/4+z
1/2+x,1/2+y,z
3/4-x,3/4-y,z
1/2+x,3/4-y,1/4-z
3/4-x,1/2+y,1/4-z
1/2-x,1/2-y,-z
1/4+x,1/4+y,-z
1/2-x,1/4+y,3/4+z
1/4+x,1/2-y,3/4+z
loop_
_atom_site_type_symbol
_atom_site_label
_atom_site_fract_x
_atom_site_fract_y
_atom_site_fract_z
Si Si1 0.982498 0.065796 0.081832
Si Si2 0.553676 0.066677 0.166515
Si Si3 0.098737 0.682404 0.789417
Si Si4 0.450589 0.657293 0.449781
Si Si5 0.375000 0.029988 0.375000
Si Si6 0.435838 0.707396 0.885799
O O1 0.971563 0.125000 0.125000
O O2 0.962161 0.035758 0.213645
O O3 0.952593 0.054916 0.938312
O O4 0.042456 0.064791 0.036693
O O5 0.567797 0.125000 0.125000
O O6 0.586931 0.060376 0.302607
O O7 0.494056 0.071352 0.205829
O O8 0.558334 0.015502 0.073256
O O9 0.125000 0.625000 0.770240
O O10 0.130979 0.731851 0.739132
O O11 0.394214 0.673530 0.487610
O O12 0.460272 0.596676 0.419670
O O13 0.375000 0.696702 0.875000
#
# Coordination Sequence:
#
# PCOD9516194 Si02
#       6
#    32  32  32  32  16  32
#     4   9  19  41  69  97 146 183 237 309 377 434
#     4  11  27  48  69  99 152 203 248 308 384 465
#     4  11  24  41  73 109 141 195 253 318 377 447
#     4  10  23  45  69 106 141 191 247 310 380 442
#     4  12  21  40  70 110 137 174 258 314 378 450
#     4  11  23  43  73 107 145 201 247 313 385 450
#
# _framework density 27.069230000000001
#
# number of rings (size 3 to 8) (size 9 to 14) (size 15 to 20)
#    0.000    1.455    0.909    3.545    2.545    6.545 
#    6.545    0.000    0.000    0.000    0.000    0.000 
#    0.000    0.000    0.000    0.000    0.000    0.000 
#
# Total GULP energy -245221.143346 kJ/mol
# GULP energy per Si atom -5573.207803 kJ/mol
# Density = 2.700762 g / cm^3
# Si number density = 27.069230 Si / 1000 Ang^3
#
#
#
# Elastic Constant Matrix: (Units=GPa)
#
#
# Indices 1 2 3 4 5 6 
#
# 1 83.2923 0.3832 -1.1857 -0.0001 -0.0001 0.0001
# 2 0.3832 256.7003 29.1131 0.0006 -0.0006 -0.0003
# 3 -1.1857 29.1131 58.7940 0.0012 -0.0015 -0.0003
# 4 -0.0001 0.0006 0.0012 37.1620 -0.0010 -0.0007
# 5 -0.0001 -0.0006 -0.0015 -0.0010 30.8434 0.0005
# 6 0.0001 -0.0003 -0.0003 -0.0007 0.0005 53.8354
#
#
#
# Elastic Compliance Matrix: (Units=1/GPa)
#
#
# Indices 1 2 3 4 5 6 
#
# 1 0.012010 -0.000048 0.000266 0.000000 0.000000 0.000000
# 2 -0.000048 0.004128 -0.002045 0.000000 0.000000 0.000000
# 3 0.000266 -0.002045 0.018026 -0.000001 0.000001 0.000000
# 4 0.000000 0.000000 -0.000001 0.026909 0.000001 0.000000
# 5 0.000000 0.000000 0.000001 0.000001 0.032422 0.000000
# 6 0.000000 0.000000 0.000000 0.000000 0.000000 0.018575
#
#
# Mechanical properties :
#
#
# Convention : Reuss Voigt Hill
#
# Bulk Modulus (GPa) = 32.77600 50.60085 41.68843
# Shear Modulus (GPa) = 39.71594 49.06656 44.39125
#
# Velocity S-wave (km/s) = 3.83456 4.26212 4.05398
# Velocity P-wave (km/s) = 5.63379 6.55398 6.11123
#
# Compressibility (1/GPa) = 0.03051013
#
# Stress axis : x y z
#
# Youngs Moduli (GPa) = 83.26450 242.27309 55.47408
#
# Poissons Ratio (x) = 0.01165 -0.01476
# Poissons Ratio (y) = 0.00400 0.11343
# Poissons Ratio (z) = -0.02215 0.49541
#
# Static dielectric constant tensor:
#      x y z
#    x 1.412600 0.000000 0.000000 
#    y 0.000000 2.068840 0.000000 
#    z 0.000000 0.000000 2.318430 
# 
# From -- ./inp_files/22277.got.cif
#   From: 2010.05.17/outbox.cif.g08.bks.cpg/sg70_12_cif.got.tgz:22277.got - 2010.06.03 15:57:51.
