data_PCOD9516780
_publ_section_title
;
Structure prediction by ZEFSAII (Michael W. Deem and Ramdas Pophale) SiO2 
 PCOD9516780
Probable space group: F D D D
;
_chemical_formula_sum "Si O2"
_cell_formula_units_Z 176
_cell_length_a 26.671440
_cell_length_b 25.006551
_cell_length_c 12.576687
_cell_angle_alpha 90.000000
_cell_angle_beta 90.000000
_cell_angle_gamma 90.000000
_cell_volume 8388.156275
_symmetry_space_group_name_H-M "F D D D"
_symmetry_group_IT_number 70
_space_group.IT_coordinate_system_code '2'
_symmetry_cell_setting 'orthorhombic'
loop_
_space_group_symop_operation_xyz
x,y,z
1/4-x,1/4-y,z
x,1/4-y,1/4-z
1/4-x,y,1/4-z
-x,-y,-z
3/4+x,3/4+y,-z
-x,3/4+y,3/4+z
3/4+x,-y,3/4+z
x,1/2+y,1/2+z
1/4-x,3/4-y,1/2+z
x,3/4-y,3/4-z
1/4-x,1/2+y,3/4-z
-x,1/2-y,1/2-z
3/4+x,1/4+y,1/2-z
-x,1/4+y,1/4+z
3/4+x,1/2-y,1/4+z
1/2+x,y,1/2+z
3/4-x,1/4-y,1/2+z
1/2+x,1/4-y,3/4-z
3/4-x,y,3/4-z
1/2-x,-y,1/2-z
1/4+x,3/4+y,1/2-z
1/2-x,3/4+y,1/4+z
1/4+x,-y,1/4+z
1/2+x,1/2+y,z
3/4-x,3/4-y,z
1/2+x,3/4-y,1/4-z
3/4-x,1/2+y,1/4-z
1/2-x,1/2-y,-z
1/4+x,1/4+y,-z
1/2-x,1/4+y,3/4+z
1/4+x,1/2-y,3/4+z
loop_
_atom_site_type_symbol
_atom_site_label
_atom_site_fract_x
_atom_site_fract_y
_atom_site_fract_z
Si Si1 0.271711 0.809991 0.496643
Si Si2 0.074973 0.091438 0.792175
Si Si3 0.749774 0.875000 0.375000
Si Si4 0.961204 0.009400 0.595737
Si Si5 0.394450 0.732208 0.986217
Si Si6 0.753477 0.073111 0.515940
O O1 0.250000 0.750000 0.500000
O O2 0.310986 0.817242 0.592587
O O3 0.240218 0.864864 0.516319
O O4 0.281039 0.817405 0.370953
O O5 0.125000 0.125000 0.801117
O O6 0.033588 0.126568 0.731700
O O7 0.082353 0.040704 0.714804
O O8 0.719237 0.820210 0.365164
O O9 0.903785 0.007203 0.558494
O O10 0.000000 0.000000 0.500000
O O11 0.976642 0.964483 0.680339
O O12 0.375000 0.708315 0.875000
O O13 0.440327 0.698879 0.034626
#
# Coordination Sequence:
#
# PCOD9516780 Si02
#       6
#    32  32  16  32  32  32
#     4  11  23  45  72  91 141 190 229 284 353 423
#     4  12  23  41  71 106 137 187 237 293 354 426
#     4  12  23  40  70 104 144 176 232 304 361 420
#     4  12  23  42  68 106 140 179 227 293 366 420
#     4  12  23  41  69 101 139 179 232 292 359 428
#     4  11  24  44  70  98 138 184 235 289 355 426
#
# _framework density 20.981964999999999
#
# number of rings (size 3 to 8) (size 9 to 14) (size 15 to 20)
#    0.000    0.364    5.455    4.636    0.000    1.455 
#    0.000    6.364    0.000    0.000    0.000    0.000 
#    0.000    0.000    0.000    0.000    0.000    0.000 
#
# Total GULP energy -245431.314540 kJ/mol
# GULP energy per Si atom -5577.984421 kJ/mol
# Density = 2.093421 g / cm^3
# Si number density = 20.981965 Si / 1000 Ang^3
#
#
#
# Elastic Constant Matrix: (Units=GPa)
#
#
# Indices 1 2 3 4 5 6 
#
# 1 68.3013 19.6110 15.8178 0.0000 0.0000 0.0000
# 2 19.6110 162.7809 16.0241 0.0000 0.0000 0.0000
# 3 15.8178 16.0241 110.3569 0.0000 0.0000 0.0000
# 4 0.0000 0.0000 0.0000 38.4125 0.0000 0.0000
# 5 0.0000 0.0000 0.0000 0.0000 27.1757 0.0000
# 6 0.0000 0.0000 0.0000 0.0000 0.0000 35.2600
#
#
#
# Elastic Compliance Matrix: (Units=1/GPa)
#
#
# Indices 1 2 3 4 5 6 
#
# 1 0.015585 -0.001682 -0.001990 0.000000 0.000000 0.000000
# 2 -0.001682 0.006414 -0.000690 0.000000 0.000000 0.000000
# 3 -0.001990 -0.000690 0.009447 0.000000 0.000000 0.000000
# 4 0.000000 0.000000 0.000000 0.026033 0.000000 0.000000
# 5 0.000000 0.000000 0.000000 0.000000 0.036798 0.000000
# 6 0.000000 0.000000 0.000000 0.000000 0.000000 0.028361
#
#
# Mechanical properties :
#
#
# Convention : Reuss Voigt Hill
#
# Bulk Modulus (GPa) = 44.00983 49.37167 46.69075
# Shear Modulus (GPa) = 35.98832 39.50206 37.74519
#
# Velocity S-wave (km/s) = 4.14599 4.34368 4.24599
# Velocity P-wave (km/s) = 6.62870 6.98128 6.80727
#
# Compressibility (1/GPa) = 0.02272220
#
# Stress axis : x y z
#
# Youngs Moduli (GPa) = 64.16579 155.91440 105.85470
#
# Poissons Ratio (x) = 0.26220 0.21061
# Poissons Ratio (y) = 0.10791 0.07307
# Poissons Ratio (z) = 0.12766 0.10762
#
# Static dielectric constant tensor:
#      x y z
#    x 1.741930 0.000000 0.000000 
#    y 0.000000 1.815720 0.000000 
#    z 0.000000 0.000000 1.821800 
# 
# From -- ./inp_files/20961.got.cif
#   From: 2010.05.17/outbox.cif.g08.bks.cpg/sg70_11_cif.got.tgz:20961.got - 2010.06.03 15:57:51.
