data_PCOD9516370
_publ_section_title
;
Structure prediction by ZEFSAII (Michael W. Deem and Ramdas Pophale) SiO2 
 PCOD9516370
Probable space group: F D D D
;
_chemical_formula_sum "Si O2"
_cell_formula_units_Z 120
_cell_length_a 18.594919
_cell_length_b 10.927688
_cell_length_c 25.689659
_cell_angle_alpha 90.000000
_cell_angle_beta 90.000000
_cell_angle_gamma 90.000000
_cell_volume 5220.125176
_symmetry_space_group_name_H-M "F D D D"
_symmetry_group_IT_number 70
_space_group.IT_coordinate_system_code '2'
_symmetry_cell_setting 'orthorhombic'
loop_
_space_group_symop_operation_xyz
x,y,z
1/4-x,1/4-y,z
x,1/4-y,1/4-z
1/4-x,y,1/4-z
-x,-y,-z
3/4+x,3/4+y,-z
-x,3/4+y,3/4+z
3/4+x,-y,3/4+z
x,1/2+y,1/2+z
1/4-x,3/4-y,1/2+z
x,3/4-y,3/4-z
1/4-x,1/2+y,3/4-z
-x,1/2-y,1/2-z
3/4+x,1/4+y,1/2-z
-x,1/4+y,1/4+z
3/4+x,1/2-y,1/4+z
1/2+x,y,1/2+z
3/4-x,1/4-y,1/2+z
1/2+x,1/4-y,3/4-z
3/4-x,y,3/4-z
1/2-x,-y,1/2-z
1/4+x,3/4+y,1/2-z
1/2-x,3/4+y,1/4+z
1/4+x,-y,1/4+z
1/2+x,1/2+y,z
3/4-x,3/4-y,z
1/2+x,3/4-y,1/4-z
3/4-x,1/2+y,1/4-z
1/2-x,1/2-y,-z
1/4+x,1/4+y,-z
1/2-x,1/4+y,3/4+z
1/4+x,1/2-y,3/4+z
loop_
_atom_site_type_symbol
_atom_site_label
_atom_site_fract_x
_atom_site_fract_y
_atom_site_fract_z
Si Si1 0.375000 0.875000 0.375000
Si Si2 0.209030 0.270644 0.629250
Si Si3 0.307192 0.294685 0.542859
Si Si4 0.494628 0.226702 0.810762
Si Si5 0.860043 0.125000 0.625000
O O1 0.426213 0.793243 0.337730
O O2 0.218031 0.125000 0.625000
O O3 0.125000 0.291260 0.625000
O O4 0.251306 0.348367 0.585289
O O5 0.237549 0.330496 0.681748
O O6 0.375000 0.375000 0.522908
O O7 0.250000 0.250000 0.500000
O O8 0.345896 0.194971 0.579964
O O9 0.500000 0.250000 0.750000
O O10 0.562216 0.280039 0.842254
#
# Coordination Sequence:
#
# PCOD9516370 Si02
#       5
#     8  32  32  32  16
#     4  10  24  48  70 112 150 196 266 338 398 502
#     4  11  25  47  76 113 161 206 269 339 415 506
#     4  12  28  47  76 112 163 213 272 339 424 497
#     4  11  25  46  80 107 154 204 267 331 415 484
#     4  11  26  49  71 114 149 198 266 334 395 514
#
# _framework density 22.987953999999998
#
# number of rings (size 3 to 8) (size 9 to 14) (size 15 to 20)
#    0.000    0.800    5.333    0.000    7.467    2.133 
#    0.000    0.000    0.000    0.000    0.000    0.000 
#    0.000    0.000    0.000    0.000    0.000    0.000 
#
# Total GULP energy -167416.228768 kJ/mol
# GULP energy per Si atom -5580.540959 kJ/mol
# Density = 2.293563 g / cm^3
# Si number density = 22.987954 Si / 1000 Ang^3
#
#
#
# Elastic Constant Matrix: (Units=GPa)
#
#
# Indices 1 2 3 4 5 6 
#
# 1 191.2297 62.4344 75.5895 0.0000 0.0000 0.0000
# 2 62.4344 116.7835 74.7429 0.0000 0.0000 0.0000
# 3 75.5895 74.7429 180.5613 0.0000 0.0000 0.0000
# 4 0.0000 0.0000 0.0000 31.3905 0.0000 0.0000
# 5 0.0000 0.0000 0.0000 0.0000 27.2000 0.0000
# 6 0.0000 0.0000 0.0000 0.0000 0.0000 30.2108
#
#
#
# Elastic Compliance Matrix: (Units=1/GPa)
#
#
# Indices 1 2 3 4 5 6 
#
# 1 0.006744 -0.002447 -0.001810 0.000000 0.000000 0.000000
# 2 -0.002447 0.012537 -0.004165 0.000000 0.000000 0.000000
# 3 -0.001810 -0.004165 0.008020 0.000000 0.000000 0.000000
# 4 0.000000 0.000000 0.000000 0.031857 0.000000 0.000000
# 5 0.000000 0.000000 0.000000 0.000000 0.036765 0.000000
# 6 0.000000 0.000000 0.000000 0.000000 0.000000 0.033101
#
#
# Mechanical properties :
#
#
# Convention : Reuss Voigt Hill
#
# Bulk Modulus (GPa) = 95.63709 101.56756 98.60233
# Shear Modulus (GPa) = 33.47770 36.14742 34.81256
#
# Velocity S-wave (km/s) = 3.82031 3.96972 3.89573
# Velocity P-wave (km/s) = 7.82005 8.08025 7.95121
#
# Compressibility (1/GPa) = 0.01045619
#
# Stress axis : x y z
#
# Youngs Moduli (GPa) = 148.28592 79.76585 124.68220
#
# Poissons Ratio (x) = 0.19516 0.22572
# Poissons Ratio (y) = 0.36280 0.51934
# Poissons Ratio (z) = 0.26846 0.33225
#
# Static dielectric constant tensor:
#      x y z
#    x 1.948650 0.000000 0.000000 
#    y 0.000000 1.871280 0.000000 
#    z 0.000000 0.000000 1.928560 
# 
# From -- ./inp_files/18621.got.cif
#   From: 2010.05.17/outbox.cif.g08.bks.cpg/sg70_10_cif.got.tgz:18621.got - 2010.06.03 15:57:51.
