data_PCOD9516175
_publ_section_title
;
Structure prediction by ZEFSAII (Michael W. Deem and Ramdas Pophale) SiO2 
 PCOD9516175
Probable space group: F D D D
;
_chemical_formula_sum "Si O2"
_cell_formula_units_Z 168
_cell_length_a 20.097183
_cell_length_b 16.109672
_cell_length_c 21.039230
_cell_angle_alpha 90.000000
_cell_angle_beta 90.000000
_cell_angle_gamma 90.000000
_cell_volume 6811.640618
_symmetry_space_group_name_H-M "F D D D"
_symmetry_group_IT_number 70
_space_group.IT_coordinate_system_code '2'
_symmetry_cell_setting 'orthorhombic'
loop_
_space_group_symop_operation_xyz
x,y,z
1/4-x,1/4-y,z
x,1/4-y,1/4-z
1/4-x,y,1/4-z
-x,-y,-z
3/4+x,3/4+y,-z
-x,3/4+y,3/4+z
3/4+x,-y,3/4+z
x,1/2+y,1/2+z
1/4-x,3/4-y,1/2+z
x,3/4-y,3/4-z
1/4-x,1/2+y,3/4-z
-x,1/2-y,1/2-z
3/4+x,1/4+y,1/2-z
-x,1/4+y,1/4+z
3/4+x,1/2-y,1/4+z
1/2+x,y,1/2+z
3/4-x,1/4-y,1/2+z
1/2+x,1/4-y,3/4-z
3/4-x,y,3/4-z
1/2-x,-y,1/2-z
1/4+x,3/4+y,1/2-z
1/2-x,3/4+y,1/4+z
1/4+x,-y,1/4+z
1/2+x,1/2+y,z
3/4-x,3/4-y,z
1/2+x,3/4-y,1/4-z
3/4-x,1/2+y,1/4-z
1/2-x,1/2-y,-z
1/4+x,1/4+y,-z
1/2-x,1/4+y,3/4+z
1/4+x,1/2-y,3/4+z
loop_
_atom_site_type_symbol
_atom_site_label
_atom_site_fract_x
_atom_site_fract_y
_atom_site_fract_z
Si Si1 0.939025 0.816431 0.527949
Si Si2 0.644372 0.304976 0.029812
Si Si3 0.256887 0.682379 0.065259
Si Si4 0.395415 0.741016 0.284606
Si Si5 0.875000 0.875000 0.875000
Si Si6 0.289017 0.531449 0.653785
O O1 0.875000 0.875000 0.529989
O O2 0.924660 0.744880 0.476111
O O3 0.993593 0.875103 0.496489
O O4 0.956878 0.782108 0.595990
O O5 0.669814 0.291170 0.955903
O O6 0.698982 0.251151 0.068461
O O7 0.627362 0.397634 0.050166
O O8 0.256124 0.625000 0.125000
O O9 0.348740 0.807721 0.321308
O O10 0.405587 0.738258 0.208138
O O11 0.467568 0.767726 0.312263
O O12 0.293822 0.625000 0.625000
#
# Coordination Sequence:
#
# PCOD9516175 Si02
#       6
#    32  32  32  32   8  32
#     4  10  23  44  69 102 141 174 241 299 354 440
#     4  10  23  46  69 105 134 191 226 295 361 418
#     4  10  24  45  71 106 139 178 239 293 361 433
#     4  11  26  44  72  95 149 188 235 307 350 441
#     4  12  28  44  60 116 138 188 250 280 380 432
#     4  11  23  47  69 103 136 195 247 292 365 435
#
# _framework density 24.663661999999999
#
# number of rings (size 3 to 8) (size 9 to 14) (size 15 to 20)
#    0.000    1.524    2.857    0.000    6.667    4.952 
#    6.857    0.000    0.000    0.000    0.000    0.000 
#    0.000    0.000    0.000    0.000    0.000    0.000 
#
# Total GULP energy -234367.701086 kJ/mol
# GULP energy per Si atom -5580.183359 kJ/mol
# Density = 2.460753 g / cm^3
# Si number density = 24.663662 Si / 1000 Ang^3
#
#
#
# Elastic Constant Matrix: (Units=GPa)
#
#
# Indices 1 2 3 4 5 6 
#
# 1 36.9398 7.9348 9.8235 0.0000 0.0000 0.0000
# 2 7.9348 178.8225 60.8635 0.0000 0.0000 0.0000
# 3 9.8235 60.8635 161.0066 0.0000 0.0000 0.0000
# 4 0.0000 0.0000 0.0000 58.6246 0.0000 0.0000
# 5 0.0000 0.0000 0.0000 0.0000 22.5319 0.0000
# 6 0.0000 0.0000 0.0000 0.0000 0.0000 23.2994
#
#
#
# Elastic Compliance Matrix: (Units=1/GPa)
#
#
# Indices 1 2 3 4 5 6 
#
# 1 0.027604 -0.000748 -0.001402 0.000000 0.000000 0.000000
# 2 -0.000748 0.006438 -0.002388 0.000000 0.000000 0.000000
# 3 -0.001402 -0.002388 0.007199 0.000000 0.000000 0.000000
# 4 0.000000 0.000000 0.000000 0.017058 0.000000 0.000000
# 5 0.000000 0.000000 0.000000 0.000000 0.044382 0.000000
# 6 0.000000 0.000000 0.000000 0.000000 0.000000 0.042920
#
#
# Mechanical properties :
#
#
# Convention : Reuss Voigt Hill
#
# Bulk Modulus (GPa) = 31.08797 59.33473 45.21135
# Shear Modulus (GPa) = 30.23014 40.76764 35.49889
#
# Velocity S-wave (km/s) = 3.50479 4.07005 3.79795
# Velocity P-wave (km/s) = 5.38611 6.79683 6.13217
#
# Compressibility (1/GPa) = 0.03216679
#
# Stress axis : x y z
#
# Youngs Moduli (GPa) = 36.22603 155.32462 138.90465
#
# Poissons Ratio (x) = 0.11616 0.19468
# Poissons Ratio (y) = 0.02709 0.33172
# Poissons Ratio (z) = 0.05077 0.37093
#
# Static dielectric constant tensor:
#      x y z
#    x 2.118410 0.000000 0.000000 
#    y 0.000000 2.000330 0.000000 
#    z 0.000000 0.000000 1.976880 
# 
# From -- ./inp_files/46788.got.cif
#   From: 2010.05.17/outbox.cif.g08.bks.cpg/sg70_24_cif.got.tgz:46788.got - 2010.06.03 15:57:51.
