data_PCOD9516987
_publ_section_title
;
Structure prediction by ZEFSAII (Michael W. Deem and Ramdas Pophale) SiO2 
 PCOD9516987
Probable space group: F D D D
;
_chemical_formula_sum "Si O2"
_cell_formula_units_Z 160
_cell_length_a 21.579839
_cell_length_b 20.074237
_cell_length_c 16.260179
_cell_angle_alpha 90.000000
_cell_angle_beta 90.000000
_cell_angle_gamma 90.000000
_cell_volume 7043.890071
_symmetry_space_group_name_H-M "F D D D"
_symmetry_group_IT_number 70
_space_group.IT_coordinate_system_code '2'
_symmetry_cell_setting 'orthorhombic'
loop_
_space_group_symop_operation_xyz
x,y,z
1/4-x,1/4-y,z
x,1/4-y,1/4-z
1/4-x,y,1/4-z
-x,-y,-z
3/4+x,3/4+y,-z
-x,3/4+y,3/4+z
3/4+x,-y,3/4+z
x,1/2+y,1/2+z
1/4-x,3/4-y,1/2+z
x,3/4-y,3/4-z
1/4-x,1/2+y,3/4-z
-x,1/2-y,1/2-z
3/4+x,1/4+y,1/2-z
-x,1/4+y,1/4+z
3/4+x,1/2-y,1/4+z
1/2+x,y,1/2+z
3/4-x,1/4-y,1/2+z
1/2+x,1/4-y,3/4-z
3/4-x,y,3/4-z
1/2-x,-y,1/2-z
1/4+x,3/4+y,1/2-z
1/2-x,3/4+y,1/4+z
1/4+x,-y,1/4+z
1/2+x,1/2+y,z
3/4-x,3/4-y,z
1/2+x,3/4-y,1/4-z
3/4-x,1/2+y,1/4-z
1/2-x,1/2-y,-z
1/4+x,1/4+y,-z
1/2-x,1/4+y,3/4+z
1/4+x,1/2-y,3/4+z
loop_
_atom_site_type_symbol
_atom_site_label
_atom_site_fract_x
_atom_site_fract_y
_atom_site_fract_z
Si Si1 0.449778 0.488893 0.217349
Si Si2 0.923024 0.308870 0.431710
Si Si3 0.223465 0.375000 0.375000
Si Si4 0.125000 0.965436 0.625000
Si Si5 0.749491 0.342572 0.047692
Si Si6 0.842875 0.495323 0.596349
O O1 0.509912 0.534608 0.209499
O O2 0.413785 0.493807 0.304967
O O3 0.473635 0.416427 0.190459
O O4 0.401545 0.512345 0.150246
O O5 0.932309 0.375000 0.375000
O O6 0.875000 0.267107 0.375000
O O7 0.890099 0.301831 0.520159
O O8 0.256468 0.335743 0.448723
O O9 0.186327 0.432459 0.423888
O O10 0.070755 0.922789 0.578332
O O11 0.794963 0.294425 0.096741
#
# Coordination Sequence:
#
# PCOD9516987 Si02
#       6
#    32  32  16  16  32  32
#     4  12  28  47  82 117 155 214 263 335 411 482
#     4  11  28  52  76 109 156 208 266 326 395 491
#     4  12  24  46  77 110 157 208 252 324 398 486
#     4  12  26  50  79 122 163 212 272 338 410 496
#     4  12  26  47  79 115 163 202 270 332 409 487
#     4  12  27  51  73 118 154 206 264 334 402 483
#
# _framework density 22.714721000000001
#
# number of rings (size 3 to 8) (size 9 to 14) (size 15 to 20)
#    0.000    0.200    6.000    1.200   11.200    0.800 
#    0.000    0.000    0.000    0.000    0.000    0.000 
#    0.000    0.000    0.000    0.000    0.000    0.000 
#
# Total GULP energy -222945.266067 kJ/mol
# GULP energy per Si atom -5573.631652 kJ/mol
# Density = 2.266302 g / cm^3
# Si number density = 22.714721 Si / 1000 Ang^3
#
#
#
# Elastic Constant Matrix: (Units=GPa)
#
#
# Indices 1 2 3 4 5 6 
#
# 1 99.4860 -10.2766 27.7219 0.0000 0.0000 0.0000
# 2 -10.2766 82.4121 19.3859 0.0000 0.0000 0.0000
# 3 27.7219 19.3859 143.4051 0.0000 0.0000 0.0000
# 4 0.0000 0.0000 0.0000 38.3542 0.0000 0.0000
# 5 0.0000 0.0000 0.0000 0.0000 48.5354 0.0000
# 6 0.0000 0.0000 0.0000 0.0000 0.0000 16.9679
#
#
#
# Elastic Compliance Matrix: (Units=1/GPa)
#
#
# Indices 1 2 3 4 5 6 
#
# 1 0.010910 0.001917 -0.002368 0.000000 0.000000 0.000000
# 2 0.001917 0.012870 -0.002110 0.000000 0.000000 0.000000
# 3 -0.002368 -0.002110 0.007716 0.000000 0.000000 0.000000
# 4 0.000000 0.000000 0.000000 0.026073 0.000000 0.000000
# 5 0.000000 0.000000 0.000000 0.000000 0.020604 0.000000
# 6 0.000000 0.000000 0.000000 0.000000 0.000000 0.058935
#
#
# Mechanical properties :
#
#
# Convention : Reuss Voigt Hill
#
# Bulk Modulus (GPa) = 37.91701 44.32952 41.12327
# Shear Modulus (GPa) = 33.10817 40.00297 36.55557
#
# Velocity S-wave (km/s) = 3.82195 4.20110 4.01600
# Velocity P-wave (km/s) = 6.01709 6.56433 6.29666
#
# Compressibility (1/GPa) = 0.02637339
#
# Stress axis : x y z
#
# Youngs Moduli (GPa) = 91.66217 77.70203 129.59512
#
# Poissons Ratio (x) = -0.14899 0.30690
# Poissons Ratio (y) = -0.17576 0.27350
# Poissons Ratio (z) = 0.21707 0.16398
#
# Static dielectric constant tensor:
#      x y z
#    x 1.873950 0.000000 0.000000 
#    y 0.000000 1.900440 0.000000 
#    z 0.000000 0.000000 1.960430 
# 
# From -- ./inp_files/28703.got.cif
#   From: 2010.05.17/outbox.cif.g08.bks.cpg/sg70_15_cif.got.tgz:28703.got - 2010.06.03 15:57:51.
