data_PCOD9516162
_publ_section_title
;
Structure prediction by ZEFSAII (Michael W. Deem and Ramdas Pophale) SiO2 
 PCOD9516162
Probable space group: F D D D
;
_chemical_formula_sum "Si O2"
_cell_formula_units_Z 176
_cell_length_a 20.665049
_cell_length_b 30.290978
_cell_length_c 11.971015
_cell_angle_alpha 90.000000
_cell_angle_beta 90.000000
_cell_angle_gamma 90.000000
_cell_volume 7493.430953
_symmetry_space_group_name_H-M "F D D D"
_symmetry_group_IT_number 70
_space_group.IT_coordinate_system_code '2'
_symmetry_cell_setting 'orthorhombic'
loop_
_space_group_symop_operation_xyz
x,y,z
1/4-x,1/4-y,z
x,1/4-y,1/4-z
1/4-x,y,1/4-z
-x,-y,-z
3/4+x,3/4+y,-z
-x,3/4+y,3/4+z
3/4+x,-y,3/4+z
x,1/2+y,1/2+z
1/4-x,3/4-y,1/2+z
x,3/4-y,3/4-z
1/4-x,1/2+y,3/4-z
-x,1/2-y,1/2-z
3/4+x,1/4+y,1/2-z
-x,1/4+y,1/4+z
3/4+x,1/2-y,1/4+z
1/2+x,y,1/2+z
3/4-x,1/4-y,1/2+z
1/2+x,1/4-y,3/4-z
3/4-x,y,3/4-z
1/2-x,-y,1/2-z
1/4+x,3/4+y,1/2-z
1/2-x,3/4+y,1/4+z
1/4+x,-y,1/4+z
1/2+x,1/2+y,z
3/4-x,3/4-y,z
1/2+x,3/4-y,1/4-z
3/4-x,1/2+y,1/4-z
1/2-x,1/2-y,-z
1/4+x,1/4+y,-z
1/2-x,1/4+y,3/4+z
1/4+x,1/2-y,3/4+z
loop_
_atom_site_type_symbol
_atom_site_label
_atom_site_fract_x
_atom_site_fract_y
_atom_site_fract_z
Si Si1 0.956509 0.508586 0.277347
Si Si2 0.890751 0.053654 0.580286
Si Si3 0.397863 0.284230 0.491219
Si Si4 0.875000 0.616182 0.875000
Si Si5 0.863028 0.925635 0.722953
Si Si6 0.464343 0.685868 0.256134
O O1 0.930117 0.547781 0.195550
O O2 0.915388 0.463595 0.256965
O O3 0.950785 0.524533 0.405825
O O4 0.031910 0.510828 0.244016
O O5 0.901082 0.088326 0.481537
O O6 0.820505 0.060411 0.637062
O O7 0.898779 0.006422 0.521884
O O8 0.375000 0.303088 0.375000
O O9 0.393424 0.318989 0.589644
O O10 0.816938 0.644658 0.928340
O O11 0.875000 0.875000 0.752137
O O12 0.790200 0.934110 0.763120
#
# Coordination Sequence:
#
# PCOD9516162 Si02
#       6
#    32  32  32  16  32  32
#     4  10  23  44  70 101 142 187 236 286 367 421
#     4  11  23  42  69  99 135 183 235 294 349 430
#     4  10  23  43  70 102 138 190 237 294 355 431
#     4  12  24  42  70 102 134 178 242 296 348 424
#     4  10  25  44  71 104 146 189 237 300 361 430
#     4  11  24  44  70 103 141 188 236 297 363 425
#
# _framework density 23.487238999999999
#
# number of rings (size 3 to 8) (size 9 to 14) (size 15 to 20)
#    0.000    1.455    2.727    0.545    2.545   12.727 
#    0.000    3.636    0.000    0.000    0.000    0.000 
#    0.000    0.000    0.000    0.000    0.000    0.000 
#
# Total GULP energy -245759.734043 kJ/mol
# GULP energy per Si atom -5585.448501 kJ/mol
# Density = 2.343378 g / cm^3
# Si number density = 23.487239 Si / 1000 Ang^3
#
#
#
# Elastic Constant Matrix: (Units=GPa)
#
#
# Indices 1 2 3 4 5 6 
#
# 1 72.6602 48.3761 49.9831 0.0000 0.0000 0.0000
# 2 48.3761 123.4234 51.9280 0.0000 0.0000 0.0000
# 3 49.9831 51.9280 159.7423 0.0000 0.0000 0.0000
# 4 0.0000 0.0000 0.0000 38.2281 0.0000 0.0000
# 5 0.0000 0.0000 0.0000 0.0000 13.4434 0.0000
# 6 0.0000 0.0000 0.0000 0.0000 0.0000 -8.9289
#
#
#
# Elastic Compliance Matrix: (Units=1/GPa)
#
#
# Indices 1 2 3 4 5 6 
#
# 1 0.021127 -0.006371 -0.004540 0.000000 0.000000 0.000000
# 2 -0.006371 0.011307 -0.001682 0.000000 0.000000 0.000000
# 3 -0.004540 -0.001682 0.008227 0.000000 0.000000 0.000000
# 4 0.000000 0.000000 0.000000 0.026159 0.000000 0.000000
# 5 0.000000 0.000000 0.000000 0.000000 0.074386 0.000000
# 6 0.000000 0.000000 0.000000 0.000000 0.000000 -0.111996
#
#
# Mechanical properties :
#
#
# Convention : Reuss Voigt Hill
#
# Bulk Modulus (GPa) = 64.61561 72.93337 68.77449
# Shear Modulus (GPa) = 83.95747 22.25110 53.10429
#
# Velocity S-wave (km/s) = 5.98528 3.08128 4.76014
# Velocity P-wave (km/s) = 8.67960 6.61655 7.71733
#
# Compressibility (1/GPa) = 0.01547614
#
# Stress axis : x y z
#
# Youngs Moduli (GPa) = 47.33241 88.44068 121.54560
#
# Poissons Ratio (x) = 0.56344 0.55178
# Poissons Ratio (y) = 0.30155 0.20446
# Poissons Ratio (z) = 0.21487 0.14877
#
# Static dielectric constant tensor:
#      x y z
#    x 1.970930 0.000000 0.000000 
#    y 0.000000 1.930330 0.000000 
#    z 0.000000 0.000000 1.927520 
# 
# From -- ./inp_files/19611.got.cif
#   From: 2010.05.17/outbox.cif.g08.bks.cpg/sg70_10_cif.got.tgz:19611.got - 2010.06.03 15:57:51.
