data_PCOD9516656
_publ_section_title
;
Structure prediction by ZEFSAII (Michael W. Deem and Ramdas Pophale) SiO2 
 PCOD9516656
Probable space group: F D D D
;
_chemical_formula_sum "Si O2"
_cell_formula_units_Z 240
_cell_length_a 21.069762
_cell_length_b 18.015715
_cell_length_c 28.857021
_cell_angle_alpha 90.000000
_cell_angle_beta 90.000000
_cell_angle_gamma 90.000000
_cell_volume 10953.745047
_symmetry_space_group_name_H-M "F D D D"
_symmetry_group_IT_number 70
_space_group.IT_coordinate_system_code '2'
_symmetry_cell_setting 'orthorhombic'
loop_
_space_group_symop_operation_xyz
x,y,z
1/4-x,1/4-y,z
x,1/4-y,1/4-z
1/4-x,y,1/4-z
-x,-y,-z
3/4+x,3/4+y,-z
-x,3/4+y,3/4+z
3/4+x,-y,3/4+z
x,1/2+y,1/2+z
1/4-x,3/4-y,1/2+z
x,3/4-y,3/4-z
1/4-x,1/2+y,3/4-z
-x,1/2-y,1/2-z
3/4+x,1/4+y,1/2-z
-x,1/4+y,1/4+z
3/4+x,1/2-y,1/4+z
1/2+x,y,1/2+z
3/4-x,1/4-y,1/2+z
1/2+x,1/4-y,3/4-z
3/4-x,y,3/4-z
1/2-x,-y,1/2-z
1/4+x,3/4+y,1/2-z
1/2-x,3/4+y,1/4+z
1/4+x,-y,1/4+z
1/2+x,1/2+y,z
3/4-x,3/4-y,z
1/2+x,3/4-y,1/4-z
3/4-x,1/2+y,1/4-z
1/2-x,1/2-y,-z
1/4+x,1/4+y,-z
1/2-x,1/4+y,3/4+z
1/4+x,1/2-y,3/4+z
loop_
_atom_site_type_symbol
_atom_site_label
_atom_site_fract_x
_atom_site_fract_y
_atom_site_fract_z
Si Si1 0.065293 0.514949 0.528026
Si Si2 0.862187 0.963306 0.326950
Si Si3 0.760818 0.978648 0.473340
Si Si4 0.480803 0.694815 0.709818
Si Si5 0.866062 0.193357 0.649090
Si Si6 0.479821 0.825796 0.437581
Si Si7 0.125000 0.000296 0.125000
Si Si8 0.640438 0.711329 0.313224
O O1 0.053689 0.600268 0.543529
O O2 0.089531 0.472920 0.575489
O O3 0.115166 0.506687 0.485883
O O4 0.000000 0.500000 0.500000
O O5 0.875000 0.003243 0.375000
O O6 0.875000 0.875000 0.328335
O O7 0.786669 0.965041 0.325053
O O8 0.914869 0.988767 0.289687
O O9 0.740712 0.891720 0.472933
O O10 0.744125 0.017078 0.521827
O O11 0.714974 0.019624 0.436450
O O12 0.500000 0.750000 0.750000
O O13 0.411899 0.714841 0.690694
O O14 0.902434 0.125000 0.625000
O O15 0.799804 0.162018 0.667342
O O16 0.858455 0.253423 0.608727
O O17 0.433194 0.793179 0.398922
O O18 0.625000 0.625000 0.312399
#
# Coordination Sequence:
#
# PCOD9516656 Si02
#       8
#    32  32  32  32  32  32  16  32
#     4  12  24  41  68  98 138 181 240 295 358 438
#     4   9  19  37  66  96 121 173 231 278 342 422
#     4  11  22  42  70  94 140 185 230 295 368 428
#     4  11  24  43  69 100 140 179 238 298 363 436
#     4  12  25  42  69 105 140 190 241 302 372 456
#     4  12  24  41  68  98 138 185 242 295 366 436
#     4  12  23  44  68  96 134 194 245 288 357 448
#     4  12  23  43  67 102 139 187 232 294 368 438
#
# _framework density 21.910316000000002
#
# number of rings (size 3 to 8) (size 9 to 14) (size 15 to 20)
#    0.000    0.667    4.000    5.200    1.867    1.067 
#    0.000    0.000    2.933    0.000    0.000    0.000 
#    0.000    0.000    0.000    0.000    0.000    0.000 
#
# Total GULP energy -334228.638976 kJ/mol
# GULP energy per Si atom -5570.477316 kJ/mol
# Density = 2.186045 g / cm^3
# Si number density = 21.910316 Si / 1000 Ang^3
#
#
#
# Elastic Constant Matrix: (Units=GPa)
#
#
# Indices 1 2 3 4 5 6 
#
# 1 127.0631 -0.3943 28.2284 0.0000 0.0000 0.0000
# 2 -0.3943 42.8186 19.6296 0.0000 0.0000 0.0000
# 3 28.2284 19.6296 101.5062 0.0000 0.0000 0.0000
# 4 0.0000 0.0000 0.0000 20.0115 0.0000 0.0000
# 5 0.0000 0.0000 0.0000 0.0000 39.6795 0.0000
# 6 0.0000 0.0000 0.0000 0.0000 0.0000 19.1991
#
#
#
# Elastic Compliance Matrix: (Units=1/GPa)
#
#
# Indices 1 2 3 4 5 6 
#
# 1 0.008451 0.001268 -0.002595 0.000000 0.000000 0.000000
# 2 0.001268 0.025816 -0.005345 0.000000 0.000000 0.000000
# 3 -0.002595 -0.005345 0.011607 0.000000 0.000000 0.000000
# 4 0.000000 0.000000 0.000000 0.049971 0.000000 0.000000
# 5 0.000000 0.000000 0.000000 0.000000 0.025202 0.000000
# 6 0.000000 0.000000 0.000000 0.000000 0.000000 0.052086
#
#
# Mechanical properties :
#
#
# Convention : Reuss Voigt Hill
#
# Bulk Modulus (GPa) = 30.74209 40.70169 35.72189
# Shear Modulus (GPa) = 25.33940 30.70627 28.02284
#
# Velocity S-wave (km/s) = 3.40443 3.74766 3.58016
# Velocity P-wave (km/s) = 5.43276 6.11093 5.78180
#
# Compressibility (1/GPa) = 0.03252869
#
# Stress axis : x y z
#
# Youngs Moduli (GPa) = 118.33492 38.73518 86.15523
#
# Poissons Ratio (x) = -0.04910 0.22359
# Poissons Ratio (y) = -0.15000 0.46050
# Poissons Ratio (z) = 0.30710 0.20704
#
# Static dielectric constant tensor:
#      x y z
#    x 1.825430 0.000000 0.000000 
#    y 0.000000 1.785010 0.000000 
#    z 0.000000 0.000000 1.889990 
# 
# From -- ./inp_files/60535.got.cif
#   From: 2010.05.17/outbox.cif.g08.bks.cpg/sg70_31_cif.got.tgz:60535.got - 2010.06.03 15:57:51.
