data_PCOD9516430
_publ_section_title
;
Structure prediction by ZEFSAII (Michael W. Deem and Ramdas Pophale) SiO2 
 PCOD9516430
Probable space group: F D D D
;
_chemical_formula_sum "Si O2"
_cell_formula_units_Z 88
_cell_length_a 18.071440
_cell_length_b 14.468247
_cell_length_c 13.171101
_cell_angle_alpha 90.000000
_cell_angle_beta 90.000000
_cell_angle_gamma 90.000000
_cell_volume 3443.743168
_symmetry_space_group_name_H-M "F D D D"
_symmetry_group_IT_number 70
_space_group.IT_coordinate_system_code '2'
_symmetry_cell_setting 'orthorhombic'
loop_
_space_group_symop_operation_xyz
x,y,z
1/4-x,1/4-y,z
x,1/4-y,1/4-z
1/4-x,y,1/4-z
-x,-y,-z
3/4+x,3/4+y,-z
-x,3/4+y,3/4+z
3/4+x,-y,3/4+z
x,1/2+y,1/2+z
1/4-x,3/4-y,1/2+z
x,3/4-y,3/4-z
1/4-x,1/2+y,3/4-z
-x,1/2-y,1/2-z
3/4+x,1/4+y,1/2-z
-x,1/4+y,1/4+z
3/4+x,1/2-y,1/4+z
1/2+x,y,1/2+z
3/4-x,1/4-y,1/2+z
1/2+x,1/4-y,3/4-z
3/4-x,y,3/4-z
1/2-x,-y,1/2-z
1/4+x,3/4+y,1/2-z
1/2-x,3/4+y,1/4+z
1/4+x,-y,1/4+z
1/2+x,1/2+y,z
3/4-x,3/4-y,z
1/2+x,3/4-y,1/4-z
3/4-x,1/2+y,1/4-z
1/2-x,1/2-y,-z
1/4+x,1/4+y,-z
1/2-x,1/4+y,3/4+z
1/4+x,1/2-y,3/4+z
loop_
_atom_site_type_symbol
_atom_site_label
_atom_site_fract_x
_atom_site_fract_y
_atom_site_fract_z
Si Si1 0.875000 0.375000 0.875000
Si Si2 0.391980 0.729772 0.162199
Si Si3 0.473375 0.401343 0.565323
Si Si4 0.875000 0.577455 0.375000
O O1 0.816009 0.417136 0.793254
O O2 0.401082 0.625000 0.125000
O O3 0.443055 0.801787 0.102970
O O4 0.310424 0.771050 0.139606
O O5 0.405850 0.731862 0.282082
O O6 0.560619 0.389020 0.575326
#
# Coordination Sequence:
#
# PCOD9516430 Si02
#       4
#     8  32  32  16
#     4   8  20  50  80  96 156 200 252 302 372 452
#     4  10  25  47  72 105 150 200 254 307 382 456
#     4  10  25  49  73 114 147 200 256 317 371 463
#     4  12  26  44  77 109 152 196 254 322 389 437
#
# _framework density 25.55359
#
# number of rings (size 3 to 8) (size 9 to 14) (size 15 to 20)
#    0.000    2.182    0.000    1.091    7.636   10.182 
#    0.000    0.909    0.000    0.000    0.000    0.000 
#    0.000    0.000    0.000    0.000    0.000    0.000 
#
# Total GULP energy -123043.856535 kJ/mol
# GULP energy per Si atom -5592.902570 kJ/mol
# Density = 2.549543 g / cm^3
# Si number density = 25.553590 Si / 1000 Ang^3
#
#
#
# Elastic Constant Matrix: (Units=GPa)
#
#
# Indices 1 2 3 4 5 6 
#
# 1 152.4684 15.0083 21.4668 0.0000 0.0000 0.0000
# 2 15.0083 185.9871 43.9915 0.0000 0.0000 0.0000
# 3 21.4668 43.9915 181.6578 0.0000 0.0000 0.0000
# 4 0.0000 0.0000 0.0000********** 0.0000 0.0000
# 5 0.0000 0.0000 0.0000 0.0000 41.4997 0.0000
# 6 0.0000 0.0000 0.0000 0.0000 0.0000 10.6188
#
#
#
# Elastic Compliance Matrix: (Units=1/GPa)
#
#
# Indices 1 2 3 4 5 6 
#
# 1 0.006694 -0.000375 -0.000700 0.000000 0.000000 0.000000
# 2 -0.000375 0.005724 -0.001342 0.000000 0.000000 0.000000
# 3 -0.000700 -0.001342 0.005913 0.000000 0.000000 0.000000
# 4 0.000000 0.000000 0.000000 -0.000084 0.000000 0.000000
# 5 0.000000 0.000000 0.000000 0.000000 0.024097 0.000000
# 6 0.000000 0.000000 0.000000 0.000000 0.000000 0.094173
#
#
# Mechanical properties :
#
#
# Convention : Reuss Voigt Hill
#
# Bulk Modulus (GPa) = 74.08837 75.67183 74.88010
# Shear Modulus (GPa) = 34.28201 -2335.38617 -1150.55208
#
# Velocity S-wave (km/s) = 3.66672 -30.26386 -21.24213
# Velocity P-wave (km/s) = 6.85440 34.51846 23.92218
#
# Compressibility (1/GPa) = 0.01349740
#
# Stress axis : x y z
#
# Youngs Moduli (GPa) = 149.38275 174.69199 169.13023
#
# Poissons Ratio (x) = 0.06543 0.11845
# Poissons Ratio (y) = 0.05595 0.22697
# Poissons Ratio (z) = 0.10462 0.23444
#
# Static dielectric constant tensor:
#      x y z
#    x 2.084460 0.000000 0.000000 
#    y 0.000000 1.989820 0.000000 
#    z 0.000000 0.000000 2.031050 
# 
# From -- ./inp_files/16949.got.cif
#   From: 2010.05.17/outbox.cif.g08.bks.cpg/sg70_9_cif.got.tgz:16949.got - 2010.06.03 15:57:51.
