data_PCOD9516359
_publ_section_title
;
Structure prediction by ZEFSAII (Michael W. Deem and Ramdas Pophale) SiO2 
 PCOD9516359
Probable space group: F D D D
;
_chemical_formula_sum "Si O2"
_cell_formula_units_Z 216
_cell_length_a 20.113502
_cell_length_b 21.572866
_cell_length_c 24.164821
_cell_angle_alpha 90.000000
_cell_angle_beta 90.000000
_cell_angle_gamma 90.000000
_cell_volume 10485.258004
_symmetry_space_group_name_H-M "F D D D"
_symmetry_group_IT_number 70
_space_group.IT_coordinate_system_code '2'
_symmetry_cell_setting 'orthorhombic'
loop_
_space_group_symop_operation_xyz
x,y,z
1/4-x,1/4-y,z
x,1/4-y,1/4-z
1/4-x,y,1/4-z
-x,-y,-z
3/4+x,3/4+y,-z
-x,3/4+y,3/4+z
3/4+x,-y,3/4+z
x,1/2+y,1/2+z
1/4-x,3/4-y,1/2+z
x,3/4-y,3/4-z
1/4-x,1/2+y,3/4-z
-x,1/2-y,1/2-z
3/4+x,1/4+y,1/2-z
-x,1/4+y,1/4+z
3/4+x,1/2-y,1/4+z
1/2+x,y,1/2+z
3/4-x,1/4-y,1/2+z
1/2+x,1/4-y,3/4-z
3/4-x,y,3/4-z
1/2-x,-y,1/2-z
1/4+x,3/4+y,1/2-z
1/2-x,3/4+y,1/4+z
1/4+x,-y,1/4+z
1/2+x,1/2+y,z
3/4-x,3/4-y,z
1/2+x,3/4-y,1/4-z
3/4-x,1/2+y,1/4-z
1/2-x,1/2-y,-z
1/4+x,1/4+y,-z
1/2-x,1/4+y,3/4+z
1/4+x,1/2-y,3/4+z
loop_
_atom_site_type_symbol
_atom_site_label
_atom_site_fract_x
_atom_site_fract_y
_atom_site_fract_z
Si Si1 0.797017 0.809094 0.277583
Si Si2 0.185705 0.438398 0.964241
Si Si3 0.609593 0.822755 0.968590
Si Si4 0.679478 0.726006 0.887615
Si Si5 0.069083 0.963253 0.077398
Si Si6 0.125000 0.125000 0.433893
Si Si7 0.625000 0.625000 0.625000
Si Si8 0.553386 0.105675 0.559955
O O1 0.823426 0.740477 0.260930
O O2 0.717819 0.807927 0.280950
O O3 0.817084 0.855931 0.227212
O O4 0.829950 0.833860 0.333752
O O5 0.124775 0.393078 0.949184
O O6 0.204547 0.478255 0.910531
O O7 0.247031 0.391997 0.972540
O O8 0.647145 0.770197 0.933281
O O9 0.642235 0.821413 0.029193
O O10 0.746012 0.688568 0.905373
O O11 0.624638 0.683061 0.857811
O O12 0.125000 0.969892 0.125000
O O13 0.050062 0.032194 0.056871
O O14 0.625000 0.125000 0.538332
O O15 0.549617 0.125000 0.625000
#
# Coordination Sequence:
#
# PCOD9516359 Si02
#       8
#    32  32  32  32  32  16   8  32
#     4  10  24  47  71  97 130 178 231 290 345 398
#     4  11  22  42  63  95 130 172 226 274 342 399
#     4  12  25  40  67 100 138 174 224 286 337 407
#     4  11  22  40  63  95 131 174 222 271 338 411
#     4  12  22  38  59  93 136 181 212 261 330 408
#     4   9  22  47  66  90 133 174 223 284 340 396
#     4  10  24  52  76  92 132 172 240 290 338 404
#     4  11  17  31  59  88 126 175 208 244 308 400
#
# _framework density 20.600352000000001
#
# number of rings (size 3 to 8) (size 9 to 14) (size 15 to 20)
#    0.000    1.037    4.444    3.556    2.074    1.185 
#    5.333    2.222    0.000    0.000    0.000    0.000 
#    0.000    0.000    0.000    0.000    0.000    0.000 
#
# Total GULP energy -301345.578104 kJ/mol
# GULP energy per Si atom -5580.473669 kJ/mol
# Density = 2.055347 g / cm^3
# Si number density = 20.600352 Si / 1000 Ang^3
#
#
#
# Elastic Constant Matrix: (Units=GPa)
#
#
# Indices 1 2 3 4 5 6 
#
# 1 108.2902 30.6294 39.0118 0.0000 0.0000 0.0000
# 2 30.6294 51.0882 30.5077 0.0000 0.0000 0.0000
# 3 39.0118 30.5077 96.7765 0.0000 0.0000 0.0000
# 4 0.0000 0.0000 0.0000 19.6364 0.0000 0.0000
# 5 0.0000 0.0000 0.0000 0.0000 14.8645 0.0000
# 6 0.0000 0.0000 0.0000 0.0000 0.0000 20.9738
#
#
#
# Elastic Compliance Matrix: (Units=1/GPa)
#
#
# Indices 1 2 3 4 5 6 
#
# 1 0.011840 -0.005233 -0.003123 0.000000 0.000000 0.000000
# 2 -0.005233 0.026427 -0.006221 0.000000 0.000000 0.000000
# 3 -0.003123 -0.006221 0.013553 0.000000 0.000000 0.000000
# 4 0.000000 0.000000 0.000000 0.050926 0.000000 0.000000
# 5 0.000000 0.000000 0.000000 0.000000 0.067274 0.000000
# 6 0.000000 0.000000 0.000000 0.000000 0.000000 0.047678
#
#
# Mechanical properties :
#
#
# Convention : Reuss Voigt Hill
#
# Bulk Modulus (GPa) = 44.12181 50.71698 47.41940
# Shear Modulus (GPa) = 19.65348 21.49535 20.57442
#
# Velocity S-wave (km/s) = 3.09210 3.23375 3.16371
# Velocity P-wave (km/s) = 5.84915 6.21416 6.03441
#
# Compressibility (1/GPa) = 0.02266453
#
# Stress axis : x y z
#
# Youngs Moduli (GPa) = 84.46112 37.84069 73.78388
#
# Poissons Ratio (x) = 0.19804 0.23042
# Poissons Ratio (y) = 0.44203 0.45901
# Poissons Ratio (z) = 0.26377 0.23541
#
# Static dielectric constant tensor:
#      x y z
#    x 1.762930 0.000000 0.000000 
#    y 0.000000 1.774010 0.000000 
#    z 0.000000 0.000000 1.775380 
# 
# From -- ./inp_files/45152.got.cif
#   From: 2010.05.17/outbox.cif.g08.bks.cpg/sg70_23_cif.got.tgz:45152.got - 2010.06.03 15:57:51.
