data_PCOD9516994
_publ_section_title
;
Structure prediction by ZEFSAII (Michael W. Deem and Ramdas Pophale) SiO2 
 PCOD9516994
Probable space group: F D D D
;
_chemical_formula_sum "Si O2"
_cell_formula_units_Z 80
_cell_length_a 19.702973
_cell_length_b 10.499473
_cell_length_c 16.241070
_cell_angle_alpha 90.000000
_cell_angle_beta 90.000000
_cell_angle_gamma 90.000000
_cell_volume 3359.803680
_symmetry_space_group_name_H-M "F D D D"
_symmetry_group_IT_number 70
_space_group.IT_coordinate_system_code '2'
_symmetry_cell_setting 'orthorhombic'
loop_
_space_group_symop_operation_xyz
x,y,z
1/4-x,1/4-y,z
x,1/4-y,1/4-z
1/4-x,y,1/4-z
-x,-y,-z
3/4+x,3/4+y,-z
-x,3/4+y,3/4+z
3/4+x,-y,3/4+z
x,1/2+y,1/2+z
1/4-x,3/4-y,1/2+z
x,3/4-y,3/4-z
1/4-x,1/2+y,3/4-z
-x,1/2-y,1/2-z
3/4+x,1/4+y,1/2-z
-x,1/4+y,1/4+z
3/4+x,1/2-y,1/4+z
1/2+x,y,1/2+z
3/4-x,1/4-y,1/2+z
1/2+x,1/4-y,3/4-z
3/4-x,y,3/4-z
1/2-x,-y,1/2-z
1/4+x,3/4+y,1/2-z
1/2-x,3/4+y,1/4+z
1/4+x,-y,1/4+z
1/2+x,1/2+y,z
3/4-x,3/4-y,z
1/2+x,3/4-y,1/4-z
3/4-x,1/2+y,1/4-z
1/2-x,1/2-y,-z
1/4+x,1/4+y,-z
1/2-x,1/4+y,3/4+z
1/4+x,1/2-y,3/4+z
loop_
_atom_site_type_symbol
_atom_site_label
_atom_site_fract_x
_atom_site_fract_y
_atom_site_fract_z
Si Si1 0.375000 0.875000 0.152488
Si Si2 0.513319 0.975101 0.113471
Si Si3 0.133167 0.909368 0.212962
O O1 0.443229 0.901490 0.103364
O O2 0.383747 0.751450 0.210693
O O3 0.568436 0.934907 0.044426
O O4 0.506190 0.125000 0.125000
O O5 0.548618 0.920714 0.197595
O O6 0.125000 0.982013 0.125000
#
# Coordination Sequence:
#
# PCOD9516994 Si02
#       3
#    16  32  32
#     4  12  19  38  64  92 112 164 195 236 308 346
#     4   9  21  39  57  89 121 152 199 245 288 353
#     4   8  20  39  61  82 122 157 190 247 290 348
#
# _framework density 23.810914
#
# number of rings (size 3 to 8) (size 9 to 14) (size 15 to 20)
#    2.400    0.000    0.000    4.200    0.000    1.600 
#   14.400    0.000    0.000    0.000    0.000    0.000 
#    0.000    0.000    0.000    0.000    0.000    0.000 
#
# Total GULP energy -111609.086257 kJ/mol
# GULP energy per Si atom -5580.454313 kJ/mol
# Density = 2.375672 g / cm^3
# Si number density = 23.810914 Si / 1000 Ang^3
#
#
#
# Elastic Constant Matrix: (Units=GPa)
#
#
# Indices 1 2 3 4 5 6 
#
# 1 191.4636 60.9044 12.3966 0.0000 0.0000 0.0000
# 2 60.9044 126.8122 27.1218 0.0000 0.0000 0.0000
# 3 12.3966 27.1218 65.2988 0.0000 0.0000 0.0000
# 4 0.0000 0.0000 0.0000 37.8512 0.0000 0.0000
# 5 0.0000 0.0000 0.0000 0.0000 6.8460 0.0000
# 6 0.0000 0.0000 0.0000 0.0000 0.0000 32.9579
#
#
#
# Elastic Compliance Matrix: (Units=1/GPa)
#
#
# Indices 1 2 3 4 5 6 
#
# 1 0.006165 -0.002975 0.000065 0.000000 0.000000 0.000000
# 2 -0.002975 0.010090 -0.003626 0.000000 0.000000 0.000000
# 3 0.000065 -0.003626 0.016808 0.000000 0.000000 0.000000
# 4 0.000000 0.000000 0.000000 0.026419 0.000000 0.000000
# 5 0.000000 0.000000 0.000000 0.000000 0.146070 0.000000
# 6 0.000000 0.000000 0.000000 0.000000 0.000000 0.030342
#
#
# Mechanical properties :
#
#
# Convention : Reuss Voigt Hill
#
# Bulk Modulus (GPa) = 50.02142 64.93557 57.47850
# Shear Modulus (GPa) = 19.55959 34.40780 26.98370
#
# Velocity S-wave (km/s) = 2.86921 3.80550 3.37003
# Velocity P-wave (km/s) = 5.65949 6.82932 6.27174
#
# Compressibility (1/GPa) = 0.01999144
#
# Stress axis : x y z
#
# Youngs Moduli (GPa) = 162.20629 99.10876 59.49567
#
# Poissons Ratio (x) = 0.29483 -0.00388
# Poissons Ratio (y) = 0.48253 0.21574
# Poissons Ratio (z) = -0.01058 0.35938
#
# Static dielectric constant tensor:
#      x y z
#    x 1.966450 0.000000 0.000000 
#    y 0.000000 1.839570 0.000000 
#    z 0.000000 0.000000 1.985160 
# 
# From -- ./inp_files/7034.got.cif
#   From: 2010.05.17/outbox.cif.g08.bks.cpg/sg70_4_cif.got.tgz:7034.got - 2010.06.03 15:57:51.
