data_PCOD9516294
_publ_section_title
;
Structure prediction by ZEFSAII (Michael W. Deem and Ramdas Pophale) SiO2 
 PCOD9516294
Probable space group: F D D D
;
_chemical_formula_sum "Si O2"
_cell_formula_units_Z 144
_cell_length_a 26.854456
_cell_length_b 20.486802
_cell_length_c 11.323607
_cell_angle_alpha 90.000000
_cell_angle_beta 90.000000
_cell_angle_gamma 90.000000
_cell_volume 6229.817401
_symmetry_space_group_name_H-M "F D D D"
_symmetry_group_IT_number 70
_space_group.IT_coordinate_system_code '2'
_symmetry_cell_setting 'orthorhombic'
loop_
_space_group_symop_operation_xyz
x,y,z
1/4-x,1/4-y,z
x,1/4-y,1/4-z
1/4-x,y,1/4-z
-x,-y,-z
3/4+x,3/4+y,-z
-x,3/4+y,3/4+z
3/4+x,-y,3/4+z
x,1/2+y,1/2+z
1/4-x,3/4-y,1/2+z
x,3/4-y,3/4-z
1/4-x,1/2+y,3/4-z
-x,1/2-y,1/2-z
3/4+x,1/4+y,1/2-z
-x,1/4+y,1/4+z
3/4+x,1/2-y,1/4+z
1/2+x,y,1/2+z
3/4-x,1/4-y,1/2+z
1/2+x,1/4-y,3/4-z
3/4-x,y,3/4-z
1/2-x,-y,1/2-z
1/4+x,3/4+y,1/2-z
1/2-x,3/4+y,1/4+z
1/4+x,-y,1/4+z
1/2+x,1/2+y,z
3/4-x,3/4-y,z
1/2+x,3/4-y,1/4-z
3/4-x,1/2+y,1/4-z
1/2-x,1/2-y,-z
1/4+x,1/4+y,-z
1/2-x,1/4+y,3/4+z
1/4+x,1/2-y,3/4+z
loop_
_atom_site_type_symbol
_atom_site_label
_atom_site_fract_x
_atom_site_fract_y
_atom_site_fract_z
Si Si1 0.572090 0.051756 0.675142
Si Si2 0.527801 0.508527 0.780177
Si Si3 0.882538 0.801684 0.179428
Si Si4 0.825050 0.183878 0.917906
Si Si5 0.490099 0.125000 0.125000
O O1 0.564737 0.125000 0.625000
O O2 0.625000 0.027472 0.625000
O O3 0.581909 0.054921 0.815951
O O4 0.523513 0.007682 0.654628
O O5 0.577250 0.525358 0.853599
O O6 0.541756 0.447643 0.696272
O O7 0.520215 0.567524 0.687545
O O8 0.875000 0.875000 0.224479
O O9 0.905370 0.751469 0.272759
O O10 0.875000 0.148046 0.875000
O O11 0.794316 0.150869 0.020148
#
# Coordination Sequence:
#
# PCOD9516294 Si02
#       5
#    32  32  32  32  16
#     4  11  24  44  65  96 142 184 229 282 338 421
#     4  11  25  41  72 100 132 180 231 285 343 407
#     4  11  22  45  71  97 134 179 232 280 338 414
#     4  10  24  44  63  99 133 173 227 285 343 407
#     4  12  22  38  69  98 134 170 221 290 342 404
#
# _framework density 23.114642
#
# number of rings (size 3 to 8) (size 9 to 14) (size 15 to 20)
#    0.000    1.111    4.444    2.000    3.111    4.889 
#    8.000    0.000    0.000    0.000    0.000    0.000 
#    0.000    0.000    0.000    0.000    0.000    0.000 
#
# Total GULP energy -201358.712169 kJ/mol
# GULP energy per Si atom -5593.297560 kJ/mol
# Density = 2.306203 g / cm^3
# Si number density = 23.114642 Si / 1000 Ang^3
#
#
#
# Elastic Constant Matrix: (Units=GPa)
#
#
# Indices 1 2 3 4 5 6 
#
# 1 148.3348 32.4064 9.0006 0.0000 0.0000 0.0000
# 2 32.4064 30.2691 -5.7445 0.0000 0.0000 0.0000
# 3 9.0006 -5.7445 48.0505 0.0001 0.0000 0.0000
# 4 0.0000 0.0000 0.0001 73.3925 0.0000 0.0000
# 5 0.0000 0.0000 0.0000 0.0000 39.2681 0.0000
# 6 0.0000 0.0000 0.0000 0.0000 0.0000 28.6608
#
#
#
# Elastic Compliance Matrix: (Units=1/GPa)
#
#
# Indices 1 2 3 4 5 6 
#
# 1 0.009195 -0.010408 -0.002967 0.000000 0.000000 0.000000
# 2 -0.010408 0.045583 0.007399 0.000000 0.000000 0.000000
# 3 -0.002967 0.007399 0.022252 0.000000 0.000000 0.000000
# 4 0.000000 0.000000 0.000000 0.013625 0.000000 0.000000
# 5 0.000000 0.000000 0.000000 0.000000 0.025466 0.000000
# 6 0.000000 0.000000 0.000000 0.000000 0.000000 0.034891
#
#
# Mechanical properties :
#
#
# Convention : Reuss Voigt Hill
#
# Bulk Modulus (GPa) = 15.36567 33.10886 24.23727
# Shear Modulus (GPa) = 27.07735 40.99707 34.03721
#
# Velocity S-wave (km/s) = 3.42634 4.21603 3.84153
# Velocity P-wave (km/s) = 4.72389 6.16885 5.49408
#
# Compressibility (1/GPa) = 0.06508014
#
# Stress axis : x y z
#
# Youngs Moduli (GPa) = 108.75213 21.93777 44.94044
#
# Poissons Ratio (x) = 0.22832 0.13332
# Poissons Ratio (y) = 1.13184 -0.33251
# Poissons Ratio (z) = 0.32263 -0.16232
#
# Static dielectric constant tensor:
#      x y z
#    x 1.891640 0.000000 0.000000 
#    y 0.000000 1.880340 0.000000 
#    z 0.000000 0.000000 1.820640 
# 
# From -- ./inp_files/20638.got.cif
#   From: 2010.05.17/outbox.cif.g08.bks.cpg/sg70_11_cif.got.tgz:20638.got - 2010.06.03 15:57:51.
