data_PCOD9516412
_publ_section_title
;
Structure prediction by ZEFSAII (Michael W. Deem and Ramdas Pophale) SiO2 
 PCOD9516412
Probable space group: F D D D
;
_chemical_formula_sum "Si O2"
_cell_formula_units_Z 136
_cell_length_a 19.358171
_cell_length_b 32.229498
_cell_length_c 10.420408
_cell_angle_alpha 90.000000
_cell_angle_beta 90.000000
_cell_angle_gamma 90.000000
_cell_volume 6501.335624
_symmetry_space_group_name_H-M "F D D D"
_symmetry_group_IT_number 70
_space_group.IT_coordinate_system_code '2'
_symmetry_cell_setting 'orthorhombic'
loop_
_space_group_symop_operation_xyz
x,y,z
1/4-x,1/4-y,z
x,1/4-y,1/4-z
1/4-x,y,1/4-z
-x,-y,-z
3/4+x,3/4+y,-z
-x,3/4+y,3/4+z
3/4+x,-y,3/4+z
x,1/2+y,1/2+z
1/4-x,3/4-y,1/2+z
x,3/4-y,3/4-z
1/4-x,1/2+y,3/4-z
-x,1/2-y,1/2-z
3/4+x,1/4+y,1/2-z
-x,1/4+y,1/4+z
3/4+x,1/2-y,1/4+z
1/2+x,y,1/2+z
3/4-x,1/4-y,1/2+z
1/2+x,1/4-y,3/4-z
3/4-x,y,3/4-z
1/2-x,-y,1/2-z
1/4+x,3/4+y,1/2-z
1/2-x,3/4+y,1/4+z
1/4+x,-y,1/4+z
1/2+x,1/2+y,z
3/4-x,3/4-y,z
1/2+x,3/4-y,1/4-z
3/4-x,1/2+y,1/4-z
1/2-x,1/2-y,-z
1/4+x,1/4+y,-z
1/2-x,1/4+y,3/4+z
1/4+x,1/2-y,3/4+z
loop_
_atom_site_type_symbol
_atom_site_label
_atom_site_fract_x
_atom_site_fract_y
_atom_site_fract_z
Si Si1 0.125000 0.125000 0.625000
Si Si2 0.958090 0.376716 0.524758
Si Si3 0.081054 0.475427 0.844444
Si Si4 0.962993 0.539786 0.447401
Si Si5 0.716189 0.560637 0.785635
O O1 0.170950 0.093829 0.708256
O O2 0.970651 0.375000 0.375000
O O3 0.875000 0.375000 0.542454
O O4 0.991824 0.337308 0.593810
O O5 0.990944 0.419550 0.571295
O O6 0.055813 0.474865 0.696972
O O7 0.154386 0.453954 0.809268
O O8 0.078342 0.521862 0.907222
O O9 0.028089 0.452807 0.941109
O O10 0.000000 0.500000 0.500000
#
# Coordination Sequence:
#
# PCOD9516412 Si02
#       5
#     8  32  32  32  32
#     4  12  24  40  78 100 136 184 234 302 352 436
#     4  11  23  43  69 102 135 183 243 299 356 436
#     4  10  25  44  66 101 145 182 233 299 365 431
#     4  11  23  44  69  99 139 188 234 293 359 431
#     4  11  23  44  69 104 138 184 239 295 362 436
#
# _framework density 20.918776999999999
#
# number of rings (size 3 to 8) (size 9 to 14) (size 15 to 20)
#    0.000    1.176    1.176    4.235    3.294    3.765 
#   10.588    0.000    0.000    0.000    0.000    0.000 
#    0.000    0.000    0.000    0.000    0.000    0.000 
#
# Total GULP energy -189354.880868 kJ/mol
# GULP energy per Si atom -5569.261202 kJ/mol
# Density = 2.087117 g / cm^3
# Si number density = 20.918777 Si / 1000 Ang^3
#
#
#
# Elastic Constant Matrix: (Units=GPa)
#
#
# Indices 1 2 3 4 5 6 
#
# 1 76.8440 46.6389 43.9233 0.0000 0.0000 0.0000
# 2 46.6389 133.1825 44.9768 0.0000 0.0000 0.0000
# 3 43.9233 44.9768 134.7765 0.0000 0.0000 0.0000
# 4 0.0000 0.0000 0.0000 50.8721 0.0000 0.0000
# 5 0.0000 0.0000 0.0000 0.0000 31.7894 0.0000
# 6 0.0000 0.0000 0.0000 0.0000 0.0000 90.5072
#
#
#
# Elastic Compliance Matrix: (Units=1/GPa)
#
#
# Indices 1 2 3 4 5 6 
#
# 1 0.018562 -0.005023 -0.004373 0.000000 0.000000 0.000000
# 2 -0.005023 0.009822 -0.001641 0.000000 0.000000 0.000000
# 3 -0.004373 -0.001641 0.009392 0.000000 0.000000 0.000000
# 4 0.000000 0.000000 0.000000 0.019657 0.000000 0.000000
# 5 0.000000 0.000000 0.000000 0.000000 0.031457 0.000000
# 6 0.000000 0.000000 0.000000 0.000000 0.000000 0.011049
#
#
# Mechanical properties :
#
#
# Convention : Reuss Voigt Hill
#
# Bulk Modulus (GPa) = 63.68554 68.43123 66.05838
# Shear Modulus (GPa) = 39.29399 48.58467 43.93933
#
# Velocity S-wave (km/s) = 4.33876 4.82450 4.58806
# Velocity P-wave (km/s) = 7.45722 7.98863 7.72749
#
# Compressibility (1/GPa) = 0.01570215
#
# Stress axis : x y z
#
# Youngs Moduli (GPa) = 53.87459 101.81626 106.47077
#
# Poissons Ratio (x) = 0.51145 0.46558
# Poissons Ratio (y) = 0.27063 0.17467
# Poissons Ratio (z) = 0.23558 0.16703
#
# Static dielectric constant tensor:
#      x y z
#    x 1.809040 0.000000 0.000000 
#    y 0.000000 1.731210 0.000000 
#    z 0.000000 0.000000 1.827580 
# 
# From -- ./inp_files/17705.got.cif
#   From: 2010.05.17/outbox.cif.g08.bks.cpg/sg70_9_cif.got.tgz:17705.got - 2010.06.03 15:57:51.
