data_PCOD9516672
_publ_section_title
;
Structure prediction by ZEFSAII (Michael W. Deem and Ramdas Pophale) SiO2 
 PCOD9516672
Probable space group: F D D D
;
_chemical_formula_sum "Si O2"
_cell_formula_units_Z 176
_cell_length_a 14.172709
_cell_length_b 22.761363
_cell_length_c 25.145378
_cell_angle_alpha 90.000000
_cell_angle_beta 90.000000
_cell_angle_gamma 90.000000
_cell_volume 8111.651870
_symmetry_space_group_name_H-M "F D D D"
_symmetry_group_IT_number 70
_space_group.IT_coordinate_system_code '2'
_symmetry_cell_setting 'orthorhombic'
loop_
_space_group_symop_operation_xyz
x,y,z
1/4-x,1/4-y,z
x,1/4-y,1/4-z
1/4-x,y,1/4-z
-x,-y,-z
3/4+x,3/4+y,-z
-x,3/4+y,3/4+z
3/4+x,-y,3/4+z
x,1/2+y,1/2+z
1/4-x,3/4-y,1/2+z
x,3/4-y,3/4-z
1/4-x,1/2+y,3/4-z
-x,1/2-y,1/2-z
3/4+x,1/4+y,1/2-z
-x,1/4+y,1/4+z
3/4+x,1/2-y,1/4+z
1/2+x,y,1/2+z
3/4-x,1/4-y,1/2+z
1/2+x,1/4-y,3/4-z
3/4-x,y,3/4-z
1/2-x,-y,1/2-z
1/4+x,3/4+y,1/2-z
1/2-x,3/4+y,1/4+z
1/4+x,-y,1/4+z
1/2+x,1/2+y,z
3/4-x,3/4-y,z
1/2+x,3/4-y,1/4-z
3/4-x,1/2+y,1/4-z
1/2-x,1/2-y,-z
1/4+x,1/4+y,-z
1/2-x,1/4+y,3/4+z
1/4+x,1/2-y,3/4+z
loop_
_atom_site_type_symbol
_atom_site_label
_atom_site_fract_x
_atom_site_fract_y
_atom_site_fract_z
Si Si1 0.773907 0.474411 0.518966
Si Si2 0.334469 0.487501 0.210489
Si Si3 0.132709 0.441293 0.396762
Si Si4 0.289062 0.609680 0.834767
Si Si5 0.125000 0.625000 0.908268
Si Si6 0.073335 0.730578 0.682143
O O1 0.684711 0.498435 0.486715
O O2 0.805532 0.527733 0.557260
O O3 0.740454 0.416660 0.551378
O O4 0.858445 0.456882 0.478449
O O5 0.250000 0.500000 0.250000
O O6 0.338730 0.521919 0.155324
O O7 0.322009 0.420213 0.194727
O O8 0.144920 0.375000 0.375000
O O9 0.026129 0.449756 0.419480
O O10 0.375000 0.623045 0.875000
O O11 0.199493 0.592659 0.871033
O O12 0.310714 0.549865 0.803451
O O13 0.125000 0.729785 0.625000
#
# Coordination Sequence:
#
# PCOD9516672 Si02
#       6
#    32  32  32  32  16  32
#     4  12  26  45  75 105 144 194 233 298 369 426
#     4  12  27  47  73 105 140 189 243 298 363 428
#     4  12  28  49  68 109 149 185 240 301 368 438
#     4  11  22  43  75 102 140 185 243 292 346 438
#     4  12  22  48  72  97 139 182 242 292 342 424
#     4  11  23  48  72 106 145 188 242 296 359 434
#
# _framework density 21.697182999999999
#
# number of rings (size 3 to 8) (size 9 to 14) (size 15 to 20)
#    0.000    0.364    5.455    2.727    5.091    0.364 
#    3.273    0.909    0.000    0.000    0.000    0.000 
#    0.000    0.000    0.000    0.000    0.000    0.000 
#
# Total GULP energy -246026.678565 kJ/mol
# GULP energy per Si atom -5591.515422 kJ/mol
# Density = 2.164780 g / cm^3
# Si number density = 21.697183 Si / 1000 Ang^3
#
#
#
# Elastic Constant Matrix: (Units=GPa)
#
#
# Indices 1 2 3 4 5 6 
#
# 1 53.2323 -22.0303 25.4014 0.0000 0.0000 0.0000
# 2 -22.0303 90.3322 19.1197 0.0000 0.0000 0.0000
# 3 25.4014 19.1197 111.8756 0.0000 0.0000 0.0000
# 4 0.0000 0.0000 0.0000 -4.5498 0.0000 0.0000
# 5 0.0000 0.0000 0.0000 0.0000 35.9338 0.0000
# 6 0.0000 0.0000 0.0000 0.0000 0.0000 23.2663
#
#
#
# Elastic Compliance Matrix: (Units=1/GPa)
#
#
# Indices 1 2 3 4 5 6 
#
# 1 0.025331 0.007673 -0.007063 0.000000 0.000000 0.000000
# 2 0.007673 0.013810 -0.004102 0.000000 0.000000 0.000000
# 3 -0.007063 -0.004102 0.011243 0.000000 0.000000 0.000000
# 4 0.000000 0.000000 0.000000 -0.219790 0.000000 0.000000
# 5 0.000000 0.000000 0.000000 0.000000 0.027829 0.000000
# 6 0.000000 0.000000 0.000000 0.000000 0.000000 0.042981
#
#
# Mechanical properties :
#
#
# Convention : Reuss Voigt Hill
#
# Bulk Modulus (GPa) = 23.04172 33.38019 28.21096
# Shear Modulus (GPa) = -64.81278 26.46001 -19.17639
#
# Velocity S-wave (km/s) = -5.47141 3.49594 -2.97613
# Velocity P-wave (km/s) = 5.41040 5.63147 1.10477
#
# Compressibility (1/GPa) = 0.04339953
#
# Stress axis : x y z
#
# Youngs Moduli (GPa) = 39.47714 72.41275 88.94296
#
# Poissons Ratio (x) = -0.55560 0.62818
# Poissons Ratio (y) = -0.30289 0.36486
# Poissons Ratio (z) = 0.27882 0.29705
#
# Static dielectric constant tensor:
#      x y z
#    x 1.778380 0.000000 0.000000 
#    y 0.000000 1.832740 0.000000 
#    z 0.000000 0.000000 1.815880 
# 
# From -- ./inp_files/51208.got.cif
#   From: 2010.05.17/outbox.cif.g08.bks.cpg/sg70_26_cif.got.tgz:51208.got - 2010.06.03 15:57:51.
