data_PCOD9516367
_publ_section_title
;
Structure prediction by ZEFSAII (Michael W. Deem and Ramdas Pophale) SiO2 
 PCOD9516367
Probable space group: F D D D
;
_chemical_formula_sum "Si O2"
_cell_formula_units_Z 104
_cell_length_a 27.615875
_cell_length_b 18.382440
_cell_length_c 7.839358
_cell_angle_alpha 90.000000
_cell_angle_beta 90.000000
_cell_angle_gamma 90.000000
_cell_volume 3979.627866
_symmetry_space_group_name_H-M "F D D D"
_symmetry_group_IT_number 70
_space_group.IT_coordinate_system_code '2'
_symmetry_cell_setting 'orthorhombic'
loop_
_space_group_symop_operation_xyz
x,y,z
1/4-x,1/4-y,z
x,1/4-y,1/4-z
1/4-x,y,1/4-z
-x,-y,-z
3/4+x,3/4+y,-z
-x,3/4+y,3/4+z
3/4+x,-y,3/4+z
x,1/2+y,1/2+z
1/4-x,3/4-y,1/2+z
x,3/4-y,3/4-z
1/4-x,1/2+y,3/4-z
-x,1/2-y,1/2-z
3/4+x,1/4+y,1/2-z
-x,1/4+y,1/4+z
3/4+x,1/2-y,1/4+z
1/2+x,y,1/2+z
3/4-x,1/4-y,1/2+z
1/2+x,1/4-y,3/4-z
3/4-x,y,3/4-z
1/2-x,-y,1/2-z
1/4+x,3/4+y,1/2-z
1/2-x,3/4+y,1/4+z
1/4+x,-y,1/4+z
1/2+x,1/2+y,z
3/4-x,3/4-y,z
1/2+x,3/4-y,1/4-z
3/4-x,1/2+y,1/4-z
1/2-x,1/2-y,-z
1/4+x,1/4+y,-z
1/2-x,1/4+y,3/4+z
1/4+x,1/2-y,3/4+z
loop_
_atom_site_type_symbol
_atom_site_label
_atom_site_fract_x
_atom_site_fract_y
_atom_site_fract_z
Si Si1 0.356394 0.240192 0.113263
Si Si2 0.226798 0.452487 0.102066
Si Si3 0.202655 0.797458 0.693476
Si Si4 0.375000 0.375000 0.875000
O O1 0.325865 0.229823 0.285304
O O2 0.327838 0.191655 0.978161
O O3 0.411907 0.213967 0.091224
O O4 0.352749 0.318150 0.014400
O O5 0.250000 0.500000 0.250000
O O6 0.231527 0.372236 0.180091
O O7 0.263243 0.476482 0.948794
#
# Coordination Sequence:
#
# PCOD9516367 Si02
#       4
#    32  32  32   8
#     4  10  24  47  80 105 161 212 270 318 425 484
#     4  12  26  44  75 115 159 203 266 337 404 488
#     4  10  25  46  72 111 152 213 266 326 403 486
#     4   8  20  44  80 118 144 220 276 332 396 476
#
# _framework density 26.133095999999998
#
# number of rings (size 3 to 8) (size 9 to 14) (size 15 to 20)
#    0.000    1.846    0.000    2.769    8.615   11.077 
#    0.000    0.000    0.000    0.000    0.000    0.000 
#    0.000    0.000    0.000    0.000    0.000    0.000 
#
# Total GULP energy -144863.753398 kJ/mol
# GULP energy per Si atom -5571.682823 kJ/mol
# Density = 2.607362 g / cm^3
# Si number density = 26.133096 Si / 1000 Ang^3
#
#
#
# Elastic Constant Matrix: (Units=GPa)
#
#
# Indices 1 2 3 4 5 6 
#
# 1 161.9467 38.8572 40.9439 0.0000 0.0000 0.0000
# 2 38.8572 155.7794 27.0787 -0.0003 0.0000 0.0000
# 3 40.9439 27.0787 139.5333 -0.0009 0.0000 0.0001
# 4 0.0000 -0.0003 -0.0009 41.3940 0.0000 0.0000
# 5 0.0000 0.0000 0.0000 0.0000 63.0666 0.0000
# 6 0.0000 0.0000 0.0001 0.0000 0.0000 22.3326
#
#
#
# Elastic Compliance Matrix: (Units=1/GPa)
#
#
# Indices 1 2 3 4 5 6 
#
# 1 0.006965 -0.001430 -0.001766 0.000000 0.000000 0.000000
# 2 -0.001430 0.006937 -0.000927 0.000000 0.000000 0.000000
# 3 -0.001766 -0.000927 0.007865 0.000000 0.000000 0.000000
# 4 0.000000 0.000000 0.000000 0.024158 0.000000 0.000000
# 5 0.000000 0.000000 0.000000 0.000000 0.015856 0.000000
# 6 0.000000 0.000000 0.000000 0.000000 0.000000 0.044778
#
#
# Mechanical properties :
#
#
# Convention : Reuss Voigt Hill
#
# Bulk Modulus (GPa) = 73.96064 74.55766 74.25915
# Shear Modulus (GPa) = 41.90724 48.71730 45.31227
#
# Velocity S-wave (km/s) = 4.00885 4.32232 4.16853
# Velocity P-wave (km/s) = 7.05626 7.31450 7.18654
#
# Compressibility (1/GPa) = 0.01352071
#
# Stress axis : x y z
#
# Youngs Moduli (GPa) = 143.58447 144.15137 127.14891
#
# Poissons Ratio (x) = 0.20617 0.22455
# Poissons Ratio (y) = 0.20536 0.11781
# Poissons Ratio (z) = 0.25358 0.13357
#
# Static dielectric constant tensor:
#      x y z
#    x 2.262360 0.000000 0.000000 
#    y 0.000000 2.152810 0.000000 
#    z 0.000000 0.000000 2.759800 
# 
# From -- ./inp_files/10391.got.cif
#   From: 2010.05.17/outbox.cif.g08.bks.cpg/sg70_6_cif.got.tgz:10391.got - 2010.06.03 15:57:51.
