data_PCOD9516851
_publ_section_title
;
Structure prediction by ZEFSAII (Michael W. Deem and Ramdas Pophale) SiO2 
 PCOD9516851
Probable space group: F D D D
;
_chemical_formula_sum "Si O2"
_cell_formula_units_Z 160
_cell_length_a 26.841343
_cell_length_b 28.120946
_cell_length_c 9.596117
_cell_angle_alpha 90.000000
_cell_angle_beta 90.000000
_cell_angle_gamma 90.000000
_cell_volume 7243.187084
_symmetry_space_group_name_H-M "F D D D"
_symmetry_group_IT_number 70
_space_group.IT_coordinate_system_code '2'
_symmetry_cell_setting 'orthorhombic'
loop_
_space_group_symop_operation_xyz
x,y,z
1/4-x,1/4-y,z
x,1/4-y,1/4-z
1/4-x,y,1/4-z
-x,-y,-z
3/4+x,3/4+y,-z
-x,3/4+y,3/4+z
3/4+x,-y,3/4+z
x,1/2+y,1/2+z
1/4-x,3/4-y,1/2+z
x,3/4-y,3/4-z
1/4-x,1/2+y,3/4-z
-x,1/2-y,1/2-z
3/4+x,1/4+y,1/2-z
-x,1/4+y,1/4+z
3/4+x,1/2-y,1/4+z
1/2+x,y,1/2+z
3/4-x,1/4-y,1/2+z
1/2+x,1/4-y,3/4-z
3/4-x,y,3/4-z
1/2-x,-y,1/2-z
1/4+x,3/4+y,1/2-z
1/2-x,3/4+y,1/4+z
1/4+x,-y,1/4+z
1/2+x,1/2+y,z
3/4-x,3/4-y,z
1/2+x,3/4-y,1/4-z
3/4-x,1/2+y,1/4-z
1/2-x,1/2-y,-z
1/4+x,1/4+y,-z
1/2-x,1/4+y,3/4+z
1/4+x,1/2-y,3/4+z
loop_
_atom_site_type_symbol
_atom_site_label
_atom_site_fract_x
_atom_site_fract_y
_atom_site_fract_z
Si Si1 0.019061 0.125000 0.125000
Si Si2 0.296854 0.473775 0.426823
Si Si3 0.183724 0.119744 0.410179
Si Si4 0.541907 0.283634 0.820100
Si Si5 0.058188 0.227141 0.873226
Si Si6 0.375000 0.739172 0.375000
O O1 0.982747 0.079722 0.138659
O O2 0.053377 0.143702 0.251436
O O3 0.298765 0.419147 0.478565
O O4 0.316236 0.503097 0.557888
O O5 0.239455 0.490490 0.407656
O O6 0.324699 0.487987 0.284854
O O7 0.125000 0.125000 0.430744
O O8 0.207227 0.172357 0.407093
O O9 0.500000 0.250000 0.750000
O O10 0.583328 0.292008 0.702938
O O11 0.096057 0.231066 0.003526
#
# Coordination Sequence:
#
# PCOD9516851 Si02
#       6
#    16  32  32  32  32  16
#     4  12  23  42  68 102 136 186 232 292 365 422
#     4  11  24  45  67 101 148 184 230 301 375 424
#     4  12  24  38  71 107 142 176 240 299 353 441
#     4  12  23  44  69 100 138 187 234 302 356 434
#     4  11  25  43  70 105 140 191 233 299 372 435
#     4  12  24  44  71  98 142 186 248 294 363 442
#
# _framework density 22.089724
#
# number of rings (size 3 to 8) (size 9 to 14) (size 15 to 20)
#    0.000    0.400    6.000    2.100    2.800    4.000 
#    0.000    2.000    4.400    0.000    0.000    0.000 
#    0.000    0.000    0.000    0.000    0.000    0.000 
#
# Total GULP energy -223201.325776 kJ/mol
# GULP energy per Si atom -5580.033144 kJ/mol
# Density = 2.203945 g / cm^3
# Si number density = 22.089724 Si / 1000 Ang^3
#
#
#
# Elastic Constant Matrix: (Units=GPa)
#
#
# Indices 1 2 3 4 5 6 
#
# 1 116.0457 58.0706 65.0458 -0.0004 0.0005 0.0004
# 2 58.0706 133.3357 37.8380 -0.0018 0.0010 0.0010
# 3 65.0458 37.8380 181.3230 -0.0033 0.0022 0.0022
# 4 -0.0004 -0.0018 -0.0033 35.4963 0.0014 0.0016
# 5 0.0005 0.0010 0.0022 0.0014 38.3359 -0.0011
# 6 0.0004 0.0010 0.0022 0.0016 -0.0011 16.4151
#
#
#
# Elastic Compliance Matrix: (Units=1/GPa)
#
#
# Indices 1 2 3 4 5 6 
#
# 1 0.012999 -0.004611 -0.003701 0.000000 0.000000 0.000000
# 2 -0.004611 0.009608 -0.000351 0.000000 0.000000 0.000000
# 3 -0.003701 -0.000351 0.006916 0.000001 0.000000 -0.000001
# 4 0.000000 0.000000 0.000001 0.028172 -0.000001 -0.000003
# 5 0.000000 0.000000 0.000000 -0.000001 0.026085 0.000002
# 6 0.000000 0.000000 -0.000001 -0.000003 0.000002 0.060920
#
#
# Mechanical properties :
#
#
# Convention : Reuss Voigt Hill
#
# Bulk Modulus (GPa) = 81.98739 83.62370 82.80554
# Shear Modulus (GPa) = 30.10396 36.03277 33.06836
#
# Velocity S-wave (km/s) = 3.69562 4.04319 3.87331
# Velocity P-wave (km/s) = 7.44354 7.72885 7.58754
#
# Compressibility (1/GPa) = 0.01219700
#
# Stress axis : x y z
#
# Youngs Moduli (GPa) = 76.92753 104.08340 144.59538
#
# Poissons Ratio (x) = 0.47995 0.53514
# Poissons Ratio (y) = 0.35473 0.05071
# Poissons Ratio (z) = 0.28471 0.03651
#
# Static dielectric constant tensor:
#      x y z
#    x 1.833480 0.000000 0.000000 
#    y 0.000000 1.861830 0.000000 
#    z 0.000000 0.000000 2.016260 
# 
# From -- ./inp_files/12373.got.cif
#   From: 2010.05.17/outbox.cif.g08.bks.cpg/sg70_7_cif.got.tgz:12373.got - 2010.06.03 15:57:51.
