data_PCOD9516978
_publ_section_title
;
Structure prediction by ZEFSAII (Michael W. Deem and Ramdas Pophale) SiO2 
 PCOD9516978
Probable space group: F D D D
;
_chemical_formula_sum "Si O2"
_cell_formula_units_Z 192
_cell_length_a 15.505763
_cell_length_b 33.076855
_cell_length_c 18.233531
_cell_angle_alpha 90.000000
_cell_angle_beta 90.000000
_cell_angle_gamma 90.000000
_cell_volume 9351.647556
_symmetry_space_group_name_H-M "F D D D"
_symmetry_group_IT_number 70
_space_group.IT_coordinate_system_code '2'
_symmetry_cell_setting 'orthorhombic'
loop_
_space_group_symop_operation_xyz
x,y,z
1/4-x,1/4-y,z
x,1/4-y,1/4-z
1/4-x,y,1/4-z
-x,-y,-z
3/4+x,3/4+y,-z
-x,3/4+y,3/4+z
3/4+x,-y,3/4+z
x,1/2+y,1/2+z
1/4-x,3/4-y,1/2+z
x,3/4-y,3/4-z
1/4-x,1/2+y,3/4-z
-x,1/2-y,1/2-z
3/4+x,1/4+y,1/2-z
-x,1/4+y,1/4+z
3/4+x,1/2-y,1/4+z
1/2+x,y,1/2+z
3/4-x,1/4-y,1/2+z
1/2+x,1/4-y,3/4-z
3/4-x,y,3/4-z
1/2-x,-y,1/2-z
1/4+x,3/4+y,1/2-z
1/2-x,3/4+y,1/4+z
1/4+x,-y,1/4+z
1/2+x,1/2+y,z
3/4-x,3/4-y,z
1/2+x,3/4-y,1/4-z
3/4-x,1/2+y,1/4-z
1/2-x,1/2-y,-z
1/4+x,1/4+y,-z
1/2-x,1/4+y,3/4+z
1/4+x,1/2-y,3/4+z
loop_
_atom_site_type_symbol
_atom_site_label
_atom_site_fract_x
_atom_site_fract_y
_atom_site_fract_z
Si Si1 0.796042 0.939824 0.262644
Si Si2 0.351342 0.242024 0.004177
Si Si3 0.875000 0.071550 0.875000
Si Si4 0.524149 0.112696 0.878850
Si Si5 0.975782 0.935111 0.772068
Si Si6 0.637145 0.987192 0.322928
Si Si7 0.125000 0.125000 0.125000
Si Si8 0.875000 0.375000 0.875000
O O1 0.750120 0.914933 0.198005
O O2 0.730065 0.968477 0.305113
O O3 0.828509 0.906223 0.319603
O O4 0.863867 0.969511 0.220039
O O5 0.375643 0.238429 0.089717
O O6 0.250000 0.250000 0.000000
O O7 0.374027 0.205713 0.948585
O O8 0.403027 0.280754 0.977239
O O9 0.789666 0.099361 0.874566
O O10 0.625000 0.125000 0.886716
O O11 0.515651 0.085786 0.806544
O O12 0.939329 0.901592 0.826447
O O13 0.063703 0.957303 0.793539
#
# Coordination Sequence:
#
# PCOD9516978 Si02
#       8
#    32  32  16  32  32  32   8   8
#     4  11  27  48  70 108 144 190 243 294 371 432
#     4  12  26  48  73 110 143 195 241 307 366 452
#     4  12  29  42  77 109 146 194 260 293 381 448
#     4  12  25  48  70 104 149 194 239 316 369 437
#     4  12  26  45  74 101 150 188 242 296 376 427
#     4  11  27  46  74 103 146 193 239 297 361 454
#     4  12  26  44  68 116 140 194 240 316 354 442
#     4  12  28  40  82 104 144 178 244 304 356 426
#
# _framework density 20.531143
#
# number of rings (size 3 to 8) (size 9 to 14) (size 15 to 20)
#    0.000    0.333    3.333    4.500    9.333    0.667 
#    0.000    0.000    0.000    0.000    0.000    0.000 
#    0.000    0.000    0.000    0.000    0.000    0.000 
#
# Total GULP energy -268443.539929 kJ/mol
# GULP energy per Si atom -5592.573749 kJ/mol
# Density = 2.048441 g / cm^3
# Si number density = 20.531143 Si / 1000 Ang^3
#
#
#
# Elastic Constant Matrix: (Units=GPa)
#
#
# Indices 1 2 3 4 5 6 
#
# 1 87.3268 44.0650 27.3286 0.0000 0.0000 0.0000
# 2 44.0650 129.1142 60.1860 0.0000 0.0000 0.0000
# 3 27.3286 60.1860 145.8279 0.0000 0.0000 0.0000
# 4 0.0000 0.0000 0.0000 5.9326 0.0000 0.0000
# 5 0.0000 0.0000 0.0000 0.0000 25.9215 0.0000
# 6 0.0000 0.0000 0.0000 0.0000 0.0000 234.3690
#
#
#
# Elastic Compliance Matrix: (Units=1/GPa)
#
#
# Indices 1 2 3 4 5 6 
#
# 1 0.013909 -0.004373 -0.000802 0.000000 0.000000 0.000000
# 2 -0.004373 0.010965 -0.003706 0.000000 0.000000 0.000000
# 3 -0.000802 -0.003706 0.008537 0.000000 0.000000 0.000000
# 4 0.000000 0.000000 0.000000 0.168560 0.000000 0.000000
# 5 0.000000 0.000000 0.000000 0.000000 0.038578 0.000000
# 6 0.000000 0.000000 0.000000 0.000000 0.000000 0.004267
#
#
# Mechanical properties :
#
#
# Convention : Reuss Voigt Hill
#
# Bulk Modulus (GPa) = 63.90005 69.49204 66.69604
# Shear Modulus (GPa) = 18.67108 68.62390 43.64749
#
# Velocity S-wave (km/s) = 3.01890 5.78765 4.61577
# Velocity P-wave (km/s) = 6.58352 8.86471 7.80788
#
# Compressibility (1/GPa) = 0.01564944
#
# Stress axis : x y z
#
# Youngs Moduli (GPa) = 71.89676 91.19823 117.13508
#
# Poissons Ratio (x) = 0.39883 0.09390
# Poissons Ratio (y) = 0.31442 0.43410
# Poissons Ratio (z) = 0.05764 0.33798
#
# Static dielectric constant tensor:
#      x y z
#    x 1.703850 0.000000 0.000000 
#    y 0.000000 1.645500 0.000000 
#    z 0.000000 0.000000 1.749170 
# 
# From -- ./inp_files/35549.got.cif
#   From: 2010.05.17/outbox.cif.g08.bks.cpg/sg70_18_cif.got.tgz:35549.got - 2010.06.03 15:57:51.
