data_PCOD9516322
_publ_section_title
;
Structure prediction by ZEFSAII (Michael W. Deem and Ramdas Pophale) SiO2 
 PCOD9516322
Probable space group: F D D D
;
_chemical_formula_sum "Si O2"
_cell_formula_units_Z 160
_cell_length_a 17.507680
_cell_length_b 18.848290
_cell_length_c 20.880030
_cell_angle_alpha 90.000000
_cell_angle_beta 90.000000
_cell_angle_gamma 90.000000
_cell_volume 6890.197547
_symmetry_space_group_name_H-M "F D D D"
_symmetry_group_IT_number 70
_space_group.IT_coordinate_system_code '2'
_symmetry_cell_setting 'orthorhombic'
loop_
_space_group_symop_operation_xyz
x,y,z
1/4-x,1/4-y,z
x,1/4-y,1/4-z
1/4-x,y,1/4-z
-x,-y,-z
3/4+x,3/4+y,-z
-x,3/4+y,3/4+z
3/4+x,-y,3/4+z
x,1/2+y,1/2+z
1/4-x,3/4-y,1/2+z
x,3/4-y,3/4-z
1/4-x,1/2+y,3/4-z
-x,1/2-y,1/2-z
3/4+x,1/4+y,1/2-z
-x,1/4+y,1/4+z
3/4+x,1/2-y,1/4+z
1/2+x,y,1/2+z
3/4-x,1/4-y,1/2+z
1/2+x,1/4-y,3/4-z
3/4-x,y,3/4-z
1/2-x,-y,1/2-z
1/4+x,3/4+y,1/2-z
1/2-x,3/4+y,1/4+z
1/4+x,-y,1/4+z
1/2+x,1/2+y,z
3/4-x,3/4-y,z
1/2+x,3/4-y,1/4-z
3/4-x,1/2+y,1/4-z
1/2-x,1/2-y,-z
1/4+x,1/4+y,-z
1/2-x,1/4+y,3/4+z
1/4+x,1/2-y,3/4+z
loop_
_atom_site_type_symbol
_atom_site_label
_atom_site_fract_x
_atom_site_fract_y
_atom_site_fract_z
Si Si1 0.737479 0.875000 0.875000
Si Si2 0.120891 0.343592 0.987065
Si Si3 0.275642 0.975261 0.942151
Si Si4 0.476169 0.700679 0.808980
Si Si5 0.667899 0.698286 0.216602
Si Si6 0.625000 0.125000 0.276229
O O1 0.686211 0.893370 0.814174
O O2 0.791910 0.811294 0.852034
O O3 0.042894 0.332512 0.945594
O O4 0.096321 0.403729 0.037439
O O5 0.131524 0.268912 0.023599
O O6 0.461916 0.002924 0.878555
O O7 0.344029 0.937956 0.980412
O O8 0.237003 0.037968 0.983516
O O9 0.500000 0.750000 0.750000
O O10 0.551746 0.650668 0.816964
O O11 0.625000 0.625000 0.230141
#
# Coordination Sequence:
#
# PCOD9516322 Si02
#       6
#    16  32  32  32  32  16
#     4  12  23  48  76  93 150 188 232 310 372 435
#     4   9  24  41  68 112 137 187 243 294 377 438
#     4   9  23  42  68 106 142 189 241 302 362 456
#     4  11  23  39  70 104 149 189 238 304 372 454
#     4  10  25  46  72 107 136 192 247 303 368 439
#     4  10  24  45  68 106 146 197 236 302 386 433
#
# _framework density 23.221395999999999
#
# number of rings (size 3 to 8) (size 9 to 14) (size 15 to 20)
#    1.200    0.800    0.000    1.500    7.000    6.400 
#    0.000    2.000    0.000    0.000    0.000    0.000 
#    0.000    0.000    0.000    0.000    0.000    0.000 
#
# Total GULP energy -223452.450327 kJ/mol
# GULP energy per Si atom -5586.311258 kJ/mol
# Density = 2.316854 g / cm^3
# Si number density = 23.221396 Si / 1000 Ang^3
#
#
#
# Elastic Constant Matrix: (Units=GPa)
#
#
# Indices 1 2 3 4 5 6 
#
# 1 103.7453 13.3921 14.1298 0.0000 0.0000 0.0000
# 2 13.3921 89.4818 14.5976 0.0000 0.0000 0.0000
# 3 14.1298 14.5976 81.0078 0.0000 0.0000 0.0000
# 4 0.0000 0.0000 0.0000 50.8420 0.0000 0.0000
# 5 0.0000 0.0000 0.0000 0.0000 22.6525 0.0000
# 6 0.0000 0.0000 0.0000 0.0000 0.0000 42.3910
#
#
#
# Elastic Compliance Matrix: (Units=1/GPa)
#
#
# Indices 1 2 3 4 5 6 
#
# 1 0.010007 -0.001250 -0.001520 0.000000 0.000000 0.000000
# 2 -0.001250 0.011670 -0.001885 0.000000 0.000000 0.000000
# 3 -0.001520 -0.001885 0.012949 0.000000 0.000000 0.000000
# 4 0.000000 0.000000 0.000000 0.019669 0.000000 0.000000
# 5 0.000000 0.000000 0.000000 0.000000 0.044145 0.000000
# 6 0.000000 0.000000 0.000000 0.000000 0.000000 0.023590
#
#
# Mechanical properties :
#
#
# Convention : Reuss Voigt Hill
#
# Bulk Modulus (GPa) = 39.49961 39.83043 39.66502
# Shear Modulus (GPa) = 35.77063 38.65147 37.21105
#
# Velocity S-wave (km/s) = 3.92907 4.08423 4.00740
# Velocity P-wave (km/s) = 6.13436 6.27940 6.20731
#
# Compressibility (1/GPa) = 0.02531671
#
# Stress axis : x y z
#
# Youngs Moduli (GPa) = 99.92626 85.68980 77.22401
#
# Poissons Ratio (x) = 0.10709 0.11741
# Poissons Ratio (y) = 0.12488 0.14556
# Poissons Ratio (z) = 0.15192 0.16152
#
# Static dielectric constant tensor:
#      x y z
#    x 1.961450 0.000000 0.000000 
#    y 0.000000 1.910070 0.000000 
#    z 0.000000 0.000000 1.820630 
# 
# From -- ./inp_files/59544.got.cif
#   From: 2010.05.17/outbox.cif.g08.bks.cpg/sg70_30_cif.got.tgz:59544.got - 2010.06.03 15:57:51.
