data_PCOD9516497
_publ_section_title
;
Structure prediction by ZEFSAII (Michael W. Deem and Ramdas Pophale) SiO2 
 PCOD9516497
Probable space group: F D D D
;
_chemical_formula_sum "Si O2"
_cell_formula_units_Z 240
_cell_length_a 18.539100
_cell_length_b 21.430293
_cell_length_c 25.697515
_cell_angle_alpha 90.000000
_cell_angle_beta 90.000000
_cell_angle_gamma 90.000000
_cell_volume 10209.580179
_symmetry_space_group_name_H-M "F D D D"
_symmetry_group_IT_number 70
_space_group.IT_coordinate_system_code '2'
_symmetry_cell_setting 'orthorhombic'
loop_
_space_group_symop_operation_xyz
x,y,z
1/4-x,1/4-y,z
x,1/4-y,1/4-z
1/4-x,y,1/4-z
-x,-y,-z
3/4+x,3/4+y,-z
-x,3/4+y,3/4+z
3/4+x,-y,3/4+z
x,1/2+y,1/2+z
1/4-x,3/4-y,1/2+z
x,3/4-y,3/4-z
1/4-x,1/2+y,3/4-z
-x,1/2-y,1/2-z
3/4+x,1/4+y,1/2-z
-x,1/4+y,1/4+z
3/4+x,1/2-y,1/4+z
1/2+x,y,1/2+z
3/4-x,1/4-y,1/2+z
1/2+x,1/4-y,3/4-z
3/4-x,y,3/4-z
1/2-x,-y,1/2-z
1/4+x,3/4+y,1/2-z
1/2-x,3/4+y,1/4+z
1/4+x,-y,1/4+z
1/2+x,1/2+y,z
3/4-x,3/4-y,z
1/2+x,3/4-y,1/4-z
3/4-x,1/2+y,1/4-z
1/2-x,1/2-y,-z
1/4+x,1/4+y,-z
1/2-x,1/4+y,3/4+z
1/4+x,1/2-y,3/4+z
loop_
_atom_site_type_symbol
_atom_site_label
_atom_site_fract_x
_atom_site_fract_y
_atom_site_fract_z
Si Si1 0.692135 0.407671 0.430261
Si Si2 0.392256 0.180639 0.993378
Si Si3 0.355932 0.962230 0.798444
Si Si4 0.495563 0.393690 0.320709
Si Si5 0.124993 0.532177 0.322328
Si Si6 0.352198 0.304184 0.814362
Si Si7 0.125000 0.820936 0.125000
Si Si8 0.499465 0.878258 0.654545
O O1 0.706819 0.375000 0.375000
O O2 0.667143 0.362376 0.477307
O O3 0.630816 0.459105 0.419990
O O4 0.765784 0.444553 0.442769
O O5 0.450916 0.186908 0.039379
O O6 0.367740 0.246773 0.969800
O O7 0.443321 0.148106 0.949493
O O8 0.421355 0.930270 0.829566
O O9 0.283520 0.920891 0.795672
O O10 0.384415 0.961245 0.739736
O O11 0.349066 0.027522 0.827343
O O12 0.527836 0.375000 0.375000
O O13 0.197835 0.568774 0.335727
O O14 0.058396 0.566529 0.350804
O O15 0.375000 0.294509 0.875000
O O16 0.375000 0.375000 0.800277
O O17 0.194512 0.861550 0.140966
#
# Coordination Sequence:
#
# PCOD9516497 Si02
#       8
#    32  32  32  32  32  32  16  32
#     4  12  26  47  77 114 141 200 256 308 379 472
#     4  12  25  42  77 116 147 188 256 310 379 464
#     4  11  19  38  64  99 145 192 244 282 363 454
#     4  11  19  36  65 102 150 199 229 287 362 457
#     4  11  23  47  72  99 152 200 254 301 386 444
#     4  11  25  54  86 103 147 199 256 328 392 443
#     4  12  26  33  62 112 143 188 256 298 370 450
#     4  11  24  43  69 104 150 199 239 313 371 455
#
# _framework density 23.507332000000002
#
# number of rings (size 3 to 8) (size 9 to 14) (size 15 to 20)
#    0.000    0.667    6.667    2.400    2.800    2.667 
#    0.000    0.000    5.867    0.000    0.000    0.000 
#    0.000    0.000    0.000    0.000    0.000    0.000 
#
# Total GULP energy -335090.014711 kJ/mol
# GULP energy per Si atom -5584.833579 kJ/mol
# Density = 2.345383 g / cm^3
# Si number density = 23.507332 Si / 1000 Ang^3
#
#
#
# Elastic Constant Matrix: (Units=GPa)
#
#
# Indices 1 2 3 4 5 6 
#
# 1 116.1186 33.4558 18.4113 0.0000 0.0000 0.0000
# 2 33.4558 135.4141 35.2409 0.0000 0.0000 0.0000
# 3 18.4113 35.2409 43.2178 0.0000 0.0000 0.0000
# 4 0.0000 0.0000 0.0000 20.3672 0.0000 0.0000
# 5 0.0000 0.0000 0.0000 0.0000 33.7717 0.0000
# 6 0.0000 0.0000 0.0000 0.0000 0.0000 33.0236
#
#
#
# Elastic Compliance Matrix: (Units=1/GPa)
#
#
# Indices 1 2 3 4 5 6 
#
# 1 0.009516 -0.001645 -0.002712 0.000000 0.000000 0.000000
# 2 -0.001645 0.009658 -0.007175 0.000000 0.000000 0.000000
# 3 -0.002712 -0.007175 0.030145 0.000000 0.000000 0.000000
# 4 0.000000 0.000000 0.000000 0.049098 0.000000 0.000000
# 5 0.000000 0.000000 0.000000 0.000000 0.029611 0.000000
# 6 0.000000 0.000000 0.000000 0.000000 0.000000 0.030281
#
#
# Mechanical properties :
#
#
# Convention : Reuss Voigt Hill
#
# Bulk Modulus (GPa) = 38.08913 52.10739 45.09826
# Shear Modulus (GPa) = 26.29838 31.27536 28.78687
#
# Velocity S-wave (km/s) = 3.34837 3.65149 3.50321
# Velocity P-wave (km/s) = 5.58454 6.32396 5.96571
#
# Compressibility (1/GPa) = 0.02625421
#
# Stress axis : x y z
#
# Youngs Moduli (GPa) = 105.08672 103.53638 33.17331
#
# Poissons Ratio (x) = 0.17033 0.08998
# Poissons Ratio (y) = 0.17288 0.23801
# Poissons Ratio (z) = 0.28504 0.74286
#
# Static dielectric constant tensor:
#      x y z
#    x 1.924810 0.000000 0.000000 
#    y 0.000000 2.036820 0.000000 
#    z 0.000000 0.000000 1.989270 
# 
# From -- ./inp_files/60549.got.cif
#   From: 2010.05.17/outbox.cif.g08.bks.cpg/sg70_31_cif.got.tgz:60549.got - 2010.06.03 15:57:51.
