data_PCOD9516600
_publ_section_title
;
Structure prediction by ZEFSAII (Michael W. Deem and Ramdas Pophale) SiO2 
 PCOD9516600
Probable space group: F D D D
;
_chemical_formula_sum "Si O2"
_cell_formula_units_Z 192
_cell_length_a 18.337587
_cell_length_b 20.390094
_cell_length_c 20.518635
_cell_angle_alpha 90.000000
_cell_angle_beta 90.000000
_cell_angle_gamma 90.000000
_cell_volume 7672.022737
_symmetry_space_group_name_H-M "F D D D"
_symmetry_group_IT_number 70
_space_group.IT_coordinate_system_code '2'
_symmetry_cell_setting 'orthorhombic'
loop_
_space_group_symop_operation_xyz
x,y,z
1/4-x,1/4-y,z
x,1/4-y,1/4-z
1/4-x,y,1/4-z
-x,-y,-z
3/4+x,3/4+y,-z
-x,3/4+y,3/4+z
3/4+x,-y,3/4+z
x,1/2+y,1/2+z
1/4-x,3/4-y,1/2+z
x,3/4-y,3/4-z
1/4-x,1/2+y,3/4-z
-x,1/2-y,1/2-z
3/4+x,1/4+y,1/2-z
-x,1/4+y,1/4+z
3/4+x,1/2-y,1/4+z
1/2+x,y,1/2+z
3/4-x,1/4-y,1/2+z
1/2+x,1/4-y,3/4-z
3/4-x,y,3/4-z
1/2-x,-y,1/2-z
1/4+x,3/4+y,1/2-z
1/2-x,3/4+y,1/4+z
1/4+x,-y,1/4+z
1/2+x,1/2+y,z
3/4-x,3/4-y,z
1/2+x,3/4-y,1/4-z
3/4-x,1/2+y,1/4-z
1/2-x,1/2-y,-z
1/4+x,1/4+y,-z
1/2-x,1/4+y,3/4+z
1/4+x,1/2-y,3/4+z
loop_
_atom_site_type_symbol
_atom_site_label
_atom_site_fract_x
_atom_site_fract_y
_atom_site_fract_z
Si Si1 0.785826 0.614704 0.799444
Si Si2 0.125000 0.125000 0.794444
Si Si3 0.030772 0.375000 0.375000
Si Si4 0.823116 0.934276 0.767538
Si Si5 0.015139 0.813921 0.423209
Si Si6 0.649317 0.241683 0.386996
Si Si7 0.125000 0.464226 0.625000
Si Si8 0.625000 0.995108 0.125000
O O1 0.703891 0.597491 0.772387
O O2 0.807090 0.658211 0.736704
O O3 0.808029 0.665779 0.857539
O O4 0.828955 0.550465 0.824318
O O5 0.156113 0.184690 0.836018
O O6 0.075776 0.310597 0.391659
O O7 0.984339 0.353744 0.312450
O O8 0.875000 0.875000 0.744270
O O9 0.806026 0.973477 0.701883
O O10 0.860755 0.986264 0.815685
O O11 0.017634 0.875000 0.375000
O O12 0.064312 0.751651 0.403764
O O13 0.931440 0.788444 0.418600
#
# Coordination Sequence:
#
# PCOD9516600 Si02
#       8
#    32  16  16  32  32  32  16  16
#     4  11  27  47  79 110 153 207 263 326 399 478
#     4  12  26  48  73 113 152 200 264 336 392 466
#     4  12  25  44  72 109 152 206 250 322 400 467
#     4  12  23  44  71 107 154 201 254 317 393 473
#     4  12  27  52  78 114 153 205 265 328 400 477
#     4  12  26  47  73 113 158 197 263 327 392 479
#     4  11  21  46  72 108 153 205 252 318 394 476
#     4  11  27  54  82 114 159 211 266 332 408 478
#
# _framework density 25.025995000000002
#
# number of rings (size 3 to 8) (size 9 to 14) (size 15 to 20)
#    0.000    0.333    6.667    1.750    2.333    2.000 
#    6.000    0.000    0.000    0.000    0.000    0.000 
#    0.000    0.000    0.000    0.000    0.000    0.000 
#
# Total GULP energy -267911.469903 kJ/mol
# GULP energy per Si atom -5581.488956 kJ/mol
# Density = 2.496903 g / cm^3
# Si number density = 25.025995 Si / 1000 Ang^3
#
#
#
# Elastic Constant Matrix: (Units=GPa)
#
#
# Indices 1 2 3 4 5 6 
#
# 1 106.5828 21.7356 2.5575 0.0000 0.0000 0.0000
# 2 21.7356 122.9740 29.0776 0.0000 0.0000 0.0000
# 3 2.5575 29.0776 53.6524 0.0000 0.0000 0.0000
# 4 0.0000 0.0000 0.0000 36.2701 0.0000 0.0000
# 5 0.0000 0.0000 0.0000 0.0000 29.4211 0.0000
# 6 0.0000 0.0000 0.0000 0.0000 0.0000 32.6855
#
#
#
# Elastic Compliance Matrix: (Units=1/GPa)
#
#
# Indices 1 2 3 4 5 6 
#
# 1 0.009747 -0.001850 0.000538 0.000000 0.000000 0.000000
# 2 -0.001850 0.009678 -0.005157 0.000000 0.000000 0.000000
# 3 0.000538 -0.005157 0.021408 0.000000 0.000000 0.000000
# 4 0.000000 0.000000 0.000000 0.027571 0.000000 0.000000
# 5 0.000000 0.000000 0.000000 0.000000 0.033989 0.000000
# 6 0.000000 0.000000 0.000000 0.000000 0.000000 0.030595
#
#
# Mechanical properties :
#
#
# Convention : Reuss Voigt Hill
#
# Bulk Modulus (GPa) = 35.84911 43.32786 39.58848
# Shear Modulus (GPa) = 32.21158 34.99789 33.60473
#
# Velocity S-wave (km/s) = 3.59154 3.74366 3.66839
# Velocity P-wave (km/s) = 5.61736 6.00311 5.81344
#
# Compressibility (1/GPa) = 0.02789470
#
# Stress axis : x y z
#
# Youngs Moduli (GPa) = 102.59856 103.32525 46.71202
#
# Poissons Ratio (x) = 0.19114 -0.02513
# Poissons Ratio (y) = 0.18980 0.24090
# Poissons Ratio (z) = -0.05520 0.53285
#
# Static dielectric constant tensor:
#      x y z
#    x 2.160710 0.000000 0.000000 
#    y 0.000000 1.974640 0.000000 
#    z 0.000000 0.000000 2.020130 
# 
# From -- ./inp_files/53042.got.cif
#   From: 2010.05.17/outbox.cif.g08.bks.cpg/sg70_27_cif.got.tgz:53042.got - 2010.06.03 15:57:51.
