data_PCOD9516633
_publ_section_title
;
Structure prediction by ZEFSAII (Michael W. Deem and Ramdas Pophale) SiO2 
 PCOD9516633
Probable space group: F D D D
;
_chemical_formula_sum "Si O2"
_cell_formula_units_Z 176
_cell_length_a 11.379195
_cell_length_b 34.000586
_cell_length_c 22.246882
_cell_angle_alpha 90.000000
_cell_angle_beta 90.000000
_cell_angle_gamma 90.000000
_cell_volume 8607.303033
_symmetry_space_group_name_H-M "F D D D"
_symmetry_group_IT_number 70
_space_group.IT_coordinate_system_code '2'
_symmetry_cell_setting 'orthorhombic'
loop_
_space_group_symop_operation_xyz
x,y,z
1/4-x,1/4-y,z
x,1/4-y,1/4-z
1/4-x,y,1/4-z
-x,-y,-z
3/4+x,3/4+y,-z
-x,3/4+y,3/4+z
3/4+x,-y,3/4+z
x,1/2+y,1/2+z
1/4-x,3/4-y,1/2+z
x,3/4-y,3/4-z
1/4-x,1/2+y,3/4-z
-x,1/2-y,1/2-z
3/4+x,1/4+y,1/2-z
-x,1/4+y,1/4+z
3/4+x,1/2-y,1/4+z
1/2+x,y,1/2+z
3/4-x,1/4-y,1/2+z
1/2+x,1/4-y,3/4-z
3/4-x,y,3/4-z
1/2-x,-y,1/2-z
1/4+x,3/4+y,1/2-z
1/2-x,3/4+y,1/4+z
1/4+x,-y,1/4+z
1/2+x,1/2+y,z
3/4-x,3/4-y,z
1/2+x,3/4-y,1/4-z
3/4-x,1/2+y,1/4-z
1/2-x,1/2-y,-z
1/4+x,1/4+y,-z
1/2-x,1/4+y,3/4+z
1/4+x,1/2-y,3/4+z
loop_
_atom_site_type_symbol
_atom_site_label
_atom_site_fract_x
_atom_site_fract_y
_atom_site_fract_z
Si Si1 0.625000 0.769835 0.125000
Si Si2 0.625790 0.253682 0.408244
Si Si3 0.437909 0.100212 0.972161
Si Si4 0.447425 0.836021 0.598316
Si Si5 0.279769 0.691155 0.254656
Si Si6 0.773564 0.965489 0.296675
O O1 0.511762 0.743768 0.140220
O O2 0.683193 0.796520 0.177594
O O3 0.602227 0.206953 0.417981
O O4 0.613874 0.281515 0.465255
O O5 0.526398 0.267911 0.359714
O O6 0.318020 0.092182 0.937087
O O7 0.532664 0.088026 0.920649
O O8 0.454941 0.144452 0.994155
O O9 0.445982 0.071768 0.028722
O O10 0.375000 0.875000 0.582981
O O11 0.155141 0.701734 0.222077
O O12 0.750000 0.000000 0.250000
#
# Coordination Sequence:
#
# PCOD9516633 Si02
#       6
#    16  32  32  32  32  32
#     4  12  24  44  68  97 144 178 234 290 345 428
#     4  12  26  43  71 103 136 187 234 292 357 426
#     4  11  23  39  66  98 137 176 227 294 355 417
#     4  11  22  40  66  99 133 177 237 289 344 419
#     4  12  25  43  69 104 137 180 232 290 356 423
#     4  12  22  43  68  99 136 177 235 293 353 419
#
# _framework density 20.447752000000001
#
# number of rings (size 3 to 8) (size 9 to 14) (size 15 to 20)
#    0.000    0.364    3.636    7.091    2.545    0.727 
#    0.000    1.818    0.000    1.091    0.000    0.000 
#    0.000    0.000    0.000    0.000    0.000    0.000 
#
# Total GULP energy -245370.740198 kJ/mol
# GULP energy per Si atom -5576.607732 kJ/mol
# Density = 2.040121 g / cm^3
# Si number density = 20.447752 Si / 1000 Ang^3
#
#
#
# Elastic Constant Matrix: (Units=GPa)
#
#
# Indices 1 2 3 4 5 6 
#
# 1 108.7833 31.4040 12.5997 0.0000 0.0000 0.0000
# 2 31.4040 143.2524 51.2781 0.0000 0.0000 0.0000
# 3 12.5997 51.2781 49.5641 0.0000 0.0000 0.0000
# 4 0.0000 0.0000 0.0000 31.6569 0.0000 0.0000
# 5 0.0000 0.0000 0.0000 0.0000 19.5541 0.0000
# 6 0.0000 0.0000 0.0000 0.0000 0.0000 21.2955
#
#
#
# Elastic Compliance Matrix: (Units=1/GPa)
#
#
# Indices 1 2 3 4 5 6 
#
# 1 0.009819 -0.002000 -0.000427 0.000000 0.000000 0.000000
# 2 -0.002000 0.011494 -0.011383 0.000000 0.000000 0.000000
# 3 -0.000427 -0.011383 0.032061 0.000000 0.000000 0.000000
# 4 0.000000 0.000000 0.000000 0.031589 0.000000 0.000000
# 5 0.000000 0.000000 0.000000 0.000000 0.051140 0.000000
# 6 0.000000 0.000000 0.000000 0.000000 0.000000 0.046958
#
#
# Mechanical properties :
#
#
# Convention : Reuss Voigt Hill
#
# Bulk Modulus (GPa) = 38.82848 54.68483 46.75665
# Shear Modulus (GPa) = 22.80345 28.25583 25.52964
#
# Velocity S-wave (km/s) = 3.34309 3.72136 3.53729
# Velocity P-wave (km/s) = 5.82512 6.72804 6.29279
#
# Compressibility (1/GPa) = 0.02575429
#
# Stress axis : x y z
#
# Youngs Moduli (GPa) = 101.83975 87.00539 31.19073
#
# Poissons Ratio (x) = 0.17398 0.01333
# Poissons Ratio (y) = 0.20364 0.35503
# Poissons Ratio (z) = 0.04353 0.99035
#
# Static dielectric constant tensor:
#      x y z
#    x 1.793400 0.000000 0.000000 
#    y 0.000000 1.748680 0.000000 
#    z 0.000000 0.000000 1.840600 
# 
# From -- ./inp_files/22314.got.cif
#   From: 2010.05.17/outbox.cif.g08.bks.cpg/sg70_12_cif.got.tgz:22314.got - 2010.06.03 15:57:51.
