data_PCOD9516979
_publ_section_title
;
Structure prediction by ZEFSAII (Michael W. Deem and Ramdas Pophale) SiO2 
 PCOD9516979
Probable space group: F D D D
;
_chemical_formula_sum "Si O2"
_cell_formula_units_Z 192
_cell_length_a 26.105446
_cell_length_b 18.624200
_cell_length_c 17.301868
_cell_angle_alpha 90.000000
_cell_angle_beta 90.000000
_cell_angle_gamma 90.000000
_cell_volume 8412.047929
_symmetry_space_group_name_H-M "F D D D"
_symmetry_group_IT_number 70
_space_group.IT_coordinate_system_code '2'
_symmetry_cell_setting 'orthorhombic'
loop_
_space_group_symop_operation_xyz
x,y,z
1/4-x,1/4-y,z
x,1/4-y,1/4-z
1/4-x,y,1/4-z
-x,-y,-z
3/4+x,3/4+y,-z
-x,3/4+y,3/4+z
3/4+x,-y,3/4+z
x,1/2+y,1/2+z
1/4-x,3/4-y,1/2+z
x,3/4-y,3/4-z
1/4-x,1/2+y,3/4-z
-x,1/2-y,1/2-z
3/4+x,1/4+y,1/2-z
-x,1/4+y,1/4+z
3/4+x,1/2-y,1/4+z
1/2+x,y,1/2+z
3/4-x,1/4-y,1/2+z
1/2+x,1/4-y,3/4-z
3/4-x,y,3/4-z
1/2-x,-y,1/2-z
1/4+x,3/4+y,1/2-z
1/2-x,3/4+y,1/4+z
1/4+x,-y,1/4+z
1/2+x,1/2+y,z
3/4-x,3/4-y,z
1/2+x,3/4-y,1/4-z
3/4-x,1/2+y,1/4-z
1/2-x,1/2-y,-z
1/4+x,1/4+y,-z
1/2-x,1/4+y,3/4+z
1/4+x,1/2-y,3/4+z
loop_
_atom_site_type_symbol
_atom_site_label
_atom_site_fract_x
_atom_site_fract_y
_atom_site_fract_z
Si Si1 0.924778 0.291379 0.238444
Si Si2 0.007085 0.127427 0.455992
Si Si3 0.219261 0.875000 0.875000
Si Si4 0.662028 0.233905 0.884972
Si Si5 0.286061 0.603150 0.806621
Si Si6 0.328726 0.757320 0.760375
Si Si7 0.125000 0.125000 0.625000
Si Si8 0.625000 0.125000 0.625000
O O1 0.878464 0.296154 0.177032
O O2 0.934559 0.207858 0.258777
O O3 0.909007 0.327245 0.318655
O O4 0.976713 0.331218 0.210817
O O5 0.043878 0.069652 0.414326
O O6 0.037119 0.202096 0.459264
O O7 0.996570 0.103953 0.544210
O O8 0.959356 0.143313 0.400024
O O9 0.187365 0.805184 0.851753
O O10 0.629555 0.254177 0.960813
O O11 0.304417 0.682326 0.783912
O O12 0.342476 0.818406 0.823994
#
# Coordination Sequence:
#
# PCOD9516979 Si02
#       8
#    32  32  16  32  32  32   8   8
#     4  11  27  49  75 113 143 197 251 310 384 465
#     4  12  25  47  70 109 150 200 250 320 377 459
#     4  12  29  42  76 112 150 198 260 314 386 463
#     4  12  25  50  73 106 156 200 253 315 390 451
#     4  11  27  47  76 109 150 191 254 313 381 447
#     4  12  26  46  77 102 154 197 253 314 383 459
#     4  12  26  44  72 116 140 210 260 304 384 474
#     4  12  28  40  78 100 140 186 236 302 364 452
#
# _framework density 22.824406
#
# number of rings (size 3 to 8) (size 9 to 14) (size 15 to 20)
#    0.000    0.333    3.333    4.000    7.000    0.667 
#    0.000    0.000    0.000    0.000    0.000    0.000 
#    0.000    0.000    0.000    0.000    0.000    0.000 
#
# Total GULP energy -268344.463337 kJ/mol
# GULP energy per Si atom -5590.509653 kJ/mol
# Density = 2.277246 g / cm^3
# Si number density = 22.824406 Si / 1000 Ang^3
#
#
#
# Elastic Constant Matrix: (Units=GPa)
#
#
# Indices 1 2 3 4 5 6 
#
# 1 50.4085 51.8118 42.4148 0.0000 0.0000 0.0000
# 2 51.8118 191.4896 57.6907 0.0000 0.0000 0.0000
# 3 42.4148 57.6907 135.4121 0.0000 0.0000 0.0000
# 4 0.0000 0.0000 0.0000 28.0647 0.0000 0.0000
# 5 0.0000 0.0000 0.0000 0.0000 20.6173 0.0000
# 6 0.0000 0.0000 0.0000 0.0000 0.0000 76.1851
#
#
#
# Elastic Compliance Matrix: (Units=1/GPa)
#
#
# Indices 1 2 3 4 5 6 
#
# 1 0.033001 -0.006671 -0.007495 0.000000 0.000000 0.000000
# 2 -0.006671 0.007340 -0.001037 0.000000 0.000000 0.000000
# 3 -0.007495 -0.001037 0.010174 0.000000 0.000000 0.000000
# 4 0.000000 0.000000 0.000000 0.035632 0.000000 0.000000
# 5 0.000000 0.000000 0.000000 0.000000 0.048503 0.000000
# 6 0.000000 0.000000 0.000000 0.000000 0.000000 0.013126
#
#
# Mechanical properties :
#
#
# Convention : Reuss Voigt Hill
#
# Bulk Modulus (GPa) = 49.72990 75.68276 62.70633
# Shear Modulus (GPa) = 27.04377 39.99961 33.52169
#
# Velocity S-wave (km/s) = 3.44592 4.19082 3.83649
# Velocity P-wave (km/s) = 6.13741 7.52649 6.86716
#
# Compressibility (1/GPa) = 0.02010863
#
# Stress axis : x y z
#
# Youngs Moduli (GPa) = 30.30208 136.24313 98.28615
#
# Poissons Ratio (x) = 0.90891 0.73662
# Poissons Ratio (y) = 0.20215 0.10196
# Poissons Ratio (z) = 0.22710 0.14134
#
# Static dielectric constant tensor:
#      x y z
#    x 1.935120 0.000000 0.000000 
#    y 0.000000 1.402770 0.000000 
#    z 0.000000 0.000000 1.915370 
# 
# From -- ./inp_files/39782.got.cif
#   From: 2010.05.17/outbox.cif.g08.bks.cpg/sg70_20_cif.got.tgz:39782.got - 2010.06.03 15:57:51.
