data_PCOD9516886
_publ_section_title
;
Structure prediction by ZEFSAII (Michael W. Deem and Ramdas Pophale) SiO2 
 PCOD9516886
Probable space group: F D D D
;
_chemical_formula_sum "Si O2"
_cell_formula_units_Z 160
_cell_length_a 18.131959
_cell_length_b 15.117431
_cell_length_c 24.967933
_cell_angle_alpha 90.000000
_cell_angle_beta 90.000000
_cell_angle_gamma 90.000000
_cell_volume 6843.926135
_symmetry_space_group_name_H-M "F D D D"
_symmetry_group_IT_number 70
_space_group.IT_coordinate_system_code '2'
_symmetry_cell_setting 'orthorhombic'
loop_
_space_group_symop_operation_xyz
x,y,z
1/4-x,1/4-y,z
x,1/4-y,1/4-z
1/4-x,y,1/4-z
-x,-y,-z
3/4+x,3/4+y,-z
-x,3/4+y,3/4+z
3/4+x,-y,3/4+z
x,1/2+y,1/2+z
1/4-x,3/4-y,1/2+z
x,3/4-y,3/4-z
1/4-x,1/2+y,3/4-z
-x,1/2-y,1/2-z
3/4+x,1/4+y,1/2-z
-x,1/4+y,1/4+z
3/4+x,1/2-y,1/4+z
1/2+x,y,1/2+z
3/4-x,1/4-y,1/2+z
1/2+x,1/4-y,3/4-z
3/4-x,y,3/4-z
1/2-x,-y,1/2-z
1/4+x,3/4+y,1/2-z
1/2-x,3/4+y,1/4+z
1/4+x,-y,1/4+z
1/2+x,1/2+y,z
3/4-x,3/4-y,z
1/2+x,3/4-y,1/4-z
3/4-x,1/2+y,1/4-z
1/2-x,1/2-y,-z
1/4+x,1/4+y,-z
1/2-x,1/4+y,3/4+z
1/4+x,1/2-y,3/4+z
loop_
_atom_site_type_symbol
_atom_site_label
_atom_site_fract_x
_atom_site_fract_y
_atom_site_fract_z
Si Si1 0.125000 0.381873 0.625000
Si Si2 0.125000 0.125000 0.717399
Si Si3 0.625000 0.625000 0.002827
Si Si4 0.350265 0.219143 0.687381
Si Si5 0.521823 0.037637 0.588334
Si Si6 0.993740 0.875000 0.375000
Si Si7 0.920798 0.546840 0.988440
O O1 0.058152 0.449235 0.611770
O O2 0.099886 0.325488 0.677142
O O3 0.192601 0.117171 0.676319
O O4 0.133491 0.214438 0.750706
O O5 0.570614 0.564017 0.037086
O O6 0.672105 0.557602 0.967720
O O7 0.435877 0.225213 0.672642
O O8 0.298698 0.205753 0.636092
O O9 0.340083 0.133156 0.725244
O O10 0.530023 0.125000 0.625000
O O11 0.000000 0.500000 0.000000
#
# Coordination Sequence:
#
# PCOD9516886 Si02
#       7
#    16  16  16  32  32  16  32
#     4  12  25  47  80 110 150 206 256 316 406 452
#     4  11  26  46  75  96 149 207 251 320 380 467
#     4  12  25  46  71 108 147 199 249 319 394 464
#     4  12  27  45  73 109 151 191 257 319 387 463
#     4  12  23  46  72 110 147 192 249 318 383 475
#     4  11  24  48  66 107 148 198 256 311 386 474
#     4  12  27  49  75 110 148 201 261 317 383 474
#
# _framework density 23.378392000000002
#
# number of rings (size 3 to 8) (size 9 to 14) (size 15 to 20)
#    0.000    0.200    7.000    1.800    2.800    3.200 
#    0.000    0.000    0.000    0.000    0.000    0.000 
#    0.000    0.000    0.000    0.000    0.000    0.000 
#
# Total GULP energy -223728.721559 kJ/mol
# GULP energy per Si atom -5593.218039 kJ/mol
# Density = 2.332518 g / cm^3
# Si number density = 23.378392 Si / 1000 Ang^3
#
#
#
# Elastic Constant Matrix: (Units=GPa)
#
#
# Indices 1 2 3 4 5 6 
#
# 1 121.8213 12.1444 22.5359 0.0000 0.0000 0.0000
# 2 12.1444 150.6786 28.5553 0.0000 0.0000 0.0000
# 3 22.5359 28.5553 55.3646 0.0000 0.0000 0.0000
# 4 0.0000 0.0000 0.0000 40.5413 0.0000 0.0000
# 5 0.0000 0.0000 0.0000 0.0000 51.5419 0.0000
# 6 0.0000 0.0000 0.0000 0.0000 0.0000 17.0350
#
#
#
# Elastic Compliance Matrix: (Units=1/GPa)
#
#
# Indices 1 2 3 4 5 6 
#
# 1 0.008877 -0.000034 -0.003596 0.000000 0.000000 0.000000
# 2 -0.000034 0.007356 -0.003780 0.000000 0.000000 0.000000
# 3 -0.003596 -0.003780 0.021475 0.000000 0.000000 0.000000
# 4 0.000000 0.000000 0.000000 0.024666 0.000000 0.000000
# 5 0.000000 0.000000 0.000000 0.000000 0.019402 0.000000
# 6 0.000000 0.000000 0.000000 0.000000 0.000000 0.058703
#
#
# Mechanical properties :
#
#
# Convention : Reuss Voigt Hill
#
# Bulk Modulus (GPa) = 43.68994 50.48174 47.08584
# Shear Modulus (GPa) = 30.68829 39.46557 35.07693
#
# Velocity S-wave (km/s) = 3.62702 4.11313 3.87770
# Velocity P-wave (km/s) = 6.02238 6.64811 6.34297
#
# Compressibility (1/GPa) = 0.02288856
#
# Stress axis : x y z
#
# Youngs Moduli (GPa) = 112.64621 135.94825 46.56487
#
# Poissons Ratio (x) = 0.00463 0.16744
# Poissons Ratio (y) = 0.00383 0.17602
# Poissons Ratio (z) = 0.40507 0.51389
#
# Static dielectric constant tensor:
#      x y z
#    x 1.909160 0.000000 0.000000 
#    y 0.000000 1.979120 0.000000 
#    z 0.000000 0.000000 1.931600 
# 
# From -- ./inp_files/65744.got.cif
#   From: 2010.05.17/outbox.cif.g08.bks.cpg/sg70_33_cif.got.tgz:65744.got - 2010.06.03 15:57:51.
