data_PCOD9516288
_publ_section_title
;
Structure prediction by ZEFSAII (Michael W. Deem and Ramdas Pophale) SiO2 
 PCOD9516288
Probable space group: F D D D
;
_chemical_formula_sum "Si O2"
_cell_formula_units_Z 192
_cell_length_a 25.439180
_cell_length_b 27.391268
_cell_length_c 11.113562
_cell_angle_alpha 90.000000
_cell_angle_beta 90.000000
_cell_angle_gamma 90.000000
_cell_volume 7744.056664
_symmetry_space_group_name_H-M "F D D D"
_symmetry_group_IT_number 70
_space_group.IT_coordinate_system_code '2'
_symmetry_cell_setting 'orthorhombic'
loop_
_space_group_symop_operation_xyz
x,y,z
1/4-x,1/4-y,z
x,1/4-y,1/4-z
1/4-x,y,1/4-z
-x,-y,-z
3/4+x,3/4+y,-z
-x,3/4+y,3/4+z
3/4+x,-y,3/4+z
x,1/2+y,1/2+z
1/4-x,3/4-y,1/2+z
x,3/4-y,3/4-z
1/4-x,1/2+y,3/4-z
-x,1/2-y,1/2-z
3/4+x,1/4+y,1/2-z
-x,1/4+y,1/4+z
3/4+x,1/2-y,1/4+z
1/2+x,y,1/2+z
3/4-x,1/4-y,1/2+z
1/2+x,1/4-y,3/4-z
3/4-x,y,3/4-z
1/2-x,-y,1/2-z
1/4+x,3/4+y,1/2-z
1/2-x,3/4+y,1/4+z
1/4+x,-y,1/4+z
1/2+x,1/2+y,z
3/4-x,3/4-y,z
1/2+x,3/4-y,1/4-z
3/4-x,1/2+y,1/4-z
1/2-x,1/2-y,-z
1/4+x,1/4+y,-z
1/2-x,1/4+y,3/4+z
1/4+x,1/2-y,3/4+z
loop_
_atom_site_type_symbol
_atom_site_label
_atom_site_fract_x
_atom_site_fract_y
_atom_site_fract_z
Si Si1 0.566258 0.218456 0.522191
Si Si2 0.541125 0.264381 0.067293
Si Si3 0.375000 0.375000 0.670014
Si Si4 0.652427 0.285106 0.952103
Si Si5 0.775934 0.904212 0.499611
Si Si6 0.433970 0.063188 0.415100
Si Si7 0.348262 0.625000 0.625000
O O1 0.506467 0.204689 0.487870
O O2 0.602700 0.170699 0.499979
O O3 0.585665 0.257495 0.421354
O O4 0.562046 0.253856 0.641415
O O5 0.551158 0.276882 0.204971
O O6 0.526521 0.208991 0.048714
O O7 0.597507 0.266081 0.004034
O O8 0.423066 0.359152 0.581114
O O9 0.638715 0.341455 0.946685
O O10 0.773272 0.875000 0.375000
O O11 0.725895 0.906966 0.587343
O O12 0.375000 0.074300 0.375000
O O13 0.435504 0.086564 0.547716
#
# Coordination Sequence:
#
# PCOD9516288 Si02
#       7
#    32  32  16  32  32  32  16
#     4  11  24  47  74 114 164 214 273 336 411 490
#     4  10  24  43  72 113 160 210 265 344 409 477
#     4  12  25  46  83 120 170 231 269 328 426 518
#     4  11  23  44  72 112 158 207 269 348 401 483
#     4  11  25  46  81 124 167 214 275 342 414 500
#     4  11  27  50  78 115 160 207 276 355 401 480
#     4  12  28  48  80 105 152 211 282 344 412 480
#
# _framework density 24.793208
#
# number of rings (size 3 to 8) (size 9 to 14) (size 15 to 20)
#    0.000    1.000    3.333    1.750    8.167    1.333 
#    0.000    7.917    0.000    0.000    0.000    0.000 
#    0.000    0.000    0.000    0.000    0.000    0.000 
#
# Total GULP energy -268297.405207 kJ/mol
# GULP energy per Si atom -5589.529275 kJ/mol
# Density = 2.473678 g / cm^3
# Si number density = 24.793208 Si / 1000 Ang^3
#
#
#
# Elastic Constant Matrix: (Units=GPa)
#
#
# Indices 1 2 3 4 5 6 
#
# 1 176.9189 48.9742 63.9961 -0.0001 0.0001 0.0001
# 2 48.9742 132.2509 63.6163 0.0000 0.0001 0.0000
# 3 63.9961 63.6163 128.4567 -0.0004 0.0006 0.0003
# 4 -0.0001 0.0000 -0.0004 48.6305 0.0002 0.0001
# 5 0.0001 0.0001 0.0006 0.0002 21.8112 -0.0001
# 6 0.0001 0.0000 0.0003 0.0001 -0.0001 32.7845
#
#
#
# Elastic Compliance Matrix: (Units=1/GPa)
#
#
# Indices 1 2 3 4 5 6 
#
# 1 0.007039 -0.001207 -0.002909 0.000000 0.000000 0.000000
# 2 -0.001207 0.010133 -0.004417 0.000000 0.000000 0.000000
# 3 -0.002909 -0.004417 0.011421 0.000000 0.000000 0.000000
# 4 0.000000 0.000000 0.000000 0.020563 0.000000 0.000000
# 5 0.000000 0.000000 0.000000 0.000000 0.045848 0.000000
# 6 0.000000 0.000000 0.000000 0.000000 0.000000 0.030502
#
#
# Mechanical properties :
#
#
# Convention : Reuss Voigt Hill
#
# Bulk Modulus (GPa) = 86.75069 87.86664 87.30866
# Shear Modulus (GPa) = 34.14964 38.04789 36.09876
#
# Velocity S-wave (km/s) = 3.71533 3.92166 3.81989
# Velocity P-wave (km/s) = 7.31236 7.48483 7.39909
#
# Compressibility (1/GPa) = 0.01152729
#
# Stress axis : x y z
#
# Youngs Moduli (GPa) = 142.07231 98.68680 87.55690
#
# Poissons Ratio (x) = 0.11915 0.25468
# Poissons Ratio (y) = 0.17153 0.38672
# Poissons Ratio (z) = 0.41324 0.43588
#
# Static dielectric constant tensor:
#      x y z
#    x 1.848170 0.000000 0.000000 
#    y 0.000000 1.922210 0.000000 
#    z 0.000000 0.000000 2.056790 
# 
# From -- ./inp_files/21240.got.cif
#   From: 2010.05.17/outbox.cif.g08.bks.cpg/sg70_11_cif.got.tgz:21240.got - 2010.06.03 15:57:51.
