data_PCOD9516538
_publ_section_title
;
Structure prediction by ZEFSAII (Michael W. Deem and Ramdas Pophale) SiO2 
 PCOD9516538
Probable space group: F D D D
;
_chemical_formula_sum "Si O2"
_cell_formula_units_Z 192
_cell_length_a 30.870836
_cell_length_b 25.493647
_cell_length_c 12.248700
_cell_angle_alpha 90.000000
_cell_angle_beta 90.000000
_cell_angle_gamma 90.000000
_cell_volume 9639.851783
_symmetry_space_group_name_H-M "F D D D"
_symmetry_group_IT_number 70
_space_group.IT_coordinate_system_code '2'
_symmetry_cell_setting 'orthorhombic'
loop_
_space_group_symop_operation_xyz
x,y,z
1/4-x,1/4-y,z
x,1/4-y,1/4-z
1/4-x,y,1/4-z
-x,-y,-z
3/4+x,3/4+y,-z
-x,3/4+y,3/4+z
3/4+x,-y,3/4+z
x,1/2+y,1/2+z
1/4-x,3/4-y,1/2+z
x,3/4-y,3/4-z
1/4-x,1/2+y,3/4-z
-x,1/2-y,1/2-z
3/4+x,1/4+y,1/2-z
-x,1/4+y,1/4+z
3/4+x,1/2-y,1/4+z
1/2+x,y,1/2+z
3/4-x,1/4-y,1/2+z
1/2+x,1/4-y,3/4-z
3/4-x,y,3/4-z
1/2-x,-y,1/2-z
1/4+x,3/4+y,1/2-z
1/2-x,3/4+y,1/4+z
1/4+x,-y,1/4+z
1/2+x,1/2+y,z
3/4-x,3/4-y,z
1/2+x,3/4-y,1/4-z
3/4-x,1/2+y,1/4-z
1/2-x,1/2-y,-z
1/4+x,1/4+y,-z
1/2-x,1/4+y,3/4+z
1/4+x,1/2-y,3/4+z
loop_
_atom_site_type_symbol
_atom_site_label
_atom_site_fract_x
_atom_site_fract_y
_atom_site_fract_z
Si Si1 0.713085 0.041500 0.514383
Si Si2 0.074011 0.629218 0.344377
Si Si3 0.978700 0.875000 0.375000
Si Si4 0.132443 0.875000 0.375000
Si Si5 0.728888 0.192188 0.501495
Si Si6 0.454504 0.103231 0.793567
Si Si7 0.054802 0.422741 0.757069
O O1 0.685801 0.072098 0.424117
O O2 0.705435 0.065056 0.633788
O O3 0.762893 0.054244 0.475455
O O4 0.700348 0.981458 0.533716
O O5 0.125000 0.625000 0.329935
O O6 0.050326 0.637960 0.229179
O O7 0.051357 0.578334 0.402723
O O8 0.013265 0.831861 0.414040
O O9 0.161731 0.849902 0.279565
O O10 0.099790 0.833780 0.430060
O O11 0.750000 0.250000 0.500000
O O12 0.768759 0.152242 0.503795
O O13 0.446985 0.125361 0.917130
#
# Coordination Sequence:
#
# PCOD9516538 Si02
#       7
#    32  32  16  16  32  32  32
#     4  11  22  42  70  97 130 176 227 274 344 404
#     4  11  24  41  64  96 136 175 222 280 327 403
#     4  11  21  46  67  88 130 180 221 268 345 405
#     4  11  24  40  65  96 142 172 225 278 330 403
#     4  11  20  39  71  96 127 176 222 271 342 401
#     4  11  20  42  66  96 132 176 222 280 335 397
#     4  11  24  42  68  98 130 179 222 279 342 405
#
# _framework density 19.917318999999999
#
# number of rings (size 3 to 8) (size 9 to 14) (size 15 to 20)
#    0.000    1.000    6.667    2.250    0.000    3.333 
#    6.000    0.000    0.000    0.000    0.000    0.000 
#    0.000    0.000    0.000    0.000    0.000    0.000 
#
# Total GULP energy -267485.405027 kJ/mol
# GULP energy per Si atom -5572.612605 kJ/mol
# Density = 1.987199 g / cm^3
# Si number density = 19.917319 Si / 1000 Ang^3
#
#
#
# Elastic Constant Matrix: (Units=GPa)
#
#
# Indices 1 2 3 4 5 6 
#
# 1 130.6111 1.8942 48.6936 0.0000 0.0001 0.0000
# 2 1.8942 39.0257 1.2153 -0.0001 0.0000 0.0000
# 3 48.6936 1.2153 132.1920 -0.0001 0.0005 0.0001
# 4 0.0000 -0.0001 -0.0001 24.0315 0.0002 0.0001
# 5 0.0001 0.0000 0.0005 0.0002 300.4168 -0.0001
# 6 0.0000 0.0000 0.0001 0.0001 -0.0001 -2.3369
#
#
#
# Elastic Compliance Matrix: (Units=1/GPa)
#
#
# Indices 1 2 3 4 5 6 
#
# 1 0.008879 -0.000329 -0.003268 0.000000 0.000000 0.000000
# 2 -0.000329 0.025644 -0.000114 0.000000 0.000000 0.000000
# 3 -0.003268 -0.000114 0.008769 0.000000 0.000000 0.000000
# 4 0.000000 0.000000 0.000000 0.041612 0.000000 0.000001
# 5 0.000000 0.000000 0.000000 0.000000 0.003329 0.000000
# 6 0.000000 0.000000 0.000000 0.000001 0.000000 -0.427920
#
#
# Mechanical properties :
#
#
# Convention : Reuss Voigt Hill
#
# Bulk Modulus (GPa) = 27.87873 45.04833 36.46353
# Shear Modulus (GPa) = -15.61002 81.09066 32.74032
#
# Velocity S-wave (km/s) = -2.80257 6.38765 4.05879
# Velocity P-wave (km/s) = 1.88548 8.77892 6.34919
#
# Compressibility (1/GPa) = 0.03586965
#
# Stress axis : x y z
#
# Youngs Moduli (GPa) = 112.62094 38.99599 114.03172
#
# Poissons Ratio (x) = 0.01284 0.37262
# Poissons Ratio (y) = 0.03708 0.01305
# Poissons Ratio (z) = 0.36801 0.00446
#
# Static dielectric constant tensor:
#      x y z
#    x 1.700150 0.000000 0.000000 
#    y 0.000000 2.134860 0.000010 
#    z 0.000000 0.000010 1.359190 
# 
# From -- ./inp_files/22477.got.cif
#   From: 2010.05.17/outbox.cif.g08.bks.cpg/sg70_12_cif.got.tgz:22477.got - 2010.06.03 15:57:51.
