data_PCOD9516340
_publ_section_title
;
Structure prediction by ZEFSAII (Michael W. Deem and Ramdas Pophale) SiO2 
 PCOD9516340
Probable space group: F D D D
;
_chemical_formula_sum "Si O2"
_cell_formula_units_Z 96
_cell_length_a 16.924886
_cell_length_b 12.455731
_cell_length_c 18.529449
_cell_angle_alpha 90.000000
_cell_angle_beta 90.000000
_cell_angle_gamma 90.000000
_cell_volume 3906.227001
_symmetry_space_group_name_H-M "F D D D"
_symmetry_group_IT_number 70
_space_group.IT_coordinate_system_code '2'
_symmetry_cell_setting 'orthorhombic'
loop_
_space_group_symop_operation_xyz
x,y,z
1/4-x,1/4-y,z
x,1/4-y,1/4-z
1/4-x,y,1/4-z
-x,-y,-z
3/4+x,3/4+y,-z
-x,3/4+y,3/4+z
3/4+x,-y,3/4+z
x,1/2+y,1/2+z
1/4-x,3/4-y,1/2+z
x,3/4-y,3/4-z
1/4-x,1/2+y,3/4-z
-x,1/2-y,1/2-z
3/4+x,1/4+y,1/2-z
-x,1/4+y,1/4+z
3/4+x,1/2-y,1/4+z
1/2+x,y,1/2+z
3/4-x,1/4-y,1/2+z
1/2+x,1/4-y,3/4-z
3/4-x,y,3/4-z
1/2-x,-y,1/2-z
1/4+x,3/4+y,1/2-z
1/2-x,3/4+y,1/4+z
1/4+x,-y,1/4+z
1/2+x,1/2+y,z
3/4-x,3/4-y,z
1/2+x,3/4-y,1/4-z
3/4-x,1/2+y,1/4-z
1/2-x,1/2-y,-z
1/4+x,1/4+y,-z
1/2-x,1/4+y,3/4+z
1/4+x,1/2-y,3/4+z
loop_
_atom_site_type_symbol
_atom_site_label
_atom_site_fract_x
_atom_site_fract_y
_atom_site_fract_z
Si Si1 0.566365 0.935325 0.305557
Si Si2 0.265735 0.739090 0.086191
Si Si3 0.579961 0.815638 0.062458
O O1 0.533829 0.875000 0.375000
O O2 0.640006 0.002296 0.339174
O O3 0.610486 0.858463 0.248679
O O4 0.493676 0.004120 0.276188
O O5 0.246281 0.625000 0.125000
O O6 0.210771 0.837128 0.108959
O O7 0.250000 0.750000 0.000000
O O8 0.625000 0.752588 0.125000
#
# Coordination Sequence:
#
# PCOD9516340 Si02
#       3
#    32  32  32
#     4  10  24  46  69 105 146 193 248 311 377 454
#     4   9  20  40  67 101 146 188 239 305 367 440
#     4  11  25  42  73 106 143 196 246 308 378 455
#
# _framework density 24.576145
#
# number of rings (size 3 to 8) (size 9 to 14) (size 15 to 20)
#    0.000    2.000    0.000    1.000   14.000    2.667 
#    0.000    0.000    0.000    0.000    0.000    0.000 
#    0.000    0.000    0.000    0.000    0.000    0.000 
#
# Total GULP energy -133771.812527 kJ/mol
# GULP energy per Si atom -5573.825522 kJ/mol
# Density = 2.452021 g / cm^3
# Si number density = 24.576145 Si / 1000 Ang^3
#
#
#
# Elastic Constant Matrix: (Units=GPa)
#
#
# Indices 1 2 3 4 5 6 
#
# 1 161.6822 61.8671 55.6234 0.0000 0.0000 0.0000
# 2 61.8671 95.6109 54.9180 0.0000 0.0000 0.0000
# 3 55.6234 54.9180 118.8287 0.0000 0.0000 0.0000
# 4 0.0000 0.0000 0.0000 39.2515 0.0000 0.0000
# 5 0.0000 0.0000 0.0000 0.0000 40.4843 0.0000
# 6 0.0000 0.0000 0.0000 0.0000 0.0000 52.4275
#
#
#
# Elastic Compliance Matrix: (Units=1/GPa)
#
#
# Indices 1 2 3 4 5 6 
#
# 1 0.008545 -0.004400 -0.001967 0.000000 0.000000 0.000000
# 2 -0.004400 0.016504 -0.005568 0.000000 0.000000 0.000000
# 3 -0.001967 -0.005568 0.011909 0.000000 0.000000 0.000000
# 4 0.000000 0.000000 0.000000 0.025477 0.000000 0.000000
# 5 0.000000 0.000000 0.000000 0.000000 0.024701 0.000000
# 6 0.000000 0.000000 0.000000 0.000000 0.000000 0.019074
#
#
# Mechanical properties :
#
#
# Convention : Reuss Voigt Hill
#
# Bulk Modulus (GPa) = 76.39459 80.10432 78.24946
# Shear Modulus (GPa) = 37.19065 40.01355 38.60210
#
# Velocity S-wave (km/s) = 3.89431 4.03941 3.96752
# Velocity P-wave (km/s) = 7.16751 7.37705 7.27303
#
# Compressibility (1/GPa) = 0.01308993
#
# Stress axis : x y z
#
# Youngs Moduli (GPa) = 117.02686 60.59044 83.96730
#
# Poissons Ratio (x) = 0.26658 0.16513
# Poissons Ratio (y) = 0.51488 0.46754
# Poissons Ratio (z) = 0.23014 0.33738
#
# Static dielectric constant tensor:
#      x y z
#    x 1.994020 0.000000 0.000000 
#    y 0.000000 2.244190 0.000000 
#    z 0.000000 0.000000 2.020000 
# 
# From -- ./inp_files/17065.got.cif
#   From: 2010.05.17/outbox.cif.g08.bks.cpg/sg70_9_cif.got.tgz:17065.got - 2010.06.03 15:57:51.
