data_PCOD9516375
_publ_section_title
;
Structure prediction by ZEFSAII (Michael W. Deem and Ramdas Pophale) SiO2 
 PCOD9516375
Probable space group: F D D D
;
_chemical_formula_sum "Si O2"
_cell_formula_units_Z 152
_cell_length_a 25.866268
_cell_length_b 14.178545
_cell_length_c 17.759799
_cell_angle_alpha 90.000000
_cell_angle_beta 90.000000
_cell_angle_gamma 90.000000
_cell_volume 6513.336040
_symmetry_space_group_name_H-M "F D D D"
_symmetry_group_IT_number 70
_space_group.IT_coordinate_system_code '2'
_symmetry_cell_setting 'orthorhombic'
loop_
_space_group_symop_operation_xyz
x,y,z
1/4-x,1/4-y,z
x,1/4-y,1/4-z
1/4-x,y,1/4-z
-x,-y,-z
3/4+x,3/4+y,-z
-x,3/4+y,3/4+z
3/4+x,-y,3/4+z
x,1/2+y,1/2+z
1/4-x,3/4-y,1/2+z
x,3/4-y,3/4-z
1/4-x,1/2+y,3/4-z
-x,1/2-y,1/2-z
3/4+x,1/4+y,1/2-z
-x,1/4+y,1/4+z
3/4+x,1/2-y,1/4+z
1/2+x,y,1/2+z
3/4-x,1/4-y,1/2+z
1/2+x,1/4-y,3/4-z
3/4-x,y,3/4-z
1/2-x,-y,1/2-z
1/4+x,3/4+y,1/2-z
1/2-x,3/4+y,1/4+z
1/4+x,-y,1/4+z
1/2+x,1/2+y,z
3/4-x,3/4-y,z
1/2+x,3/4-y,1/4-z
3/4-x,1/2+y,1/4-z
1/2-x,1/2-y,-z
1/4+x,1/4+y,-z
1/2-x,1/4+y,3/4+z
1/4+x,1/2-y,3/4+z
loop_
_atom_site_type_symbol
_atom_site_label
_atom_site_fract_x
_atom_site_fract_y
_atom_site_fract_z
Si Si1 0.860803 0.481516 0.686490
Si Si2 0.429724 0.037401 0.907595
Si Si3 0.535893 0.757563 0.088982
Si Si4 0.302678 0.125000 0.125000
Si Si5 0.625000 0.125000 0.625000
Si Si6 0.530795 0.283065 0.415685
O O1 0.875000 0.375000 0.711463
O O2 0.826053 0.524459 0.753543
O O3 0.907528 0.557529 0.672731
O O4 0.825912 0.462809 0.611685
O O5 0.375000 0.007829 0.875000
O O6 0.442796 0.143751 0.881046
O O7 0.477556 0.981305 0.876839
O O8 0.491417 0.707697 0.139481
O O9 0.585623 0.690650 0.080190
O O10 0.518565 0.778709 0.003553
O O11 0.553356 0.375000 0.375000
#
# Coordination Sequence:
#
# PCOD9516375 Si02
#       6
#    32  32  32  16   8  32
#     4  12  26  47  73 107 153 198 252 310 381 448
#     4  12  26  45  72 106 146 197 250 311 381 447
#     4  11  24  48  71 108 148 190 254 303 379 450
#     4  11  24  47  74 106 143 198 245 306 372 462
#     4  10  24  48  76 100 154 200 244 312 370 448
#     4  12  26  43  72 105 148 192 244 314 374 445
#
# _framework density 23.336735999999998
#
# number of rings (size 3 to 8) (size 9 to 14) (size 15 to 20)
#    0.000    0.421    4.211    3.158    7.368    0.000 
#    3.789    4.211    0.000    0.000    0.000    0.000 
#    0.000    0.000    0.000    0.000    0.000    0.000 
#
# Total GULP energy -211593.084794 kJ/mol
# GULP energy per Si atom -5568.239074 kJ/mol
# Density = 2.328362 g / cm^3
# Si number density = 23.336736 Si / 1000 Ang^3
#
#
#
# Elastic Constant Matrix: (Units=GPa)
#
#
# Indices 1 2 3 4 5 6 
#
# 1 136.3717 19.2307 14.1997 0.0000 0.0000 0.0000
# 2 19.2307 102.0934 -1.1939 0.0000 0.0000 0.0000
# 3 14.1997 -1.1939 54.8146 0.0000 0.0000 0.0000
# 4 0.0000 0.0000 0.0000 17.3212 0.0000 0.0000
# 5 0.0000 0.0000 0.0000 0.0000 -670.5664 0.0000
# 6 0.0000 0.0000 0.0000 0.0000 0.0000 306.6307
#
#
#
# Elastic Compliance Matrix: (Units=1/GPa)
#
#
# Indices 1 2 3 4 5 6 
#
# 1 0.007755 -0.001485 -0.002041 0.000000 0.000000 0.000000
# 2 -0.001485 0.010082 0.000604 0.000000 0.000000 0.000000
# 3 -0.002041 0.000604 0.018785 0.000000 0.000000 0.000000
# 4 0.000000 0.000000 0.000000 0.057733 0.000000 0.000000
# 5 0.000000 0.000000 0.000000 0.000000 -0.001491 0.000000
# 6 0.000000 0.000000 0.000000 0.000000 0.000000 0.003261
#
#
# Mechanical properties :
#
#
# Convention : Reuss Voigt Hill
#
# Bulk Modulus (GPa) = 32.49028 39.75028 36.12028
# Shear Modulus (GPa) = 44.55252 -51.92000 -3.68374
#
# Velocity S-wave (km/s) = 4.37408 -4.72192 -1.25775
# Velocity P-wave (km/s) = 6.28194 3.55785 3.66090
#
# Compressibility (1/GPa) = 0.03077844
#
# Stress axis : x y z
#
# Youngs Moduli (GPa) = 128.95252 99.18998 53.23328
#
# Poissons Ratio (x) = 0.14726 0.10866
# Poissons Ratio (y) = 0.19144 -0.03216
# Poissons Ratio (z) = 0.26322 -0.05993
#
# Static dielectric constant tensor:
#      x y z
#    x 1.878630 0.000000 0.000000 
#    y 0.000000 -0.602640 0.000000 
#    z 0.000000 0.000000 2.110080 
# 
# From -- ./inp_files/46755.got.cif
#   From: 2010.05.17/outbox.cif.g08.bks.cpg/sg70_24_cif.got.tgz:46755.got - 2010.06.03 15:57:51.
