data_PCOD9516287
_publ_section_title
;
Structure prediction by ZEFSAII (Michael W. Deem and Ramdas Pophale) SiO2 
 PCOD9516287
Probable space group: F D D D
;
_chemical_formula_sum "Si O2"
_cell_formula_units_Z 96
_cell_length_a 15.046861
_cell_length_b 18.796896
_cell_length_c 15.070312
_cell_angle_alpha 90.000000
_cell_angle_beta 90.000000
_cell_angle_gamma 90.000000
_cell_volume 4262.400864
_symmetry_space_group_name_H-M "F D D D"
_symmetry_group_IT_number 70
_space_group.IT_coordinate_system_code '2'
_symmetry_cell_setting 'orthorhombic'
loop_
_space_group_symop_operation_xyz
x,y,z
1/4-x,1/4-y,z
x,1/4-y,1/4-z
1/4-x,y,1/4-z
-x,-y,-z
3/4+x,3/4+y,-z
-x,3/4+y,3/4+z
3/4+x,-y,3/4+z
x,1/2+y,1/2+z
1/4-x,3/4-y,1/2+z
x,3/4-y,3/4-z
1/4-x,1/2+y,3/4-z
-x,1/2-y,1/2-z
3/4+x,1/4+y,1/2-z
-x,1/4+y,1/4+z
3/4+x,1/2-y,1/4+z
1/2+x,y,1/2+z
3/4-x,1/4-y,1/2+z
1/2+x,1/4-y,3/4-z
3/4-x,y,3/4-z
1/2-x,-y,1/2-z
1/4+x,3/4+y,1/2-z
1/2-x,3/4+y,1/4+z
1/4+x,-y,1/4+z
1/2+x,1/2+y,z
3/4-x,3/4-y,z
1/2+x,3/4-y,1/4-z
3/4-x,1/2+y,1/4-z
1/2-x,1/2-y,-z
1/4+x,1/4+y,-z
1/2-x,1/4+y,3/4+z
1/4+x,1/2-y,3/4+z
loop_
_atom_site_type_symbol
_atom_site_label
_atom_site_fract_x
_atom_site_fract_y
_atom_site_fract_z
Si Si1 0.100487 0.273426 0.725962
Si Si2 0.083644 0.049042 0.892503
Si Si3 0.395461 0.562022 0.971226
O O1 0.125000 0.253771 0.625000
O O2 0.169228 0.238657 0.796343
O O3 0.106134 0.359393 0.730725
O O4 0.000000 0.250000 0.750000
O O5 0.125000 0.125000 0.874801
O O6 0.001489 0.068044 0.957901
O O7 0.133393 0.989654 0.950825
O O8 0.375000 0.529778 0.875000
#
# Coordination Sequence:
#
# PCOD9516287 Si02
#       3
#    32  32  32
#     4  11  25  48  74 104 148 196 243 303 365 441
#     4  11  24  43  70 103 140 184 239 294 363 429
#     4  10  24  43  71  99 143 182 238 300 353 439
#
# _framework density 22.522518000000002
#
# number of rings (size 3 to 8) (size 9 to 14) (size 15 to 20)
#    0.000    1.333    0.000    5.000    9.333    1.333 
#    6.000    0.000    0.000    0.000    0.000    0.000 
#    0.000    0.000    0.000    0.000    0.000    0.000 
#
# Total GULP energy -133850.295989 kJ/mol
# GULP energy per Si atom -5577.095666 kJ/mol
# Density = 2.247126 g / cm^3
# Si number density = 22.522518 Si / 1000 Ang^3
#
#
#
# Elastic Constant Matrix: (Units=GPa)
#
#
# Indices 1 2 3 4 5 6 
#
# 1 65.0801 26.1774 15.7467 0.0000 0.0000 0.0000
# 2 26.1774 89.6514 100.6739 0.0000 0.0000 0.0000
# 3 15.7467 100.6739 181.7053 0.0000 0.0000 0.0000
# 4 0.0000 0.0000 0.0000 11.4385 0.0000 0.0000
# 5 0.0000 0.0000 0.0000 0.0000 -287.4518 0.0000
# 6 0.0000 0.0000 0.0000 0.0000 0.0000 20.9658
#
#
#
# Elastic Compliance Matrix: (Units=1/GPa)
#
#
# Indices 1 2 3 4 5 6 
#
# 1 0.018274 -0.009416 0.003633 0.000000 0.000000 0.000000
# 2 -0.009416 0.034373 -0.018229 0.000000 0.000000 0.000000
# 3 0.003633 -0.018229 0.015288 0.000000 0.000000 0.000000
# 4 0.000000 0.000000 0.000000 0.087424 0.000000 0.000000
# 5 0.000000 0.000000 0.000000 0.000000 -0.003479 0.000000
# 6 0.000000 0.000000 0.000000 0.000000 0.000000 0.047697
#
#
# Mechanical properties :
#
#
# Convention : Reuss Voigt Hill
#
# Bulk Modulus (GPa) = 50.21800 69.07031 59.64415
# Shear Modulus (GPa) = 19.66667 -38.08691 -9.21012
#
# Velocity S-wave (km/s) = 2.95820 -4.11671 -2.02439
# Velocity P-wave (km/s) = 5.83208 2.85261 4.59078
#
# Compressibility (1/GPa) = 0.01991318
#
# Stress axis : x y z
#
# Youngs Moduli (GPa) = 54.72290 29.09230 65.41018
#
# Poissons Ratio (x) = 0.27392 -0.23764
# Poissons Ratio (y) = 0.51525 1.19234
# Poissons Ratio (z) = -0.19881 0.53031
#
# Static dielectric constant tensor:
#      x y z
#    x 2.675630 0.000000 0.000000 
#    y 0.000000 1.797800 0.000000 
#    z 0.000000 0.000000 1.842790 
# 
# From -- ./inp_files/17055.got.cif
#   From: 2010.05.17/outbox.cif.g08.bks.cpg/sg70_9_cif.got.tgz:17055.got - 2010.06.03 15:57:51.
