data_PCOD9516134
_publ_section_title
;
Structure prediction by ZEFSAII (Michael W. Deem and Ramdas Pophale) SiO2 
 PCOD9516134
Probable space group: F D D D
;
_chemical_formula_sum "Si O2"
_cell_formula_units_Z 112
_cell_length_a 16.405166
_cell_length_b 14.381153
_cell_length_c 22.336759
_cell_angle_alpha 90.000000
_cell_angle_beta 90.000000
_cell_angle_gamma 90.000000
_cell_volume 5269.804384
_symmetry_space_group_name_H-M "F D D D"
_symmetry_group_IT_number 70
_space_group.IT_coordinate_system_code '2'
_symmetry_cell_setting 'orthorhombic'
loop_
_space_group_symop_operation_xyz
x,y,z
1/4-x,1/4-y,z
x,1/4-y,1/4-z
1/4-x,y,1/4-z
-x,-y,-z
3/4+x,3/4+y,-z
-x,3/4+y,3/4+z
3/4+x,-y,3/4+z
x,1/2+y,1/2+z
1/4-x,3/4-y,1/2+z
x,3/4-y,3/4-z
1/4-x,1/2+y,3/4-z
-x,1/2-y,1/2-z
3/4+x,1/4+y,1/2-z
-x,1/4+y,1/4+z
3/4+x,1/2-y,1/4+z
1/2+x,y,1/2+z
3/4-x,1/4-y,1/2+z
1/2+x,1/4-y,3/4-z
3/4-x,y,3/4-z
1/2-x,-y,1/2-z
1/4+x,3/4+y,1/2-z
1/2-x,3/4+y,1/4+z
1/4+x,-y,1/4+z
1/2+x,1/2+y,z
3/4-x,3/4-y,z
1/2+x,3/4-y,1/4-z
3/4-x,1/2+y,1/4-z
1/2-x,1/2-y,-z
1/4+x,1/4+y,-z
1/2-x,1/4+y,3/4+z
1/4+x,1/2-y,3/4+z
loop_
_atom_site_type_symbol
_atom_site_label
_atom_site_fract_x
_atom_site_fract_y
_atom_site_fract_z
Si Si1 0.970472 0.894175 0.992248
Si Si2 0.032667 0.253998 0.909956
Si Si3 0.322801 0.125000 0.125000
Si Si4 0.461727 0.826794 0.792139
O O1 0.875000 0.875000 0.979970
O O2 0.020596 0.859645 0.934699
O O3 0.983028 0.840126 0.055219
O O4 0.000000 0.000000 0.000000
O O5 0.120271 0.282551 0.882946
O O6 0.022172 0.335586 0.958548
O O7 0.968567 0.278805 0.857736
O O8 0.500000 0.750000 0.750000
O O9 0.375000 0.875000 0.779519
#
# Coordination Sequence:
#
# PCOD9516134 Si02
#       4
#    32  32  16  32
#     4  12  25  45  74 107 152 202 257 315 388 465
#     4  10  24  44  68 103 151 188 252 320 380 463
#     4  10  23  46  67 106 146 192 256 310 385 458
#     4  10  23  42  70 106 144 196 252 314 391 458
#
# _framework density 21.253162
#
# number of rings (size 3 to 8) (size 9 to 14) (size 15 to 20)
#    0.000    1.714    2.857    2.143    8.000    3.429 
#    0.000    2.857    0.000    0.000    0.000    0.000 
#    0.000    0.000    0.000    0.000    0.000    0.000 
#
# Total GULP energy -156019.669193 kJ/mol
# GULP energy per Si atom -5572.131043 kJ/mol
# Density = 2.120479 g / cm^3
# Si number density = 21.253162 Si / 1000 Ang^3
#
#
#
# Elastic Constant Matrix: (Units=GPa)
#
#
# Indices 1 2 3 4 5 6 
#
# 1 147.4557 62.6029 64.5340 0.0000 0.0000 0.0000
# 2 62.6029 173.4046 78.9827 0.0000 0.0000 0.0000
# 3 64.5340 78.9827 107.0184 0.0000 0.0000 0.0000
# 4 0.0000 0.0000 0.0000 53.6149 0.0000 0.0000
# 5 0.0000 0.0000 0.0000 0.0000 24.8948 0.0000
# 6 0.0000 0.0000 0.0000 0.0000 0.0000 33.3612
#
#
#
# Elastic Compliance Matrix: (Units=1/GPa)
#
#
# Indices 1 2 3 4 5 6 
#
# 1 0.009382 -0.001220 -0.004757 0.000000 0.000000 0.000000
# 2 -0.001220 0.008846 -0.005793 0.000000 0.000000 0.000000
# 3 -0.004757 -0.005793 0.016488 0.000000 0.000000 0.000000
# 4 0.000000 0.000000 0.000000 0.018652 0.000000 0.000000
# 5 0.000000 0.000000 0.000000 0.000000 0.040169 0.000000
# 6 0.000000 0.000000 0.000000 0.000000 0.000000 0.029975
#
#
# Mechanical properties :
#
#
# Convention : Reuss Voigt Hill
#
# Bulk Modulus (GPa) = 89.47820 93.34642 91.41231
# Shear Modulus (GPa) = 33.16205 37.15813 35.16009
#
# Velocity S-wave (km/s) = 3.95439 4.18587 4.07178
# Velocity P-wave (km/s) = 7.93991 8.20845 8.07529
#
# Compressibility (1/GPa) = 0.01117591
#
# Stress axis : x y z
#
# Youngs Moduli (GPa) = 106.59247 113.04708 60.65195
#
# Poissons Ratio (x) = 0.13797 0.28849
# Poissons Ratio (y) = 0.13009 0.35133
# Poissons Ratio (z) = 0.50701 0.65483
#
# Static dielectric constant tensor:
#      x y z
#    x 1.892560 0.000000 0.000000 
#    y 0.000000 1.851410 0.000000 
#    z 0.000000 0.000000 1.846830 
# 
# From -- ./inp_files/50850.got.cif
#   From: 2010.05.17/outbox.cif.g08.bks.cpg/sg70_26_cif.got.tgz:50850.got - 2010.06.03 15:57:51.
