data_PCOD9516738
_publ_section_title
;
Structure prediction by ZEFSAII (Michael W. Deem and Ramdas Pophale) SiO2 
 PCOD9516738
Probable space group: F D D D
;
_chemical_formula_sum "Si O2"
_cell_formula_units_Z 64
_cell_length_a 12.488167
_cell_length_b 24.353807
_cell_length_c 8.359269
_cell_angle_alpha 90.000000
_cell_angle_beta 90.000000
_cell_angle_gamma 90.000000
_cell_volume 2542.341336
_symmetry_space_group_name_H-M "F D D D"
_symmetry_group_IT_number 70
_space_group.IT_coordinate_system_code '2'
_symmetry_cell_setting 'orthorhombic'
loop_
_space_group_symop_operation_xyz
x,y,z
1/4-x,1/4-y,z
x,1/4-y,1/4-z
1/4-x,y,1/4-z
-x,-y,-z
3/4+x,3/4+y,-z
-x,3/4+y,3/4+z
3/4+x,-y,3/4+z
x,1/2+y,1/2+z
1/4-x,3/4-y,1/2+z
x,3/4-y,3/4-z
1/4-x,1/2+y,3/4-z
-x,1/2-y,1/2-z
3/4+x,1/4+y,1/2-z
-x,1/4+y,1/4+z
3/4+x,1/2-y,1/4+z
1/2+x,y,1/2+z
3/4-x,1/4-y,1/2+z
1/2+x,1/4-y,3/4-z
3/4-x,y,3/4-z
1/2-x,-y,1/2-z
1/4+x,3/4+y,1/2-z
1/2-x,3/4+y,1/4+z
1/4+x,-y,1/4+z
1/2+x,1/2+y,z
3/4-x,3/4-y,z
1/2+x,3/4-y,1/4-z
3/4-x,1/2+y,1/4-z
1/2-x,1/2-y,-z
1/4+x,1/4+y,-z
1/2-x,1/4+y,3/4+z
1/4+x,1/2-y,3/4+z
loop_
_atom_site_type_symbol
_atom_site_label
_atom_site_fract_x
_atom_site_fract_y
_atom_site_fract_z
Si Si1 0.020990 0.344416 0.702359
Si Si2 0.679799 0.553039 0.291207
O O1 0.125000 0.315999 0.625000
O O2 0.027579 0.375000 0.875000
O O3 0.245665 0.396928 0.661503
O O4 0.916386 0.305799 0.673522
O O5 0.750000 0.500000 0.250000
O O6 0.625000 0.565014 0.125000
#
# Coordination Sequence:
#
# PCOD9516738 Si02
#       2
#    32  32
#     4  11  23  46  72 100 143 194 240 304 371 433
#     4  11  23  42  69 103 140 182 237 297 363 442
#
# _framework density 25.173646999999999
#
# number of rings (size 3 to 8) (size 9 to 14) (size 15 to 20)
#    0.000    1.000    0.000   10.500    0.000    0.000 
#    0.000   35.000    0.000    0.000    0.000    0.000 
#    0.000    0.000    0.000    0.000    0.000    0.000 
#
# Total GULP energy -89328.319969 kJ/mol
# GULP energy per Si atom -5583.019998 kJ/mol
# Density = 2.511635 g / cm^3
# Si number density = 25.173647 Si / 1000 Ang^3
#
#
#
# Elastic Constant Matrix: (Units=GPa)
#
#
# Indices 1 2 3 4 5 6 
#
# 1 170.8330 55.6376 43.4040 0.0000 0.0000 0.0000
# 2 55.6376 137.8050 42.5007 0.0000 0.0000 0.0000
# 3 43.4040 42.5007 188.5333 0.0000 0.0000 0.0000
# 4 0.0000 0.0000 0.0000 25.6692 0.0000 0.0000
# 5 0.0000 0.0000 0.0000 0.0000 43.4046 0.0000
# 6 0.0000 0.0000 0.0000 0.0000 0.0000 15.6518
#
#
#
# Elastic Compliance Matrix: (Units=1/GPa)
#
#
# Indices 1 2 3 4 5 6 
#
# 1 0.006923 -0.002476 -0.001036 0.000000 0.000000 0.000000
# 2 -0.002476 0.008684 -0.001388 0.000000 0.000000 0.000000
# 3 -0.001036 -0.001388 0.005855 0.000000 0.000000 0.000000
# 4 0.000000 0.000000 0.000000 0.038957 0.000000 0.000000
# 5 0.000000 0.000000 0.000000 0.000000 0.023039 0.000000
# 6 0.000000 0.000000 0.000000 0.000000 0.000000 0.063890
#
#
# Mechanical properties :
#
#
# Convention : Reuss Voigt Hill
#
# Bulk Modulus (GPa) = 85.73129 86.69512 86.21321
# Shear Modulus (GPa) = 31.04902 40.65372 35.85137
#
# Velocity S-wave (km/s) = 3.51578 4.02298 3.77790
# Velocity P-wave (km/s) = 7.11413 7.48951 7.30423
#
# Compressibility (1/GPa) = 0.01166435
#
# Stress axis : x y z
#
# Youngs Moduli (GPa) = 144.44340 115.15214 170.78322
#
# Poissons Ratio (x) = 0.28508 0.17689
# Poissons Ratio (y) = 0.35760 0.23700
# Poissons Ratio (z) = 0.14961 0.15980
#
# Static dielectric constant tensor:
#      x y z
#    x 2.274810 0.000000 0.000000 
#    y 0.000000 1.435560 0.000000 
#    z 0.000000 0.000000 2.003970 
# 
# From -- ./inp_files/13169.got.cif
#   From: 2010.05.17/outbox.cif.g08.bks.cpg/sg70_7_cif.got.tgz:13169.got - 2010.06.03 15:57:51.
