data_PCOD9516167
_publ_section_title
;
Structure prediction by ZEFSAII (Michael W. Deem and Ramdas Pophale) SiO2 
 PCOD9516167
Probable space group: F D D D
;
_chemical_formula_sum "Si O2"
_cell_formula_units_Z 192
_cell_length_a 25.877689
_cell_length_b 26.881686
_cell_length_c 12.005161
_cell_angle_alpha 90.000000
_cell_angle_beta 90.000000
_cell_angle_gamma 90.000000
_cell_volume 8351.221098
_symmetry_space_group_name_H-M "F D D D"
_symmetry_group_IT_number 70
_space_group.IT_coordinate_system_code '2'
_symmetry_cell_setting 'orthorhombic'
loop_
_space_group_symop_operation_xyz
x,y,z
1/4-x,1/4-y,z
x,1/4-y,1/4-z
1/4-x,y,1/4-z
-x,-y,-z
3/4+x,3/4+y,-z
-x,3/4+y,3/4+z
3/4+x,-y,3/4+z
x,1/2+y,1/2+z
1/4-x,3/4-y,1/2+z
x,3/4-y,3/4-z
1/4-x,1/2+y,3/4-z
-x,1/2-y,1/2-z
3/4+x,1/4+y,1/2-z
-x,1/4+y,1/4+z
3/4+x,1/2-y,1/4+z
1/2+x,y,1/2+z
3/4-x,1/4-y,1/2+z
1/2+x,1/4-y,3/4-z
3/4-x,y,3/4-z
1/2-x,-y,1/2-z
1/4+x,3/4+y,1/2-z
1/2-x,3/4+y,1/4+z
1/4+x,-y,1/4+z
1/2+x,1/2+y,z
3/4-x,3/4-y,z
1/2+x,3/4-y,1/4-z
3/4-x,1/2+y,1/4-z
1/2-x,1/2-y,-z
1/4+x,1/4+y,-z
1/2-x,1/4+y,3/4+z
1/4+x,1/2-y,3/4+z
loop_
_atom_site_type_symbol
_atom_site_label
_atom_site_fract_x
_atom_site_fract_y
_atom_site_fract_z
Si Si1 0.560388 0.817129 0.028429
Si Si2 0.989408 0.875000 0.875000
Si Si3 0.405938 0.426224 0.514958
Si Si4 0.780216 0.959956 0.030809
Si Si5 0.840760 0.526261 0.980022
Si Si6 0.515952 0.625000 0.625000
Si Si7 0.078707 0.925930 0.977421
O O1 0.562724 0.798315 0.156855
O O2 0.556002 0.764232 0.968551
O O3 0.517297 0.853363 0.977788
O O4 0.614423 0.844180 0.002424
O O5 0.030364 0.889061 0.970461
O O6 0.962990 0.925182 0.830174
O O7 0.375000 0.375000 0.518919
O O8 0.440315 0.430714 0.624173
O O9 0.368177 0.472924 0.500852
O O10 0.447439 0.419361 0.416817
O O11 0.719603 0.970467 0.053291
O O12 0.875000 0.547290 0.875000
O O13 0.836389 0.548795 0.106748
#
# Coordination Sequence:
#
# PCOD9516167 Si02
#       7
#    32  16  32  32  32  16  32
#     4  11  23  44  71 104 140 192 246 301 384 454
#     4  10  23  44  63 105 138 189 241 303 376 448
#     4  12  25  45  67 106 148 188 248 315 380 456
#     4  11  25  44  73 103 142 199 247 308 385 456
#     4  11  24  43  71 101 143 190 250 308 372 460
#     4  12  26  42  74 107 142 193 244 315 389 454
#     4  10  23  44  66  99 144 184 241 312 363 446
#
# _framework density 22.990649999999999
#
# number of rings (size 3 to 8) (size 9 to 14) (size 15 to 20)
#    0.000    1.000    1.667    4.750    2.333    5.333 
#   12.000    0.000    0.000    0.000    0.000    0.000 
#    0.000    0.000    0.000    0.000    0.000    0.000 
#
# Total GULP energy -267379.742782 kJ/mol
# GULP energy per Si atom -5570.411308 kJ/mol
# Density = 2.293832 g / cm^3
# Si number density = 22.990650 Si / 1000 Ang^3
#
#
#
# Elastic Constant Matrix: (Units=GPa)
#
#
# Indices 1 2 3 4 5 6 
#
# 1 89.5617 27.7240 54.8023 0.0000 0.0000 0.0000
# 2 27.7240 93.5226 38.5876 0.0000 0.0000 0.0000
# 3 54.8023 38.5876 126.8891 -0.0001 -0.0002 0.0000
# 4 0.0000 0.0000 -0.0001 38.2262 -0.0001 0.0000
# 5 0.0000 0.0000 -0.0002 -0.0001 77.8228 0.0000
# 6 0.0000 0.0000 0.0000 0.0000 0.0000 5.4519
#
#
#
# Elastic Compliance Matrix: (Units=1/GPa)
#
#
# Indices 1 2 3 4 5 6 
#
# 1 0.015528 -0.002100 -0.006068 0.000000 0.000000 0.000000
# 2 -0.002100 0.012511 -0.002898 0.000000 0.000000 0.000000
# 3 -0.006068 -0.002898 0.011383 0.000000 0.000000 0.000000
# 4 0.000000 0.000000 0.000000 0.026160 0.000000 0.000000
# 5 0.000000 0.000000 0.000000 0.000000 0.012850 0.000000
# 6 0.000000 0.000000 0.000000 0.000000 0.000000 0.183422
#
#
# Mechanical properties :
#
#
# Convention : Reuss Voigt Hill
#
# Bulk Modulus (GPa) = 57.83330 61.35571 59.59450
# Shear Modulus (GPa) = 17.25633 36.89080 27.07357
#
# Velocity S-wave (km/s) = 2.74264 4.01009 3.43533
# Velocity P-wave (km/s) = 5.93626 6.94163 6.45854
#
# Compressibility (1/GPa) = 0.01729108
#
# Stress axis : x y z
#
# Youngs Moduli (GPa) = 64.39788 79.93210 87.85116
#
# Poissons Ratio (x) = 0.16782 0.53309
# Poissons Ratio (y) = 0.13521 0.25457
# Poissons Ratio (z) = 0.39077 0.23162
#
# Static dielectric constant tensor:
#      x y z
#    x 1.842340 0.000000 0.000000 
#    y 0.000000 1.909280 0.000000 
#    z 0.000000 0.000000 1.977220 
# 
# From -- ./inp_files/21242.got.cif
#   From: 2010.05.17/outbox.cif.g08.bks.cpg/sg70_11_cif.got.tgz:21242.got - 2010.06.03 15:57:51.
