data_PCOD9516951
_publ_section_title
;
Structure prediction by ZEFSAII (Michael W. Deem and Ramdas Pophale) SiO2 
 PCOD9516951
Probable space group: F D D D
;
_chemical_formula_sum "Si O2"
_cell_formula_units_Z 160
_cell_length_a 28.950524
_cell_length_b 8.269219
_cell_length_c 27.973846
_cell_angle_alpha 90.000000
_cell_angle_beta 90.000000
_cell_angle_gamma 90.000000
_cell_volume 6696.889026
_symmetry_space_group_name_H-M "F D D D"
_symmetry_group_IT_number 70
_space_group.IT_coordinate_system_code '2'
_symmetry_cell_setting 'orthorhombic'
loop_
_space_group_symop_operation_xyz
x,y,z
1/4-x,1/4-y,z
x,1/4-y,1/4-z
1/4-x,y,1/4-z
-x,-y,-z
3/4+x,3/4+y,-z
-x,3/4+y,3/4+z
3/4+x,-y,3/4+z
x,1/2+y,1/2+z
1/4-x,3/4-y,1/2+z
x,3/4-y,3/4-z
1/4-x,1/2+y,3/4-z
-x,1/2-y,1/2-z
3/4+x,1/4+y,1/2-z
-x,1/4+y,1/4+z
3/4+x,1/2-y,1/4+z
1/2+x,y,1/2+z
3/4-x,1/4-y,1/2+z
1/2+x,1/4-y,3/4-z
3/4-x,y,3/4-z
1/2-x,-y,1/2-z
1/4+x,3/4+y,1/2-z
1/2-x,3/4+y,1/4+z
1/4+x,-y,1/4+z
1/2+x,1/2+y,z
3/4-x,3/4-y,z
1/2+x,3/4-y,1/4-z
3/4-x,1/2+y,1/4-z
1/2-x,1/2-y,-z
1/4+x,1/4+y,-z
1/2-x,1/4+y,3/4+z
1/4+x,1/2-y,3/4+z
loop_
_atom_site_type_symbol
_atom_site_label
_atom_site_fract_x
_atom_site_fract_y
_atom_site_fract_z
Si Si1 0.472675 0.046084 0.346830
Si Si2 0.671791 0.314242 0.525806
Si Si3 0.375000 0.671453 0.375000
Si Si4 0.625000 0.125000 0.268620
Si Si5 0.476372 0.298495 0.014202
Si Si6 0.947856 0.228574 0.665011
O O1 0.423459 0.138689 0.352926
O O2 0.513000 0.167638 0.361062
O O3 0.475396 0.875000 0.375000
O O4 0.479910 0.005844 0.291042
O O5 0.649864 0.259171 0.576363
O O6 0.639819 0.464316 0.510054
O O7 0.725004 0.374364 0.530826
O O8 0.681967 0.170087 0.488044
O O9 0.582872 0.156297 0.303624
O O10 0.468468 0.145702 0.047028
O O11 0.921586 0.125000 0.625000
#
# Coordination Sequence:
#
# PCOD9516951 Si02
#       6
#    32  32  16  16  32  32
#     4  12  25  47  76 114 157 200 271 337 421 493
#     4  11  26  46  76 113 157 205 260 327 418 485
#     4  12  25  43  76 122 151 205 264 338 401 507
#     4  12  28  49  72 110 150 202 265 338 402 492
#     4  11  25  51  75 108 163 212 251 339 427 485
#     4  12  29  48  74 105 148 209 273 330 402 499
#
# _framework density 23.891691000000002
#
# number of rings (size 3 to 8) (size 9 to 14) (size 15 to 20)
#    0.000    0.400    4.000    3.300    5.600    5.200 
#    0.000    0.000    0.000    0.000    0.000    0.000 
#    0.000    0.000    0.000    0.000    0.000    0.000 
#
# Total GULP energy -223119.390446 kJ/mol
# GULP energy per Si atom -5577.984761 kJ/mol
# Density = 2.383731 g / cm^3
# Si number density = 23.891691 Si / 1000 Ang^3
#
#
#
# Elastic Constant Matrix: (Units=GPa)
#
#
# Indices 1 2 3 4 5 6 
#
# 1 138.4900 29.4061 30.1694 0.0000 0.0000 -0.0001
# 2 29.4061 68.2261 25.7829 0.0001 0.0000 0.0000
# 3 30.1694 25.7829 114.4025 0.0000 0.0000 0.0000
# 4 0.0000 0.0001 0.0000 16.4240 0.0000 0.0000
# 5 0.0000 0.0000 0.0000 0.0000 39.9788 0.0000
# 6 -0.0001 0.0000 0.0000 0.0000 0.0000 32.2129
#
#
#
# Elastic Compliance Matrix: (Units=1/GPa)
#
#
# Indices 1 2 3 4 5 6 
#
# 1 0.008174 -0.002960 -0.001488 0.000000 0.000000 0.000000
# 2 -0.002960 0.017094 -0.003072 0.000000 0.000000 0.000000
# 3 -0.001488 -0.003072 0.009826 0.000000 0.000000 0.000000
# 4 0.000000 0.000000 0.000000 0.060887 0.000000 0.000000
# 5 0.000000 0.000000 0.000000 0.000000 0.025013 0.000000
# 6 0.000000 0.000000 0.000000 0.000000 0.000000 0.031043
#
#
# Mechanical properties :
#
#
# Convention : Reuss Voigt Hill
#
# Bulk Modulus (GPa) = 49.86942 54.64838 52.25890
# Shear Modulus (GPa) = 28.77503 33.44049 31.10776
#
# Velocity S-wave (km/s) = 3.47420 3.74528 3.61228
# Velocity P-wave (km/s) = 6.08374 6.45181 6.27048
#
# Compressibility (1/GPa) = 0.02005237
#
# Stress axis : x y z
#
# Youngs Moduli (GPa) = 122.34580 58.50015 101.77260
#
# Poissons Ratio (x) = 0.17319 0.15147
# Poissons Ratio (y) = 0.36220 0.31262
# Poissons Ratio (z) = 0.18208 0.17970
#
# Static dielectric constant tensor:
#      x y z
#    x 1.999940 0.000000 0.000000 
#    y 0.000000 1.998720 0.000000 
#    z 0.000000 0.000000 1.896440 
# 
# From -- ./inp_files/68871.got.cif
#   From: 2010.05.17/outbox.cif.g08.bks.cpg/sg70_35_cif.got.tgz:68871.got - 2010.06.03 15:57:51.
