data_PCOD9516629
_publ_section_title
;
Structure prediction by ZEFSAII (Michael W. Deem and Ramdas Pophale) SiO2 
 PCOD9516629
Probable space group: F D D D
;
_chemical_formula_sum "Si O2"
_cell_formula_units_Z 216
_cell_length_a 24.278245
_cell_length_b 12.132109
_cell_length_c 30.548947
_cell_angle_alpha 90.000000
_cell_angle_beta 90.000000
_cell_angle_gamma 90.000000
_cell_volume 8998.079756
_symmetry_space_group_name_H-M "F D D D"
_symmetry_group_IT_number 70
_space_group.IT_coordinate_system_code '2'
_symmetry_cell_setting 'orthorhombic'
loop_
_space_group_symop_operation_xyz
x,y,z
1/4-x,1/4-y,z
x,1/4-y,1/4-z
1/4-x,y,1/4-z
-x,-y,-z
3/4+x,3/4+y,-z
-x,3/4+y,3/4+z
3/4+x,-y,3/4+z
x,1/2+y,1/2+z
1/4-x,3/4-y,1/2+z
x,3/4-y,3/4-z
1/4-x,1/2+y,3/4-z
-x,1/2-y,1/2-z
3/4+x,1/4+y,1/2-z
-x,1/4+y,1/4+z
3/4+x,1/2-y,1/4+z
1/2+x,y,1/2+z
3/4-x,1/4-y,1/2+z
1/2+x,1/4-y,3/4-z
3/4-x,y,3/4-z
1/2-x,-y,1/2-z
1/4+x,3/4+y,1/2-z
1/2-x,3/4+y,1/4+z
1/4+x,-y,1/4+z
1/2+x,1/2+y,z
3/4-x,3/4-y,z
1/2+x,3/4-y,1/4-z
3/4-x,1/2+y,1/4-z
1/2-x,1/2-y,-z
1/4+x,1/4+y,-z
1/2-x,1/4+y,3/4+z
1/4+x,1/2-y,3/4+z
loop_
_atom_site_type_symbol
_atom_site_label
_atom_site_fract_x
_atom_site_fract_y
_atom_site_fract_z
Si Si1 0.212420 0.254806 0.892915
Si Si2 0.241021 0.491299 0.492220
Si Si3 0.694029 0.472431 0.777088
Si Si4 0.445307 0.185634 0.913119
Si Si5 0.573177 0.043616 0.488712
Si Si6 0.375000 0.875000 0.375000
Si Si7 0.125000 0.125000 0.410464
Si Si8 0.102548 0.325854 0.540321
O O1 0.226086 0.375000 0.875000
O O2 0.264070 0.176959 0.878635
O O3 0.196281 0.258825 0.943245
O O4 0.159092 0.210780 0.868048
O O5 0.203167 0.408210 0.463429
O O6 0.231476 0.446746 0.542298
O O7 0.223095 0.616947 0.499008
O O8 0.298172 0.501704 0.465573
O O9 0.750000 0.500000 0.750000
O O10 0.672174 0.554420 0.814144
O O11 0.642708 0.476869 0.745074
O O12 0.412354 0.298222 0.905059
O O13 0.396512 0.096577 0.920484
O O14 0.625000 0.125000 0.482256
O O15 0.586796 0.949415 0.523667
#
# Coordination Sequence:
#
# PCOD9516629 Si02
#       8
#    32  32  32  32  32   8  16  32
#     4  12  26  42  65  98 139 177 222 284 362 424
#     4  11  24  42  69  97 133 180 235 287 346 419
#     4  11  22  40  64  96 132 174 235 285 339 410
#     4  11  23  40  61  97 133 176 223 280 350 425
#     4  12  22  43  65 101 132 175 230 288 353 420
#     4  12  24  36  58  92 136 178 212 276 360 408
#     4  12  24  40  67  94 136 179 228 295 352 411
#     4  11  23  41  70  96 138 177 233 284 349 413
#
# _framework density 24.005123000000001
#
# number of rings (size 3 to 8) (size 9 to 14) (size 15 to 20)
#    0.000    0.593    4.444    6.667    2.074    0.000 
#    0.000    0.000    0.000    0.000    0.000    0.000 
#    0.000    0.000    0.000    0.000    0.000    0.000 
#
# Total GULP energy -301363.870891 kJ/mol
# GULP energy per Si atom -5580.812424 kJ/mol
# Density = 2.395049 g / cm^3
# Si number density = 24.005123 Si / 1000 Ang^3
#
#
#
# Elastic Constant Matrix: (Units=GPa)
#
#
# Indices 1 2 3 4 5 6 
#
# 1 134.7427 15.7373 30.6849 0.0000 0.0000 0.0000
# 2 15.7373 66.5021 29.1123 0.0000 0.0000 0.0000
# 3 30.6849 29.1123 54.7232 0.0000 0.0000 0.0000
# 4 0.0000 0.0000 0.0000 22.2533 0.0000 0.0000
# 5 0.0000 0.0000 0.0000 0.0000 24.9794 0.0000
# 6 0.0000 0.0000 0.0000 0.0000 0.0000 40.5837
#
#
#
# Elastic Compliance Matrix: (Units=1/GPa)
#
#
# Indices 1 2 3 4 5 6 
#
# 1 0.008508 0.000098 -0.004823 0.000000 0.000000 0.000000
# 2 0.000098 0.019603 -0.010484 0.000000 0.000000 0.000000
# 3 -0.004823 -0.010484 0.026555 0.000000 0.000000 0.000000
# 4 0.000000 0.000000 0.000000 0.044937 0.000000 0.000000
# 5 0.000000 0.000000 0.000000 0.000000 0.040033 0.000000
# 6 0.000000 0.000000 0.000000 0.000000 0.000000 0.024640
#
#
# Mechanical properties :
#
#
# Convention : Reuss Voigt Hill
#
# Bulk Modulus (GPa) = 41.23785 45.22633 43.23209
# Shear Modulus (GPa) = 24.65743 29.59219 27.12481
#
# Velocity S-wave (km/s) = 3.20843 3.51486 3.36513
# Velocity P-wave (km/s) = 5.56250 5.94588 5.75738
#
# Compressibility (1/GPa) = 0.02424956
#
# Stress axis : x y z
#
# Youngs Moduli (GPa) = 117.53007 51.01164 37.65711
#
# Poissons Ratio (x) = -0.00499 0.18162
# Poissons Ratio (y) = -0.01150 0.39479
# Poissons Ratio (z) = 0.56685 0.53479
#
# Static dielectric constant tensor:
#      x y z
#    x 1.994940 0.000000 0.000000 
#    y 0.000000 2.105960 0.000000 
#    z 0.000000 0.000000 1.564370 
# 
# From -- ./inp_files/67994.got.cif
#   From: 2010.05.17/outbox.cif.g08.bks.cpg/sg70_34_cif.got.tgz:67994.got - 2010.06.03 15:57:51.
