data_PCOD9516792
_publ_section_title
;
Structure prediction by ZEFSAII (Michael W. Deem and Ramdas Pophale) SiO2 
 PCOD9516792
Probable space group: F D D D
;
_chemical_formula_sum "Si O2"
_cell_formula_units_Z 96
_cell_length_a 12.960335
_cell_length_b 10.511540
_cell_length_c 31.922076
_cell_angle_alpha 90.000000
_cell_angle_beta 90.000000
_cell_angle_gamma 90.000000
_cell_volume 4348.842726
_symmetry_space_group_name_H-M "F D D D"
_symmetry_group_IT_number 70
_space_group.IT_coordinate_system_code '2'
_symmetry_cell_setting 'orthorhombic'
loop_
_space_group_symop_operation_xyz
x,y,z
1/4-x,1/4-y,z
x,1/4-y,1/4-z
1/4-x,y,1/4-z
-x,-y,-z
3/4+x,3/4+y,-z
-x,3/4+y,3/4+z
3/4+x,-y,3/4+z
x,1/2+y,1/2+z
1/4-x,3/4-y,1/2+z
x,3/4-y,3/4-z
1/4-x,1/2+y,3/4-z
-x,1/2-y,1/2-z
3/4+x,1/4+y,1/2-z
-x,1/4+y,1/4+z
3/4+x,1/2-y,1/4+z
1/2+x,y,1/2+z
3/4-x,1/4-y,1/2+z
1/2+x,1/4-y,3/4-z
3/4-x,y,3/4-z
1/2-x,-y,1/2-z
1/4+x,3/4+y,1/2-z
1/2-x,3/4+y,1/4+z
1/4+x,-y,1/4+z
1/2+x,1/2+y,z
3/4-x,3/4-y,z
1/2+x,3/4-y,1/4-z
3/4-x,1/2+y,1/4-z
1/2-x,1/2-y,-z
1/4+x,1/4+y,-z
1/2-x,1/4+y,3/4+z
1/4+x,1/2-y,3/4+z
loop_
_atom_site_type_symbol
_atom_site_label
_atom_site_fract_x
_atom_site_fract_y
_atom_site_fract_z
Si Si1 0.016815 0.048176 0.953381
Si Si2 0.346623 0.227605 0.423928
Si Si3 0.791105 0.125000 0.625000
Si Si4 0.875000 0.875000 0.167569
O O1 0.125000 0.125000 0.947758
O O2 0.929397 0.151464 0.949065
O O3 0.995819 0.938307 0.917902
O O4 0.000000 0.000000 0.000000
O O5 0.375000 0.199674 0.375000
O O6 0.375000 0.375000 0.429725
O O7 0.234232 0.172134 0.436871
O O8 0.851109 0.248120 0.641356
#
# Coordination Sequence:
#
# PCOD9516792 Si02
#       4
#    32  32  16  16
#     4  12  28  48  75 113 156 205 270 337 405 496
#     4  11  23  46  76 110 152 199 260 331 402 486
#     4  12  24  51  73 114 154 204 267 323 408 484
#     4  12  24  42  84 108 148 218 262 324 420 480
#
# _framework density 22.074838
#
# number of rings (size 3 to 8) (size 9 to 14) (size 15 to 20)
#    0.000    0.333    5.000    4.000    4.667    1.333 
#    3.000    3.333    0.000    0.000    0.000    0.000 
#    0.000    0.000    0.000    0.000    0.000    0.000 
#
# Total GULP energy -133641.054603 kJ/mol
# GULP energy per Si atom -5568.377275 kJ/mol
# Density = 2.202459 g / cm^3
# Si number density = 22.074838 Si / 1000 Ang^3
#
#
#
# Elastic Constant Matrix: (Units=GPa)
#
#
# Indices 1 2 3 4 5 6 
#
# 1 198.8066 54.2456 32.9970 0.0000 0.0000 0.0000
# 2 54.2456 96.9731 32.9288 0.0000 0.0000 0.0000
# 3 32.9970 32.9288 111.0415 0.0000 0.0000 0.0000
# 4 0.0000 0.0000 0.0000 -61.2053 0.0000 0.0000
# 5 0.0000 0.0000 0.0000 0.0000 -30.0978 0.0000
# 6 0.0000 0.0000 0.0000 0.0000 0.0000 39.1740
#
#
#
# Elastic Compliance Matrix: (Units=1/GPa)
#
#
# Indices 1 2 3 4 5 6 
#
# 1 0.006012 -0.003065 -0.000878 0.000000 0.000000 0.000000
# 2 -0.003065 0.013029 -0.002953 0.000000 0.000000 0.000000
# 3 -0.000878 -0.002953 0.010142 0.000000 0.000000 0.000000
# 4 0.000000 0.000000 0.000000 -0.016338 0.000000 0.000000
# 5 0.000000 0.000000 0.000000 0.000000 -0.033225 0.000000
# 6 0.000000 0.000000 0.000000 0.000000 0.000000 0.025527
#
#
# Mechanical properties :
#
#
# Convention : Reuss Voigt Hill
#
# Bulk Modulus (GPa) = 64.96772 71.90712 68.43742
# Shear Modulus (GPa) = 207.73378 8.68416 108.20897
#
# Velocity S-wave (km/s) = 9.71126 1.98557 7.00896
# Velocity P-wave (km/s) = 12.45951 6.15643 9.82703
#
# Compressibility (1/GPa) = 0.01539226
#
# Stress axis : x y z
#
# Youngs Moduli (GPa) = 166.33433 76.74938 98.59865
#
# Poissons Ratio (x) = 0.23524 0.08653
# Poissons Ratio (y) = 0.50982 0.29116
# Poissons Ratio (z) = 0.14597 0.22664
#
# Static dielectric constant tensor:
#      x y z
#    x 11.195870 0.000000 0.000000 
#    y 0.000000 1.455300 0.000000 
#    z 0.000000 0.000000 1.711590 
# 
# From -- ./inp_files/65402.got.cif
#   From: 2010.05.17/outbox.cif.g08.bks.cpg/sg70_33_cif.got.tgz:65402.got - 2010.06.03 15:57:51.
