data_PCOD9516063
_publ_section_title
;
Structure prediction by ZEFSAII (Michael W. Deem and Ramdas Pophale) SiO2 
 PCOD9516063
Probable space group: F D D D
;
_chemical_formula_sum "Si O2"
_cell_formula_units_Z 216
_cell_length_a 26.174827
_cell_length_b 13.111621
_cell_length_c 28.638926
_cell_angle_alpha 90.000000
_cell_angle_beta 90.000000
_cell_angle_gamma 90.000000
_cell_volume 9828.719351
_symmetry_space_group_name_H-M "F D D D"
_symmetry_group_IT_number 70
_space_group.IT_coordinate_system_code '2'
_symmetry_cell_setting 'orthorhombic'
loop_
_space_group_symop_operation_xyz
x,y,z
1/4-x,1/4-y,z
x,1/4-y,1/4-z
1/4-x,y,1/4-z
-x,-y,-z
3/4+x,3/4+y,-z
-x,3/4+y,3/4+z
3/4+x,-y,3/4+z
x,1/2+y,1/2+z
1/4-x,3/4-y,1/2+z
x,3/4-y,3/4-z
1/4-x,1/2+y,3/4-z
-x,1/2-y,1/2-z
3/4+x,1/4+y,1/2-z
-x,1/4+y,1/4+z
3/4+x,1/2-y,1/4+z
1/2+x,y,1/2+z
3/4-x,1/4-y,1/2+z
1/2+x,1/4-y,3/4-z
3/4-x,y,3/4-z
1/2-x,-y,1/2-z
1/4+x,3/4+y,1/2-z
1/2-x,3/4+y,1/4+z
1/4+x,-y,1/4+z
1/2+x,1/2+y,z
3/4-x,3/4-y,z
1/2+x,3/4-y,1/4-z
3/4-x,1/2+y,1/4-z
1/2-x,1/2-y,-z
1/4+x,1/4+y,-z
1/2-x,1/4+y,3/4+z
1/4+x,1/2-y,3/4+z
loop_
_atom_site_type_symbol
_atom_site_label
_atom_site_fract_x
_atom_site_fract_y
_atom_site_fract_z
Si Si1 0.207040 0.375000 0.875000
Si Si2 0.993697 0.434419 0.680154
Si Si3 0.892950 0.979392 0.228047
Si Si4 0.104750 0.971575 0.200886
Si Si5 0.477675 0.244748 0.112160
Si Si6 0.591785 0.470564 0.669597
Si Si7 0.625000 0.125000 0.625000
Si Si8 0.370477 0.197602 0.695195
O O1 0.239168 0.281582 0.854369
O O2 0.169856 0.434491 0.837981
O O3 0.953345 0.473438 0.718720
O O4 0.978431 0.330300 0.653052
O O5 0.049339 0.418066 0.702499
O O6 0.875000 0.875000 0.205774
O O7 0.886254 0.981916 0.283252
O O8 0.863884 0.076394 0.206989
O O9 0.147140 0.898920 0.177910
O O10 0.123903 0.996238 0.253050
O O11 0.095457 0.057939 0.162803
O O12 0.478120 0.125000 0.125000
O O13 0.531969 0.261932 0.086690
O O14 0.426130 0.251377 0.081366
O O15 0.625000 0.502696 0.625000
#
# Coordination Sequence:
#
# PCOD9516063 Si02
#       8
#    16  32  32  32  32  32   8  32
#     4  10  23  44  70  97 131 178 230 289 334 398
#     4  11  23  42  66  94 132 171 224 273 336 399
#     4  10  23  39  64  91 128 172 215 267 330 394
#     4  11  23  44  65  96 131 175 224 281 341 404
#     4  12  24  38  67  96 133 174 219 270 334 404
#     4  11  23  42  59  91 132 168 215 264 322 398
#     4  12  22  40  72  92 126 172 228 278 344 388
#     4  10  23  43  64  98 135 171 224 281 341 401
#
# _framework density 21.976413999999998
#
# number of rings (size 3 to 8) (size 9 to 14) (size 15 to 20)
#    0.000    1.185    2.963    2.222    4.148    1.185 
#    0.000    3.704    0.000    8.889    0.000    0.000 
#    0.000    0.000    0.000    0.000    0.000    0.000 
#
# Total GULP energy -300926.403390 kJ/mol
# GULP energy per Si atom -5572.711174 kJ/mol
# Density = 2.192639 g / cm^3
# Si number density = 21.976414 Si / 1000 Ang^3
#
#
#
# Elastic Constant Matrix: (Units=GPa)
#
#
# Indices 1 2 3 4 5 6 
#
# 1 86.5430 14.2267 28.8953 0.0000 0.0000 0.0000
# 2 14.2267 69.9366 22.0999 0.0000 0.0000 0.0000
# 3 28.8953 22.0999 87.2868 0.0000 0.0000 0.0000
# 4 0.0000 0.0000 0.0000 -6.1668 0.0000 0.0000
# 5 0.0000 0.0000 0.0000 0.0000 -8.2972 0.0000
# 6 0.0000 0.0000 0.0000 0.0000 0.0000 34.4820
#
#
#
# Elastic Compliance Matrix: (Units=1/GPa)
#
#
# Indices 1 2 3 4 5 6 
#
# 1 0.013117 -0.001409 -0.003986 0.000000 0.000000 0.000000
# 2 -0.001409 0.015693 -0.003507 0.000000 0.000000 0.000000
# 3 -0.003986 -0.003507 0.013664 0.000000 0.000000 0.000000
# 4 0.000000 0.000000 0.000000 -0.162158 0.000000 0.000000
# 5 0.000000 0.000000 0.000000 0.000000 -0.120522 0.000000
# 6 0.000000 0.000000 0.000000 0.000000 0.000000 0.029001
#
#
# Mechanical properties :
#
#
# Convention : Reuss Voigt Hill
#
# Bulk Modulus (GPa) = 40.53250 41.57890 41.05570
# Shear Modulus (GPa) = -27.00107 15.90656 -5.54725
#
# Velocity S-wave (km/s) = -3.50900 2.69327 -1.59049
# Velocity P-wave (km/s) = 1.43745 5.35093 3.91783
#
# Compressibility (1/GPa) = 0.02467156
#
# Stress axis : x y z
#
# Youngs Moduli (GPa) = 76.23527 63.72080 73.18607
#
# Poissons Ratio (x) = 0.08978 0.29169
# Poissons Ratio (y) = 0.10741 0.25666
# Poissons Ratio (z) = 0.30384 0.22347
#
# Static dielectric constant tensor:
#      x y z
#    x 1.826870 0.000000 0.000000 
#    y 0.000000 1.903880 0.000000 
#    z 0.000000 0.000000 1.808520 
# 
# From -- ./inp_files/68005.got.cif
#   From: 2010.05.17/outbox.cif.g08.bks.cpg/sg70_35_cif.got.tgz:68005.got - 2010.06.03 15:57:51.
