data_PCOD9516277
_publ_section_title
;
Structure prediction by ZEFSAII (Michael W. Deem and Ramdas Pophale) SiO2 
 PCOD9516277
Probable space group: F D D D
;
_chemical_formula_sum "Si O2"
_cell_formula_units_Z 128
_cell_length_a 19.147795
_cell_length_b 27.702195
_cell_length_c 12.678628
_cell_angle_alpha 90.000000
_cell_angle_beta 90.000000
_cell_angle_gamma 90.000000
_cell_volume 6725.200099
_symmetry_space_group_name_H-M "F D D D"
_symmetry_group_IT_number 70
_space_group.IT_coordinate_system_code '2'
_symmetry_cell_setting 'orthorhombic'
loop_
_space_group_symop_operation_xyz
x,y,z
1/4-x,1/4-y,z
x,1/4-y,1/4-z
1/4-x,y,1/4-z
-x,-y,-z
3/4+x,3/4+y,-z
-x,3/4+y,3/4+z
3/4+x,-y,3/4+z
x,1/2+y,1/2+z
1/4-x,3/4-y,1/2+z
x,3/4-y,3/4-z
1/4-x,1/2+y,3/4-z
-x,1/2-y,1/2-z
3/4+x,1/4+y,1/2-z
-x,1/4+y,1/4+z
3/4+x,1/2-y,1/4+z
1/2+x,y,1/2+z
3/4-x,1/4-y,1/2+z
1/2+x,1/4-y,3/4-z
3/4-x,y,3/4-z
1/2-x,-y,1/2-z
1/4+x,3/4+y,1/2-z
1/2-x,3/4+y,1/4+z
1/4+x,-y,1/4+z
1/2+x,1/2+y,z
3/4-x,3/4-y,z
1/2+x,3/4-y,1/4-z
3/4-x,1/2+y,1/4-z
1/2-x,1/2-y,-z
1/4+x,1/4+y,-z
1/2-x,1/4+y,3/4+z
1/4+x,1/2-y,3/4+z
loop_
_atom_site_type_symbol
_atom_site_label
_atom_site_fract_x
_atom_site_fract_y
_atom_site_fract_z
Si Si1 0.248726 0.125000 0.625000
Si Si2 0.375000 0.772307 0.375000
Si Si3 0.071771 0.530621 0.028873
Si Si4 0.057854 0.821784 0.566589
Si Si5 0.658094 0.072519 0.837839
O O1 0.203183 0.165875 0.566308
O O2 0.296472 0.154788 0.704612
O O3 0.428730 0.735548 0.431255
O O4 0.406007 0.802489 0.280233
O O5 0.125000 0.513342 0.125000
O O6 0.118069 0.538692 0.923269
O O7 0.000000 0.500000 0.000000
O O8 0.125000 0.843205 0.625000
O O9 0.987409 0.829081 0.628959
O O10 0.625000 0.125000 0.840996
#
# Coordination Sequence:
#
# PCOD9516277 Si02
#       5
#    16  16  32  32  32
#     4  12  21  50  68 100 139 176 236 302 347 418
#     4  10  25  44  64 102 140 178 222 281 346 424
#     4  12  25  43  75 106 140 185 242 298 356 425
#     4  10  24  43  67  98 133 178 228 288 352 407
#     4  12  22  45  70  97 140 185 227 279 359 424
#
# _framework density 19.032890999999999
#
# number of rings (size 3 to 8) (size 9 to 14) (size 15 to 20)
#    0.750    0.000    5.000    3.000    0.000    1.000 
#    4.500    0.000    0.000    0.000    0.000    0.000 
#    0.000    0.000    0.000    0.000    0.000    0.000 
#
# Total GULP energy -178341.272330 kJ/mol
# GULP energy per Si atom -5573.164760 kJ/mol
# Density = 1.898957 g / cm^3
# Si number density = 19.032891 Si / 1000 Ang^3
#
#
#
# Elastic Constant Matrix: (Units=GPa)
#
#
# Indices 1 2 3 4 5 6 
#
# 1 141.8407 47.2048 61.2357 0.0000 0.0000 0.0000
# 2 47.2048 73.2076 41.8325 0.0000 0.0000 0.0000
# 3 61.2357 41.8325 164.4426 0.0000 0.0000 0.0000
# 4 0.0000 0.0000 0.0000 46.7603 0.0000 0.0000
# 5 0.0000 0.0000 0.0000 0.0000 30.0207 0.0000
# 6 0.0000 0.0000 0.0000 0.0000 0.0000 31.4972
#
#
#
# Elastic Compliance Matrix: (Units=1/GPa)
#
#
# Indices 1 2 3 4 5 6 
#
# 1 0.009704 -0.004905 -0.002366 0.000000 0.000000 0.000000
# 2 -0.004905 0.018463 -0.002870 0.000000 0.000000 0.000000
# 3 -0.002366 -0.002870 0.007692 0.000000 0.000000 0.000000
# 4 0.000000 0.000000 0.000000 0.021386 0.000000 0.000000
# 5 0.000000 0.000000 0.000000 0.000000 0.033310 0.000000
# 6 0.000000 0.000000 0.000000 0.000000 0.000000 0.031749
#
#
# Mechanical properties :
#
#
# Convention : Reuss Voigt Hill
#
# Bulk Modulus (GPa) = 64.19847 75.55965 69.87906
# Shear Modulus (GPa) = 33.83441 36.93684 35.38563
#
# Velocity S-wave (km/s) = 4.22083 4.41010 4.31650
# Velocity P-wave (km/s) = 7.58666 8.10664 7.85096
#
# Compressibility (1/GPa) = 0.01557669
#
# Stress axis : x y z
#
# Youngs Moduli (GPa) = 103.05004 54.16289 130.00136
#
# Poissons Ratio (x) = 0.26569 0.30755
# Poissons Ratio (y) = 0.50550 0.37311
# Poissons Ratio (z) = 0.24379 0.15545
#
# Static dielectric constant tensor:
#      x y z
#    x 1.684500 0.000000 0.000000 
#    y 0.000000 1.319850 0.000000 
#    z 0.000000 0.000000 1.672080 
# 
# From -- ./inp_files/26516.got.cif
#   From: 2010.05.17/outbox.cif.g08.bks.cpg/sg70_14_cif.got.tgz:26516.got - 2010.06.03 15:57:51.
