data_PCOD9516948
_publ_section_title
;
Structure prediction by ZEFSAII (Michael W. Deem and Ramdas Pophale) SiO2 
 PCOD9516948
Probable space group: F D D D
;
_chemical_formula_sum "Si O2"
_cell_formula_units_Z 112
_cell_length_a 33.508355
_cell_length_b 5.181663
_cell_length_c 29.145763
_cell_angle_alpha 90.000000
_cell_angle_beta 90.000000
_cell_angle_gamma 90.000000
_cell_volume 5060.549780
_symmetry_space_group_name_H-M "F D D D"
_symmetry_group_IT_number 70
_space_group.IT_coordinate_system_code '2'
_symmetry_cell_setting 'orthorhombic'
loop_
_space_group_symop_operation_xyz
x,y,z
1/4-x,1/4-y,z
x,1/4-y,1/4-z
1/4-x,y,1/4-z
-x,-y,-z
3/4+x,3/4+y,-z
-x,3/4+y,3/4+z
3/4+x,-y,3/4+z
x,1/2+y,1/2+z
1/4-x,3/4-y,1/2+z
x,3/4-y,3/4-z
1/4-x,1/2+y,3/4-z
-x,1/2-y,1/2-z
3/4+x,1/4+y,1/2-z
-x,1/4+y,1/4+z
3/4+x,1/2-y,1/4+z
1/2+x,y,1/2+z
3/4-x,1/4-y,1/2+z
1/2+x,1/4-y,3/4-z
3/4-x,y,3/4-z
1/2-x,-y,1/2-z
1/4+x,3/4+y,1/2-z
1/2-x,3/4+y,1/4+z
1/4+x,-y,1/4+z
1/2+x,1/2+y,z
3/4-x,3/4-y,z
1/2+x,3/4-y,1/4-z
3/4-x,1/2+y,1/4-z
1/2-x,1/2-y,-z
1/4+x,1/4+y,-z
1/2-x,1/4+y,3/4+z
1/4+x,1/2-y,3/4+z
loop_
_atom_site_type_symbol
_atom_site_label
_atom_site_fract_x
_atom_site_fract_y
_atom_site_fract_z
Si Si1 0.652696 0.375000 0.875000
Si Si2 0.290324 0.465398 0.672802
Si Si3 0.449455 0.123691 0.406923
Si Si4 0.152114 0.371720 0.750046
O O1 0.625000 0.625000 0.866629
O O2 0.682764 0.288854 0.835027
O O3 0.293131 0.625000 0.625000
O O4 0.244025 0.400973 0.678023
O O5 0.311055 0.611873 0.714545
O O6 0.447941 0.375000 0.375000
O O7 0.418795 0.137959 0.448517
O O8 0.442330 0.875000 0.375000
O O9 0.125000 0.625000 0.755728
O O10 0.125000 0.125000 0.758915
#
# Coordination Sequence:
#
# PCOD9516948 Si02
#       4
#    16  32  32  32
#     4  12  24  38  66 104 141 180 215 278 352 422
#     4  11  26  45  71 105 141 186 225 287 358 427
#     4  11  25  50  74  98 137 190 242 288 345 410
#     4  12  29  44  71 107 142 185 234 293 348 414
#
# _framework density 22.131983000000002
#
# number of rings (size 3 to 8) (size 9 to 14) (size 15 to 20)
#    0.000    0.571    2.857    3.429    8.000    3.429 
#    0.000    7.143    0.000    0.000    0.000    0.000 
#    0.000    0.000    0.000    0.000    0.000    0.000 
#
# Total GULP energy -156857.895649 kJ/mol
# GULP energy per Si atom -5602.067702 kJ/mol
# Density = 2.208161 g / cm^3
# Si number density = 22.131983 Si / 1000 Ang^3
#
#
#
# Elastic Constant Matrix: (Units=GPa)
#
#
# Indices 1 2 3 4 5 6 
#
# 1 37.6756 24.9008 39.0475 -0.0530 -1.1018 0.1248
# 2 24.9008 163.9058 44.2908 -0.0908 -1.3100 0.1491
# 3 39.0475 44.2908 126.0452 -0.0243 -0.2774 0.0543
# 4 -0.0530 -0.0908 -0.0243 19.9698 -0.6769 0.0932
# 5 -1.1018 -1.3100 -0.2774 -0.6769 -11.6060 1.9485
# 6 0.1248 0.1491 0.0543 0.0932 1.9485 37.4418
#
#
#
# Elastic Compliance Matrix: (Units=1/GPa)
#
#
# Indices 1 2 3 4 5 6 
#
# 1 0.040306 -0.003064 -0.011417 -0.000029 -0.003196 0.000061
# 2 -0.003064 0.006968 -0.001500 0.000006 -0.000459 0.000008
# 3 -0.011417 -0.001500 0.012000 0.000010 0.000962 -0.000023
# 4 -0.000029 0.000006 0.000010 0.049977 -0.002908 0.000027
# 5 -0.003196 -0.000459 0.000962 -0.002908 -0.084915 0.004437
# 6 0.000061 0.000008 -0.000023 0.000027 0.004437 0.026477
#
#
# Mechanical properties :
#
#
# Convention : Reuss Voigt Hill
#
# Bulk Modulus (GPa) = 36.61393 60.45607 48.53500
# Shear Modulus (GPa) = 54.41896 23.78694 39.10295
#
# Velocity S-wave (km/s) = 4.96405 3.28194 4.20790
# Velocity P-wave (km/s) = 7.03101 6.46041 6.75174
#
# Compressibility (1/GPa) = 0.02731201
#
# Stress axis : x y z
#
# Youngs Moduli (GPa) = 24.80996 143.50671 83.33424
#
# Poissons Ratio (x) = 0.43969 0.95142
# Poissons Ratio (y) = 0.07602 0.12504
# Poissons Ratio (z) = 0.28325 0.21532
#
# Static dielectric constant tensor:
#      x y z
#    x 1.803880 0.000010 0.000000 
#    y 0.000010 1.818570 0.000060 
#    z 0.000000 0.000060 1.793990 
# 
# From -- ./inp_files/68605.got.cif
#   From: 2010.05.17/outbox.cif.g08.bks.cpg/sg70_35_cif.got.tgz:68605.got - 2010.06.03 15:57:51.
