data_PCOD9516599
_publ_section_title
;
Structure prediction by ZEFSAII (Michael W. Deem and Ramdas Pophale) SiO2 
 PCOD9516599
Probable space group: F D D D
;
_chemical_formula_sum "Si O2"
_cell_formula_units_Z 176
_cell_length_a 24.148744
_cell_length_b 19.508595
_cell_length_c 16.209974
_cell_angle_alpha 90.000000
_cell_angle_beta 90.000000
_cell_angle_gamma 90.000000
_cell_volume 7636.649508
_symmetry_space_group_name_H-M "F D D D"
_symmetry_group_IT_number 70
_space_group.IT_coordinate_system_code '2'
_symmetry_cell_setting 'orthorhombic'
loop_
_space_group_symop_operation_xyz
x,y,z
1/4-x,1/4-y,z
x,1/4-y,1/4-z
1/4-x,y,1/4-z
-x,-y,-z
3/4+x,3/4+y,-z
-x,3/4+y,3/4+z
3/4+x,-y,3/4+z
x,1/2+y,1/2+z
1/4-x,3/4-y,1/2+z
x,3/4-y,3/4-z
1/4-x,1/2+y,3/4-z
-x,1/2-y,1/2-z
3/4+x,1/4+y,1/2-z
-x,1/4+y,1/4+z
3/4+x,1/2-y,1/4+z
1/2+x,y,1/2+z
3/4-x,1/4-y,1/2+z
1/2+x,1/4-y,3/4-z
3/4-x,y,3/4-z
1/2-x,-y,1/2-z
1/4+x,3/4+y,1/2-z
1/2-x,3/4+y,1/4+z
1/4+x,-y,1/4+z
1/2+x,1/2+y,z
3/4-x,3/4-y,z
1/2+x,3/4-y,1/4-z
3/4-x,1/2+y,1/4-z
1/2-x,1/2-y,-z
1/4+x,1/4+y,-z
1/2-x,1/4+y,3/4+z
1/4+x,1/2-y,3/4+z
loop_
_atom_site_type_symbol
_atom_site_label
_atom_site_fract_x
_atom_site_fract_y
_atom_site_fract_z
Si Si1 0.778991 0.655182 0.814639
Si Si2 0.797805 0.675944 0.004600
Si Si3 0.293008 0.375000 0.875000
Si Si4 0.170464 0.572980 0.313963
Si Si5 0.360375 0.666624 0.039945
Si Si6 0.841799 0.975369 0.005609
O O1 0.777926 0.674438 0.910417
O O2 0.728445 0.606681 0.790786
O O3 0.833039 0.612128 0.792588
O O4 0.791273 0.720691 0.757297
O O5 0.849092 0.732094 0.011498
O O6 0.745751 0.674054 0.066556
O O7 0.825939 0.602912 0.028520
O O8 0.330040 0.325637 0.818891
O O9 0.125000 0.625000 0.280966
O O10 0.156407 0.495057 0.292726
O O11 0.166579 0.568390 0.412825
O O12 0.343691 0.625000 0.125000
#
# Coordination Sequence:
#
# PCOD9516599 Si02
#       6
#    32  32  16  32  32  32
#     4  11  25  44  73  99 139 187 240 291 365 436
#     4  11  23  46  74 101 144 197 239 291 372 444
#     4  12  24  44  77 104 150 198 241 312 374 436
#     4  12  26  42  70 108 141 178 244 310 357 435
#     4  11  21  45  73  96 139 190 234 290 360 440
#     4  11  25  44  67 108 139 192 243 293 363 452
#
# _framework density 23.046755999999998
#
# number of rings (size 3 to 8) (size 9 to 14) (size 15 to 20)
#    0.000    0.727    6.364    2.727    5.091    3.636 
#    0.000    0.000    0.000    0.000    0.000    0.000 
#    0.000    0.000    0.000    0.000    0.000    0.000 
#
# Total GULP energy -245567.645900 kJ/mol
# GULP energy per Si atom -5581.082861 kJ/mol
# Density = 2.299430 g / cm^3
# Si number density = 23.046756 Si / 1000 Ang^3
#
#
#
# Elastic Constant Matrix: (Units=GPa)
#
#
# Indices 1 2 3 4 5 6 
#
# 1 68.6163 37.7261 2.4556 0.0000 0.0000 0.0000
# 2 37.7261 138.7038 3.9179 0.0000 0.0000 0.0000
# 3 2.4556 3.9179 49.1134 0.0000 0.0000 0.0000
# 4 0.0000 0.0000 0.0000 10.8271 0.0000 0.0000
# 5 0.0000 0.0000 0.0000 0.0000 89.1416 0.0000
# 6 0.0000 0.0000 0.0000 0.0000 0.0000 36.9701
#
#
#
# Elastic Compliance Matrix: (Units=1/GPa)
#
#
# Indices 1 2 3 4 5 6 
#
# 1 0.017148 -0.004650 -0.000486 0.000000 0.000000 0.000000
# 2 -0.004650 0.008487 -0.000445 0.000000 0.000000 0.000000
# 3 -0.000486 -0.000445 0.020421 0.000000 0.000000 0.000000
# 4 0.000000 0.000000 0.000000 0.092361 0.000000 0.000000
# 5 0.000000 0.000000 0.000000 0.000000 0.011218 0.000000
# 6 0.000000 0.000000 0.000000 0.000000 0.000000 0.027049
#
#
# Mechanical properties :
#
#
# Convention : Reuss Voigt Hill
#
# Bulk Modulus (GPa) = 28.65880 38.29253 33.47567
# Shear Modulus (GPa) = 25.06551 41.54338 33.30444
#
# Velocity S-wave (km/s) = 3.30145 4.25027 3.80555
# Velocity P-wave (km/s) = 5.19565 6.38261 5.81947
#
# Compressibility (1/GPa) = 0.03489330
#
# Stress axis : x y z
#
# Youngs Moduli (GPa) = 58.31578 117.82708 48.96966
#
# Poissons Ratio (x) = 0.54794 0.02382
# Poissons Ratio (y) = 0.27119 0.02177
# Poissons Ratio (z) = 0.02836 0.05238
#
# Static dielectric constant tensor:
#      x y z
#    x 1.976020 0.000000 0.000000 
#    y 0.000000 1.970300 0.000000 
#    z 0.000000 0.000000 1.917840 
# 
# From -- ./inp_files/38523.got.cif
#   From: 2010.05.17/outbox.cif.g08.bks.cpg/sg70_20_cif.got.tgz:38523.got - 2010.06.03 15:57:51.
