data_PCOD9516477
_publ_section_title
;
Structure prediction by ZEFSAII (Michael W. Deem and Ramdas Pophale) SiO2 
 PCOD9516477
Probable space group: F D D D
;
_chemical_formula_sum "Si O2"
_cell_formula_units_Z 152
_cell_length_a 19.142269
_cell_length_b 12.738270
_cell_length_c 28.683284
_cell_angle_alpha 90.000000
_cell_angle_beta 90.000000
_cell_angle_gamma 90.000000
_cell_volume 6994.114501
_symmetry_space_group_name_H-M "F D D D"
_symmetry_group_IT_number 70
_space_group.IT_coordinate_system_code '2'
_symmetry_cell_setting 'orthorhombic'
loop_
_space_group_symop_operation_xyz
x,y,z
1/4-x,1/4-y,z
x,1/4-y,1/4-z
1/4-x,y,1/4-z
-x,-y,-z
3/4+x,3/4+y,-z
-x,3/4+y,3/4+z
3/4+x,-y,3/4+z
x,1/2+y,1/2+z
1/4-x,3/4-y,1/2+z
x,3/4-y,3/4-z
1/4-x,1/2+y,3/4-z
-x,1/2-y,1/2-z
3/4+x,1/4+y,1/2-z
-x,1/4+y,1/4+z
3/4+x,1/2-y,1/4+z
1/2+x,y,1/2+z
3/4-x,1/4-y,1/2+z
1/2+x,1/4-y,3/4-z
3/4-x,y,3/4-z
1/2-x,-y,1/2-z
1/4+x,3/4+y,1/2-z
1/2-x,3/4+y,1/4+z
1/4+x,-y,1/4+z
1/2+x,1/2+y,z
3/4-x,3/4-y,z
1/2+x,3/4-y,1/4-z
3/4-x,1/2+y,1/4-z
1/2-x,1/2-y,-z
1/4+x,1/4+y,-z
1/2-x,1/4+y,3/4+z
1/4+x,1/2-y,3/4+z
loop_
_atom_site_type_symbol
_atom_site_label
_atom_site_fract_x
_atom_site_fract_y
_atom_site_fract_z
Si Si1 0.875000 0.875000 0.875000
Si Si2 0.707585 0.486865 0.530834
Si Si3 0.505619 0.779576 0.427081
Si Si4 0.944444 0.768158 0.290841
Si Si5 0.879094 0.125000 0.125000
Si Si6 0.020726 0.681733 0.375935
O O1 0.820005 0.808413 0.843907
O O2 0.747436 0.487038 0.482084
O O3 0.698986 0.606882 0.547645
O O4 0.626134 0.463144 0.523223
O O5 0.743284 0.420684 0.571542
O O6 0.565245 0.867138 0.417365
O O7 0.536279 0.678350 0.399495
O O8 0.000000 0.750000 0.250000
O O9 0.961053 0.723198 0.341330
O O10 0.829697 0.227541 0.126082
#
# Coordination Sequence:
#
# PCOD9516477 Si02
#       6
#     8  32  32  32  16  32
#     4  10  28  56  68  94 146 180 234 292 338 436
#     4  11  24  38  67 103 135 180 235 283 348 416
#     4  11  26  47  71  97 139 192 229 286 356 409
#     4  11  21  38  63 100 144 175 224 287 342 413
#     4  11  24  45  65 102 139 172 240 290 337 422
#     4  12  23  42  71 103 138 184 226 292 350 412
#
# _framework density 21.732558000000001
#
# number of rings (size 3 to 8) (size 9 to 14) (size 15 to 20)
#    0.000    0.842    4.211    2.526    5.895    1.684 
#    3.789    2.105    0.000    0.000    0.000    0.000 
#    0.000    0.000    0.000    0.000    0.000    0.000 
#
# Total GULP energy -211975.771846 kJ/mol
# GULP energy per Si atom -5578.309785 kJ/mol
# Density = 2.168309 g / cm^3
# Si number density = 21.732558 Si / 1000 Ang^3
#
#
#
# Elastic Constant Matrix: (Units=GPa)
#
#
# Indices 1 2 3 4 5 6 
#
# 1 127.8015 23.7043 46.3491 0.0000 0.0000 0.0000
# 2 23.7043 48.8988 40.8450 0.0000 0.0000 0.0000
# 3 46.3491 40.8450 152.9168 0.0000 0.0000 0.0000
# 4 0.0000 0.0000 0.0000 31.5588 0.0000 0.0000
# 5 0.0000 0.0000 0.0000 0.0000 10.4268 0.0000
# 6 0.0000 0.0000 0.0000 0.0000 0.0000 20.7674
#
#
#
# Elastic Compliance Matrix: (Units=1/GPa)
#
#
# Indices 1 2 3 4 5 6 
#
# 1 0.009060 -0.002701 -0.002025 0.000000 0.000000 0.000000
# 2 -0.002701 0.027129 -0.006428 0.000000 0.000000 0.000000
# 3 -0.002025 -0.006428 0.008870 0.000000 0.000000 0.000000
# 4 0.000000 0.000000 0.000000 0.031687 0.000000 0.000000
# 5 0.000000 0.000000 0.000000 0.000000 0.095907 0.000000
# 6 0.000000 0.000000 0.000000 0.000000 0.000000 0.048152
#
#
# Mechanical properties :
#
#
# Convention : Reuss Voigt Hill
#
# Bulk Modulus (GPa) = 43.95125 61.26821 52.60973
# Shear Modulus (GPa) = 19.94458 27.13185 23.53822
#
# Velocity S-wave (km/s) = 3.03269 3.53716 3.29460
# Velocity P-wave (km/s) = 5.70355 6.70337 6.22357
#
# Compressibility (1/GPa) = 0.02275248
#
# Stress axis : x y z
#
# Youngs Moduli (GPa) = 110.37740 36.86154 112.73912
#
# Poissons Ratio (x) = 0.09955 0.22826
# Poissons Ratio (y) = 0.29809 0.72464
# Poissons Ratio (z) = 0.22348 0.23693
#
# Static dielectric constant tensor:
#      x y z
#    x 1.850540 0.000000 0.000000 
#    y 0.000000 1.886410 0.000000 
#    z 0.000000 0.000000 1.771590 
# 
# From -- ./inp_files/46748.got.cif
#   From: 2010.05.17/outbox.cif.g08.bks.cpg/sg70_24_cif.got.tgz:46748.got - 2010.06.03 15:57:51.
