data_PCOD9516140
_publ_section_title
;
Structure prediction by ZEFSAII (Michael W. Deem and Ramdas Pophale) SiO2 
 PCOD9516140
Probable space group: F D D D
;
_chemical_formula_sum "Si O2"
_cell_formula_units_Z 160
_cell_length_a 11.054370
_cell_length_b 24.056034
_cell_length_c 28.765565
_cell_angle_alpha 90.000000
_cell_angle_beta 90.000000
_cell_angle_gamma 90.000000
_cell_volume 7649.462753
_symmetry_space_group_name_H-M "F D D D"
_symmetry_group_IT_number 70
_space_group.IT_coordinate_system_code '2'
_symmetry_cell_setting 'orthorhombic'
loop_
_space_group_symop_operation_xyz
x,y,z
1/4-x,1/4-y,z
x,1/4-y,1/4-z
1/4-x,y,1/4-z
-x,-y,-z
3/4+x,3/4+y,-z
-x,3/4+y,3/4+z
3/4+x,-y,3/4+z
x,1/2+y,1/2+z
1/4-x,3/4-y,1/2+z
x,3/4-y,3/4-z
1/4-x,1/2+y,3/4-z
-x,1/2-y,1/2-z
3/4+x,1/4+y,1/2-z
-x,1/4+y,1/4+z
3/4+x,1/2-y,1/4+z
1/2+x,y,1/2+z
3/4-x,1/4-y,1/2+z
1/2+x,1/4-y,3/4-z
3/4-x,y,3/4-z
1/2-x,-y,1/2-z
1/4+x,3/4+y,1/2-z
1/2-x,3/4+y,1/4+z
1/4+x,-y,1/4+z
1/2+x,1/2+y,z
3/4-x,3/4-y,z
1/2+x,3/4-y,1/4-z
3/4-x,1/2+y,1/4-z
1/2-x,1/2-y,-z
1/4+x,1/4+y,-z
1/2-x,1/4+y,3/4+z
1/4+x,1/2-y,3/4+z
loop_
_atom_site_type_symbol
_atom_site_label
_atom_site_fract_x
_atom_site_fract_y
_atom_site_fract_z
Si Si1 0.882381 0.575355 0.659295
Si Si2 0.004735 0.786040 0.150317
Si Si3 0.625000 0.125000 0.839260
Si Si4 0.727928 0.436555 0.238668
Si Si5 0.875000 0.375000 0.317438
Si Si6 0.235952 0.356921 0.507550
O O1 0.838710 0.625000 0.625000
O O2 0.842645 0.513263 0.646407
O O3 0.820166 0.584462 0.709508
O O4 0.028447 0.583038 0.659116
O O5 0.125000 0.764462 0.125000
O O6 0.026096 0.809970 0.202279
O O7 0.962405 0.839389 0.121323
O O8 0.553566 0.166572 0.805636
O O9 0.750000 0.500000 0.250000
O O10 0.784315 0.407663 0.284005
O O11 0.593993 0.411903 0.231380
O O12 0.375000 0.375000 0.503205
#
# Coordination Sequence:
#
# PCOD9516140 Si02
#       6
#    32  32  16  32  16  32
#     4  11  27  47  72 103 138 190 245 305 366 438
#     4  12  26  45  72 103 152 193 241 307 364 446
#     4  11  24  44  67 108 142 184 251 288 369 428
#     4  10  23  42  72 101 143 188 231 304 362 428
#     4   9  23  46  65 106 138 172 247 298 360 434
#     4  11  25  45  68 105 144 189 245 295 366 434
#
# _framework density 20.916502000000001
#
# number of rings (size 3 to 8) (size 9 to 14) (size 15 to 20)
#    0.000    1.200    3.000    0.900   11.200    0.000 
#    0.000    0.000    0.000    0.000    0.000    0.000 
#    0.000    0.000    0.000    0.000    0.000    0.000 
#
# Total GULP energy -223311.280293 kJ/mol
# GULP energy per Si atom -5582.782007 kJ/mol
# Density = 2.086889 g / cm^3
# Si number density = 20.916502 Si / 1000 Ang^3
#
#
#
# Elastic Constant Matrix: (Units=GPa)
#
#
# Indices 1 2 3 4 5 6 
#
# 1 149.0284 43.9724 36.8445 0.0000 0.0000 0.0000
# 2 43.9724 131.5948 41.2922 0.0000 0.0000 0.0000
# 3 36.8445 41.2922 119.9570 0.0000 0.0000 0.0000
# 4 0.0000 0.0000 0.0000 36.6822 0.0000 0.0000
# 5 0.0000 0.0000 0.0000 0.0000 55.5312 0.0000
# 6 0.0000 0.0000 0.0000 0.0000 0.0000 42.3782
#
#
#
# Elastic Compliance Matrix: (Units=1/GPa)
#
#
# Indices 1 2 3 4 5 6 
#
# 1 0.007730 -0.002060 -0.001665 0.000000 0.000000 0.000000
# 2 -0.002060 0.009069 -0.002489 0.000000 0.000000 0.000000
# 3 -0.001665 -0.002489 0.009704 0.000000 0.000000 0.000000
# 4 0.000000 0.000000 0.000000 0.027261 0.000000 0.000000
# 5 0.000000 0.000000 0.000000 0.000000 0.018008 0.000000
# 6 0.000000 0.000000 0.000000 0.000000 0.000000 0.023597
#
#
# Mechanical properties :
#
#
# Convention : Reuss Voigt Hill
#
# Bulk Modulus (GPa) = 71.05107 71.64429 71.34768
# Shear Modulus (GPa) = 44.44903 45.48306 44.96605
#
# Velocity S-wave (km/s) = 4.61485 4.66822 4.64161
# Velocity P-wave (km/s) = 7.90180 7.96136 7.93163
#
# Compressibility (1/GPa) = 0.01407438
#
# Stress axis : x y z
#
# Youngs Moduli (GPa) = 129.37096 110.27161 103.04628
#
# Poissons Ratio (x) = 0.22721 0.17156
# Poissons Ratio (y) = 0.26656 0.25646
# Poissons Ratio (z) = 0.21539 0.27444
#
# Static dielectric constant tensor:
#      x y z
#    x 1.846030 0.000000 0.000000 
#    y 0.000000 1.717880 0.000000 
#    z 0.000000 0.000000 1.818660 
# 
# From -- ./inp_files/64713.got.cif
#   From: 2010.05.17/outbox.cif.g08.bks.cpg/sg70_33_cif.got.tgz:64713.got - 2010.06.03 15:57:51.
