data_PCOD9516637
_publ_section_title
;
Structure prediction by ZEFSAII (Michael W. Deem and Ramdas Pophale) SiO2 
 PCOD9516637
Probable space group: F D D D
;
_chemical_formula_sum "Si O2"
_cell_formula_units_Z 176
_cell_length_a 12.050796
_cell_length_b 25.301524
_cell_length_c 26.988279
_cell_angle_alpha 90.000000
_cell_angle_beta 90.000000
_cell_angle_gamma 90.000000
_cell_volume 8228.820840
_symmetry_space_group_name_H-M "F D D D"
_symmetry_group_IT_number 70
_space_group.IT_coordinate_system_code '2'
_symmetry_cell_setting 'orthorhombic'
loop_
_space_group_symop_operation_xyz
x,y,z
1/4-x,1/4-y,z
x,1/4-y,1/4-z
1/4-x,y,1/4-z
-x,-y,-z
3/4+x,3/4+y,-z
-x,3/4+y,3/4+z
3/4+x,-y,3/4+z
x,1/2+y,1/2+z
1/4-x,3/4-y,1/2+z
x,3/4-y,3/4-z
1/4-x,1/2+y,3/4-z
-x,1/2-y,1/2-z
3/4+x,1/4+y,1/2-z
-x,1/4+y,1/4+z
3/4+x,1/2-y,1/4+z
1/2+x,y,1/2+z
3/4-x,1/4-y,1/2+z
1/2+x,1/4-y,3/4-z
3/4-x,y,3/4-z
1/2-x,-y,1/2-z
1/4+x,3/4+y,1/2-z
1/2-x,3/4+y,1/4+z
1/4+x,-y,1/4+z
1/2+x,1/2+y,z
3/4-x,3/4-y,z
1/2+x,3/4-y,1/4-z
3/4-x,1/2+y,1/4-z
1/2-x,1/2-y,-z
1/4+x,1/4+y,-z
1/2-x,1/4+y,3/4+z
1/4+x,1/2-y,3/4+z
loop_
_atom_site_type_symbol
_atom_site_label
_atom_site_fract_x
_atom_site_fract_y
_atom_site_fract_z
Si Si1 0.771454 0.339846 0.706753
Si Si2 0.090472 0.857982 0.972839
Si Si3 0.125000 0.215415 0.625000
Si Si4 0.125000 0.780847 0.625000
Si Si5 0.212806 0.474100 0.800508
Si Si6 0.036451 0.754833 0.031399
Si Si7 0.294669 0.125000 0.625000
O O1 0.875000 0.375000 0.689806
O O2 0.693191 0.374462 0.742607
O O3 0.696024 0.316600 0.662861
O O4 0.810152 0.290809 0.741060
O O5 0.025490 0.911840 0.960346
O O6 0.136921 0.846499 0.918161
O O7 0.034260 0.809807 0.001256
O O8 0.127216 0.251610 0.575806
O O9 0.217041 0.172624 0.642256
O O10 0.210648 0.744829 0.594378
O O11 0.250000 0.500000 0.750000
O O12 0.085278 0.493442 0.804604
#
# Coordination Sequence:
#
# PCOD9516637 Si02
#       7
#    32  32  16  16  32  32  16
#     4  11  25  48  69 104 145 190 239 305 361 433
#     4  11  25  44  72 107 146 189 244 297 365 439
#     4  11  22  43  72 105 149 188 239 305 368 428
#     4  12  26  47  77 103 147 194 246 304 370 432
#     4  11  24  51  69 102 148 187 242 304 358 432
#     4  11  25  45  75 106 145 191 241 306 367 443
#     4  11  22  40  72 105 148 197 240 298 359 432
#
# _framework density 21.388241000000001
#
# number of rings (size 3 to 8) (size 9 to 14) (size 15 to 20)
#    0.000    0.909    7.273    1.091    2.545    7.273 
#    0.000    0.909    0.000    0.000    0.000    0.000 
#    0.000    0.000    0.000    0.000    0.000    0.000 
#
# Total GULP energy -245473.395009 kJ/mol
# GULP energy per Si atom -5578.940796 kJ/mol
# Density = 2.133956 g / cm^3
# Si number density = 21.388241 Si / 1000 Ang^3
#
#
#
# Elastic Constant Matrix: (Units=GPa)
#
#
# Indices 1 2 3 4 5 6 
#
# 1 79.1350 59.1711 47.6369 0.0000 0.0000 0.0000
# 2 59.1711 116.8975 39.9127 0.0000 0.0000 0.0000
# 3 47.6369 39.9127 117.9451 0.0000 0.0000 0.0000
# 4 0.0000 0.0000 0.0000 28.3964 0.0000 0.0000
# 5 0.0000 0.0000 0.0000 0.0000 35.4537 0.0000
# 6 0.0000 0.0000 0.0000 0.0000 0.0000 -24.9003
#
#
#
# Elastic Compliance Matrix: (Units=1/GPa)
#
#
# Indices 1 2 3 4 5 6 
#
# 1 0.023827 -0.009921 -0.006266 0.000000 0.000000 0.000000
# 2 -0.009921 0.013803 -0.000664 0.000000 0.000000 0.000000
# 3 -0.006266 -0.000664 0.011234 0.000000 0.000000 0.000000
# 4 0.000000 0.000000 0.000000 0.035216 0.000000 0.000000
# 5 0.000000 0.000000 0.000000 0.000000 0.028206 0.000000
# 6 0.000000 0.000000 0.000000 0.000000 0.000000 -0.040160
#
#
# Mechanical properties :
#
#
# Convention : Reuss Voigt Hill
#
# Bulk Modulus (GPa) = 65.95624 67.49101 66.72362
# Shear Modulus (GPa) = 45.09300 18.94043 32.01671
#
# Velocity S-wave (km/s) = 4.59661 2.97905 3.87322
# Velocity P-wave (km/s) = 7.68611 6.59217 7.16007
#
# Compressibility (1/GPa) = 0.01516157
#
# Stress axis : x y z
#
# Youngs Moduli (GPa) = 41.96913 72.44739 89.01545
#
# Poissons Ratio (x) = 0.71877 0.55778
# Poissons Ratio (y) = 0.41639 0.05910
# Poissons Ratio (z) = 0.26298 0.04810
#
# Static dielectric constant tensor:
#      x y z
#    x 1.745650 0.000000 0.000000 
#    y 0.000000 1.740550 0.000000 
#    z 0.000000 0.000000 1.719620 
# 
# From -- ./inp_files/64783.got.cif
#   From: 2010.05.17/outbox.cif.g08.bks.cpg/sg70_33_cif.got.tgz:64783.got - 2010.06.03 15:57:51.
