data_PCOD9516873
_publ_section_title
;
Structure prediction by ZEFSAII (Michael W. Deem and Ramdas Pophale) SiO2 
 PCOD9516873
Probable space group: F D D D
;
_chemical_formula_sum "Si O2"
_cell_formula_units_Z 168
_cell_length_a 22.128549
_cell_length_b 15.694741
_cell_length_c 21.746486
_cell_angle_alpha 90.000000
_cell_angle_beta 90.000000
_cell_angle_gamma 90.000000
_cell_volume 7552.594716
_symmetry_space_group_name_H-M "F D D D"
_symmetry_group_IT_number 70
_space_group.IT_coordinate_system_code '2'
_symmetry_cell_setting 'orthorhombic'
loop_
_space_group_symop_operation_xyz
x,y,z
1/4-x,1/4-y,z
x,1/4-y,1/4-z
1/4-x,y,1/4-z
-x,-y,-z
3/4+x,3/4+y,-z
-x,3/4+y,3/4+z
3/4+x,-y,3/4+z
x,1/2+y,1/2+z
1/4-x,3/4-y,1/2+z
x,3/4-y,3/4-z
1/4-x,1/2+y,3/4-z
-x,1/2-y,1/2-z
3/4+x,1/4+y,1/2-z
-x,1/4+y,1/4+z
3/4+x,1/2-y,1/4+z
1/2+x,y,1/2+z
3/4-x,1/4-y,1/2+z
1/2+x,1/4-y,3/4-z
3/4-x,y,3/4-z
1/2-x,-y,1/2-z
1/4+x,3/4+y,1/2-z
1/2-x,3/4+y,1/4+z
1/4+x,-y,1/4+z
1/2+x,1/2+y,z
3/4-x,3/4-y,z
1/2+x,3/4-y,1/4-z
3/4-x,1/2+y,1/4-z
1/2-x,1/2-y,-z
1/4+x,1/4+y,-z
1/2-x,1/4+y,3/4+z
1/4+x,1/2-y,3/4+z
loop_
_atom_site_type_symbol
_atom_site_label
_atom_site_fract_x
_atom_site_fract_y
_atom_site_fract_z
Si Si1 0.088992 0.714005 0.411116
Si Si2 0.811482 0.729862 0.797066
Si Si3 0.377833 0.697558 0.960314
Si Si4 0.125000 0.125000 0.125000
Si Si5 0.306053 0.204270 0.159465
Si Si6 0.279683 0.975310 0.860324
O O1 0.125000 0.625000 0.416396
O O2 0.061117 0.745714 0.475258
O O3 0.142730 0.773719 0.389164
O O4 0.034158 0.726129 0.363040
O O5 0.850712 0.645211 0.805224
O O6 0.840921 0.810040 0.830382
O O7 0.744497 0.725094 0.825633
O O8 0.319941 0.760001 0.950952
O O9 0.428287 0.732209 0.913213
O O10 0.409297 0.690797 0.026349
O O11 0.274739 0.125000 0.125000
O O12 0.271349 0.875000 0.875000
#
# Coordination Sequence:
#
# PCOD9516873 Si02
#       6
#    32  32  32   8  32  32
#     4  12  26  45  72 111 150 193 250 308 368 453
#     4  12  25  45  71 108 145 193 252 306 369 446
#     4  11  24  46  76 106 144 195 250 303 376 444
#     4  12  24  44  72  96 150 196 240 296 372 436
#     4  12  25  46  71 105 149 195 244 308 373 440
#     4  11  25  48  76 109 148 194 249 307 367 447
#
# _framework density 22.244011
#
# number of rings (size 3 to 8) (size 9 to 14) (size 15 to 20)
#    0.000    0.381    5.714    4.000    0.000    2.286 
#    0.000    3.810    0.000    0.000    0.000    0.000 
#    0.000    0.000    0.000    0.000    0.000    0.000 
#
# Total GULP energy -234530.090514 kJ/mol
# GULP energy per Si atom -5584.049774 kJ/mol
# Density = 2.219338 g / cm^3
# Si number density = 22.244011 Si / 1000 Ang^3
#
#
#
# Elastic Constant Matrix: (Units=GPa)
#
#
# Indices 1 2 3 4 5 6 
#
# 1 111.1109 42.6625 3.8838 0.0000 0.0000 0.0000
# 2 42.6625 127.2774 16.5083 0.0000 0.0000 0.0000
# 3 3.8838 16.5083 77.8255 0.0000 0.0000 0.0000
# 4 0.0000 0.0000 0.0000 24.4770 0.0000 0.0000
# 5 0.0000 0.0000 0.0000 0.0000 -2.9568 0.0000
# 6 0.0000 0.0000 0.0000 0.0000 0.0000 23.9114
#
#
#
# Elastic Compliance Matrix: (Units=1/GPa)
#
#
# Indices 1 2 3 4 5 6 
#
# 1 0.010333 -0.003493 0.000225 0.000000 0.000000 0.000000
# 2 -0.003493 0.009260 -0.001790 0.000000 0.000000 0.000000
# 3 0.000225 -0.001790 0.013218 0.000000 0.000000 0.000000
# 4 0.000000 0.000000 0.000000 0.040855 0.000000 0.000000
# 5 0.000000 0.000000 0.000000 0.000000 -0.338202 0.000000
# 6 0.000000 0.000000 0.000000 0.000000 0.000000 0.041821
#
#
# Mechanical properties :
#
#
# Convention : Reuss Voigt Hill
#
# Bulk Modulus (GPa) = 44.06110 49.14700 46.60405
# Shear Modulus (GPa) = -24.38605 25.96360 0.78878
#
# Velocity S-wave (km/s) = -3.31463 3.42016 0.59613
# Velocity P-wave (km/s) = 2.28080 6.14322 4.63364
#
# Compressibility (1/GPa) = 0.02269576
#
# Stress axis : x y z
#
# Youngs Moduli (GPa) = 96.77477 107.99388 75.65621
#
# Poissons Ratio (x) = 0.37721 -0.01704
# Poissons Ratio (y) = 0.33802 0.13541
# Poissons Ratio (z) = -0.02180 0.19330
#
# Static dielectric constant tensor:
#      x y z
#    x 1.819350 0.000000 0.000000 
#    y 0.000000 1.898210 0.000000 
#    z 0.000000 0.000000 1.906890 
# 
# From -- ./inp_files/53623.got.cif
#   From: 2010.05.17/outbox.cif.g08.bks.cpg/sg70_27_cif.got.tgz:53623.got - 2010.06.03 15:57:51.
