data_PCOD9516555
_publ_section_title
;
Structure prediction by ZEFSAII (Michael W. Deem and Ramdas Pophale) SiO2 
 PCOD9516555
Probable space group: F D D D
;
_chemical_formula_sum "Si O2"
_cell_formula_units_Z 176
_cell_length_a 16.069915
_cell_length_b 17.028383
_cell_length_c 28.601260
_cell_angle_alpha 90.000000
_cell_angle_beta 90.000000
_cell_angle_gamma 90.000000
_cell_volume 7826.582280
_symmetry_space_group_name_H-M "F D D D"
_symmetry_group_IT_number 70
_space_group.IT_coordinate_system_code '2'
_symmetry_cell_setting 'orthorhombic'
loop_
_space_group_symop_operation_xyz
x,y,z
1/4-x,1/4-y,z
x,1/4-y,1/4-z
1/4-x,y,1/4-z
-x,-y,-z
3/4+x,3/4+y,-z
-x,3/4+y,3/4+z
3/4+x,-y,3/4+z
x,1/2+y,1/2+z
1/4-x,3/4-y,1/2+z
x,3/4-y,3/4-z
1/4-x,1/2+y,3/4-z
-x,1/2-y,1/2-z
3/4+x,1/4+y,1/2-z
-x,1/4+y,1/4+z
3/4+x,1/2-y,1/4+z
1/2+x,y,1/2+z
3/4-x,1/4-y,1/2+z
1/2+x,1/4-y,3/4-z
3/4-x,y,3/4-z
1/2-x,-y,1/2-z
1/4+x,3/4+y,1/2-z
1/2-x,3/4+y,1/4+z
1/4+x,-y,1/4+z
1/2+x,1/2+y,z
3/4-x,3/4-y,z
1/2+x,3/4-y,1/4-z
3/4-x,1/2+y,1/4-z
1/2-x,1/2-y,-z
1/4+x,1/4+y,-z
1/2-x,1/4+y,3/4+z
1/4+x,1/2-y,3/4+z
loop_
_atom_site_type_symbol
_atom_site_label
_atom_site_fract_x
_atom_site_fract_y
_atom_site_fract_z
Si Si1 0.084159 0.494115 0.072715
Si Si2 0.545473 0.360763 0.716843
Si Si3 0.448407 0.312299 0.808302
Si Si4 0.875000 0.375000 0.588360
Si Si5 0.391009 0.763522 0.671504
Si Si6 0.680330 0.875000 0.875000
Si Si7 0.875000 0.375000 0.997907
O O1 0.125000 0.506509 0.125000
O O2 0.140187 0.429355 0.045836
O O3 0.988953 0.467180 0.075323
O O4 0.076555 0.571112 0.039647
O O5 0.512894 0.341872 0.768655
O O6 0.580803 0.276282 0.700508
O O7 0.458610 0.381318 0.691271
O O8 0.375000 0.375000 0.810197
O O9 0.503870 0.313935 0.854098
O O10 0.883770 0.447304 0.622985
O O11 0.374415 0.671526 0.663062
O O12 0.346010 0.807486 0.714816
#
# Coordination Sequence:
#
# PCOD9516555 Si02
#       7
#    32  32  32  16  32  16  16
#     4  12  26  45  74 106 141 192 248 306 369 452
#     4  11  24  45  70 107 146 195 244 310 380 442
#     4  11  25  43  72 109 148 192 248 309 375 452
#     4  11  20  46  69  97 145 195 238 302 381 436
#     4  11  26  46  72 101 146 195 245 305 367 439
#     4  12  25  46  71 106 146 198 244 308 371 451
#     4  11  27  48  69 106 144 187 244 301 371 432
#
# _framework density 22.487465
#
# number of rings (size 3 to 8) (size 9 to 14) (size 15 to 20)
#    0.000    0.727    4.545    2.182    2.545    5.818 
#    0.000    0.000    0.000    0.000    0.000    0.000 
#    0.000    0.000    0.000    0.000    0.000    0.000 
#
# Total GULP energy -245211.196681 kJ/mol
# GULP energy per Si atom -5572.981743 kJ/mol
# Density = 2.243628 g / cm^3
# Si number density = 22.487465 Si / 1000 Ang^3
#
#
#
# Elastic Constant Matrix: (Units=GPa)
#
#
# Indices 1 2 3 4 5 6 
#
# 1 90.2547 51.3457 -1.5022 0.0000 0.0000 0.0000
# 2 51.3457 103.5031 23.2549 0.0000 0.0000 0.0000
# 3 -1.5022 23.2549 42.6762 0.0000 0.0000 0.0000
# 4 0.0000 0.0000 0.0000 10.0537 0.0000 0.0000
# 5 0.0000 0.0000 0.0000 0.0000 6.7361 0.0000
# 6 0.0000 0.0000 0.0000 0.0000 0.0000 31.6386
#
#
#
# Elastic Compliance Matrix: (Units=1/GPa)
#
#
# Indices 1 2 3 4 5 6 
#
# 1 0.016599 -0.009533 0.005779 0.000000 0.000000 0.000000
# 2 -0.009533 0.016484 -0.009318 0.000000 0.000000 0.000000
# 3 0.005779 -0.009318 0.028713 0.000000 0.000000 0.000000
# 4 0.000000 0.000000 0.000000 0.099466 0.000000 0.000000
# 5 0.000000 0.000000 0.000000 0.000000 0.148454 0.000000
# 6 0.000000 0.000000 0.000000 0.000000 0.000000 0.031607
#
#
# Mechanical properties :
#
#
# Convention : Reuss Voigt Hill
#
# Bulk Modulus (GPa) = 28.04847 42.51451 35.28149
# Shear Modulus (GPa) = 13.18038 20.57471 16.87755
#
# Velocity S-wave (km/s) = 2.42362 3.02808 2.74255
# Velocity P-wave (km/s) = 4.50909 5.58324 5.07467
#
# Compressibility (1/GPa) = 0.03565256
#
# Stress axis : x y z
#
# Youngs Moduli (GPa) = 60.24392 60.66426 34.82714
#
# Poissons Ratio (x) = 0.57831 -0.20126
# Poissons Ratio (y) = 0.57430 0.32452
# Poissons Ratio (z) = -0.34814 0.56527
#
# Static dielectric constant tensor:
#      x y z
#    x 1.743170 0.000000 0.000000 
#    y 0.000000 1.703850 0.000000 
#    z 0.000000 0.000000 1.873070 
# 
# From -- ./inp_files/66675.got.cif
#   From: 2010.05.17/outbox.cif.g08.bks.cpg/sg70_34_cif.got.tgz:66675.got - 2010.06.03 15:57:51.
