data_PCOD9516969
_publ_section_title
;
Structure prediction by ZEFSAII (Michael W. Deem and Ramdas Pophale) SiO2 
 PCOD9516969
Probable space group: F D D D
;
_chemical_formula_sum "Si O2"
_cell_formula_units_Z 112
_cell_length_a 14.726939
_cell_length_b 9.504570
_cell_length_c 32.756072
_cell_angle_alpha 90.000000
_cell_angle_beta 90.000000
_cell_angle_gamma 90.000000
_cell_volume 4584.972958
_symmetry_space_group_name_H-M "F D D D"
_symmetry_group_IT_number 70
_space_group.IT_coordinate_system_code '2'
_symmetry_cell_setting 'orthorhombic'
loop_
_space_group_symop_operation_xyz
x,y,z
1/4-x,1/4-y,z
x,1/4-y,1/4-z
1/4-x,y,1/4-z
-x,-y,-z
3/4+x,3/4+y,-z
-x,3/4+y,3/4+z
3/4+x,-y,3/4+z
x,1/2+y,1/2+z
1/4-x,3/4-y,1/2+z
x,3/4-y,3/4-z
1/4-x,1/2+y,3/4-z
-x,1/2-y,1/2-z
3/4+x,1/4+y,1/2-z
-x,1/4+y,1/4+z
3/4+x,1/2-y,1/4+z
1/2+x,y,1/2+z
3/4-x,1/4-y,1/2+z
1/2+x,1/4-y,3/4-z
3/4-x,y,3/4-z
1/2-x,-y,1/2-z
1/4+x,3/4+y,1/2-z
1/2-x,3/4+y,1/4+z
1/4+x,-y,1/4+z
1/2+x,1/2+y,z
3/4-x,3/4-y,z
1/2+x,3/4-y,1/4-z
3/4-x,1/2+y,1/4-z
1/2-x,1/2-y,-z
1/4+x,1/4+y,-z
1/2-x,1/4+y,3/4+z
1/4+x,1/2-y,3/4+z
loop_
_atom_site_type_symbol
_atom_site_label
_atom_site_fract_x
_atom_site_fract_y
_atom_site_fract_z
Si Si1 0.214991 0.391408 0.476970
Si Si2 0.125000 0.625000 0.534286
Si Si3 0.787102 0.738161 0.349027
Si Si4 0.199445 0.792537 0.416635
O O1 0.250000 0.250000 0.500000
O O2 0.177517 0.507268 0.508267
O O3 0.293210 0.457614 0.447714
O O4 0.127842 0.388917 0.445901
O O5 0.045686 0.558256 0.560542
O O6 0.875000 0.687562 0.375000
O O7 0.711200 0.620916 0.345974
O O8 0.759681 0.875000 0.375000
O O9 0.199630 0.875000 0.375000
#
# Coordination Sequence:
#
# PCOD9516969 Si02
#       4
#    32  16  32  32
#     4  12  29  50  80 122 168 225 287 369 443 531
#     4  12  27  52  80 116 172 218 290 374 438 524
#     4  11  26  47  79 118 164 219 289 353 438 536
#     4  12  27  53  79 118 166 223 287 354 445 537
#
# _framework density 24.427624999999999
#
# number of rings (size 3 to 8) (size 9 to 14) (size 15 to 20)
#    0.000    0.286    2.857    3.857   12.000    1.143 
#    0.000    0.000    0.000    0.000    0.000    0.000 
#    0.000    0.000    0.000    0.000    0.000    0.000 
#
# Total GULP energy -156324.625519 kJ/mol
# GULP energy per Si atom -5583.022340 kJ/mol
# Density = 2.437203 g / cm^3
# Si number density = 24.427625 Si / 1000 Ang^3
#
#
#
# Elastic Constant Matrix: (Units=GPa)
#
#
# Indices 1 2 3 4 5 6 
#
# 1 197.1192 58.0304 69.5843 0.0000 0.0000 0.0000
# 2 58.0304 183.6148 68.3432 0.0000 0.0000 0.0000
# 3 69.5843 68.3432 125.7227 0.0000 0.0000 0.0000
# 4 0.0000 0.0000 0.0000 54.4941 0.0000 0.0000
# 5 0.0000 0.0000 0.0000 0.0000 110.1295 0.0000
# 6 0.0000 0.0000 0.0000 0.0000 0.0000 15.1367
#
#
#
# Elastic Compliance Matrix: (Units=1/GPa)
#
#
# Indices 1 2 3 4 5 6 
#
# 1 0.006418 -0.000885 -0.003071 0.000000 0.000000 0.000000
# 2 -0.000885 0.006950 -0.003288 0.000000 0.000000 0.000000
# 3 -0.003071 -0.003288 0.011441 0.000000 0.000000 0.000000
# 4 0.000000 0.000000 0.000000 0.018351 0.000000 0.000000
# 5 0.000000 0.000000 0.000000 0.000000 0.009080 0.000000
# 6 0.000000 0.000000 0.000000 0.000000 0.000000 0.066065
#
#
# Mechanical properties :
#
#
# Convention : Reuss Voigt Hill
#
# Bulk Modulus (GPa) = 96.89550 99.81917 98.35733
# Shear Modulus (GPa) = 36.70212 56.65200 46.67706
#
# Velocity S-wave (km/s) = 3.88039 4.82101 4.37605
# Velocity P-wave (km/s) = 7.73493 8.48183 8.11697
#
# Compressibility (1/GPa) = 0.01032040
#
# Stress axis : x y z
#
# Youngs Moduli (GPa) = 155.81896 143.88963 87.40548
#
# Poissons Ratio (x) = 0.12739 0.26840
# Poissons Ratio (y) = 0.13795 0.28738
# Poissons Ratio (z) = 0.47849 0.47310
#
# Static dielectric constant tensor:
#      x y z
#    x 2.108010 0.000000 0.000000 
#    y 0.000000 2.255730 0.000000 
#    z 0.000000 0.000000 1.939580 
# 
# From -- ./inp_files/65436.got.cif
#   From: 2010.05.17/outbox.cif.g08.bks.cpg/sg70_33_cif.got.tgz:65436.got - 2010.06.03 15:57:51.
