data_PCOD9516810
_publ_section_title
;
Structure prediction by ZEFSAII (Michael W. Deem and Ramdas Pophale) SiO2 
 PCOD9516810
Probable space group: F D D D
;
_chemical_formula_sum "Si O2"
_cell_formula_units_Z 112
_cell_length_a 9.577859
_cell_length_b 20.713770
_cell_length_c 24.343410
_cell_angle_alpha 90.000000
_cell_angle_beta 90.000000
_cell_angle_gamma 90.000000
_cell_volume 4829.575977
_symmetry_space_group_name_H-M "F D D D"
_symmetry_group_IT_number 70
_space_group.IT_coordinate_system_code '2'
_symmetry_cell_setting 'orthorhombic'
loop_
_space_group_symop_operation_xyz
x,y,z
1/4-x,1/4-y,z
x,1/4-y,1/4-z
1/4-x,y,1/4-z
-x,-y,-z
3/4+x,3/4+y,-z
-x,3/4+y,3/4+z
3/4+x,-y,3/4+z
x,1/2+y,1/2+z
1/4-x,3/4-y,1/2+z
x,3/4-y,3/4-z
1/4-x,1/2+y,3/4-z
-x,1/2-y,1/2-z
3/4+x,1/4+y,1/2-z
-x,1/4+y,1/4+z
3/4+x,1/2-y,1/4+z
1/2+x,y,1/2+z
3/4-x,1/4-y,1/2+z
1/2+x,1/4-y,3/4-z
3/4-x,y,3/4-z
1/2-x,-y,1/2-z
1/4+x,3/4+y,1/2-z
1/2-x,3/4+y,1/4+z
1/4+x,-y,1/4+z
1/2+x,1/2+y,z
3/4-x,3/4-y,z
1/2+x,3/4-y,1/4-z
3/4-x,1/2+y,1/4-z
1/2-x,1/2-y,-z
1/4+x,1/4+y,-z
1/2-x,1/4+y,3/4+z
1/4+x,1/2-y,3/4+z
loop_
_atom_site_type_symbol
_atom_site_label
_atom_site_fract_x
_atom_site_fract_y
_atom_site_fract_z
Si Si1 0.841222 0.267669 0.316058
Si Si2 0.073409 0.191006 0.782909
Si Si3 0.884062 0.947191 0.695777
Si Si4 0.875000 0.204003 0.875000
O O1 0.875000 0.299423 0.375000
O O2 0.703946 0.222979 0.314799
O O3 0.822434 0.307072 0.259734
O O4 0.981510 0.226713 0.306987
O O5 0.125000 0.125000 0.753446
O O6 0.000000 0.250000 0.750000
O O7 0.957873 0.168447 0.826937
O O8 0.875000 0.875000 0.673497
O O9 0.000245 0.986662 0.660661
#
# Coordination Sequence:
#
# PCOD9516810 Si02
#       4
#    32  32  32  16
#     4  11  24  42  65  98 138 183 237 301 375 446
#     4  12  26  45  73 106 144 194 250 316 380 460
#     4  11  24  40  66  99 132 180 240 302 371 450
#     4  12  22  42  71 108 136 187 258 308 372 464
#
# _framework density 23.190441
#
# number of rings (size 3 to 8) (size 9 to 14) (size 15 to 20)
#    0.000    0.571    5.714    2.571    4.000    0.571 
#    0.000    0.714    6.286    0.000    0.000    0.000 
#    0.000    0.000    0.000    0.000    0.000    0.000 
#
# Total GULP energy -155928.438526 kJ/mol
# GULP energy per Si atom -5568.872804 kJ/mol
# Density = 2.313766 g / cm^3
# Si number density = 23.190441 Si / 1000 Ang^3
#
#
#
# Elastic Constant Matrix: (Units=GPa)
#
#
# Indices 1 2 3 4 5 6 
#
# 1 162.6411 31.8326 41.3691 0.0000 0.0000 0.0000
# 2 31.8326 97.1767 36.9752 0.0000 0.0000 0.0000
# 3 41.3691 36.9752 143.5272 0.0000 0.0000 0.0000
# 4 0.0000 0.0000 0.0000 21.5876 0.0000 0.0000
# 5 0.0000 0.0000 0.0000 0.0000 54.0497 0.0000
# 6 0.0000 0.0000 0.0000 0.0000 0.0000 18.7474
#
#
#
# Elastic Compliance Matrix: (Units=1/GPa)
#
#
# Indices 1 2 3 4 5 6 
#
# 1 0.006868 -0.001659 -0.001552 0.000000 0.000000 0.000000
# 2 -0.001659 0.011810 -0.002564 0.000000 0.000000 0.000000
# 3 -0.001552 -0.002564 0.008075 0.000000 0.000000 0.000000
# 4 0.000000 0.000000 0.000000 0.046323 0.000000 0.000000
# 5 0.000000 0.000000 0.000000 0.000000 0.018501 0.000000
# 6 0.000000 0.000000 0.000000 0.000000 0.000000 0.053341
#
#
# Mechanical properties :
#
#
# Convention : Reuss Voigt Hill
#
# Bulk Modulus (GPa) = 65.78087 69.29987 67.54037
# Shear Modulus (GPa) = 30.95274 38.42147 34.68711
#
# Velocity S-wave (km/s) = 3.65735 4.07477 3.87169
# Velocity P-wave (km/s) = 6.80162 7.21708 7.01242
#
# Compressibility (1/GPa) = 0.01520199
#
# Stress axis : x y z
#
# Youngs Moduli (GPa) = 145.60157 84.67620 123.83484
#
# Poissons Ratio (x) = 0.14050 0.19221
# Poissons Ratio (y) = 0.24158 0.31753
# Poissons Ratio (z) = 0.22600 0.21712
#
# Static dielectric constant tensor:
#      x y z
#    x 1.922200 0.000000 0.000000 
#    y 0.000000 1.864720 0.000000 
#    z 0.000000 0.000000 1.993760 
# 
# From -- ./inp_files/9468.got.cif
#   From: 2010.05.17/outbox.cif.g08.bks.cpg/sg70_5_cif.got.tgz:9468.got - 2010.06.03 15:57:51.
