data_PCOD9516474
_publ_section_title
;
Structure prediction by ZEFSAII (Michael W. Deem and Ramdas Pophale) SiO2 
 PCOD9516474
Probable space group: F D D D
;
_chemical_formula_sum "Si O2"
_cell_formula_units_Z 88
_cell_length_a 26.827606
_cell_length_b 8.575926
_cell_length_c 15.702833
_cell_angle_alpha 90.000000
_cell_angle_beta 90.000000
_cell_angle_gamma 90.000000
_cell_volume 3612.775345
_symmetry_space_group_name_H-M "F D D D"
_symmetry_group_IT_number 70
_space_group.IT_coordinate_system_code '2'
_symmetry_cell_setting 'orthorhombic'
loop_
_space_group_symop_operation_xyz
x,y,z
1/4-x,1/4-y,z
x,1/4-y,1/4-z
1/4-x,y,1/4-z
-x,-y,-z
3/4+x,3/4+y,-z
-x,3/4+y,3/4+z
3/4+x,-y,3/4+z
x,1/2+y,1/2+z
1/4-x,3/4-y,1/2+z
x,3/4-y,3/4-z
1/4-x,1/2+y,3/4-z
-x,1/2-y,1/2-z
3/4+x,1/4+y,1/2-z
-x,1/4+y,1/4+z
3/4+x,1/2-y,1/4+z
1/2+x,y,1/2+z
3/4-x,1/4-y,1/2+z
1/2+x,1/4-y,3/4-z
3/4-x,y,3/4-z
1/2-x,-y,1/2-z
1/4+x,3/4+y,1/2-z
1/2-x,3/4+y,1/4+z
1/4+x,-y,1/4+z
1/2+x,1/2+y,z
3/4-x,3/4-y,z
1/2+x,3/4-y,1/4-z
3/4-x,1/2+y,1/4-z
1/2-x,1/2-y,-z
1/4+x,1/4+y,-z
1/2-x,1/4+y,3/4+z
1/4+x,1/2-y,3/4+z
loop_
_atom_site_type_symbol
_atom_site_label
_atom_site_fract_x
_atom_site_fract_y
_atom_site_fract_z
Si Si1 0.299774 0.343630 0.476153
Si Si2 0.875000 0.375000 0.648837
Si Si3 0.875000 0.375000 0.375000
Si Si4 0.307423 0.203810 0.008598
O O1 0.306409 0.375000 0.375000
O O2 0.250000 0.250000 0.500000
O O3 0.343520 0.267277 0.534142
O O4 0.301745 0.518654 0.511055
O O5 0.913140 0.461449 0.585057
O O6 0.911309 0.263008 0.322033
O O7 0.250000 0.250000 0.000000
#
# Coordination Sequence:
#
# PCOD9516474 Si02
#       4
#    32  16   8  32
#     4  12  29  50  81 121 168 216 279 349 430 503
#     4  11  27  51  79 122 166 218 277 345 423 507
#     4  10  28  48  84 120 166 216 284 348 412 516
#     4  11  27  51  84 116 163 220 280 344 428 500
#
# _framework density 24.358004999999999
#
# number of rings (size 3 to 8) (size 9 to 14) (size 15 to 20)
#    0.000    0.727    0.000    3.818   15.273    8.727 
#    0.000    0.000    0.000    0.000    0.000    0.000 
#    0.000    0.000    0.000    0.000    0.000    0.000 
#
# Total GULP energy -122916.872698 kJ/mol
# GULP energy per Si atom -5587.130577 kJ/mol
# Density = 2.430257 g / cm^3
# Si number density = 24.358005 Si / 1000 Ang^3
#
#
#
# Elastic Constant Matrix: (Units=GPa)
#
#
# Indices 1 2 3 4 5 6 
#
# 1 260.5033 71.8658 114.5857 0.0000 0.0000 0.0000
# 2 71.8658 127.0026 53.2115 0.0000 0.0000 0.0000
# 3 114.5857 53.2115 233.5997 0.0000 0.0000 0.0000
# 4 0.0000 0.0000 0.0000 28.8931 0.0000 0.0000
# 5 0.0000 0.0000 0.0000 0.0000 -9.5047 0.0000
# 6 0.0000 0.0000 0.0000 0.0000 0.0000 56.7652
#
#
#
# Elastic Compliance Matrix: (Units=1/GPa)
#
#
# Indices 1 2 3 4 5 6 
#
# 1 0.005374 -0.002141 -0.002149 0.000000 0.000000 0.000000
# 2 -0.002141 0.009557 -0.001127 0.000000 0.000000 0.000000
# 3 -0.002149 -0.001127 0.005591 0.000000 0.000000 0.000000
# 4 0.000000 0.000000 0.000000 0.034610 0.000000 0.000000
# 5 0.000000 0.000000 0.000000 0.000000 -0.105212 0.000000
# 6 0.000000 0.000000 0.000000 0.000000 0.000000 0.017616
#
#
# Mechanical properties :
#
#
# Convention : Reuss Voigt Hill
#
# Bulk Modulus (GPa) = 103.19422 122.27019 112.73220
# Shear Modulus (GPa) = -271.76389 40.66022 -115.55183
#
# Velocity S-wave (km/s) = -10.57416 4.09011 -6.89507
# Velocity P-wave (km/s) = 10.32600 8.52123 4.12400
#
# Compressibility (1/GPa) = 0.00969047
#
# Stress axis : x y z
#
# Youngs Moduli (GPa) = 186.06576 104.62987 178.84437
#
# Poissons Ratio (x) = 0.22401 0.38426
# Poissons Ratio (y) = 0.39836 0.20154
# Poissons Ratio (z) = 0.39978 0.11791
#
# Static dielectric constant tensor:
#      x y z
#    x 2.377210 0.000000 0.000000 
#    y 0.000000 2.703750 0.000000 
#    z 0.000000 0.000000 2.037790 
# 
# From -- ./inp_files/7152.got.cif
#   From: 2010.05.17/outbox.cif.g08.bks.cpg/sg70_4_cif.got.tgz:7152.got - 2010.06.03 15:57:51.
