data_PCOD9516913
_publ_section_title
;
Structure prediction by ZEFSAII (Michael W. Deem and Ramdas Pophale) SiO2 
 PCOD9516913
Probable space group: F D D D
;
_chemical_formula_sum "Si O2"
_cell_formula_units_Z 168
_cell_length_a 12.494279
_cell_length_b 25.441086
_cell_length_c 22.683082
_cell_angle_alpha 90.000000
_cell_angle_beta 90.000000
_cell_angle_gamma 90.000000
_cell_volume 7210.226511
_symmetry_space_group_name_H-M "F D D D"
_symmetry_group_IT_number 70
_space_group.IT_coordinate_system_code '2'
_symmetry_cell_setting 'orthorhombic'
loop_
_space_group_symop_operation_xyz
x,y,z
1/4-x,1/4-y,z
x,1/4-y,1/4-z
1/4-x,y,1/4-z
-x,-y,-z
3/4+x,3/4+y,-z
-x,3/4+y,3/4+z
3/4+x,-y,3/4+z
x,1/2+y,1/2+z
1/4-x,3/4-y,1/2+z
x,3/4-y,3/4-z
1/4-x,1/2+y,3/4-z
-x,1/2-y,1/2-z
3/4+x,1/4+y,1/2-z
-x,1/4+y,1/4+z
3/4+x,1/2-y,1/4+z
1/2+x,y,1/2+z
3/4-x,1/4-y,1/2+z
1/2+x,1/4-y,3/4-z
3/4-x,y,3/4-z
1/2-x,-y,1/2-z
1/4+x,3/4+y,1/2-z
1/2-x,3/4+y,1/4+z
1/4+x,-y,1/4+z
1/2+x,1/2+y,z
3/4-x,3/4-y,z
1/2+x,3/4-y,1/4-z
3/4-x,1/2+y,1/4-z
1/2-x,1/2-y,-z
1/4+x,1/4+y,-z
1/2-x,1/4+y,3/4+z
1/4+x,1/2-y,3/4+z
loop_
_atom_site_type_symbol
_atom_site_label
_atom_site_fract_x
_atom_site_fract_y
_atom_site_fract_z
Si Si1 0.175010 0.821221 0.907459
Si Si2 0.125000 0.625000 0.039339
Si Si3 0.838412 0.958473 0.102441
Si Si4 0.875000 0.375000 0.375000
Si Si5 0.473232 0.951597 0.279262
Si Si6 0.769525 0.569593 0.443427
Si Si7 0.125000 0.400081 0.125000
O O1 0.139195 0.875000 0.875000
O O2 0.163552 0.771268 0.864054
O O3 0.102318 0.805005 0.964005
O O4 0.295898 0.835549 0.926229
O O5 0.201890 0.590271 0.998352
O O6 0.938286 0.934224 0.137657
O O7 0.729295 0.935452 0.129125
O O8 0.828415 0.942790 0.034265
O O9 0.815367 0.336566 0.330173
O O10 0.442501 0.010991 0.295519
O O11 0.863922 0.609925 0.429544
#
# Coordination Sequence:
#
# PCOD9516913 Si02
#       7
#    32  16  32   8  32  32  16
#     4  11  25  45  69 103 142 183 230 284 353 416
#     4  12  23  43  72 102 149 181 232 290 346 412
#     4  11  26  43  71 104 135 182 235 282 353 413
#     4  12  26  50  72 102 138 182 240 288 344 422
#     4  11  26  47  71  99 138 184 232 293 343 416
#     4  11  25  46  66 102 139 185 234 285 346 421
#     4  12  23  44  65 101 138 181 228 284 338 424
#
# _framework density 23.300239000000001
#
# number of rings (size 3 to 8) (size 9 to 14) (size 15 to 20)
#    0.000    0.762    2.857    3.143    8.000    1.524 
#    0.000    4.762    0.000    0.000    0.000    0.000 
#    0.000    0.000    0.000    0.000    0.000    0.000 
#
# Total GULP energy -234912.968369 kJ/mol
# GULP energy per Si atom -5593.165914 kJ/mol
# Density = 2.324721 g / cm^3
# Si number density = 23.300239 Si / 1000 Ang^3
#
#
#
# Elastic Constant Matrix: (Units=GPa)
#
#
# Indices 1 2 3 4 5 6 
#
# 1 43.0429 8.7000 18.1028 0.0000 0.0000 0.0000
# 2 8.7000 137.7772 9.1942 0.0000 0.0000 0.0000
# 3 18.1028 9.1942 103.4344 0.0000 0.0000 0.0000
# 4 0.0000 0.0000 0.0000 40.7517 0.0000 0.0000
# 5 0.0000 0.0000 0.0000 0.0000 38.2902 0.0000
# 6 0.0000 0.0000 0.0000 0.0000 0.0000 8.1215
#
#
#
# Elastic Compliance Matrix: (Units=1/GPa)
#
#
# Indices 1 2 3 4 5 6 
#
# 1 0.025312 -0.001310 -0.004313 0.000000 0.000000 0.000000
# 2 -0.001310 0.007369 -0.000426 0.000000 0.000000 0.000000
# 3 -0.004313 -0.000426 0.010461 0.000000 0.000000 0.000000
# 4 0.000000 0.000000 0.000000 0.024539 0.000000 0.000000
# 5 0.000000 0.000000 0.000000 0.000000 0.026116 0.000000
# 6 0.000000 0.000000 0.000000 0.000000 0.000000 0.123130
#
#
# Mechanical properties :
#
#
# Convention : Reuss Voigt Hill
#
# Bulk Modulus (GPa) = 32.21406 39.58315 35.89860
# Shear Modulus (GPa) = 20.88789 33.98319 27.43554
#
# Velocity S-wave (km/s) = 2.99735 3.82316 3.43516
# Velocity P-wave (km/s) = 5.08276 6.04268 5.58339
#
# Compressibility (1/GPa) = 0.03104235
#
# Stress axis : x y z
#
# Youngs Moduli (GPa) = 39.50754 135.69896 95.59561
#
# Poissons Ratio (x) = 0.17783 0.41235
# Poissons Ratio (y) = 0.05177 0.04069
# Poissons Ratio (z) = 0.17041 0.05777
#
# Static dielectric constant tensor:
#      x y z
#    x 1.579020 0.000000 0.000000 
#    y 0.000000 1.828690 0.000000 
#    z 0.000000 0.000000 1.927030 
# 
# From -- ./inp_files/42872.got.cif
#   From: 2010.05.17/outbox.cif.g08.bks.cpg/sg70_22_cif.got.tgz:42872.got - 2010.06.03 15:57:51.
