data_PCOD9516930
_publ_section_title
;
Structure prediction by ZEFSAII (Michael W. Deem and Ramdas Pophale) SiO2 
 PCOD9516930
Probable space group: F D D D
;
_chemical_formula_sum "Si O2"
_cell_formula_units_Z 112
_cell_length_a 11.816124
_cell_length_b 28.338429
_cell_length_c 12.865184
_cell_angle_alpha 90.000000
_cell_angle_beta 90.000000
_cell_angle_gamma 90.000000
_cell_volume 4307.911893
_symmetry_space_group_name_H-M "F D D D"
_symmetry_group_IT_number 70
_space_group.IT_coordinate_system_code '2'
_symmetry_cell_setting 'orthorhombic'
loop_
_space_group_symop_operation_xyz
x,y,z
1/4-x,1/4-y,z
x,1/4-y,1/4-z
1/4-x,y,1/4-z
-x,-y,-z
3/4+x,3/4+y,-z
-x,3/4+y,3/4+z
3/4+x,-y,3/4+z
x,1/2+y,1/2+z
1/4-x,3/4-y,1/2+z
x,3/4-y,3/4-z
1/4-x,1/2+y,3/4-z
-x,1/2-y,1/2-z
3/4+x,1/4+y,1/2-z
-x,1/4+y,1/4+z
3/4+x,1/2-y,1/4+z
1/2+x,y,1/2+z
3/4-x,1/4-y,1/2+z
1/2+x,1/4-y,3/4-z
3/4-x,y,3/4-z
1/2-x,-y,1/2-z
1/4+x,3/4+y,1/2-z
1/2-x,3/4+y,1/4+z
1/4+x,-y,1/4+z
1/2+x,1/2+y,z
3/4-x,3/4-y,z
1/2+x,3/4-y,1/4-z
3/4-x,1/2+y,1/4-z
1/2-x,1/2-y,-z
1/4+x,1/4+y,-z
1/2-x,1/4+y,3/4+z
1/4+x,1/2-y,3/4+z
loop_
_atom_site_type_symbol
_atom_site_label
_atom_site_fract_x
_atom_site_fract_y
_atom_site_fract_z
Si Si1 0.750681 0.557255 0.079598
Si Si2 0.125000 0.625000 0.967072
Si Si3 0.626622 0.896412 0.743931
Si Si4 0.882082 0.973047 0.494465
O O1 0.625000 0.558737 0.125000
O O2 0.834842 0.563146 0.178249
O O3 0.784912 0.603413 0.011812
O O4 0.784058 0.510152 0.019503
O O5 0.251001 0.622784 0.015626
O O6 0.121614 0.571058 0.926387
O O7 0.625000 0.911096 0.625000
O O8 0.875000 0.955405 0.375000
O O9 0.000000 0.000000 0.500000
#
# Coordination Sequence:
#
# PCOD9516930 Si02
#       4
#    32  16  32  32
#     4  11  26  48  78 114 163 204 261 327 411 481
#     4  12  27  44  82 113 152 206 277 322 404 475
#     4  11  25  46  78 116 154 204 258 331 397 478
#     4  12  26  48  78 115 160 207 270 336 400 479
#
# _framework density 25.998674999999999
#
# number of rings (size 3 to 8) (size 9 to 14) (size 15 to 20)
#    0.000    0.571    2.857    4.714    8.000    1.143 
#    0.000    4.286    0.000    0.000    0.000    0.000 
#    0.000    0.000    0.000    0.000    0.000    0.000 
#
# Total GULP energy -156606.265022 kJ/mol
# GULP energy per Si atom -5593.080894 kJ/mol
# Density = 2.593950 g / cm^3
# Si number density = 25.998675 Si / 1000 Ang^3
#
#
#
# Elastic Constant Matrix: (Units=GPa)
#
#
# Indices 1 2 3 4 5 6 
#
# 1 204.7379 31.1960 -8.6326 0.0000 0.0000 0.0000
# 2 31.1960 145.6906 -13.6037 0.0000 0.0000 0.0000
# 3 -8.6326 -13.6037 97.8807 0.0000 0.0000 0.0000
# 4 0.0000 0.0000 0.0000 22.7288 0.0000 0.0000
# 5 0.0000 0.0000 0.0000 0.0000 41.1480 0.0000
# 6 0.0000 0.0000 0.0000 0.0000 0.0000 41.2549
#
#
#
# Elastic Compliance Matrix: (Units=1/GPa)
#
#
# Indices 1 2 3 4 5 6 
#
# 1 0.005058 -0.001055 0.000299 0.000000 0.000000 0.000000
# 2 -0.001055 0.007174 0.000904 0.000000 0.000000 0.000000
# 3 0.000299 0.000904 0.010369 0.000000 0.000000 0.000000
# 4 0.000000 0.000000 0.000000 0.043997 0.000000 0.000000
# 5 0.000000 0.000000 0.000000 0.000000 0.024303 0.000000
# 6 0.000000 0.000000 0.000000 0.000000 0.000000 0.024240
#
#
# Mechanical properties :
#
#
# Convention : Reuss Voigt Hill
#
# Bulk Modulus (GPa) = 43.67320 51.80317 47.73818
# Shear Modulus (GPa) = 40.82465 50.31631 45.57048
#
# Velocity S-wave (km/s) = 3.96695 4.40402 4.19119
# Velocity P-wave (km/s) = 6.14955 6.76972 6.46707
#
# Compressibility (1/GPa) = 0.02289734
#
# Stress axis : x y z
#
# Youngs Moduli (GPa) = 197.71944 139.38881 96.44530
#
# Poissons Ratio (x) = 0.14706 -0.02888
# Poissons Ratio (y) = 0.20860 -0.08719
# Poissons Ratio (z) = -0.05920 -0.12601
#
# Static dielectric constant tensor:
#      x y z
#    x 1.988750 0.000000 0.000000 
#    y 0.000000 2.000770 0.000000 
#    z 0.000000 0.000000 2.288060 
# 
# From -- ./inp_files/15012.got.cif
#   From: 2010.05.17/outbox.cif.g08.bks.cpg/sg70_8_cif.got.tgz:15012.got - 2010.06.03 15:57:51.
