data_PCOD9516789
_publ_section_title
;
Structure prediction by ZEFSAII (Michael W. Deem and Ramdas Pophale) SiO2 
 PCOD9516789
Probable space group: F D D D
;
_chemical_formula_sum "Si O2"
_cell_formula_units_Z 176
_cell_length_a 24.173961
_cell_length_b 11.147705
_cell_length_c 27.458401
_cell_angle_alpha 90.000000
_cell_angle_beta 90.000000
_cell_angle_gamma 90.000000
_cell_volume 7399.604840
_symmetry_space_group_name_H-M "F D D D"
_symmetry_group_IT_number 70
_space_group.IT_coordinate_system_code '2'
_symmetry_cell_setting 'orthorhombic'
loop_
_space_group_symop_operation_xyz
x,y,z
1/4-x,1/4-y,z
x,1/4-y,1/4-z
1/4-x,y,1/4-z
-x,-y,-z
3/4+x,3/4+y,-z
-x,3/4+y,3/4+z
3/4+x,-y,3/4+z
x,1/2+y,1/2+z
1/4-x,3/4-y,1/2+z
x,3/4-y,3/4-z
1/4-x,1/2+y,3/4-z
-x,1/2-y,1/2-z
3/4+x,1/4+y,1/2-z
-x,1/4+y,1/4+z
3/4+x,1/2-y,1/4+z
1/2+x,y,1/2+z
3/4-x,1/4-y,1/2+z
1/2+x,1/4-y,3/4-z
3/4-x,y,3/4-z
1/2-x,-y,1/2-z
1/4+x,3/4+y,1/2-z
1/2-x,3/4+y,1/4+z
1/4+x,-y,1/4+z
1/2+x,1/2+y,z
3/4-x,3/4-y,z
1/2+x,3/4-y,1/4-z
3/4-x,1/2+y,1/4-z
1/2-x,1/2-y,-z
1/4+x,1/4+y,-z
1/2-x,1/4+y,3/4+z
1/4+x,1/2-y,3/4+z
loop_
_atom_site_type_symbol
_atom_site_label
_atom_site_fract_x
_atom_site_fract_y
_atom_site_fract_z
Si Si1 0.011964 0.497068 0.218622
Si Si2 0.376287 0.160119 0.267169
Si Si3 0.174015 0.709882 0.452133
Si Si4 0.736269 0.375000 0.375000
Si Si5 0.063365 0.445840 0.919708
Si Si6 0.234866 0.403578 0.571945
O O1 0.074888 0.470355 0.206197
O O2 0.973595 0.379076 0.217022
O O3 0.982298 0.600842 0.188596
O O4 0.013229 0.545671 0.273384
O O5 0.397711 0.219408 0.216297
O O6 0.428339 0.152873 0.302784
O O7 0.354322 0.030944 0.247222
O O8 0.125000 0.625000 0.431032
O O9 0.199259 0.809882 0.416295
O O10 0.773575 0.482108 0.394861
O O11 0.090510 0.375000 0.875000
O O12 0.028764 0.562428 0.904724
#
# Coordination Sequence:
#
# PCOD9516789 Si02
#       6
#    32  32  32  16  32  32
#     4  11  23  46  73 100 141 184 236 287 349 429
#     4  11  24  43  75 103 134 191 231 285 352 426
#     4  12  24  45  73  98 139 182 235 290 356 410
#     4  12  28  44  67 112 142 180 239 302 344 424
#     4  11  25  45  70 106 143 180 234 298 346 412
#     4  11  25  44  69 105 141 184 236 285 353 419
#
# _framework density 23.785053999999999
#
# number of rings (size 3 to 8) (size 9 to 14) (size 15 to 20)
#    0.000    0.727    5.455    3.818    1.273    2.909 
#    0.000    5.455    0.000    0.000    0.000    0.000 
#    0.000    0.000    0.000    0.000    0.000    0.000 
#
# Total GULP energy -246283.377568 kJ/mol
# GULP energy per Si atom -5597.349490 kJ/mol
# Density = 2.373092 g / cm^3
# Si number density = 23.785054 Si / 1000 Ang^3
#
#
#
# Elastic Constant Matrix: (Units=GPa)
#
#
# Indices 1 2 3 4 5 6 
#
# 1 121.1163 4.0844 -0.9803 0.0000 0.0000 0.0000
# 2 4.0844 73.9946 -3.3539 0.0000 0.0000 0.0000
# 3 -0.9803 -3.3539 35.0624 0.0000 0.0000 0.0000
# 4 0.0000 0.0000 0.0000 37.1977 0.0000 0.0000
# 5 0.0000 0.0000 0.0000 0.0000 98.9050 0.0000
# 6 0.0000 0.0000 0.0000 0.0000 0.0000 -1.3995
#
#
#
# Elastic Compliance Matrix: (Units=1/GPa)
#
#
# Indices 1 2 3 4 5 6 
#
# 1 0.008273 -0.000448 0.000188 0.000000 0.000000 0.000000
# 2 -0.000448 0.013598 0.001288 0.000000 0.000000 0.000000
# 3 0.000188 0.001288 0.028649 0.000000 0.000000 0.000000
# 4 0.000000 0.000000 0.000000 0.026883 0.000000 0.000000
# 5 0.000000 0.000000 0.000000 0.000000 0.010111 0.000000
# 6 0.000000 0.000000 0.000000 0.000000 0.000000 -0.714533
#
#
# Mechanical properties :
#
#
# Convention : Reuss Voigt Hill
#
# Bulk Modulus (GPa) = 19.01981 25.51932 22.26957
# Shear Modulus (GPa) = -8.17594 42.30218 17.06312
#
# Velocity S-wave (km/s) = -1.85604 4.22182 2.68132
# Velocity P-wave (km/s) = 1.84952 5.87516 4.35535
#
# Compressibility (1/GPa) = 0.05257676
#
# Stress axis : x y z
#
# Youngs Moduli (GPa) = 120.87276 73.54228 34.90517
#
# Poissons Ratio (x) = 0.03296 -0.00658
# Poissons Ratio (y) = 0.05417 -0.04496
# Poissons Ratio (z) = -0.02278 -0.09473
#
# Static dielectric constant tensor:
#      x y z
#    x 1.877520 0.000000 0.000000 
#    y 0.000000 1.920800 0.000000 
#    z 0.000000 0.000000 1.964560 
# 
# From -- ./inp_files/61665.got.cif
#   From: 2010.05.17/outbox.cif.g08.bks.cpg/sg70_31_cif.got.tgz:61665.got - 2010.06.03 15:57:51.
