data_PCOD9516111
_publ_section_title
;
Structure prediction by ZEFSAII (Michael W. Deem and Ramdas Pophale) SiO2 
 PCOD9516111
Probable space group: F D D D
;
_chemical_formula_sum "Si O2"
_cell_formula_units_Z 216
_cell_length_a 32.230849
_cell_length_b 10.594053
_cell_length_c 31.016296
_cell_angle_alpha 90.000000
_cell_angle_beta 90.000000
_cell_angle_gamma 90.000000
_cell_volume 10590.679355
_symmetry_space_group_name_H-M "F D D D"
_symmetry_group_IT_number 70
_space_group.IT_coordinate_system_code '2'
_symmetry_cell_setting 'orthorhombic'
loop_
_space_group_symop_operation_xyz
x,y,z
1/4-x,1/4-y,z
x,1/4-y,1/4-z
1/4-x,y,1/4-z
-x,-y,-z
3/4+x,3/4+y,-z
-x,3/4+y,3/4+z
3/4+x,-y,3/4+z
x,1/2+y,1/2+z
1/4-x,3/4-y,1/2+z
x,3/4-y,3/4-z
1/4-x,1/2+y,3/4-z
-x,1/2-y,1/2-z
3/4+x,1/4+y,1/2-z
-x,1/4+y,1/4+z
3/4+x,1/2-y,1/4+z
1/2+x,y,1/2+z
3/4-x,1/4-y,1/2+z
1/2+x,1/4-y,3/4-z
3/4-x,y,3/4-z
1/2-x,-y,1/2-z
1/4+x,3/4+y,1/2-z
1/2-x,3/4+y,1/4+z
1/4+x,-y,1/4+z
1/2+x,1/2+y,z
3/4-x,3/4-y,z
1/2+x,3/4-y,1/4-z
3/4-x,1/2+y,1/4-z
1/2-x,1/2-y,-z
1/4+x,1/4+y,-z
1/2-x,1/4+y,3/4+z
1/4+x,1/2-y,3/4+z
loop_
_atom_site_type_symbol
_atom_site_label
_atom_site_fract_x
_atom_site_fract_y
_atom_site_fract_z
Si Si1 0.557877 0.875000 0.875000
Si Si2 0.530216 0.002216 0.353863
Si Si3 0.125929 0.987559 0.427204
Si Si4 0.223300 0.049171 0.026545
Si Si5 0.614853 0.978875 0.755056
Si Si6 0.495289 0.299971 0.073915
Si Si7 0.625000 0.125000 0.625000
Si Si8 0.932582 0.708588 0.813563
O O1 0.590138 0.982262 0.890903
O O2 0.526463 0.829935 0.912225
O O3 0.512892 0.875000 0.375000
O O4 0.577664 0.976488 0.340671
O O5 0.503425 0.022564 0.310094
O O6 0.525970 0.103551 0.392076
O O7 0.114041 0.867115 0.455707
O O8 0.125000 0.125000 0.449315
O O9 0.215385 0.189415 0.045066
O O10 0.177937 0.985516 0.021575
O O11 0.238540 0.062204 0.977328
O O12 0.625000 0.125000 0.767452
O O13 0.651890 0.929565 0.725399
O O14 0.543448 0.336272 0.080482
O O15 0.654735 0.214909 0.597314
#
# Coordination Sequence:
#
# PCOD9516111 Si02
#       8
#    16  32  32  32  32  32   8  32
#     4  12  26  44  65  97 138 198 231 291 358 426
#     4  12  25  37  69 104 131 176 233 291 357 428
#     4  12  25  44  65  99 137 179 237 291 353 422
#     4  11  22  42  66 104 138 177 227 298 359 421
#     4  10  23  41  70  99 133 185 226 289 372 419
#     4  12  25  43  66  99 146 183 234 293 359 434
#     4  12  20  40  70 106 136 176 236 314 338 428
#     4  11  22  38  68 102 137 176 229 296 364 410
#
# _framework density 20.395292999999999
#
# number of rings (size 3 to 8) (size 9 to 14) (size 15 to 20)
#    0.000    0.593    7.407    2.222    4.148    0.593 
#    0.000    4.444    0.000    0.000    0.000    0.000 
#    0.000    0.000    0.000    0.000    0.000    0.000 
#
# Total GULP energy -301157.317206 kJ/mol
# GULP energy per Si atom -5576.987356 kJ/mol
# Density = 2.034887 g / cm^3
# Si number density = 20.395293 Si / 1000 Ang^3
#
#
#
# Elastic Constant Matrix: (Units=GPa)
#
#
# Indices 1 2 3 4 5 6 
#
# 1 108.2640 34.9020 39.2163 0.0000 0.0000 0.0000
# 2 34.9020 45.9447 26.2053 0.0000 0.0000 0.0000
# 3 39.2163 26.2053 110.5415 0.0000 0.0000 0.0000
# 4 0.0000 0.0000 0.0000 26.1817 0.0000 0.0000
# 5 0.0000 0.0000 0.0000 0.0000 18.5415 0.0000
# 6 0.0000 0.0000 0.0000 0.0000 0.0000 6.4407
#
#
#
# Elastic Compliance Matrix: (Units=1/GPa)
#
#
# Indices 1 2 3 4 5 6 
#
# 1 0.012845 -0.008278 -0.002595 0.000000 0.000000 0.000000
# 2 -0.008278 0.030503 -0.004294 0.000000 0.000000 0.000000
# 3 -0.002595 -0.004294 0.010985 0.000000 0.000000 0.000000
# 4 0.000000 0.000000 0.000000 0.038195 0.000000 0.000000
# 5 0.000000 0.000000 0.000000 0.000000 0.053933 0.000000
# 6 0.000000 0.000000 0.000000 0.000000 0.000000 0.155263
#
#
# Mechanical properties :
#
#
# Convention : Reuss Voigt Hill
#
# Bulk Modulus (GPa) = 41.66820 51.71082 46.68951
# Shear Modulus (GPa) = 14.70338 21.19456 17.94897
#
# Velocity S-wave (km/s) = 2.68791 3.22714 2.96979
# Velocity P-wave (km/s) = 5.48706 6.26859 5.89080
#
# Compressibility (1/GPa) = 0.02399912
#
# Stress axis : x y z
#
# Youngs Moduli (GPa) = 77.85026 32.78360 91.03409
#
# Poissons Ratio (x) = 0.27138 0.23620
# Poissons Ratio (y) = 0.64444 0.39094
# Poissons Ratio (z) = 0.20199 0.14079
#
# Static dielectric constant tensor:
#      x y z
#    x 1.744930 0.000000 0.000000 
#    y 0.000000 1.761990 0.000000 
#    z 0.000000 0.000000 1.809400 
# 
# From -- ./inp_files/69013.got.cif
#   From: 2010.05.17/outbox.cif.g08.bks.cpg/sg70_35_cif.got.tgz:69013.got - 2010.06.03 15:57:51.
