data_PCOD9516735
_publ_section_title
;
Structure prediction by ZEFSAII (Michael W. Deem and Ramdas Pophale) SiO2 
 PCOD9516735
Probable space group: F D D D
;
_chemical_formula_sum "Si O2"
_cell_formula_units_Z 168
_cell_length_a 17.882685
_cell_length_b 20.507215
_cell_length_c 22.850134
_cell_angle_alpha 90.000000
_cell_angle_beta 90.000000
_cell_angle_gamma 90.000000
_cell_volume 8379.694051
_symmetry_space_group_name_H-M "F D D D"
_symmetry_group_IT_number 70
_space_group.IT_coordinate_system_code '2'
_symmetry_cell_setting 'orthorhombic'
loop_
_space_group_symop_operation_xyz
x,y,z
1/4-x,1/4-y,z
x,1/4-y,1/4-z
1/4-x,y,1/4-z
-x,-y,-z
3/4+x,3/4+y,-z
-x,3/4+y,3/4+z
3/4+x,-y,3/4+z
x,1/2+y,1/2+z
1/4-x,3/4-y,1/2+z
x,3/4-y,3/4-z
1/4-x,1/2+y,3/4-z
-x,1/2-y,1/2-z
3/4+x,1/4+y,1/2-z
-x,1/4+y,1/4+z
3/4+x,1/2-y,1/4+z
1/2+x,y,1/2+z
3/4-x,1/4-y,1/2+z
1/2+x,1/4-y,3/4-z
3/4-x,y,3/4-z
1/2-x,-y,1/2-z
1/4+x,3/4+y,1/2-z
1/2-x,3/4+y,1/4+z
1/4+x,-y,1/4+z
1/2+x,1/2+y,z
3/4-x,3/4-y,z
1/2+x,3/4-y,1/4-z
3/4-x,1/2+y,1/4-z
1/2-x,1/2-y,-z
1/4+x,1/4+y,-z
1/2-x,1/4+y,3/4+z
1/4+x,1/2-y,3/4+z
loop_
_atom_site_type_symbol
_atom_site_label
_atom_site_fract_x
_atom_site_fract_y
_atom_site_fract_z
Si Si1 0.625000 0.125000 0.225503
Si Si2 0.500300 0.868399 0.462760
Si Si3 0.490981 0.287798 0.545286
Si Si4 0.375000 0.375000 0.875000
Si Si5 0.689445 0.174985 0.419100
Si Si6 0.104557 0.443339 0.801430
Si Si7 0.488738 0.875000 0.875000
O O1 0.582894 0.069705 0.264103
O O2 0.561685 0.149111 0.179399
O O3 0.499973 0.790237 0.459713
O O4 0.436065 0.901393 0.421934
O O5 0.485151 0.893082 0.528126
O O6 0.581074 0.890593 0.442349
O O7 0.487774 0.306455 0.612973
O O8 0.561860 0.314680 0.509829
O O9 0.625000 0.125000 0.400408
O O10 0.646131 0.238243 0.442849
O O11 0.041429 0.432104 0.850345
#
# Coordination Sequence:
#
# PCOD9516735 Si02
#       7
#    16  32  32   8  32  32  16
#     4   9  20  39  64  91 132 177 218 276 342 399
#     4  12  25  43  68  99 130 182 222 275 341 399
#     4  11  23  43  66  97 137 174 226 278 339 401
#     4  12  22  42  66  98 128 174 224 270 336 404
#     4  12  23  43  65  95 136 175 217 280 335 398
#     4  11  23  42  65  97 133 171 232 276 332 405
#     4   9  19  40  61  93 122 174 220 275 331 396
#
# _framework density 20.048465
#
# number of rings (size 3 to 8) (size 9 to 14) (size 15 to 20)
#    0.000    0.952    3.810    3.429    0.000    2.286 
#    3.429    4.762    0.000    0.000    0.000    0.000 
#    0.000    0.000    0.000    0.000    0.000    0.000 
#
# Total GULP energy -234309.986164 kJ/mol
# GULP energy per Si atom -5578.809194 kJ/mol
# Density = 2.000283 g / cm^3
# Si number density = 20.048465 Si / 1000 Ang^3
#
#
#
# Elastic Constant Matrix: (Units=GPa)
#
#
# Indices 1 2 3 4 5 6 
#
# 1 106.1826 17.1229 57.2807 0.0000 0.0000 0.0000
# 2 17.1229 48.4829 37.8522 0.0000 0.0000 0.0000
# 3 57.2807 37.8522 177.0181 0.0000 0.0000 0.0000
# 4 0.0000 0.0000 0.0000 23.4838 0.0000 0.0000
# 5 0.0000 0.0000 0.0000 0.0000 31.8079 0.0000
# 6 0.0000 0.0000 0.0000 0.0000 0.0000 21.8360
#
#
#
# Elastic Compliance Matrix: (Units=1/GPa)
#
#
# Indices 1 2 3 4 5 6 
#
# 1 0.011486 -0.001386 -0.003420 0.000000 0.000000 0.000000
# 2 -0.001386 0.024927 -0.004882 0.000000 0.000000 0.000000
# 3 -0.003420 -0.004882 0.007800 0.000000 0.000000 0.000000
# 4 0.000000 0.000000 0.000000 0.042583 0.000000 0.000000
# 5 0.000000 0.000000 0.000000 0.000000 0.031439 0.000000
# 6 0.000000 0.000000 0.000000 0.000000 0.000000 0.045796
#
#
# Mechanical properties :
#
#
# Convention : Reuss Voigt Hill
#
# Bulk Modulus (GPa) = 40.26354 61.79948 51.03151
# Shear Modulus (GPa) = 26.08440 30.05405 28.06923
#
# Velocity S-wave (km/s) = 3.61094 3.87598 3.74581
# Velocity P-wave (km/s) = 6.12470 7.13603 6.64962
#
# Compressibility (1/GPa) = 0.02483636
#
# Stress axis : x y z
#
# Youngs Moduli (GPa) = 87.05907 40.11775 128.20874
#
# Poissons Ratio (x) = 0.05561 0.43853
# Poissons Ratio (y) = 0.12069 0.62586
# Poissons Ratio (z) = 0.29778 0.19584
#
# Static dielectric constant tensor:
#      x y z
#    x 1.709460 0.000000 0.000000 
#    y 0.000000 5.842480 0.000000 
#    z 0.000000 0.000000 1.745780 
# 
# From -- ./inp_files/45840.got.cif
#   From: 2010.05.17/outbox.cif.g08.bks.cpg/sg70_23_cif.got.tgz:45840.got - 2010.06.03 15:57:51.
