data_PCOD9516791
_publ_section_title
;
Structure prediction by ZEFSAII (Michael W. Deem and Ramdas Pophale) SiO2 
 PCOD9516791
Probable space group: F D D D
;
_chemical_formula_sum "Si O2"
_cell_formula_units_Z 144
_cell_length_a 22.096621
_cell_length_b 13.905538
_cell_length_c 19.636366
_cell_angle_alpha 90.000000
_cell_angle_beta 90.000000
_cell_angle_gamma 90.000000
_cell_volume 6033.575912
_symmetry_space_group_name_H-M "F D D D"
_symmetry_group_IT_number 70
_space_group.IT_coordinate_system_code '2'
_symmetry_cell_setting 'orthorhombic'
loop_
_space_group_symop_operation_xyz
x,y,z
1/4-x,1/4-y,z
x,1/4-y,1/4-z
1/4-x,y,1/4-z
-x,-y,-z
3/4+x,3/4+y,-z
-x,3/4+y,3/4+z
3/4+x,-y,3/4+z
x,1/2+y,1/2+z
1/4-x,3/4-y,1/2+z
x,3/4-y,3/4-z
1/4-x,1/2+y,3/4-z
-x,1/2-y,1/2-z
3/4+x,1/4+y,1/2-z
-x,1/4+y,1/4+z
3/4+x,1/2-y,1/4+z
1/2+x,y,1/2+z
3/4-x,1/4-y,1/2+z
1/2+x,1/4-y,3/4-z
3/4-x,y,3/4-z
1/2-x,-y,1/2-z
1/4+x,3/4+y,1/2-z
1/2-x,3/4+y,1/4+z
1/4+x,-y,1/4+z
1/2+x,1/2+y,z
3/4-x,3/4-y,z
1/2+x,3/4-y,1/4-z
3/4-x,1/2+y,1/4-z
1/2-x,1/2-y,-z
1/4+x,1/4+y,-z
1/2-x,1/4+y,3/4+z
1/4+x,1/2-y,3/4+z
loop_
_atom_site_type_symbol
_atom_site_label
_atom_site_fract_x
_atom_site_fract_y
_atom_site_fract_z
Si Si1 0.261490 0.125000 0.125000
Si Si2 0.860249 0.745464 0.071754
Si Si3 0.826659 0.746904 0.439060
Si Si4 0.169206 0.975968 0.062648
Si Si5 0.375000 0.875000 0.061259
Si Si6 0.277527 0.625000 0.125000
O O1 0.307282 0.167949 0.069034
O O2 0.221525 0.203626 0.163208
O O3 0.836974 0.817626 0.130736
O O4 0.924712 0.701326 0.094999
O O5 0.878574 0.772785 0.996428
O O6 0.875000 0.754218 0.375000
O O7 0.811919 0.634722 0.452605
O O8 0.647862 0.705789 0.491509
O O9 0.768513 0.810358 0.419208
O O10 0.125000 0.964540 0.125000
#
# Coordination Sequence:
#
# PCOD9516791 Si02
#       6
#    16  32  32  32  16  16
#     4  11  27  54  76 112 161 205 258 336 388 463
#     4  11  29  45  72 121 155 201 264 312 397 480
#     4  11  23  47  79 115 153 205 263 331 399 462
#     4  11  28  51  80 109 154 213 267 319 395 472
#     4  12  25  48  75 112 168 194 256 332 389 472
#     4  11  23  46  74 116 153 197 258 328 402 461
#
# _framework density 23.866443
#
# number of rings (size 3 to 8) (size 9 to 14) (size 15 to 20)
#    0.000    0.889    2.222    3.000    9.333    6.222 
#    0.000    0.000    0.000    0.000    0.000    0.000 
#    0.000    0.000    0.000    0.000    0.000    0.000 
#
# Total GULP energy -200937.081699 kJ/mol
# GULP energy per Si atom -5581.585603 kJ/mol
# Density = 2.381212 g / cm^3
# Si number density = 23.866443 Si / 1000 Ang^3
#
#
#
# Elastic Constant Matrix: (Units=GPa)
#
#
# Indices 1 2 3 4 5 6 
#
# 1 110.5865 69.1266 40.2660 0.0000 0.0000 0.0000
# 2 69.1266 190.4786 72.8596 0.0000 0.0000 0.0000
# 3 40.2660 72.8596 154.7492 0.0000 0.0000 0.0000
# 4 0.0000 0.0000 0.0000 20.2778 0.0000 0.0000
# 5 0.0000 0.0000 0.0000 0.0000 620.0740 0.0000
# 6 0.0000 0.0000 0.0000 0.0000 0.0000 31.0125
#
#
#
# Elastic Compliance Matrix: (Units=1/GPa)
#
#
# Indices 1 2 3 4 5 6 
#
# 1 0.011906 -0.003825 -0.001297 0.000000 0.000000 0.000000
# 2 -0.003825 0.007632 -0.002598 0.000000 0.000000 0.000000
# 3 -0.001297 -0.002598 0.008023 0.000000 0.000000 0.000000
# 4 0.000000 0.000000 0.000000 0.049315 0.000000 0.000000
# 5 0.000000 0.000000 0.000000 0.000000 0.001613 0.000000
# 6 0.000000 0.000000 0.000000 0.000000 0.000000 0.032245
#
#
# Mechanical properties :
#
#
# Convention : Reuss Voigt Hill
#
# Bulk Modulus (GPa) = 82.50361 91.14653 86.82507
# Shear Modulus (GPa) = 38.39874 152.51035 95.45455
#
# Velocity S-wave (km/s) = 4.01546 8.00252 6.33104
# Velocity P-wave (km/s) = 7.49283 11.12026 9.48163
#
# Compressibility (1/GPa) = 0.01212068
#
# Stress axis : x y z
#
# Youngs Moduli (GPa) = 83.99343 131.03333 124.64458
#
# Poissons Ratio (x) = 0.50114 0.16169
# Poissons Ratio (y) = 0.32123 0.32383
# Poissons Ratio (z) = 0.10896 0.34043
#
# Static dielectric constant tensor:
#      x y z
#    x 1.902610 0.000000 0.000000 
#    y 0.000000 2.051110 0.000000 
#    z 0.000000 0.000000 1.930180 
# 
# From -- ./inp_files/52077.got.cif
#   From: 2010.05.17/outbox.cif.g08.bks.cpg/sg70_27_cif.got.tgz:52077.got - 2010.06.03 15:57:51.
