data_PCOD9516296
_publ_section_title
;
Structure prediction by ZEFSAII (Michael W. Deem and Ramdas Pophale) SiO2 
 PCOD9516296
Probable space group: F D D D
;
_chemical_formula_sum "Si O2"
_cell_formula_units_Z 192
_cell_length_a 19.988658
_cell_length_b 25.248097
_cell_length_c 15.325412
_cell_angle_alpha 90.000000
_cell_angle_beta 90.000000
_cell_angle_gamma 90.000000
_cell_volume 7734.361130
_symmetry_space_group_name_H-M "F D D D"
_symmetry_group_IT_number 70
_space_group.IT_coordinate_system_code '2'
_symmetry_cell_setting 'orthorhombic'
loop_
_space_group_symop_operation_xyz
x,y,z
1/4-x,1/4-y,z
x,1/4-y,1/4-z
1/4-x,y,1/4-z
-x,-y,-z
3/4+x,3/4+y,-z
-x,3/4+y,3/4+z
3/4+x,-y,3/4+z
x,1/2+y,1/2+z
1/4-x,3/4-y,1/2+z
x,3/4-y,3/4-z
1/4-x,1/2+y,3/4-z
-x,1/2-y,1/2-z
3/4+x,1/4+y,1/2-z
-x,1/4+y,1/4+z
3/4+x,1/2-y,1/4+z
1/2+x,y,1/2+z
3/4-x,1/4-y,1/2+z
1/2+x,1/4-y,3/4-z
3/4-x,y,3/4-z
1/2-x,-y,1/2-z
1/4+x,3/4+y,1/2-z
1/2-x,3/4+y,1/4+z
1/4+x,-y,1/4+z
1/2+x,1/2+y,z
3/4-x,3/4-y,z
1/2+x,3/4-y,1/4-z
3/4-x,1/2+y,1/4-z
1/2-x,1/2-y,-z
1/4+x,1/4+y,-z
1/2-x,1/4+y,3/4+z
1/4+x,1/2-y,3/4+z
loop_
_atom_site_type_symbol
_atom_site_label
_atom_site_fract_x
_atom_site_fract_y
_atom_site_fract_z
Si Si1 0.476241 0.375000 0.875000
Si Si2 0.997174 0.439422 0.528271
Si Si3 0.837953 0.625000 0.625000
Si Si4 0.843113 0.952914 0.010552
Si Si5 0.597130 0.682135 0.525812
Si Si6 0.307193 0.003377 0.677742
Si Si7 0.694264 0.431115 0.034240
O O1 0.519161 0.342260 0.807269
O O2 0.435869 0.416034 0.815123
O O3 0.916338 0.431848 0.537524
O O4 0.036394 0.423821 0.614589
O O5 0.000000 0.500000 0.500000
O O6 0.816559 0.562909 0.644616
O O7 0.845989 0.612446 0.519620
O O8 0.797765 0.962413 0.096576
O O9 0.843263 0.012535 0.972959
O O10 0.625000 0.625000 0.495028
O O11 0.625000 0.686856 0.625000
O O12 0.626000 0.731136 0.472395
O O13 0.518217 0.681739 0.511331
O O14 0.250000 0.000000 0.750000
#
# Coordination Sequence:
#
# PCOD9516296 Si02
#       7
#    16  32  16  32  32  32  32
#     4  12  27  44  71 103 134 181 247 298 341 416
#     4  12  25  45  72 100 135 185 238 292 354 417
#     4  10  24  44  66 103 146 183 230 294 364 432
#     4  11  24  45  69 102 140 177 236 297 348 423
#     4  11  22  40  68 104 137 178 241 289 345 434
#     4  11  23  41  69 100 143 184 227 296 363 425
#     4  11  23  44  70 100 142 184 229 291 359 424
#
# _framework density 24.824287999999999
#
# number of rings (size 3 to 8) (size 9 to 14) (size 15 to 20)
#    0.000    0.833    3.333    5.500    4.667    0.000 
#    0.000    7.500    0.000    0.000    0.000    0.000 
#    0.000    0.000    0.000    0.000    0.000    0.000 
#
# Total GULP energy -267806.412179 kJ/mol
# GULP energy per Si atom -5579.300254 kJ/mol
# Density = 2.476779 g / cm^3
# Si number density = 24.824288 Si / 1000 Ang^3
#
#
#
# Elastic Constant Matrix: (Units=GPa)
#
#
# Indices 1 2 3 4 5 6 
#
# 1 113.3858 20.5107 38.3768 0.0000 0.0000 0.0000
# 2 20.5107 137.3222 63.3963 0.0000 0.0000 0.0000
# 3 38.3768 63.3963 213.9955 0.0000 0.0000 0.0000
# 4 0.0000 0.0000 0.0000 64.6973 0.0000 0.0000
# 5 0.0000 0.0000 0.0000 0.0000 19.4678 0.0000
# 6 0.0000 0.0000 0.0000 0.0000 0.0000 9.4648
#
#
#
# Elastic Compliance Matrix: (Units=1/GPa)
#
#
# Indices 1 2 3 4 5 6 
#
# 1 0.009452 -0.000729 -0.001479 0.000000 0.000000 0.000000
# 2 -0.000729 0.008492 -0.002385 0.000000 0.000000 0.000000
# 3 -0.001479 -0.002385 0.005645 0.000000 0.000000 0.000000
# 4 0.000000 0.000000 0.000000 0.015457 0.000000 0.000000
# 5 0.000000 0.000000 0.000000 0.000000 0.051367 0.000000
# 6 0.000000 0.000000 0.000000 0.000000 0.000000 0.105654
#
#
# Mechanical properties :
#
#
# Convention : Reuss Voigt Hill
#
# Bulk Modulus (GPa) = 69.43157 78.80790 74.11974
# Shear Modulus (GPa) = 23.80345 41.55396 32.67870
#
# Velocity S-wave (km/s) = 3.09993 4.09580 3.63216
# Velocity P-wave (km/s) = 6.39083 7.36089 6.89294
#
# Compressibility (1/GPa) = 0.01440267
#
# Stress axis : x y z
#
# Youngs Moduli (GPa) = 105.79852 117.75635 177.15314
#
# Poissons Ratio (x) = 0.08583 0.26203
# Poissons Ratio (y) = 0.07712 0.42252
# Poissons Ratio (z) = 0.15649 0.28086
#
# Static dielectric constant tensor:
#      x y z
#    x 1.919160 0.000000 0.000000 
#    y 0.000000 1.843780 0.000000 
#    z 0.000000 0.000000 2.059660 
# 
# From -- ./inp_files/30174.got.cif
#   From: 2010.05.17/outbox.cif.g08.bks.cpg/sg70_16_cif.got.tgz:30174.got - 2010.06.03 15:57:51.
