data_PCOD9516443
_publ_section_title
;
Structure prediction by ZEFSAII (Michael W. Deem and Ramdas Pophale) SiO2 
 PCOD9516443
Probable space group: F D D D
;
_chemical_formula_sum "Si O2"
_cell_formula_units_Z 160
_cell_length_a 20.275316
_cell_length_b 20.205914
_cell_length_c 16.477500
_cell_angle_alpha 90.000000
_cell_angle_beta 90.000000
_cell_angle_gamma 90.000000
_cell_volume 6750.523479
_symmetry_space_group_name_H-M "F D D D"
_symmetry_group_IT_number 70
_space_group.IT_coordinate_system_code '2'
_symmetry_cell_setting 'orthorhombic'
loop_
_space_group_symop_operation_xyz
x,y,z
1/4-x,1/4-y,z
x,1/4-y,1/4-z
1/4-x,y,1/4-z
-x,-y,-z
3/4+x,3/4+y,-z
-x,3/4+y,3/4+z
3/4+x,-y,3/4+z
x,1/2+y,1/2+z
1/4-x,3/4-y,1/2+z
x,3/4-y,3/4-z
1/4-x,1/2+y,3/4-z
-x,1/2-y,1/2-z
3/4+x,1/4+y,1/2-z
-x,1/4+y,1/4+z
3/4+x,1/2-y,1/4+z
1/2+x,y,1/2+z
3/4-x,1/4-y,1/2+z
1/2+x,1/4-y,3/4-z
3/4-x,y,3/4-z
1/2-x,-y,1/2-z
1/4+x,3/4+y,1/2-z
1/2-x,3/4+y,1/4+z
1/4+x,-y,1/4+z
1/2+x,1/2+y,z
3/4-x,3/4-y,z
1/2+x,3/4-y,1/4-z
3/4-x,1/2+y,1/4-z
1/2-x,1/2-y,-z
1/4+x,1/4+y,-z
1/2-x,1/4+y,3/4+z
1/4+x,1/2-y,3/4+z
loop_
_atom_site_type_symbol
_atom_site_label
_atom_site_fract_x
_atom_site_fract_y
_atom_site_fract_z
Si Si1 0.810152 0.407414 0.508818
Si Si2 0.046008 0.875000 0.875000
Si Si3 0.125000 0.625000 0.914395
Si Si4 0.375000 0.138348 0.375000
Si Si5 0.148080 0.941811 0.973321
Si Si6 0.509025 0.625000 0.625000
Si Si7 0.072648 0.015154 0.532940
O O1 0.875000 0.375000 0.469673
O O2 0.748768 0.394047 0.451654
O O3 0.813057 0.375942 0.600396
O O4 0.824653 0.484629 0.518749
O O5 0.094764 0.934031 0.901521
O O6 0.304928 0.813253 0.892974
O O7 0.388258 0.084291 0.446324
O O8 0.348129 0.195161 0.436890
O O9 0.210653 0.896958 0.947556
O O10 0.614576 0.560176 0.469965
O O11 0.000000 0.000000 0.500000
#
# Coordination Sequence:
#
# PCOD9516443 Si02
#       7
#    32  16  16  16  32  16  32
#     4  10  26  49  75 106 152 199 251 316 370 466
#     4  11  27  48  77 109 152 207 243 318 390 438
#     4  10  26  44  78 112 148 196 262 308 378 464
#     4  12  28  45  75 110 158 192 258 312 374 462
#     4  11  27  46  71 116 150 195 259 307 369 470
#     4  11  24  45  73 103 151 190 251 314 366 450
#     4  12  24  47  72 110 147 199 243 314 384 433
#
# _framework density 23.701864
#
# number of rings (size 3 to 8) (size 9 to 14) (size 15 to 20)
#    0.600    0.400    2.000    2.700   11.200    2.400 
#    0.000    0.000    0.000    0.000    0.000    0.000 
#    0.000    0.000    0.000    0.000    0.000    0.000 
#
# Total GULP energy -222873.100696 kJ/mol
# GULP energy per Si atom -5571.827517 kJ/mol
# Density = 2.364792 g / cm^3
# Si number density = 23.701864 Si / 1000 Ang^3
#
#
#
# Elastic Constant Matrix: (Units=GPa)
#
#
# Indices 1 2 3 4 5 6 
#
# 1 75.6133 43.4084 55.6473 0.0000 0.0000 0.0000
# 2 43.4084 118.5757 38.1770 0.0000 0.0000 0.0000
# 3 55.6473 38.1770 139.7603 0.0000 0.0000 0.0000
# 4 0.0000 0.0000 0.0000 35.4672 0.0000 0.0000
# 5 0.0000 0.0000 0.0000 0.0000 109.3090 0.0000
# 6 0.0000 0.0000 0.0000 0.0000 0.0000 12.3340
#
#
#
# Elastic Compliance Matrix: (Units=1/GPa)
#
#
# Indices 1 2 3 4 5 6 
#
# 1 0.021692 -0.005658 -0.007092 0.000000 0.000000 0.000000
# 2 -0.005658 0.010722 -0.000676 0.000000 0.000000 0.000000
# 3 -0.007092 -0.000676 0.010163 0.000000 0.000000 0.000000
# 4 0.000000 0.000000 0.000000 0.028195 0.000000 0.000000
# 5 0.000000 0.000000 0.000000 0.000000 0.009148 0.000000
# 6 0.000000 0.000000 0.000000 0.000000 0.000000 0.081077
#
#
# Mechanical properties :
#
#
# Convention : Reuss Voigt Hill
#
# Bulk Modulus (GPa) = 63.58561 67.60164 65.59362
# Shear Modulus (GPa) = 25.89441 44.53648 35.21545
#
# Velocity S-wave (km/s) = 3.30889 4.33948 3.85875
# Velocity P-wave (km/s) = 6.44080 7.32746 6.89839
#
# Compressibility (1/GPa) = 0.01572683
#
# Stress axis : x y z
#
# Youngs Moduli (GPa) = 46.09930 93.26272 98.39240
#
# Poissons Ratio (x) = 0.52767 0.69775
# Poissons Ratio (y) = 0.26083 0.06653
# Poissons Ratio (z) = 0.32691 0.06306
#
# Static dielectric constant tensor:
#      x y z
#    x 1.946930 0.000000 0.000000 
#    y 0.000000 1.759300 0.000000 
#    z 0.000000 0.000000 -0.030680 
# 
# From -- ./inp_files/44765.got.cif
#   From: 2010.05.17/outbox.cif.g08.bks.cpg/sg70_23_cif.got.tgz:44765.got - 2010.06.03 15:57:51.
