data_PCOD9516949
_publ_section_title
;
Structure prediction by ZEFSAII (Michael W. Deem and Ramdas Pophale) SiO2 
 PCOD9516949
Probable space group: F D D D
;
_chemical_formula_sum "Si O2"
_cell_formula_units_Z 72
_cell_length_a 7.040421
_cell_length_b 25.444699
_cell_length_c 15.160175
_cell_angle_alpha 90.000000
_cell_angle_beta 90.000000
_cell_angle_gamma 90.000000
_cell_volume 2715.814870
_symmetry_space_group_name_H-M "F D D D"
_symmetry_group_IT_number 70
_space_group.IT_coordinate_system_code '2'
_symmetry_cell_setting 'orthorhombic'
loop_
_space_group_symop_operation_xyz
x,y,z
1/4-x,1/4-y,z
x,1/4-y,1/4-z
1/4-x,y,1/4-z
-x,-y,-z
3/4+x,3/4+y,-z
-x,3/4+y,3/4+z
3/4+x,-y,3/4+z
x,1/2+y,1/2+z
1/4-x,3/4-y,1/2+z
x,3/4-y,3/4-z
1/4-x,1/2+y,3/4-z
-x,1/2-y,1/2-z
3/4+x,1/4+y,1/2-z
-x,1/4+y,1/4+z
3/4+x,1/2-y,1/4+z
1/2+x,y,1/2+z
3/4-x,1/4-y,1/2+z
1/2+x,1/4-y,3/4-z
3/4-x,y,3/4-z
1/2-x,-y,1/2-z
1/4+x,3/4+y,1/2-z
1/2-x,3/4+y,1/4+z
1/4+x,-y,1/4+z
1/2+x,1/2+y,z
3/4-x,3/4-y,z
1/2+x,3/4-y,1/4-z
3/4-x,1/2+y,1/4-z
1/2-x,1/2-y,-z
1/4+x,1/4+y,-z
1/2-x,1/4+y,3/4+z
1/4+x,1/2-y,3/4+z
loop_
_atom_site_type_symbol
_atom_site_label
_atom_site_fract_x
_atom_site_fract_y
_atom_site_fract_z
Si Si1 0.551099 0.297914 0.945049
Si Si2 0.875000 0.875000 0.375000
Si Si3 0.599150 0.565891 0.866949
O O1 0.375000 0.305012 0.875000
O O2 0.724212 0.336336 0.922579
O O3 0.626453 0.238430 0.934320
O O4 0.462772 0.310147 0.041015
O O5 0.625000 0.625000 0.833047
O O6 0.375000 0.564229 0.875000
#
# Coordination Sequence:
#
# PCOD9516949 Si02
#       3
#    32   8  32
#     4  11  25  50  76 123 164 218 280 338 419 492
#     4  12  26  44  84 118 172 220 274 352 400 514
#     4  11  25  50  81 117 167 217 277 346 411 501
#
# _framework density 26.511379000000002
#
# number of rings (size 3 to 8) (size 9 to 14) (size 15 to 20)
#    0.000    0.889    0.000    8.667    3.111    1.778 
#   28.000    0.000    0.000    0.000    0.000    0.000 
#    0.000    0.000    0.000    0.000    0.000    0.000 
#
# Total GULP energy -100844.543621 kJ/mol
# GULP energy per Si atom -5602.474646 kJ/mol
# Density = 2.645104 g / cm^3
# Si number density = 26.511379 Si / 1000 Ang^3
#
#
#
# Elastic Constant Matrix: (Units=GPa)
#
#
# Indices 1 2 3 4 5 6 
#
# 1 248.5967 142.8049 123.2946 0.0000 0.0000 0.0000
# 2 142.8049 342.8007 120.9634 0.0000 0.0000 0.0000
# 3 123.2946 120.9634 112.8675 0.0000 0.0000 0.0000
# 4 0.0000 0.0000 0.0000 49.7106 0.0000 0.0000
# 5 0.0000 0.0000 0.0000 0.0000 69.8940 0.0000
# 6 0.0000 0.0000 0.0000 0.0000 0.0000 80.1646
#
#
#
# Elastic Compliance Matrix: (Units=1/GPa)
#
#
# Indices 1 2 3 4 5 6 
#
# 1 0.008820 -0.000441 -0.009162 0.000000 0.000000 0.000000
# 2 -0.000441 0.004713 -0.004569 0.000000 0.000000 0.000000
# 3 -0.009162 -0.004569 0.023765 0.000000 0.000000 0.000000
# 4 0.000000 0.000000 0.000000 0.020116 0.000000 0.000000
# 5 0.000000 0.000000 0.000000 0.000000 0.014307 0.000000
# 6 0.000000 0.000000 0.000000 0.000000 0.000000 0.012474
#
#
# Mechanical properties :
#
#
# Convention : Reuss Voigt Hill
#
# Bulk Modulus (GPa) = 111.68661 164.26564 137.97613
# Shear Modulus (GPa) = 43.28007 61.10065 52.19036
#
# Velocity S-wave (km/s) = 4.04482 4.80593 4.44171
# Velocity P-wave (km/s) = 8.00208 9.63799 8.85788
#
# Compressibility (1/GPa) = 0.00895362
#
# Stress axis : x y z
#
# Youngs Moduli (GPa) = 113.37791 212.16195 42.07809
#
# Poissons Ratio (x) = 0.09364 0.38551
# Poissons Ratio (y) = 0.05004 0.19227
# Poissons Ratio (z) = 1.03876 0.96944
#
# Static dielectric constant tensor:
#      x y z
#    x 2.022500 0.000000 0.000000 
#    y 0.000000 2.131600 0.000000 
#    z 0.000000 0.000000 2.102740 
# 
# From -- ./inp_files/48227.got.cif
#   From: 2010.05.17/outbox.cif.g08.bks.cpg/sg70_25_cif.got.tgz:48227.got - 2010.06.03 15:57:51.
