data_PCOD9516747
_publ_section_title
;
Structure prediction by ZEFSAII (Michael W. Deem and Ramdas Pophale) SiO2 
 PCOD9516747
Probable space group: F D D D
;
_chemical_formula_sum "Si O2"
_cell_formula_units_Z 168
_cell_length_a 27.623091
_cell_length_b 9.988636
_cell_length_c 24.096298
_cell_angle_alpha 90.000000
_cell_angle_beta 90.000000
_cell_angle_gamma 90.000000
_cell_volume 6648.578284
_symmetry_space_group_name_H-M "F D D D"
_symmetry_group_IT_number 70
_space_group.IT_coordinate_system_code '2'
_symmetry_cell_setting 'orthorhombic'
loop_
_space_group_symop_operation_xyz
x,y,z
1/4-x,1/4-y,z
x,1/4-y,1/4-z
1/4-x,y,1/4-z
-x,-y,-z
3/4+x,3/4+y,-z
-x,3/4+y,3/4+z
3/4+x,-y,3/4+z
x,1/2+y,1/2+z
1/4-x,3/4-y,1/2+z
x,3/4-y,3/4-z
1/4-x,1/2+y,3/4-z
-x,1/2-y,1/2-z
3/4+x,1/4+y,1/2-z
-x,1/4+y,1/4+z
3/4+x,1/2-y,1/4+z
1/2+x,y,1/2+z
3/4-x,1/4-y,1/2+z
1/2+x,1/4-y,3/4-z
3/4-x,y,3/4-z
1/2-x,-y,1/2-z
1/4+x,3/4+y,1/2-z
1/2-x,3/4+y,1/4+z
1/4+x,-y,1/4+z
1/2+x,1/2+y,z
3/4-x,3/4-y,z
1/2+x,3/4-y,1/4-z
3/4-x,1/2+y,1/4-z
1/2-x,1/2-y,-z
1/4+x,1/4+y,-z
1/2-x,1/4+y,3/4+z
1/4+x,1/2-y,3/4+z
loop_
_atom_site_type_symbol
_atom_site_label
_atom_site_fract_x
_atom_site_fract_y
_atom_site_fract_z
Si Si1 0.125000 0.125000 0.625000
Si Si2 0.186948 0.494349 0.712366
Si Si3 0.725612 0.344835 0.311024
Si Si4 0.521467 0.279501 0.123781
Si Si5 0.426005 0.321700 0.179999
Si Si6 0.904916 0.652888 0.288605
O O1 0.124988 0.241046 0.674450
O O2 0.217428 0.626315 0.698724
O O3 0.198337 0.455624 0.775174
O O4 0.213988 0.377274 0.675884
O O5 0.129630 0.475821 0.706634
O O6 0.716135 0.375000 0.375000
O O7 0.702471 0.203093 0.294192
O O8 0.542021 0.125000 0.125000
O O9 0.464280 0.273623 0.134110
O O10 0.545118 0.345461 0.178020
O O11 0.375000 0.375000 0.157537
O O12 0.415045 0.211482 0.227375
#
# Coordination Sequence:
#
# PCOD9516747 Si02
#       6
#     8  32  32  32  32  32
#     4  12  16  32  72  92 138 172 232 304 356 428
#     4  11  23  42  75 108 139 196 244 306 378 444
#     4  11  23  44  72 100 148 198 240 300 377 442
#     4  12  24  42  70 107 141 183 254 318 364 441
#     4  12  25  44  70  99 146 199 241 301 376 447
#     4  12  21  41  71 107 137 184 248 308 373 433
#
# _framework density 25.268561999999999
#
# number of rings (size 3 to 8) (size 9 to 14) (size 15 to 20)
#    0.000    0.381    7.619    1.714    0.000    0.762 
#    0.000    0.952    0.000    0.000    0.000    0.000 
#    0.000    0.000    0.000    0.000    0.000    0.000 
#
# Total GULP energy -234419.413206 kJ/mol
# GULP energy per Si atom -5581.414600 kJ/mol
# Density = 2.521105 g / cm^3
# Si number density = 25.268562 Si / 1000 Ang^3
#
#
#
# Elastic Constant Matrix: (Units=GPa)
#
#
# Indices 1 2 3 4 5 6 
#
# 1 178.5375 41.4832 20.1089 0.0000 0.0000 0.0000
# 2 41.4832 135.2006 -3.3122 0.0000 0.0000 0.0000
# 3 20.1089 -3.3122 81.4680 0.0000 0.0000 0.0000
# 4 0.0000 0.0000 0.0000 -10.5537 0.0000 0.0000
# 5 0.0000 0.0000 0.0000 0.0000 82.5194 0.0000
# 6 0.0000 0.0000 0.0000 0.0000 0.0000 57.6678
#
#
#
# Elastic Compliance Matrix: (Units=1/GPa)
#
#
# Indices 1 2 3 4 5 6 
#
# 1 0.006237 -0.001953 -0.001619 0.000000 0.000000 0.000000
# 2 -0.001953 0.008016 0.000808 0.000000 0.000000 0.000000
# 3 -0.001619 0.000808 0.012707 0.000000 0.000000 0.000000
# 4 0.000000 0.000000 0.000000 -0.094754 0.000000 0.000000
# 5 0.000000 0.000000 0.000000 0.000000 0.012118 0.000000
# 6 0.000000 0.000000 0.000000 0.000000 0.000000 0.017341
#
#
# Mechanical properties :
#
#
# Convention : Reuss Voigt Hill
#
# Bulk Modulus (GPa) = 46.66053 56.86286 51.76169
# Shear Modulus (GPa) = -194.83924 48.38846 -73.22539
#
# Velocity S-wave (km/s) = -8.79061 4.38078 -5.38904
# Velocity P-wave (km/s) = 9.19386 6.93834 4.26536
#
# Compressibility (1/GPa) = 0.02143139
#
# Stress axis : x y z
#
# Youngs Moduli (GPa) = 160.32600 124.75709 78.69534
#
# Poissons Ratio (x) = 0.24370 0.12741
# Poissons Ratio (y) = 0.31319 -0.06359
# Poissons Ratio (z) = 0.25956 -0.10081
#
# Static dielectric constant tensor:
#      x y z
#    x 1.862330 0.000000 0.000000 
#    y 0.000000 2.046290 0.000000 
#    z 0.000000 0.000000 1.907190 
# 
# From -- ./inp_files/47606.got.cif
#   From: 2010.05.17/outbox.cif.g08.bks.cpg/sg70_24_cif.got.tgz:47606.got - 2010.06.03 15:57:51.
