data_PCOD9516899
_publ_section_title
;
Structure prediction by ZEFSAII (Michael W. Deem and Ramdas Pophale) SiO2 
 PCOD9516899
Probable space group: F D D D
;
_chemical_formula_sum "Si O2"
_cell_formula_units_Z 176
_cell_length_a 31.158508
_cell_length_b 11.508202
_cell_length_c 23.994872
_cell_angle_alpha 90.000000
_cell_angle_beta 90.000000
_cell_angle_gamma 90.000000
_cell_volume 8604.042908
_symmetry_space_group_name_H-M "F D D D"
_symmetry_group_IT_number 70
_space_group.IT_coordinate_system_code '2'
_symmetry_cell_setting 'orthorhombic'
loop_
_space_group_symop_operation_xyz
x,y,z
1/4-x,1/4-y,z
x,1/4-y,1/4-z
1/4-x,y,1/4-z
-x,-y,-z
3/4+x,3/4+y,-z
-x,3/4+y,3/4+z
3/4+x,-y,3/4+z
x,1/2+y,1/2+z
1/4-x,3/4-y,1/2+z
x,3/4-y,3/4-z
1/4-x,1/2+y,3/4-z
-x,1/2-y,1/2-z
3/4+x,1/4+y,1/2-z
-x,1/4+y,1/4+z
3/4+x,1/2-y,1/4+z
1/2+x,y,1/2+z
3/4-x,1/4-y,1/2+z
1/2+x,1/4-y,3/4-z
3/4-x,y,3/4-z
1/2-x,-y,1/2-z
1/4+x,3/4+y,1/2-z
1/2-x,3/4+y,1/4+z
1/4+x,-y,1/4+z
1/2+x,1/2+y,z
3/4-x,3/4-y,z
1/2+x,3/4-y,1/4-z
3/4-x,1/2+y,1/4-z
1/2-x,1/2-y,-z
1/4+x,1/4+y,-z
1/2-x,1/4+y,3/4+z
1/4+x,1/2-y,3/4+z
loop_
_atom_site_type_symbol
_atom_site_label
_atom_site_fract_x
_atom_site_fract_y
_atom_site_fract_z
Si Si1 0.791909 0.078527 0.741619
Si Si2 0.057981 0.406968 0.996093
Si Si3 0.591378 0.208855 0.858174
Si Si4 0.335797 0.625000 0.125000
Si Si5 0.619916 0.986831 0.560385
Si Si6 0.464509 0.847047 0.037123
O O1 0.822842 0.048855 0.792016
O O2 0.787239 0.216765 0.736713
O O3 0.750000 0.000000 0.750000
O O4 0.815924 0.035632 0.685669
O O5 0.057911 0.362199 0.931107
O O6 0.060545 0.547400 0.993215
O O7 0.096607 0.338577 0.024742
O O8 0.014457 0.380288 0.030062
O O9 0.625000 0.125000 0.825819
O O10 0.628855 0.277039 0.891181
O O11 0.556417 0.158676 0.901028
O O12 0.625000 0.961362 0.625000
O O13 0.625000 0.125000 0.552390
#
# Coordination Sequence:
#
# PCOD9516899 Si02
#       6
#    32  32  32  16  32  32
#     4  12  26  42  68 105 136 178 235 288 344 415
#     4  11  25  45  69 100 139 182 227 288 351 414
#     4  12  23  42  73 102 133 181 233 287 344 416
#     4  12  22  42  74 100 131 179 232 280 350 418
#     4  11  25  46  69  96 138 185 226 280 353 417
#     4  11  25  43  67 101 139 174 227 291 347 411
#
# _framework density 20.455500000000001
#
# number of rings (size 3 to 8) (size 9 to 14) (size 15 to 20)
#    0.000    0.545    5.455    1.636    5.091    0.000 
#    3.273    0.909    0.000    0.000    0.000    0.000 
#    0.000    0.000    0.000    0.000    0.000    0.000 
#
# Total GULP energy -245360.642536 kJ/mol
# GULP energy per Si atom -5576.378239 kJ/mol
# Density = 2.040894 g / cm^3
# Si number density = 20.455500 Si / 1000 Ang^3
#
#
#
# Elastic Constant Matrix: (Units=GPa)
#
#
# Indices 1 2 3 4 5 6 
#
# 1 119.5793 57.7587 51.6709 0.0000 0.0000 0.0000
# 2 57.7587 155.3414 46.5469 0.0000 0.0000 0.0000
# 3 51.6709 46.5469 116.8526 0.0000 0.0000 0.0000
# 4 0.0000 0.0000 0.0000 33.4464 0.0000 0.0000
# 5 0.0000 0.0000 0.0000 0.0000 40.3972 0.0000
# 6 0.0000 0.0000 0.0000 0.0000 0.0000 36.1097
#
#
#
# Elastic Compliance Matrix: (Units=1/GPa)
#
#
# Indices 1 2 3 4 5 6 
#
# 1 0.011544 -0.003137 -0.003855 0.000000 0.000000 0.000000
# 2 -0.003137 0.008162 -0.001864 0.000000 0.000000 0.000000
# 3 -0.003855 -0.001864 0.011005 0.000000 0.000000 0.000000
# 4 0.000000 0.000000 0.000000 0.029899 0.000000 0.000000
# 5 0.000000 0.000000 0.000000 0.000000 0.024754 0.000000
# 6 0.000000 0.000000 0.000000 0.000000 0.000000 0.027693
#
#
# Mechanical properties :
#
#
# Convention : Reuss Voigt Hill
#
# Bulk Modulus (GPa) = 76.93059 78.19182 77.56121
# Shear Modulus (GPa) = 37.00896 37.71043 37.35970
#
# Velocity S-wave (km/s) = 4.25813 4.29830 4.27826
# Velocity P-wave (km/s) = 7.86549 7.93361 7.89963
#
# Compressibility (1/GPa) = 0.01299873
#
# Stress axis : x y z
#
# Youngs Moduli (GPa) = 86.62815 122.51224 90.86811
#
# Poissons Ratio (x) = 0.38433 0.35028
# Poissons Ratio (y) = 0.27176 0.16940
# Poissons Ratio (z) = 0.33394 0.22839
#
# Static dielectric constant tensor:
#      x y z
#    x 1.693530 0.000000 0.000000 
#    y 0.000000 1.931560 0.000000 
#    z 0.000000 0.000000 1.714340 
# 
# From -- ./inp_files/54983.got.cif
#   From: 2010.05.17/outbox.cif.g08.bks.cpg/sg70_28_cif.got.tgz:54983.got - 2010.06.03 15:57:51.
