data_PCOD9516246
_publ_section_title
;
Structure prediction by ZEFSAII (Michael W. Deem and Ramdas Pophale) SiO2 
 PCOD9516246
Probable space group: F D D D
;
_chemical_formula_sum "Si O2"
_cell_formula_units_Z 120
_cell_length_a 21.983422
_cell_length_b 12.755161
_cell_length_c 16.014946
_cell_angle_alpha 90.000000
_cell_angle_beta 90.000000
_cell_angle_gamma 90.000000
_cell_volume 4490.624281
_symmetry_space_group_name_H-M "F D D D"
_symmetry_group_IT_number 70
_space_group.IT_coordinate_system_code '2'
_symmetry_cell_setting 'orthorhombic'
loop_
_space_group_symop_operation_xyz
x,y,z
1/4-x,1/4-y,z
x,1/4-y,1/4-z
1/4-x,y,1/4-z
-x,-y,-z
3/4+x,3/4+y,-z
-x,3/4+y,3/4+z
3/4+x,-y,3/4+z
x,1/2+y,1/2+z
1/4-x,3/4-y,1/2+z
x,3/4-y,3/4-z
1/4-x,1/2+y,3/4-z
-x,1/2-y,1/2-z
3/4+x,1/4+y,1/2-z
-x,1/4+y,1/4+z
3/4+x,1/2-y,1/4+z
1/2+x,y,1/2+z
3/4-x,1/4-y,1/2+z
1/2+x,1/4-y,3/4-z
3/4-x,y,3/4-z
1/2-x,-y,1/2-z
1/4+x,3/4+y,1/2-z
1/2-x,3/4+y,1/4+z
1/4+x,-y,1/4+z
1/2+x,1/2+y,z
3/4-x,3/4-y,z
1/2+x,3/4-y,1/4-z
3/4-x,1/2+y,1/4-z
1/2-x,1/2-y,-z
1/4+x,1/4+y,-z
1/2-x,1/4+y,3/4+z
1/4+x,1/2-y,3/4+z
loop_
_atom_site_type_symbol
_atom_site_label
_atom_site_fract_x
_atom_site_fract_y
_atom_site_fract_z
Si Si1 0.675938 0.982315 0.386139
Si Si2 0.125000 0.625000 0.125000
Si Si3 0.189590 0.693614 0.469166
Si Si4 0.952434 0.051016 0.469244
Si Si5 0.125000 0.285958 0.125000
O O1 0.701247 0.071815 0.450787
O O2 0.602681 0.012770 0.390849
O O3 0.725195 0.028139 0.308884
O O4 0.679611 0.870173 0.443804
O O5 0.085050 0.701093 0.181856
O O6 0.250000 0.750000 0.500000
O O7 0.148481 0.720575 0.548290
O O8 0.930064 0.140030 0.404397
#
# Coordination Sequence:
#
# PCOD9516246 Si02
#       5
#    32   8  32  32  16
#     4  11  24  49  72 109 154 197 258 321 386 476
#     4  10  24  40  66 104 134 186 262 298 364 480
#     4  11  25  49  77 111 157 207 260 327 404 467
#     4  11  24  45  71 101 149 200 250 319 395 457
#     4  11  24  46  71 114 146 197 271 323 381 488
#
# _framework density 26.722342999999999
#
# number of rings (size 3 to 8) (size 9 to 14) (size 15 to 20)
#    0.000    1.067    2.667    3.200    1.867    2.133 
#    9.600    0.000    0.000    0.000    0.000    0.000 
#    0.000    0.000    0.000    0.000    0.000    0.000 
#
# Total GULP energy -167002.552316 kJ/mol
# GULP energy per Si atom -5566.751744 kJ/mol
# Density = 2.666152 g / cm^3
# Si number density = 26.722343 Si / 1000 Ang^3
#
#
#
# Elastic Constant Matrix: (Units=GPa)
#
#
# Indices 1 2 3 4 5 6 
#
# 1 201.1507 102.2961 92.3846 0.0000 0.0000 0.0000
# 2 102.2961 267.9228 107.8872 0.0000 0.0000 0.0000
# 3 92.3846 107.8872 226.3091 0.0000 0.0000 0.0000
# 4 0.0000 0.0000 0.0000 56.3115 0.0000 0.0000
# 5 0.0000 0.0000 0.0000 0.0000 90.3841 0.0000
# 6 0.0000 0.0000 0.0000 0.0000 0.0000 15.3319
#
#
#
# Elastic Compliance Matrix: (Units=1/GPa)
#
#
# Indices 1 2 3 4 5 6 
#
# 1 0.006768 -0.001821 -0.001895 0.000000 0.000000 0.000000
# 2 -0.001821 0.005109 -0.001692 0.000000 0.000000 0.000000
# 3 -0.001895 -0.001692 0.005999 0.000000 0.000000 0.000000
# 4 0.000000 0.000000 0.000000 0.017758 0.000000 0.000000
# 5 0.000000 0.000000 0.000000 0.000000 0.011064 0.000000
# 6 0.000000 0.000000 0.000000 0.000000 0.000000 0.065223
#
#
# Mechanical properties :
#
#
# Convention : Reuss Voigt Hill
#
# Bulk Modulus (GPa) = 141.64486 144.50202 143.07344
# Shear Modulus (GPa) = 39.97110 58.59317 49.28213
#
# Velocity S-wave (km/s) = 3.87174 4.68767 4.29911
# Velocity P-wave (km/s) = 8.55035 9.13738 8.84873
#
# Compressibility (1/GPa) = 0.00705991
#
# Stress axis : x y z
#
# Youngs Moduli (GPa) = 147.76200 195.72672 166.69765
#
# Poissons Ratio (x) = 0.35643 0.31582
# Poissons Ratio (y) = 0.26908 0.28210
# Poissons Ratio (z) = 0.27994 0.33122
#
# Static dielectric constant tensor:
#      x y z
#    x 2.145710 0.000000 0.000000 
#    y 0.000000 2.070380 0.000000 
#    z 0.000000 0.000000 2.189610 
# 
# From -- ./inp_files/44479.got.cif
#   From: 2010.05.17/outbox.cif.g08.bks.cpg/sg70_23_cif.got.tgz:44479.got - 2010.06.03 15:57:51.
