data_PCOD9516879
_publ_section_title
;
Structure prediction by ZEFSAII (Michael W. Deem and Ramdas Pophale) SiO2 
 PCOD9516879
Probable space group: F D D D
;
_chemical_formula_sum "Si O2"
_cell_formula_units_Z 104
_cell_length_a 26.342930
_cell_length_b 5.533023
_cell_length_c 30.581881
_cell_angle_alpha 90.000000
_cell_angle_beta 90.000000
_cell_angle_gamma 90.000000
_cell_volume 4457.493796
_symmetry_space_group_name_H-M "F D D D"
_symmetry_group_IT_number 70
_space_group.IT_coordinate_system_code '2'
_symmetry_cell_setting 'orthorhombic'
loop_
_space_group_symop_operation_xyz
x,y,z
1/4-x,1/4-y,z
x,1/4-y,1/4-z
1/4-x,y,1/4-z
-x,-y,-z
3/4+x,3/4+y,-z
-x,3/4+y,3/4+z
3/4+x,-y,3/4+z
x,1/2+y,1/2+z
1/4-x,3/4-y,1/2+z
x,3/4-y,3/4-z
1/4-x,1/2+y,3/4-z
-x,1/2-y,1/2-z
3/4+x,1/4+y,1/2-z
-x,1/4+y,1/4+z
3/4+x,1/2-y,1/4+z
1/2+x,y,1/2+z
3/4-x,1/4-y,1/2+z
1/2+x,1/4-y,3/4-z
3/4-x,y,3/4-z
1/2-x,-y,1/2-z
1/4+x,3/4+y,1/2-z
1/2-x,3/4+y,1/4+z
1/4+x,-y,1/4+z
1/2+x,1/2+y,z
3/4-x,3/4-y,z
1/2+x,3/4-y,1/4-z
3/4-x,1/2+y,1/4-z
1/2-x,1/2-y,-z
1/4+x,1/4+y,-z
1/2-x,1/4+y,3/4+z
1/4+x,1/2-y,3/4+z
loop_
_atom_site_type_symbol
_atom_site_label
_atom_site_fract_x
_atom_site_fract_y
_atom_site_fract_z
Si Si1 0.125000 0.625000 0.625000
Si Si2 0.811165 0.558754 0.296274
Si Si3 0.043248 0.767153 0.466626
Si Si4 0.125000 0.625000 0.847960
Si Si5 0.875000 0.375000 0.735409
O O1 0.163196 0.487476 0.657499
O O2 0.792626 0.330232 0.266852
O O3 0.764511 0.745859 0.298614
O O4 0.855273 0.664908 0.266297
O O5 0.076476 0.600192 0.434080
O O6 0.074888 0.015877 0.462705
O O7 0.120903 0.375000 0.875000
#
# Coordination Sequence:
#
# PCOD9516879 Si02
#       5
#     8  32  32  16  16
#     4  12  22  50  64 114 150 184 262 326 390 452
#     4  11  25  43  75 100 145 194 244 311 386 470
#     4  11  24  47  70 102 143 200 245 306 386 470
#     4  12  26  46  72 108 146 189 253 326 381 455
#     4  12  19  47  72 100 138 202 252 304 380 476
#
# _framework density 23.331495
#
# number of rings (size 3 to 8) (size 9 to 14) (size 15 to 20)
#    0.000    0.615    6.154    1.846    2.154    0.615 
#    5.538    0.000    0.000    0.000    0.000    0.000 
#    0.000    0.000    0.000    0.000    0.000    0.000 
#
# Total GULP energy -145137.310678 kJ/mol
# GULP energy per Si atom -5582.204257 kJ/mol
# Density = 2.327839 g / cm^3
# Si number density = 23.331495 Si / 1000 Ang^3
#
#
#
# Elastic Constant Matrix: (Units=GPa)
#
#
# Indices 1 2 3 4 5 6 
#
# 1 163.2239 34.9696 45.1735 0.0045 0.0033 -0.0225
# 2 34.9696 99.5200 51.4220 0.0195 0.0045 -0.0212
# 3 45.1735 51.4220 140.5616 -0.0008 0.0011 0.0037
# 4 0.0045 0.0195 -0.0008 22.9654 -0.0006 0.0027
# 5 0.0033 0.0045 0.0011 -0.0006 35.6730 -0.0041
# 6 -0.0225 -0.0212 0.0037 0.0027 -0.0041 47.3391
#
#
#
# Elastic Compliance Matrix: (Units=1/GPa)
#
#
# Indices 1 2 3 4 5 6 
#
# 1 0.006921 -0.001582 -0.001646 0.000000 0.000000 0.000003
# 2 -0.001582 0.012752 -0.004157 -0.000011 -0.000001 0.000005
# 3 -0.001646 -0.004157 0.009164 0.000004 0.000000 -0.000003
# 4 0.000000 -0.000011 0.000004 0.043544 0.000001 -0.000003
# 5 0.000000 -0.000001 0.000000 0.000001 0.028032 0.000002
# 6 0.000003 0.000005 -0.000003 -0.000003 0.000002 0.021124
#
#
# Mechanical properties :
#
#
# Convention : Reuss Voigt Hill
#
# Bulk Modulus (GPa) = 71.08022 74.04842 72.56432
# Shear Modulus (GPa) = 35.46243 39.31150 37.38696
#
# Velocity S-wave (km/s) = 3.90287 4.10922 4.00737
# Velocity P-wave (km/s) = 7.13031 7.37026 7.25128
#
# Compressibility (1/GPa) = 0.01406861
#
# Stress axis : x y z
#
# Youngs Moduli (GPa) = 144.49125 78.42060 109.12444
#
# Poissons Ratio (x) = 0.12403 0.17958
# Poissons Ratio (y) = 0.22852 0.45360
# Poissons Ratio (z) = 0.23778 0.32597
#
# Static dielectric constant tensor:
#      x y z
#    x 1.876600 0.000010 0.000000 
#    y 0.000010 2.014460 0.000000 
#    z 0.000000 0.000000 1.918450 
# 
# From -- ./inp_files/68631.got.cif
#   From: 2010.05.17/outbox.cif.g08.bks.cpg/sg70_35_cif.got.tgz:68631.got - 2010.06.03 15:57:51.
