data_PCOD9516977
_publ_section_title
;
Structure prediction by ZEFSAII (Michael W. Deem and Ramdas Pophale) SiO2 
 PCOD9516977
Probable space group: F D D D
;
_chemical_formula_sum "Si O2"
_cell_formula_units_Z 160
_cell_length_a 17.493065
_cell_length_b 19.742204
_cell_length_c 18.119503
_cell_angle_alpha 90.000000
_cell_angle_beta 90.000000
_cell_angle_gamma 90.000000
_cell_volume 6257.600400
_symmetry_space_group_name_H-M "F D D D"
_symmetry_group_IT_number 70
_space_group.IT_coordinate_system_code '2'
_symmetry_cell_setting 'orthorhombic'
loop_
_space_group_symop_operation_xyz
x,y,z
1/4-x,1/4-y,z
x,1/4-y,1/4-z
1/4-x,y,1/4-z
-x,-y,-z
3/4+x,3/4+y,-z
-x,3/4+y,3/4+z
3/4+x,-y,3/4+z
x,1/2+y,1/2+z
1/4-x,3/4-y,1/2+z
x,3/4-y,3/4-z
1/4-x,1/2+y,3/4-z
-x,1/2-y,1/2-z
3/4+x,1/4+y,1/2-z
-x,1/4+y,1/4+z
3/4+x,1/2-y,1/4+z
1/2+x,y,1/2+z
3/4-x,1/4-y,1/2+z
1/2+x,1/4-y,3/4-z
3/4-x,y,3/4-z
1/2-x,-y,1/2-z
1/4+x,3/4+y,1/2-z
1/2-x,3/4+y,1/4+z
1/4+x,-y,1/4+z
1/2+x,1/2+y,z
3/4-x,3/4-y,z
1/2+x,3/4-y,1/4-z
3/4-x,1/2+y,1/4-z
1/2-x,1/2-y,-z
1/4+x,1/4+y,-z
1/2-x,1/4+y,3/4+z
1/4+x,1/2-y,3/4+z
loop_
_atom_site_type_symbol
_atom_site_label
_atom_site_fract_x
_atom_site_fract_y
_atom_site_fract_z
Si Si1 0.875000 0.657643 0.875000
Si Si2 0.473110 0.273911 0.652190
Si Si3 0.242568 0.625000 0.625000
Si Si4 0.935764 0.436201 0.765046
Si Si5 0.324853 0.047350 0.764349
Si Si6 0.443482 0.625000 0.625000
Si Si7 0.125000 0.625000 0.748595
O O1 0.811126 0.702541 0.916386
O O2 0.924705 0.609520 0.929292
O O3 0.469158 0.192547 0.658631
O O4 0.457045 0.295043 0.567923
O O5 0.413937 0.316852 0.701668
O O6 0.189896 0.652237 0.692565
O O7 0.875000 0.375000 0.764217
O O8 0.891237 0.500573 0.793878
O O9 0.002835 0.418631 0.820816
O O10 0.346339 0.077216 0.684320
O O11 0.250000 0.000000 0.750000
#
# Coordination Sequence:
#
# PCOD9516977 Si02
#       7
#    16  32  16  32  32  16  16
#     4  12  26  51  75 120 164 208 270 340 402 483
#     4  12  27  52  85 117 163 214 267 339 407 487
#     4  11  28  53  83 119 161 209 276 343 402 485
#     4  12  25  47  76 112 162 207 259 328 398 481
#     4  12  26  45  78 115 157 209 263 328 407 483
#     4  12  25  49  77 115 155 207 260 326 402 482
#     4  11  26  54  82 115 160 214 276 333 410 486
#
# _framework density 25.568906999999999
#
# number of rings (size 3 to 8) (size 9 to 14) (size 15 to 20)
#    0.000    0.200    5.000    3.300    2.800    2.400 
#    3.600    0.000    0.000    0.000    0.000    0.000 
#    0.000    0.000    0.000    0.000    0.000    0.000 
#
# Total GULP energy -223997.176913 kJ/mol
# GULP energy per Si atom -5599.929423 kJ/mol
# Density = 2.551071 g / cm^3
# Si number density = 25.568907 Si / 1000 Ang^3
#
#
#
# Elastic Constant Matrix: (Units=GPa)
#
#
# Indices 1 2 3 4 5 6 
#
# 1 92.7805 67.6392 34.6540 0.0000 0.0000 0.0000
# 2 67.6392 179.1889 55.7416 0.0000 0.0000 0.0000
# 3 34.6540 55.7416 173.3290 0.0000 0.0000 0.0000
# 4 0.0000 0.0000 0.0000 39.6425 0.0000 0.0000
# 5 0.0000 0.0000 0.0000 0.0000 0.9158 0.0000
# 6 0.0000 0.0000 0.0000 0.0000 0.0000 10.0774
#
#
#
# Elastic Compliance Matrix: (Units=1/GPa)
#
#
# Indices 1 2 3 4 5 6 
#
# 1 0.015138 -0.005303 -0.001321 0.000000 0.000000 0.000000
# 2 -0.005303 0.008059 -0.001531 0.000000 0.000000 0.000000
# 3 -0.001321 -0.001531 0.006526 0.000000 0.000000 0.000000
# 4 0.000000 0.000000 0.000000 0.025225 0.000000 0.000000
# 5 0.000000 0.000000 0.000000 0.000000 1.092001 0.000000
# 6 0.000000 0.000000 0.000000 0.000000 0.000000 0.099232
#
#
# Mechanical properties :
#
#
# Convention : Reuss Voigt Hill
#
# Bulk Modulus (GPa) = 74.56381 84.59644 79.58013
# Shear Modulus (GPa) = 3.94645 29.27802 16.61223
#
# Velocity S-wave (km/s) = 1.24371 3.38755 2.55170
# Velocity P-wave (km/s) = 5.59353 6.96119 6.31450
#
# Compressibility (1/GPa) = 0.01341133
#
# Stress axis : x y z
#
# Youngs Moduli (GPa) = 66.06048 124.08663 153.23338
#
# Poissons Ratio (x) = 0.65805 0.20243
# Poissons Ratio (y) = 0.35033 0.23467
# Poissons Ratio (z) = 0.08727 0.19003
#
# Static dielectric constant tensor:
#      x y z
#    x 2.174780 0.000000 0.000000 
#    y 0.000000 2.019480 0.000000 
#    z 0.000000 0.000000 1.951500 
# 
# From -- ./inp_files/36396.got.cif
#   From: 2010.05.17/outbox.cif.g08.bks.cpg/sg70_19_cif.got.tgz:36396.got - 2010.06.03 15:57:51.
