data_PCOD9516164
_publ_section_title
;
Structure prediction by ZEFSAII (Michael W. Deem and Ramdas Pophale) SiO2 
 PCOD9516164
Probable space group: F D D D
;
_chemical_formula_sum "Si O2"
_cell_formula_units_Z 120
_cell_length_a 19.763590
_cell_length_b 10.366581
_cell_length_c 22.402812
_cell_angle_alpha 90.000000
_cell_angle_beta 90.000000
_cell_angle_gamma 90.000000
_cell_volume 4589.907312
_symmetry_space_group_name_H-M "F D D D"
_symmetry_group_IT_number 70
_space_group.IT_coordinate_system_code '2'
_symmetry_cell_setting 'orthorhombic'
loop_
_space_group_symop_operation_xyz
x,y,z
1/4-x,1/4-y,z
x,1/4-y,1/4-z
1/4-x,y,1/4-z
-x,-y,-z
3/4+x,3/4+y,-z
-x,3/4+y,3/4+z
3/4+x,-y,3/4+z
x,1/2+y,1/2+z
1/4-x,3/4-y,1/2+z
x,3/4-y,3/4-z
1/4-x,1/2+y,3/4-z
-x,1/2-y,1/2-z
3/4+x,1/4+y,1/2-z
-x,1/4+y,1/4+z
3/4+x,1/2-y,1/4+z
1/2+x,y,1/2+z
3/4-x,1/4-y,1/2+z
1/2+x,1/4-y,3/4-z
3/4-x,y,3/4-z
1/2-x,-y,1/2-z
1/4+x,3/4+y,1/2-z
1/2-x,3/4+y,1/4+z
1/4+x,-y,1/4+z
1/2+x,1/2+y,z
3/4-x,3/4-y,z
1/2+x,3/4-y,1/4-z
3/4-x,1/2+y,1/4-z
1/2-x,1/2-y,-z
1/4+x,1/4+y,-z
1/2-x,1/4+y,3/4+z
1/4+x,1/2-y,3/4+z
loop_
_atom_site_type_symbol
_atom_site_label
_atom_site_fract_x
_atom_site_fract_y
_atom_site_fract_z
Si Si1 0.375000 0.875000 0.375000
Si Si2 0.228623 0.210949 0.720236
Si Si3 0.333570 0.191065 0.498696
Si Si4 0.498839 0.215623 0.820319
Si Si5 0.870613 0.125000 0.625000
O O1 0.429172 0.779494 0.342947
O O2 0.290195 0.186464 0.767027
O O3 0.162126 0.289320 0.738724
O O4 0.252963 0.310780 0.670771
O O5 0.200127 0.065081 0.717251
O O6 0.334248 0.178804 0.570800
O O7 0.500000 0.250000 0.750000
O O8 0.567149 0.270716 0.849689
#
# Coordination Sequence:
#
# PCOD9516164 Si02
#       5
#     8  32  32  32  16
#     4  10  28  48  76 118 160 194 288 320 416 504
#     4  10  23  43  71 100 152 196 250 309 413 444
#     4  10  23  44  70 106 143 202 247 325 376 493
#     4  11  24  45  74 111 148 209 249 342 395 481
#     4  11  24  45  74 111 146 193 276 304 396 485
#
# _framework density 26.144321000000001
#
# number of rings (size 3 to 8) (size 9 to 14) (size 15 to 20)
#    0.000    1.600    2.667    0.000    3.733    5.333 
#    0.000    0.000    0.000    1.600    0.000    0.000 
#    0.000    0.000    0.000    0.000    0.000    0.000 
#
# Total GULP energy -167189.761251 kJ/mol
# GULP energy per Si atom -5572.992042 kJ/mol
# Density = 2.608482 g / cm^3
# Si number density = 26.144321 Si / 1000 Ang^3
#
#
#
# Elastic Constant Matrix: (Units=GPa)
#
#
# Indices 1 2 3 4 5 6 
#
# 1 197.2050 81.5728 37.6682 0.0000 0.0000 0.0000
# 2 81.5728 192.6765 38.4737 0.0000 0.0000 0.0000
# 3 37.6682 38.4737 71.0511 0.0000 0.0000 0.0000
# 4 0.0000 0.0000 0.0000 34.7064 0.0000 0.0000
# 5 0.0000 0.0000 0.0000 0.0000 27.0871 0.0000
# 6 0.0000 0.0000 0.0000 0.0000 0.0000 15.1650
#
#
#
# Elastic Compliance Matrix: (Units=1/GPa)
#
#
# Indices 1 2 3 4 5 6 
#
# 1 0.006433 -0.002290 -0.002170 0.000000 0.000000 0.000000
# 2 -0.002290 0.006634 -0.002378 0.000000 0.000000 0.000000
# 3 -0.002170 -0.002378 0.016513 0.000000 0.000000 0.000000
# 4 0.000000 0.000000 0.000000 0.028813 0.000000 0.000000
# 5 0.000000 0.000000 0.000000 0.000000 0.036918 0.000000
# 6 0.000000 0.000000 0.000000 0.000000 0.000000 0.065942
#
#
# Mechanical properties :
#
#
# Convention : Reuss Voigt Hill
#
# Bulk Modulus (GPa) = 62.88315 86.26244 74.57280
# Shear Modulus (GPa) = 27.74216 35.60621 31.67419
#
# Velocity S-wave (km/s) = 3.26101 3.69441 3.48446
# Velocity P-wave (km/s) = 6.18736 7.15993 6.69134
#
# Compressibility (1/GPa) = 0.01590251
#
# Stress axis : x y z
#
# Youngs Moduli (GPa) = 155.45664 150.72736 60.55869
#
# Poissons Ratio (x) = 0.34517 0.13143
# Poissons Ratio (y) = 0.35600 0.14404
# Poissons Ratio (z) = 0.33739 0.35850
#
# Static dielectric constant tensor:
#      x y z
#    x 2.287900 0.000000 0.000000 
#    y 0.000000 2.310630 0.000000 
#    z 0.000000 0.000000 2.108890 
# 
# From -- ./inp_files/20405.got.cif
#   From: 2010.05.17/outbox.cif.g08.bks.cpg/sg70_11_cif.got.tgz:20405.got - 2010.06.03 15:57:51.
