data_PCOD9516211
_publ_section_title
;
Structure prediction by ZEFSAII (Michael W. Deem and Ramdas Pophale) SiO2 
 PCOD9516211
Probable space group: F D D D
;
_chemical_formula_sum "Si O2"
_cell_formula_units_Z 112
_cell_length_a 12.765508
_cell_length_b 17.152563
_cell_length_c 24.522768
_cell_angle_alpha 90.000000
_cell_angle_beta 90.000000
_cell_angle_gamma 90.000000
_cell_volume 5369.534223
_symmetry_space_group_name_H-M "F D D D"
_symmetry_group_IT_number 70
_space_group.IT_coordinate_system_code '2'
_symmetry_cell_setting 'orthorhombic'
loop_
_space_group_symop_operation_xyz
x,y,z
1/4-x,1/4-y,z
x,1/4-y,1/4-z
1/4-x,y,1/4-z
-x,-y,-z
3/4+x,3/4+y,-z
-x,3/4+y,3/4+z
3/4+x,-y,3/4+z
x,1/2+y,1/2+z
1/4-x,3/4-y,1/2+z
x,3/4-y,3/4-z
1/4-x,1/2+y,3/4-z
-x,1/2-y,1/2-z
3/4+x,1/4+y,1/2-z
-x,1/4+y,1/4+z
3/4+x,1/2-y,1/4+z
1/2+x,y,1/2+z
3/4-x,1/4-y,1/2+z
1/2+x,1/4-y,3/4-z
3/4-x,y,3/4-z
1/2-x,-y,1/2-z
1/4+x,3/4+y,1/2-z
1/2-x,3/4+y,1/4+z
1/4+x,-y,1/4+z
1/2+x,1/2+y,z
3/4-x,3/4-y,z
1/2+x,3/4-y,1/4-z
3/4-x,1/2+y,1/4-z
1/2-x,1/2-y,-z
1/4+x,1/4+y,-z
1/2-x,1/4+y,3/4+z
1/4+x,1/2-y,3/4+z
loop_
_atom_site_type_symbol
_atom_site_label
_atom_site_fract_x
_atom_site_fract_y
_atom_site_fract_z
Si Si1 0.125000 0.310711 0.625000
Si Si2 0.241076 0.091201 0.463829
Si Si3 0.551143 0.946752 0.832150
Si Si4 0.756108 0.282708 0.366798
O O1 0.193845 0.359974 0.581356
O O2 0.206024 0.255510 0.657332
O O3 0.125000 0.125000 0.470026
O O4 0.297076 0.087911 0.521829
O O5 0.228087 0.002991 0.441437
O O6 0.541546 0.875000 0.875000
O O7 0.661165 0.991204 0.843541
O O8 0.758783 0.375000 0.375000
O O9 0.875000 0.256355 0.375000
#
# Coordination Sequence:
#
# PCOD9516211 Si02
#       4
#    16  32  32  32
#     4  12  25  44  73 108 134 186 238 282 357 416
#     4  12  25  45  72 103 145 181 233 298 341 419
#     4  11  26  44  71 105 139 182 232 290 357 408
#     4  10  23  46  67  99 141 184 230 278 349 418
#
# _framework density 20.858421
#
# number of rings (size 3 to 8) (size 9 to 14) (size 15 to 20)
#    0.000    0.857    4.286    2.143    8.000    3.429 
#    0.000    0.000    0.000    0.000    0.000    0.000 
#    0.000    0.000    0.000    0.000    0.000    0.000 
#
# Total GULP energy -156215.075954 kJ/mol
# GULP energy per Si atom -5579.109855 kJ/mol
# Density = 2.081095 g / cm^3
# Si number density = 20.858421 Si / 1000 Ang^3
#
#
#
# Elastic Constant Matrix: (Units=GPa)
#
#
# Indices 1 2 3 4 5 6 
#
# 1 153.2745 11.1805 33.5921 0.0000 0.0000 0.0000
# 2 11.1805 67.3981 31.6265 0.0000 0.0000 0.0000
# 3 33.5921 31.6265 147.4408 0.0000 0.0000 0.0000
# 4 0.0000 0.0000 0.0000 32.9072 0.0000 0.0000
# 5 0.0000 0.0000 0.0000 0.0000 9.4704 0.0000
# 6 0.0000 0.0000 0.0000 0.0000 0.0000 -1.4854
#
#
#
# Elastic Compliance Matrix: (Units=1/GPa)
#
#
# Indices 1 2 3 4 5 6 
#
# 1 0.006879 -0.000451 -0.001471 0.000000 0.000000 0.000000
# 2 -0.000451 0.016527 -0.003442 0.000000 0.000000 0.000000
# 3 -0.001471 -0.003442 0.007856 0.000000 0.000000 0.000000
# 4 0.000000 0.000000 0.000000 0.030388 0.000000 0.000000
# 5 0.000000 0.000000 0.000000 0.000000 0.105592 0.000000
# 6 0.000000 0.000000 0.000000 0.000000 0.000000 -0.673218
#
#
# Mechanical properties :
#
#
# Convention : Reuss Voigt Hill
#
# Bulk Modulus (GPa) = 48.69874 57.87908 53.28891
# Shear Modulus (GPa) = -10.23747 27.62606 8.69429
#
# Velocity S-wave (km/s) = -2.21782 3.64326 2.04384
# Velocity P-wave (km/s) = 4.10362 6.74585 5.58329
#
# Compressibility (1/GPa) = 0.02053441
#
# Stress axis : x y z
#
# Youngs Moduli (GPa) = 145.36036 60.50568 127.29383
#
# Poissons Ratio (x) = 0.02730 0.18720
# Poissons Ratio (y) = 0.06558 0.43819
# Poissons Ratio (z) = 0.21377 0.20828
#
# Static dielectric constant tensor:
#      x y z
#    x 1.795070 0.000000 0.000000 
#    y 0.000000 1.801210 0.000000 
#    z 0.000000 0.000000 1.722660 
# 
# From -- ./inp_files/16285.got.cif
#   From: 2010.05.17/outbox.cif.g08.bks.cpg/sg70_9_cif.got.tgz:16285.got - 2010.06.03 15:57:51.
