data_PCOD9516130
_publ_section_title
;
Structure prediction by ZEFSAII (Michael W. Deem and Ramdas Pophale) SiO2 
 PCOD9516130
Probable space group: F D D D
;
_chemical_formula_sum "Si O2"
_cell_formula_units_Z 168
_cell_length_a 25.338241
_cell_length_b 10.069271
_cell_length_c 30.677569
_cell_angle_alpha 90.000000
_cell_angle_beta 90.000000
_cell_angle_gamma 90.000000
_cell_volume 7827.001798
_symmetry_space_group_name_H-M "F D D D"
_symmetry_group_IT_number 70
_space_group.IT_coordinate_system_code '2'
_symmetry_cell_setting 'orthorhombic'
loop_
_space_group_symop_operation_xyz
x,y,z
1/4-x,1/4-y,z
x,1/4-y,1/4-z
1/4-x,y,1/4-z
-x,-y,-z
3/4+x,3/4+y,-z
-x,3/4+y,3/4+z
3/4+x,-y,3/4+z
x,1/2+y,1/2+z
1/4-x,3/4-y,1/2+z
x,3/4-y,3/4-z
1/4-x,1/2+y,3/4-z
-x,1/2-y,1/2-z
3/4+x,1/4+y,1/2-z
-x,1/4+y,1/4+z
3/4+x,1/2-y,1/4+z
1/2+x,y,1/2+z
3/4-x,1/4-y,1/2+z
1/2+x,1/4-y,3/4-z
3/4-x,y,3/4-z
1/2-x,-y,1/2-z
1/4+x,3/4+y,1/2-z
1/2-x,3/4+y,1/4+z
1/4+x,-y,1/4+z
1/2+x,1/2+y,z
3/4-x,3/4-y,z
1/2+x,3/4-y,1/4-z
3/4-x,1/2+y,1/4-z
1/2-x,1/2-y,-z
1/4+x,1/4+y,-z
1/2-x,1/4+y,3/4+z
1/4+x,1/2-y,3/4+z
loop_
_atom_site_type_symbol
_atom_site_label
_atom_site_fract_x
_atom_site_fract_y
_atom_site_fract_z
Si Si1 0.875000 0.375000 0.929528
Si Si2 0.375000 0.875000 0.375000
Si Si3 0.954708 0.999793 0.100903
Si Si4 0.855817 0.022471 0.740171
Si Si5 0.812041 0.114861 0.829022
Si Si6 0.561495 0.757819 0.756656
Si Si7 0.875000 0.375000 0.667230
O O1 0.839847 0.494802 0.908560
O O2 0.914430 0.449875 0.962244
O O3 0.409500 0.767584 0.347904
O O4 0.980949 0.125000 0.125000
O O5 0.927246 0.025934 0.054462
O O6 0.907970 0.965214 0.134294
O O7 0.001045 0.892564 0.093310
O O8 0.820707 0.093930 0.777207
O O9 0.910744 0.101256 0.736829
O O10 0.875000 0.875000 0.751023
O O11 0.500000 0.750000 0.750000
O O12 0.581443 0.680516 0.799341
#
# Coordination Sequence:
#
# PCOD9516130 Si02
#       7
#    16   8  32  32  32  32  16
#     4   9  24  45  66 102 138 180 243 293 346 465
#     4  12  24  44  72 102 140 182 242 312 350 448
#     4  12  24  42  72 105 147 195 242 315 379 435
#     4  11  23  42  70 104 143 189 253 302 361 459
#     4  11  25  46  70 104 144 193 245 301 378 434
#     4  10  23  42  68  98 141 188 233 299 367 425
#     4  11  24  43  64 105 144 176 250 303 361 446
#
# _framework density 21.464157
#
# number of rings (size 3 to 8) (size 9 to 14) (size 15 to 20)
#    0.000    1.143    4.762    0.571    2.667    4.952 
#    0.000    0.000    0.000    0.000    0.000    0.000 
#    0.000    0.000    0.000    0.000    0.000    0.000 
#
# Total GULP energy -234269.267853 kJ/mol
# GULP energy per Si atom -5577.839711 kJ/mol
# Density = 2.141530 g / cm^3
# Si number density = 21.464157 Si / 1000 Ang^3
#
#
#
# Elastic Constant Matrix: (Units=GPa)
#
#
# Indices 1 2 3 4 5 6 
#
# 1 159.6035 39.9971 44.2226 0.0000 0.0000 0.0000
# 2 39.9971 110.1677 22.1043 0.0000 0.0000 0.0000
# 3 44.2226 22.1043 91.6129 0.0000 0.0000 0.0000
# 4 0.0000 0.0000 0.0000 44.2914 0.0000 0.0000
# 5 0.0000 0.0000 0.0000 0.0000 4.3637 0.0000
# 6 0.0000 0.0000 0.0000 0.0000 0.0000 26.8839
#
#
#
# Elastic Compliance Matrix: (Units=1/GPa)
#
#
# Indices 1 2 3 4 5 6 
#
# 1 0.007689 -0.002151 -0.003193 0.000000 0.000000 0.000000
# 2 -0.002151 0.010141 -0.001408 0.000000 0.000000 0.000000
# 3 -0.003193 -0.001408 0.012796 0.000000 0.000000 0.000000
# 4 0.000000 0.000000 0.000000 0.022578 0.000000 0.000000
# 5 0.000000 0.000000 0.000000 0.000000 0.229161 0.000000
# 6 0.000000 0.000000 0.000000 0.000000 0.000000 0.037197
#
#
# Mechanical properties :
#
#
# Convention : Reuss Voigt Hill
#
# Bulk Modulus (GPa) = 58.40414 63.78134 61.09274
# Shear Modulus (GPa) = 14.75913 32.11181 23.43547
#
# Velocity S-wave (km/s) = 2.62509 3.87210 3.30789
# Velocity P-wave (km/s) = 6.03799 7.05483 6.56612
#
# Compressibility (1/GPa) = 0.01712207
#
# Stress axis : x y z
#
# Youngs Moduli (GPa) = 130.05260 98.61350 78.14671
#
# Poissons Ratio (x) = 0.21212 0.24950
# Poissons Ratio (y) = 0.27975 0.11006
# Poissons Ratio (z) = 0.41521 0.13889
#
# Static dielectric constant tensor:
#      x y z
#    x 1.724980 0.000000 0.000000 
#    y 0.000000 1.805670 0.000000 
#    z 0.000000 0.000000 1.841980 
# 
# From -- ./inp_files/67808.got.cif
#   From: 2010.05.17/outbox.cif.g08.bks.cpg/sg70_34_cif.got.tgz:67808.got - 2010.06.03 15:57:51.
