data_PCOD9516254
_publ_section_title
;
Structure prediction by ZEFSAII (Michael W. Deem and Ramdas Pophale) SiO2 
 PCOD9516254
Probable space group: F D D D
;
_chemical_formula_sum "Si O2"
_cell_formula_units_Z 120
_cell_length_a 10.863276
_cell_length_b 23.820311
_cell_length_c 19.110406
_cell_angle_alpha 90.000000
_cell_angle_beta 90.000000
_cell_angle_gamma 90.000000
_cell_volume 4945.135030
_symmetry_space_group_name_H-M "F D D D"
_symmetry_group_IT_number 70
_space_group.IT_coordinate_system_code '2'
_symmetry_cell_setting 'orthorhombic'
loop_
_space_group_symop_operation_xyz
x,y,z
1/4-x,1/4-y,z
x,1/4-y,1/4-z
1/4-x,y,1/4-z
-x,-y,-z
3/4+x,3/4+y,-z
-x,3/4+y,3/4+z
3/4+x,-y,3/4+z
x,1/2+y,1/2+z
1/4-x,3/4-y,1/2+z
x,3/4-y,3/4-z
1/4-x,1/2+y,3/4-z
-x,1/2-y,1/2-z
3/4+x,1/4+y,1/2-z
-x,1/4+y,1/4+z
3/4+x,1/2-y,1/4+z
1/2+x,y,1/2+z
3/4-x,1/4-y,1/2+z
1/2+x,1/4-y,3/4-z
3/4-x,y,3/4-z
1/2-x,-y,1/2-z
1/4+x,3/4+y,1/2-z
1/2-x,3/4+y,1/4+z
1/4+x,-y,1/4+z
1/2+x,1/2+y,z
3/4-x,3/4-y,z
1/2+x,3/4-y,1/4-z
3/4-x,1/2+y,1/4-z
1/2-x,1/2-y,-z
1/4+x,1/4+y,-z
1/2-x,1/4+y,3/4+z
1/4+x,1/2-y,3/4+z
loop_
_atom_site_type_symbol
_atom_site_label
_atom_site_fract_x
_atom_site_fract_y
_atom_site_fract_z
Si Si1 0.455735 0.720913 0.084893
Si Si2 0.375000 0.375000 0.875000
Si Si3 0.375000 0.198793 0.375000
Si Si4 0.431002 0.224875 0.041151
Si Si5 0.766399 0.603569 0.738372
O O1 0.541022 0.666339 0.080418
O O2 0.438468 0.742361 0.164150
O O3 0.526526 0.765140 0.037784
O O4 0.322395 0.700145 0.054247
O O5 0.464215 0.239162 0.419216
O O6 0.448586 0.161300 0.318223
O O7 0.420384 0.157956 0.045310
O O8 0.625000 0.625000 0.732628
#
# Coordination Sequence:
#
# PCOD9516254 Si02
#       5
#    32   8  16  32  32
#     4  11  25  44  71 104 139 192 244 302 370 450
#     4  12  24  50  62  96 148 180 242 300 364 452
#     4  10  24  41  67 114 142 181 257 304 360 460
#     4  11  22  44  68 104 141 190 240 303 378 430
#     4  11  22  43  71 102 144 189 242 307 369 441
#
# _framework density 24.266273999999999
#
# number of rings (size 3 to 8) (size 9 to 14) (size 15 to 20)
#    0.000    1.067    2.667    3.200    0.000    7.467 
#   19.200    0.000    0.000    0.000    0.000    0.000 
#    0.000    0.000    0.000    0.000    0.000    0.000 
#
# Total GULP energy -167238.100748 kJ/mol
# GULP energy per Si atom -5574.603358 kJ/mol
# Density = 2.421104 g / cm^3
# Si number density = 24.266274 Si / 1000 Ang^3
#
#
#
# Elastic Constant Matrix: (Units=GPa)
#
#
# Indices 1 2 3 4 5 6 
#
# 1 100.7672 22.9148 9.1642 0.0000 0.0000 0.0000
# 2 22.9148 66.2998 23.1845 0.0000 0.0000 0.0000
# 3 9.1642 23.1845 76.7193 0.0000 0.0000 0.0000
# 4 0.0000 0.0000 0.0000 22.0652 0.0000 0.0000
# 5 0.0000 0.0000 0.0000 0.0000 38.3837 0.0000
# 6 0.0000 0.0000 0.0000 0.0000 0.0000 16.1930
#
#
#
# Elastic Compliance Matrix: (Units=1/GPa)
#
#
# Indices 1 2 3 4 5 6 
#
# 1 0.010773 -0.003660 -0.000181 0.000000 0.000000 0.000000
# 2 -0.003660 0.018109 -0.005035 0.000000 0.000000 0.000000
# 3 -0.000181 -0.005035 0.014578 0.000000 0.000000 0.000000
# 4 0.000000 0.000000 0.000000 0.045320 0.000000 0.000000
# 5 0.000000 0.000000 0.000000 0.000000 0.026053 0.000000
# 6 0.000000 0.000000 0.000000 0.000000 0.000000 0.061755
#
#
# Mechanical properties :
#
#
# Convention : Reuss Voigt Hill
#
# Bulk Modulus (GPa) = 38.89985 39.36817 39.13401
# Shear Modulus (GPa) = 24.64164 27.89655 26.26910
#
# Velocity S-wave (km/s) = 3.19010 3.39426 3.29376
# Velocity P-wave (km/s) = 5.44373 5.62316 5.53417
#
# Compressibility (1/GPa) = 0.02570704
#
# Stress axis : x y z
#
# Youngs Moduli (GPa) = 92.82796 55.22177 68.59764
#
# Poissons Ratio (x) = 0.20212 0.01240
# Poissons Ratio (y) = 0.33976 0.34541
# Poissons Ratio (z) = 0.01678 0.27806
#
# Static dielectric constant tensor:
#      x y z
#    x 2.078880 0.000000 0.000000 
#    y 0.000000 1.888390 0.000000 
#    z 0.000000 0.000000 2.027380 
# 
# From -- ./inp_files/17381.got.cif
#   From: 2010.05.17/outbox.cif.g08.bks.cpg/sg70_9_cif.got.tgz:17381.got - 2010.06.03 15:57:51.
