data_PCOD9516420
_publ_section_title
;
Structure prediction by ZEFSAII (Michael W. Deem and Ramdas Pophale) SiO2 
 PCOD9516420
Probable space group: F D D D
;
_chemical_formula_sum "Si O2"
_cell_formula_units_Z 176
_cell_length_a 24.259962
_cell_length_b 23.903589
_cell_length_c 14.156792
_cell_angle_alpha 90.000000
_cell_angle_beta 90.000000
_cell_angle_gamma 90.000000
_cell_volume 8209.525957
_symmetry_space_group_name_H-M "F D D D"
_symmetry_group_IT_number 70
_space_group.IT_coordinate_system_code '2'
_symmetry_cell_setting 'orthorhombic'
loop_
_space_group_symop_operation_xyz
x,y,z
1/4-x,1/4-y,z
x,1/4-y,1/4-z
1/4-x,y,1/4-z
-x,-y,-z
3/4+x,3/4+y,-z
-x,3/4+y,3/4+z
3/4+x,-y,3/4+z
x,1/2+y,1/2+z
1/4-x,3/4-y,1/2+z
x,3/4-y,3/4-z
1/4-x,1/2+y,3/4-z
-x,1/2-y,1/2-z
3/4+x,1/4+y,1/2-z
-x,1/4+y,1/4+z
3/4+x,1/2-y,1/4+z
1/2+x,y,1/2+z
3/4-x,1/4-y,1/2+z
1/2+x,1/4-y,3/4-z
3/4-x,y,3/4-z
1/2-x,-y,1/2-z
1/4+x,3/4+y,1/2-z
1/2-x,3/4+y,1/4+z
1/4+x,-y,1/4+z
1/2+x,1/2+y,z
3/4-x,3/4-y,z
1/2+x,3/4-y,1/4-z
3/4-x,1/2+y,1/4-z
1/2-x,1/2-y,-z
1/4+x,1/4+y,-z
1/2-x,1/4+y,3/4+z
1/4+x,1/2-y,3/4+z
loop_
_atom_site_type_symbol
_atom_site_label
_atom_site_fract_x
_atom_site_fract_y
_atom_site_fract_z
Si Si1 0.589437 0.065991 0.540255
Si Si2 0.777765 0.375000 0.875000
Si Si3 0.875000 0.375000 0.739807
Si Si4 0.504581 0.754660 0.863624
Si Si5 0.235747 0.875000 0.375000
Si Si6 0.161959 0.430613 0.036330
Si Si7 0.624961 0.234011 0.884260
O O1 0.625000 0.125000 0.515335
O O2 0.625000 0.041941 0.625000
O O3 0.529477 0.081196 0.579911
O O4 0.589134 0.019094 0.459514
O O5 0.821848 0.394913 0.797221
O O6 0.743914 0.430459 0.895630
O O7 0.895284 0.428326 0.685249
O O8 0.500000 0.750000 0.750000
O O9 0.453708 0.723703 0.912401
O O10 0.561534 0.726437 0.894271
O O11 0.198058 0.857180 0.285370
O O12 0.125000 0.407966 0.125000
O O13 0.127075 0.466368 0.959716
#
# Coordination Sequence:
#
# PCOD9516420 Si02
#       7
#    32  16  16  32  16  32  32
#     4   9  19  41  69  96 123 175 239 283 326 412
#     4  11  22  37  60  97 139 172 219 280 349 420
#     4  11  20  36  61  96 126 174 225 280 333 408
#     4  12  23  40  66  99 136 180 222 282 359 406
#     4  10  25  45  70  95 139 194 226 286 364 406
#     4  12  25  46  64 101 144 178 230 292 350 427
#     4  12  23  40  69  97 134 176 229 290 341 412
#
# _framework density 21.438509
#
# number of rings (size 3 to 8) (size 9 to 14) (size 15 to 20)
#    0.000    1.091    6.364    2.182    0.000    1.455 
#    0.000    0.909    0.000    0.000    0.000    0.000 
#    0.000    0.000    0.000    0.000    0.000    0.000 
#
# Total GULP energy -245045.367592 kJ/mol
# GULP energy per Si atom -5569.212900 kJ/mol
# Density = 2.138971 g / cm^3
# Si number density = 21.438509 Si / 1000 Ang^3
#
#
#
# Elastic Constant Matrix: (Units=GPa)
#
#
# Indices 1 2 3 4 5 6 
#
# 1 89.8788 12.6376 40.5286 0.0000 0.0000 0.0000
# 2 12.6376 29.4974 27.4516 0.0000 0.0000 0.0000
# 3 40.5286 27.4516 133.0747 0.0000 0.0000 0.0000
# 4 0.0000 0.0000 0.0000 50.9533 0.0000 0.0000
# 5 0.0000 0.0000 0.0000 0.0000 24.7290 0.0000
# 6 0.0000 0.0000 0.0000 0.0000 0.0000 18.8461
#
#
#
# Elastic Compliance Matrix: (Units=1/GPa)
#
#
# Indices 1 2 3 4 5 6 
#
# 1 0.013026 -0.002338 -0.003485 0.000000 0.000000 0.000000
# 2 -0.002338 0.042375 -0.008030 0.000000 0.000000 0.000000
# 3 -0.003485 -0.008030 0.010232 0.000000 0.000000 0.000000
# 4 0.000000 0.000000 0.000000 0.019626 0.000000 0.000000
# 5 0.000000 0.000000 0.000000 0.000000 0.040438 0.000000
# 6 0.000000 0.000000 0.000000 0.000000 0.000000 0.053061
#
#
# Mechanical properties :
#
#
# Convention : Reuss Voigt Hill
#
# Bulk Modulus (GPa) = 26.36450 45.96514 36.16482
# Shear Modulus (GPa) = 22.81989 30.36123 26.59056
#
# Velocity S-wave (km/s) = 3.26611 3.76733 3.52564
# Velocity P-wave (km/s) = 5.15245 6.35694 5.78612
#
# Compressibility (1/GPa) = 0.03792979
#
# Stress axis : x y z
#
# Youngs Moduli (GPa) = 76.76808 23.59856 97.72924
#
# Poissons Ratio (x) = 0.05516 0.34059
# Poissons Ratio (y) = 0.17945 0.78473
# Poissons Ratio (z) = 0.26754 0.18949
#
# Static dielectric constant tensor:
#      x y z
#    x 1.760030 0.000000 0.000000 
#    y 0.000000 2.053800 0.000000 
#    z 0.000000 0.000000 1.894630 
# 
# From -- ./inp_files/28800.got.cif
#   From: 2010.05.17/outbox.cif.g08.bks.cpg/sg70_15_cif.got.tgz:28800.got - 2010.06.03 15:57:51.
