data_PCOD9516385
_publ_section_title
;
Structure prediction by ZEFSAII (Michael W. Deem and Ramdas Pophale) SiO2 
 PCOD9516385
Probable space group: F D D D
;
_chemical_formula_sum "Si O2"
_cell_formula_units_Z 192
_cell_length_a 24.227325
_cell_length_b 15.669044
_cell_length_c 22.828393
_cell_angle_alpha 90.000000
_cell_angle_beta 90.000000
_cell_angle_gamma 90.000000
_cell_volume 8666.092211
_symmetry_space_group_name_H-M "F D D D"
_symmetry_group_IT_number 70
_space_group.IT_coordinate_system_code '2'
_symmetry_cell_setting 'orthorhombic'
loop_
_space_group_symop_operation_xyz
x,y,z
1/4-x,1/4-y,z
x,1/4-y,1/4-z
1/4-x,y,1/4-z
-x,-y,-z
3/4+x,3/4+y,-z
-x,3/4+y,3/4+z
3/4+x,-y,3/4+z
x,1/2+y,1/2+z
1/4-x,3/4-y,1/2+z
x,3/4-y,3/4-z
1/4-x,1/2+y,3/4-z
-x,1/2-y,1/2-z
3/4+x,1/4+y,1/2-z
-x,1/4+y,1/4+z
3/4+x,1/2-y,1/4+z
1/2+x,y,1/2+z
3/4-x,1/4-y,1/2+z
1/2+x,1/4-y,3/4-z
3/4-x,y,3/4-z
1/2-x,-y,1/2-z
1/4+x,3/4+y,1/2-z
1/2-x,3/4+y,1/4+z
1/4+x,-y,1/4+z
1/2+x,1/2+y,z
3/4-x,3/4-y,z
1/2+x,3/4-y,1/4-z
3/4-x,1/2+y,1/4-z
1/2-x,1/2-y,-z
1/4+x,1/4+y,-z
1/2-x,1/4+y,3/4+z
1/4+x,1/2-y,3/4+z
loop_
_atom_site_type_symbol
_atom_site_label
_atom_site_fract_x
_atom_site_fract_y
_atom_site_fract_z
Si Si1 0.392247 0.973610 0.684469
Si Si2 0.208405 0.327437 0.490860
Si Si3 0.976502 0.789949 0.810065
Si Si4 0.937469 0.125000 0.125000
Si Si5 0.192233 0.869577 0.626447
Si Si6 0.625000 0.125000 0.625000
Si Si7 0.125000 0.625000 0.125000
Si Si8 0.464138 0.969490 0.797514
O O1 0.375000 0.875000 0.672445
O O2 0.442220 0.971366 0.731068
O O3 0.345134 0.030627 0.715755
O O4 0.405852 0.035719 0.630116
O O5 0.250000 0.250000 0.500000
O O6 0.200443 0.361231 0.555965
O O7 0.233977 0.404543 0.452257
O O8 0.975571 0.713694 0.857203
O O9 0.916230 0.827835 0.828248
O O10 0.000000 0.750000 0.750000
O O11 0.020491 0.863984 0.821672
O O12 0.125000 0.861564 0.625000
O O13 0.216933 0.941380 0.582194
O O14 0.164151 0.677555 0.166776
#
# Coordination Sequence:
#
# PCOD9516385 Si02
#       8
#    32  32  32  16  32   8   8  32
#     4  12  24  47  70 102 151 193 241 313 381 449
#     4  12  25  42  70 106 146 187 238 299 382 452
#     4  11  25  49  75 108 140 200 261 303 379 448
#     4  11  28  48  70 100 152 190 242 319 372 442
#     4  12  24  44  75 104 144 195 240 301 371 441
#     4  10  24  50  80 104 156 194 252 342 358 440
#     4  12  20  40  64 104 148 180 216 296 374 432
#     4  12  22  42  70 105 143 182 241 299 367 453
#
# _framework density 22.155315000000002
#
# number of rings (size 3 to 8) (size 9 to 14) (size 15 to 20)
#    0.000    0.333    5.833    3.000    0.000    3.333 
#    1.500    0.000    0.000    0.000    0.000    0.000 
#    0.000    0.000    0.000    0.000    0.000    0.000 
#
# Total GULP energy -267492.885102 kJ/mol
# GULP energy per Si atom -5572.768440 kJ/mol
# Density = 2.210489 g / cm^3
# Si number density = 22.155315 Si / 1000 Ang^3
#
#
#
# Elastic Constant Matrix: (Units=GPa)
#
#
# Indices 1 2 3 4 5 6 
#
# 1 82.3697 50.3044 45.4555 0.0000 0.0000 0.0000
# 2 50.3044 151.1583 30.2665 0.0000 0.0000 0.0000
# 3 45.4555 30.2665 73.6273 0.0000 0.0000 0.0000
# 4 0.0000 0.0000 0.0000 50.0231 0.0000 0.0000
# 5 0.0000 0.0000 0.0000 0.0000 -205.1281 0.0000
# 6 0.0000 0.0000 0.0000 0.0000 0.0000 45.5430
#
#
#
# Elastic Compliance Matrix: (Units=1/GPa)
#
#
# Indices 1 2 3 4 5 6 
#
# 1 0.021232 -0.004839 -0.011118 0.000000 0.000000 0.000000
# 2 -0.004839 0.008312 -0.000429 0.000000 0.000000 0.000000
# 3 -0.011118 -0.000429 0.020623 0.000000 0.000000 0.000000
# 4 0.000000 0.000000 0.000000 0.019991 0.000000 0.000000
# 5 0.000000 0.000000 0.000000 0.000000 -0.004875 0.000000
# 6 0.000000 0.000000 0.000000 0.000000 0.000000 0.021957
#
#
# Mechanical properties :
#
#
# Convention : Reuss Voigt Hill
#
# Bulk Modulus (GPa) = 57.49727 62.13424 59.81575
# Shear Modulus (GPa) = 39.74229 -9.83714 14.95258
#
# Velocity S-wave (km/s) = 4.23993 -2.10944 2.60070
# Velocity P-wave (km/s) = 7.06948 4.70880 6.00626
#
# Compressibility (1/GPa) = 0.01739213
#
# Stress axis : x y z
#
# Youngs Moduli (GPa) = 47.09968 120.30728 48.49065
#
# Poissons Ratio (x) = 0.58222 0.53914
# Poissons Ratio (y) = 0.22794 0.02081
# Poissons Ratio (z) = 0.52367 0.05163
#
# Static dielectric constant tensor:
#      x y z
#    x 1.965050 0.000000 0.000000 
#    y 0.000000 1.854100 0.000000 
#    z 0.000000 0.000000 1.822390 
# 
# From -- ./inp_files/61212.got.cif
#   From: 2010.05.17/outbox.cif.g08.bks.cpg/sg70_31_cif.got.tgz:61212.got - 2010.06.03 15:57:51.
