data_PCOD9516326
_publ_section_title
;
Structure prediction by ZEFSAII (Michael W. Deem and Ramdas Pophale) SiO2 
 PCOD9516326
Probable space group: F D D D
;
_chemical_formula_sum "Si O2"
_cell_formula_units_Z 208
_cell_length_a 27.539127
_cell_length_b 20.067515
_cell_length_c 16.913986
_cell_angle_alpha 90.000000
_cell_angle_beta 90.000000
_cell_angle_gamma 90.000000
_cell_volume 9347.376415
_symmetry_space_group_name_H-M "F D D D"
_symmetry_group_IT_number 70
_space_group.IT_coordinate_system_code '2'
_symmetry_cell_setting 'orthorhombic'
loop_
_space_group_symop_operation_xyz
x,y,z
1/4-x,1/4-y,z
x,1/4-y,1/4-z
1/4-x,y,1/4-z
-x,-y,-z
3/4+x,3/4+y,-z
-x,3/4+y,3/4+z
3/4+x,-y,3/4+z
x,1/2+y,1/2+z
1/4-x,3/4-y,1/2+z
x,3/4-y,3/4-z
1/4-x,1/2+y,3/4-z
-x,1/2-y,1/2-z
3/4+x,1/4+y,1/2-z
-x,1/4+y,1/4+z
3/4+x,1/2-y,1/4+z
1/2+x,y,1/2+z
3/4-x,1/4-y,1/2+z
1/2+x,1/4-y,3/4-z
3/4-x,y,3/4-z
1/2-x,-y,1/2-z
1/4+x,3/4+y,1/2-z
1/2-x,3/4+y,1/4+z
1/4+x,-y,1/4+z
1/2+x,1/2+y,z
3/4-x,3/4-y,z
1/2+x,3/4-y,1/4-z
3/4-x,1/2+y,1/4-z
1/2-x,1/2-y,-z
1/4+x,1/4+y,-z
1/2-x,1/4+y,3/4+z
1/4+x,1/2-y,3/4+z
loop_
_atom_site_type_symbol
_atom_site_label
_atom_site_fract_x
_atom_site_fract_y
_atom_site_fract_z
Si Si1 0.649286 0.056626 0.417495
Si Si2 0.822761 0.038522 0.737564
Si Si3 0.727808 0.964570 0.498609
Si Si4 0.539529 0.625000 0.625000
Si Si5 0.151206 0.887670 0.779257
Si Si6 0.943699 0.277877 0.743870
Si Si7 0.476410 0.299202 0.856070
O O1 0.625000 0.125000 0.444625
O O2 0.677148 0.066882 0.334708
O O3 0.605545 0.002953 0.424845
O O4 0.691975 0.022268 0.467063
O O5 0.850631 0.107556 0.747357
O O6 0.769930 0.055473 0.706108
O O7 0.816479 0.992803 0.814768
O O8 0.759920 0.928173 0.431138
O O9 0.691715 0.903946 0.518222
O O10 0.748602 0.002116 0.574512
O O11 0.566300 0.673257 0.684507
O O12 0.157826 0.875000 0.875000
O O13 0.160255 0.963393 0.760361
O O14 0.000000 0.250000 0.750000
O O15 0.461639 0.375000 0.875000
#
# Coordination Sequence:
#
# PCOD9516326 Si02
#       7
#    32  32  32  16  32  32  32
#     4  11  23  39  71 103 144 192 242 306 382 438
#     4  10  24  45  70 106 142 199 250 301 392 443
#     4  11  21  42  73 105 143 189 243 313 369 448
#     4  12  24  44  73 114 146 198 260 296 382 465
#     4  11  19  42  73 104 141 193 242 299 383 449
#     4  12  22  42  75 104 149 192 252 304 374 465
#     4  11  25  45  72 107 146 192 257 313 367 454
#
# _framework density 22.252234000000001
#
# number of rings (size 3 to 8) (size 9 to 14) (size 15 to 20)
#    0.000    0.923    6.923    1.385    2.154    2.462 
#    5.538    4.231   10.154    0.000    0.000    0.000 
#    0.000    0.000    0.000    0.000    0.000    0.000 
#
# Total GULP energy -289957.682279 kJ/mol
# GULP energy per Si atom -5576.109275 kJ/mol
# Density = 2.220159 g / cm^3
# Si number density = 22.252234 Si / 1000 Ang^3
#
#
#
# Elastic Constant Matrix: (Units=GPa)
#
#
# Indices 1 2 3 4 5 6 
#
# 1 43.4658 23.2616 8.3829 0.0000 0.0000 0.0000
# 2 23.2616 153.3599 39.7902 0.0000 0.0000 0.0000
# 3 8.3829 39.7902 44.1578 0.0000 0.0000 0.0000
# 4 0.0000 0.0000 0.0000 37.9809 0.0000 0.0000
# 5 0.0000 0.0000 0.0000 0.0000 20.9008 0.0000
# 6 0.0000 0.0000 0.0000 0.0000 0.0000 13.1148
#
#
#
# Elastic Compliance Matrix: (Units=1/GPa)
#
#
# Indices 1 2 3 4 5 6 
#
# 1 0.025142 -0.003361 -0.001744 0.000000 0.000000 0.000000
# 2 -0.003361 0.008960 -0.007435 0.000000 0.000000 0.000000
# 3 -0.001744 -0.007435 0.029677 0.000000 0.000000 0.000000
# 4 0.000000 0.000000 0.000000 0.026329 0.000000 0.000000
# 5 0.000000 0.000000 0.000000 0.000000 0.047845 0.000000
# 6 0.000000 0.000000 0.000000 0.000000 0.000000 0.076250
#
#
# Mechanical properties :
#
#
# Convention : Reuss Voigt Hill
#
# Bulk Modulus (GPa) = 25.84177 42.65032 34.24605
# Shear Modulus (GPa) = 19.82693 25.70256 22.76475
#
# Velocity S-wave (km/s) = 2.98822 3.40230 3.20196
# Velocity P-wave (km/s) = 4.85224 5.88579 5.39383
#
# Compressibility (1/GPa) = 0.03869704
#
# Stress axis : x y z
#
# Youngs Moduli (GPa) = 39.77455 111.61303 33.69604
#
# Poissons Ratio (x) = 0.37512 0.05878
# Poissons Ratio (y) = 0.13368 0.25054
# Poissons Ratio (z) = 0.06938 0.82988
#
# Static dielectric constant tensor:
#      x y z
#    x 1.837570 0.000000 0.000000 
#    y 0.000000 2.046800 0.000000 
#    z 0.000000 0.000000 1.896300 
# 
# From -- ./inp_files/38728.got.cif
#   From: 2010.05.17/outbox.cif.g08.bks.cpg/sg70_20_cif.got.tgz:38728.got - 2010.06.03 15:57:51.
