data_PCOD9516954
_publ_section_title
;
Structure prediction by ZEFSAII (Michael W. Deem and Ramdas Pophale) SiO2 
 PCOD9516954
Probable space group: F D D D
;
_chemical_formula_sum "Si O2"
_cell_formula_units_Z 120
_cell_length_a 10.458283
_cell_length_b 20.020171
_cell_length_c 26.325792
_cell_angle_alpha 90.000000
_cell_angle_beta 90.000000
_cell_angle_gamma 90.000000
_cell_volume 5512.005191
_symmetry_space_group_name_H-M "F D D D"
_symmetry_group_IT_number 70
_space_group.IT_coordinate_system_code '2'
_symmetry_cell_setting 'orthorhombic'
loop_
_space_group_symop_operation_xyz
x,y,z
1/4-x,1/4-y,z
x,1/4-y,1/4-z
1/4-x,y,1/4-z
-x,-y,-z
3/4+x,3/4+y,-z
-x,3/4+y,3/4+z
3/4+x,-y,3/4+z
x,1/2+y,1/2+z
1/4-x,3/4-y,1/2+z
x,3/4-y,3/4-z
1/4-x,1/2+y,3/4-z
-x,1/2-y,1/2-z
3/4+x,1/4+y,1/2-z
-x,1/4+y,1/4+z
3/4+x,1/2-y,1/4+z
1/2+x,y,1/2+z
3/4-x,1/4-y,1/2+z
1/2+x,1/4-y,3/4-z
3/4-x,y,3/4-z
1/2-x,-y,1/2-z
1/4+x,3/4+y,1/2-z
1/2-x,3/4+y,1/4+z
1/4+x,-y,1/4+z
1/2+x,1/2+y,z
3/4-x,3/4-y,z
1/2+x,3/4-y,1/4-z
3/4-x,1/2+y,1/4-z
1/2-x,1/2-y,-z
1/4+x,1/4+y,-z
1/2-x,1/4+y,3/4+z
1/4+x,1/2-y,3/4+z
loop_
_atom_site_type_symbol
_atom_site_label
_atom_site_fract_x
_atom_site_fract_y
_atom_site_fract_z
Si Si1 0.976455 0.514329 0.059450
Si Si2 0.384807 0.121567 0.931497
Si Si3 0.625000 0.625000 0.258427
Si Si4 0.875000 0.375000 0.875000
Si Si5 0.070069 0.014819 0.182003
O O1 0.829621 0.531499 0.069119
O O2 0.024710 0.441794 0.077832
O O3 0.051774 0.573929 0.087069
O O4 0.000000 0.500000 0.000000
O O5 0.375000 0.148635 0.875000
O O6 0.248311 0.107280 0.957131
O O7 0.432879 0.189897 0.956889
O O8 0.644836 0.562508 0.220952
O O9 0.125000 0.025806 0.125000
#
# Coordination Sequence:
#
# PCOD9516954 Si02
#       5
#    32  32  16   8  32
#     4  12  27  49  75 109 153 206 258 318 396 458
#     4  11  26  46  72 103 148 195 247 308 377 461
#     4  12  25  46  73 114 146 191 253 310 388 456
#     4  12  32  48  80 112 160 196 268 330 368 482
#     4  11  27  45  76 107 151 195 250 316 385 459
#
# _framework density 21.770661
#
# number of rings (size 3 to 8) (size 9 to 14) (size 15 to 20)
#    0.000    0.533    4.000    2.000   14.933    0.000 
#    0.000    0.000    0.000    0.000    0.000    0.000 
#    0.000    0.000    0.000    0.000    0.000    0.000 
#
# Total GULP energy -167010.899080 kJ/mol
# GULP energy per Si atom -5567.029969 kJ/mol
# Density = 2.172111 g / cm^3
# Si number density = 21.770661 Si / 1000 Ang^3
#
#
#
# Elastic Constant Matrix: (Units=GPa)
#
#
# Indices 1 2 3 4 5 6 
#
# 1 94.0039 6.1634 50.3807 0.0000 0.0000 0.0000
# 2 6.1634 117.1242 16.6678 0.0000 0.0000 0.0000
# 3 50.3807 16.6678 114.0723 0.0000 0.0000 0.0000
# 4 0.0000 0.0000 0.0000 19.4082 0.0000 0.0000
# 5 0.0000 0.0000 0.0000 0.0000 28.4651 0.0000
# 6 0.0000 0.0000 0.0000 0.0000 0.0000 24.7985
#
#
#
# Elastic Compliance Matrix: (Units=1/GPa)
#
#
# Indices 1 2 3 4 5 6 
#
# 1 0.013939 0.000146 -0.006178 0.000000 0.000000 0.000000
# 2 0.000146 0.008721 -0.001339 0.000000 0.000000 0.000000
# 3 -0.006178 -0.001339 0.011690 0.000000 0.000000 0.000000
# 4 0.000000 0.000000 0.000000 0.051525 0.000000 0.000000
# 5 0.000000 0.000000 0.000000 0.000000 0.035131 0.000000
# 6 0.000000 0.000000 0.000000 0.000000 0.000000 0.040325
#
#
# Mechanical properties :
#
#
# Convention : Reuss Voigt Hill
#
# Bulk Modulus (GPa) = 50.99653 52.40269 51.69961
# Shear Modulus (GPa) = 27.38104 31.33359 29.35731
#
# Velocity S-wave (km/s) = 3.55026 3.79787 3.67615
# Velocity P-wave (km/s) = 6.34674 6.58440 6.46666
#
# Compressibility (1/GPa) = 0.01960918
#
# Stress axis : x y z
#
# Youngs Moduli (GPa) = 71.74039 114.66882 85.54081
#
# Poissons Ratio (x) = -0.01670 0.52844
# Poissons Ratio (y) = -0.01045 0.11450
# Poissons Ratio (z) = 0.44318 0.15349
#
# Static dielectric constant tensor:
#      x y z
#    x 1.794150 0.000000 0.000000 
#    y 0.000000 2.080570 0.000000 
#    z 0.000000 0.000000 1.708160 
# 
# From -- ./inp_files/18632.got.cif
#   From: 2010.05.17/outbox.cif.g08.bks.cpg/sg70_10_cif.got.tgz:18632.got - 2010.06.03 15:57:51.
