data_PCOD9516966
_publ_section_title
;
Structure prediction by ZEFSAII (Michael W. Deem and Ramdas Pophale) SiO2 
 PCOD9516966
Probable space group: F D D D
;
_chemical_formula_sum "Si O2"
_cell_formula_units_Z 144
_cell_length_a 21.712418
_cell_length_b 10.277290
_cell_length_c 28.060297
_cell_angle_alpha 90.000000
_cell_angle_beta 90.000000
_cell_angle_gamma 90.000000
_cell_volume 6261.509822
_symmetry_space_group_name_H-M "F D D D"
_symmetry_group_IT_number 70
_space_group.IT_coordinate_system_code '2'
_symmetry_cell_setting 'orthorhombic'
loop_
_space_group_symop_operation_xyz
x,y,z
1/4-x,1/4-y,z
x,1/4-y,1/4-z
1/4-x,y,1/4-z
-x,-y,-z
3/4+x,3/4+y,-z
-x,3/4+y,3/4+z
3/4+x,-y,3/4+z
x,1/2+y,1/2+z
1/4-x,3/4-y,1/2+z
x,3/4-y,3/4-z
1/4-x,1/2+y,3/4-z
-x,1/2-y,1/2-z
3/4+x,1/4+y,1/2-z
-x,1/4+y,1/4+z
3/4+x,1/2-y,1/4+z
1/2+x,y,1/2+z
3/4-x,1/4-y,1/2+z
1/2+x,1/4-y,3/4-z
3/4-x,y,3/4-z
1/2-x,-y,1/2-z
1/4+x,3/4+y,1/2-z
1/2-x,3/4+y,1/4+z
1/4+x,-y,1/4+z
1/2+x,1/2+y,z
3/4-x,3/4-y,z
1/2+x,3/4-y,1/4-z
3/4-x,1/2+y,1/4-z
1/2-x,1/2-y,-z
1/4+x,1/4+y,-z
1/2-x,1/4+y,3/4+z
1/4+x,1/2-y,3/4+z
loop_
_atom_site_type_symbol
_atom_site_label
_atom_site_fract_x
_atom_site_fract_y
_atom_site_fract_z
Si Si1 0.541550 0.375000 0.375000
Si Si2 0.120056 0.773394 0.290548
Si Si3 0.837788 0.577432 0.448297
Si Si4 0.031828 0.860033 0.102849
Si Si5 0.500563 0.338890 0.797384
O O1 0.583968 0.459118 0.410139
O O2 0.500697 0.276207 0.406976
O O3 0.125000 0.625000 0.275082
O O4 0.087235 0.859470 0.249940
O O5 0.189350 0.823940 0.295360
O O6 0.906147 0.604445 0.426668
O O7 0.796334 0.646941 0.408639
O O8 0.809681 0.431449 0.449667
O O9 0.992569 0.987276 0.090674
O O10 0.500000 0.250000 0.750000
#
# Coordination Sequence:
#
# PCOD9516966 Si02
#       5
#    16  32  32  32  32
#     4  12  30  49  76 114 155 214 254 338 406 474
#     4  12  30  48  75 112 160 202 266 331 407 475
#     4  11  26  47  78 113 151 205 262 325 393 465
#     4  11  26  47  78 112 154 200 271 319 391 474
#     4  12  25  47  78 112 151 206 260 329 391 478
#
# _framework density 22.997648000000002
#
# number of rings (size 3 to 8) (size 9 to 14) (size 15 to 20)
#    0.000    0.444    2.222    4.000    9.333    6.222 
#    0.000    0.000    0.000    0.000    0.000    0.000 
#    0.000    0.000    0.000    0.000    0.000    0.000 
#
# Total GULP energy -201378.707306 kJ/mol
# GULP energy per Si atom -5593.852981 kJ/mol
# Density = 2.294530 g / cm^3
# Si number density = 22.997648 Si / 1000 Ang^3
#
#
#
# Elastic Constant Matrix: (Units=GPa)
#
#
# Indices 1 2 3 4 5 6 
#
# 1 113.7017 68.7563 24.0876 0.0000 0.0000 0.0000
# 2 68.7563 149.6166 5.6563 0.0000 0.0000 0.0000
# 3 24.0876 5.6563 77.8016 0.0000 0.0000 0.0000
# 4 0.0000 0.0000 0.0000 42.2850 0.0000 0.0000
# 5 0.0000 0.0000 0.0000 0.0000 39.2595 0.0000
# 6 0.0000 0.0000 0.0000 0.0000 0.0000 45.7184
#
#
#
# Elastic Compliance Matrix: (Units=1/GPa)
#
#
# Indices 1 2 3 4 5 6 
#
# 1 0.013131 -0.005897 -0.003637 0.000000 0.000000 0.000000
# 2 -0.005897 0.009350 0.001146 0.000000 0.000000 0.000000
# 3 -0.003637 0.001146 0.013896 0.000000 0.000000 0.000000
# 4 0.000000 0.000000 0.000000 0.023649 0.000000 0.000000
# 5 0.000000 0.000000 0.000000 0.000000 0.025472 0.000000
# 6 0.000000 0.000000 0.000000 0.000000 0.000000 0.021873
#
#
# Mechanical properties :
#
#
# Convention : Reuss Voigt Hill
#
# Bulk Modulus (GPa) = 51.01547 59.79114 55.40330
# Shear Modulus (GPa) = 38.26111 41.62723 39.94417
#
# Velocity S-wave (km/s) = 4.08327 4.25910 4.17211
# Velocity P-wave (km/s) = 6.66797 7.08815 6.88127
#
# Compressibility (1/GPa) = 0.01960190
#
# Stress axis : x y z
#
# Youngs Moduli (GPa) = 76.15341 106.94710 71.96390
#
# Poissons Ratio (x) = 0.63067 0.26172
# Poissons Ratio (y) = 0.44908 -0.08247
# Poissons Ratio (z) = 0.27695 -0.12256
#
# Static dielectric constant tensor:
#      x y z
#    x 1.911210 0.000000 0.000000 
#    y 0.000000 1.852600 0.000000 
#    z 0.000000 0.000000 1.878780 
# 
# From -- ./inp_files/60997.got.cif
#   From: 2010.05.17/outbox.cif.g08.bks.cpg/sg70_31_cif.got.tgz:60997.got - 2010.06.03 15:57:51.
