data_PCOD9516037
_publ_section_title
;
Structure prediction by ZEFSAII (Michael W. Deem and Ramdas Pophale) SiO2 
 PCOD9516037
Probable space group: F D D D
;
_chemical_formula_sum "Si O2"
_cell_formula_units_Z 208
_cell_length_a 19.120201
_cell_length_b 17.987739
_cell_length_c 29.069499
_cell_angle_alpha 90.000000
_cell_angle_beta 90.000000
_cell_angle_gamma 90.000000
_cell_volume 9997.849106
_symmetry_space_group_name_H-M "F D D D"
_symmetry_group_IT_number 70
_space_group.IT_coordinate_system_code '2'
_symmetry_cell_setting 'orthorhombic'
loop_
_space_group_symop_operation_xyz
x,y,z
1/4-x,1/4-y,z
x,1/4-y,1/4-z
1/4-x,y,1/4-z
-x,-y,-z
3/4+x,3/4+y,-z
-x,3/4+y,3/4+z
3/4+x,-y,3/4+z
x,1/2+y,1/2+z
1/4-x,3/4-y,1/2+z
x,3/4-y,3/4-z
1/4-x,1/2+y,3/4-z
-x,1/2-y,1/2-z
3/4+x,1/4+y,1/2-z
-x,1/4+y,1/4+z
3/4+x,1/2-y,1/4+z
1/2+x,y,1/2+z
3/4-x,1/4-y,1/2+z
1/2+x,1/4-y,3/4-z
3/4-x,y,3/4-z
1/2-x,-y,1/2-z
1/4+x,3/4+y,1/2-z
1/2-x,3/4+y,1/4+z
1/4+x,-y,1/4+z
1/2+x,1/2+y,z
3/4-x,3/4-y,z
1/2+x,3/4-y,1/4-z
3/4-x,1/2+y,1/4-z
1/2-x,1/2-y,-z
1/4+x,1/4+y,-z
1/2-x,1/4+y,3/4+z
1/4+x,1/2-y,3/4+z
loop_
_atom_site_type_symbol
_atom_site_label
_atom_site_fract_x
_atom_site_fract_y
_atom_site_fract_z
Si Si1 0.640135 0.212611 0.376921
Si Si2 0.801982 0.043757 0.284792
Si Si3 0.010031 0.213050 0.625429
Si Si4 0.375000 0.012369 0.375000
Si Si5 0.961561 0.708354 0.468938
Si Si6 0.497704 0.707012 0.298906
Si Si7 0.261773 0.214594 0.806278
O O1 0.625000 0.125000 0.381254
O O2 0.569947 0.258902 0.371783
O O3 0.686176 0.233734 0.421280
O O4 0.688628 0.221166 0.332452
O O5 0.880751 0.050091 0.265919
O O6 0.780340 0.127102 0.301008
O O7 0.750000 0.000000 0.250000
O O8 0.800146 0.995393 0.330950
O O9 0.014098 0.125000 0.625000
O O10 0.038728 0.248987 0.579073
O O11 0.431624 0.041054 0.414561
O O12 0.316758 0.988859 0.412594
O O13 0.998907 0.629707 0.462956
O O14 0.004758 0.754157 0.505805
O O15 0.500000 0.750000 0.250000
#
# Coordination Sequence:
#
# PCOD9516037 Si02
#       7
#    32  32  32  16  32  32  32
#     4  11  22  43  69  95 137 187 235 282 354 426
#     4  12  25  42  68  99 144 189 234 292 356 436
#     4  12  26  43  70 105 144 186 237 298 357 435
#     4  10  22  48  69  94 137 188 234 296 362 426
#     4  12  26  43  70 104 143 188 243 298 364 434
#     4  11  25  43  74 102 140 190 246 301 366 433
#     4  11  24  42  70  97 135 190 236 288 361 429
#
# _framework density 20.804476000000001
#
# number of rings (size 3 to 8) (size 9 to 14) (size 15 to 20)
#    0.000    0.615    4.615    3.231    2.154    4.923 
#    0.000    3.077    0.000    0.000    0.000    0.000 
#    0.000    0.000    0.000    0.000    0.000    0.000 
#
# Total GULP energy -289965.700086 kJ/mol
# GULP energy per Si atom -5576.263463 kJ/mol
# Density = 2.075712 g / cm^3
# Si number density = 20.804476 Si / 1000 Ang^3
#
#
#
# Elastic Constant Matrix: (Units=GPa)
#
#
# Indices 1 2 3 4 5 6 
#
# 1 74.1237 8.4538 -2.4764 0.0000 0.0000 0.0000
# 2 8.4538 96.6126 36.0008 0.0000 0.0000 0.0000
# 3 -2.4764 36.0008 124.9279 0.0000 0.0000 0.0000
# 4 0.0000 0.0000 0.0000 27.6249 0.0000 0.0000
# 5 0.0000 0.0000 0.0000 0.0000 25.1478 0.0000
# 6 0.0000 0.0000 0.0000 0.0000 0.0000 13.0658
#
#
#
# Elastic Compliance Matrix: (Units=1/GPa)
#
#
# Indices 1 2 3 4 5 6 
#
# 1 0.013680 -0.001454 0.000690 0.000000 0.000000 0.000000
# 2 -0.001454 0.011750 -0.003415 0.000000 0.000000 0.000000
# 3 0.000690 -0.003415 0.009002 0.000000 0.000000 0.000000
# 4 0.000000 0.000000 0.000000 0.036199 0.000000 0.000000
# 5 0.000000 0.000000 0.000000 0.000000 0.039765 0.000000
# 6 0.000000 0.000000 0.000000 0.000000 0.000000 0.076535
#
#
# Mechanical properties :
#
#
# Convention : Reuss Voigt Hill
#
# Bulk Modulus (GPa) = 38.35126 42.18006 40.26566
# Shear Modulus (GPa) = 24.51199 30.08010 27.29604
#
# Velocity S-wave (km/s) = 3.43623 3.80656 3.62612
# Velocity P-wave (km/s) = 5.84959 6.29590 6.07684
#
# Compressibility (1/GPa) = 0.02607476
#
# Stress axis : x y z
#
# Youngs Moduli (GPa) = 73.10008 85.10361 111.08152
#
# Poissons Ratio (x) = 0.12376 -0.07667
# Poissons Ratio (y) = 0.10630 0.37934
# Poissons Ratio (z) = -0.05046 0.29063
#
# Static dielectric constant tensor:
#      x y z
#    x 1.760030 0.000000 0.000000 
#    y 0.000000 1.710340 0.000000 
#    z 0.000000 0.000000 1.725280 
# 
# From -- ./inp_files/60420.got.cif
#   From: 2010.05.17/outbox.cif.g08.bks.cpg/sg70_31_cif.got.tgz:60420.got - 2010.06.03 15:57:51.
