data_PCOD9516487
_publ_section_title
;
Structure prediction by ZEFSAII (Michael W. Deem and Ramdas Pophale) SiO2 
 PCOD9516487
Probable space group: F D D D
;
_chemical_formula_sum "Si O2"
_cell_formula_units_Z 128
_cell_length_a 22.451873
_cell_length_b 21.664800
_cell_length_c 13.517812
_cell_angle_alpha 90.000000
_cell_angle_beta 90.000000
_cell_angle_gamma 90.000000
_cell_volume 6575.271095
_symmetry_space_group_name_H-M "F D D D"
_symmetry_group_IT_number 70
_space_group.IT_coordinate_system_code '2'
_symmetry_cell_setting 'orthorhombic'
loop_
_space_group_symop_operation_xyz
x,y,z
1/4-x,1/4-y,z
x,1/4-y,1/4-z
1/4-x,y,1/4-z
-x,-y,-z
3/4+x,3/4+y,-z
-x,3/4+y,3/4+z
3/4+x,-y,3/4+z
x,1/2+y,1/2+z
1/4-x,3/4-y,1/2+z
x,3/4-y,3/4-z
1/4-x,1/2+y,3/4-z
-x,1/2-y,1/2-z
3/4+x,1/4+y,1/2-z
-x,1/4+y,1/4+z
3/4+x,1/2-y,1/4+z
1/2+x,y,1/2+z
3/4-x,1/4-y,1/2+z
1/2+x,1/4-y,3/4-z
3/4-x,y,3/4-z
1/2-x,-y,1/2-z
1/4+x,3/4+y,1/2-z
1/2-x,3/4+y,1/4+z
1/4+x,-y,1/4+z
1/2+x,1/2+y,z
3/4-x,3/4-y,z
1/2+x,3/4-y,1/4-z
3/4-x,1/2+y,1/4-z
1/2-x,1/2-y,-z
1/4+x,1/4+y,-z
1/2-x,1/4+y,3/4+z
1/4+x,1/2-y,3/4+z
loop_
_atom_site_type_symbol
_atom_site_label
_atom_site_fract_x
_atom_site_fract_y
_atom_site_fract_z
Si Si1 0.984585 0.320920 0.985483
Si Si2 0.623182 0.340396 0.508183
Si Si3 0.303103 0.951568 0.763831
Si Si4 0.912783 0.027257 0.177486
O O1 0.972761 0.259066 0.046642
O O2 0.054449 0.334747 0.972656
O O3 0.950273 0.309758 0.881797
O O4 0.959200 0.384161 0.031565
O O5 0.625000 0.329669 0.625000
O O6 0.657415 0.292623 0.437990
O O7 0.650158 0.408072 0.483749
O O8 0.250000 0.000000 0.750000
O O9 0.360977 0.981842 0.716767
#
# Coordination Sequence:
#
# PCOD9516487 Si02
#       4
#    32  32  32  32
#     4  11  22  35  62  89 119 158 194 255 307 359
#     4  11  23  39  59  85 121 161 204 247 293 365
#     4  11  18  36  60  90 122 146 197 257 314 353
#     4  11  22  38  60  90 117 159 203 249 313 360
#
# _framework density 19.466878000000001
#
# number of rings (size 3 to 8) (size 9 to 14) (size 15 to 20)
#    0.000    1.000    5.000    4.500    0.000    3.000 
#    0.000    0.000    0.000    3.000    0.000    0.000 
#    0.000    0.000    0.000    0.000    0.000    0.000 
#
# Total GULP energy -178572.373433 kJ/mol
# GULP energy per Si atom -5580.386670 kJ/mol
# Density = 1.942257 g / cm^3
# Si number density = 19.466878 Si / 1000 Ang^3
#
#
#
# Elastic Constant Matrix: (Units=GPa)
#
#
# Indices 1 2 3 4 5 6 
#
# 1 34.7966 31.7850 -2.3354 0.0000 0.0000 0.0000
# 2 31.7850 131.5723 42.0811 0.0000 0.0000 0.0000
# 3 -2.3354 42.0811 120.7801 0.0000 0.0000 0.0000
# 4 0.0000 0.0000 0.0000 33.2054 0.0000 0.0000
# 5 0.0000 0.0000 0.0000 0.0000 12.3042 0.0000
# 6 0.0000 0.0000 0.0000 0.0000 0.0000 36.6916
#
#
#
# Elastic Compliance Matrix: (Units=1/GPa)
#
#
# Indices 1 2 3 4 5 6 
#
# 1 0.038968 -0.010866 0.004539 0.000000 0.000000 0.000000
# 2 -0.010866 0.011583 -0.004246 0.000000 0.000000 0.000000
# 3 0.004539 -0.004246 0.009847 0.000000 0.000000 0.000000
# 4 0.000000 0.000000 0.000000 0.030116 0.000000 0.000000
# 5 0.000000 0.000000 0.000000 0.000000 0.081273 0.000000
# 6 0.000000 0.000000 0.000000 0.000000 0.000000 0.027254
#
#
# Mechanical properties :
#
#
# Convention : Reuss Voigt Hill
#
# Bulk Modulus (GPa) = 25.47533 47.80116 36.63824
# Shear Modulus (GPa) = 21.43438 30.81481 26.12460
#
# Velocity S-wave (km/s) = 3.32184 3.98293 3.66731
# Velocity P-wave (km/s) = 5.27520 6.76462 6.06580
#
# Compressibility (1/GPa) = 0.03925366
#
# Stress axis : x y z
#
# Youngs Moduli (GPa) = 25.66176 86.33136 101.55808
#
# Poissons Ratio (x) = 0.93805 -0.46100
# Poissons Ratio (y) = 0.27883 0.43120
# Poissons Ratio (z) = -0.11649 0.36655
#
# Static dielectric constant tensor:
#      x y z
#    x 1.739770 0.000000 0.000000 
#    y 0.000000 1.705410 0.000000 
#    z 0.000000 0.000000 1.344630 
# 
# From -- ./inp_files/20556.got.cif
#   From: 2010.05.17/outbox.cif.g08.bks.cpg/sg70_11_cif.got.tgz:20556.got - 2010.06.03 15:57:51.
