data_PCOD9516410
_publ_section_title
;
Structure prediction by ZEFSAII (Michael W. Deem and Ramdas Pophale) SiO2 
 PCOD9516410
Probable space group: F D D D
;
_chemical_formula_sum "Si O2"
_cell_formula_units_Z 208
_cell_length_a 17.237218
_cell_length_b 18.578821
_cell_length_c 29.827821
_cell_angle_alpha 90.000000
_cell_angle_beta 90.000000
_cell_angle_gamma 90.000000
_cell_volume 9552.275792
_symmetry_space_group_name_H-M "F D D D"
_symmetry_group_IT_number 70
_space_group.IT_coordinate_system_code '2'
_symmetry_cell_setting 'orthorhombic'
loop_
_space_group_symop_operation_xyz
x,y,z
1/4-x,1/4-y,z
x,1/4-y,1/4-z
1/4-x,y,1/4-z
-x,-y,-z
3/4+x,3/4+y,-z
-x,3/4+y,3/4+z
3/4+x,-y,3/4+z
x,1/2+y,1/2+z
1/4-x,3/4-y,1/2+z
x,3/4-y,3/4-z
1/4-x,1/2+y,3/4-z
-x,1/2-y,1/2-z
3/4+x,1/4+y,1/2-z
-x,1/4+y,1/4+z
3/4+x,1/2-y,1/4+z
1/2+x,y,1/2+z
3/4-x,1/4-y,1/2+z
1/2+x,1/4-y,3/4-z
3/4-x,y,3/4-z
1/2-x,-y,1/2-z
1/4+x,3/4+y,1/2-z
1/2-x,3/4+y,1/4+z
1/4+x,-y,1/4+z
1/2+x,1/2+y,z
3/4-x,3/4-y,z
1/2+x,3/4-y,1/4-z
3/4-x,1/2+y,1/4-z
1/2-x,1/2-y,-z
1/4+x,1/4+y,-z
1/2-x,1/4+y,3/4+z
1/4+x,1/2-y,3/4+z
loop_
_atom_site_type_symbol
_atom_site_label
_atom_site_fract_x
_atom_site_fract_y
_atom_site_fract_z
Si Si1 0.917984 0.298356 0.012096
Si Si2 0.375000 0.875000 0.518533
Si Si3 0.844990 0.676173 0.665782
Si Si4 0.570621 0.515387 0.664710
Si Si5 0.588991 0.203914 0.891820
Si Si6 0.473557 0.146052 0.831359
Si Si7 0.353016 0.037568 0.486750
O O1 0.875000 0.375000 0.010064
O O2 0.896939 0.260521 0.965430
O O3 0.011299 0.304213 0.016694
O O4 0.896757 0.261667 0.059463
O O5 0.452494 0.886687 0.548179
O O6 0.386828 0.799154 0.492248
O O7 0.869980 0.625000 0.625000
O O8 0.751956 0.680532 0.668740
O O9 0.868498 0.753271 0.646629
O O10 0.877804 0.673851 0.716067
O O11 0.625000 0.540673 0.625000
O O12 0.546733 0.434073 0.652858
O O13 0.625000 0.125000 0.894817
O O14 0.501892 0.193172 0.873706
O O15 0.404739 0.182015 0.803280
#
# Coordination Sequence:
#
# PCOD9516410 Si02
#       7
#    32  16  32  32  32  32  32
#     4  10  25  44  65  96 139 174 223 292 345 400
#     4  12  20  46  68  99 140 176 227 290 344 418
#     4  11  24  40  62  97 133 177 225 281 345 408
#     4  11  25  42  67  95 132 181 228 282 340 420
#     4  11  21  44  67  90 136 181 220 280 348 406
#     4  12  22  43  72  99 131 182 238 275 349 421
#     4  11  25  41  71 101 132 183 234 285 344 423
#
# _framework density 21.774915
#
# number of rings (size 3 to 8) (size 9 to 14) (size 15 to 20)
#    0.000    0.923    6.923    0.462    8.615    0.000 
#    0.000    1.538    0.000    0.923    0.000    0.000 
#    0.000    0.000    0.000    0.000    0.000    0.000 
#
# Total GULP energy -290158.291066 kJ/mol
# GULP energy per Si atom -5579.967136 kJ/mol
# Density = 2.172535 g / cm^3
# Si number density = 21.774915 Si / 1000 Ang^3
#
#
#
# Elastic Constant Matrix: (Units=GPa)
#
#
# Indices 1 2 3 4 5 6 
#
# 1 80.1446 14.4839 21.0989 0.0000 0.0000 0.0000
# 2 14.4839 58.9469 -10.4122 0.0000 0.0000 0.0000
# 3 21.0989 -10.4122 111.4679 0.0000 0.0000 0.0000
# 4 0.0000 0.0000 0.0000 -23.9391 0.0000 0.0000
# 5 0.0000 0.0000 0.0000 0.0000 4.7529 0.0000
# 6 0.0000 0.0000 0.0000 0.0000 0.0000 23.6987
#
#
#
# Elastic Compliance Matrix: (Units=1/GPa)
#
#
# Indices 1 2 3 4 5 6 
#
# 1 0.013990 -0.003971 -0.003019 0.000000 0.000000 0.000000
# 2 -0.003971 0.018376 0.002468 0.000000 0.000000 0.000000
# 3 -0.003019 0.002468 0.009773 0.000000 0.000000 0.000000
# 4 0.000000 0.000000 0.000000 -0.041773 0.000000 0.000000
# 5 0.000000 0.000000 0.000000 0.000000 0.210399 0.000000
# 6 0.000000 0.000000 0.000000 0.000000 0.000000 0.042196
#
#
# Mechanical properties :
#
#
# Convention : Reuss Voigt Hill
#
# Bulk Modulus (GPa) = 30.21521 33.43340 31.82431
# Shear Modulus (GPa) = 18.31256 15.92839 17.12048
#
# Velocity S-wave (km/s) = 2.90313 2.70756 2.80705
# Velocity P-wave (km/s) = 5.01437 5.01617 5.01527
#
# Compressibility (1/GPa) = 0.03309591
#
# Stress axis : x y z
#
# Youngs Moduli (GPa) = 71.48059 54.41869 102.32093
#
# Poissons Ratio (x) = 0.21608 0.30890
# Poissons Ratio (y) = 0.28383 -0.25254
# Poissons Ratio (z) = 0.21580 -0.13431
#
# Static dielectric constant tensor:
#      x y z
#    x 1.849560 0.000000 0.000000 
#    y 0.000000 1.803160 0.000000 
#    z 0.000000 0.000000 1.842000 
# 
# From -- ./inp_files/66798.got.cif
#   From: 2010.05.17/outbox.cif.g08.bks.cpg/sg70_34_cif.got.tgz:66798.got - 2010.06.03 15:57:51.
