data_PCOD9516719
_publ_section_title
;
Structure prediction by ZEFSAII (Michael W. Deem and Ramdas Pophale) SiO2 
 PCOD9516719
Probable space group: F D D D
;
_chemical_formula_sum "Si O2"
_cell_formula_units_Z 160
_cell_length_a 17.668179
_cell_length_b 20.310987
_cell_length_c 20.907048
_cell_angle_alpha 90.000000
_cell_angle_beta 90.000000
_cell_angle_gamma 90.000000
_cell_volume 7502.664651
_symmetry_space_group_name_H-M "F D D D"
_symmetry_group_IT_number 70
_space_group.IT_coordinate_system_code '2'
_symmetry_cell_setting 'orthorhombic'
loop_
_space_group_symop_operation_xyz
x,y,z
1/4-x,1/4-y,z
x,1/4-y,1/4-z
1/4-x,y,1/4-z
-x,-y,-z
3/4+x,3/4+y,-z
-x,3/4+y,3/4+z
3/4+x,-y,3/4+z
x,1/2+y,1/2+z
1/4-x,3/4-y,1/2+z
x,3/4-y,3/4-z
1/4-x,1/2+y,3/4-z
-x,1/2-y,1/2-z
3/4+x,1/4+y,1/2-z
-x,1/4+y,1/4+z
3/4+x,1/2-y,1/4+z
1/2+x,y,1/2+z
3/4-x,1/4-y,1/2+z
1/2+x,1/4-y,3/4-z
3/4-x,y,3/4-z
1/2-x,-y,1/2-z
1/4+x,3/4+y,1/2-z
1/2-x,3/4+y,1/4+z
1/4+x,-y,1/4+z
1/2+x,1/2+y,z
3/4-x,3/4-y,z
1/2+x,3/4-y,1/4-z
3/4-x,1/2+y,1/4-z
1/2-x,1/2-y,-z
1/4+x,1/4+y,-z
1/2-x,1/4+y,3/4+z
1/4+x,1/2-y,3/4+z
loop_
_atom_site_type_symbol
_atom_site_label
_atom_site_fract_x
_atom_site_fract_y
_atom_site_fract_z
Si Si1 0.583910 0.777217 0.471999
Si Si2 0.811810 0.165808 0.929480
Si Si3 0.233496 0.375000 0.875000
Si Si4 0.625000 0.528998 0.125000
Si Si5 0.930859 0.716491 0.001817
Si Si6 0.848434 0.803884 0.635663
O O1 0.649522 0.780715 0.524324
O O2 0.567763 0.844963 0.432201
O O3 0.506159 0.760349 0.506002
O O4 0.599718 0.718253 0.423224
O O5 0.875000 0.149248 0.875000
O O6 0.735597 0.186890 0.893502
O O7 0.798540 0.107090 0.980912
O O8 0.296259 0.431971 0.862845
O O9 0.614420 0.489864 0.189884
O O10 0.891309 0.742391 0.065843
O O11 0.875000 0.875000 0.662538
#
# Coordination Sequence:
#
# PCOD9516719 Si02
#       6
#    32  32  16  16  32  32
#     4  11  23  43  64  94 134 179 224 274 326 395
#     4  12  24  45  69  97 136 179 222 279 333 396
#     4   9  20  38  62  94 131 172 214 260 343 390
#     4   9  20  36  62 100 144 166 203 274 328 425
#     4  11  23  40  66 101 134 171 221 268 341 399
#     4  12  26  44  69  98 133 181 226 278 331 397
#
# _framework density 21.325755999999998
#
# number of rings (size 3 to 8) (size 9 to 14) (size 15 to 20)
#    0.000    1.000    5.000    1.800    5.600    0.000 
#    0.000    4.000    0.000    0.600    0.000    0.000 
#    0.000    0.000    0.000    0.000    0.000    0.000 
#
# Total GULP energy -222857.352314 kJ/mol
# GULP energy per Si atom -5571.433808 kJ/mol
# Density = 2.127722 g / cm^3
# Si number density = 21.325756 Si / 1000 Ang^3
#
#
#
# Elastic Constant Matrix: (Units=GPa)
#
#
# Indices 1 2 3 4 5 6 
#
# 1 60.5666 -18.7679 10.1922 0.0000 0.0000 0.0000
# 2 -18.7679 41.6684 11.5624 0.0000 0.0000 0.0000
# 3 10.1922 11.5624 61.1895 0.0000 0.0000 0.0000
# 4 0.0000 0.0000 0.0000 21.0233 0.0000 0.0000
# 5 0.0000 0.0000 0.0000 0.0000 29.7651 0.0000
# 6 0.0000 0.0000 0.0000 0.0000 0.0000 -10.6297
#
#
#
# Elastic Compliance Matrix: (Units=1/GPa)
#
#
# Indices 1 2 3 4 5 6 
#
# 1 0.020823 0.010914 -0.005531 0.000000 0.000000 0.000000
# 2 0.010914 0.031047 -0.007685 0.000000 0.000000 0.000000
# 3 -0.005531 -0.007685 0.018716 0.000000 0.000000 0.000000
# 4 0.000000 0.000000 0.000000 0.047566 0.000000 0.000000
# 5 0.000000 0.000000 0.000000 0.000000 0.033596 0.000000
# 6 0.000000 0.000000 0.000000 0.000000 0.000000 -0.094076
#
#
# Mechanical properties :
#
#
# Convention : Reuss Voigt Hill
#
# Bulk Modulus (GPa) = 15.15534 18.82197 16.98865
# Shear Modulus (GPa) = 59.33261 18.72759 39.03010
#
# Velocity S-wave (km/s) = 5.28038 2.96660 4.28271
# Velocity P-wave (km/s) = 6.65572 4.53645 5.69553
#
# Compressibility (1/GPa) = 0.06598336
#
# Stress axis : x y z
#
# Youngs Moduli (GPa) = 48.02304 32.20918 53.43024
#
# Poissons Ratio (x) = -0.35152 0.29551
# Poissons Ratio (y) = -0.52411 0.41059
# Poissons Ratio (z) = 0.26560 0.24751
#
# Static dielectric constant tensor:
#      x y z
#    x 1.755700 0.000000 0.000000 
#    y 0.000000 1.822650 0.000000 
#    z 0.000000 0.000000 1.750140 
# 
# From -- ./inp_files/36339.got.cif
#   From: 2010.05.17/outbox.cif.g08.bks.cpg/sg70_19_cif.got.tgz:36339.got - 2010.06.03 15:57:51.
