data_PCOD9516957
_publ_section_title
;
Structure prediction by ZEFSAII (Michael W. Deem and Ramdas Pophale) SiO2 
 PCOD9516957
Probable space group: F D D D
;
_chemical_formula_sum "Si O2"
_cell_formula_units_Z 88
_cell_length_a 5.213088
_cell_length_b 27.033387
_cell_length_c 26.592228
_cell_angle_alpha 90.000000
_cell_angle_beta 90.000000
_cell_angle_gamma 90.000000
_cell_volume 3747.574227
_symmetry_space_group_name_H-M "F D D D"
_symmetry_group_IT_number 70
_space_group.IT_coordinate_system_code '2'
_symmetry_cell_setting 'orthorhombic'
loop_
_space_group_symop_operation_xyz
x,y,z
1/4-x,1/4-y,z
x,1/4-y,1/4-z
1/4-x,y,1/4-z
-x,-y,-z
3/4+x,3/4+y,-z
-x,3/4+y,3/4+z
3/4+x,-y,3/4+z
x,1/2+y,1/2+z
1/4-x,3/4-y,1/2+z
x,3/4-y,3/4-z
1/4-x,1/2+y,3/4-z
-x,1/2-y,1/2-z
3/4+x,1/4+y,1/2-z
-x,1/4+y,1/4+z
3/4+x,1/2-y,1/4+z
1/2+x,y,1/2+z
3/4-x,1/4-y,1/2+z
1/2+x,1/4-y,3/4-z
3/4-x,y,3/4-z
1/2-x,-y,1/2-z
1/4+x,3/4+y,1/2-z
1/2-x,3/4+y,1/4+z
1/4+x,-y,1/4+z
1/2+x,1/2+y,z
3/4-x,3/4-y,z
1/2+x,3/4-y,1/4-z
3/4-x,1/2+y,1/4-z
1/2-x,1/2-y,-z
1/4+x,1/4+y,-z
1/2-x,1/4+y,3/4+z
1/4+x,1/2-y,3/4+z
loop_
_atom_site_type_symbol
_atom_site_label
_atom_site_fract_x
_atom_site_fract_y
_atom_site_fract_z
Si Si1 0.875000 0.875000 0.875000
Si Si2 0.125000 0.844020 0.125000
Si Si3 0.037320 0.730724 0.459683
Si Si4 0.999159 0.573562 0.048279
O O1 0.705566 0.910088 0.910437
O O2 0.375000 0.875000 0.103595
O O3 0.282731 0.809252 0.164614
O O4 0.250000 0.750000 0.500000
O O5 0.943448 0.781430 0.433958
O O6 0.857482 0.701678 0.498635
O O7 0.125000 0.625000 0.033873
#
# Coordination Sequence:
#
# PCOD9516957 Si02
#       4
#     8  16  32  32
#     4  12  26  42  80 110 160 200 264 336 418 486
#     4  12  32  53  83 118 169 224 285 350 432 512
#     4  11  28  48  80 112 161 214 277 340 426 497
#     4  11  26  46  73 114 155 204 266 342 410 493
#
# _framework density 23.481854999999999
#
# number of rings (size 3 to 8) (size 9 to 14) (size 15 to 20)
#    0.000    0.727    0.000    3.818   28.000    0.000 
#    0.000    0.000    0.000    0.000    0.000    0.000 
#    0.000    0.000    0.000    0.000    0.000    0.000 
#
# Total GULP energy -122469.701860 kJ/mol
# GULP energy per Si atom -5566.804630 kJ/mol
# Density = 2.342841 g / cm^3
# Si number density = 23.481855 Si / 1000 Ang^3
#
#
#
# Elastic Constant Matrix: (Units=GPa)
#
#
# Indices 1 2 3 4 5 6 
#
# 1 101.9200 75.3935 38.7662 0.0000 0.0000 0.0000
# 2 75.3935 196.3908 64.1834 0.0000 0.0000 0.0000
# 3 38.7662 64.1834 117.2775 0.0000 0.0000 0.0000
# 4 0.0000 0.0000 0.0000 26.1580 0.0000 0.0000
# 5 0.0000 0.0000 0.0000 0.0000 144.0621 0.0000
# 6 0.0000 0.0000 0.0000 0.0000 0.0000 -22.2140
#
#
#
# Elastic Compliance Matrix: (Units=1/GPa)
#
#
# Indices 1 2 3 4 5 6 
#
# 1 0.014103 -0.004738 -0.002069 0.000000 0.000000 0.000000
# 2 -0.004738 0.007793 -0.002699 0.000000 0.000000 0.000000
# 3 -0.002069 -0.002699 0.010688 0.000000 0.000000 0.000000
# 4 0.000000 0.000000 0.000000 0.038229 0.000000 0.000000
# 5 0.000000 0.000000 0.000000 0.000000 0.006941 0.000000
# 6 0.000000 0.000000 0.000000 0.000000 0.000000 -0.045017
#
#
# Mechanical properties :
#
#
# Convention : Reuss Voigt Hill
#
# Bulk Modulus (GPa) = 73.67783 85.80826 79.74305
# Shear Modulus (GPa) = 88.85235 45.41757 67.13496
#
# Velocity S-wave (km/s) = 6.15799 4.40268 5.35278
# Velocity P-wave (km/s) = 9.05570 7.90357 8.49918
#
# Compressibility (1/GPa) = 0.01357260
#
# Stress axis : x y z
#
# Youngs Moduli (GPa) = 70.90455 128.32395 93.56695
#
# Poissons Ratio (x) = 0.60801 0.19358
# Poissons Ratio (y) = 0.33595 0.25250
# Poissons Ratio (z) = 0.14669 0.34630
#
# Static dielectric constant tensor:
#      x y z
#    x 2.066060 0.000000 0.000000 
#    y 0.000000 1.906460 0.000000 
#    z 0.000000 0.000000 1.913920 
# 
# From -- ./inp_files/2565.got.cif
#   From: 2010.05.17/outbox.cif.g08.bks.cpg/sg70_2_cif.got.tgz:2565.got - 2010.06.03 15:57:51.
