data_PCOD9516529
_publ_section_title
;
Structure prediction by ZEFSAII (Michael W. Deem and Ramdas Pophale) SiO2 
 PCOD9516529
Probable space group: F D D D
;
_chemical_formula_sum "Si O2"
_cell_formula_units_Z 104
_cell_length_a 11.096416
_cell_length_b 29.233482
_cell_length_c 14.532628
_cell_angle_alpha 90.000000
_cell_angle_beta 90.000000
_cell_angle_gamma 90.000000
_cell_volume 4714.193817
_symmetry_space_group_name_H-M "F D D D"
_symmetry_group_IT_number 70
_space_group.IT_coordinate_system_code '2'
_symmetry_cell_setting 'orthorhombic'
loop_
_space_group_symop_operation_xyz
x,y,z
1/4-x,1/4-y,z
x,1/4-y,1/4-z
1/4-x,y,1/4-z
-x,-y,-z
3/4+x,3/4+y,-z
-x,3/4+y,3/4+z
3/4+x,-y,3/4+z
x,1/2+y,1/2+z
1/4-x,3/4-y,1/2+z
x,3/4-y,3/4-z
1/4-x,1/2+y,3/4-z
-x,1/2-y,1/2-z
3/4+x,1/4+y,1/2-z
-x,1/4+y,1/4+z
3/4+x,1/2-y,1/4+z
1/2+x,y,1/2+z
3/4-x,1/4-y,1/2+z
1/2+x,1/4-y,3/4-z
3/4-x,y,3/4-z
1/2-x,-y,1/2-z
1/4+x,3/4+y,1/2-z
1/2-x,3/4+y,1/4+z
1/4+x,-y,1/4+z
1/2+x,1/2+y,z
3/4-x,3/4-y,z
1/2+x,3/4-y,1/4-z
3/4-x,1/2+y,1/4-z
1/2-x,1/2-y,-z
1/4+x,1/4+y,-z
1/2-x,1/4+y,3/4+z
1/4+x,1/2-y,3/4+z
loop_
_atom_site_type_symbol
_atom_site_label
_atom_site_fract_x
_atom_site_fract_y
_atom_site_fract_z
Si Si1 0.741615 0.863513 0.264315
Si Si2 0.444208 0.186623 0.508322
Si Si3 0.486852 0.727234 0.594736
Si Si4 0.875000 0.375000 0.375000
O O1 0.738310 0.875000 0.375000
O O2 0.646408 0.897921 0.221907
O O3 0.710729 0.809889 0.264429
O O4 0.875000 0.875000 0.230422
O O5 0.508413 0.220902 0.438639
O O6 0.358434 0.217967 0.574308
O O7 0.541223 0.158141 0.565369
O O8 0.625000 0.716651 0.625000
#
# Coordination Sequence:
#
# PCOD9516529 Si02
#       4
#    32  32  32   8
#     4   9  15  33  59  86 115 155 201 254 316 371
#     4  11  23  39  63  92 125 172 215 259 321 392
#     4  11  20  38  66  96 119 159 219 269 313 383
#     4  12  24  44  62  76 132 184 206 238 344 400
#
# _framework density 22.061036000000001
#
# number of rings (size 3 to 8) (size 9 to 14) (size 15 to 20)
#    0.000    1.538   10.769    0.923    0.000    1.231 
#    0.000    3.077    0.000    0.000    0.000    0.000 
#    0.000    0.000    0.000    0.000    0.000    0.000 
#
# Total GULP energy -145237.635966 kJ/mol
# GULP energy per Si atom -5586.062922 kJ/mol
# Density = 2.201082 g / cm^3
# Si number density = 22.061036 Si / 1000 Ang^3
#
#
#
# Elastic Constant Matrix: (Units=GPa)
#
#
# Indices 1 2 3 4 5 6 
#
# 1 118.6074 37.2703 40.2036 0.0000 0.0000 0.0000
# 2 37.2703 133.1498 33.2814 0.0000 0.0000 0.0000
# 3 40.2036 33.2814 53.3658 0.0000 0.0000 0.0000
# 4 0.0000 0.0000 0.0000 16.1309 0.0000 0.0000
# 5 0.0000 0.0000 0.0000 0.0000 -5.1274 0.0000
# 6 0.0000 0.0000 0.0000 0.0000 0.0000 12.4818
#
#
#
# Elastic Compliance Matrix: (Units=1/GPa)
#
#
# Indices 1 2 3 4 5 6 
#
# 1 0.011495 -0.001247 -0.007882 0.000000 0.000000 0.000000
# 2 -0.001247 0.009033 -0.004693 0.000000 0.000000 0.000000
# 3 -0.007882 -0.004693 0.027603 0.000000 0.000000 0.000000
# 4 0.000000 0.000000 0.000000 0.061993 0.000000 0.000000
# 5 0.000000 0.000000 0.000000 0.000000 -0.195029 0.000000
# 6 0.000000 0.000000 0.000000 0.000000 0.000000 0.080116
#
#
# Mechanical properties :
#
#
# Convention : Reuss Voigt Hill
#
# Bulk Modulus (GPa) = 48.81464 58.51484 53.66474
# Shear Modulus (GPa) = 168.43848 17.65491 93.04669
#
# Velocity S-wave (km/s) = 8.74739 2.83198 6.50142
# Velocity P-wave (km/s) = 11.14440 6.10534 8.98534
#
# Compressibility (1/GPa) = 0.02048566
#
# Stress axis : x y z
#
# Youngs Moduli (GPa) = 86.99589 110.70945 36.22747
#
# Poissons Ratio (x) = 0.13811 0.28553
# Poissons Ratio (y) = 0.10852 0.17003
# Poissons Ratio (z) = 0.68568 0.51960
#
# Static dielectric constant tensor:
#      x y z
#    x 1.802790 0.000000 0.000000 
#    y 0.000000 1.867100 0.000000 
#    z 0.000000 0.000000 1.867560 
# 
# From -- ./inp_files/15058.got.cif
#   From: 2010.05.17/outbox.cif.g08.bks.cpg/sg70_8_cif.got.tgz:15058.got - 2010.06.03 15:57:51.
