data_PCOD9516488
_publ_section_title
;
Structure prediction by ZEFSAII (Michael W. Deem and Ramdas Pophale) SiO2 
 PCOD9516488
Probable space group: F D D D
;
_chemical_formula_sum "Si O2"
_cell_formula_units_Z 192
_cell_length_a 31.863122
_cell_length_b 17.006080
_cell_length_c 23.185843
_cell_angle_alpha 90.000000
_cell_angle_beta 90.000000
_cell_angle_gamma 90.000000
_cell_volume 12563.638593
_symmetry_space_group_name_H-M "F D D D"
_symmetry_group_IT_number 70
_space_group.IT_coordinate_system_code '2'
_symmetry_cell_setting 'orthorhombic'
loop_
_space_group_symop_operation_xyz
x,y,z
1/4-x,1/4-y,z
x,1/4-y,1/4-z
1/4-x,y,1/4-z
-x,-y,-z
3/4+x,3/4+y,-z
-x,3/4+y,3/4+z
3/4+x,-y,3/4+z
x,1/2+y,1/2+z
1/4-x,3/4-y,1/2+z
x,3/4-y,3/4-z
1/4-x,1/2+y,3/4-z
-x,1/2-y,1/2-z
3/4+x,1/4+y,1/2-z
-x,1/4+y,1/4+z
3/4+x,1/2-y,1/4+z
1/2+x,y,1/2+z
3/4-x,1/4-y,1/2+z
1/2+x,1/4-y,3/4-z
3/4-x,y,3/4-z
1/2-x,-y,1/2-z
1/4+x,3/4+y,1/2-z
1/2-x,3/4+y,1/4+z
1/4+x,-y,1/4+z
1/2+x,1/2+y,z
3/4-x,3/4-y,z
1/2+x,3/4-y,1/4-z
3/4-x,1/2+y,1/4-z
1/2-x,1/2-y,-z
1/4+x,1/4+y,-z
1/2-x,1/4+y,3/4+z
1/4+x,1/2-y,3/4+z
loop_
_atom_site_type_symbol
_atom_site_label
_atom_site_fract_x
_atom_site_fract_y
_atom_site_fract_z
Si Si1 0.774769 0.330748 0.284891
Si Si2 0.272947 0.499184 0.839577
Si Si3 0.570510 0.821179 0.462834
Si Si4 0.146843 0.396604 0.683857
Si Si5 0.323196 0.003223 0.157273
Si Si6 0.138837 0.205494 0.249662
O O1 0.777396 0.424673 0.296399
O O2 0.780866 0.288221 0.347145
O O3 0.727552 0.308674 0.268386
O O4 0.811453 0.302883 0.242813
O O5 0.307027 0.565413 0.826351
O O6 0.224590 0.527510 0.836949
O O7 0.599245 0.828561 0.518645
O O8 0.582285 0.763328 0.410705
O O9 0.571000 0.908576 0.434141
O O10 0.125000 0.372336 0.625000
O O11 0.120894 0.468894 0.711272
O O12 0.359266 0.961296 0.194029
O O13 0.125000 0.125000 0.218057
#
# Coordination Sequence:
#
# PCOD9516488 Si02
#       6
#    32  32  32  32  32  32
#     4   9  16  26  37  55  80 114 138 164 194 233
#     4   9  16  26  37  52  84 115 138 160 195 236
#     4   8  17  30  41  49  79 118 145 160 197 245
#     4  11  19  25  38  60  84 109 141 168 199 236
#     4   8  17  30  39  52  77 119 146 163 194 243
#     4  11  19  23  37  61  85 104 138 171 203 230
#
# _framework density 15.282197
#
# number of rings (size 3 to 8) (size 9 to 14) (size 15 to 20)
#    0.000    2.667    3.333    2.000    2.333    2.333 
#    0.000    0.000    0.000    0.000    0.000    1.167 
#    0.000    0.667    0.000    0.000    0.000    0.000 
#
# Total GULP energy -267355.419326 kJ/mol
# GULP energy per Si atom -5569.904569 kJ/mol
# Density = 1.524741 g / cm^3
# Si number density = 15.282197 Si / 1000 Ang^3
#
#
#
# Elastic Constant Matrix: (Units=GPa)
#
#
# Indices 1 2 3 4 5 6 
#
# 1 84.5508 18.5154 54.7988 0.0000 0.0000 0.0000
# 2 18.5154 13.9465 14.9904 0.0000 0.0000 0.0000
# 3 54.7988 14.9904 91.6920 0.0000 0.0000 0.0000
# 4 0.0000 0.0000 0.0000 12.8633 0.0000 0.0000
# 5 0.0000 0.0000 0.0000 0.0000 25.5145 0.0000
# 6 0.0000 0.0000 0.0000 0.0000 0.0000 14.8243
#
#
#
# Elastic Compliance Matrix: (Units=1/GPa)
#
#
# Indices 1 2 3 4 5 6 
#
# 1 0.022802 -0.018955 -0.010528 0.000000 0.000000 0.000000
# 2 -0.018955 0.102746 -0.005469 0.000000 0.000000 0.000000
# 3 -0.010528 -0.005469 0.018092 0.000000 0.000000 0.000000
# 4 0.000000 0.000000 0.000000 0.077741 0.000000 0.000000
# 5 0.000000 0.000000 0.000000 0.000000 0.039193 0.000000
# 6 0.000000 0.000000 0.000000 0.000000 0.000000 0.067457
#
#
# Mechanical properties :
#
#
# Convention : Reuss Voigt Hill
#
# Bulk Modulus (GPa) = 13.56214 40.75539 27.15876
# Shear Modulus (GPa) = 11.83392 17.43274 14.63333
#
# Velocity S-wave (km/s) = 2.78575 3.38112 3.09777
# Velocity P-wave (km/s) = 4.38645 6.47835 5.53218
#
# Compressibility (1/GPa) = 0.07373470
#
# Stress axis : x y z
#
# Youngs Moduli (GPa) = 43.85635 9.73273 55.27209
#
# Poissons Ratio (x) = 0.18449 0.58192
# Poissons Ratio (y) = 0.83131 0.30229
# Poissons Ratio (z) = 0.46173 0.05323
#
# Static dielectric constant tensor:
#      x y z
#    x 1.541870 0.000000 0.000000 
#    y 0.000000 1.496660 0.000000 
#    z 0.000000 0.000000 1.549990 
# 
# From -- ./inp_files/46107.got.cif
#   From: 2010.05.17/outbox.cif.g08.bks.cpg/sg70_24_cif.got.tgz:46107.got - 2010.06.03 15:57:51.
