data_PCOD9516604
_publ_section_title
;
Structure prediction by ZEFSAII (Michael W. Deem and Ramdas Pophale) SiO2 
 PCOD9516604
Probable space group: F D D D
;
_chemical_formula_sum "Si O2"
_cell_formula_units_Z 128
_cell_length_a 26.969036
_cell_length_b 19.570181
_cell_length_c 10.875254
_cell_angle_alpha 90.000000
_cell_angle_beta 90.000000
_cell_angle_gamma 90.000000
_cell_volume 5739.838519
_symmetry_space_group_name_H-M "F D D D"
_symmetry_group_IT_number 70
_space_group.IT_coordinate_system_code '2'
_symmetry_cell_setting 'orthorhombic'
loop_
_space_group_symop_operation_xyz
x,y,z
1/4-x,1/4-y,z
x,1/4-y,1/4-z
1/4-x,y,1/4-z
-x,-y,-z
3/4+x,3/4+y,-z
-x,3/4+y,3/4+z
3/4+x,-y,3/4+z
x,1/2+y,1/2+z
1/4-x,3/4-y,1/2+z
x,3/4-y,3/4-z
1/4-x,1/2+y,3/4-z
-x,1/2-y,1/2-z
3/4+x,1/4+y,1/2-z
-x,1/4+y,1/4+z
3/4+x,1/2-y,1/4+z
1/2+x,y,1/2+z
3/4-x,1/4-y,1/2+z
1/2+x,1/4-y,3/4-z
3/4-x,y,3/4-z
1/2-x,-y,1/2-z
1/4+x,3/4+y,1/2-z
1/2-x,3/4+y,1/4+z
1/4+x,-y,1/4+z
1/2+x,1/2+y,z
3/4-x,3/4-y,z
1/2+x,3/4-y,1/4-z
3/4-x,1/2+y,1/4-z
1/2-x,1/2-y,-z
1/4+x,1/4+y,-z
1/2-x,1/4+y,3/4+z
1/4+x,1/2-y,3/4+z
loop_
_atom_site_type_symbol
_atom_site_label
_atom_site_fract_x
_atom_site_fract_y
_atom_site_fract_z
Si Si1 0.520364 0.924111 0.761113
Si Si2 0.842319 0.971074 0.489005
Si Si3 0.313202 0.623467 0.758156
Si Si4 0.864826 0.990632 0.006799
O O1 0.463431 0.944615 0.769466
O O2 0.530778 0.890114 0.628529
O O3 0.557566 0.988329 0.768822
O O4 0.533084 0.875000 0.875000
O O5 0.875000 0.948030 0.375000
O O6 0.839091 0.053572 0.480868
O O7 0.866066 0.954553 0.620922
O O8 0.286297 0.625000 0.625000
O O9 0.353295 0.562050 0.750469
O O10 0.875000 0.956844 0.875000
#
# Coordination Sequence:
#
# PCOD9516604 Si02
#       4
#    32  32  32  32
#     4  11  22  36  56  82 112 146 182 221 268 322
#     4  11  22  36  56  82 112 146 182 221 268 322
#     4   9  19  37  60  84 108 135 179 233 277 320
#     4   9  19  37  60  84 108 135 179 233 277 320
#
# _framework density 22.300279
#
# number of rings (size 3 to 8) (size 9 to 14) (size 15 to 20)
#    0.000    2.000    0.000    6.000    0.000   13.500 
#    0.000    0.000    0.000    0.000    0.000   10.500 
#    0.000    0.000    0.000    0.000    0.000    0.000 
#
# Total GULP energy -178934.768389 kJ/mol
# GULP energy per Si atom -5591.711512 kJ/mol
# Density = 2.224952 g / cm^3
# Si number density = 22.300279 Si / 1000 Ang^3
#
#
#
# Elastic Constant Matrix: (Units=GPa)
#
#
# Indices 1 2 3 4 5 6 
#
# 1 141.9428 7.2280 103.6982 0.0000 0.0000 0.0000
# 2 7.2280 70.7854 24.2956 0.0000 0.0000 0.0000
# 3 103.6982 24.2956 183.3298 0.0001 0.0000 0.0000
# 4 0.0000 0.0000 0.0001 -60.5726 0.0000 0.0000
# 5 0.0000 0.0000 0.0000 0.0000 15.4910 0.0000
# 6 0.0000 0.0000 0.0000 0.0000 0.0000 7.0145
#
#
#
# Elastic Compliance Matrix: (Units=1/GPa)
#
#
# Indices 1 2 3 4 5 6 
#
# 1 0.012098 0.001166 -0.006998 0.000000 0.000000 0.000000
# 2 0.001166 0.014913 -0.002636 0.000000 0.000000 0.000000
# 3 -0.006998 -0.002636 0.009762 0.000000 0.000000 0.000000
# 4 0.000000 0.000000 0.000000 -0.016509 0.000000 0.000000
# 5 0.000000 0.000000 0.000000 0.000000 0.064554 0.000000
# 6 0.000000 0.000000 0.000000 0.000000 0.000000 0.142562
#
#
# Mechanical properties :
#
#
# Convention : Reuss Voigt Hill
#
# Bulk Modulus (GPa) = 50.40739 74.05572 62.23155
# Shear Modulus (GPa) = 19.92610 9.77564 14.85087
#
# Velocity S-wave (km/s) = 2.99245 2.09599 2.58340
# Velocity P-wave (km/s) = 5.88155 6.25604 6.07169
#
# Compressibility (1/GPa) = 0.01983836
#
# Stress axis : x y z
#
# Youngs Moduli (GPa) = 82.65911 67.05612 102.43703
#
# Poissons Ratio (x) = -0.07822 0.71681
# Poissons Ratio (y) = -0.09642 0.27003
# Poissons Ratio (z) = 0.57841 0.17677
#
# Static dielectric constant tensor:
#      x y z
#    x 1.773080 0.000000 0.000000 
#    y 0.000000 1.813980 0.000000 
#    z 0.000000 0.000000 1.865750 
# 
# From -- ./inp_files/18840.got.cif
#   From: 2010.05.17/outbox.cif.g08.bks.cpg/sg70_10_cif.got.tgz:18840.got - 2010.06.03 15:57:51.
