data_PCOD9516484
_publ_section_title
;
Structure prediction by ZEFSAII (Michael W. Deem and Ramdas Pophale) SiO2 
 PCOD9516484
Probable space group: F D D D
;
_chemical_formula_sum "Si O2"
_cell_formula_units_Z 192
_cell_length_a 27.957472
_cell_length_b 12.670895
_cell_length_c 30.716161
_cell_angle_alpha 90.000000
_cell_angle_beta 90.000000
_cell_angle_gamma 90.000000
_cell_volume 10881.083073
_symmetry_space_group_name_H-M "F D D D"
_symmetry_group_IT_number 70
_space_group.IT_coordinate_system_code '2'
_symmetry_cell_setting 'orthorhombic'
loop_
_space_group_symop_operation_xyz
x,y,z
1/4-x,1/4-y,z
x,1/4-y,1/4-z
1/4-x,y,1/4-z
-x,-y,-z
3/4+x,3/4+y,-z
-x,3/4+y,3/4+z
3/4+x,-y,3/4+z
x,1/2+y,1/2+z
1/4-x,3/4-y,1/2+z
x,3/4-y,3/4-z
1/4-x,1/2+y,3/4-z
-x,1/2-y,1/2-z
3/4+x,1/4+y,1/2-z
-x,1/4+y,1/4+z
3/4+x,1/2-y,1/4+z
1/2+x,y,1/2+z
3/4-x,1/4-y,1/2+z
1/2+x,1/4-y,3/4-z
3/4-x,y,3/4-z
1/2-x,-y,1/2-z
1/4+x,3/4+y,1/2-z
1/2-x,3/4+y,1/4+z
1/4+x,-y,1/4+z
1/2+x,1/2+y,z
3/4-x,3/4-y,z
1/2+x,3/4-y,1/4-z
3/4-x,1/2+y,1/4-z
1/2-x,1/2-y,-z
1/4+x,1/4+y,-z
1/2-x,1/4+y,3/4+z
1/4+x,1/2-y,3/4+z
loop_
_atom_site_type_symbol
_atom_site_label
_atom_site_fract_x
_atom_site_fract_y
_atom_site_fract_z
Si Si1 0.078606 0.753892 0.383525
Si Si2 0.602886 0.494959 0.968535
Si Si3 0.488060 0.875870 0.558141
Si Si4 0.875000 0.375000 0.453724
Si Si5 0.451282 0.221083 0.515624
Si Si6 0.375000 0.375000 0.194554
Si Si7 0.771697 0.389468 0.327368
O O1 0.065378 0.875000 0.375000
O O2 0.116898 0.749953 0.423834
O O3 0.034105 0.683180 0.400119
O O4 0.101756 0.708299 0.339467
O O5 0.559241 0.579585 0.966674
O O6 0.582056 0.379556 0.974421
O O7 0.628441 0.526041 0.013144
O O8 0.522864 0.798571 0.530972
O O9 0.513581 0.988081 0.565191
O O10 0.827811 0.375507 0.425548
O O11 0.417599 0.320821 0.526997
O O12 0.495246 0.197447 0.548132
O O13 0.750862 0.375000 0.375000
#
# Coordination Sequence:
#
# PCOD9516484 Si02
#       7
#    32  32  32  16  32  16  32
#     4  12  22  35  60  91 121 150 196 250 305 352
#     4  11  18  33  60  86 115 150 182 235 306 364
#     4  11  20  38  58  81 120 157 186 238 305 364
#     4  12  18  36  56  87 114 148 182 235 308 360
#     4  11  22  37  57  86 119 159 194 237 300 369
#     4  12  23  36  60  93 121 154 203 257 292 358
#     4  11  22  33  58  87 116 144 190 244 299 352
#
# _framework density 17.645302999999998
#
# number of rings (size 3 to 8) (size 9 to 14) (size 15 to 20)
#    0.000    0.667    8.333    2.250    2.333    0.000 
#    0.000    0.833    3.667    0.000    0.000    0.000 
#    0.000    0.000    0.000    0.000    0.000    0.000 
#
# Total GULP energy -267327.160929 kJ/mol
# GULP energy per Si atom -5569.315853 kJ/mol
# Density = 1.760514 g / cm^3
# Si number density = 17.645303 Si / 1000 Ang^3
#
#
#
# Elastic Constant Matrix: (Units=GPa)
#
#
# Indices 1 2 3 4 5 6 
#
# 1 86.7663 28.2768 20.6739 0.0000 0.0000 0.0000
# 2 28.2768 67.7722 5.9654 0.0000 0.0000 0.0000
# 3 20.6739 5.9654 53.5147 0.0000 0.0000 0.0000
# 4 0.0000 0.0000 0.0000 24.3736 0.0000 0.0000
# 5 0.0000 0.0000 0.0000 0.0000 25.0315 0.0000
# 6 0.0000 0.0000 0.0000 0.0000 0.0000 21.9443
#
#
#
# Elastic Compliance Matrix: (Units=1/GPa)
#
#
# Indices 1 2 3 4 5 6 
#
# 1 0.014550 -0.005631 -0.004993 0.000000 0.000000 0.000000
# 2 -0.005631 0.017081 0.000271 0.000000 0.000000 0.000000
# 3 -0.004993 0.000271 0.020585 0.000000 0.000000 0.000000
# 4 0.000000 0.000000 0.000000 0.041028 0.000000 0.000000
# 5 0.000000 0.000000 0.000000 0.000000 0.039950 0.000000
# 6 0.000000 0.000000 0.000000 0.000000 0.000000 0.045570
#
#
# Mechanical properties :
#
#
# Convention : Reuss Voigt Hill
#
# Bulk Modulus (GPa) = 31.73592 35.32060 33.52826
# Shear Modulus (GPa) = 23.81251 24.47902 24.14577
#
# Velocity S-wave (km/s) = 3.67755 3.72867 3.70320
# Velocity P-wave (km/s) = 6.00475 6.21271 6.10961
#
# Compressibility (1/GPa) = 0.03151003
#
# Stress axis : x y z
#
# Youngs Moduli (GPa) = 68.72764 58.54468 48.57854
#
# Poissons Ratio (x) = 0.32968 0.24257
# Poissons Ratio (y) = 0.38703 -0.01319
# Poissons Ratio (z) = 0.34318 -0.01589
#
# Static dielectric constant tensor:
#      x y z
#    x 1.634340 0.000000 0.000000 
#    y 0.000000 1.618720 0.000000 
#    z 0.000000 0.000000 1.640880 
# 
# From -- ./inp_files/31328.got.cif
#   From: 2010.05.17/outbox.cif.g08.bks.cpg/sg70_16_cif.got.tgz:31328.got - 2010.06.03 15:57:51.
