data_PCOD9516240
_publ_section_title
;
Structure prediction by ZEFSAII (Michael W. Deem and Ramdas Pophale) SiO2 
 PCOD9516240
Probable space group: F D D D
;
_chemical_formula_sum "Si O2"
_cell_formula_units_Z 112
_cell_length_a 12.137107
_cell_length_b 13.566412
_cell_length_c 29.358655
_cell_angle_alpha 90.000000
_cell_angle_beta 90.000000
_cell_angle_gamma 90.000000
_cell_volume 4834.107882
_symmetry_space_group_name_H-M "F D D D"
_symmetry_group_IT_number 70
_space_group.IT_coordinate_system_code '2'
_symmetry_cell_setting 'orthorhombic'
loop_
_space_group_symop_operation_xyz
x,y,z
1/4-x,1/4-y,z
x,1/4-y,1/4-z
1/4-x,y,1/4-z
-x,-y,-z
3/4+x,3/4+y,-z
-x,3/4+y,3/4+z
3/4+x,-y,3/4+z
x,1/2+y,1/2+z
1/4-x,3/4-y,1/2+z
x,3/4-y,3/4-z
1/4-x,1/2+y,3/4-z
-x,1/2-y,1/2-z
3/4+x,1/4+y,1/2-z
-x,1/4+y,1/4+z
3/4+x,1/2-y,1/4+z
1/2+x,y,1/2+z
3/4-x,1/4-y,1/2+z
1/2+x,1/4-y,3/4-z
3/4-x,y,3/4-z
1/2-x,-y,1/2-z
1/4+x,3/4+y,1/2-z
1/2-x,3/4+y,1/4+z
1/4+x,-y,1/4+z
1/2+x,1/2+y,z
3/4-x,3/4-y,z
1/2+x,3/4-y,1/4-z
3/4-x,1/2+y,1/4-z
1/2-x,1/2-y,-z
1/4+x,1/4+y,-z
1/2-x,1/4+y,3/4+z
1/4+x,1/2-y,3/4+z
loop_
_atom_site_type_symbol
_atom_site_label
_atom_site_fract_x
_atom_site_fract_y
_atom_site_fract_z
Si Si1 0.457528 0.075924 0.336906
Si Si2 0.125000 0.125000 0.261761
Si Si3 0.689775 0.784747 0.409757
Si Si4 0.619262 0.334313 0.765566
O O1 0.375000 0.038737 0.375000
O O2 0.481056 0.191854 0.345084
O O3 0.407150 0.069366 0.286337
O O4 0.568678 0.013831 0.342094
O O5 0.240003 0.112452 0.234711
O O6 0.133421 0.227157 0.289042
O O7 0.704968 0.875000 0.375000
O O8 0.692615 0.835501 0.459442
#
# Coordination Sequence:
#
# PCOD9516240 Si02
#       4
#    32  16  32  32
#     4  11  27  45  68  98 135 178 224 278 335 398
#     4  10  24  38  75 102 128 182 218 274 329 398
#     4  11  27  45  68  98 135 178 224 278 335 398
#     4  11  23  46  68 100 138 176 222 274 334 396
#
# _framework density 23.168700999999999
#
# number of rings (size 3 to 8) (size 9 to 14) (size 15 to 20)
#    0.000    1.143    2.857    0.857   12.000    1.143 
#    0.000    0.000    0.000    0.000    0.000    0.000 
#    0.000    0.000    0.000    0.000    0.000    0.000 
#
# Total GULP energy -156583.132968 kJ/mol
# GULP energy per Si atom -5592.254749 kJ/mol
# Density = 2.311597 g / cm^3
# Si number density = 23.168701 Si / 1000 Ang^3
#
#
#
# Elastic Constant Matrix: (Units=GPa)
#
#
# Indices 1 2 3 4 5 6 
#
# 1 59.1947 6.5038 8.7861 0.0000 0.0000 0.0000
# 2 6.5038 120.7171 -5.4057 0.0000 0.0000 0.0000
# 3 8.7861 -5.4057 90.7917 0.0000 0.0000 0.0000
# 4 0.0000 0.0000 0.0000 31.8984 0.0000 0.0000
# 5 0.0000 0.0000 0.0000 0.0000 16.1350 0.0000
# 6 0.0000 0.0000 0.0000 0.0000 0.0000 26.2856
#
#
#
# Elastic Compliance Matrix: (Units=1/GPa)
#
#
# Indices 1 2 3 4 5 6 
#
# 1 0.017261 -0.001007 -0.001730 0.000000 0.000000 0.000000
# 2 -0.001007 0.008365 0.000596 0.000000 0.000000 0.000000
# 3 -0.001730 0.000596 0.011217 0.000000 0.000000 0.000000
# 4 0.000000 0.000000 0.000000 0.031350 0.000000 0.000000
# 5 0.000000 0.000000 0.000000 0.000000 0.061977 0.000000
# 6 0.000000 0.000000 0.000000 0.000000 0.000000 0.038044
#
#
# Mechanical properties :
#
#
# Convention : Reuss Voigt Hill
#
# Bulk Modulus (GPa) = 30.71416 32.27467 31.49442
# Shear Modulus (GPa) = 27.27019 32.25174 29.76097
#
# Velocity S-wave (km/s) = 3.43451 3.73505 3.58793
# Velocity P-wave (km/s) = 5.38640 5.70626 5.54863
#
# Compressibility (1/GPa) = 0.03255827
#
# Stress axis : x y z
#
# Youngs Moduli (GPa) = 57.93427 119.54893 89.14937
#
# Poissons Ratio (x) = 0.12044 0.15426
# Poissons Ratio (y) = 0.05837 -0.05309
# Poissons Ratio (z) = 0.10025 -0.07119
#
# Static dielectric constant tensor:
#      x y z
#    x 1.803350 0.000000 0.000000 
#    y 0.000000 1.888820 0.000000 
#    z 0.000000 0.000000 1.864040 
# 
# From -- ./inp_files/21729.got.cif
#   From: 2010.05.17/outbox.cif.g08.bks.cpg/sg70_11_cif.got.tgz:21729.got - 2010.06.03 15:57:51.
