data_PCOD9516531
_publ_section_title
;
Structure prediction by ZEFSAII (Michael W. Deem and Ramdas Pophale) SiO2 
 PCOD9516531
Probable space group: F D D D
;
_chemical_formula_sum "Si O2"
_cell_formula_units_Z 216
_cell_length_a 27.476809
_cell_length_b 27.771245
_cell_length_c 12.983732
_cell_angle_alpha 90.000000
_cell_angle_beta 90.000000
_cell_angle_gamma 90.000000
_cell_volume 9907.433985
_symmetry_space_group_name_H-M "F D D D"
_symmetry_group_IT_number 70
_space_group.IT_coordinate_system_code '2'
_symmetry_cell_setting 'orthorhombic'
loop_
_space_group_symop_operation_xyz
x,y,z
1/4-x,1/4-y,z
x,1/4-y,1/4-z
1/4-x,y,1/4-z
-x,-y,-z
3/4+x,3/4+y,-z
-x,3/4+y,3/4+z
3/4+x,-y,3/4+z
x,1/2+y,1/2+z
1/4-x,3/4-y,1/2+z
x,3/4-y,3/4-z
1/4-x,1/2+y,3/4-z
-x,1/2-y,1/2-z
3/4+x,1/4+y,1/2-z
-x,1/4+y,1/4+z
3/4+x,1/2-y,1/4+z
1/2+x,y,1/2+z
3/4-x,1/4-y,1/2+z
1/2+x,1/4-y,3/4-z
3/4-x,y,3/4-z
1/2-x,-y,1/2-z
1/4+x,3/4+y,1/2-z
1/2-x,3/4+y,1/4+z
1/4+x,-y,1/4+z
1/2+x,1/2+y,z
3/4-x,3/4-y,z
1/2+x,3/4-y,1/4-z
3/4-x,1/2+y,1/4-z
1/2-x,1/2-y,-z
1/4+x,1/4+y,-z
1/2-x,1/4+y,3/4+z
1/4+x,1/2-y,3/4+z
loop_
_atom_site_type_symbol
_atom_site_label
_atom_site_fract_x
_atom_site_fract_y
_atom_site_fract_z
Si Si1 0.491661 0.513925 0.222508
Si Si2 0.625000 0.625000 0.125000
Si Si3 0.095272 0.980227 0.921814
Si Si4 0.513816 0.166113 0.212212
Si Si5 0.766995 0.157360 0.366158
Si Si6 0.698096 0.501772 0.829884
Si Si7 0.125000 0.331759 0.125000
Si Si8 0.793035 0.437560 0.294186
O O1 0.438252 0.530167 0.180430
O O2 0.504341 0.458286 0.190038
O O3 0.509442 0.517575 0.339443
O O4 0.527821 0.546881 0.156807
O O5 0.590205 0.594426 0.052917
O O6 0.145570 0.002197 0.881541
O O7 0.112283 0.946258 0.017450
O O8 0.058815 0.015964 0.980687
O O9 0.521243 0.125000 0.125000
O O10 0.513819 0.133977 0.313983
O O11 0.463884 0.196587 0.195094
O O12 0.550406 0.210518 0.235160
O O13 0.823337 0.144059 0.353199
O O14 0.751165 0.163293 0.484034
#
# Coordination Sequence:
#
# PCOD9516531 Si02
#       8
#    32   8  32  32  32  32  16  32
#     4  11  20  41  68  97 135 172 221 282 336 412
#     4  12  26  36  60 100 158 172 224 280 342 422
#     4  11  20  38  68  97 130 176 230 263 342 417
#     4  11  24  47  67  92 128 177 232 285 350 413
#     4  11  22  39  68  94 133 171 226 272 336 414
#     4  11  24  43  73  91 131 184 222 292 350 404
#     4  12  17  38  68 101 132 182 209 280 341 404
#     4  11  23  38  61 104 136 179 209 269 343 411
#
# _framework density 21.801811000000001
#
# number of rings (size 3 to 8) (size 9 to 14) (size 15 to 20)
#    0.000    0.889    5.926    2.222    4.148    0.000 
#    2.667    2.222    6.519    0.000    0.000    0.000 
#    0.000    0.000    0.000    0.000    0.000    0.000 
#
# Total GULP energy -300831.415948 kJ/mol
# GULP energy per Si atom -5570.952147 kJ/mol
# Density = 2.175219 g / cm^3
# Si number density = 21.801811 Si / 1000 Ang^3
#
#
#
# Elastic Constant Matrix: (Units=GPa)
#
#
# Indices 1 2 3 4 5 6 
#
# 1 95.7938 1.2207 21.1940 0.0000 0.0000 0.0000
# 2 1.2207 66.3286 37.9612 0.0000 0.0000 0.0000
# 3 21.1940 37.9612 50.3074 0.0000 0.0000 0.0000
# 4 0.0000 0.0000 0.0000 -1.6957 0.0000 0.0000
# 5 0.0000 0.0000 0.0000 0.0000 19.4150 0.0000
# 6 0.0000 0.0000 0.0000 0.0000 0.0000 66.5751
#
#
#
# Elastic Compliance Matrix: (Units=1/GPa)
#
#
# Indices 1 2 3 4 5 6 
#
# 1 0.012334 0.004835 -0.008845 0.000000 0.000000 0.000000
# 2 0.004835 0.028432 -0.023491 0.000000 0.000000 0.000000
# 3 -0.008845 -0.023491 0.041330 0.000000 0.000000 0.000000
# 4 0.000000 0.000000 0.000000 -0.589717 0.000000 0.000000
# 5 0.000000 0.000000 0.000000 0.000000 0.051506 0.000000
# 6 0.000000 0.000000 0.000000 0.000000 0.000000 0.015021
#
#
# Mechanical properties :
#
#
# Convention : Reuss Voigt Hill
#
# Bulk Modulus (GPa) = 36.90796 37.02021 36.96409
# Shear Modulus (GPa) = -13.26052 26.99581 6.86764
#
# Velocity S-wave (km/s) = -2.46891 3.52268 1.77676
# Velocity P-wave (km/s) = 2.97292 5.79335 4.60441
#
# Compressibility (1/GPa) = 0.02709442
#
# Stress axis : x y z
#
# Youngs Moduli (GPa) = 81.07431 35.17156 24.19533
#
# Poissons Ratio (x) = -0.17006 0.21400
# Poissons Ratio (y) = -0.39200 0.56838
# Poissons Ratio (z) = 0.71709 0.82623
#
# Static dielectric constant tensor:
#      x y z
#    x 1.793380 0.000000 0.000000 
#    y 0.000000 1.809160 0.000000 
#    z 0.000000 0.000000 1.871410 
# 
# From -- ./inp_files/30183.got.cif
#   From: 2010.05.17/outbox.cif.g08.bks.cpg/sg70_16_cif.got.tgz:30183.got - 2010.06.03 15:57:51.
