data_PCOD9516799
_publ_section_title
;
Structure prediction by ZEFSAII (Michael W. Deem and Ramdas Pophale) SiO2 
 PCOD9516799
Probable space group: F D D D
;
_chemical_formula_sum "Si O2"
_cell_formula_units_Z 64
_cell_length_a 11.058442
_cell_length_b 7.924398
_cell_length_c 26.730712
_cell_angle_alpha 90.000000
_cell_angle_beta 90.000000
_cell_angle_gamma 90.000000
_cell_volume 2342.452273
_symmetry_space_group_name_H-M "F D D D"
_symmetry_group_IT_number 70
_space_group.IT_coordinate_system_code '2'
_symmetry_cell_setting 'orthorhombic'
loop_
_space_group_symop_operation_xyz
x,y,z
1/4-x,1/4-y,z
x,1/4-y,1/4-z
1/4-x,y,1/4-z
-x,-y,-z
3/4+x,3/4+y,-z
-x,3/4+y,3/4+z
3/4+x,-y,3/4+z
x,1/2+y,1/2+z
1/4-x,3/4-y,1/2+z
x,3/4-y,3/4-z
1/4-x,1/2+y,3/4-z
-x,1/2-y,1/2-z
3/4+x,1/4+y,1/2-z
-x,1/4+y,1/4+z
3/4+x,1/2-y,1/4+z
1/2+x,y,1/2+z
3/4-x,1/4-y,1/2+z
1/2+x,1/4-y,3/4-z
3/4-x,y,3/4-z
1/2-x,-y,1/2-z
1/4+x,3/4+y,1/2-z
1/2-x,3/4+y,1/4+z
1/4+x,-y,1/4+z
1/2+x,1/2+y,z
3/4-x,3/4-y,z
1/2+x,3/4-y,1/4-z
3/4-x,1/2+y,1/4-z
1/2-x,1/2-y,-z
1/4+x,1/4+y,-z
1/2-x,1/4+y,3/4+z
1/4+x,1/2-y,3/4+z
loop_
_atom_site_type_symbol
_atom_site_label
_atom_site_fract_x
_atom_site_fract_y
_atom_site_fract_z
Si Si1 0.765326 0.488337 0.666497
Si Si2 0.367706 0.203129 0.993699
O O1 0.739353 0.625000 0.625000
O O2 0.875000 0.375000 0.646253
O O3 0.820466 0.590579 0.713130
O O4 0.657755 0.374122 0.689455
O O5 0.472736 0.369560 0.997412
#
# Coordination Sequence:
#
# PCOD9516799 Si02
#       2
#    32  32
#     4  11  24  45  77 118 158 209 275 334 402 493
#     4  11  23  47  79 107 159 214 260 330 413 479
#
# _framework density 27.321797
#
# number of rings (size 3 to 8) (size 9 to 14) (size 15 to 20)
#    0.000    1.000    5.000    1.500    0.000    0.000 
#    0.000   20.000    0.000    0.000    0.000    0.000 
#    0.000    0.000    0.000    0.000    0.000    0.000 
#
# Total GULP energy -89578.794970 kJ/mol
# GULP energy per Si atom -5598.674686 kJ/mol
# Density = 2.725961 g / cm^3
# Si number density = 27.321797 Si / 1000 Ang^3
#
#
#
# Elastic Constant Matrix: (Units=GPa)
#
#
# Indices 1 2 3 4 5 6 
#
# 1 268.8032 117.5791 85.6607 0.0000 0.0000 0.0000
# 2 117.5791 197.8479 41.8248 0.0000 0.0000 0.0000
# 3 85.6607 41.8248 101.5563 0.0000 0.0000 0.0000
# 4 0.0000 0.0000 0.0000 32.8996 0.0000 0.0000
# 5 0.0000 0.0000 0.0000 0.0000 17.7747 0.0000
# 6 0.0000 0.0000 0.0000 0.0000 0.0000 60.3802
#
#
#
# Elastic Compliance Matrix: (Units=1/GPa)
#
#
# Indices 1 2 3 4 5 6 
#
# 1 0.006287 -0.002865 -0.004123 0.000000 0.000000 0.000000
# 2 -0.002865 0.006842 -0.000401 0.000000 0.000000 0.000000
# 3 -0.004123 -0.000401 0.013490 0.000000 0.000000 0.000000
# 4 0.000000 0.000000 0.000000 0.030396 0.000000 0.000000
# 5 0.000000 0.000000 0.000000 0.000000 0.056260 0.000000
# 6 0.000000 0.000000 0.000000 0.000000 0.000000 0.016562
#
#
# Mechanical properties :
#
#
# Convention : Reuss Voigt Hill
#
# Bulk Modulus (GPa) = 84.45866 117.59296 101.02581
# Shear Modulus (GPa) = 33.65602 43.75374 38.70488
#
# Velocity S-wave (km/s) = 3.51356 4.00612 3.76790
# Velocity P-wave (km/s) = 6.88766 8.03319 7.48238
#
# Compressibility (1/GPa) = 0.01184011
#
# Stress axis : x y z
#
# Youngs Moduli (GPa) = 159.04978 146.16133 74.12892
#
# Poissons Ratio (x) = 0.41873 0.30566
# Poissons Ratio (y) = 0.45565 0.02975
# Poissons Ratio (z) = 0.65583 0.05865
#
# Static dielectric constant tensor:
#      x y z
#    x 2.393890 0.000000 0.000000 
#    y 0.000000 2.130070 0.000000 
#    z 0.000000 0.000000 1.975710 
# 
# From -- ./inp_files/64095.got.cif
#   From: 2010.05.17/outbox.cif.g08.bks.cpg/sg70_33_cif.got.tgz:64095.got - 2010.06.03 15:57:51.
