data_PCOD9516291
_publ_section_title
;
Structure prediction by ZEFSAII (Michael W. Deem and Ramdas Pophale) SiO2 
 PCOD9516291
Probable space group: F D D D
;
_chemical_formula_sum "Si O2"
_cell_formula_units_Z 112
_cell_length_a 17.314944
_cell_length_b 8.981532
_cell_length_c 26.193132
_cell_angle_alpha 90.000000
_cell_angle_beta 90.000000
_cell_angle_gamma 90.000000
_cell_volume 4073.417684
_symmetry_space_group_name_H-M "F D D D"
_symmetry_group_IT_number 70
_space_group.IT_coordinate_system_code '2'
_symmetry_cell_setting 'orthorhombic'
loop_
_space_group_symop_operation_xyz
x,y,z
1/4-x,1/4-y,z
x,1/4-y,1/4-z
1/4-x,y,1/4-z
-x,-y,-z
3/4+x,3/4+y,-z
-x,3/4+y,3/4+z
3/4+x,-y,3/4+z
x,1/2+y,1/2+z
1/4-x,3/4-y,1/2+z
x,3/4-y,3/4-z
1/4-x,1/2+y,3/4-z
-x,1/2-y,1/2-z
3/4+x,1/4+y,1/2-z
-x,1/4+y,1/4+z
3/4+x,1/2-y,1/4+z
1/2+x,y,1/2+z
3/4-x,1/4-y,1/2+z
1/2+x,1/4-y,3/4-z
3/4-x,y,3/4-z
1/2-x,-y,1/2-z
1/4+x,3/4+y,1/2-z
1/2-x,3/4+y,1/4+z
1/4+x,-y,1/4+z
1/2+x,1/2+y,z
3/4-x,3/4-y,z
1/2+x,3/4-y,1/4-z
3/4-x,1/2+y,1/4-z
1/2-x,1/2-y,-z
1/4+x,1/4+y,-z
1/2-x,1/4+y,3/4+z
1/4+x,1/2-y,3/4+z
loop_
_atom_site_type_symbol
_atom_site_label
_atom_site_fract_x
_atom_site_fract_y
_atom_site_fract_z
Si Si1 0.579259 0.321958 0.044552
Si Si2 0.618035 0.375000 0.375000
Si Si3 0.729753 0.441196 0.656491
Si Si4 0.499726 0.378072 0.805135
O O1 0.547501 0.268318 0.099105
O O2 0.668302 0.272890 0.048849
O O3 0.563040 0.501758 0.044462
O O4 0.528931 0.284934 0.995437
O O5 0.564525 0.259564 0.344033
O O6 0.673342 0.307204 0.418937
O O7 0.725812 0.262026 0.658282
#
# Coordination Sequence:
#
# PCOD9516291 Si02
#       4
#    32  16  32  32
#     4  10  24  43  74 103 141 190 245 301 368 435
#     4  12  26  43  71 104 150 188 242 302 372 427
#     4  11  24  47  68 104 148 190 243 306 366 444
#     4  11  23  44  73 106 139 195 248 299 366 446
#
# _framework density 27.495339000000001
#
# number of rings (size 3 to 8) (size 9 to 14) (size 15 to 20)
#    0.000    1.143    2.857    1.714    4.000    5.714 
#    5.143    0.000    0.000    0.000    0.000    0.000 
#    0.000    0.000    0.000    0.000    0.000    0.000 
#
# Total GULP energy -156495.694593 kJ/mol
# GULP energy per Si atom -5589.131950 kJ/mol
# Density = 2.743276 g / cm^3
# Si number density = 27.495339 Si / 1000 Ang^3
#
#
#
# Elastic Constant Matrix: (Units=GPa)
#
#
# Indices 1 2 3 4 5 6 
#
# 1 109.6461 29.1712 34.2087 0.0000 0.0000 0.0000
# 2 29.1712 86.5744 -1.7909 0.0000 0.0000 0.0000
# 3 34.2087 -1.7909 120.9317 0.0000 0.0000 0.0000
# 4 0.0000 0.0000 0.0000 35.1698 0.0000 0.0000
# 5 0.0000 0.0000 0.0000 0.0000 47.6085 0.0000
# 6 0.0000 0.0000 0.0000 0.0000 0.0000 63.4801
#
#
#
# Elastic Compliance Matrix: (Units=1/GPa)
#
#
# Indices 1 2 3 4 5 6 
#
# 1 0.011137 -0.003819 -0.003207 0.000000 0.000000 0.000000
# 2 -0.003819 0.012864 0.001271 0.000000 0.000000 0.000000
# 3 -0.003207 0.001271 0.009195 0.000000 0.000000 0.000000
# 4 0.000000 0.000000 0.000000 0.028433 0.000000 0.000000
# 5 0.000000 0.000000 0.000000 0.000000 0.021005 0.000000
# 6 0.000000 0.000000 0.000000 0.000000 0.000000 0.015753
#
#
# Mechanical properties :
#
#
# Convention : Reuss Voigt Hill
#
# Bulk Modulus (GPa) = 46.11329 48.92558 47.51943
# Shear Modulus (GPa) = 42.68931 46.28923 44.48927
#
# Velocity S-wave (km/s) = 3.94458 4.10754 4.02688
# Velocity P-wave (km/s) = 6.12813 6.35048 6.24030
#
# Compressibility (1/GPa) = 0.02168572
#
# Stress axis : x y z
#
# Youngs Moduli (GPa) = 89.79256 77.73746 108.75353
#
# Poissons Ratio (x) = 0.29687 0.34876
# Poissons Ratio (y) = 0.34291 -0.13820
# Poissons Ratio (z) = 0.28795 -0.09879
#
# Static dielectric constant tensor:
#      x y z
#    x 2.236340 0.000000 0.000000 
#    y 0.000000 2.280350 0.000000 
#    z 0.000000 0.000000 2.192000 
# 
# From -- ./inp_files/16284.got.cif
#   From: 2010.05.17/outbox.cif.g08.bks.cpg/sg70_9_cif.got.tgz:16284.got - 2010.06.03 15:57:51.
