data_PCOD9516905
_publ_section_title
;
Structure prediction by ZEFSAII (Michael W. Deem and Ramdas Pophale) SiO2 
 PCOD9516905
Probable space group: F D D D
;
_chemical_formula_sum "Si O2"
_cell_formula_units_Z 160
_cell_length_a 10.422132
_cell_length_b 25.348308
_cell_length_c 28.323221
_cell_angle_alpha 90.000000
_cell_angle_beta 90.000000
_cell_angle_gamma 90.000000
_cell_volume 7482.525161
_symmetry_space_group_name_H-M "F D D D"
_symmetry_group_IT_number 70
_space_group.IT_coordinate_system_code '2'
_symmetry_cell_setting 'orthorhombic'
loop_
_space_group_symop_operation_xyz
x,y,z
1/4-x,1/4-y,z
x,1/4-y,1/4-z
1/4-x,y,1/4-z
-x,-y,-z
3/4+x,3/4+y,-z
-x,3/4+y,3/4+z
3/4+x,-y,3/4+z
x,1/2+y,1/2+z
1/4-x,3/4-y,1/2+z
x,3/4-y,3/4-z
1/4-x,1/2+y,3/4-z
-x,1/2-y,1/2-z
3/4+x,1/4+y,1/2-z
-x,1/4+y,1/4+z
3/4+x,1/2-y,1/4+z
1/2+x,y,1/2+z
3/4-x,1/4-y,1/2+z
1/2+x,1/4-y,3/4-z
3/4-x,y,3/4-z
1/2-x,-y,1/2-z
1/4+x,3/4+y,1/2-z
1/2-x,3/4+y,1/4+z
1/4+x,-y,1/4+z
1/2+x,1/2+y,z
3/4-x,3/4-y,z
1/2+x,3/4-y,1/4-z
3/4-x,1/2+y,1/4-z
1/2-x,1/2-y,-z
1/4+x,1/4+y,-z
1/2-x,1/4+y,3/4+z
1/4+x,1/2-y,3/4+z
loop_
_atom_site_type_symbol
_atom_site_label
_atom_site_fract_x
_atom_site_fract_y
_atom_site_fract_z
Si Si1 0.875000 0.875000 0.249575
Si Si2 0.895731 0.637567 0.802233
Si Si3 0.125000 0.125000 0.231218
Si Si4 0.282688 0.572444 0.593427
Si Si5 0.875000 0.019369 0.875000
Si Si6 0.032135 0.530590 0.047884
Si Si7 0.125000 0.448643 0.125000
O O1 0.745131 0.878194 0.218184
O O2 0.888281 0.926772 0.282459
O O3 0.880542 0.692049 0.830257
O O4 0.943598 0.592708 0.839488
O O5 0.003173 0.641054 0.762276
O O6 0.174011 0.170735 0.196483
O O7 0.283467 0.625000 0.625000
O O8 0.246364 0.519727 0.621503
O O9 0.414743 0.565218 0.566522
O O10 0.058330 0.488365 0.088536
O O11 0.000000 0.500000 0.000000
#
# Coordination Sequence:
#
# PCOD9516905 Si02
#       7
#    16  32  16  32  16  32  16
#     4  12  24  48  68 114 146 188 242 303 361 438
#     4  11  27  44  75 106 146 188 246 295 360 438
#     4  12  23  49  68 104 150 186 238 300 352 434
#     4  12  25  48  69 105 148 187 239 303 361 430
#     4  11  25  44  71 103 140 195 233 298 362 426
#     4  12  26  47  75 105 147 193 239 303 365 432
#     4  11  26  47  71 111 143 192 241 306 362 432
#
# _framework density 21.383154999999999
#
# number of rings (size 3 to 8) (size 9 to 14) (size 15 to 20)
#    0.000    0.400    6.000    1.200    5.600    2.400 
#    0.000    0.000    0.000    0.000    0.000    0.000 
#    0.000    0.000    0.000    0.000    0.000    0.000 
#
# Total GULP energy -223378.661619 kJ/mol
# GULP energy per Si atom -5584.466540 kJ/mol
# Density = 2.133449 g / cm^3
# Si number density = 21.383155 Si / 1000 Ang^3
#
#
#
# Elastic Constant Matrix: (Units=GPa)
#
#
# Indices 1 2 3 4 5 6 
#
# 1 66.3735 35.1891 62.0765 0.0000 0.0000 0.0000
# 2 35.1891 150.9671 66.5897 0.0000 0.0000 0.0000
# 3 62.0765 66.5897 131.9876 0.0000 0.0000 0.0000
# 4 0.0000 0.0000 0.0000 28.1584 0.0000 0.0000
# 5 0.0000 0.0000 0.0000 0.0000 33.1899 0.0000
# 6 0.0000 0.0000 0.0000 0.0000 0.0000 18.5165
#
#
#
# Elastic Compliance Matrix: (Units=1/GPa)
#
#
# Indices 1 2 3 4 5 6 
#
# 1 0.026991 -0.000890 -0.012245 0.000000 0.000000 0.000000
# 2 -0.000890 0.008549 -0.003895 0.000000 0.000000 0.000000
# 3 -0.012245 -0.003895 0.015301 0.000000 0.000000 0.000000
# 4 0.000000 0.000000 0.000000 0.035513 0.000000 0.000000
# 5 0.000000 0.000000 0.000000 0.000000 0.030130 0.000000
# 6 0.000000 0.000000 0.000000 0.000000 0.000000 0.054006
#
#
# Mechanical properties :
#
#
# Convention : Reuss Voigt Hill
#
# Bulk Modulus (GPa) = 59.59249 75.22655 67.40952
# Shear Modulus (GPa) = 23.79338 28.33783 26.06560
#
# Velocity S-wave (km/s) = 3.33936 3.64433 3.49517
# Velocity P-wave (km/s) = 6.54200 7.27770 6.91964
#
# Compressibility (1/GPa) = 0.01678064
#
# Stress axis : x y z
#
# Youngs Moduli (GPa) = 37.05000 116.96865 65.35724
#
# Poissons Ratio (x) = 0.10411 0.80031
# Poissons Ratio (y) = 0.03298 0.25454
# Poissons Ratio (z) = 0.45368 0.45555
#
# Static dielectric constant tensor:
#      x y z
#    x 1.791370 0.000000 0.000000 
#    y 0.000000 1.783990 0.000000 
#    z 0.000000 0.000000 1.815910 
# 
# From -- ./inp_files/64727.got.cif
#   From: 2010.05.17/outbox.cif.g08.bks.cpg/sg70_33_cif.got.tgz:64727.got - 2010.06.03 15:57:51.
