data_PCOD9516274
_publ_section_title
;
Structure prediction by ZEFSAII (Michael W. Deem and Ramdas Pophale) SiO2 
 PCOD9516274
Probable space group: F D D D
;
_chemical_formula_sum "Si O2"
_cell_formula_units_Z 168
_cell_length_a 18.620453
_cell_length_b 15.355211
_cell_length_c 25.172379
_cell_angle_alpha 90.000000
_cell_angle_beta 90.000000
_cell_angle_gamma 90.000000
_cell_volume 7197.311392
_symmetry_space_group_name_H-M "F D D D"
_symmetry_group_IT_number 70
_space_group.IT_coordinate_system_code '2'
_symmetry_cell_setting 'orthorhombic'
loop_
_space_group_symop_operation_xyz
x,y,z
1/4-x,1/4-y,z
x,1/4-y,1/4-z
1/4-x,y,1/4-z
-x,-y,-z
3/4+x,3/4+y,-z
-x,3/4+y,3/4+z
3/4+x,-y,3/4+z
x,1/2+y,1/2+z
1/4-x,3/4-y,1/2+z
x,3/4-y,3/4-z
1/4-x,1/2+y,3/4-z
-x,1/2-y,1/2-z
3/4+x,1/4+y,1/2-z
-x,1/4+y,1/4+z
3/4+x,1/2-y,1/4+z
1/2+x,y,1/2+z
3/4-x,1/4-y,1/2+z
1/2+x,1/4-y,3/4-z
3/4-x,y,3/4-z
1/2-x,-y,1/2-z
1/4+x,3/4+y,1/2-z
1/2-x,3/4+y,1/4+z
1/4+x,-y,1/4+z
1/2+x,1/2+y,z
3/4-x,3/4-y,z
1/2+x,3/4-y,1/4-z
3/4-x,1/2+y,1/4-z
1/2-x,1/2-y,-z
1/4+x,1/4+y,-z
1/2-x,1/4+y,3/4+z
1/4+x,1/2-y,3/4+z
loop_
_atom_site_type_symbol
_atom_site_label
_atom_site_fract_x
_atom_site_fract_y
_atom_site_fract_z
Si Si1 0.044162 0.349628 0.532717
Si Si2 0.487484 0.034687 0.671146
Si Si3 0.045538 0.099700 0.685975
Si Si4 0.336062 0.785937 0.569785
Si Si5 0.433009 0.584088 0.758109
Si Si6 0.125000 0.125000 0.125000
O O1 0.031511 0.254110 0.556800
O O2 0.125133 0.372460 0.545693
O O3 0.042826 0.343533 0.468412
O O4 0.988630 0.424741 0.547472
O O5 0.437782 0.022475 0.620089
O O6 0.503810 0.946789 0.702693
O O7 0.567921 0.068121 0.657646
O O8 0.125000 0.125000 0.706583
O O9 0.043731 0.125000 0.625000
O O10 0.976773 0.140765 0.715595
O O11 0.375000 0.875000 0.587990
O O12 0.386829 0.740047 0.525069
#
# Coordination Sequence:
#
# PCOD9516274 Si02
#       6
#    32  32  32  32  32   8
#     4  11  24  44  67  99 140 178 238 296 355 430
#     4  11  24  37  66 101 128 187 228 280 369 414
#     4  10  24  43  64  93 130 181 225 281 353 409
#     4  12  23  44  70 103 146 183 232 305 363 430
#     4  11  24  44  69 101 138 179 237 296 354 433
#     4  12  20  40  60  96 144 164 236 288 344 432
#
# _framework density 23.34205
#
# number of rings (size 3 to 8) (size 9 to 14) (size 15 to 20)
#    0.000    0.952    3.810    4.000    2.667    6.857 
#    0.000    0.000    0.000    0.000    0.000    0.000 
#    0.000    0.000    0.000    0.000    0.000    0.000 
#
# Total GULP energy -234261.087346 kJ/mol
# GULP energy per Si atom -5577.644937 kJ/mol
# Density = 2.328892 g / cm^3
# Si number density = 23.342050 Si / 1000 Ang^3
#
#
#
# Elastic Constant Matrix: (Units=GPa)
#
#
# Indices 1 2 3 4 5 6 
#
# 1 97.6653 7.3847 -3.9884 0.0000 0.0000 0.0000
# 2 7.3847 48.0151 27.3638 0.0000 0.0000 0.0000
# 3 -3.9884 27.3638 88.9255 0.0000 0.0000 0.0000
# 4 0.0000 0.0000 0.0000 27.0476 0.0000 0.0000
# 5 0.0000 0.0000 0.0000 0.0000 35.0808 0.0000
# 6 0.0000 0.0000 0.0000 0.0000 0.0000 10.3954
#
#
#
# Elastic Compliance Matrix: (Units=1/GPa)
#
#
# Indices 1 2 3 4 5 6 
#
# 1 0.010459 -0.002275 0.001169 0.000000 0.000000 0.000000
# 2 -0.002275 0.025751 -0.008026 0.000000 0.000000 0.000000
# 3 0.001169 -0.008026 0.013768 0.000000 0.000000 0.000000
# 4 0.000000 0.000000 0.000000 0.036972 0.000000 0.000000
# 5 0.000000 0.000000 0.000000 0.000000 0.028506 0.000000
# 6 0.000000 0.000000 0.000000 0.000000 0.000000 0.096196
#
#
# Mechanical properties :
#
#
# Convention : Reuss Voigt Hill
#
# Bulk Modulus (GPa) = 31.53218 32.90289 32.21754
# Shear Modulus (GPa) = 20.79132 28.09449 24.44291
#
# Velocity S-wave (km/s) = 2.98774 3.47306 3.23950
# Velocity P-wave (km/s) = 5.04383 5.49631 5.27492
#
# Compressibility (1/GPa) = 0.03171363
#
# Stress axis : x y z
#
# Youngs Moduli (GPa) = 95.61328 38.83404 72.63475
#
# Poissons Ratio (x) = 0.08834 -0.08492
# Poissons Ratio (y) = 0.21750 0.58296
# Poissons Ratio (z) = -0.11178 0.31168
#
# Static dielectric constant tensor:
#      x y z
#    x 2.217480 0.000000 0.000000 
#    y 0.000000 2.028420 0.000000 
#    z 0.000000 0.000000 1.927590 
# 
# From -- ./inp_files/60286.got.cif
#   From: 2010.05.17/outbox.cif.g08.bks.cpg/sg70_31_cif.got.tgz:60286.got - 2010.06.03 15:57:51.
