data_PCOD9516566
_publ_section_title
;
Structure prediction by ZEFSAII (Michael W. Deem and Ramdas Pophale) SiO2 
 PCOD9516566
Probable space group: F D D D
;
_chemical_formula_sum "Si O2"
_cell_formula_units_Z 208
_cell_length_a 19.642284
_cell_length_b 18.336298
_cell_length_c 23.630157
_cell_angle_alpha 90.000000
_cell_angle_beta 90.000000
_cell_angle_gamma 90.000000
_cell_volume 8510.797388
_symmetry_space_group_name_H-M "F D D D"
_symmetry_group_IT_number 70
_space_group.IT_coordinate_system_code '2'
_symmetry_cell_setting 'orthorhombic'
loop_
_space_group_symop_operation_xyz
x,y,z
1/4-x,1/4-y,z
x,1/4-y,1/4-z
1/4-x,y,1/4-z
-x,-y,-z
3/4+x,3/4+y,-z
-x,3/4+y,3/4+z
3/4+x,-y,3/4+z
x,1/2+y,1/2+z
1/4-x,3/4-y,1/2+z
x,3/4-y,3/4-z
1/4-x,1/2+y,3/4-z
-x,1/2-y,1/2-z
3/4+x,1/4+y,1/2-z
-x,1/4+y,1/4+z
3/4+x,1/2-y,1/4+z
1/2+x,y,1/2+z
3/4-x,1/4-y,1/2+z
1/2+x,1/4-y,3/4-z
3/4-x,y,3/4-z
1/2-x,-y,1/2-z
1/4+x,3/4+y,1/2-z
1/2-x,3/4+y,1/4+z
1/4+x,-y,1/4+z
1/2+x,1/2+y,z
3/4-x,3/4-y,z
1/2+x,3/4-y,1/4-z
3/4-x,1/2+y,1/4-z
1/2-x,1/2-y,-z
1/4+x,1/4+y,-z
1/2-x,1/4+y,3/4+z
1/4+x,1/2-y,3/4+z
loop_
_atom_site_type_symbol
_atom_site_label
_atom_site_fract_x
_atom_site_fract_y
_atom_site_fract_z
Si Si1 0.340274 0.608577 0.995540
Si Si2 0.519231 0.209913 0.131737
Si Si3 0.375000 0.674812 0.875000
Si Si4 0.239801 0.042049 0.124944
Si Si5 0.869803 0.957805 0.781058
Si Si6 0.629989 0.263612 0.916222
Si Si7 0.058066 0.087837 0.506104
O O1 0.355297 0.627515 0.929576
O O2 0.370151 0.528641 0.006939
O O3 0.258030 0.611466 0.001398
O O4 0.370834 0.670414 0.037319
O O5 0.536264 0.125000 0.125000
O O6 0.565059 0.270839 0.103524
O O7 0.439167 0.215804 0.122200
O O8 0.535436 0.223036 0.198562
O O9 0.265843 0.125000 0.125000
O O10 0.199967 0.031103 0.183554
O O11 0.181883 0.038433 0.076649
O O12 0.306426 0.996790 0.109076
O O13 0.875000 0.875000 0.757379
O O14 0.662915 0.195940 0.949084
O O15 0.125000 0.125000 0.530932
#
# Coordination Sequence:
#
# PCOD9516566 Si02
#       7
#    32  32  16  32  32  32  32
#     4  11  22  36  61  92 124 163 210 273 314 378
#     4  11  22  36  57  85 124 168 204 243 305 392
#     4  12  19  36  55  84 124 168 206 250 307 376
#     4   9  18  36  64  87 115 160 209 254 308 380
#     4   9  19  39  64  92 112 158 219 253 316 387
#     4  11  21  39  57  96 126 160 207 263 317 373
#     4  11  21  38  58  89 129 164 206 257 319 378
#
# _framework density 24.439543
#
# number of rings (size 3 to 8) (size 9 to 14) (size 15 to 20)
#    0.000    1.538    3.077    5.308    0.000    0.000 
#    0.000    3.077    0.000    0.000    0.000    1.077 
#    0.000    0.000    0.000    0.000    0.000    0.000 
#
# Total GULP energy -290691.953556 kJ/mol
# GULP energy per Si atom -5590.229876 kJ/mol
# Density = 2.438392 g / cm^3
# Si number density = 24.439543 Si / 1000 Ang^3
#
#
#
# Elastic Constant Matrix: (Units=GPa)
#
#
# Indices 1 2 3 4 5 6 
#
# 1 167.5342 30.7425 36.4299 0.0000 0.0000 0.0000
# 2 30.7425 117.0592 19.6146 0.0000 0.0000 0.0000
# 3 36.4299 19.6146 67.1659 0.0000 0.0000 0.0000
# 4 0.0000 0.0000 0.0000 20.6528 0.0000 0.0000
# 5 0.0000 0.0000 0.0000 0.0000 28.6541 0.0000
# 6 0.0000 0.0000 0.0000 0.0000 0.0000 29.0092
#
#
#
# Elastic Compliance Matrix: (Units=1/GPa)
#
#
# Indices 1 2 3 4 5 6 
#
# 1 0.006937 -0.001253 -0.003397 0.000000 0.000000 0.000000
# 2 -0.001253 0.009208 -0.002010 0.000000 0.000000 0.000000
# 3 -0.003397 -0.002010 0.017318 0.000000 0.000000 0.000000
# 4 0.000000 0.000000 0.000000 0.048420 0.000000 0.000000
# 5 0.000000 0.000000 0.000000 0.000000 0.034899 0.000000
# 6 0.000000 0.000000 0.000000 0.000000 0.000000 0.034472
#
#
# Mechanical properties :
#
#
# Convention : Reuss Voigt Hill
#
# Bulk Modulus (GPa) = 49.64009 58.37036 54.00523
# Shear Modulus (GPa) = 29.19062 33.32805 31.25933
#
# Velocity S-wave (km/s) = 3.45976 3.69683 3.58026
# Velocity P-wave (km/s) = 6.02623 6.49288 6.26390
#
# Compressibility (1/GPa) = 0.02014501
#
# Stress axis : x y z
#
# Youngs Moduli (GPa) = 144.14483 108.59609 57.74382
#
# Poissons Ratio (x) = 0.13604 0.19615
# Poissons Ratio (y) = 0.18058 0.11605
# Poissons Ratio (z) = 0.48965 0.21824
#
# Static dielectric constant tensor:
#      x y z
#    x 1.978830 0.000000 0.000000 
#    y 0.000000 2.076750 0.000000 
#    z 0.000000 0.000000 2.020320 
# 
# From -- ./inp_files/60441.got.cif
#   From: 2010.05.17/outbox.cif.g08.bks.cpg/sg70_31_cif.got.tgz:60441.got - 2010.06.03 15:57:51.
