data_PCOD9516891
_publ_section_title
;
Structure prediction by ZEFSAII (Michael W. Deem and Ramdas Pophale) SiO2 
 PCOD9516891
Probable space group: F D D D
;
_chemical_formula_sum "Si O2"
_cell_formula_units_Z 96
_cell_length_a 21.650654
_cell_length_b 8.892344
_cell_length_c 21.056429
_cell_angle_alpha 90.000000
_cell_angle_beta 90.000000
_cell_angle_gamma 90.000000
_cell_volume 4053.890324
_symmetry_space_group_name_H-M "F D D D"
_symmetry_group_IT_number 70
_space_group.IT_coordinate_system_code '2'
_symmetry_cell_setting 'orthorhombic'
loop_
_space_group_symop_operation_xyz
x,y,z
1/4-x,1/4-y,z
x,1/4-y,1/4-z
1/4-x,y,1/4-z
-x,-y,-z
3/4+x,3/4+y,-z
-x,3/4+y,3/4+z
3/4+x,-y,3/4+z
x,1/2+y,1/2+z
1/4-x,3/4-y,1/2+z
x,3/4-y,3/4-z
1/4-x,1/2+y,3/4-z
-x,1/2-y,1/2-z
3/4+x,1/4+y,1/2-z
-x,1/4+y,1/4+z
3/4+x,1/2-y,1/4+z
1/2+x,y,1/2+z
3/4-x,1/4-y,1/2+z
1/2+x,1/4-y,3/4-z
3/4-x,y,3/4-z
1/2-x,-y,1/2-z
1/4+x,3/4+y,1/2-z
1/2-x,3/4+y,1/4+z
1/4+x,-y,1/4+z
1/2+x,1/2+y,z
3/4-x,3/4-y,z
1/2+x,3/4-y,1/4-z
3/4-x,1/2+y,1/4-z
1/2-x,1/2-y,-z
1/4+x,1/4+y,-z
1/2-x,1/4+y,3/4+z
1/4+x,1/2-y,3/4+z
loop_
_atom_site_type_symbol
_atom_site_label
_atom_site_fract_x
_atom_site_fract_y
_atom_site_fract_z
Si Si1 0.709341 0.976554 0.312708
Si Si2 0.151548 0.456708 0.749217
Si Si3 0.742998 0.279886 0.599674
O O1 0.726490 0.875000 0.375000
O O2 0.647859 0.901186 0.283333
O O3 0.750000 0.000000 0.250000
O O4 0.718034 0.137161 0.346206
O O5 0.125000 0.625000 0.736906
O O6 0.205890 0.487151 0.798560
O O7 0.185856 0.390556 0.686706
O O8 0.716050 0.125000 0.625000
#
# Coordination Sequence:
#
# PCOD9516891 Si02
#       3
#    32  32  32
#     4  12  27  50  77 115 159 206 267 331 402 479
#     4  11  24  48  79 107 156 212 257 321 405 481
#     4  11  26  46  78 117 147 205 273 320 396 488
#
# _framework density 23.680955999999998
#
# number of rings (size 3 to 8) (size 9 to 14) (size 15 to 20)
#    0.000    0.667    3.333    3.000    4.667    4.667 
#    0.000    1.667    0.000    0.000    0.000    0.000 
#    0.000    0.000    0.000    0.000    0.000    0.000 
#
# Total GULP energy -133791.960771 kJ/mol
# GULP energy per Si atom -5574.665032 kJ/mol
# Density = 2.362706 g / cm^3
# Si number density = 23.680956 Si / 1000 Ang^3
#
#
#
# Elastic Constant Matrix: (Units=GPa)
#
#
# Indices 1 2 3 4 5 6 
#
# 1 275.0737 51.3788 -71.7648 0.0000 0.0000 0.0000
# 2 51.3788 92.0936 64.6134 0.0000 0.0000 0.0000
# 3 -71.7648 64.6134 407.4842 0.0000 0.0000 0.0000
# 4 0.0000 0.0000 0.0000 34.9504 0.0000 0.0000
# 5 0.0000 0.0000 0.0000 0.0000 48.8142 0.0000
# 6 0.0000 0.0000 0.0000 0.0000 0.0000 35.6366
#
#
#
# Elastic Compliance Matrix: (Units=1/GPa)
#
#
# Indices 1 2 3 4 5 6 
#
# 1 0.004666 -0.003578 0.001389 0.000000 0.000000 0.000000
# 2 -0.003578 0.014961 -0.003002 0.000000 0.000000 0.000000
# 3 0.001389 -0.003002 0.003175 0.000000 0.000000 0.000000
# 4 0.000000 0.000000 0.000000 0.028612 0.000000 0.000000
# 5 0.000000 0.000000 0.000000 0.000000 0.020486 0.000000
# 6 0.000000 0.000000 0.000000 0.000000 0.000000 0.028061
#
#
# Mechanical properties :
#
#
# Convention : Reuss Voigt Hill
#
# Bulk Modulus (GPa) = 80.51725 95.90071 88.20898
# Shear Modulus (GPa) = 43.67461 72.57517 58.12489
#
# Velocity S-wave (km/s) = 4.29918 5.54198 4.95967
# Velocity P-wave (km/s) = 7.66281 9.02975 8.37422
#
# Compressibility (1/GPa) = 0.01241970
#
# Stress axis : x y z
#
# Youngs Moduli (GPa) = 214.31377 66.84011 314.97938
#
# Poissons Ratio (x) = 0.23914 -0.43753
# Poissons Ratio (y) = 0.76677 0.94571
# Poissons Ratio (z) = -0.29770 0.20068
#
# Static dielectric constant tensor:
#      x y z
#    x 1.895090 0.000000 0.000000 
#    y 0.000000 2.004710 0.000000 
#    z 0.000000 0.000000 1.966520 
# 
# From -- ./inp_files/44351.got.cif
#   From: 2010.05.17/outbox.cif.g08.bks.cpg/sg70_23_cif.got.tgz:44351.got - 2010.06.03 15:57:51.
