data_PCOD9516974
_publ_section_title
;
Structure prediction by ZEFSAII (Michael W. Deem and Ramdas Pophale) SiO2 
 PCOD9516974
Probable space group: F D D D
;
_chemical_formula_sum "Si O2"
_cell_formula_units_Z 96
_cell_length_a 10.769671
_cell_length_b 31.428302
_cell_length_c 10.083440
_cell_angle_alpha 90.000000
_cell_angle_beta 90.000000
_cell_angle_gamma 90.000000
_cell_volume 3412.966869
_symmetry_space_group_name_H-M "F D D D"
_symmetry_group_IT_number 70
_space_group.IT_coordinate_system_code '2'
_symmetry_cell_setting 'orthorhombic'
loop_
_space_group_symop_operation_xyz
x,y,z
1/4-x,1/4-y,z
x,1/4-y,1/4-z
1/4-x,y,1/4-z
-x,-y,-z
3/4+x,3/4+y,-z
-x,3/4+y,3/4+z
3/4+x,-y,3/4+z
x,1/2+y,1/2+z
1/4-x,3/4-y,1/2+z
x,3/4-y,3/4-z
1/4-x,1/2+y,3/4-z
-x,1/2-y,1/2-z
3/4+x,1/4+y,1/2-z
-x,1/4+y,1/4+z
3/4+x,1/2-y,1/4+z
1/2+x,y,1/2+z
3/4-x,1/4-y,1/2+z
1/2+x,1/4-y,3/4-z
3/4-x,y,3/4-z
1/2-x,-y,1/2-z
1/4+x,3/4+y,1/2-z
1/2-x,3/4+y,1/4+z
1/4+x,-y,1/4+z
1/2+x,1/2+y,z
3/4-x,3/4-y,z
1/2+x,3/4-y,1/4-z
3/4-x,1/2+y,1/4-z
1/2-x,1/2-y,-z
1/4+x,1/4+y,-z
1/2-x,1/4+y,3/4+z
1/4+x,1/2-y,3/4+z
loop_
_atom_site_type_symbol
_atom_site_label
_atom_site_fract_x
_atom_site_fract_y
_atom_site_fract_z
Si Si1 0.125000 0.554489 0.125000
Si Si2 0.267547 0.219392 0.275952
Si Si3 0.516315 0.940555 0.522917
Si Si4 0.375000 0.875000 0.089643
O O1 0.034881 0.519629 0.190592
O O2 0.163988 0.587143 0.240002
O O3 0.375000 0.202016 0.375000
O O4 0.233120 0.107877 0.314705
O O5 0.293202 0.200127 0.130390
O O6 0.625000 0.953093 0.625000
O O7 0.379725 0.961584 0.543352
#
# Coordination Sequence:
#
# PCOD9516974 Si02
#       4
#    16  32  32  16
#     4   9  24  56  86 132 188 248 292 386 474 542
#     4   9  24  54  91 129 181 236 309 380 458 542
#     4  11  26  53  93 136 174 243 318 378 452 556
#     4  11  26  51  84 136 191 239 304 382 469 545
#
# _framework density 28.128019999999999
#
# number of rings (size 3 to 8) (size 9 to 14) (size 15 to 20)
#    1.000    1.000    0.000    0.000    0.000   13.333 
#   12.000   10.000    7.333    2.000    0.000    0.000 
#    0.000    0.000    0.000    0.000    0.000    0.000 
#
# Total GULP energy -133938.087889 kJ/mol
# GULP energy per Si atom -5580.753662 kJ/mol
# Density = 2.806400 g / cm^3
# Si number density = 28.128020 Si / 1000 Ang^3
#
#
#
# Elastic Constant Matrix: (Units=GPa)
#
#
# Indices 1 2 3 4 5 6 
#
# 1 245.6889 71.7721 175.5296 0.0000 0.0000 0.0000
# 2 71.7721 158.2329 117.3876 0.0000 0.0000 0.0000
# 3 175.5296 117.3876 297.8800 0.0000 0.0000 0.0000
# 4 0.0000 0.0000 0.0000 43.6102 0.0000 0.0000
# 5 0.0000 0.0000 0.0000 0.0000 68.2943 0.0000
# 6 0.0000 0.0000 0.0000 0.0000 0.0000 59.1264
#
#
#
# Elastic Compliance Matrix: (Units=1/GPa)
#
#
# Indices 1 2 3 4 5 6 
#
# 1 0.007033 -0.000163 -0.004080 0.000000 0.000000 0.000000
# 2 -0.000163 0.008935 -0.003425 0.000000 0.000000 0.000000
# 3 -0.004080 -0.003425 0.007111 0.000000 0.000000 0.000000
# 4 0.000000 0.000000 0.000000 0.022930 0.000000 0.000000
# 5 0.000000 0.000000 0.000000 0.000000 0.014643 0.000000
# 6 0.000000 0.000000 0.000000 0.000000 0.000000 0.016913
#
#
# Mechanical properties :
#
#
# Convention : Reuss Voigt Hill
#
# Bulk Modulus (GPa) = 129.15811 159.02005 144.08908
# Shear Modulus (GPa) = 52.36718 56.68035 54.52377
#
# Velocity S-wave (km/s) = 4.31947 4.49384 4.40752
# Velocity P-wave (km/s) = 8.41990 9.14239 8.78857
#
# Compressibility (1/GPa) = 0.00774245
#
# Stress axis : x y z
#
# Youngs Moduli (GPa) = 142.19546 111.92561 140.63426
#
# Poissons Ratio (x) = 0.01828 0.57374
# Poissons Ratio (y) = 0.02322 0.48162
# Poissons Ratio (z) = 0.58011 0.38331
#
# Static dielectric constant tensor:
#      x y z
#    x 2.237350 0.000000 0.000000 
#    y 0.000000 2.397080 0.000000 
#    z 0.000000 0.000000 2.258110 
# 
# From -- ./inp_files/16074.got.cif
#   From: 2010.05.17/outbox.cif.g08.bks.cpg/sg70_9_cif.got.tgz:16074.got - 2010.06.03 15:57:51.
