data_PCOD9516011
_publ_section_title
;
Structure prediction by ZEFSAII (Michael W. Deem and Ramdas Pophale) SiO2 
 PCOD9516011
Probable space group: F D D D
;
_chemical_formula_sum "Si O2"
_cell_formula_units_Z 152
_cell_length_a 20.396102
_cell_length_b 13.585151
_cell_length_c 24.991166
_cell_angle_alpha 90.000000
_cell_angle_beta 90.000000
_cell_angle_gamma 90.000000
_cell_volume 6924.655376
_symmetry_space_group_name_H-M "F D D D"
_symmetry_group_IT_number 70
_space_group.IT_coordinate_system_code '2'
_symmetry_cell_setting 'orthorhombic'
loop_
_space_group_symop_operation_xyz
x,y,z
1/4-x,1/4-y,z
x,1/4-y,1/4-z
1/4-x,y,1/4-z
-x,-y,-z
3/4+x,3/4+y,-z
-x,3/4+y,3/4+z
3/4+x,-y,3/4+z
x,1/2+y,1/2+z
1/4-x,3/4-y,1/2+z
x,3/4-y,3/4-z
1/4-x,1/2+y,3/4-z
-x,1/2-y,1/2-z
3/4+x,1/4+y,1/2-z
-x,1/4+y,1/4+z
3/4+x,1/2-y,1/4+z
1/2+x,y,1/2+z
3/4-x,1/4-y,1/2+z
1/2+x,1/4-y,3/4-z
3/4-x,y,3/4-z
1/2-x,-y,1/2-z
1/4+x,3/4+y,1/2-z
1/2-x,3/4+y,1/4+z
1/4+x,-y,1/4+z
1/2+x,1/2+y,z
3/4-x,3/4-y,z
1/2+x,3/4-y,1/4-z
3/4-x,1/2+y,1/4-z
1/2-x,1/2-y,-z
1/4+x,1/4+y,-z
1/2-x,1/4+y,3/4+z
1/4+x,1/2-y,3/4+z
loop_
_atom_site_type_symbol
_atom_site_label
_atom_site_fract_x
_atom_site_fract_y
_atom_site_fract_z
Si Si1 0.353609 0.125000 0.625000
Si Si2 0.303509 0.408883 0.738800
Si Si3 0.125000 0.125000 0.625000
Si Si4 0.555409 0.092665 0.881343
Si Si5 0.075250 0.384318 0.263142
Si Si6 0.448215 0.722980 0.797539
O O1 0.312933 0.225745 0.629979
O O2 0.398041 0.134093 0.572754
O O3 0.375000 0.375000 0.755346
O O4 0.300701 0.401142 0.674023
O O5 0.249555 0.330037 0.759368
O O6 0.307987 0.523517 0.755586
O O7 0.171669 0.190247 0.586240
O O8 0.625000 0.125000 0.907626
O O9 0.490845 0.102018 0.916623
O O10 0.131686 0.431143 0.227893
O O11 0.500000 0.750000 0.750000
#
# Coordination Sequence:
#
# PCOD9516011 Si02
#       6
#    16  32   8  32  32  32
#     4  12  21  42  67 103 139 184 250 294 373 446
#     4  10  22  45  69  92 139 185 236 303 360 422
#     4  12  30  52  68 120 160 188 262 328 370 470
#     4  11  23  43  68 101 143 193 236 308 370 444
#     4  11  24  42  69 102 130 193 244 291 363 444
#     4  12  27  43  76 109 150 196 246 310 388 450
#
# _framework density 21.950551000000001
#
# number of rings (size 3 to 8) (size 9 to 14) (size 15 to 20)
#    0.000    0.842    6.316    1.895    1.474    3.368 
#    0.000    0.526    0.000    0.000    0.000    0.000 
#    0.000    0.000    0.000    0.000    0.000    0.000 
#
# Total GULP energy -211934.191192 kJ/mol
# GULP energy per Si atom -5577.215558 kJ/mol
# Density = 2.190059 g / cm^3
# Si number density = 21.950551 Si / 1000 Ang^3
#
#
#
# Elastic Constant Matrix: (Units=GPa)
#
#
# Indices 1 2 3 4 5 6 
#
# 1 188.0085 38.2901 73.6239 0.0000 0.0000 0.0000
# 2 38.2901 74.9354 32.8218 0.0000 0.0000 0.0000
# 3 73.6239 32.8218 87.8403 0.0000 0.0000 0.0000
# 4 0.0000 0.0000 0.0000 47.3804 0.0000 0.0000
# 5 0.0000 0.0000 0.0000 0.0000 -35.7691 0.0000
# 6 0.0000 0.0000 0.0000 0.0000 0.0000 26.1059
#
#
#
# Elastic Compliance Matrix: (Units=1/GPa)
#
#
# Indices 1 2 3 4 5 6 
#
# 1 0.008036 -0.001382 -0.006219 0.000000 0.000000 0.000000
# 2 -0.001382 0.016194 -0.004892 0.000000 0.000000 0.000000
# 3 -0.006219 -0.004892 0.018425 0.000000 0.000000 0.000000
# 4 0.000000 0.000000 0.000000 0.021106 0.000000 0.000000
# 5 0.000000 0.000000 0.000000 0.000000 -0.027957 0.000000
# 6 0.000000 0.000000 0.000000 0.000000 0.000000 0.038305
#
#
# Mechanical properties :
#
#
# Convention : Reuss Voigt Hill
#
# Bulk Modulus (GPa) = 56.60075 71.13953 63.87014
# Shear Modulus (GPa) = 47.62630 21.28001 34.45316
#
# Velocity S-wave (km/s) = 4.66307 3.11698 3.96609
# Velocity P-wave (km/s) = 7.40498 6.74043 7.08051
#
# Compressibility (1/GPa) = 0.01766761
#
# Stress axis : x y z
#
# Youngs Moduli (GPa) = 124.44583 61.75135 54.27544
#
# Poissons Ratio (x) = 0.08535 0.33752
# Poissons Ratio (y) = 0.17201 0.26554
# Poissons Ratio (z) = 0.77388 0.30211
#
# Static dielectric constant tensor:
#      x y z
#    x 9.574050 0.000000 0.000000 
#    y 0.000000 0.260540 0.000000 
#    z 0.000000 0.000000 1.879290 
# 
# From -- ./inp_files/42778.got.cif
#   From: 2010.05.17/outbox.cif.g08.bks.cpg/sg70_22_cif.got.tgz:42778.got - 2010.06.03 15:57:51.
