data_PCOD9516455
_publ_section_title
;
Structure prediction by ZEFSAII (Michael W. Deem and Ramdas Pophale) SiO2 
 PCOD9516455
Probable space group: F D D D
;
_chemical_formula_sum "Si O2"
_cell_formula_units_Z 56
_cell_length_a 7.002124
_cell_length_b 26.973816
_cell_length_c 10.522967
_cell_angle_alpha 90.000000
_cell_angle_beta 90.000000
_cell_angle_gamma 90.000000
_cell_volume 1987.514915
_symmetry_space_group_name_H-M "F D D D"
_symmetry_group_IT_number 70
_space_group.IT_coordinate_system_code '2'
_symmetry_cell_setting 'orthorhombic'
loop_
_space_group_symop_operation_xyz
x,y,z
1/4-x,1/4-y,z
x,1/4-y,1/4-z
1/4-x,y,1/4-z
-x,-y,-z
3/4+x,3/4+y,-z
-x,3/4+y,3/4+z
3/4+x,-y,3/4+z
x,1/2+y,1/2+z
1/4-x,3/4-y,1/2+z
x,3/4-y,3/4-z
1/4-x,1/2+y,3/4-z
-x,1/2-y,1/2-z
3/4+x,1/4+y,1/2-z
-x,1/4+y,1/4+z
3/4+x,1/2-y,1/4+z
1/2+x,y,1/2+z
3/4-x,1/4-y,1/2+z
1/2+x,1/4-y,3/4-z
3/4-x,y,3/4-z
1/2-x,-y,1/2-z
1/4+x,3/4+y,1/2-z
1/2-x,3/4+y,1/4+z
1/4+x,-y,1/4+z
1/2+x,1/2+y,z
3/4-x,3/4-y,z
1/2+x,3/4-y,1/4-z
3/4-x,1/2+y,1/4-z
1/2-x,1/2-y,-z
1/4+x,1/4+y,-z
1/2-x,1/4+y,3/4+z
1/4+x,1/2-y,3/4+z
loop_
_atom_site_type_symbol
_atom_site_label
_atom_site_fract_x
_atom_site_fract_y
_atom_site_fract_z
Si Si1 0.375000 0.960685 0.375000
Si Si2 0.625000 0.625000 0.625000
Si Si3 0.352373 0.947306 0.642584
O O1 0.417173 0.930263 0.501490
O O2 0.551959 0.998272 0.350243
O O3 0.582373 0.666267 0.513530
O O4 0.125000 0.945813 0.625000
#
# Coordination Sequence:
#
# PCOD9516455 Si02
#       3
#    16   8  32
#     4  10  26  49  82 103 138 200 254 285 362 431
#     4  12  32  42  74 114 152 188 240 298 382 422
#     4  11  27  49  74 109 145 190 242 306 354 437
#
# _framework density 28.175888
#
# number of rings (size 3 to 8) (size 9 to 14) (size 15 to 20)
#    0.000    1.143    0.000    1.714   24.000    1.143 
#    0.000    2.857    0.000    0.000    0.000    0.000 
#    0.000    0.000    0.000    0.000    0.000    0.000 
#
# Total GULP energy -77983.488566 kJ/mol
# GULP energy per Si atom -5570.249183 kJ/mol
# Density = 2.811176 g / cm^3
# Si number density = 28.175888 Si / 1000 Ang^3
#
#
#
# Elastic Constant Matrix: (Units=GPa)
#
#
# Indices 1 2 3 4 5 6 
#
# 1 223.0228 42.6358 6.6148 0.0000 0.0000 0.0000
# 2 42.6358 147.0939 92.3124 0.0000 0.0000 0.0000
# 3 6.6148 92.3124 402.4310 0.0000 0.0000 0.0000
# 4 0.0000 0.0000 0.0000 -48.9913 0.0000 0.0000
# 5 0.0000 0.0000 0.0000 0.0000 8.1513 0.0000
# 6 0.0000 0.0000 0.0000 0.0000 0.0000 -55.9199
#
#
#
# Elastic Compliance Matrix: (Units=1/GPa)
#
#
# Indices 1 2 3 4 5 6 
#
# 1 0.004774 -0.001559 0.000279 0.000000 0.000000 0.000000
# 2 -0.001559 0.008451 -0.001913 0.000000 0.000000 0.000000
# 3 0.000279 -0.001913 0.002919 0.000000 0.000000 0.000000
# 4 0.000000 0.000000 0.000000 -0.020412 0.000000 0.000000
# 5 0.000000 0.000000 0.000000 0.000000 0.122680 0.000000
# 6 0.000000 0.000000 0.000000 0.000000 0.000000 -0.017883
#
#
# Mechanical properties :
#
#
# Convention : Reuss Voigt Hill
#
# Bulk Modulus (GPa) = 102.47759 117.29711 109.88735
# Shear Modulus (GPa) = 45.38578 22.71366 34.04972
#
# Velocity S-wave (km/s) = 4.01783 2.84234 3.48008
# Velocity P-wave (km/s) = 7.61404 7.24517 7.43190
#
# Compressibility (1/GPa) = 0.00975823
#
# Stress axis : x y z
#
# Youngs Moduli (GPa) = 209.48694 118.33400 342.57215
#
# Poissons Ratio (x) = 0.18446 -0.09561
# Poissons Ratio (y) = 0.32655 0.65529
# Poissons Ratio (z) = -0.05847 0.22636
#
# Static dielectric constant tensor:
#      x y z
#    x 2.311400 0.000000 0.000000 
#    y 0.000000 2.120370 0.000000 
#    z 0.000000 0.000000 2.239570 
# 
# From -- ./inp_files/4851.got.cif
#   From: 2010.05.17/outbox.cif.g08.bks.cpg/sg70_3_cif.got.tgz:4851.got - 2010.06.03 15:57:51.
