data_PCOD9516774
_publ_section_title
;
Structure prediction by ZEFSAII (Michael W. Deem and Ramdas Pophale) SiO2 
 PCOD9516774
Probable space group: F D D D
;
_chemical_formula_sum "Si O2"
_cell_formula_units_Z 208
_cell_length_a 16.201946
_cell_length_b 22.811137
_cell_length_c 25.105589
_cell_angle_alpha 90.000000
_cell_angle_beta 90.000000
_cell_angle_gamma 90.000000
_cell_volume 9278.644337
_symmetry_space_group_name_H-M "F D D D"
_symmetry_group_IT_number 70
_space_group.IT_coordinate_system_code '2'
_symmetry_cell_setting 'orthorhombic'
loop_
_space_group_symop_operation_xyz
x,y,z
1/4-x,1/4-y,z
x,1/4-y,1/4-z
1/4-x,y,1/4-z
-x,-y,-z
3/4+x,3/4+y,-z
-x,3/4+y,3/4+z
3/4+x,-y,3/4+z
x,1/2+y,1/2+z
1/4-x,3/4-y,1/2+z
x,3/4-y,3/4-z
1/4-x,1/2+y,3/4-z
-x,1/2-y,1/2-z
3/4+x,1/4+y,1/2-z
-x,1/4+y,1/4+z
3/4+x,1/2-y,1/4+z
1/2+x,y,1/2+z
3/4-x,1/4-y,1/2+z
1/2+x,1/4-y,3/4-z
3/4-x,y,3/4-z
1/2-x,-y,1/2-z
1/4+x,3/4+y,1/2-z
1/2-x,3/4+y,1/4+z
1/4+x,-y,1/4+z
1/2+x,1/2+y,z
3/4-x,3/4-y,z
1/2+x,3/4-y,1/4-z
3/4-x,1/2+y,1/4-z
1/2-x,1/2-y,-z
1/4+x,1/4+y,-z
1/2-x,1/4+y,3/4+z
1/4+x,1/2-y,3/4+z
loop_
_atom_site_type_symbol
_atom_site_label
_atom_site_fract_x
_atom_site_fract_y
_atom_site_fract_z
Si Si1 0.121437 0.524392 0.223530
Si Si2 0.587773 0.823261 0.446880
Si Si3 0.987925 0.373470 0.937173
Si Si4 0.375000 0.185868 0.375000
Si Si5 0.708076 0.655709 0.010019
Si Si6 0.214470 0.647828 0.386453
Si Si7 0.778951 0.773126 0.888053
O O1 0.116999 0.488159 0.277719
O O2 0.191513 0.574072 0.218193
O O3 0.133200 0.477596 0.176377
O O4 0.038605 0.561793 0.212181
O O5 0.666479 0.863400 0.438634
O O6 0.529253 0.857140 0.487633
O O7 0.533033 0.813702 0.394910
O O8 0.962697 0.375000 0.875000
O O9 0.289980 0.148242 0.369728
O O10 0.625000 0.625000 0.030843
O O11 0.728818 0.708754 0.049827
O O12 0.695900 0.666347 0.947809
O O13 0.125000 0.625000 0.364962
O O14 0.252612 0.708971 0.367063
O O15 0.875000 0.781157 0.875000
#
# Coordination Sequence:
#
# PCOD9516774 Si02
#       7
#    32  32  32  16  32  32  32
#     4  11  24  45  72 101 142 186 236 300 357 431
#     4  12  26  42  71 107 137 187 240 294 359 432
#     4  11  23  45  72 104 137 189 243 297 361 425
#     4  12  22  45  74  96 145 186 234 296 362 428
#     4  11  23  45  69  98 138 181 236 290 353 424
#     4  11  27  45  70 104 138 188 238 293 367 429
#     4  12  25  45  70 102 146 188 236 302 357 431
#
# _framework density 22.417065999999998
#
# number of rings (size 3 to 8) (size 9 to 14) (size 15 to 20)
#    0.000    0.615    5.385    2.769    2.154    3.692 
#    2.769    0.000    0.000    0.000    0.000    0.000 
#    0.000    0.000    0.000    0.000    0.000    0.000 
#
# Total GULP energy -290565.528951 kJ/mol
# GULP energy per Si atom -5587.798634 kJ/mol
# Density = 2.236604 g / cm^3
# Si number density = 22.417066 Si / 1000 Ang^3
#
#
#
# Elastic Constant Matrix: (Units=GPa)
#
#
# Indices 1 2 3 4 5 6 
#
# 1 159.8638 36.9712 16.1928 0.0000 0.0000 0.0000
# 2 36.9712 100.1577 4.7749 0.0000 0.0000 0.0000
# 3 16.1928 4.7749 49.3842 0.0000 0.0000 0.0000
# 4 0.0000 0.0000 0.0000 14.9560 0.0000 0.0000
# 5 0.0000 0.0000 0.0000 0.0000 40.9839 0.0000
# 6 0.0000 0.0000 0.0000 0.0000 0.0000 50.7068
#
#
#
# Elastic Compliance Matrix: (Units=1/GPa)
#
#
# Indices 1 2 3 4 5 6 
#
# 1 0.007043 -0.002501 -0.002068 0.000000 0.000000 0.000000
# 2 -0.002501 0.010919 -0.000236 0.000000 0.000000 0.000000
# 3 -0.002068 -0.000236 0.020950 0.000000 0.000000 0.000000
# 4 0.000000 0.000000 0.000000 0.066863 0.000000 0.000000
# 5 0.000000 0.000000 0.000000 0.000000 0.024400 0.000000
# 6 0.000000 0.000000 0.000000 0.000000 0.000000 0.019721
#
#
# Mechanical properties :
#
#
# Convention : Reuss Voigt Hill
#
# Bulk Modulus (GPa) = 34.12594 47.25371 40.68982
# Shear Modulus (GPa) = 29.53815 38.09379 33.81597
#
# Velocity S-wave (km/s) = 3.63390 4.12675 3.88814
# Velocity P-wave (km/s) = 5.73265 6.62057 6.19254
#
# Compressibility (1/GPa) = 0.02930323
#
# Stress axis : x y z
#
# Youngs Moduli (GPa) = 141.98052 91.58526 47.73247
#
# Poissons Ratio (x) = 0.22908 0.09869
# Poissons Ratio (y) = 0.35513 0.01124
# Poissons Ratio (z) = 0.29356 0.02157
#
# Static dielectric constant tensor:
#      x y z
#    x 1.349060 0.000000 0.000000 
#    y 0.000000 1.871990 0.000000 
#    z 0.000000 0.000000 1.881800 
# 
# From -- ./inp_files/59624.got.cif
#   From: 2010.05.17/outbox.cif.g08.bks.cpg/sg70_30_cif.got.tgz:59624.got - 2010.06.03 15:57:51.
