data_PCOD9516079
_publ_section_title
;
Structure prediction by ZEFSAII (Michael W. Deem and Ramdas Pophale) SiO2 
 PCOD9516079
Probable space group: F D D D
;
_chemical_formula_sum "Si O2"
_cell_formula_units_Z 192
_cell_length_a 20.548145
_cell_length_b 27.116500
_cell_length_c 18.273505
_cell_angle_alpha 90.000000
_cell_angle_beta 90.000000
_cell_angle_gamma 90.000000
_cell_volume 10181.883213
_symmetry_space_group_name_H-M "F D D D"
_symmetry_group_IT_number 70
_space_group.IT_coordinate_system_code '2'
_symmetry_cell_setting 'orthorhombic'
loop_
_space_group_symop_operation_xyz
x,y,z
1/4-x,1/4-y,z
x,1/4-y,1/4-z
1/4-x,y,1/4-z
-x,-y,-z
3/4+x,3/4+y,-z
-x,3/4+y,3/4+z
3/4+x,-y,3/4+z
x,1/2+y,1/2+z
1/4-x,3/4-y,1/2+z
x,3/4-y,3/4-z
1/4-x,1/2+y,3/4-z
-x,1/2-y,1/2-z
3/4+x,1/4+y,1/2-z
-x,1/4+y,1/4+z
3/4+x,1/2-y,1/4+z
1/2+x,y,1/2+z
3/4-x,1/4-y,1/2+z
1/2+x,1/4-y,3/4-z
3/4-x,y,3/4-z
1/2-x,-y,1/2-z
1/4+x,3/4+y,1/2-z
1/2-x,3/4+y,1/4+z
1/4+x,-y,1/4+z
1/2+x,1/2+y,z
3/4-x,3/4-y,z
1/2+x,3/4-y,1/4-z
3/4-x,1/2+y,1/4-z
1/2-x,1/2-y,-z
1/4+x,1/4+y,-z
1/2-x,1/4+y,3/4+z
1/4+x,1/2-y,3/4+z
loop_
_atom_site_type_symbol
_atom_site_label
_atom_site_fract_x
_atom_site_fract_y
_atom_site_fract_z
Si Si1 0.234643 0.984993 0.959141
Si Si2 0.898522 0.255051 0.292368
Si Si3 0.189792 0.316419 0.791854
Si Si4 0.484744 0.570234 0.042383
Si Si5 0.536637 0.293904 0.290742
Si Si6 0.448336 0.883827 0.786306
O O1 0.224809 0.970519 0.875147
O O2 0.273989 0.936772 0.986990
O O3 0.164531 0.996407 0.993003
O O4 0.276408 0.032337 0.981387
O O5 0.875000 0.250398 0.375000
O O6 0.948080 0.212421 0.267789
O O7 0.939041 0.306198 0.285272
O O8 0.212556 0.303792 0.875322
O O9 0.212500 0.373232 0.783616
O O10 0.113023 0.305887 0.784092
O O11 0.500000 0.250000 0.250000
O O12 0.499135 0.342425 0.263647
O O13 0.445933 0.875000 0.875000
O O14 0.375000 0.875000 0.759516
#
# Coordination Sequence:
#
# PCOD9516079 Si02
#       6
#    32  32  32  32  32  32
#     4  11  22  39  64  92 125 165 208 263 314 376
#     4  11  21  41  65  92 122 165 215 265 314 371
#     4  11  22  41  64  91 125 170 211 258 318 387
#     4  10  23  40  64  91 123 169 217 256 317 385
#     4  11  23  40  65  94 127 163 206 262 318 384
#     4   9  19  37  62  88 121 165 205 247 313 387
#
# _framework density 18.857022000000001
#
# number of rings (size 3 to 8) (size 9 to 14) (size 15 to 20)
#    0.000    1.500    3.333    2.000    4.667    2.667 
#    6.000    0.000    3.667    0.000    0.000    0.000 
#    0.000    0.000    0.000    0.000    0.000    0.000 
#
# Total GULP energy -267507.504323 kJ/mol
# GULP energy per Si atom -5573.073007 kJ/mol
# Density = 1.881410 g / cm^3
# Si number density = 18.857022 Si / 1000 Ang^3
#
#
#
# Elastic Constant Matrix: (Units=GPa)
#
#
# Indices 1 2 3 4 5 6 
#
# 1 167.2753 66.5002 43.7985 0.0000 0.0000 0.0000
# 2 66.5002 104.6909 32.6783 0.0000 0.0000 0.0000
# 3 43.7985 32.6783 43.4305 0.0000 0.0000 0.0000
# 4 0.0000 0.0000 0.0000 22.5115 0.0000 0.0000
# 5 0.0000 0.0000 0.0000 0.0000 26.5572 0.0000
# 6 0.0000 0.0000 0.0000 0.0000 0.0000 37.9024
#
#
#
# Elastic Compliance Matrix: (Units=1/GPa)
#
#
# Indices 1 2 3 4 5 6 
#
# 1 0.009169 -0.003840 -0.006358 0.000000 0.000000 0.000000
# 2 -0.003840 0.014092 -0.006731 0.000000 0.000000 0.000000
# 3 -0.006358 -0.006731 0.034501 0.000000 0.000000 0.000000
# 4 0.000000 0.000000 0.000000 0.044422 0.000000 0.000000
# 5 0.000000 0.000000 0.000000 0.000000 0.037655 0.000000
# 6 0.000000 0.000000 0.000000 0.000000 0.000000 0.026384
#
#
# Mechanical properties :
#
#
# Convention : Reuss Voigt Hill
#
# Bulk Modulus (GPa) = 41.83086 66.81673 54.32380
# Shear Modulus (GPa) = 24.03286 28.88887 26.46087
#
# Velocity S-wave (km/s) = 3.57386 3.91832 3.75004
# Velocity P-wave (km/s) = 6.26588 7.48206 6.90081
#
# Compressibility (1/GPa) = 0.02390580
#
# Stress axis : x y z
#
# Youngs Moduli (GPa) = 109.05800 70.96222 28.98431
#
# Poissons Ratio (x) = 0.27249 0.18428
# Poissons Ratio (y) = 0.41877 0.19509
# Poissons Ratio (z) = 0.69338 0.47763
#
# Static dielectric constant tensor:
#      x y z
#    x 1.700040 0.000000 0.000000 
#    y 0.000000 1.786530 0.000000 
#    z 0.000000 0.000000 1.703870 
# 
# From -- ./inp_files/44945.got.cif
#   From: 2010.05.17/outbox.cif.g08.bks.cpg/sg70_23_cif.got.tgz:44945.got - 2010.06.03 15:57:51.
