data_PCOD9516234
_publ_section_title
;
Structure prediction by ZEFSAII (Michael W. Deem and Ramdas Pophale) SiO2 
 PCOD9516234
Probable space group: F D D D
;
_chemical_formula_sum "Si O2"
_cell_formula_units_Z 208
_cell_length_a 21.691832
_cell_length_b 25.256344
_cell_length_c 17.172161
_cell_angle_alpha 90.000000
_cell_angle_beta 90.000000
_cell_angle_gamma 90.000000
_cell_volume 9407.877807
_symmetry_space_group_name_H-M "F D D D"
_symmetry_group_IT_number 70
_space_group.IT_coordinate_system_code '2'
_symmetry_cell_setting 'orthorhombic'
loop_
_space_group_symop_operation_xyz
x,y,z
1/4-x,1/4-y,z
x,1/4-y,1/4-z
1/4-x,y,1/4-z
-x,-y,-z
3/4+x,3/4+y,-z
-x,3/4+y,3/4+z
3/4+x,-y,3/4+z
x,1/2+y,1/2+z
1/4-x,3/4-y,1/2+z
x,3/4-y,3/4-z
1/4-x,1/2+y,3/4-z
-x,1/2-y,1/2-z
3/4+x,1/4+y,1/2-z
-x,1/4+y,1/4+z
3/4+x,1/2-y,1/4+z
1/2+x,y,1/2+z
3/4-x,1/4-y,1/2+z
1/2+x,1/4-y,3/4-z
3/4-x,y,3/4-z
1/2-x,-y,1/2-z
1/4+x,3/4+y,1/2-z
1/2-x,3/4+y,1/4+z
1/4+x,-y,1/4+z
1/2+x,1/2+y,z
3/4-x,3/4-y,z
1/2+x,3/4-y,1/4-z
3/4-x,1/2+y,1/4-z
1/2-x,1/2-y,-z
1/4+x,1/4+y,-z
1/2-x,1/4+y,3/4+z
1/4+x,1/2-y,3/4+z
loop_
_atom_site_type_symbol
_atom_site_label
_atom_site_fract_x
_atom_site_fract_y
_atom_site_fract_z
Si Si1 0.875000 0.875000 0.375000
Si Si2 0.779425 0.963889 0.895080
Si Si3 0.313114 0.070142 0.322204
Si Si4 0.005858 0.621375 0.038291
Si Si5 0.149049 0.935090 0.356403
Si Si6 0.198474 0.820848 0.112031
Si Si7 0.625000 0.125000 0.625000
Si Si8 0.468136 0.237756 0.053920
O O1 0.825009 0.851579 0.437719
O O2 0.708377 0.949164 0.907010
O O3 0.822056 0.919834 0.853471
O O4 0.778023 0.017742 0.846544
O O5 0.804861 0.977277 0.981002
O O6 0.375000 0.070343 0.375000
O O7 0.330578 0.065120 0.233314
O O8 0.281994 0.126360 0.339947
O O9 0.979488 0.625000 0.125000
O O10 0.998636 0.683993 0.017051
O O11 0.969845 0.586091 0.975883
O O12 0.136623 0.875000 0.375000
O O13 0.089966 0.972673 0.357668
O O14 0.125000 0.814503 0.125000
O O15 0.233067 0.770054 0.145384
#
# Coordination Sequence:
#
# PCOD9516234 Si02
#       8
#     8  32  32  32  32  32   8  32
#     4   8  24  44  76  98 148 208 254 334 404 442
#     4  12  24  45  73 105 150 194 244 309 383 460
#     4  11  21  46  72  98 148 194 240 314 386 446
#     4  10  23  48  74 100 149 203 256 321 388 473
#     4  12  25  44  72 109 143 198 253 307 388 470
#     4  11  25  44  75 111 150 196 261 322 389 472
#     4  12  24  44  68 110 148 180 252 300 362 480
#     4  12  25  45  71 110 149 197 249 317 389 469
#
# _framework density 22.109131000000001
#
# number of rings (size 3 to 8) (size 9 to 14) (size 15 to 20)
#    0.462    0.308    4.615    2.769    1.077    3.077 
#    0.000    0.000    0.000    0.000    0.000    0.000 
#    0.000    0.000    0.000    0.000    0.000    0.000 
#
# Total GULP energy -289546.249167 kJ/mol
# GULP energy per Si atom -5568.197099 kJ/mol
# Density = 2.205881 g / cm^3
# Si number density = 22.109131 Si / 1000 Ang^3
#
#
#
# Elastic Constant Matrix: (Units=GPa)
#
#
# Indices 1 2 3 4 5 6 
#
# 1 144.1066 59.7497 22.7319 0.0000 0.0000 0.0000
# 2 59.7497 89.0099 26.0575 0.0000 0.0000 0.0000
# 3 22.7319 26.0575 90.1849 0.0000 0.0000 0.0000
# 4 0.0000 0.0000 0.0000 -5.6504 0.0000 0.0000
# 5 0.0000 0.0000 0.0000 0.0000 33.3878 0.0000
# 6 0.0000 0.0000 0.0000 0.0000 0.0000 43.9897
#
#
#
# Elastic Compliance Matrix: (Units=1/GPa)
#
#
# Indices 1 2 3 4 5 6 
#
# 1 0.009646 -0.006296 -0.000612 0.000000 0.000000 0.000000
# 2 -0.006296 0.016382 -0.003146 0.000000 0.000000 0.000000
# 3 -0.000612 -0.003146 0.012152 0.000000 0.000000 0.000000
# 4 0.000000 0.000000 0.000000 -0.176978 0.000000 0.000000
# 5 0.000000 0.000000 0.000000 0.000000 0.029951 0.000000
# 6 0.000000 0.000000 0.000000 0.000000 0.000000 0.022733
#
#
# Mechanical properties :
#
#
# Convention : Reuss Voigt Hill
#
# Bulk Modulus (GPa) = 55.33796 60.04219 57.69007
# Shear Modulus (GPa) = -83.35956 28.66290 -27.34833
#
# Velocity S-wave (km/s) = -6.14699 3.60450 -3.52087
# Velocity P-wave (km/s) = 5.02960 6.67378 3.10181
#
# Compressibility (1/GPa) = 0.01807078
#
# Stress axis : x y z
#
# Youngs Moduli (GPa) = 103.66583 61.04197 82.29259
#
# Poissons Ratio (x) = 0.38432 0.05039
# Poissons Ratio (y) = 0.65269 0.25892
# Poissons Ratio (z) = 0.06348 0.19206
#
# Static dielectric constant tensor:
#      x y z
#    x 1.953520 0.000000 0.000000 
#    y 0.000000 1.838190 0.000000 
#    z 0.000000 0.000000 1.764800 
# 
# From -- ./inp_files/37760.got.cif
#   From: 2010.05.17/outbox.cif.g08.bks.cpg/sg70_19_cif.got.tgz:37760.got - 2010.06.03 15:57:51.
