data_PCOD9516658
_publ_section_title
;
Structure prediction by ZEFSAII (Michael W. Deem and Ramdas Pophale) SiO2 
 PCOD9516658
Probable space group: F D D D
;
_chemical_formula_sum "Si O2"
_cell_formula_units_Z 112
_cell_length_a 25.654643
_cell_length_b 18.070172
_cell_length_c 10.014017
_cell_angle_alpha 90.000000
_cell_angle_beta 90.000000
_cell_angle_gamma 90.000000
_cell_volume 4642.336170
_symmetry_space_group_name_H-M "F D D D"
_symmetry_group_IT_number 70
_space_group.IT_coordinate_system_code '2'
_symmetry_cell_setting 'orthorhombic'
loop_
_space_group_symop_operation_xyz
x,y,z
1/4-x,1/4-y,z
x,1/4-y,1/4-z
1/4-x,y,1/4-z
-x,-y,-z
3/4+x,3/4+y,-z
-x,3/4+y,3/4+z
3/4+x,-y,3/4+z
x,1/2+y,1/2+z
1/4-x,3/4-y,1/2+z
x,3/4-y,3/4-z
1/4-x,1/2+y,3/4-z
-x,1/2-y,1/2-z
3/4+x,1/4+y,1/2-z
-x,1/4+y,1/4+z
3/4+x,1/2-y,1/4+z
1/2+x,y,1/2+z
3/4-x,1/4-y,1/2+z
1/2+x,1/4-y,3/4-z
3/4-x,y,3/4-z
1/2-x,-y,1/2-z
1/4+x,3/4+y,1/2-z
1/2-x,3/4+y,1/4+z
1/4+x,-y,1/4+z
1/2+x,1/2+y,z
3/4-x,3/4-y,z
1/2+x,3/4-y,1/4-z
3/4-x,1/2+y,1/4-z
1/2-x,1/2-y,-z
1/4+x,1/4+y,-z
1/2-x,1/4+y,3/4+z
1/4+x,1/2-y,3/4+z
loop_
_atom_site_type_symbol
_atom_site_label
_atom_site_fract_x
_atom_site_fract_y
_atom_site_fract_z
Si Si1 0.375000 0.563403 0.375000
Si Si2 0.781011 0.449628 0.434974
Si Si3 0.173134 0.447847 0.774197
Si Si4 0.593005 0.549868 0.431103
O O1 0.398755 0.618618 0.264896
O O2 0.414515 0.505524 0.444604
O O3 0.806179 0.375000 0.375000
O O4 0.807321 0.520585 0.368358
O O5 0.723416 0.451104 0.371321
O O6 0.790959 0.441275 0.592488
O O7 0.131917 0.504790 0.834197
O O8 0.625000 0.625000 0.463826
#
# Coordination Sequence:
#
# PCOD9516658 Si02
#       4
#    16  32  32  32
#     4  12  25  44  71 110 152 188 234 322 379 418
#     4  11  22  42  72 104 136 190 250 296 352 456
#     4  11  24  42  72 104 138 186 251 301 359 441
#     4  12  24  45  74 103 146 197 241 300 377 439
#
# _framework density 24.125786000000002
#
# number of rings (size 3 to 8) (size 9 to 14) (size 15 to 20)
#    0.000    0.571    5.714    3.000    0.000    0.000 
#    0.000    5.714   12.571    0.000    0.000    0.000 
#    0.000    0.000    0.000    0.000    0.000    0.000 
#
# Total GULP energy -156342.933804 kJ/mol
# GULP energy per Si atom -5583.676207 kJ/mol
# Density = 2.407087 g / cm^3
# Si number density = 24.125786 Si / 1000 Ang^3
#
#
#
# Elastic Constant Matrix: (Units=GPa)
#
#
# Indices 1 2 3 4 5 6 
#
# 1 60.3546 35.2117 33.5525 0.0000 0.0000 0.0000
# 2 35.2117 148.9024 42.2263 0.0000 0.0000 0.0000
# 3 33.5525 42.2263 100.3279 0.0000 0.0000 0.0000
# 4 0.0000 0.0000 0.0000 67.1529 0.0000 0.0000
# 5 0.0000 0.0000 0.0000 0.0000 37.9359 0.0000
# 6 0.0000 0.0000 0.0000 0.0000 0.0000 19.5360
#
#
#
# Elastic Compliance Matrix: (Units=1/GPa)
#
#
# Indices 1 2 3 4 5 6 
#
# 1 0.021862 -0.003516 -0.005831 0.000000 0.000000 0.000000
# 2 -0.003516 0.008192 -0.002272 0.000000 0.000000 0.000000
# 3 -0.005831 -0.002272 0.012874 0.000000 0.000000 0.000000
# 4 0.000000 0.000000 0.000000 0.014891 0.000000 0.000000
# 5 0.000000 0.000000 0.000000 0.000000 0.026360 0.000000
# 6 0.000000 0.000000 0.000000 0.000000 0.000000 0.051188
#
#
# Mechanical properties :
#
#
# Convention : Reuss Voigt Hill
#
# Bulk Modulus (GPa) = 50.79102 59.06290 54.92696
# Shear Modulus (GPa) = 30.27226 38.16458 34.21842
#
# Velocity S-wave (km/s) = 3.54611 3.98163 3.77016
# Velocity P-wave (km/s) = 6.15344 6.75812 6.46286
#
# Compressibility (1/GPa) = 0.01968852
#
# Stress axis : x y z
#
# Youngs Moduli (GPa) = 45.74174 122.07748 77.67810
#
# Poissons Ratio (x) = 0.42924 0.45297
# Poissons Ratio (y) = 0.16083 0.17647
# Poissons Ratio (z) = 0.26674 0.27733
#
# Static dielectric constant tensor:
#      x y z
#    x 1.946320 0.000000 0.000000 
#    y 0.000000 1.982570 0.000000 
#    z 0.000000 0.000000 2.113150 
# 
# From -- ./inp_files/20255.got.cif
#   From: 2010.05.17/outbox.cif.g08.bks.cpg/sg70_11_cif.got.tgz:20255.got - 2010.06.03 15:57:51.
