data_PCOD9516757
_publ_section_title
;
Structure prediction by ZEFSAII (Michael W. Deem and Ramdas Pophale) SiO2 
 PCOD9516757
Probable space group: F D D D
;
_chemical_formula_sum "Si O2"
_cell_formula_units_Z 136
_cell_length_a 17.993399
_cell_length_b 32.174095
_cell_length_c 10.623052
_cell_angle_alpha 90.000000
_cell_angle_beta 90.000000
_cell_angle_gamma 90.000000
_cell_volume 6149.911380
_symmetry_space_group_name_H-M "F D D D"
_symmetry_group_IT_number 70
_space_group.IT_coordinate_system_code '2'
_symmetry_cell_setting 'orthorhombic'
loop_
_space_group_symop_operation_xyz
x,y,z
1/4-x,1/4-y,z
x,1/4-y,1/4-z
1/4-x,y,1/4-z
-x,-y,-z
3/4+x,3/4+y,-z
-x,3/4+y,3/4+z
3/4+x,-y,3/4+z
x,1/2+y,1/2+z
1/4-x,3/4-y,1/2+z
x,3/4-y,3/4-z
1/4-x,1/2+y,3/4-z
-x,1/2-y,1/2-z
3/4+x,1/4+y,1/2-z
-x,1/4+y,1/4+z
3/4+x,1/2-y,1/4+z
1/2+x,y,1/2+z
3/4-x,1/4-y,1/2+z
1/2+x,1/4-y,3/4-z
3/4-x,y,3/4-z
1/2-x,-y,1/2-z
1/4+x,3/4+y,1/2-z
1/2-x,3/4+y,1/4+z
1/4+x,-y,1/4+z
1/2+x,1/2+y,z
3/4-x,3/4-y,z
1/2+x,3/4-y,1/4-z
3/4-x,1/2+y,1/4-z
1/2-x,1/2-y,-z
1/4+x,1/4+y,-z
1/2-x,1/4+y,3/4+z
1/4+x,1/2-y,3/4+z
loop_
_atom_site_type_symbol
_atom_site_label
_atom_site_fract_x
_atom_site_fract_y
_atom_site_fract_z
Si Si1 0.375000 0.375000 0.875000
Si Si2 0.579266 0.490858 0.847454
Si Si3 0.457161 0.125000 0.125000
Si Si4 0.625000 0.350387 0.625000
Si Si5 0.764531 0.437356 0.260694
Si Si6 0.497319 0.031548 0.118335
O O1 0.428624 0.348675 0.786789
O O2 0.558808 0.524715 0.951664
O O3 0.557028 0.513573 0.717808
O O4 0.658849 0.473830 0.890581
O O5 0.522397 0.452549 0.859710
O O6 0.405413 0.124027 0.250761
O O7 0.504234 0.081897 0.112345
O O8 0.553275 0.324627 0.670115
O O9 0.500000 0.000000 0.000000
#
# Coordination Sequence:
#
# PCOD9516757 Si02
#       6
#     8  32  16  16  32  32
#     4  12  26  38  72 126 138 194 260 326 368 460
#     4  11  23  47  68 104 139 195 245 312 386 463
#     4  12  27  46  75 111 153 204 262 322 391 488
#     4  12  24  47  74 112 148 208 260 318 397 490
#     4  11  23  43  74 101 146 182 249 316 382 454
#     4  12  27  46  73 104 148 202 255 316 394 477
#
# _framework density 22.114139999999999
#
# number of rings (size 3 to 8) (size 9 to 14) (size 15 to 20)
#    0.000    0.471    4.706    2.824    3.294    5.647 
#    0.000    1.176    0.000    0.000    0.000    0.000 
#    0.000    0.000    0.000    0.000    0.000    0.000 
#
# Total GULP energy -189584.948840 kJ/mol
# GULP energy per Si atom -5576.027907 kJ/mol
# Density = 2.206381 g / cm^3
# Si number density = 22.114140 Si / 1000 Ang^3
#
#
#
# Elastic Constant Matrix: (Units=GPa)
#
#
# Indices 1 2 3 4 5 6 
#
# 1 93.2041 51.5050 0.1487 0.0000 0.0000 0.0000
# 2 51.5050 126.2066 29.5058 0.0000 0.0000 0.0000
# 3 0.1487 29.5058 70.1662 0.0000 0.0000 0.0000
# 4 0.0000 0.0000 0.0000 35.9551 0.0000 0.0000
# 5 0.0000 0.0000 0.0000 0.0000 35.9322 0.0000
# 6 0.0000 0.0000 0.0000 0.0000 0.0000 9.6655
#
#
#
# Elastic Compliance Matrix: (Units=1/GPa)
#
#
# Indices 1 2 3 4 5 6 
#
# 1 0.014296 -0.006462 0.002687 0.000000 0.000000 0.000000
# 2 -0.006462 0.011709 -0.004910 0.000000 0.000000 0.000000
# 3 0.002687 -0.004910 0.016311 0.000000 0.000000 0.000000
# 4 0.000000 0.000000 0.000000 0.027812 0.000000 0.000000
# 5 0.000000 0.000000 0.000000 0.000000 0.027830 0.000000
# 6 0.000000 0.000000 0.000000 0.000000 0.000000 0.103461
#
#
# Mechanical properties :
#
#
# Convention : Reuss Voigt Hill
#
# Bulk Modulus (GPa) = 40.08773 50.21064 45.14919
# Shear Modulus (GPa) = 22.01629 30.20505 26.11067
#
# Velocity S-wave (km/s) = 3.15870 3.69978 3.43989
# Velocity P-wave (km/s) = 5.60983 6.40357 6.01979
#
# Compressibility (1/GPa) = 0.02494529
#
# Stress axis : x y z
#
# Youngs Moduli (GPa) = 69.94941 85.40609 61.30872
#
# Poissons Ratio (x) = 0.55194 -0.16475
# Poissons Ratio (y) = 0.45205 0.30103
# Poissons Ratio (z) = -0.18797 0.41934
#
# Static dielectric constant tensor:
#      x y z
#    x 1.913900 0.000000 0.000000 
#    y 0.000000 1.879700 0.000000 
#    z 0.000000 0.000000 1.885660 
# 
# From -- ./inp_files/17899.got.cif
#   From: 2010.05.17/outbox.cif.g08.bks.cpg/sg70_9_cif.got.tgz:17899.got - 2010.06.03 15:57:51.
