data_PCOD9516467
_publ_section_title
;
Structure prediction by ZEFSAII (Michael W. Deem and Ramdas Pophale) SiO2 
 PCOD9516467
Probable space group: F D D D
;
_chemical_formula_sum "Si O2"
_cell_formula_units_Z 144
_cell_length_a 21.435951
_cell_length_b 13.204274
_cell_length_c 17.230347
_cell_angle_alpha 90.000000
_cell_angle_beta 90.000000
_cell_angle_gamma 90.000000
_cell_volume 4876.983734
_symmetry_space_group_name_H-M "F D D D"
_symmetry_group_IT_number 70
_space_group.IT_coordinate_system_code '2'
_symmetry_cell_setting 'orthorhombic'
loop_
_space_group_symop_operation_xyz
x,y,z
1/4-x,1/4-y,z
x,1/4-y,1/4-z
1/4-x,y,1/4-z
-x,-y,-z
3/4+x,3/4+y,-z
-x,3/4+y,3/4+z
3/4+x,-y,3/4+z
x,1/2+y,1/2+z
1/4-x,3/4-y,1/2+z
x,3/4-y,3/4-z
1/4-x,1/2+y,3/4-z
-x,1/2-y,1/2-z
3/4+x,1/4+y,1/2-z
-x,1/4+y,1/4+z
3/4+x,1/2-y,1/4+z
1/2+x,y,1/2+z
3/4-x,1/4-y,1/2+z
1/2+x,1/4-y,3/4-z
3/4-x,y,3/4-z
1/2-x,-y,1/2-z
1/4+x,3/4+y,1/2-z
1/2-x,3/4+y,1/4+z
1/4+x,-y,1/4+z
1/2+x,1/2+y,z
3/4-x,3/4-y,z
1/2+x,3/4-y,1/4-z
3/4-x,1/2+y,1/4-z
1/2-x,1/2-y,-z
1/4+x,1/4+y,-z
1/2-x,1/4+y,3/4+z
1/4+x,1/2-y,3/4+z
loop_
_atom_site_type_symbol
_atom_site_label
_atom_site_fract_x
_atom_site_fract_y
_atom_site_fract_z
Si Si1 0.071606 0.991589 0.392104
Si Si2 0.747668 0.428859 0.059449
Si Si3 0.108451 0.257773 0.235659
Si Si4 0.408066 0.521601 0.291992
Si Si5 0.724796 0.125000 0.625000
O O1 0.056099 0.875000 0.375000
O O2 0.117400 0.018019 0.321074
O O3 0.107120 0.996432 0.474197
O O4 0.075787 0.953424 0.197170
O O5 0.785557 0.446375 0.979871
O O6 0.766595 0.323315 0.097137
O O7 0.766923 0.528714 0.106822
O O8 0.070032 0.361954 0.223707
O O9 0.069195 0.169224 0.194147
O O10 0.375000 0.507186 0.375000
#
# Coordination Sequence:
#
# PCOD9516467 Si02
#       5
#    32  32  32  32  16
#     4  10  27  55  84 121 169 221 290 355 420 516
#     4  12  27  48  88 122 167 233 270 353 439 492
#     4  11  27  54  83 126 173 218 289 356 421 520
#     4  11  27  53  80 122 173 225 292 352 424 514
#     4  12  29  54  86 134 174 216 288 356 425 524
#
# _framework density 29.526444999999999
#
# number of rings (size 3 to 8) (size 9 to 14) (size 15 to 20)
#    0.000    0.889    0.000    4.000   10.889    9.778 
#    8.000    1.111    0.000    1.333    0.000    0.000 
#    0.000    0.000    0.000    0.000    0.000    0.000 
#
# Total GULP energy -202003.877973 kJ/mol
# GULP energy per Si atom -5611.218833 kJ/mol
# Density = 2.945924 g / cm^3
# Si number density = 29.526445 Si / 1000 Ang^3
#
#
#
# Elastic Constant Matrix: (Units=GPa)
#
#
# Indices 1 2 3 4 5 6 
#
# 1 164.1766 89.1016 73.3869 0.0000 0.0000 0.0000
# 2 89.1016 247.9529 81.7271 0.0000 0.0000 0.0000
# 3 73.3869 81.7271 236.8376 0.0000 0.0000 0.0000
# 4 0.0000 0.0000 0.0000 62.5961 0.0000 0.0000
# 5 0.0000 0.0000 0.0000 0.0000 57.2609 0.0000
# 6 0.0000 0.0000 0.0000 0.0000 0.0000 53.2226
#
#
#
# Elastic Compliance Matrix: (Units=1/GPa)
#
#
# Indices 1 2 3 4 5 6 
#
# 1 0.008135 -0.002361 -0.001706 0.000000 0.000000 0.000000
# 2 -0.002361 0.005236 -0.001075 0.000000 0.000000 0.000000
# 3 -0.001706 -0.001075 0.005122 0.000000 0.000000 0.000000
# 4 0.000000 0.000000 0.000000 0.015975 0.000000 0.000000
# 5 0.000000 0.000000 0.000000 0.000000 0.017464 0.000000
# 6 0.000000 0.000000 0.000000 0.000000 0.000000 0.018789
#
#
# Mechanical properties :
#
#
# Convention : Reuss Voigt Hill
#
# Bulk Modulus (GPa) = 121.82633 126.37760 124.10196
# Shear Modulus (GPa) = 59.70759 61.59936 60.65348
#
# Velocity S-wave (km/s) = 4.50174 4.57250 4.53725
# Velocity P-wave (km/s) = 8.26864 8.41257 8.34092
#
# Compressibility (1/GPa) = 0.00820841
#
# Stress axis : x y z
#
# Youngs Moduli (GPa) = 122.92687 190.99185 195.23841
#
# Poissons Ratio (x) = 0.45093 0.33307
# Poissons Ratio (y) = 0.29023 0.20992
# Poissons Ratio (z) = 0.20971 0.20535
#
# Static dielectric constant tensor:
#      x y z
#    x 2.393680 0.000000 0.000000 
#    y 0.000000 2.348460 0.000000 
#    z 0.000000 0.000000 2.485830 
# 
# From -- ./inp_files/30842.got.cif
#   From: 2010.05.17/outbox.cif.g08.bks.cpg/sg70_16_cif.got.tgz:30842.got - 2010.06.03 15:57:51.
