data_PCOD9516583
_publ_section_title
;
Structure prediction by ZEFSAII (Michael W. Deem and Ramdas Pophale) SiO2 
 PCOD9516583
Probable space group: F D D D
;
_chemical_formula_sum "Si O2"
_cell_formula_units_Z 160
_cell_length_a 15.962716
_cell_length_b 22.250867
_cell_length_c 22.708925
_cell_angle_alpha 90.000000
_cell_angle_beta 90.000000
_cell_angle_gamma 90.000000
_cell_volume 8065.852964
_symmetry_space_group_name_H-M "F D D D"
_symmetry_group_IT_number 70
_space_group.IT_coordinate_system_code '2'
_symmetry_cell_setting 'orthorhombic'
loop_
_space_group_symop_operation_xyz
x,y,z
1/4-x,1/4-y,z
x,1/4-y,1/4-z
1/4-x,y,1/4-z
-x,-y,-z
3/4+x,3/4+y,-z
-x,3/4+y,3/4+z
3/4+x,-y,3/4+z
x,1/2+y,1/2+z
1/4-x,3/4-y,1/2+z
x,3/4-y,3/4-z
1/4-x,1/2+y,3/4-z
-x,1/2-y,1/2-z
3/4+x,1/4+y,1/2-z
-x,1/4+y,1/4+z
3/4+x,1/2-y,1/4+z
1/2+x,y,1/2+z
3/4-x,1/4-y,1/2+z
1/2+x,1/4-y,3/4-z
3/4-x,y,3/4-z
1/2-x,-y,1/2-z
1/4+x,3/4+y,1/2-z
1/2-x,3/4+y,1/4+z
1/4+x,-y,1/4+z
1/2+x,1/2+y,z
3/4-x,3/4-y,z
1/2+x,3/4-y,1/4-z
3/4-x,1/2+y,1/4-z
1/2-x,1/2-y,-z
1/4+x,1/4+y,-z
1/2-x,1/4+y,3/4+z
1/4+x,1/2-y,3/4+z
loop_
_atom_site_type_symbol
_atom_site_label
_atom_site_fract_x
_atom_site_fract_y
_atom_site_fract_z
Si Si1 0.776984 0.389922 0.441170
Si Si2 0.081451 0.340907 0.204295
Si Si3 0.343607 0.532738 0.317060
Si Si4 0.655066 0.060629 0.288744
Si Si5 0.013116 0.279430 0.086582
O O1 0.749928 0.375000 0.375000
O O2 0.875000 0.375000 0.448991
O O3 0.723982 0.350274 0.487522
O O4 0.769382 0.462030 0.438438
O O5 0.094932 0.409886 0.184905
O O6 0.043958 0.298005 0.152650
O O7 0.176431 0.316223 0.208109
O O8 0.375000 0.498609 0.375000
O O9 0.350972 0.490103 0.260996
O O10 0.247876 0.556596 0.315757
O O11 0.625000 0.125000 0.264339
O O12 0.583571 0.047026 0.336035
#
# Coordination Sequence:
#
# PCOD9516583 Si02
#       5
#    32  32  32  32  32
#     4  11  25  44  64  97 137 172 221 282 337 402
#     4  11  21  41  67  95 129 172 222 270 335 405
#     4  11  22  40  65  93 127 171 221 268 326 402
#     4  11  22  41  64  93 133 168 210 280 327 387
#     4  11  23  42  69  96 131 175 221 275 332 402
#
# _framework density 19.836711000000001
#
# number of rings (size 3 to 8) (size 9 to 14) (size 15 to 20)
#    0.000    1.000    6.000    2.400    0.000    6.000 
#    3.600    0.000    0.000    0.000    0.000    0.000 
#    0.000    0.000    0.000    0.000    0.000    0.000 
#
# Total GULP energy -222697.850110 kJ/mol
# GULP energy per Si atom -5567.446253 kJ/mol
# Density = 1.979156 g / cm^3
# Si number density = 19.836711 Si / 1000 Ang^3
#
#
#
# Elastic Constant Matrix: (Units=GPa)
#
#
# Indices 1 2 3 4 5 6 
#
# 1 103.3034 19.5217 63.0008 0.0000 0.0000 0.0000
# 2 19.5217 79.5325 6.9122 0.0000 0.0000 0.0000
# 3 63.0008 6.9122 100.6416 0.0000 0.0000 0.0000
# 4 0.0000 0.0000 0.0000 24.5401 0.0000 0.0000
# 5 0.0000 0.0000 0.0000 0.0000 30.1940 0.0000
# 6 0.0000 0.0000 0.0000 0.0000 0.0000 14.5170
#
#
#
# Elastic Compliance Matrix: (Units=1/GPa)
#
#
# Indices 1 2 3 4 5 6 
#
# 1 0.016408 -0.003154 -0.010055 0.000000 0.000000 0.000000
# 2 -0.003154 0.013255 0.001064 0.000000 0.000000 0.000000
# 3 -0.010055 0.001064 0.016157 0.000000 0.000000 0.000000
# 4 0.000000 0.000000 0.000000 0.040750 0.000000 0.000000
# 5 0.000000 0.000000 0.000000 0.000000 0.033119 0.000000
# 6 0.000000 0.000000 0.000000 0.000000 0.000000 0.068885
#
#
# Mechanical properties :
#
#
# Convention : Reuss Voigt Hill
#
# Bulk Modulus (GPa) = 46.44381 51.37187 48.90784
# Shear Modulus (GPa) = 22.72308 26.78642 24.75475
#
# Velocity S-wave (km/s) = 3.38820 3.67869 3.53643
# Velocity P-wave (km/s) = 6.22659 6.63305 6.43303
#
# Compressibility (1/GPa) = 0.02153140
#
# Stress axis : x y z
#
# Youngs Moduli (GPa) = 60.94512 75.44268 61.89115
#
# Poissons Ratio (x) = 0.23792 0.62230
# Poissons Ratio (y) = 0.19220 -0.06584
# Poissons Ratio (z) = 0.61279 -0.08025
#
# Static dielectric constant tensor:
#      x y z
#    x 1.714590 0.000000 0.000000 
#    y 0.000000 1.782360 0.000000 
#    z 0.000000 0.000000 1.741500 
# 
# From -- ./inp_files/51115.got.cif
#   From: 2010.05.17/outbox.cif.g08.bks.cpg/sg70_26_cif.got.tgz:51115.got - 2010.06.03 15:57:51.
