data_PCOD9516040
_publ_section_title
;
Structure prediction by ZEFSAII (Michael W. Deem and Ramdas Pophale) SiO2 
 PCOD9516040
Probable space group: F D D D
;
_chemical_formula_sum "Si O2"
_cell_formula_units_Z 80
_cell_length_a 25.793971
_cell_length_b 16.546782
_cell_length_c 7.672628
_cell_angle_alpha 90.000000
_cell_angle_beta 90.000000
_cell_angle_gamma 90.000000
_cell_volume 3274.732989
_symmetry_space_group_name_H-M "F D D D"
_symmetry_group_IT_number 70
_space_group.IT_coordinate_system_code '2'
_symmetry_cell_setting 'orthorhombic'
loop_
_space_group_symop_operation_xyz
x,y,z
1/4-x,1/4-y,z
x,1/4-y,1/4-z
1/4-x,y,1/4-z
-x,-y,-z
3/4+x,3/4+y,-z
-x,3/4+y,3/4+z
3/4+x,-y,3/4+z
x,1/2+y,1/2+z
1/4-x,3/4-y,1/2+z
x,3/4-y,3/4-z
1/4-x,1/2+y,3/4-z
-x,1/2-y,1/2-z
3/4+x,1/4+y,1/2-z
-x,1/4+y,1/4+z
3/4+x,1/2-y,1/4+z
1/2+x,y,1/2+z
3/4-x,1/4-y,1/2+z
1/2+x,1/4-y,3/4-z
3/4-x,y,3/4-z
1/2-x,-y,1/2-z
1/4+x,3/4+y,1/2-z
1/2-x,3/4+y,1/4+z
1/4+x,-y,1/4+z
1/2+x,1/2+y,z
3/4-x,3/4-y,z
1/2+x,3/4-y,1/4-z
3/4-x,1/2+y,1/4-z
1/2-x,1/2-y,-z
1/4+x,1/4+y,-z
1/2-x,1/4+y,3/4+z
1/4+x,1/2-y,3/4+z
loop_
_atom_site_type_symbol
_atom_site_label
_atom_site_fract_x
_atom_site_fract_y
_atom_site_fract_z
Si Si1 0.127833 0.962020 0.832081
Si Si2 0.778390 0.125000 0.625000
Si Si3 0.036183 0.674227 0.302371
O O1 0.125000 0.966510 0.625000
O O2 0.153891 0.875000 0.875000
O O3 0.069176 0.949632 0.895217
O O4 0.161911 0.037282 0.885635
O O5 0.744873 0.121245 0.452076
O O6 0.000000 0.750000 0.250000
O O7 0.046966 0.625000 0.125000
#
# Coordination Sequence:
#
# PCOD9516040 Si02
#       3
#    32  16  32
#     4  10  22  48  75 102 156 204 248 322 391 453
#     4  10  26  48  78 107 152 207 250 326 386 462
#     4  12  25  47  76 109 152 202 261 319 388 467
#
# _framework density 24.429472000000001
#
# number of rings (size 3 to 8) (size 9 to 14) (size 15 to 20)
#    1.200    0.000    4.000    1.200    0.000    2.400 
#    7.200    0.000    0.000    0.000    0.000    0.000 
#    0.000    0.000    0.000    0.000    0.000    0.000 
#
# Total GULP energy -111874.699290 kJ/mol
# GULP energy per Si atom -5593.734965 kJ/mol
# Density = 2.437387 g / cm^3
# Si number density = 24.429472 Si / 1000 Ang^3
#
#
#
# Elastic Constant Matrix: (Units=GPa)
#
#
# Indices 1 2 3 4 5 6 
#
# 1 161.2509 84.1857 81.4802 0.0000 0.0000 0.0000
# 2 84.1857 100.9118 49.0269 0.0000 0.0000 0.0000
# 3 81.4802 49.0269 113.2547 0.0000 -0.0001 0.0000
# 4 0.0000 0.0000 0.0000 33.2097 0.0000 0.0000
# 5 0.0000 0.0000 -0.0001 0.0000 -10.1491 0.0000
# 6 0.0000 0.0000 0.0000 0.0000 0.0000 51.7586
#
#
#
# Elastic Compliance Matrix: (Units=1/GPa)
#
#
# Indices 1 2 3 4 5 6 
#
# 1 0.013773 -0.008454 -0.006249 0.000000 0.000000 0.000000
# 2 -0.008454 0.017738 -0.001597 0.000000 0.000000 0.000000
# 3 -0.006249 -0.001597 0.014017 0.000000 0.000000 0.000000
# 4 0.000000 0.000000 0.000000 0.030112 0.000000 0.000000
# 5 0.000000 0.000000 0.000000 0.000000 -0.098531 0.000000
# 6 0.000000 0.000000 0.000000 0.000000 0.000000 0.019320
#
#
# Mechanical properties :
#
#
# Convention : Reuss Voigt Hill
#
# Bulk Modulus (GPa) = 77.34934 89.42255 83.38595
# Shear Modulus (GPa) = 149.98392 25.67882 87.83137
#
# Velocity S-wave (km/s) = 7.84398 3.24565 6.00259
# Velocity P-wave (km/s) = 10.66622 7.12246 9.06912
#
# Compressibility (1/GPa) = 0.01292836
#
# Stress axis : x y z
#
# Youngs Moduli (GPa) = 72.60690 56.37637 71.34367
#
# Poissons Ratio (x) = 0.47660 0.44584
# Poissons Ratio (y) = 0.61381 0.11390
# Poissons Ratio (z) = 0.45373 0.09001
#
# Static dielectric constant tensor:
#      x y z
#    x 2.037590 0.000000 0.000000 
#    y 0.000000 2.067110 0.000000 
#    z 0.000000 0.000000 1.845470 
# 
# From -- ./inp_files/10137.got.cif
#   From: 2010.05.17/outbox.cif.g08.bks.cpg/sg70_6_cif.got.tgz:10137.got - 2010.06.03 15:57:51.
