data_PCOD9516276
_publ_section_title
;
Structure prediction by ZEFSAII (Michael W. Deem and Ramdas Pophale) SiO2 
 PCOD9516276
Probable space group: F D D D
;
_chemical_formula_sum "Si O2"
_cell_formula_units_Z 136
_cell_length_a 10.951224
_cell_length_b 23.126560
_cell_length_c 24.350198
_cell_angle_alpha 90.000000
_cell_angle_beta 90.000000
_cell_angle_gamma 90.000000
_cell_volume 6167.031929
_symmetry_space_group_name_H-M "F D D D"
_symmetry_group_IT_number 70
_space_group.IT_coordinate_system_code '2'
_symmetry_cell_setting 'orthorhombic'
loop_
_space_group_symop_operation_xyz
x,y,z
1/4-x,1/4-y,z
x,1/4-y,1/4-z
1/4-x,y,1/4-z
-x,-y,-z
3/4+x,3/4+y,-z
-x,3/4+y,3/4+z
3/4+x,-y,3/4+z
x,1/2+y,1/2+z
1/4-x,3/4-y,1/2+z
x,3/4-y,3/4-z
1/4-x,1/2+y,3/4-z
-x,1/2-y,1/2-z
3/4+x,1/4+y,1/2-z
-x,1/4+y,1/4+z
3/4+x,1/2-y,1/4+z
1/2+x,y,1/2+z
3/4-x,1/4-y,1/2+z
1/2+x,1/4-y,3/4-z
3/4-x,y,3/4-z
1/2-x,-y,1/2-z
1/4+x,3/4+y,1/2-z
1/2-x,3/4+y,1/4+z
1/4+x,-y,1/4+z
1/2+x,1/2+y,z
3/4-x,3/4-y,z
1/2+x,3/4-y,1/4-z
3/4-x,1/2+y,1/4-z
1/2-x,1/2-y,-z
1/4+x,1/4+y,-z
1/2-x,1/4+y,3/4+z
1/4+x,1/2-y,3/4+z
loop_
_atom_site_type_symbol
_atom_site_label
_atom_site_fract_x
_atom_site_fract_y
_atom_site_fract_z
Si Si1 0.141714 0.740130 0.957064
Si Si2 0.790552 0.697251 0.708797
Si Si3 0.517023 0.394973 0.763477
Si Si4 0.701926 0.183026 0.844381
Si Si5 0.125000 0.125000 0.625000
O O1 0.065753 0.800293 0.951195
O O2 0.203386 0.714056 0.903005
O O3 0.250000 0.750000 0.000000
O O4 0.043280 0.699279 0.986860
O O5 0.906770 0.658850 0.717366
O O6 0.835060 0.761701 0.693268
O O7 0.707510 0.667140 0.662264
O O8 0.375000 0.375000 0.766067
O O9 0.551323 0.408673 0.699227
O O10 0.625000 0.125000 0.853554
#
# Coordination Sequence:
#
# PCOD9516276 Si02
#       5
#    32  32  32  32   8
#     4  11  24  42  70 106 143 193 250 308 366 443
#     4  11  23  44  71 100 147 191 244 305 375 432
#     4  10  24  46  69 101 148 193 242 311 368 454
#     4  10  24  43  66 105 142 186 246 295 368 450
#     4  12  24  44  74 108 136 200 252 304 360 466
#
# _framework density 22.052747
#
# number of rings (size 3 to 8) (size 9 to 14) (size 15 to 20)
#    0.000    1.412    0.000    4.235    4.941   11.294 
#    4.235   10.000    0.000    0.000    0.000    0.000 
#    0.000    0.000    0.000    0.000    0.000    0.000 
#
# Total GULP energy -189383.514675 kJ/mol
# GULP energy per Si atom -5570.103373 kJ/mol
# Density = 2.200255 g / cm^3
# Si number density = 22.052747 Si / 1000 Ang^3
#
#
#
# Elastic Constant Matrix: (Units=GPa)
#
#
# Indices 1 2 3 4 5 6 
#
# 1 121.4355 41.6297 17.9723 0.0000 0.0000 0.0000
# 2 41.6297 123.1568 32.2298 0.0000 0.0000 0.0000
# 3 17.9723 32.2298 87.2863 0.0000 0.0000 0.0000
# 4 0.0000 0.0000 0.0000 30.5419 0.0000 0.0000
# 5 0.0000 0.0000 0.0000 0.0000 15.7096 0.0000
# 6 0.0000 0.0000 0.0000 0.0000 0.0000 20.0604
#
#
#
# Elastic Compliance Matrix: (Units=1/GPa)
#
#
# Indices 1 2 3 4 5 6 
#
# 1 0.009370 -0.002947 -0.000841 0.000000 0.000000 0.000000
# 2 -0.002947 0.009915 -0.003054 0.000000 0.000000 0.000000
# 3 -0.000841 -0.003054 0.012757 0.000000 0.000000 0.000000
# 4 0.000000 0.000000 0.000000 0.032742 0.000000 0.000000
# 5 0.000000 0.000000 0.000000 0.000000 0.063655 0.000000
# 6 0.000000 0.000000 0.000000 0.000000 0.000000 0.049849
#
#
# Mechanical properties :
#
#
# Convention : Reuss Voigt Hill
#
# Bulk Modulus (GPa) = 54.47359 57.28247 55.87803
# Shear Modulus (GPa) = 25.24070 29.26551 27.25311
#
# Velocity S-wave (km/s) = 3.38681 3.64685 3.51923
# Velocity P-wave (km/s) = 6.32843 6.61546 6.47354
#
# Compressibility (1/GPa) = 0.01835752
#
# Stress axis : x y z
#
# Youngs Moduli (GPa) = 106.72838 100.85524 78.38527
#
# Poissons Ratio (x) = 0.29722 0.06592
# Poissons Ratio (y) = 0.31453 0.23941
# Poissons Ratio (z) = 0.08976 0.30804
#
# Static dielectric constant tensor:
#      x y z
#    x 1.873110 0.000000 0.000000 
#    y 0.000000 1.814730 0.000000 
#    z 0.000000 0.000000 1.875940 
# 
# From -- ./inp_files/17685.got.cif
#   From: 2010.05.17/outbox.cif.g08.bks.cpg/sg70_9_cif.got.tgz:17685.got - 2010.06.03 15:57:51.
