data_PCOD9516065
_publ_section_title
;
Structure prediction by ZEFSAII (Michael W. Deem and Ramdas Pophale) SiO2 
 PCOD9516065
Probable space group: F D D D
;
_chemical_formula_sum "Si O2"
_cell_formula_units_Z 216
_cell_length_a 11.289489
_cell_length_b 30.422986
_cell_length_c 29.154069
_cell_angle_alpha 90.000000
_cell_angle_beta 90.000000
_cell_angle_gamma 90.000000
_cell_volume 10013.255542
_symmetry_space_group_name_H-M "F D D D"
_symmetry_group_IT_number 70
_space_group.IT_coordinate_system_code '2'
_symmetry_cell_setting 'orthorhombic'
loop_
_space_group_symop_operation_xyz
x,y,z
1/4-x,1/4-y,z
x,1/4-y,1/4-z
1/4-x,y,1/4-z
-x,-y,-z
3/4+x,3/4+y,-z
-x,3/4+y,3/4+z
3/4+x,-y,3/4+z
x,1/2+y,1/2+z
1/4-x,3/4-y,1/2+z
x,3/4-y,3/4-z
1/4-x,1/2+y,3/4-z
-x,1/2-y,1/2-z
3/4+x,1/4+y,1/2-z
-x,1/4+y,1/4+z
3/4+x,1/2-y,1/4+z
1/2+x,y,1/2+z
3/4-x,1/4-y,1/2+z
1/2+x,1/4-y,3/4-z
3/4-x,y,3/4-z
1/2-x,-y,1/2-z
1/4+x,3/4+y,1/2-z
1/2-x,3/4+y,1/4+z
1/4+x,-y,1/4+z
1/2+x,1/2+y,z
3/4-x,3/4-y,z
1/2+x,3/4-y,1/4-z
3/4-x,1/2+y,1/4-z
1/2-x,1/2-y,-z
1/4+x,1/4+y,-z
1/2-x,1/4+y,3/4+z
1/4+x,1/2-y,3/4+z
loop_
_atom_site_type_symbol
_atom_site_label
_atom_site_fract_x
_atom_site_fract_y
_atom_site_fract_z
Si Si1 0.944924 0.120731 0.204474
Si Si2 0.840893 0.025383 0.716770
Si Si3 0.125000 0.335705 0.125000
Si Si4 0.696828 0.957015 0.301475
Si Si5 0.000721 0.647199 0.441955
Si Si6 0.491729 0.250669 0.618171
Si Si7 0.337322 0.511733 0.458147
Si Si8 0.125000 0.625000 0.625000
O O1 0.932293 0.172785 0.211663
O O2 0.822999 0.095148 0.194075
O O3 0.996940 0.103891 0.252772
O O4 0.030999 0.107516 0.162796
O O5 0.750000 0.000000 0.750000
O O6 0.819672 0.006094 0.666572
O O7 0.975581 0.014046 0.729513
O O8 0.094193 0.365594 0.168209
O O9 0.229690 0.302061 0.138593
O O10 0.666984 0.966869 0.248291
O O11 0.592146 0.980431 0.330067
O O12 0.822399 0.977653 0.315227
O O13 0.967403 0.697370 0.429774
O O14 0.125000 0.625000 0.427972
O O15 0.625000 0.230650 0.625000
#
# Coordination Sequence:
#
# PCOD9516065 Si02
#       8
#    32  32  16  32  32  32  32   8
#     4  11  25  39  68  97 138 180 236 296 359 428
#     4  12  24  40  67 100 132 181 227 295 366 420
#     4  10  24  39  66  95 136 173 224 286 356 427
#     4  10  23  45  62  96 134 179 232 282 353 428
#     4  11  22  43  64 102 137 182 228 291 354 432
#     4  10  23  39  64  96 128 172 226 293 337 428
#     4  10  24  42  68  91 138 183 222 289 351 429
#     4  12  24  42  68 106 132 188 236 320 366 408
#
# _framework density 21.571407000000001
#
# number of rings (size 3 to 8) (size 9 to 14) (size 15 to 20)
#    0.444    0.889    0.741    4.444    8.296    3.556 
#    0.000    0.000    0.000    2.667    0.000    0.000 
#    0.000    0.000    0.000    0.000    0.000    0.000 
#
# Total GULP energy -301078.497721 kJ/mol
# GULP energy per Si atom -5575.527736 kJ/mol
# Density = 2.152231 g / cm^3
# Si number density = 21.571407 Si / 1000 Ang^3
#
#
#
# Elastic Constant Matrix: (Units=GPa)
#
#
# Indices 1 2 3 4 5 6 
#
# 1 107.1527 69.7681 -7.8445 0.0000 0.0000 0.0000
# 2 69.7681 160.1301 10.6994 0.0000 0.0000 0.0000
# 3 -7.8445 10.6994 44.9590 0.0000 0.0000 0.0000
# 4 0.0000 0.0000 0.0000 12.0067 0.0000 0.0000
# 5 0.0000 0.0000 0.0000 0.0000 22.7908 0.0000
# 6 0.0000 0.0000 0.0000 0.0000 0.0000 44.6261
#
#
#
# Elastic Compliance Matrix: (Units=1/GPa)
#
#
# Indices 1 2 3 4 5 6 
#
# 1 0.013657 -0.006208 0.003860 0.000000 0.000000 0.000000
# 2 -0.006208 0.009168 -0.003265 0.000000 0.000000 0.000000
# 3 0.003860 -0.003265 0.023693 0.000000 0.000000 0.000000
# 4 0.000000 0.000000 0.000000 0.083287 0.000000 0.000000
# 5 0.000000 0.000000 0.000000 0.000000 0.043877 0.000000
# 6 0.000000 0.000000 0.000000 0.000000 0.000000 0.022408
#
#
# Mechanical properties :
#
#
# Convention : Reuss Voigt Hill
#
# Bulk Modulus (GPa) = 28.33462 50.83198 39.58330
# Shear Modulus (GPa) = 22.82253 31.85929 27.34091
#
# Velocity S-wave (km/s) = 3.25622 3.84724 3.56400
# Velocity P-wave (km/s) = 5.22504 6.58413 5.94356
#
# Compressibility (1/GPa) = 0.03529252
#
# Stress axis : x y z
#
# Youngs Moduli (GPa) = 73.21997 109.07402 42.20636
#
# Poissons Ratio (x) = 0.67718 -0.16294
# Poissons Ratio (y) = 0.45458 0.13781
# Poissons Ratio (z) = -0.28266 0.35614
#
# Static dielectric constant tensor:
#      x y z
#    x 1.831510 0.000000 0.000000 
#    y 0.000000 1.855830 0.000000 
#    z 0.000000 0.000000 1.766830 
# 
# From -- ./inp_files/65193.got.cif
#   From: 2010.05.17/outbox.cif.g08.bks.cpg/sg70_33_cif.got.tgz:65193.got - 2010.06.03 15:57:51.
