data_PCOD9516986
_publ_section_title
;
Structure prediction by ZEFSAII (Michael W. Deem and Ramdas Pophale) SiO2 
 PCOD9516986
Probable space group: F D D D
;
_chemical_formula_sum "Si O2"
_cell_formula_units_Z 72
_cell_length_a 27.648825
_cell_length_b 4.868673
_cell_length_c 22.393607
_cell_angle_alpha 90.000000
_cell_angle_beta 90.000000
_cell_angle_gamma 90.000000
_cell_volume 3014.472584
_symmetry_space_group_name_H-M "F D D D"
_symmetry_group_IT_number 70
_space_group.IT_coordinate_system_code '2'
_symmetry_cell_setting 'orthorhombic'
loop_
_space_group_symop_operation_xyz
x,y,z
1/4-x,1/4-y,z
x,1/4-y,1/4-z
1/4-x,y,1/4-z
-x,-y,-z
3/4+x,3/4+y,-z
-x,3/4+y,3/4+z
3/4+x,-y,3/4+z
x,1/2+y,1/2+z
1/4-x,3/4-y,1/2+z
x,3/4-y,3/4-z
1/4-x,1/2+y,3/4-z
-x,1/2-y,1/2-z
3/4+x,1/4+y,1/2-z
-x,1/4+y,1/4+z
3/4+x,1/2-y,1/4+z
1/2+x,y,1/2+z
3/4-x,1/4-y,1/2+z
1/2+x,1/4-y,3/4-z
3/4-x,y,3/4-z
1/2-x,-y,1/2-z
1/4+x,3/4+y,1/2-z
1/2-x,3/4+y,1/4+z
1/4+x,-y,1/4+z
1/2+x,1/2+y,z
3/4-x,3/4-y,z
1/2+x,3/4-y,1/4-z
3/4-x,1/2+y,1/4-z
1/2-x,1/2-y,-z
1/4+x,1/4+y,-z
1/2-x,1/4+y,3/4+z
1/4+x,1/2-y,3/4+z
loop_
_atom_site_type_symbol
_atom_site_label
_atom_site_fract_x
_atom_site_fract_y
_atom_site_fract_z
Si Si1 0.875000 0.875000 0.375000
Si Si2 0.761101 0.377338 0.165961
Si Si3 0.823806 0.771824 0.778313
O O1 0.842799 0.689941 0.420906
O O2 0.783501 0.625000 0.125000
O O3 0.792190 0.232206 0.218594
O O4 0.711644 0.507727 0.190920
O O5 0.749849 0.125000 0.125000
O O6 0.875000 0.875000 0.754446
#
# Coordination Sequence:
#
# PCOD9516986 Si02
#       3
#     8  32  32
#     4  12  26  52  82 132 150 216 278 322 402 504
#     4  11  28  52  78 116 160 211 267 327 401 472
#     4  11  28  48  83 114 163 210 265 330 396 479
#
# _framework density 23.884777
#
# number of rings (size 3 to 8) (size 9 to 14) (size 15 to 20)
#    0.000    0.889    0.000    3.333   18.667    5.333 
#    0.000    0.000    0.000    0.000    0.000    0.000 
#    0.000    0.000    0.000    0.000    0.000    0.000 
#
# Total GULP energy -100338.176843 kJ/mol
# GULP energy per Si atom -5574.343158 kJ/mol
# Density = 2.383041 g / cm^3
# Si number density = 23.884777 Si / 1000 Ang^3
#
#
#
# Elastic Constant Matrix: (Units=GPa)
#
#
# Indices 1 2 3 4 5 6 
#
# 1 190.1822 64.6018 110.9486 0.0117 0.0057 -0.0088
# 2 64.6018 108.1459 56.4013 0.0173 0.0454 -0.0035
# 3 110.9486 56.4013 148.2233 0.0041 0.0082 -0.0038
# 4 0.0117 0.0173 0.0041 42.2723 0.0251 -0.0032
# 5 0.0057 0.0454 0.0082 0.0251 -80.5949 0.0206
# 6 -0.0088 -0.0035 -0.0038 -0.0032 0.0206 22.0280
#
#
#
# Elastic Compliance Matrix: (Units=1/GPa)
#
#
# Indices 1 2 3 4 5 6 
#
# 1 0.009866 -0.002548 -0.006416 -0.000001 -0.000001 0.000002
# 2 -0.002548 0.012194 -0.002733 -0.000004 0.000006 0.000000
# 3 -0.006416 -0.002733 0.012589 0.000002 -0.000001 -0.000001
# 4 -0.000001 -0.000004 0.000002 0.023656 0.000007 0.000003
# 5 -0.000001 0.000006 -0.000001 0.000007 -0.012408 0.000012
# 6 0.000002 0.000000 -0.000001 0.000003 0.000012 0.045397
#
#
# Mechanical properties :
#
#
# Convention : Reuss Voigt Hill
#
# Bulk Modulus (GPa) = 88.83909 101.16163 95.00036
# Shear Modulus (GPa) = 42.21568 11.04774 26.63171
#
# Velocity S-wave (km/s) = 4.20869 2.15302 3.34280
# Velocity P-wave (km/s) = 7.80340 6.97328 7.39999
#
# Compressibility (1/GPa) = 0.01125631
#
# Stress axis : x y z
#
# Youngs Moduli (GPa) = 101.35452 82.00758 79.43545
#
# Poissons Ratio (x) = 0.20893 0.50964
# Poissons Ratio (y) = 0.25823 0.21709
# Poissons Ratio (z) = 0.65026 0.22412
#
# Static dielectric constant tensor:
#      x y z
#    x 1.891980 0.000010 0.000000 
#    y 0.000010 1.913780 -0.000020 
#    z 0.000000 -0.000020 1.996970 
# 
# From -- ./inp_files/3700.got.cif
#   From: 2010.05.17/outbox.cif.g08.bks.cpg/sg70_2_cif.got.tgz:3700.got - 2010.06.03 15:57:51.
