data_PCOD9516442
_publ_section_title
;
Structure prediction by ZEFSAII (Michael W. Deem and Ramdas Pophale) SiO2 
 PCOD9516442
Probable space group: F D D D
;
_chemical_formula_sum "Si O2"
_cell_formula_units_Z 192
_cell_length_a 25.409911
_cell_length_b 12.294798
_cell_length_c 30.380829
_cell_angle_alpha 90.000000
_cell_angle_beta 90.000000
_cell_angle_gamma 90.000000
_cell_volume 9491.266371
_symmetry_space_group_name_H-M "F D D D"
_symmetry_group_IT_number 70
_space_group.IT_coordinate_system_code '2'
_symmetry_cell_setting 'orthorhombic'
loop_
_space_group_symop_operation_xyz
x,y,z
1/4-x,1/4-y,z
x,1/4-y,1/4-z
1/4-x,y,1/4-z
-x,-y,-z
3/4+x,3/4+y,-z
-x,3/4+y,3/4+z
3/4+x,-y,3/4+z
x,1/2+y,1/2+z
1/4-x,3/4-y,1/2+z
x,3/4-y,3/4-z
1/4-x,1/2+y,3/4-z
-x,1/2-y,1/2-z
3/4+x,1/4+y,1/2-z
-x,1/4+y,1/4+z
3/4+x,1/2-y,1/4+z
1/2+x,y,1/2+z
3/4-x,1/4-y,1/2+z
1/2+x,1/4-y,3/4-z
3/4-x,y,3/4-z
1/2-x,-y,1/2-z
1/4+x,3/4+y,1/2-z
1/2-x,3/4+y,1/4+z
1/4+x,-y,1/4+z
1/2+x,1/2+y,z
3/4-x,3/4-y,z
1/2+x,3/4-y,1/4-z
3/4-x,1/2+y,1/4-z
1/2-x,1/2-y,-z
1/4+x,1/4+y,-z
1/2-x,1/4+y,3/4+z
1/4+x,1/2-y,3/4+z
loop_
_atom_site_type_symbol
_atom_site_label
_atom_site_fract_x
_atom_site_fract_y
_atom_site_fract_z
Si Si1 0.440605 0.994606 0.017606
Si Si2 0.625000 0.125000 0.468925
Si Si3 0.918132 0.007018 0.797452
Si Si4 0.130903 0.353718 0.925482
Si Si5 0.538819 0.229902 0.963107
Si Si6 0.625000 0.625000 0.625000
Si Si7 0.625000 0.125000 0.625000
Si Si8 0.648931 0.276244 0.202011
O O1 0.434951 0.886439 0.046398
O O2 0.415814 0.095895 0.043851
O O3 0.500000 0.000000 0.000000
O O4 0.403089 0.978303 0.975683
O O5 0.664081 0.071157 0.504850
O O6 0.640455 0.228414 0.439097
O O7 0.910846 0.943486 0.842505
O O8 0.978095 0.043440 0.795557
O O9 0.871398 0.097858 0.799604
O O10 0.117189 0.375000 0.875000
O O11 0.182915 0.424700 0.936363
O O12 0.553208 0.260128 0.013953
O O13 0.656061 0.709820 0.656856
#
# Coordination Sequence:
#
# PCOD9516442 Si02
#       8
#    32  16  32  32  32   8   8  32
#     4  11  20  43  67  91 133 179 222 278 355 405
#     4  11  22  45  67  90 136 178 219 283 336 409
#     4  11  23  45  68  95 134 179 227 284 342 419
#     4  11  25  41  65 101 135 174 232 288 338 418
#     4  11  22  42  72  95 131 183 226 281 365 405
#     4  12  22  36  66  94 148 176 224 288 342 400
#     4  10  26  44  64  94 140 172 222 280 344 410
#     4  11  21  40  61 100 130 177 227 282 336 406
#
# _framework density 20.229123000000001
#
# number of rings (size 3 to 8) (size 9 to 14) (size 15 to 20)
#    0.000    1.000    6.667    2.000    3.500    0.667 
#    1.500    1.667    0.000    0.000    0.000    0.000 
#    0.000    0.000    0.000    0.000    0.000    0.000 
#
# Total GULP energy -267245.755683 kJ/mol
# GULP energy per Si atom -5567.619910 kJ/mol
# Density = 2.018308 g / cm^3
# Si number density = 20.229123 Si / 1000 Ang^3
#
#
#
# Elastic Constant Matrix: (Units=GPa)
#
#
# Indices 1 2 3 4 5 6 
#
# 1 61.8146 16.2189 15.4147 0.0000 0.0000 0.0000
# 2 16.2189 153.7039 38.6779 0.0000 0.0000 0.0000
# 3 15.4147 38.6779 113.7499 0.0000 0.0000 0.0000
# 4 0.0000 0.0000 0.0000 34.1832 0.0000 0.0000
# 5 0.0000 0.0000 0.0000 0.0000 -60.0835 0.0000
# 6 0.0000 0.0000 0.0000 0.0000 0.0000 23.3193
#
#
#
# Elastic Compliance Matrix: (Units=1/GPa)
#
#
# Indices 1 2 3 4 5 6 
#
# 1 0.016987 -0.001327 -0.001851 0.000000 0.000000 0.000000
# 2 -0.001327 0.007218 -0.002275 0.000000 0.000000 0.000000
# 3 -0.001851 -0.002275 0.009815 0.000000 0.000000 0.000000
# 4 0.000000 0.000000 0.000000 0.029254 0.000000 0.000000
# 5 0.000000 0.000000 0.000000 0.000000 -0.016643 0.000000
# 6 0.000000 0.000000 0.000000 0.000000 0.000000 0.042883
#
#
# Mechanical properties :
#
#
# Convention : Reuss Voigt Hill
#
# Bulk Modulus (GPa) = 43.25925 52.21016 47.73470
# Shear Modulus (GPa) = 46.24300 16.74760 31.49530
#
# Velocity S-wave (km/s) = 4.78636 2.88044 3.95007
# Velocity P-wave (km/s) = 7.20949 6.07684 6.66726
#
# Compressibility (1/GPa) = 0.02311644
#
# Stress axis : x y z
#
# Youngs Moduli (GPa) = 58.86832 138.53484 101.87999
#
# Poissons Ratio (x) = 0.18380 0.18857
# Poissons Ratio (y) = 0.07810 0.23174
# Poissons Ratio (z) = 0.10896 0.31512
#
# Static dielectric constant tensor:
#      x y z
#    x 1.643630 0.000000 0.000000 
#    y 0.000000 1.843560 0.000000 
#    z 0.000000 0.000000 1.727650 
# 
# From -- ./inp_files/65029.got.cif
#   From: 2010.05.17/outbox.cif.g08.bks.cpg/sg70_33_cif.got.tgz:65029.got - 2010.06.03 15:57:51.
