data_PCOD9516085
_publ_section_title
;
Structure prediction by ZEFSAII (Michael W. Deem and Ramdas Pophale) SiO2 
 PCOD9516085
Probable space group: F D D D
;
_chemical_formula_sum "Si O2"
_cell_formula_units_Z 176
_cell_length_a 16.545409
_cell_length_b 25.344020
_cell_length_c 20.164419
_cell_angle_alpha 90.000000
_cell_angle_beta 90.000000
_cell_angle_gamma 90.000000
_cell_volume 8455.488887
_symmetry_space_group_name_H-M "F D D D"
_symmetry_group_IT_number 70
_space_group.IT_coordinate_system_code '2'
_symmetry_cell_setting 'orthorhombic'
loop_
_space_group_symop_operation_xyz
x,y,z
1/4-x,1/4-y,z
x,1/4-y,1/4-z
1/4-x,y,1/4-z
-x,-y,-z
3/4+x,3/4+y,-z
-x,3/4+y,3/4+z
3/4+x,-y,3/4+z
x,1/2+y,1/2+z
1/4-x,3/4-y,1/2+z
x,3/4-y,3/4-z
1/4-x,1/2+y,3/4-z
-x,1/2-y,1/2-z
3/4+x,1/4+y,1/2-z
-x,1/4+y,1/4+z
3/4+x,1/2-y,1/4+z
1/2+x,y,1/2+z
3/4-x,1/4-y,1/2+z
1/2+x,1/4-y,3/4-z
3/4-x,y,3/4-z
1/2-x,-y,1/2-z
1/4+x,3/4+y,1/2-z
1/2-x,3/4+y,1/4+z
1/4+x,-y,1/4+z
1/2+x,1/2+y,z
3/4-x,3/4-y,z
1/2+x,3/4-y,1/4-z
3/4-x,1/2+y,1/4-z
1/2-x,1/2-y,-z
1/4+x,1/4+y,-z
1/2-x,1/4+y,3/4+z
1/4+x,1/2-y,3/4+z
loop_
_atom_site_type_symbol
_atom_site_label
_atom_site_fract_x
_atom_site_fract_y
_atom_site_fract_z
Si Si1 0.333350 0.096314 0.999443
Si Si2 0.501193 0.944055 0.066142
Si Si3 0.537490 0.541303 0.651905
Si Si4 0.423339 0.768887 0.044635
Si Si5 0.410318 0.125000 0.125000
Si Si6 0.794856 0.898384 0.652843
O O1 0.357982 0.133180 0.060296
O O2 0.301136 0.042230 0.034533
O O3 0.415155 0.074101 0.965898
O O4 0.279618 0.131100 0.949393
O O5 0.424220 0.973109 0.032301
O O6 0.463019 0.889836 0.090004
O O7 0.523222 0.981345 0.128560
O O8 0.625000 0.557377 0.625000
O O9 0.535841 0.546897 0.731003
O O10 0.469369 0.575582 0.617074
O O11 0.444418 0.794701 0.116550
O O12 0.875000 0.875000 0.688050
#
# Coordination Sequence:
#
# PCOD9516085 Si02
#       6
#    32  32  32  32  16  32
#     4  12  22  43  65  91 134 175 218 283 340 398
#     4  11  20  39  66  96 132 173 207 265 355 414
#     4  12  21  36  60  98 135 168 196 266 344 418
#     4  11  22  38  65  97 133 169 223 263 333 424
#     4  12  27  36  61  96 130 160 226 278 339 396
#     4  10  23  40  66  94 127 179 226 271 334 410
#
# _framework density 20.814882000000001
#
# number of rings (size 3 to 8) (size 9 to 14) (size 15 to 20)
#    0.000    0.727    5.455    3.545    0.000    2.909 
#    0.000    1.364    0.000    2.182    0.000    0.000 
#    0.000    0.000    0.000    0.000    0.000    0.000 
#
# Total GULP energy -245194.864408 kJ/mol
# GULP energy per Si atom -5572.610555 kJ/mol
# Density = 2.076751 g / cm^3
# Si number density = 20.814882 Si / 1000 Ang^3
#
#
#
# Elastic Constant Matrix: (Units=GPa)
#
#
# Indices 1 2 3 4 5 6 
#
# 1 80.3674 17.5557 48.2686 0.0000 0.0000 0.0000
# 2 17.5557 55.0416 17.6979 0.0000 0.0000 0.0000
# 3 48.2686 17.6979 85.1896 0.0000 0.0000 0.0000
# 4 0.0000 0.0000 0.0000 33.0793 0.0000 0.0000
# 5 0.0000 0.0000 0.0000 0.0000 36.7654 0.0000
# 6 0.0000 0.0000 0.0000 0.0000 0.0000 25.1128
#
#
#
# Elastic Compliance Matrix: (Units=1/GPa)
#
#
# Indices 1 2 3 4 5 6 
#
# 1 0.019262 -0.002823 -0.010328 0.000000 0.000000 0.000000
# 2 -0.002823 0.019882 -0.002531 0.000000 0.000000 0.000000
# 3 -0.010328 -0.002531 0.018116 0.000000 0.000000 0.000000
# 4 0.000000 0.000000 0.000000 0.030230 0.000000 0.000000
# 5 0.000000 0.000000 0.000000 0.000000 0.027200 0.000000
# 6 0.000000 0.000000 0.000000 0.000000 0.000000 0.039820
#
#
# Mechanical properties :
#
#
# Convention : Reuss Voigt Hill
#
# Bulk Modulus (GPa) = 38.61394 43.07143 40.84268
# Shear Modulus (GPa) = 25.70611 28.12992 26.91801
#
# Velocity S-wave (km/s) = 3.51805 3.68017 3.60002
# Velocity P-wave (km/s) = 5.92399 6.22862 6.07821
#
# Compressibility (1/GPa) = 0.02589738
#
# Stress axis : x y z
#
# Youngs Moduli (GPa) = 51.91496 50.29599 55.20001
#
# Poissons Ratio (x) = 0.14199 0.57008
# Poissons Ratio (y) = 0.14656 0.13971
# Poissons Ratio (z) = 0.53616 0.12730
#
# Static dielectric constant tensor:
#      x y z
#    x 1.809230 0.000000 0.000000 
#    y 0.000000 1.810210 0.000000 
#    z 0.000000 0.000000 1.789990 
# 
# From -- ./inp_files/35442.got.cif
#   From: 2010.05.17/outbox.cif.g08.bks.cpg/sg70_18_cif.got.tgz:35442.got - 2010.06.03 15:57:51.
