data_PCOD9516911
_publ_section_title
;
Structure prediction by ZEFSAII (Michael W. Deem and Ramdas Pophale) SiO2 
 PCOD9516911
Probable space group: F D D D
;
_chemical_formula_sum "Si O2"
_cell_formula_units_Z 136
_cell_length_a 10.500614
_cell_length_b 32.633461
_cell_length_c 17.728419
_cell_angle_alpha 90.000000
_cell_angle_beta 90.000000
_cell_angle_gamma 90.000000
_cell_volume 6075.021759
_symmetry_space_group_name_H-M "F D D D"
_symmetry_group_IT_number 70
_space_group.IT_coordinate_system_code '2'
_symmetry_cell_setting 'orthorhombic'
loop_
_space_group_symop_operation_xyz
x,y,z
1/4-x,1/4-y,z
x,1/4-y,1/4-z
1/4-x,y,1/4-z
-x,-y,-z
3/4+x,3/4+y,-z
-x,3/4+y,3/4+z
3/4+x,-y,3/4+z
x,1/2+y,1/2+z
1/4-x,3/4-y,1/2+z
x,3/4-y,3/4-z
1/4-x,1/2+y,3/4-z
-x,1/2-y,1/2-z
3/4+x,1/4+y,1/2-z
-x,1/4+y,1/4+z
3/4+x,1/2-y,1/4+z
1/2+x,y,1/2+z
3/4-x,1/4-y,1/2+z
1/2+x,1/4-y,3/4-z
3/4-x,y,3/4-z
1/2-x,-y,1/2-z
1/4+x,3/4+y,1/2-z
1/2-x,3/4+y,1/4+z
1/4+x,-y,1/4+z
1/2+x,1/2+y,z
3/4-x,3/4-y,z
1/2+x,3/4-y,1/4-z
3/4-x,1/2+y,1/4-z
1/2-x,1/2-y,-z
1/4+x,1/4+y,-z
1/2-x,1/4+y,3/4+z
1/4+x,1/2-y,3/4+z
loop_
_atom_site_type_symbol
_atom_site_label
_atom_site_fract_x
_atom_site_fract_y
_atom_site_fract_z
Si Si1 0.022640 0.788742 0.694347
Si Si2 0.774062 0.121295 0.715973
Si Si3 0.528054 0.519654 0.391335
Si Si4 0.293427 0.187795 0.536841
Si Si5 0.375000 0.375000 0.375000
O O1 0.125000 0.782292 0.625000
O O2 0.000000 0.750000 0.750000
O O3 0.063535 0.828957 0.743017
O O4 0.880192 0.792889 0.659782
O O5 0.625000 0.125000 0.726888
O O6 0.795724 0.125000 0.625000
O O7 0.841330 0.161954 0.747693
O O8 0.375000 0.518199 0.375000
O O9 0.536438 0.540370 0.472619
O O10 0.576616 0.472891 0.402786
O O11 0.208202 0.153853 0.574129
#
# Coordination Sequence:
#
# PCOD9516911 Si02
#       5
#    32  32  32  32   8
#     4  12  31  48  79 112 159 204 267 325 404 481
#     4  11  25  46  76 109 152 199 254 324 404 465
#     4  11  26  49  77 110 148 203 258 317 390 473
#     4  11  25  44  78 103 148 190 256 314 391 461
#     4  12  24  44  74 104 140 192 254 306 388 456
#
# _framework density 22.386749999999999
#
# number of rings (size 3 to 8) (size 9 to 14) (size 15 to 20)
#    0.000    0.706    2.353    2.824   16.471    2.824 
#    0.000    0.000    0.000    0.000    0.000    0.000 
#    0.000    0.000    0.000    0.000    0.000    0.000 
#
# Total GULP energy -189761.676729 kJ/mol
# GULP energy per Si atom -5581.225786 kJ/mol
# Density = 2.233580 g / cm^3
# Si number density = 22.386750 Si / 1000 Ang^3
#
#
#
# Elastic Constant Matrix: (Units=GPa)
#
#
# Indices 1 2 3 4 5 6 
#
# 1 123.5373 47.3936 38.1002 0.0000 0.0000 0.0000
# 2 47.3936 145.7675 57.9989 0.0000 0.0000 0.0000
# 3 38.1002 57.9989 105.4160 0.0000 0.0000 0.0000
# 4 0.0000 0.0000 0.0000 47.2972 0.0000 0.0000
# 5 0.0000 0.0000 0.0000 0.0000 33.0305 0.0000
# 6 0.0000 0.0000 0.0000 0.0000 0.0000 -2.8949
#
#
#
# Elastic Compliance Matrix: (Units=1/GPa)
#
#
# Indices 1 2 3 4 5 6 
#
# 1 0.009650 -0.002240 -0.002255 0.000000 0.000000 0.000000
# 2 -0.002240 0.009303 -0.004309 0.000000 0.000000 0.000000
# 3 -0.002255 -0.004309 0.012672 0.000000 0.000000 0.000000
# 4 0.000000 0.000000 0.000000 0.021143 0.000000 0.000000
# 5 0.000000 0.000000 0.000000 0.000000 0.030275 0.000000
# 6 0.000000 0.000000 0.000000 0.000000 0.000000 -0.345430
#
#
# Mechanical properties :
#
#
# Convention : Reuss Voigt Hill
#
# Bulk Modulus (GPa) = 71.34455 73.52289 72.43372
# Shear Modulus (GPa) = -20.82402 30.90178 5.03888
#
# Velocity S-wave (km/s) = -3.05322 3.71935 1.50190
# Velocity P-wave (km/s) = 4.41687 7.16646 5.95260
#
# Compressibility (1/GPa) = 0.01401649
#
# Stress axis : x y z
#
# Youngs Moduli (GPa) = 103.63103 107.49259 78.91450
#
# Poissons Ratio (x) = 0.24079 0.17796
# Poissons Ratio (y) = 0.23214 0.34002
# Poissons Ratio (z) = 0.23370 0.46316
#
# Static dielectric constant tensor:
#      x y z
#    x 1.821700 0.000000 0.000000 
#    y 0.000000 1.872770 0.000000 
#    z 0.000000 0.000000 2.519030 
# 
# From -- ./inp_files/42083.got.cif
#   From: 2010.05.17/outbox.cif.g08.bks.cpg/sg70_22_cif.got.tgz:42083.got - 2010.06.03 15:57:51.
