data_PCOD9516166
_publ_section_title
;
Structure prediction by ZEFSAII (Michael W. Deem and Ramdas Pophale) SiO2 
 PCOD9516166
Probable space group: F D D D
;
_chemical_formula_sum "Si O2"
_cell_formula_units_Z 96
_cell_length_a 16.444494
_cell_length_b 27.739542
_cell_length_c 8.378371
_cell_angle_alpha 90.000000
_cell_angle_beta 90.000000
_cell_angle_gamma 90.000000
_cell_volume 3821.900605
_symmetry_space_group_name_H-M "F D D D"
_symmetry_group_IT_number 70
_space_group.IT_coordinate_system_code '2'
_symmetry_cell_setting 'orthorhombic'
loop_
_space_group_symop_operation_xyz
x,y,z
1/4-x,1/4-y,z
x,1/4-y,1/4-z
1/4-x,y,1/4-z
-x,-y,-z
3/4+x,3/4+y,-z
-x,3/4+y,3/4+z
3/4+x,-y,3/4+z
x,1/2+y,1/2+z
1/4-x,3/4-y,1/2+z
x,3/4-y,3/4-z
1/4-x,1/2+y,3/4-z
-x,1/2-y,1/2-z
3/4+x,1/4+y,1/2-z
-x,1/4+y,1/4+z
3/4+x,1/2-y,1/4+z
1/2+x,y,1/2+z
3/4-x,1/4-y,1/2+z
1/2+x,1/4-y,3/4-z
3/4-x,y,3/4-z
1/2-x,-y,1/2-z
1/4+x,3/4+y,1/2-z
1/2-x,3/4+y,1/4+z
1/4+x,-y,1/4+z
1/2+x,1/2+y,z
3/4-x,3/4-y,z
1/2+x,3/4-y,1/4-z
3/4-x,1/2+y,1/4-z
1/2-x,1/2-y,-z
1/4+x,1/4+y,-z
1/2-x,1/4+y,3/4+z
1/4+x,1/2-y,3/4+z
loop_
_atom_site_type_symbol
_atom_site_label
_atom_site_fract_x
_atom_site_fract_y
_atom_site_fract_z
Si Si1 0.041979 0.558596 0.426476
Si Si2 0.974647 0.476324 0.229444
Si Si3 0.961295 0.144234 0.802330
O O1 0.004659 0.550322 0.602030
O O2 0.131060 0.534897 0.438233
O O3 0.994595 0.530309 0.285329
O O4 0.032924 0.614728 0.390439
O O5 0.025582 0.450639 0.090263
O O6 0.963761 0.125000 0.625000
O O7 0.875000 0.129925 0.875000
#
# Coordination Sequence:
#
# PCOD9516166 Si02
#       3
#    32  32  32
#     4  10  23  43  74 102 143 184 236 295 366 445
#     4  10  23  44  72 104 141 187 234 294 371 436
#     4  12  27  44  69 102 143 188 245 303 365 438
#
# _framework density 25.118395
#
# number of rings (size 3 to 8) (size 9 to 14) (size 15 to 20)
#    0.000    1.333    0.000    4.000   14.000    6.667 
#    0.000    0.000    0.000    0.000    0.000    0.000 
#    0.000    0.000    0.000    0.000    0.000    0.000 
#
# Total GULP energy -134232.532036 kJ/mol
# GULP energy per Si atom -5593.022168 kJ/mol
# Density = 2.506122 g / cm^3
# Si number density = 25.118395 Si / 1000 Ang^3
#
#
#
# Elastic Constant Matrix: (Units=GPa)
#
#
# Indices 1 2 3 4 5 6 
#
# 1 103.1743 23.2511 13.9482 -0.0001 -0.0001 0.0000
# 2 23.2511 117.4503 27.1278 0.0000 0.0000 0.0000
# 3 13.9482 27.1278 122.1090 -0.0001 -0.0002 0.0000
# 4 -0.0001 0.0000 -0.0001 98.7939 0.0001 0.0000
# 5 -0.0001 0.0000 -0.0002 0.0001 28.4370 0.0000
# 6 0.0000 0.0000 0.0000 0.0000 0.0000 31.0352
#
#
#
# Elastic Compliance Matrix: (Units=1/GPa)
#
#
# Indices 1 2 3 4 5 6 
#
# 1 0.010211 -0.001847 -0.000756 0.000000 0.000000 0.000000
# 2 -0.001847 0.009309 -0.001857 0.000000 0.000000 0.000000
# 3 -0.000756 -0.001857 0.008688 0.000000 0.000000 0.000000
# 4 0.000000 0.000000 0.000000 0.010122 0.000000 0.000000
# 5 0.000000 0.000000 0.000000 0.000000 0.035165 0.000000
# 6 0.000000 0.000000 0.000000 0.000000 0.000000 0.032222
#
#
# Mechanical properties :
#
#
# Convention : Reuss Voigt Hill
#
# Bulk Modulus (GPa) = 51.84564 52.37642 52.11103
# Shear Modulus (GPa) = 41.29977 50.21365 45.75671
#
# Velocity S-wave (km/s) = 4.05928 4.47596 4.27270
# Velocity P-wave (km/s) = 6.53113 6.89995 6.71807
#
# Compressibility (1/GPa) = 0.01928803
#
# Stress axis : x y z
#
# Youngs Moduli (GPa) = 97.93624 107.42557 115.09676
#
# Poissons Ratio (x) = 0.19839 0.08702
# Poissons Ratio (y) = 0.18086 0.21375
# Poissons Ratio (z) = 0.07405 0.19950
#
# Static dielectric constant tensor:
#      x y z
#    x 2.012590 0.000000 0.000000 
#    y 0.000000 1.941770 0.000000 
#    z 0.000000 0.000000 1.972510 
# 
# From -- ./inp_files/8089.got.cif
#   From: 2010.05.17/outbox.cif.g08.bks.cpg/sg70_5_cif.got.tgz:8089.got - 2010.06.03 15:57:51.
