data_PCOD9516724
_publ_section_title
;
Structure prediction by ZEFSAII (Michael W. Deem and Ramdas Pophale) SiO2 
 PCOD9516724
Probable space group: F D D D
;
_chemical_formula_sum "Si O2"
_cell_formula_units_Z 144
_cell_length_a 20.883163
_cell_length_b 27.241575
_cell_length_c 11.343492
_cell_angle_alpha 90.000000
_cell_angle_beta 90.000000
_cell_angle_gamma 90.000000
_cell_volume 6453.202012
_symmetry_space_group_name_H-M "F D D D"
_symmetry_group_IT_number 70
_space_group.IT_coordinate_system_code '2'
_symmetry_cell_setting 'orthorhombic'
loop_
_space_group_symop_operation_xyz
x,y,z
1/4-x,1/4-y,z
x,1/4-y,1/4-z
1/4-x,y,1/4-z
-x,-y,-z
3/4+x,3/4+y,-z
-x,3/4+y,3/4+z
3/4+x,-y,3/4+z
x,1/2+y,1/2+z
1/4-x,3/4-y,1/2+z
x,3/4-y,3/4-z
1/4-x,1/2+y,3/4-z
-x,1/2-y,1/2-z
3/4+x,1/4+y,1/2-z
-x,1/4+y,1/4+z
3/4+x,1/2-y,1/4+z
1/2+x,y,1/2+z
3/4-x,1/4-y,1/2+z
1/2+x,1/4-y,3/4-z
3/4-x,y,3/4-z
1/2-x,-y,1/2-z
1/4+x,3/4+y,1/2-z
1/2-x,3/4+y,1/4+z
1/4+x,-y,1/4+z
1/2+x,1/2+y,z
3/4-x,3/4-y,z
1/2+x,3/4-y,1/4-z
3/4-x,1/2+y,1/4-z
1/2-x,1/2-y,-z
1/4+x,1/4+y,-z
1/2-x,1/4+y,3/4+z
1/4+x,1/2-y,3/4+z
loop_
_atom_site_type_symbol
_atom_site_label
_atom_site_fract_x
_atom_site_fract_y
_atom_site_fract_z
Si Si1 0.875000 0.031330 0.875000
Si Si2 0.285106 0.204455 0.438544
Si Si3 0.949069 0.385186 0.734539
Si Si4 0.487396 0.497066 0.187286
Si Si5 0.857002 0.679363 0.114861
O O1 0.887034 0.068183 0.764620
O O2 0.811478 0.998418 0.900427
O O3 0.250000 0.250000 0.500000
O O4 0.243308 0.155676 0.426495
O O5 0.287844 0.226285 0.307048
O O6 0.343353 0.190804 0.528298
O O7 0.956754 0.375000 0.875000
O O8 0.875000 0.375000 0.706142
O O9 0.967879 0.440281 0.700537
O O10 0.443869 0.527239 0.097929
O O11 0.829172 0.625000 0.125000
#
# Coordination Sequence:
#
# PCOD9516724 Si02
#       5
#    16  32  32  32  32
#     4  12  26  50  71 102 154 194 251 312 374 458
#     4  12  22  45  73 110 148 197 249 306 375 455
#     4  11  23  40  70 112 148 187 244 313 373 442
#     4  12  27  46  76 106 151 199 249 314 384 451
#     4  12  28  47  75 109 146 199 255 311 382 455
#
# _framework density 22.314503999999999
#
# number of rings (size 3 to 8) (size 9 to 14) (size 15 to 20)
#    0.000    0.222    4.444    4.667    9.333    0.000 
#    0.000    0.556    0.000    0.000    0.000    0.000 
#    0.000    0.000    0.000    0.000    0.000    0.000 
#
# Total GULP energy -200669.492223 kJ/mol
# GULP energy per Si atom -5574.152562 kJ/mol
# Density = 2.226371 g / cm^3
# Si number density = 22.314504 Si / 1000 Ang^3
#
#
#
# Elastic Constant Matrix: (Units=GPa)
#
#
# Indices 1 2 3 4 5 6 
#
# 1 126.4484 77.3610 10.5536 0.0000 0.0000 0.0000
# 2 77.3610 197.7376 6.8458 0.0000 0.0000 0.0000
# 3 10.5536 6.8458 66.4732 0.0000 0.0000 0.0000
# 4 0.0000 0.0000 0.0000 -10.2873 0.0000 0.0000
# 5 0.0000 0.0000 0.0000 0.0000 17.4398 0.0000
# 6 0.0000 0.0000 0.0000 0.0000 0.0000 -25.8752
#
#
#
# Elastic Compliance Matrix: (Units=1/GPa)
#
#
# Indices 1 2 3 4 5 6 
#
# 1 0.010499 -0.004064 -0.001248 0.000000 0.000000 0.000000
# 2 -0.004064 0.006649 -0.000039 0.000000 0.000000 0.000000
# 3 -0.001248 -0.000039 0.015246 0.000000 0.000000 0.000000
# 4 0.000000 0.000000 0.000000 -0.097208 0.000000 0.000000
# 5 0.000000 0.000000 0.000000 0.000000 0.057340 0.000000
# 6 0.000000 0.000000 0.000000 0.000000 0.000000 -0.038647
#
#
# Mechanical properties :
#
#
# Convention : Reuss Voigt Hill
#
# Bulk Modulus (GPa) = 46.10533 64.46442 55.28488
# Shear Modulus (GPa) = -177.38864 15.98206 -80.70329
#
# Velocity S-wave (km/s) = -8.92566 2.67913 -6.02037
# Velocity P-wave (km/s) = 9.24752 6.20661 4.84740
#
# Compressibility (1/GPa) = 0.02168947
#
# Stress axis : x y z
#
# Youngs Moduli (GPa) = 95.24605 150.40596 65.59139
#
# Poissons Ratio (x) = 0.61130 0.08188
# Poissons Ratio (y) = 0.38711 0.00259
# Poissons Ratio (z) = 0.11890 0.00593
#
# Static dielectric constant tensor:
#      x y z
#    x 1.932910 0.000000 0.000000 
#    y 0.000000 1.637450 0.000000 
#    z 0.000000 0.000000 2.048350 
# 
# From -- ./inp_files/19203.got.cif
#   From: 2010.05.17/outbox.cif.g08.bks.cpg/sg70_10_cif.got.tgz:19203.got - 2010.06.03 15:57:51.
