data_PCOD9516895
_publ_section_title
;
Structure prediction by ZEFSAII (Michael W. Deem and Ramdas Pophale) SiO2 
 PCOD9516895
Probable space group: F D D D
;
_chemical_formula_sum "Si O2"
_cell_formula_units_Z 120
_cell_length_a 17.288848
_cell_length_b 9.908064
_cell_length_c 25.872945
_cell_angle_alpha 90.000000
_cell_angle_beta 90.000000
_cell_angle_gamma 90.000000
_cell_volume 4432.009928
_symmetry_space_group_name_H-M "F D D D"
_symmetry_group_IT_number 70
_space_group.IT_coordinate_system_code '2'
_symmetry_cell_setting 'orthorhombic'
loop_
_space_group_symop_operation_xyz
x,y,z
1/4-x,1/4-y,z
x,1/4-y,1/4-z
1/4-x,y,1/4-z
-x,-y,-z
3/4+x,3/4+y,-z
-x,3/4+y,3/4+z
3/4+x,-y,3/4+z
x,1/2+y,1/2+z
1/4-x,3/4-y,1/2+z
x,3/4-y,3/4-z
1/4-x,1/2+y,3/4-z
-x,1/2-y,1/2-z
3/4+x,1/4+y,1/2-z
-x,1/4+y,1/4+z
3/4+x,1/2-y,1/4+z
1/2+x,y,1/2+z
3/4-x,1/4-y,1/2+z
1/2+x,1/4-y,3/4-z
3/4-x,y,3/4-z
1/2-x,-y,1/2-z
1/4+x,3/4+y,1/2-z
1/2-x,3/4+y,1/4+z
1/4+x,-y,1/4+z
1/2+x,1/2+y,z
3/4-x,3/4-y,z
1/2+x,3/4-y,1/4-z
3/4-x,1/2+y,1/4-z
1/2-x,1/2-y,-z
1/4+x,1/4+y,-z
1/2-x,1/4+y,3/4+z
1/4+x,1/2-y,3/4+z
loop_
_atom_site_type_symbol
_atom_site_label
_atom_site_fract_x
_atom_site_fract_y
_atom_site_fract_z
Si Si1 0.244938 0.329035 0.577729
Si Si2 0.543884 0.255114 0.833737
Si Si3 0.645355 0.324382 0.522393
Si Si4 0.875000 0.375000 0.875000
Si Si5 0.625000 0.125000 0.249937
O O1 0.287497 0.374710 0.629573
O O2 0.185442 0.436847 0.552810
O O3 0.185401 0.210453 0.591281
O O4 0.309651 0.304920 0.535529
O O5 0.553803 0.375000 0.875000
O O6 0.602900 0.271996 0.786324
O O7 0.460970 0.251185 0.804842
O O8 0.665417 0.485989 0.520710
#
# Coordination Sequence:
#
# PCOD9516895 Si02
#       5
#    32  32  32   8  16
#     4  12  26  50  81 116 172 221 285 349 429 521
#     4  11  24  51  78 123 160 213 282 353 423 507
#     4  11  25  47  79 115 165 216 275 352 430 503
#     4  12  26  52  86 120 164 234 280 354 446 512
#     4  12  27  52  75 124 164 224 279 350 431 524
#
# _framework density 27.075752999999999
#
# number of rings (size 3 to 8) (size 9 to 14) (size 15 to 20)
#    0.000    0.533    5.333    1.600    0.000    4.267 
#    4.800    0.000    0.000    0.000    0.000    0.000 
#    0.000    0.000    0.000    0.000    0.000    0.000 
#
# Total GULP energy -167839.979341 kJ/mol
# GULP energy per Si atom -5594.665978 kJ/mol
# Density = 2.701413 g / cm^3
# Si number density = 27.075753 Si / 1000 Ang^3
#
#
#
# Elastic Constant Matrix: (Units=GPa)
#
#
# Indices 1 2 3 4 5 6 
#
# 1 102.1429 13.4069 22.2570 0.0000 0.0000 0.0000
# 2 13.4069 145.2081 16.9521 0.0000 0.0000 0.0000
# 3 22.2570 16.9521 124.6598 0.0000 0.0000 0.0000
# 4 0.0000 0.0000 0.0000 -211.9791 0.0000 0.0000
# 5 0.0000 0.0000 0.0000 0.0000 40.7283 0.0000
# 6 0.0000 0.0000 0.0000 0.0000 0.0000 21.6645
#
#
#
# Elastic Compliance Matrix: (Units=1/GPa)
#
#
# Indices 1 2 3 4 5 6 
#
# 1 0.010265 -0.000746 -0.001731 0.000000 0.000000 0.000000
# 2 -0.000746 0.007052 -0.000826 0.000000 0.000000 0.000000
# 3 -0.001731 -0.000826 0.008443 0.000000 0.000000 0.000000
# 4 0.000000 0.000000 0.000000 -0.004717 0.000000 0.000000
# 5 0.000000 0.000000 0.000000 0.000000 0.024553 0.000000
# 6 0.000000 0.000000 0.000000 0.000000 0.000000 0.046159
#
#
# Mechanical properties :
#
#
# Convention : Reuss Voigt Hill
#
# Bulk Modulus (GPa) = 52.20637 53.02698 52.61667
# Shear Modulus (GPa) = 47.73483 -8.62429 19.55527
#
# Velocity S-wave (km/s) = 4.20338 -1.78666 2.69037
# Velocity P-wave (km/s) = 6.54838 3.92058 5.39686
#
# Compressibility (1/GPa) = 0.01915475
#
# Stress axis : x y z
#
# Youngs Moduli (GPa) = 97.41504 141.80519 118.43761
#
# Poissons Ratio (x) = 0.10574 0.20506
# Poissons Ratio (y) = 0.07264 0.09781
# Poissons Ratio (z) = 0.16866 0.11711
#
# Static dielectric constant tensor:
#      x y z
#    x 8.150480 0.000000 0.000000 
#    y 0.000000 2.272230 0.000000 
#    z 0.000000 0.000000 2.404210 
# 
# From -- ./inp_files/49818.got.cif
#   From: 2010.05.17/outbox.cif.g08.bks.cpg/sg70_25_cif.got.tgz:49818.got - 2010.06.03 15:57:51.
