data_PCOD9516709
_publ_section_title
;
Structure prediction by ZEFSAII (Michael W. Deem and Ramdas Pophale) SiO2 
 PCOD9516709
Probable space group: F D D D
;
_chemical_formula_sum "Si O2"
_cell_formula_units_Z 144
_cell_length_a 20.845253
_cell_length_b 10.301591
_cell_length_c 27.283208
_cell_angle_alpha 90.000000
_cell_angle_beta 90.000000
_cell_angle_gamma 90.000000
_cell_volume 5858.776188
_symmetry_space_group_name_H-M "F D D D"
_symmetry_group_IT_number 70
_space_group.IT_coordinate_system_code '2'
_symmetry_cell_setting 'orthorhombic'
loop_
_space_group_symop_operation_xyz
x,y,z
1/4-x,1/4-y,z
x,1/4-y,1/4-z
1/4-x,y,1/4-z
-x,-y,-z
3/4+x,3/4+y,-z
-x,3/4+y,3/4+z
3/4+x,-y,3/4+z
x,1/2+y,1/2+z
1/4-x,3/4-y,1/2+z
x,3/4-y,3/4-z
1/4-x,1/2+y,3/4-z
-x,1/2-y,1/2-z
3/4+x,1/4+y,1/2-z
-x,1/4+y,1/4+z
3/4+x,1/2-y,1/4+z
1/2+x,y,1/2+z
3/4-x,1/4-y,1/2+z
1/2+x,1/4-y,3/4-z
3/4-x,y,3/4-z
1/2-x,-y,1/2-z
1/4+x,3/4+y,1/2-z
1/2-x,3/4+y,1/4+z
1/4+x,-y,1/4+z
1/2+x,1/2+y,z
3/4-x,3/4-y,z
1/2+x,3/4-y,1/4-z
3/4-x,1/2+y,1/4-z
1/2-x,1/2-y,-z
1/4+x,1/4+y,-z
1/2-x,1/4+y,3/4+z
1/4+x,1/2-y,3/4+z
loop_
_atom_site_type_symbol
_atom_site_label
_atom_site_fract_x
_atom_site_fract_y
_atom_site_fract_z
Si Si1 0.875000 0.875000 0.118111
Si Si2 0.860906 0.692386 0.720663
Si Si3 0.731479 0.818680 0.730007
Si Si4 0.289420 0.831936 0.043830
Si Si5 0.200892 0.273318 0.621223
O O1 0.878769 0.751313 0.083258
O O2 0.931565 0.892061 0.156748
O O3 0.807312 0.794005 0.742462
O O4 0.930841 0.667859 0.745111
O O5 0.824587 0.554043 0.715260
O O6 0.703972 0.679750 0.749125
O O7 0.726832 0.837145 0.671537
O O8 0.218519 0.815463 0.066111
O O9 0.125000 0.277650 0.625000
O O10 0.224568 0.125000 0.625000
#
# Coordination Sequence:
#
# PCOD9516709 Si02
#       5
#    16  32  32  32  32
#     4  12  24  44  72  94 142 186 244 284 356 440
#     4  12  26  44  67 105 137 190 232 297 361 439
#     4  12  25  41  71 101 144 181 240 294 373 433
#     4  12  23  43  70 102 136 183 235 297 358 437
#     4  11  23  37  62 101 143 175 223 297 361 420
#
# _framework density 24.578510999999999
#
# number of rings (size 3 to 8) (size 9 to 14) (size 15 to 20)
#    0.000    0.222    6.667    2.667    6.222    0.889 
#    0.000    0.000    0.000    0.000    0.000    0.000 
#    0.000    0.000    0.000    0.000    0.000    0.000 
#
# Total GULP energy -200870.861471 kJ/mol
# GULP energy per Si atom -5579.746152 kJ/mol
# Density = 2.452257 g / cm^3
# Si number density = 24.578511 Si / 1000 Ang^3
#
#
#
# Elastic Constant Matrix: (Units=GPa)
#
#
# Indices 1 2 3 4 5 6 
#
# 1 151.8933 21.1833 36.3577 0.0000 0.0000 0.0000
# 2 21.1833 94.6698 25.2683 0.0000 0.0000 0.0000
# 3 36.3577 25.2683 116.7959 0.0000 0.0000 0.0000
# 4 0.0000 0.0000 0.0000 10.9746 0.0000 0.0000
# 5 0.0000 0.0000 0.0000 0.0000 34.9701 0.0000
# 6 0.0000 0.0000 0.0000 0.0000 0.0000 18.0883
#
#
#
# Elastic Compliance Matrix: (Units=1/GPa)
#
#
# Indices 1 2 3 4 5 6 
#
# 1 0.007216 -0.001077 -0.002013 0.000000 0.000000 0.000000
# 2 -0.001077 0.011371 -0.002125 0.000000 0.000000 0.000000
# 3 -0.002013 -0.002125 0.009648 0.000000 0.000000 0.000000
# 4 0.000000 0.000000 0.000000 0.091120 0.000000 0.000000
# 5 0.000000 0.000000 0.000000 0.000000 0.028596 0.000000
# 6 0.000000 0.000000 0.000000 0.000000 0.000000 0.055284
#
#
# Mechanical properties :
#
#
# Convention : Reuss Voigt Hill
#
# Bulk Modulus (GPa) = 56.16439 58.77528 57.46984
# Shear Modulus (GPa) = 22.76864 31.50992 27.13928
#
# Velocity S-wave (km/s) = 3.04692 3.58440 3.32654
# Velocity P-wave (km/s) = 5.93961 6.41060 6.17959
#
# Compressibility (1/GPa) = 0.01780487
#
# Stress axis : x y z
#
# Youngs Moduli (GPa) = 138.58724 87.94148 103.64525
#
# Poissons Ratio (x) = 0.09474 0.20865
# Poissons Ratio (y) = 0.14929 0.22022
# Poissons Ratio (z) = 0.27899 0.18686
#
# Static dielectric constant tensor:
#      x y z
#    x 2.308200 0.000000 0.000000 
#    y 0.000000 2.015230 0.000000 
#    z 0.000000 0.000000 1.913160 
# 
# From -- ./inp_files/60987.got.cif
#   From: 2010.05.17/outbox.cif.g08.bks.cpg/sg70_31_cif.got.tgz:60987.got - 2010.06.03 15:57:51.
