data_PCOD9516165
_publ_section_title
;
Structure prediction by ZEFSAII (Michael W. Deem and Ramdas Pophale) SiO2 
 PCOD9516165
Probable space group: F D D D
;
_chemical_formula_sum "Si O2"
_cell_formula_units_Z 216
_cell_length_a 28.203402
_cell_length_b 12.212995
_cell_length_c 28.634198
_cell_angle_alpha 90.000000
_cell_angle_beta 90.000000
_cell_angle_gamma 90.000000
_cell_volume 9862.992451
_symmetry_space_group_name_H-M "F D D D"
_symmetry_group_IT_number 70
_space_group.IT_coordinate_system_code '2'
_symmetry_cell_setting 'orthorhombic'
loop_
_space_group_symop_operation_xyz
x,y,z
1/4-x,1/4-y,z
x,1/4-y,1/4-z
1/4-x,y,1/4-z
-x,-y,-z
3/4+x,3/4+y,-z
-x,3/4+y,3/4+z
3/4+x,-y,3/4+z
x,1/2+y,1/2+z
1/4-x,3/4-y,1/2+z
x,3/4-y,3/4-z
1/4-x,1/2+y,3/4-z
-x,1/2-y,1/2-z
3/4+x,1/4+y,1/2-z
-x,1/4+y,1/4+z
3/4+x,1/2-y,1/4+z
1/2+x,y,1/2+z
3/4-x,1/4-y,1/2+z
1/2+x,1/4-y,3/4-z
3/4-x,y,3/4-z
1/2-x,-y,1/2-z
1/4+x,3/4+y,1/2-z
1/2-x,3/4+y,1/4+z
1/4+x,-y,1/4+z
1/2+x,1/2+y,z
3/4-x,3/4-y,z
1/2+x,3/4-y,1/4-z
3/4-x,1/2+y,1/4-z
1/2-x,1/2-y,-z
1/4+x,1/4+y,-z
1/2-x,1/4+y,3/4+z
1/4+x,1/2-y,3/4+z
loop_
_atom_site_type_symbol
_atom_site_label
_atom_site_fract_x
_atom_site_fract_y
_atom_site_fract_z
Si Si1 0.283622 0.560445 0.854734
Si Si2 0.584118 0.987580 0.299975
Si Si3 0.389658 0.200509 0.447966
Si Si4 0.321134 0.356439 0.632299
Si Si5 0.846979 0.625000 0.625000
Si Si6 0.375000 0.875000 0.875000
Si Si7 0.088750 0.523961 0.696668
Si Si8 0.739331 0.145759 0.531170
O O1 0.313298 0.658528 0.830218
O O2 0.227516 0.586963 0.852423
O O3 0.308276 0.527543 0.903433
O O4 0.285516 0.448813 0.825826
O O5 0.599988 0.006392 0.247241
O O6 0.619410 0.916050 0.332613
O O7 0.535886 0.918678 0.295040
O O8 0.575366 0.097765 0.329295
O O9 0.360204 0.282047 0.414170
O O10 0.367244 0.083600 0.461474
O O11 0.375000 0.375000 0.652529
O O12 0.315071 0.228031 0.636808
O O13 0.125000 0.625000 0.687159
O O14 0.051452 0.563936 0.735974
O O15 0.750000 0.250000 0.500000
#
# Coordination Sequence:
#
# PCOD9516165 Si02
#       8
#    32  32  32  32  16   8  32  32
#     4  12  23  40  69 101 143 182 236 302 372 442
#     4  11  23  46  71 105 140 190 241 304 376 438
#     4  12  27  45  71 105 146 194 246 308 372 449
#     4  10  23  43  71  97 137 193 238 300 358 437
#     4  10  24  45  70 100 132 190 250 291 360 430
#     4  12  28  46  70 104 144 200 256 300 376 442
#     4  12  24  42  71 105 144 186 235 307 387 446
#     4  12  23  37  66 106 142 178 230 300 372 454
#
# _framework density 21.900047000000001
#
# number of rings (size 3 to 8) (size 9 to 14) (size 15 to 20)
#    0.000    0.593    5.926    2.222    5.185    1.778 
#    0.000    4.444    0.000    6.222    0.000    0.000 
#    0.000    0.000    0.000    0.000    0.000    0.000 
#
# Total GULP energy -300720.468815 kJ/mol
# GULP energy per Si atom -5568.897571 kJ/mol
# Density = 2.185020 g / cm^3
# Si number density = 21.900047 Si / 1000 Ang^3
#
#
#
# Elastic Constant Matrix: (Units=GPa)
#
#
# Indices 1 2 3 4 5 6 
#
# 1 104.7812 16.9622 0.4559 0.0000 0.0000 0.0000
# 2 16.9622 116.3111 6.6570 0.0000 0.0000 0.0000
# 3 0.4559 6.6570 65.4181 0.0000 0.0000 0.0000
# 4 0.0000 0.0000 0.0000 37.7412 0.0000 0.0000
# 5 0.0000 0.0000 0.0000 0.0000 17.9752 0.0000
# 6 0.0000 0.0000 0.0000 0.0000 0.0000 32.5855
#
#
#
# Elastic Compliance Matrix: (Units=1/GPa)
#
#
# Indices 1 2 3 4 5 6 
#
# 1 0.009775 -0.001430 0.000077 0.000000 0.000000 0.000000
# 2 -0.001430 0.008857 -0.000891 0.000000 0.000000 0.000000
# 3 0.000077 -0.000891 0.015376 0.000000 0.000000 0.000000
# 4 0.000000 0.000000 0.000000 0.026496 0.000000 0.000000
# 5 0.000000 0.000000 0.000000 0.000000 0.055632 0.000000
# 6 0.000000 0.000000 0.000000 0.000000 0.000000 0.030689
#
#
# Mechanical properties :
#
#
# Convention : Reuss Voigt Hill
#
# Bulk Modulus (GPa) = 33.87455 37.18451 35.52953
# Shear Modulus (GPa) = 31.02631 35.15607 33.09119
#
# Velocity S-wave (km/s) = 3.76802 4.01096 3.89139
# Velocity P-wave (km/s) = 5.86788 6.20213 6.03732
#
# Compressibility (1/GPa) = 0.02952069
#
# Stress axis : x y z
#
# Youngs Moduli (GPa) = 102.30349 112.90275 65.03449
#
# Poissons Ratio (x) = 0.16144 -0.00503
# Poissons Ratio (y) = 0.14629 0.05797
# Poissons Ratio (z) = -0.00792 0.10064
#
# Static dielectric constant tensor:
#      x y z
#    x 1.858240 0.000000 0.000000 
#    y 0.000000 1.835030 0.000000 
#    z 0.000000 0.000000 1.836180 
# 
# From -- ./inp_files/69032.got.cif
#   From: 2010.05.17/outbox.cif.g08.bks.cpg/sg70_35_cif.got.tgz:69032.got - 2010.06.03 15:57:51.
