data_PCOD9516185
_publ_section_title
;
Structure prediction by ZEFSAII (Michael W. Deem and Ramdas Pophale) SiO2 
 PCOD9516185
Probable space group: F D D D
;
_chemical_formula_sum "Si O2"
_cell_formula_units_Z 144
_cell_length_a 22.157164
_cell_length_b 28.621925
_cell_length_c 11.323009
_cell_angle_alpha 90.000000
_cell_angle_beta 90.000000
_cell_angle_gamma 90.000000
_cell_volume 7180.833618
_symmetry_space_group_name_H-M "F D D D"
_symmetry_group_IT_number 70
_space_group.IT_coordinate_system_code '2'
_symmetry_cell_setting 'orthorhombic'
loop_
_space_group_symop_operation_xyz
x,y,z
1/4-x,1/4-y,z
x,1/4-y,1/4-z
1/4-x,y,1/4-z
-x,-y,-z
3/4+x,3/4+y,-z
-x,3/4+y,3/4+z
3/4+x,-y,3/4+z
x,1/2+y,1/2+z
1/4-x,3/4-y,1/2+z
x,3/4-y,3/4-z
1/4-x,1/2+y,3/4-z
-x,1/2-y,1/2-z
3/4+x,1/4+y,1/2-z
-x,1/4+y,1/4+z
3/4+x,1/2-y,1/4+z
1/2+x,y,1/2+z
3/4-x,1/4-y,1/2+z
1/2+x,1/4-y,3/4-z
3/4-x,y,3/4-z
1/2-x,-y,1/2-z
1/4+x,3/4+y,1/2-z
1/2-x,3/4+y,1/4+z
1/4+x,-y,1/4+z
1/2+x,1/2+y,z
3/4-x,3/4-y,z
1/2+x,3/4-y,1/4-z
3/4-x,1/2+y,1/4-z
1/2-x,1/2-y,-z
1/4+x,1/4+y,-z
1/2-x,1/4+y,3/4+z
1/4+x,1/2-y,3/4+z
loop_
_atom_site_type_symbol
_atom_site_label
_atom_site_fract_x
_atom_site_fract_y
_atom_site_fract_z
Si Si1 0.375000 0.875000 0.569171
Si Si2 0.742798 0.259517 0.637878
Si Si3 0.835906 0.125000 0.125000
Si Si4 0.004372 0.879456 0.148128
Si Si5 0.583964 0.440881 0.743135
Si Si6 0.375000 0.297229 0.875000
O O1 0.315376 0.885478 0.644043
O O2 0.391692 0.918077 0.482607
O O3 0.750000 0.250000 0.500000
O O4 0.742191 0.314861 0.645124
O O5 0.795272 0.235079 0.714508
O O6 0.679670 0.234769 0.668911
O O7 0.792337 0.119452 0.235616
O O8 0.878464 0.079781 0.145656
O O9 0.038600 0.851191 0.044737
O O10 0.625000 0.449856 0.625000
#
# Coordination Sequence:
#
# PCOD9516185 Si02
#       6
#    16  32  16  32  32  16
#     4  11  22  43  62  90 138 165 202 277 332 366
#     4  12  24  39  68 100 121 167 222 269 324 395
#     4  10  24  41  66  87 124 178 212 256 316 408
#     4  11  24  43  65  93 127 172 213 265 329 383
#     4  10  23  45  63  92 135 166 212 276 330 379
#     4  11  24  38  64  96 130 162 212 276 324 377
#
# _framework density 20.053383
#
# number of rings (size 3 to 8) (size 9 to 14) (size 15 to 20)
#    0.000    1.111    4.444    1.333    7.778    0.444 
#    4.000    2.222    0.000    0.000    0.000    0.000 
#    0.000    0.000    0.000    0.000    0.000    0.000 
#
# Total GULP energy -200833.126608 kJ/mol
# GULP energy per Si atom -5578.697961 kJ/mol
# Density = 2.000774 g / cm^3
# Si number density = 20.053383 Si / 1000 Ang^3
#
#
#
# Elastic Constant Matrix: (Units=GPa)
#
#
# Indices 1 2 3 4 5 6 
#
# 1 113.7777 24.0319 20.7604 0.0000 0.0000 0.0000
# 2 24.0319 92.4665 7.3020 0.0000 0.0000 0.0000
# 3 20.7604 7.3020 47.7856 0.0000 0.0000 0.0000
# 4 0.0000 0.0000 0.0000 13.0150 0.0000 0.0000
# 5 0.0000 0.0000 0.0000 0.0000 29.0727 0.0000
# 6 0.0000 0.0000 0.0000 0.0000 0.0000 18.1345
#
#
#
# Elastic Compliance Matrix: (Units=1/GPa)
#
#
# Indices 1 2 3 4 5 6 
#
# 1 0.010000 -0.002284 -0.003996 0.000000 0.000000 0.000000
# 2 -0.002284 0.011468 -0.000760 0.000000 0.000000 0.000000
# 3 -0.003996 -0.000760 0.022779 0.000000 0.000000 0.000000
# 4 0.000000 0.000000 0.000000 0.076834 0.000000 0.000000
# 5 0.000000 0.000000 0.000000 0.000000 0.034397 0.000000
# 6 0.000000 0.000000 0.000000 0.000000 0.000000 0.055143
#
#
# Mechanical properties :
#
#
# Convention : Reuss Voigt Hill
#
# Bulk Modulus (GPa) = 33.14729 39.80202 36.47466
# Shear Modulus (GPa) = 21.29860 25.50683 23.40271
#
# Velocity S-wave (km/s) = 3.26252 3.57030 3.41987
# Velocity P-wave (km/s) = 5.54594 6.07349 5.81570
#
# Compressibility (1/GPa) = 0.03016837
#
# Stress axis : x y z
#
# Youngs Moduli (GPa) = 99.99521 87.19718 43.90023
#
# Poissons Ratio (x) = 0.19912 0.17541
# Poissons Ratio (y) = 0.22835 0.03338
# Poissons Ratio (z) = 0.39956 0.06630
#
# Static dielectric constant tensor:
#      x y z
#    x 0.967780 0.000000 0.000000 
#    y 0.000000 1.739960 0.000000 
#    z 0.000000 0.000000 1.685230 
# 
# From -- ./inp_files/19267.got.cif
#   From: 2010.05.17/outbox.cif.g08.bks.cpg/sg70_10_cif.got.tgz:19267.got - 2010.06.03 15:57:51.
