data_PCOD9516924
_publ_section_title
;
Structure prediction by ZEFSAII (Michael W. Deem and Ramdas Pophale) SiO2 
 PCOD9516924
Probable space group: F D D D
;
_chemical_formula_sum "Si O2"
_cell_formula_units_Z 136
_cell_length_a 26.224264
_cell_length_b 10.893612
_cell_length_c 21.472402
_cell_angle_alpha 90.000000
_cell_angle_beta 90.000000
_cell_angle_gamma 90.000000
_cell_volume 6134.170463
_symmetry_space_group_name_H-M "F D D D"
_symmetry_group_IT_number 70
_space_group.IT_coordinate_system_code '2'
_symmetry_cell_setting 'orthorhombic'
loop_
_space_group_symop_operation_xyz
x,y,z
1/4-x,1/4-y,z
x,1/4-y,1/4-z
1/4-x,y,1/4-z
-x,-y,-z
3/4+x,3/4+y,-z
-x,3/4+y,3/4+z
3/4+x,-y,3/4+z
x,1/2+y,1/2+z
1/4-x,3/4-y,1/2+z
x,3/4-y,3/4-z
1/4-x,1/2+y,3/4-z
-x,1/2-y,1/2-z
3/4+x,1/4+y,1/2-z
-x,1/4+y,1/4+z
3/4+x,1/2-y,1/4+z
1/2+x,y,1/2+z
3/4-x,1/4-y,1/2+z
1/2+x,1/4-y,3/4-z
3/4-x,y,3/4-z
1/2-x,-y,1/2-z
1/4+x,3/4+y,1/2-z
1/2-x,3/4+y,1/4+z
1/4+x,-y,1/4+z
1/2+x,1/2+y,z
3/4-x,3/4-y,z
1/2+x,3/4-y,1/4-z
3/4-x,1/2+y,1/4-z
1/2-x,1/2-y,-z
1/4+x,1/4+y,-z
1/2-x,1/4+y,3/4+z
1/4+x,1/2-y,3/4+z
loop_
_atom_site_type_symbol
_atom_site_label
_atom_site_fract_x
_atom_site_fract_y
_atom_site_fract_z
Si Si1 0.375000 0.375000 0.875000
Si Si2 0.186368 0.486534 0.124465
Si Si3 0.205314 0.774098 0.709085
Si Si4 0.861266 0.514075 0.576855
Si Si5 0.710673 0.389469 0.256197
O O1 0.337463 0.294525 0.832502
O O2 0.205755 0.625000 0.125000
O O3 0.125000 0.489724 0.125000
O O4 0.205610 0.411665 0.184025
O O5 0.200689 0.416052 0.061605
O O6 0.186341 0.757888 0.779623
O O7 0.260356 0.711820 0.702326
O O8 0.852580 0.625000 0.625000
O O9 0.875000 0.375000 0.599956
O O10 0.909322 0.559836 0.535945
O O11 0.750000 0.500000 0.250000
#
# Coordination Sequence:
#
# PCOD9516924 Si02
#       5
#     8  32  32  32  32
#     4  12  20  44  78 104 140 192 252 312 364 428
#     4  11  25  46  73 106 149 193 247 313 380 447
#     4  12  23  44  78 103 142 196 248 311 372 448
#     4  12  27  47  69 109 155 194 243 313 387 446
#     4  12  25  44  75 109 138 191 263 298 370 458
#
# _framework density 22.170887
#
# number of rings (size 3 to 8) (size 9 to 14) (size 15 to 20)
#    0.000    0.235    7.059    1.412    4.941    3.765 
#    0.000    0.000    0.000    0.000    0.000    0.000 
#    0.000    0.000    0.000    0.000    0.000    0.000 
#
# Total GULP energy -190417.434439 kJ/mol
# GULP energy per Si atom -5600.512778 kJ/mol
# Density = 2.212043 g / cm^3
# Si number density = 22.170887 Si / 1000 Ang^3
#
#
#
# Elastic Constant Matrix: (Units=GPa)
#
#
# Indices 1 2 3 4 5 6 
#
# 1 78.5718 13.8009 4.0672 0.0000 0.0000 0.0000
# 2 13.8009 175.6730 50.7500 0.0000 0.0000 0.0000
# 3 4.0672 50.7500 76.8073 0.0000 0.0000 0.0000
# 4 0.0000 0.0000 0.0000 30.6339 0.0000 0.0000
# 5 0.0000 0.0000 0.0000 0.0000 30.0999 0.0000
# 6 0.0000 0.0000 0.0000 0.0000 0.0000 20.2490
#
#
#
# Elastic Compliance Matrix: (Units=1/GPa)
#
#
# Indices 1 2 3 4 5 6 
#
# 1 0.012905 -0.001009 -0.000017 0.000000 0.000000 0.000000
# 2 -0.001009 0.007114 -0.004647 0.000000 0.000000 0.000000
# 3 -0.000017 -0.004647 0.016091 0.000000 0.000000 0.000000
# 4 0.000000 0.000000 0.000000 0.032644 0.000000 0.000000
# 5 0.000000 0.000000 0.000000 0.000000 0.033223 0.000000
# 6 0.000000 0.000000 0.000000 0.000000 0.000000 0.049385
#
#
# Mechanical properties :
#
#
# Convention : Reuss Voigt Hill
#
# Bulk Modulus (GPa) = 40.37999 52.03204 46.20602
# Shear Modulus (GPa) = 29.24611 33.69215 31.46913
#
# Velocity S-wave (km/s) = 3.63591 3.90251 3.77157
# Velocity P-wave (km/s) = 5.98992 6.62010 6.31287
#
# Compressibility (1/GPa) = 0.02476474
#
# Stress axis : x y z
#
# Youngs Moduli (GPa) = 77.48751 140.56394 62.14611
#
# Poissons Ratio (x) = 0.14183 0.00104
# Poissons Ratio (y) = 0.07819 0.28881
# Poissons Ratio (z) = 0.00129 0.65323
#
# Static dielectric constant tensor:
#      x y z
#    x 1.797430 0.000000 0.000000 
#    y 0.000000 1.862550 0.000000 
#    z 0.000000 0.000000 1.806550 
# 
# From -- ./inp_files/17840.got.cif
#   From: 2010.05.17/outbox.cif.g08.bks.cpg/sg70_9_cif.got.tgz:17840.got - 2010.06.03 15:57:51.
