data_PCOD9516438
_publ_section_title
;
Structure prediction by ZEFSAII (Michael W. Deem and Ramdas Pophale) SiO2 
 PCOD9516438
Probable space group: F D D D
;
_chemical_formula_sum "Si O2"
_cell_formula_units_Z 176
_cell_length_a 12.218356
_cell_length_b 31.028736
_cell_length_c 22.025633
_cell_angle_alpha 90.000000
_cell_angle_beta 90.000000
_cell_angle_gamma 90.000000
_cell_volume 8350.361126
_symmetry_space_group_name_H-M "F D D D"
_symmetry_group_IT_number 70
_space_group.IT_coordinate_system_code '2'
_symmetry_cell_setting 'orthorhombic'
loop_
_space_group_symop_operation_xyz
x,y,z
1/4-x,1/4-y,z
x,1/4-y,1/4-z
1/4-x,y,1/4-z
-x,-y,-z
3/4+x,3/4+y,-z
-x,3/4+y,3/4+z
3/4+x,-y,3/4+z
x,1/2+y,1/2+z
1/4-x,3/4-y,1/2+z
x,3/4-y,3/4-z
1/4-x,1/2+y,3/4-z
-x,1/2-y,1/2-z
3/4+x,1/4+y,1/2-z
-x,1/4+y,1/4+z
3/4+x,1/2-y,1/4+z
1/2+x,y,1/2+z
3/4-x,1/4-y,1/2+z
1/2+x,1/4-y,3/4-z
3/4-x,y,3/4-z
1/2-x,-y,1/2-z
1/4+x,3/4+y,1/2-z
1/2-x,3/4+y,1/4+z
1/4+x,-y,1/4+z
1/2+x,1/2+y,z
3/4-x,3/4-y,z
1/2+x,3/4-y,1/4-z
3/4-x,1/2+y,1/4-z
1/2-x,1/2-y,-z
1/4+x,1/4+y,-z
1/2-x,1/4+y,3/4+z
1/4+x,1/2-y,3/4+z
loop_
_atom_site_type_symbol
_atom_site_label
_atom_site_fract_x
_atom_site_fract_y
_atom_site_fract_z
Si Si1 0.077633 0.840848 0.820336
Si Si2 0.744420 0.610230 0.760181
Si Si3 0.427618 0.273382 0.297824
Si Si4 0.551067 0.995902 0.830387
Si Si5 0.125000 0.382699 0.625000
Si Si6 0.562773 0.669279 0.296703
O O1 0.056662 0.875000 0.875000
O O2 0.179657 0.858861 0.780503
O O3 0.114872 0.793278 0.839948
O O4 0.979176 0.833520 0.772776
O O5 0.625000 0.625000 0.782366
O O6 0.710375 0.572845 0.712796
O O7 0.816615 0.604302 0.821879
O O8 0.500000 0.250000 0.250000
O O9 0.478955 0.254297 0.359008
O O10 0.299178 0.265789 0.285097
O O11 0.613613 0.039166 0.811559
O O12 0.209659 0.414355 0.658721
O O13 0.625000 0.625000 0.308026
#
# Coordination Sequence:
#
# PCOD9516438 Si02
#       6
#    32  32  32  32  16  32
#     4  11  23  45  72 102 140 189 237 300 364 435
#     4  11  22  42  71 101 139 181 237 288 367 431
#     4  11  26  39  69 107 140 183 226 303 361 426
#     4  11  25  45  68 105 146 180 244 297 362 445
#     4  10  26  42  70  98 135 198 235 298 350 442
#     4  11  27  45  70 100 142 192 244 297 365 439
#
# _framework density 21.076931999999999
#
# number of rings (size 3 to 8) (size 9 to 14) (size 15 to 20)
#    0.000    1.091    3.636    1.091   10.182    0.727 
#    0.000    1.818    0.000    0.000    0.000    0.000 
#    0.000    0.000    0.000    0.000    0.000    0.000 
#
# Total GULP energy -245178.439362 kJ/mol
# GULP energy per Si atom -5572.237258 kJ/mol
# Density = 2.102896 g / cm^3
# Si number density = 21.076932 Si / 1000 Ang^3
#
#
#
# Elastic Constant Matrix: (Units=GPa)
#
#
# Indices 1 2 3 4 5 6 
#
# 1 111.0454 77.4262 58.6400 0.0000 0.0000 0.0000
# 2 77.4262 152.6977 45.3244 0.0000 0.0000 0.0000
# 3 58.6400 45.3244 105.8726 0.0000 0.0000 0.0000
# 4 0.0000 0.0000 0.0000 25.9743 0.0000 0.0000
# 5 0.0000 0.0000 0.0000 0.0000 92.7851 0.0000
# 6 0.0000 0.0000 0.0000 0.0000 0.0000 22.0918
#
#
#
# Elastic Compliance Matrix: (Units=1/GPa)
#
#
# Indices 1 2 3 4 5 6 
#
# 1 0.017233 -0.006765 -0.006649 0.000000 0.000000 0.000000
# 2 -0.006765 0.010157 -0.000602 0.000000 0.000000 0.000000
# 3 -0.006649 -0.000602 0.013386 0.000000 0.000000 0.000000
# 4 0.000000 0.000000 0.000000 0.038500 0.000000 0.000000
# 5 0.000000 0.000000 0.000000 0.000000 0.010778 0.000000
# 6 0.000000 0.000000 0.000000 0.000000 0.000000 0.045266
#
#
# Mechanical properties :
#
#
# Convention : Reuss Voigt Hill
#
# Bulk Modulus (GPa) = 78.45857 81.37743 79.91800
# Shear Modulus (GPa) = 29.83326 40.71857 35.27592
#
# Velocity S-wave (km/s) = 3.76632 4.40011 4.09549
# Velocity P-wave (km/s) = 7.49795 8.03170 7.76941
#
# Compressibility (1/GPa) = 0.01274558
#
# Stress axis : x y z
#
# Youngs Moduli (GPa) = 58.02812 98.44959 74.70691
#
# Poissons Ratio (x) = 0.66596 0.49673
# Poissons Ratio (y) = 0.39253 0.04496
# Poissons Ratio (z) = 0.38583 0.05924
#
# Static dielectric constant tensor:
#      x y z
#    x 1.922330 0.000000 0.000000 
#    y 0.000000 1.677490 0.000000 
#    z 0.000000 0.000000 0.435420 
# 
# From -- ./inp_files/50377.got.cif
#   From: 2010.05.17/outbox.cif.g08.bks.cpg/sg70_26_cif.got.tgz:50377.got - 2010.06.03 15:57:51.
