data_PCOD9516174
_publ_section_title
;
Structure prediction by ZEFSAII (Michael W. Deem and Ramdas Pophale) SiO2 
 PCOD9516174
Probable space group: F D D D
;
_chemical_formula_sum "Si O2"
_cell_formula_units_Z 120
_cell_length_a 13.778855
_cell_length_b 27.092744
_cell_length_c 14.744637
_cell_angle_alpha 90.000000
_cell_angle_beta 90.000000
_cell_angle_gamma 90.000000
_cell_volume 5504.276074
_symmetry_space_group_name_H-M "F D D D"
_symmetry_group_IT_number 70
_space_group.IT_coordinate_system_code '2'
_symmetry_cell_setting 'orthorhombic'
loop_
_space_group_symop_operation_xyz
x,y,z
1/4-x,1/4-y,z
x,1/4-y,1/4-z
1/4-x,y,1/4-z
-x,-y,-z
3/4+x,3/4+y,-z
-x,3/4+y,3/4+z
3/4+x,-y,3/4+z
x,1/2+y,1/2+z
1/4-x,3/4-y,1/2+z
x,3/4-y,3/4-z
1/4-x,1/2+y,3/4-z
-x,1/2-y,1/2-z
3/4+x,1/4+y,1/2-z
-x,1/4+y,1/4+z
3/4+x,1/2-y,1/4+z
1/2+x,y,1/2+z
3/4-x,1/4-y,1/2+z
1/2+x,1/4-y,3/4-z
3/4-x,y,3/4-z
1/2-x,-y,1/2-z
1/4+x,3/4+y,1/2-z
1/2-x,3/4+y,1/4+z
1/4+x,-y,1/4+z
1/2+x,1/2+y,z
3/4-x,3/4-y,z
1/2+x,3/4-y,1/4-z
3/4-x,1/2+y,1/4-z
1/2-x,1/2-y,-z
1/4+x,1/4+y,-z
1/2-x,1/4+y,3/4+z
1/4+x,1/2-y,3/4+z
loop_
_atom_site_type_symbol
_atom_site_label
_atom_site_fract_x
_atom_site_fract_y
_atom_site_fract_z
Si Si1 0.448467 0.785955 0.484581
Si Si2 0.509179 0.046592 0.933590
Si Si3 0.285177 0.452406 0.638853
Si Si4 0.875000 0.375000 0.375000
Si Si5 0.125000 0.876011 0.625000
O O1 0.510177 0.782805 0.577379
O O2 0.340238 0.777987 0.522739
O O3 0.482877 0.744897 0.416505
O O4 0.440656 0.839003 0.436771
O O5 0.621733 0.063764 0.923849
O O6 0.433028 0.090637 0.948541
O O7 0.500000 0.000000 0.000000
O O8 0.210309 0.409283 0.661255
#
# Coordination Sequence:
#
# PCOD9516174 Si02
#       5
#    32  32  32   8  16
#     4  10  24  43  68 109 148 194 247 314 382 463
#     4  10  23  44  69 101 145 204 247 306 391 460
#     4  10  24  43  68 111 142 197 255 307 396 444
#     4  12  22  40  72 104 154 178 248 302 392 440
#     4  12  21  40  74  97 149 188 260 319 364 470
#
# _framework density 21.801231000000001
#
# number of rings (size 3 to 8) (size 9 to 14) (size 15 to 20)
#    1.600    0.000    0.000    4.800    0.000    6.400 
#    0.000    1.333    0.000    3.200    0.000    0.000 
#    0.000    0.000    0.000    0.000    0.000    0.000 
#
# Total GULP energy -167176.823697 kJ/mol
# GULP energy per Si atom -5572.560790 kJ/mol
# Density = 2.175161 g / cm^3
# Si number density = 21.801231 Si / 1000 Ang^3
#
#
#
# Elastic Constant Matrix: (Units=GPa)
#
#
# Indices 1 2 3 4 5 6 
#
# 1 170.0876 78.8707 36.2211 0.0000 0.0000 0.0000
# 2 78.8707 148.5377 69.7935 0.0000 0.0000 0.0000
# 3 36.2211 69.7935 121.9392 0.0000 0.0000 0.0000
# 4 0.0000 0.0000 0.0000 45.4391 0.0000 0.0000
# 5 0.0000 0.0000 0.0000 0.0000 36.3080 0.0000
# 6 0.0000 0.0000 0.0000 0.0000 0.0000 45.2486
#
#
#
# Elastic Compliance Matrix: (Units=1/GPa)
#
#
# Indices 1 2 3 4 5 6 
#
# 1 0.007800 -0.004176 0.000073 0.000000 0.000000 0.000000
# 2 -0.004176 0.011445 -0.005310 0.000000 0.000000 0.000000
# 3 0.000073 -0.005310 0.011218 0.000000 0.000000 0.000000
# 4 0.000000 0.000000 0.000000 0.022007 0.000000 0.000000
# 5 0.000000 0.000000 0.000000 0.000000 0.027542 0.000000
# 6 0.000000 0.000000 0.000000 0.000000 0.000000 0.022100
#
#
# Mechanical properties :
#
#
# Convention : Reuss Voigt Hill
#
# Bulk Modulus (GPa) = 85.92972 90.03724 87.98348
# Shear Modulus (GPa) = 40.05821 42.44443 41.25132
#
# Velocity S-wave (km/s) = 4.29117 4.41714 4.35461
# Velocity P-wave (km/s) = 8.00330 8.20997 8.10730
#
# Compressibility (1/GPa) = 0.01163742
#
# Stress axis : x y z
#
# Youngs Moduli (GPa) = 128.20081 87.37542 89.13984
#
# Poissons Ratio (x) = 0.36490 -0.00654
# Poissons Ratio (y) = 0.53540 0.47334
# Poissons Ratio (z) = -0.00940 0.46397
#
# Static dielectric constant tensor:
#      x y z
#    x 1.903250 0.000000 0.000000 
#    y 0.000000 1.816920 0.000000 
#    z 0.000000 0.000000 1.854970 
# 
# From -- ./inp_files/17612.got.cif
#   From: 2010.05.17/outbox.cif.g08.bks.cpg/sg70_9_cif.got.tgz:17612.got - 2010.06.03 15:57:51.
