data_PCOD9516218
_publ_section_title
;
Structure prediction by ZEFSAII (Michael W. Deem and Ramdas Pophale) SiO2 
 PCOD9516218
Probable space group: F D D D
;
_chemical_formula_sum "Si O2"
_cell_formula_units_Z 208
_cell_length_a 29.000344
_cell_length_b 20.591510
_cell_length_c 17.375103
_cell_angle_alpha 90.000000
_cell_angle_beta 90.000000
_cell_angle_gamma 90.000000
_cell_volume 10375.731684
_symmetry_space_group_name_H-M "F D D D"
_symmetry_group_IT_number 70
_space_group.IT_coordinate_system_code '2'
_symmetry_cell_setting 'orthorhombic'
loop_
_space_group_symop_operation_xyz
x,y,z
1/4-x,1/4-y,z
x,1/4-y,1/4-z
1/4-x,y,1/4-z
-x,-y,-z
3/4+x,3/4+y,-z
-x,3/4+y,3/4+z
3/4+x,-y,3/4+z
x,1/2+y,1/2+z
1/4-x,3/4-y,1/2+z
x,3/4-y,3/4-z
1/4-x,1/2+y,3/4-z
-x,1/2-y,1/2-z
3/4+x,1/4+y,1/2-z
-x,1/4+y,1/4+z
3/4+x,1/2-y,1/4+z
1/2+x,y,1/2+z
3/4-x,1/4-y,1/2+z
1/2+x,1/4-y,3/4-z
3/4-x,y,3/4-z
1/2-x,-y,1/2-z
1/4+x,3/4+y,1/2-z
1/2-x,3/4+y,1/4+z
1/4+x,-y,1/4+z
1/2+x,1/2+y,z
3/4-x,3/4-y,z
1/2+x,3/4-y,1/4-z
3/4-x,1/2+y,1/4-z
1/2-x,1/2-y,-z
1/4+x,1/4+y,-z
1/2-x,1/4+y,3/4+z
1/4+x,1/2-y,3/4+z
loop_
_atom_site_type_symbol
_atom_site_label
_atom_site_fract_x
_atom_site_fract_y
_atom_site_fract_z
Si Si1 0.803915 0.237901 0.347559
Si Si2 0.617161 0.049021 0.344382
Si Si3 0.740662 0.625000 0.625000
Si Si4 0.820260 0.590853 0.867060
Si Si5 0.642485 0.699319 0.023807
Si Si6 0.545521 0.471401 0.461461
Si Si7 0.715349 0.518122 0.515014
O O1 0.803913 0.164432 0.379782
O O2 0.813322 0.284412 0.422225
O O3 0.850588 0.253524 0.299744
O O4 0.760662 0.243936 0.288582
O O5 0.625000 0.125000 0.331834
O O6 0.602005 0.040472 0.433016
O O7 0.578084 0.018447 0.291433
O O8 0.665347 0.017575 0.319485
O O9 0.775201 0.567142 0.641354
O O10 0.713530 0.590561 0.555421
O O11 0.875000 0.585006 0.875000
O O12 0.812973 0.576053 0.777393
O O13 0.794127 0.537790 0.920599
O O14 0.625000 0.625000 0.035233
O O15 0.500000 0.500000 0.500000
#
# Coordination Sequence:
#
# PCOD9516218 Si02
#       7
#    32  32  16  32  32  32  32
#     4  11  23  45  72  97 131 181 225 284 338 405
#     4  11  26  43  64 101 138 176 226 286 339 406
#     4  12  24  42  71  94 130 190 220 261 340 416
#     4  12  24  42  66 103 139 174 226 281 340 409
#     4  10  23  46  75  94 130 183 234 274 339 408
#     4  12  24  42  68  98 134 180 227 274 337 415
#     4  12  26  41  66 103 139 176 226 283 342 403
#
# _framework density 20.046779000000001
#
# number of rings (size 3 to 8) (size 9 to 14) (size 15 to 20)
#    0.000    0.615    6.154    2.769    0.000    1.846 
#    0.000    1.538    0.000    0.000    0.000    0.000 
#    0.000    0.000    0.000    0.000    0.000    0.000 
#
# Total GULP energy -289850.659267 kJ/mol
# GULP energy per Si atom -5574.051140 kJ/mol
# Density = 2.000115 g / cm^3
# Si number density = 20.046779 Si / 1000 Ang^3
#
#
#
# Elastic Constant Matrix: (Units=GPa)
#
#
# Indices 1 2 3 4 5 6 
#
# 1 76.4709 23.6347 14.8262 0.0000 0.0000 0.0000
# 2 23.6347 96.8768 28.0131 0.0000 0.0000 0.0000
# 3 14.8262 28.0131 82.3786 0.0000 0.0000 0.0000
# 4 0.0000 0.0000 0.0000 30.4836 0.0000 0.0000
# 5 0.0000 0.0000 0.0000 0.0000 25.3396 0.0000
# 6 0.0000 0.0000 0.0000 0.0000 0.0000 53.5338
#
#
#
# Elastic Compliance Matrix: (Units=1/GPa)
#
#
# Indices 1 2 3 4 5 6 
#
# 1 0.014317 -0.003048 -0.001540 0.000000 0.000000 0.000000
# 2 -0.003048 0.012097 -0.003565 0.000000 0.000000 0.000000
# 3 -0.001540 -0.003565 0.013629 0.000000 0.000000 0.000000
# 4 0.000000 0.000000 0.000000 0.032805 0.000000 0.000000
# 5 0.000000 0.000000 0.000000 0.000000 0.039464 0.000000
# 6 0.000000 0.000000 0.000000 0.000000 0.000000 0.018680
#
#
# Mechanical properties :
#
#
# Convention : Reuss Voigt Hill
#
# Bulk Modulus (GPa) = 42.12885 43.18603 42.65744
# Shear Modulus (GPa) = 32.21454 34.48822 33.35138
#
# Velocity S-wave (km/s) = 4.01305 4.15225 4.08325
# Velocity P-wave (km/s) = 6.52178 6.67665 6.59967
#
# Compressibility (1/GPa) = 0.02373670
#
# Stress axis : x y z
#
# Youngs Moduli (GPa) = 69.84491 82.66674 73.37491
#
# Poissons Ratio (x) = 0.25193 0.11303
# Poissons Ratio (y) = 0.21285 0.26159
# Poissons Ratio (z) = 0.10759 0.29471
#
# Static dielectric constant tensor:
#      x y z
#    x 1.373960 0.000000 0.000000 
#    y 0.000000 1.770050 0.000000 
#    z 0.000000 0.000000 2.111170 
# 
# From -- ./inp_files/38750.got.cif
#   From: 2010.05.17/outbox.cif.g08.bks.cpg/sg70_20_cif.got.tgz:38750.got - 2010.06.03 15:57:51.
