data_PCOD9516932
_publ_section_title
;
Structure prediction by ZEFSAII (Michael W. Deem and Ramdas Pophale) SiO2 
 PCOD9516932
Probable space group: F D D D
;
_chemical_formula_sum "Si O2"
_cell_formula_units_Z 96
_cell_length_a 27.847937
_cell_length_b 10.443433
_cell_length_c 13.832597
_cell_angle_alpha 90.000000
_cell_angle_beta 90.000000
_cell_angle_gamma 90.000000
_cell_volume 4022.907409
_symmetry_space_group_name_H-M "F D D D"
_symmetry_group_IT_number 70
_space_group.IT_coordinate_system_code '2'
_symmetry_cell_setting 'orthorhombic'
loop_
_space_group_symop_operation_xyz
x,y,z
1/4-x,1/4-y,z
x,1/4-y,1/4-z
1/4-x,y,1/4-z
-x,-y,-z
3/4+x,3/4+y,-z
-x,3/4+y,3/4+z
3/4+x,-y,3/4+z
x,1/2+y,1/2+z
1/4-x,3/4-y,1/2+z
x,3/4-y,3/4-z
1/4-x,1/2+y,3/4-z
-x,1/2-y,1/2-z
3/4+x,1/4+y,1/2-z
-x,1/4+y,1/4+z
3/4+x,1/2-y,1/4+z
1/2+x,y,1/2+z
3/4-x,1/4-y,1/2+z
1/2+x,1/4-y,3/4-z
3/4-x,y,3/4-z
1/2-x,-y,1/2-z
1/4+x,3/4+y,1/2-z
1/2-x,3/4+y,1/4+z
1/4+x,-y,1/4+z
1/2+x,1/2+y,z
3/4-x,3/4-y,z
1/2+x,3/4-y,1/4-z
3/4-x,1/2+y,1/4-z
1/2-x,1/2-y,-z
1/4+x,1/4+y,-z
1/2-x,1/4+y,3/4+z
1/4+x,1/2-y,3/4+z
loop_
_atom_site_type_symbol
_atom_site_label
_atom_site_fract_x
_atom_site_fract_y
_atom_site_fract_z
Si Si1 0.801765 0.821999 0.680644
Si Si2 0.048780 0.556697 0.226751
Si Si3 0.357887 0.194348 0.985029
O O1 0.797533 0.848503 0.566990
O O2 0.752560 0.763298 0.718783
O O3 0.845779 0.728660 0.702667
O O4 0.816761 0.954272 0.734188
O O5 0.058399 0.625000 0.125000
O O6 0.088119 0.447780 0.246221
O O7 0.375000 0.213914 0.875000
#
# Coordination Sequence:
#
# PCOD9516932 Si02
#       3
#    32  32  32
#     4  11  25  47  72 105 144 192 242 300 361 433
#     4  12  27  46  73 107 147 191 242 302 364 433
#     4  11  26  47  72 105 144 192 244 297 362 433
#
# _framework density 23.863337999999999
#
# number of rings (size 3 to 8) (size 9 to 14) (size 15 to 20)
#    0.000    0.667    0.000    7.000    0.000   16.667 
#    0.000    0.000    0.000    0.000    0.000    0.000 
#    0.000    0.000    0.000    0.000    0.000    0.000 
#
# Total GULP energy -134808.885585 kJ/mol
# GULP energy per Si atom -5617.036899 kJ/mol
# Density = 2.380902 g / cm^3
# Si number density = 23.863338 Si / 1000 Ang^3
#
#
#
# Elastic Constant Matrix: (Units=GPa)
#
#
# Indices 1 2 3 4 5 6 
#
# 1 102.9875 41.9619 86.3977 0.0000 0.0000 0.0000
# 2 41.9619 59.9389 51.7173 0.0000 0.0000 0.0000
# 3 86.3977 51.7173 191.4144 0.0000 0.0000 0.0000
# 4 0.0000 0.0000 0.0000 54.5983 0.0000 0.0000
# 5 0.0000 0.0000 0.0000 0.0000 32.2932 0.0000
# 6 0.0000 0.0000 0.0000 0.0000 0.0000 -4.1758
#
#
#
# Elastic Compliance Matrix: (Units=1/GPa)
#
#
# Indices 1 2 3 4 5 6 
#
# 1 0.017715 -0.007176 -0.006057 0.000000 0.000000 0.000000
# 2 -0.007176 0.024662 -0.003424 0.000000 0.000000 0.000000
# 3 -0.006057 -0.003424 0.008884 0.000000 0.000000 0.000000
# 4 0.000000 0.000000 0.000000 0.018316 0.000000 0.000000
# 5 0.000000 0.000000 0.000000 0.000000 0.030966 0.000000
# 6 0.000000 0.000000 0.000000 0.000000 0.000000 -0.239477
#
#
# Mechanical properties :
#
#
# Convention : Reuss Voigt Hill
#
# Bulk Modulus (GPa) = 55.72293 79.38830 67.55562
# Shear Modulus (GPa) = -50.18166 28.16074 -11.01046
#
# Velocity S-wave (km/s) = -4.59069 3.43896 -2.15034
# Velocity P-wave (km/s) = 2.16741 7.00776 4.71227
#
# Compressibility (1/GPa) = 0.01794593
#
# Stress axis : x y z
#
# Youngs Moduli (GPa) = 56.44917 40.54848 112.56800
#
# Poissons Ratio (x) = 0.29096 0.68185
# Poissons Ratio (y) = 0.40505 0.38549
# Poissons Ratio (z) = 0.34192 0.13886
#
# Static dielectric constant tensor:
#      x y z
#    x 1.859220 0.000000 0.000000 
#    y 0.000000 1.895760 0.000000 
#    z 0.000000 0.000000 1.885570 
# 
# From -- ./inp_files/18398.got.cif
#   From: 2010.05.17/outbox.cif.g08.bks.cpg/sg70_10_cif.got.tgz:18398.got - 2010.06.03 15:57:51.
