data_PCOD9516545
_publ_section_title
;
Structure prediction by ZEFSAII (Michael W. Deem and Ramdas Pophale) SiO2 
 PCOD9516545
Probable space group: F D D D
;
_chemical_formula_sum "Si O2"
_cell_formula_units_Z 168
_cell_length_a 21.776119
_cell_length_b 19.543799
_cell_length_c 14.359183
_cell_angle_alpha 90.000000
_cell_angle_beta 90.000000
_cell_angle_gamma 90.000000
_cell_volume 6111.097306
_symmetry_space_group_name_H-M "F D D D"
_symmetry_group_IT_number 70
_space_group.IT_coordinate_system_code '2'
_symmetry_cell_setting 'orthorhombic'
loop_
_space_group_symop_operation_xyz
x,y,z
1/4-x,1/4-y,z
x,1/4-y,1/4-z
1/4-x,y,1/4-z
-x,-y,-z
3/4+x,3/4+y,-z
-x,3/4+y,3/4+z
3/4+x,-y,3/4+z
x,1/2+y,1/2+z
1/4-x,3/4-y,1/2+z
x,3/4-y,3/4-z
1/4-x,1/2+y,3/4-z
-x,1/2-y,1/2-z
3/4+x,1/4+y,1/2-z
-x,1/4+y,1/4+z
3/4+x,1/2-y,1/4+z
1/2+x,y,1/2+z
3/4-x,1/4-y,1/2+z
1/2+x,1/4-y,3/4-z
3/4-x,y,3/4-z
1/2-x,-y,1/2-z
1/4+x,3/4+y,1/2-z
1/2-x,3/4+y,1/4+z
1/4+x,-y,1/4+z
1/2+x,1/2+y,z
3/4-x,3/4-y,z
1/2+x,3/4-y,1/4-z
3/4-x,1/2+y,1/4-z
1/2-x,1/2-y,-z
1/4+x,1/4+y,-z
1/2-x,1/4+y,3/4+z
1/4+x,1/2-y,3/4+z
loop_
_atom_site_type_symbol
_atom_site_label
_atom_site_fract_x
_atom_site_fract_y
_atom_site_fract_z
Si Si1 0.036208 0.059483 0.940801
Si Si2 0.851834 0.597484 0.768799
Si Si3 0.540890 0.085884 0.960725
Si Si4 0.625000 0.625000 0.625000
Si Si5 0.976677 0.176319 0.040837
Si Si6 0.164509 0.002884 0.965071
O O1 0.051984 0.087379 0.834693
O O2 0.103961 0.048078 0.983029
O O3 0.993974 0.124604 0.959763
O O4 0.000000 0.000000 0.000000
O O5 0.875000 0.600541 0.875000
O O6 0.780942 0.577079 0.765855
O O7 0.905970 0.554748 0.717996
O O8 0.852716 0.673856 0.724598
O O9 0.560606 0.030188 0.883471
O O10 0.580516 0.082811 0.055639
O O11 0.985007 0.125000 0.125000
O O12 0.030366 0.231901 0.038143
#
# Coordination Sequence:
#
# PCOD9516545 Si02
#       6
#    32  32  32   8  32  32
#     4  11  20  41  69 101 146 183 248 321 394 481
#     4  12  24  45  74 106 154 205 255 332 405 478
#     4  11  24  45  71 107 142 204 268 319 399 484
#     4  12  24  48  76  92 150 212 270 328 388 484
#     4  11  25  38  61 107 147 185 246 318 387 481
#     4  11  23  42  69 103 146 193 247 321 399 471
#
# _framework density 27.490971999999999
#
# number of rings (size 3 to 8) (size 9 to 14) (size 15 to 20)
#    0.000    0.762    7.619    1.714    6.667    0.762 
#    0.000    2.857    0.000    0.000    0.000    0.000 
#    0.000    0.000    0.000    0.000    0.000    0.000 
#
# Total GULP energy -234553.660811 kJ/mol
# GULP energy per Si atom -5584.610972 kJ/mol
# Density = 2.742840 g / cm^3
# Si number density = 27.490972 Si / 1000 Ang^3
#
#
#
# Elastic Constant Matrix: (Units=GPa)
#
#
# Indices 1 2 3 4 5 6 
#
# 1 251.7905 44.3436 44.8355 0.0000 0.0000 0.0000
# 2 44.3436 105.3944 22.3773 0.0000 0.0000 0.0000
# 3 44.8355 22.3773 124.7995 0.0000 0.0000 0.0000
# 4 0.0000 0.0000 0.0000 37.9462 0.0000 0.0000
# 5 0.0000 0.0000 0.0000 0.0000 53.4147 0.0000
# 6 0.0000 0.0000 0.0000 0.0000 0.0000 55.5758
#
#
#
# Elastic Compliance Matrix: (Units=1/GPa)
#
#
# Indices 1 2 3 4 5 6 
#
# 1 0.004491 -0.001608 -0.001325 0.000000 0.000000 0.000000
# 2 -0.001608 0.010440 -0.001294 0.000000 0.000000 0.000000
# 3 -0.001325 -0.001294 0.008721 0.000000 0.000000 0.000000
# 4 0.000000 0.000000 0.000000 0.026353 0.000000 0.000000
# 5 0.000000 0.000000 0.000000 0.000000 0.018721 0.000000
# 6 0.000000 0.000000 0.000000 0.000000 0.000000 0.017993
#
#
# Mechanical properties :
#
#
# Convention : Reuss Voigt Hill
#
# Bulk Modulus (GPa) = 65.80379 78.34411 72.07395
# Shear Modulus (GPa) = 49.88071 54.08254 51.98162
#
# Velocity S-wave (km/s) = 4.26424 4.44022 4.35312
# Velocity P-wave (km/s) = 6.94504 7.40590 7.17917
#
# Compressibility (1/GPa) = 0.01519669
#
# Stress axis : x y z
#
# Youngs Moduli (GPa) = 222.68254 95.78974 114.66683
#
# Poissons Ratio (x) = 0.15404 0.15193
# Poissons Ratio (y) = 0.35809 0.14840
# Poissons Ratio (z) = 0.29505 0.12397
#
# Static dielectric constant tensor:
#      x y z
#    x 2.085130 0.000000 0.000000 
#    y 0.000000 108.289960 0.000000 
#    z 0.000000 0.000000 2.404280 
# 
# From -- ./inp_files/27683.got.cif
#   From: 2010.05.17/outbox.cif.g08.bks.cpg/sg70_14_cif.got.tgz:27683.got - 2010.06.03 15:57:51.
