data_PCOD9516366
_publ_section_title
;
Structure prediction by ZEFSAII (Michael W. Deem and Ramdas Pophale) SiO2 
 PCOD9516366
Probable space group: F D D D
;
_chemical_formula_sum "Si O2"
_cell_formula_units_Z 120
_cell_length_a 17.771884
_cell_length_b 20.102534
_cell_length_c 13.331816
_cell_angle_alpha 90.000000
_cell_angle_beta 90.000000
_cell_angle_gamma 90.000000
_cell_volume 4762.923282
_symmetry_space_group_name_H-M "F D D D"
_symmetry_group_IT_number 70
_space_group.IT_coordinate_system_code '2'
_symmetry_cell_setting 'orthorhombic'
loop_
_space_group_symop_operation_xyz
x,y,z
1/4-x,1/4-y,z
x,1/4-y,1/4-z
1/4-x,y,1/4-z
-x,-y,-z
3/4+x,3/4+y,-z
-x,3/4+y,3/4+z
3/4+x,-y,3/4+z
x,1/2+y,1/2+z
1/4-x,3/4-y,1/2+z
x,3/4-y,3/4-z
1/4-x,1/2+y,3/4-z
-x,1/2-y,1/2-z
3/4+x,1/4+y,1/2-z
-x,1/4+y,1/4+z
3/4+x,1/2-y,1/4+z
1/2+x,y,1/2+z
3/4-x,1/4-y,1/2+z
1/2+x,1/4-y,3/4-z
3/4-x,y,3/4-z
1/2-x,-y,1/2-z
1/4+x,3/4+y,1/2-z
1/2-x,3/4+y,1/4+z
1/4+x,-y,1/4+z
1/2+x,1/2+y,z
3/4-x,3/4-y,z
1/2+x,3/4-y,1/4-z
3/4-x,1/2+y,1/4-z
1/2-x,1/2-y,-z
1/4+x,1/4+y,-z
1/2-x,1/4+y,3/4+z
1/4+x,1/2-y,3/4+z
loop_
_atom_site_type_symbol
_atom_site_label
_atom_site_fract_x
_atom_site_fract_y
_atom_site_fract_z
Si Si1 0.723149 0.507767 0.502477
Si Si2 0.152150 0.521255 0.791023
Si Si3 0.112979 0.870941 0.736504
Si Si4 0.002343 0.125000 0.625000
Si Si5 0.375000 0.875000 0.375000
O O1 0.811394 0.490084 0.524927
O O2 0.691788 0.539739 0.397148
O O3 0.683188 0.437711 0.512482
O O4 0.704350 0.560715 0.588811
O O5 0.175206 0.443552 0.784629
O O6 0.166915 0.574711 0.702725
O O7 0.125000 0.847383 0.625000
O O8 0.193521 0.888247 0.784897
#
# Coordination Sequence:
#
# PCOD9516366 Si02
#       5
#    32  32  32  16   8
#     4  11  23  50  80 114 169 217 283 342 436 499
#     4  11  26  46  81 119 163 221 280 355 418 511
#     4  11  22  46  79 115 162 220 268 347 427 501
#     4  10  24  47  77 122 162 210 284 352 416 500
#     4  12  28  46  72 126 160 216 292 352 406 518
#
# _framework density 25.194610999999998
#
# number of rings (size 3 to 8) (size 9 to 14) (size 15 to 20)
#    0.000    1.067    6.667    0.000    3.733    6.400 
#    4.800    0.000    0.000    0.000    0.000    0.000 
#    0.000    0.000    0.000    0.000    0.000    0.000 
#
# Total GULP energy -167388.556121 kJ/mol
# GULP energy per Si atom -5579.618537 kJ/mol
# Density = 2.513727 g / cm^3
# Si number density = 25.194611 Si / 1000 Ang^3
#
#
#
# Elastic Constant Matrix: (Units=GPa)
#
#
# Indices 1 2 3 4 5 6 
#
# 1 160.9402 42.8224 33.8896 0.0000 0.0000 0.0000
# 2 42.8224 205.2279 26.9912 0.0000 0.0000 0.0000
# 3 33.8896 26.9912 89.2008 0.0000 0.0000 0.0000
# 4 0.0000 0.0000 0.0000 61.9800 0.0000 0.0000
# 5 0.0000 0.0000 0.0000 0.0000 10.9986 0.0000
# 6 0.0000 0.0000 0.0000 0.0000 0.0000 19.0676
#
#
#
# Elastic Compliance Matrix: (Units=1/GPa)
#
#
# Indices 1 2 3 4 5 6 
#
# 1 0.007009 -0.001158 -0.002312 0.000000 0.000000 0.000000
# 2 -0.001158 0.005266 -0.001153 0.000000 0.000000 0.000000
# 3 -0.002312 -0.001153 0.012438 0.000000 0.000000 0.000000
# 4 0.000000 0.000000 0.000000 0.016134 0.000000 0.000000
# 5 0.000000 0.000000 0.000000 0.000000 0.090921 0.000000
# 6 0.000000 0.000000 0.000000 0.000000 0.000000 0.052445
#
#
# Mechanical properties :
#
#
# Convention : Reuss Voigt Hill
#
# Bulk Modulus (GPa) = 64.66254 73.64169 69.15211
# Shear Modulus (GPa) = 25.17429 41.85363 33.51396
#
# Velocity S-wave (km/s) = 3.16443 4.08022 3.65115
# Velocity P-wave (km/s) = 6.25080 7.17567 6.72914
#
# Compressibility (1/GPa) = 0.01546491
#
# Stress axis : x y z
#
# Youngs Moduli (GPa) = 142.68228 189.89719 80.39782
#
# Poissons Ratio (x) = 0.21996 0.18590
# Poissons Ratio (y) = 0.16527 0.09273
# Poissons Ratio (z) = 0.32992 0.21902
#
# Static dielectric constant tensor:
#      x y z
#    x 2.107180 0.000000 0.000000 
#    y 0.000000 2.003690 0.000000 
#    z 0.000000 0.000000 1.965780 
# 
# From -- ./inp_files/18625.got.cif
#   From: 2010.05.17/outbox.cif.g08.bks.cpg/sg70_10_cif.got.tgz:18625.got - 2010.06.03 15:57:51.
