data_PCOD9516918
_publ_section_title
;
Structure prediction by ZEFSAII (Michael W. Deem and Ramdas Pophale) SiO2 
 PCOD9516918
Probable space group: F D D D
;
_chemical_formula_sum "Si O2"
_cell_formula_units_Z 104
_cell_length_a 7.269352
_cell_length_b 20.107065
_cell_length_c 32.921038
_cell_angle_alpha 90.000000
_cell_angle_beta 90.000000
_cell_angle_gamma 90.000000
_cell_volume 4811.914488
_symmetry_space_group_name_H-M "F D D D"
_symmetry_group_IT_number 70
_space_group.IT_coordinate_system_code '2'
_symmetry_cell_setting 'orthorhombic'
loop_
_space_group_symop_operation_xyz
x,y,z
1/4-x,1/4-y,z
x,1/4-y,1/4-z
1/4-x,y,1/4-z
-x,-y,-z
3/4+x,3/4+y,-z
-x,3/4+y,3/4+z
3/4+x,-y,3/4+z
x,1/2+y,1/2+z
1/4-x,3/4-y,1/2+z
x,3/4-y,3/4-z
1/4-x,1/2+y,3/4-z
-x,1/2-y,1/2-z
3/4+x,1/4+y,1/2-z
-x,1/4+y,1/4+z
3/4+x,1/2-y,1/4+z
1/2+x,y,1/2+z
3/4-x,1/4-y,1/2+z
1/2+x,1/4-y,3/4-z
3/4-x,y,3/4-z
1/2-x,-y,1/2-z
1/4+x,3/4+y,1/2-z
1/2-x,3/4+y,1/4+z
1/4+x,-y,1/4+z
1/2+x,1/2+y,z
3/4-x,3/4-y,z
1/2+x,3/4-y,1/4-z
3/4-x,1/2+y,1/4-z
1/2-x,1/2-y,-z
1/4+x,1/4+y,-z
1/2-x,1/4+y,3/4+z
1/4+x,1/2-y,3/4+z
loop_
_atom_site_type_symbol
_atom_site_label
_atom_site_fract_x
_atom_site_fract_y
_atom_site_fract_z
Si Si1 0.475918 0.469591 0.942596
Si Si2 0.875000 0.875000 0.875000
Si Si3 0.341895 0.631934 0.328299
Si Si4 0.200069 0.777661 0.238626
O O1 0.492698 0.422462 0.904054
O O2 0.660808 0.473393 0.969212
O O3 0.582202 0.456319 0.071955
O O4 0.443281 0.302052 0.971390
O O5 0.375000 0.611528 0.375000
O O6 0.432543 0.583891 0.295405
O O7 0.125000 0.625000 0.320963
O O8 0.000000 0.750000 0.250000
#
# Coordination Sequence:
#
# PCOD9516918 Si02
#       4
#    32   8  32  32
#     4  11  26  47  71 105 147 190 242 301 363 441
#     4  12  28  48  70 104 152 198 240 314 374 416
#     4  12  24  45  75 106 143 188 243 299 362 438
#     4  11  25  45  75 108 141 188 240 298 367 444
#
# _framework density 21.613018
#
# number of rings (size 3 to 8) (size 9 to 14) (size 15 to 20)
#    0.000    0.615    4.615    2.769    8.615    0.000 
#    0.000    1.538    0.000    0.000    0.000    0.000 
#    0.000    0.000    0.000    0.000    0.000    0.000 
#
# Total GULP energy -145560.804036 kJ/mol
# GULP energy per Si atom -5598.492463 kJ/mol
# Density = 2.156383 g / cm^3
# Si number density = 21.613018 Si / 1000 Ang^3
#
#
#
# Elastic Constant Matrix: (Units=GPa)
#
#
# Indices 1 2 3 4 5 6 
#
# 1 168.3806 38.3358 45.4103 0.0000 0.0000 0.0000
# 2 38.3358 103.6987 64.9538 0.0000 0.0000 0.0000
# 3 45.4103 64.9538 162.0710 0.0000 0.0000 0.0000
# 4 0.0000 0.0000 0.0000 61.3414 0.0000 0.0000
# 5 0.0000 0.0000 0.0000 0.0000 30.1098 0.0000
# 6 0.0000 0.0000 0.0000 0.0000 0.0000 12.8980
#
#
#
# Elastic Compliance Matrix: (Units=1/GPa)
#
#
# Indices 1 2 3 4 5 6 
#
# 1 0.006647 -0.001723 -0.001172 0.000000 0.000000 0.000000
# 2 -0.001723 0.013322 -0.004856 0.000000 0.000000 0.000000
# 3 -0.001172 -0.004856 0.008445 0.000000 0.000000 0.000000
# 4 0.000000 0.000000 0.000000 0.016302 0.000000 0.000000
# 5 0.000000 0.000000 0.000000 0.000000 0.033212 0.000000
# 6 0.000000 0.000000 0.000000 0.000000 0.000000 0.077531
#
#
# Mechanical properties :
#
#
# Convention : Reuss Voigt Hill
#
# Bulk Modulus (GPa) = 77.45184 81.28332 79.36758
# Shear Modulus (GPa) = 28.52797 39.89986 34.21392
#
# Velocity S-wave (km/s) = 3.63704 4.30129 3.98304
# Velocity P-wave (km/s) = 7.31785 7.89673 7.61279
#
# Compressibility (1/GPa) = 0.01291125
#
# Stress axis : x y z
#
# Youngs Moduli (GPa) = 150.43642 75.06198 118.41673
#
# Poissons Ratio (x) = 0.12936 0.13876
# Poissons Ratio (y) = 0.25927 0.57507
# Poissons Ratio (z) = 0.17628 0.36453
#
# Static dielectric constant tensor:
#      x y z
#    x 1.777900 0.000000 0.000000 
#    y 0.000000 1.827150 0.000000 
#    z 0.000000 0.000000 1.782360 
# 
# From -- ./inp_files/10791.got.cif
#   From: 2010.05.17/outbox.cif.g08.bks.cpg/sg70_6_cif.got.tgz:10791.got - 2010.06.03 15:57:51.
