data_PCOD9516122
_publ_section_title
;
Structure prediction by ZEFSAII (Michael W. Deem and Ramdas Pophale) SiO2 
 PCOD9516122
Probable space group: F D D D
;
_chemical_formula_sum "Si O2"
_cell_formula_units_Z 208
_cell_length_a 15.705905
_cell_length_b 22.298758
_cell_length_c 29.951254
_cell_angle_alpha 90.000000
_cell_angle_beta 90.000000
_cell_angle_gamma 90.000000
_cell_volume 10489.593313
_symmetry_space_group_name_H-M "F D D D"
_symmetry_group_IT_number 70
_space_group.IT_coordinate_system_code '2'
_symmetry_cell_setting 'orthorhombic'
loop_
_space_group_symop_operation_xyz
x,y,z
1/4-x,1/4-y,z
x,1/4-y,1/4-z
1/4-x,y,1/4-z
-x,-y,-z
3/4+x,3/4+y,-z
-x,3/4+y,3/4+z
3/4+x,-y,3/4+z
x,1/2+y,1/2+z
1/4-x,3/4-y,1/2+z
x,3/4-y,3/4-z
1/4-x,1/2+y,3/4-z
-x,1/2-y,1/2-z
3/4+x,1/4+y,1/2-z
-x,1/4+y,1/4+z
3/4+x,1/2-y,1/4+z
1/2+x,y,1/2+z
3/4-x,1/4-y,1/2+z
1/2+x,1/4-y,3/4-z
3/4-x,y,3/4-z
1/2-x,-y,1/2-z
1/4+x,3/4+y,1/2-z
1/2-x,3/4+y,1/4+z
1/4+x,-y,1/4+z
1/2+x,1/2+y,z
3/4-x,3/4-y,z
1/2+x,3/4-y,1/4-z
3/4-x,1/2+y,1/4-z
1/2-x,1/2-y,-z
1/4+x,1/4+y,-z
1/2-x,1/4+y,3/4+z
1/4+x,1/2-y,3/4+z
loop_
_atom_site_type_symbol
_atom_site_label
_atom_site_fract_x
_atom_site_fract_y
_atom_site_fract_z
Si Si1 0.802755 0.709723 0.466875
Si Si2 0.706793 0.952238 0.657538
Si Si3 0.375000 0.375000 0.875000
Si Si4 0.479542 0.679101 0.877418
Si Si5 0.719045 0.032411 0.060166
Si Si6 0.865511 0.169497 0.250778
Si Si7 0.625000 0.625000 0.625000
Si Si8 0.214118 0.426197 0.840463
O O1 0.750000 0.750000 0.500000
O O2 0.747187 0.693080 0.423325
O O3 0.883584 0.750846 0.456085
O O4 0.837854 0.646901 0.484792
O O5 0.625000 0.960604 0.625000
O O6 0.745735 0.887038 0.645697
O O7 0.665674 0.949311 0.707511
O O8 0.778669 0.002925 0.649668
O O9 0.314175 0.411764 0.843022
O O10 0.375000 0.682951 0.875000
O O11 0.512478 0.731636 0.909076
O O12 0.780290 0.049850 0.019438
O O13 0.686339 0.085552 0.092828
O O14 0.925552 0.166502 0.207668
O O15 0.177945 0.375000 0.875000
#
# Coordination Sequence:
#
# PCOD9516122 Si02
#       8
#    32  32   8  32  32  32   8  32
#     4  11  22  42  67  95 132 175 230 278 334 412
#     4  11  19  44  69  87 134 185 216 266 345 408
#     4   8  20  42  62  88 138 170 204 274 344 390
#     4   9  18  41  63  83 129 181 214 257 344 396
#     4  11  23  40  63  97 128 176 217 280 337 396
#     4  12  25  38  70 104 131 172 233 283 333 409
#     4  12  20  38  70  84 130 178 214 264 352 398
#     4  10  23  42  66 101 130 174 222 279 338 405
#
# _framework density 19.829177000000001
#
# number of rings (size 3 to 8) (size 9 to 14) (size 15 to 20)
#    0.462    0.923    7.692    1.385    1.077    2.462 
#    0.000    0.769    3.385    0.000    0.000    0.000 
#    0.000    0.000    0.000    0.000    0.000    0.000 
#
# Total GULP energy -289612.820171 kJ/mol
# GULP energy per Si atom -5569.477311 kJ/mol
# Density = 1.978404 g / cm^3
# Si number density = 19.829177 Si / 1000 Ang^3
#
#
#
# Elastic Constant Matrix: (Units=GPa)
#
#
# Indices 1 2 3 4 5 6 
#
# 1 44.9565 26.4025 32.2783 0.0000 0.0000 0.0000
# 2 26.4025 140.8057 63.9552 0.0000 0.0000 0.0000
# 3 32.2783 63.9552 145.2336 0.0000 0.0000 0.0000
# 4 0.0000 0.0000 0.0000 31.1032 0.0000 0.0000
# 5 0.0000 0.0000 0.0000 0.0000 28.4810 0.0000
# 6 0.0000 0.0000 0.0000 0.0000 0.0000 143.8856
#
#
#
# Elastic Compliance Matrix: (Units=1/GPa)
#
#
# Indices 1 2 3 4 5 6 
#
# 1 0.027424 -0.002967 -0.004788 0.000000 0.000000 0.000000
# 2 -0.002967 0.009199 -0.003391 0.000000 0.000000 0.000000
# 3 -0.004788 -0.003391 0.009443 0.000000 0.000000 0.000000
# 4 0.000000 0.000000 0.000000 0.032151 0.000000 0.000000
# 5 0.000000 0.000000 0.000000 0.000000 0.035111 0.000000
# 6 0.000000 0.000000 0.000000 0.000000 0.000000 0.006950
#
#
# Mechanical properties :
#
#
# Convention : Reuss Voigt Hill
#
# Bulk Modulus (GPa) = 42.06606 64.02976 53.04791
# Shear Modulus (GPa) = 33.22334 54.58459 43.90397
#
# Velocity S-wave (km/s) = 4.09770 5.25235 4.71054
# Velocity P-wave (km/s) = 6.60670 8.31527 7.50973
#
# Compressibility (1/GPa) = 0.02377213
#
# Stress axis : x y z
#
# Youngs Moduli (GPa) = 36.46379 108.71037 105.89797
#
# Poissons Ratio (x) = 0.32259 0.50708
# Poissons Ratio (y) = 0.10820 0.35913
# Poissons Ratio (z) = 0.17460 0.36866
#
# Static dielectric constant tensor:
#      x y z
#    x 1.698350 0.000000 0.000000 
#    y 0.000000 1.836370 0.000000 
#    z 0.000000 0.000000 1.734290 
# 
# From -- ./inp_files/59752.got.cif
#   From: 2010.05.17/outbox.cif.g08.bks.cpg/sg70_30_cif.got.tgz:59752.got - 2010.06.03 15:57:51.
