data_PCOD9516236
_publ_section_title
;
Structure prediction by ZEFSAII (Michael W. Deem and Ramdas Pophale) SiO2 
 PCOD9516236
Probable space group: F D D D
;
_chemical_formula_sum "Si O2"
_cell_formula_units_Z 96
_cell_length_a 18.232983
_cell_length_b 26.333249
_cell_length_c 8.140995
_cell_angle_alpha 90.000000
_cell_angle_beta 90.000000
_cell_angle_gamma 90.000000
_cell_volume 3908.765899
_symmetry_space_group_name_H-M "F D D D"
_symmetry_group_IT_number 70
_space_group.IT_coordinate_system_code '2'
_symmetry_cell_setting 'orthorhombic'
loop_
_space_group_symop_operation_xyz
x,y,z
1/4-x,1/4-y,z
x,1/4-y,1/4-z
1/4-x,y,1/4-z
-x,-y,-z
3/4+x,3/4+y,-z
-x,3/4+y,3/4+z
3/4+x,-y,3/4+z
x,1/2+y,1/2+z
1/4-x,3/4-y,1/2+z
x,3/4-y,3/4-z
1/4-x,1/2+y,3/4-z
-x,1/2-y,1/2-z
3/4+x,1/4+y,1/2-z
-x,1/4+y,1/4+z
3/4+x,1/2-y,1/4+z
1/2+x,y,1/2+z
3/4-x,1/4-y,1/2+z
1/2+x,1/4-y,3/4-z
3/4-x,y,3/4-z
1/2-x,-y,1/2-z
1/4+x,3/4+y,1/2-z
1/2-x,3/4+y,1/4+z
1/4+x,-y,1/4+z
1/2+x,1/2+y,z
3/4-x,3/4-y,z
1/2+x,3/4-y,1/4-z
3/4-x,1/2+y,1/4-z
1/2-x,1/2-y,-z
1/4+x,1/4+y,-z
1/2-x,1/4+y,3/4+z
1/4+x,1/2-y,3/4+z
loop_
_atom_site_type_symbol
_atom_site_label
_atom_site_fract_x
_atom_site_fract_y
_atom_site_fract_z
Si Si1 0.125000 0.125000 0.394480
Si Si2 0.125000 0.873562 0.625000
Si Si3 0.248549 0.442786 0.187619
Si Si4 0.247111 0.691037 0.542812
O O1 0.180461 0.161545 0.491057
O O2 0.176923 0.087484 0.285852
O O3 0.175124 0.912216 0.732010
O O4 0.182672 0.837880 0.531599
O O5 0.250000 0.500000 0.250000
O O6 0.252427 0.440003 0.989491
O O7 0.250000 0.750000 0.500000
#
# Coordination Sequence:
#
# PCOD9516236 Si02
#       4
#    16  16  32  32
#     4  10  23  50  75 106 143 193 246 293 360 439
#     4  10  24  46  70 110 148 186 242 294 372 444
#     4  11  25  45  77 107 146 186 244 308 366 429
#     4  11  25  44  78 106 141 196 243 299 367 436
#
# _framework density 24.560182000000001
#
# number of rings (size 3 to 8) (size 9 to 14) (size 15 to 20)
#    0.000    1.333    0.000    6.000    9.333    2.667 
#    0.000    6.667    0.000    0.000    0.000    0.000 
#    0.000    0.000    0.000    0.000    0.000    0.000 
#
# Total GULP energy -134556.968191 kJ/mol
# GULP energy per Si atom -5606.540341 kJ/mol
# Density = 2.450428 g / cm^3
# Si number density = 24.560182 Si / 1000 Ang^3
#
#
#
# Elastic Constant Matrix: (Units=GPa)
#
#
# Indices 1 2 3 4 5 6 
#
# 1 242.5558 132.9433 51.3925 0.0000 0.0000 0.0000
# 2 132.9433 303.5778 58.6377 0.0000 0.0000 0.0000
# 3 51.3925 58.6377 63.6576 0.0000 0.0000 0.0000
# 4 0.0000 0.0000 0.0000 60.7183 0.0000 0.0000
# 5 0.0000 0.0000 0.0000 0.0000 37.7220 0.0000
# 6 0.0000 0.0000 0.0000 0.0000 0.0000 28.1810
#
#
#
# Elastic Compliance Matrix: (Units=1/GPa)
#
#
# Indices 1 2 3 4 5 6 
#
# 1 0.005824 -0.001998 -0.002862 0.000000 0.000000 0.000000
# 2 -0.001998 0.004692 -0.002709 0.000000 0.000000 0.000000
# 3 -0.002862 -0.002709 0.020515 0.000000 0.000000 0.000000
# 4 0.000000 0.000000 0.000000 0.016470 0.000000 0.000000
# 5 0.000000 0.000000 0.000000 0.000000 0.026510 0.000000
# 6 0.000000 0.000000 0.000000 0.000000 0.000000 0.035485
#
#
# Mechanical properties :
#
#
# Convention : Reuss Voigt Hill
#
# Bulk Modulus (GPa) = 62.91795 121.74870 92.33332
# Shear Modulus (GPa) = 38.48195 49.77877 44.13036
#
# Velocity S-wave (km/s) = 3.96263 4.50689 4.24350
# Velocity P-wave (km/s) = 6.82716 8.76139 7.85404
#
# Compressibility (1/GPa) = 0.01589372
#
# Stress axis : x y z
#
# Youngs Moduli (GPa) = 171.70221 213.11845 48.74454
#
# Poissons Ratio (x) = 0.42575 0.13949
# Poissons Ratio (y) = 0.34301 0.13207
# Poissons Ratio (z) = 0.49136 0.57742
#
# Static dielectric constant tensor:
#      x y z
#    x 1.962600 0.000000 0.000000 
#    y 0.000000 1.893280 0.000000 
#    z 0.000000 0.000000 2.104470 
# 
# From -- ./inp_files/8129.got.cif
#   From: 2010.05.17/outbox.cif.g08.bks.cpg/sg70_5_cif.got.tgz:8129.got - 2010.06.03 15:57:51.
