data_PCOD9516548
_publ_section_title
;
Structure prediction by ZEFSAII (Michael W. Deem and Ramdas Pophale) SiO2 
 PCOD9516548
Probable space group: F D D D
;
_chemical_formula_sum "Si O2"
_cell_formula_units_Z 160
_cell_length_a 19.913410
_cell_length_b 17.997727
_cell_length_c 20.511341
_cell_angle_alpha 90.000000
_cell_angle_beta 90.000000
_cell_angle_gamma 90.000000
_cell_volume 7351.184965
_symmetry_space_group_name_H-M "F D D D"
_symmetry_group_IT_number 70
_space_group.IT_coordinate_system_code '2'
_symmetry_cell_setting 'orthorhombic'
loop_
_space_group_symop_operation_xyz
x,y,z
1/4-x,1/4-y,z
x,1/4-y,1/4-z
1/4-x,y,1/4-z
-x,-y,-z
3/4+x,3/4+y,-z
-x,3/4+y,3/4+z
3/4+x,-y,3/4+z
x,1/2+y,1/2+z
1/4-x,3/4-y,1/2+z
x,3/4-y,3/4-z
1/4-x,1/2+y,3/4-z
-x,1/2-y,1/2-z
3/4+x,1/4+y,1/2-z
-x,1/4+y,1/4+z
3/4+x,1/2-y,1/4+z
1/2+x,y,1/2+z
3/4-x,1/4-y,1/2+z
1/2+x,1/4-y,3/4-z
3/4-x,y,3/4-z
1/2-x,-y,1/2-z
1/4+x,3/4+y,1/2-z
1/2-x,3/4+y,1/4+z
1/4+x,-y,1/4+z
1/2+x,1/2+y,z
3/4-x,3/4-y,z
1/2+x,3/4-y,1/4-z
3/4-x,1/2+y,1/4-z
1/2-x,1/2-y,-z
1/4+x,1/4+y,-z
1/2-x,1/4+y,3/4+z
1/4+x,1/2-y,3/4+z
loop_
_atom_site_type_symbol
_atom_site_label
_atom_site_fract_x
_atom_site_fract_y
_atom_site_fract_z
Si Si1 0.998701 0.026687 0.759013
Si Si2 0.301872 0.341701 0.446990
Si Si3 0.702912 0.805591 0.627358
Si Si4 0.983991 0.285213 0.146532
Si Si5 0.646052 0.540413 0.224935
O O1 0.001841 0.114067 0.742809
O O2 0.037229 0.005161 0.825637
O O3 0.922209 0.005528 0.772622
O O4 0.028646 0.985286 0.695939
O O5 0.293876 0.375000 0.375000
O O6 0.375000 0.375000 0.468421
O O7 0.291602 0.255066 0.431367
O O8 0.625000 0.827218 0.625000
O O9 0.746080 0.879902 0.631390
O O10 0.929325 0.285061 0.203339
O O11 0.048615 0.241268 0.174963
O O12 0.625000 0.625000 0.210639
#
# Coordination Sequence:
#
# PCOD9516548 Si02
#       5
#    32  32  32  32  32
#     4  11  22  41  68 100 134 183 229 282 347 429
#     4   9  17  36  64  95 138 174 209 273 352 411
#     4  11  20  42  68 102 140 176 222 287 347 423
#     4  11  26  44  72  99 133 183 241 284 350 422
#     4  11  24  49  69  97 139 179 235 303 350 405
#
# _framework density 21.765198000000002
#
# number of rings (size 3 to 8) (size 9 to 14) (size 15 to 20)
#    0.000    1.400    6.000    1.800    0.000    3.200 
#    0.000   12.000    0.000    0.000    0.000    0.000 
#    0.000    0.000    0.000    0.000    0.000    0.000 
#
# Total GULP energy -223215.406727 kJ/mol
# GULP energy per Si atom -5580.385168 kJ/mol
# Density = 2.171566 g / cm^3
# Si number density = 21.765198 Si / 1000 Ang^3
#
#
#
# Elastic Constant Matrix: (Units=GPa)
#
#
# Indices 1 2 3 4 5 6 
#
# 1 -66.1314 2.8823 204.0197 0.0000 0.0000 0.0000
# 2 2.8823 97.9860 81.3195 0.0000 0.0000 0.0000
# 3 204.0197 81.3195 -215.5438 0.0000 0.0000 0.0000
# 4 0.0000 0.0000 0.0000 22.6521 0.0000 0.0000
# 5 0.0000 0.0000 0.0000 0.0000 0.1347 0.0000
# 6 0.0000 0.0000 0.0000 0.0000 0.0000 35.7956
#
#
#
# Elastic Compliance Matrix: (Units=1/GPa)
#
#
# Indices 1 2 3 4 5 6 
#
# 1 0.012916 -0.008016 0.009202 0.000000 0.000000 0.000000
# 2 -0.008016 0.012747 -0.002779 0.000000 0.000000 0.000000
# 3 0.009202 -0.002779 0.003022 0.000000 0.000000 0.000000
# 4 0.000000 0.000000 0.000000 0.044146 0.000000 0.000000
# 5 0.000000 0.000000 0.000000 0.000000 7.423916 0.000000
# 6 0.000000 0.000000 0.000000 0.000000 0.000000 0.027936
#
#
# Mechanical properties :
#
#
# Convention : Reuss Voigt Hill
#
# Bulk Modulus (GPa) = 39.21746 43.63932 41.42839
# Shear Modulus (GPa) = 0.66345 -19.74424 -9.54040
#
# Velocity S-wave (km/s) = 0.55271 -3.01516 -2.09591
# Velocity P-wave (km/s) = 4.29708 2.82348 3.63572
#
# Compressibility (1/GPa) = 0.02549884
#
# Stress axis : x y z
#
# Youngs Moduli (GPa) = 77.42038 78.44808 330.92241
#
# Poissons Ratio (x) = 0.62887 -3.04499
# Poissons Ratio (y) = 0.62063 0.91948
# Poissons Ratio (z) = -0.71239 0.21797
#
# Static dielectric constant tensor:
#      x y z
#    x 1.783080 0.000000 0.000000 
#    y 0.000000 1.877000 0.000000 
#    z 0.000000 0.000000 1.824980 
# 
# From -- ./inp_files/44727.got.cif
#   From: 2010.05.17/outbox.cif.g08.bks.cpg/sg70_23_cif.got.tgz:44727.got - 2010.06.03 15:57:51.
