data_PCOD9516744
_publ_section_title
;
Structure prediction by ZEFSAII (Michael W. Deem and Ramdas Pophale) SiO2 
 PCOD9516744
Probable space group: F D D D
;
_chemical_formula_sum "Si O2"
_cell_formula_units_Z 136
_cell_length_a 18.999404
_cell_length_b 29.147321
_cell_length_c 10.368829
_cell_angle_alpha 90.000000
_cell_angle_beta 90.000000
_cell_angle_gamma 90.000000
_cell_volume 5742.068033
_symmetry_space_group_name_H-M "F D D D"
_symmetry_group_IT_number 70
_space_group.IT_coordinate_system_code '2'
_symmetry_cell_setting 'orthorhombic'
loop_
_space_group_symop_operation_xyz
x,y,z
1/4-x,1/4-y,z
x,1/4-y,1/4-z
1/4-x,y,1/4-z
-x,-y,-z
3/4+x,3/4+y,-z
-x,3/4+y,3/4+z
3/4+x,-y,3/4+z
x,1/2+y,1/2+z
1/4-x,3/4-y,1/2+z
x,3/4-y,3/4-z
1/4-x,1/2+y,3/4-z
-x,1/2-y,1/2-z
3/4+x,1/4+y,1/2-z
-x,1/4+y,1/4+z
3/4+x,1/2-y,1/4+z
1/2+x,y,1/2+z
3/4-x,1/4-y,1/2+z
1/2+x,1/4-y,3/4-z
3/4-x,y,3/4-z
1/2-x,-y,1/2-z
1/4+x,3/4+y,1/2-z
1/2-x,3/4+y,1/4+z
1/4+x,-y,1/4+z
1/2+x,1/2+y,z
3/4-x,3/4-y,z
1/2+x,3/4-y,1/4-z
3/4-x,1/2+y,1/4-z
1/2-x,1/2-y,-z
1/4+x,1/4+y,-z
1/2-x,1/4+y,3/4+z
1/4+x,1/2-y,3/4+z
loop_
_atom_site_type_symbol
_atom_site_label
_atom_site_fract_x
_atom_site_fract_y
_atom_site_fract_z
Si Si1 0.285456 0.495229 0.549189
Si Si2 0.375000 0.375000 0.875000
Si Si3 0.631613 0.410851 0.480401
Si Si4 0.281159 0.925806 0.822702
Si Si5 0.406790 0.457167 0.701916
O O1 0.321626 0.543881 0.520919
O O2 0.301435 0.460627 0.433932
O O3 0.326536 0.473756 0.672312
O O4 0.202385 0.505581 0.531264
O O5 0.413667 0.410257 0.781344
O O6 0.625000 0.391221 0.625000
O O7 0.658476 0.375000 0.375000
O O8 0.553056 0.424980 0.440843
O O9 0.300288 0.875000 0.875000
O O10 0.310461 0.944556 0.687424
#
# Coordination Sequence:
#
# PCOD9516744 Si02
#       5
#    32   8  32  32  32
#     4  12  24  45  77 110 140 200 252 326 384 473
#     4  12  32  52  66 104 152 208 240 312 396 472
#     4  11  23  42  70 110 148 194 254 322 396 472
#     4  11  23  42  75 107 143 193 259 319 384 471
#     4  12  26  46  73 104 151 195 255 318 385 475
#
# _framework density 23.684847999999999
#
# number of rings (size 3 to 8) (size 9 to 14) (size 15 to 20)
#    0.000    0.471    4.706    4.235    1.647    1.882 
#    2.118    0.000    0.000    0.000    0.000    0.000 
#    0.000    0.000    0.000    0.000    0.000    0.000 
#
# Total GULP energy -190177.865378 kJ/mol
# GULP energy per Si atom -5593.466629 kJ/mol
# Density = 2.363094 g / cm^3
# Si number density = 23.684848 Si / 1000 Ang^3
#
#
#
# Elastic Constant Matrix: (Units=GPa)
#
#
# Indices 1 2 3 4 5 6 
#
# 1 105.7304 19.4508 33.8628 0.0000 0.0000 0.0000
# 2 19.4508 139.7586 72.4489 0.0000 0.0000 0.0000
# 3 33.8628 72.4489 150.3177 0.0000 0.0000 0.0000
# 4 0.0000 0.0000 0.0000 100.1205 0.0000 0.0000
# 5 0.0000 0.0000 0.0000 0.0000 10.8288 0.0000
# 6 0.0000 0.0000 0.0000 0.0000 0.0000 31.6203
#
#
#
# Elastic Compliance Matrix: (Units=1/GPa)
#
#
# Indices 1 2 3 4 5 6 
#
# 1 0.010203 -0.000305 -0.002152 0.000000 0.000000 0.000000
# 2 -0.000305 0.009547 -0.004533 0.000000 0.000000 0.000000
# 3 -0.002152 -0.004533 0.009322 0.000000 0.000000 0.000000
# 4 0.000000 0.000000 0.000000 0.009988 0.000000 0.000000
# 5 0.000000 0.000000 0.000000 0.000000 0.092346 0.000000
# 6 0.000000 0.000000 0.000000 0.000000 0.000000 0.031625
#
#
# Mechanical properties :
#
#
# Convention : Reuss Voigt Hill
#
# Bulk Modulus (GPa) = 66.25100 71.92574 69.08837
# Shear Modulus (GPa) = 27.46620 46.51687 36.99153
#
# Velocity S-wave (km/s) = 3.40906 4.43650 3.95628
# Velocity P-wave (km/s) = 6.59759 7.52842 7.07833
#
# Compressibility (1/GPa) = 0.01509411
#
# Stress axis : x y z
#
# Youngs Moduli (GPa) = 98.00847 104.74042 107.27241
#
# Poissons Ratio (x) = 0.03190 0.23082
# Poissons Ratio (y) = 0.02985 0.48626
# Poissons Ratio (z) = 0.21089 0.47478
#
# Static dielectric constant tensor:
#      x y z
#    x 1.987480 0.000000 0.000000 
#    y 0.000000 1.891360 0.000000 
#    z 0.000000 0.000000 1.853980 
# 
# From -- ./inp_files/17701.got.cif
#   From: 2010.05.17/outbox.cif.g08.bks.cpg/sg70_9_cif.got.tgz:17701.got - 2010.06.03 15:57:51.
