data_PCOD9516832
_publ_section_title
;
Structure prediction by ZEFSAII (Michael W. Deem and Ramdas Pophale) SiO2 
 PCOD9516832
Probable space group: F D D D
;
_chemical_formula_sum "Si O2"
_cell_formula_units_Z 160
_cell_length_a 17.920312
_cell_length_b 22.497723
_cell_length_c 15.138234
_cell_angle_alpha 90.000000
_cell_angle_beta 90.000000
_cell_angle_gamma 90.000000
_cell_volume 6103.224510
_symmetry_space_group_name_H-M "F D D D"
_symmetry_group_IT_number 70
_space_group.IT_coordinate_system_code '2'
_symmetry_cell_setting 'orthorhombic'
loop_
_space_group_symop_operation_xyz
x,y,z
1/4-x,1/4-y,z
x,1/4-y,1/4-z
1/4-x,y,1/4-z
-x,-y,-z
3/4+x,3/4+y,-z
-x,3/4+y,3/4+z
3/4+x,-y,3/4+z
x,1/2+y,1/2+z
1/4-x,3/4-y,1/2+z
x,3/4-y,3/4-z
1/4-x,1/2+y,3/4-z
-x,1/2-y,1/2-z
3/4+x,1/4+y,1/2-z
-x,1/4+y,1/4+z
3/4+x,1/2-y,1/4+z
1/2+x,y,1/2+z
3/4-x,1/4-y,1/2+z
1/2+x,1/4-y,3/4-z
3/4-x,y,3/4-z
1/2-x,-y,1/2-z
1/4+x,3/4+y,1/2-z
1/2-x,3/4+y,1/4+z
1/4+x,-y,1/4+z
1/2+x,1/2+y,z
3/4-x,3/4-y,z
1/2+x,3/4-y,1/4-z
3/4-x,1/2+y,1/4-z
1/2-x,1/2-y,-z
1/4+x,1/4+y,-z
1/2-x,1/4+y,3/4+z
1/4+x,1/2-y,3/4+z
loop_
_atom_site_type_symbol
_atom_site_label
_atom_site_fract_x
_atom_site_fract_y
_atom_site_fract_z
Si Si1 0.345463 0.192775 0.774791
Si Si2 0.234304 0.599094 0.223434
Si Si3 0.865460 0.506867 0.768624
Si Si4 0.223442 0.059182 0.018687
Si Si5 0.250301 0.182412 0.031749
O O1 0.375000 0.194672 0.875000
O O2 0.270171 0.154539 0.774913
O O3 0.331075 0.258222 0.735902
O O4 0.411822 0.165402 0.717029
O O5 0.224178 0.625000 0.125000
O O6 0.162107 0.560463 0.250652
O O7 0.301206 0.550329 0.231295
O O8 0.875000 0.511444 0.875000
O O9 0.944884 0.530029 0.737195
O O10 0.217123 0.125414 0.980533
O O11 0.212830 0.065251 0.123328
O O12 0.250000 0.250000 0.000000
#
# Coordination Sequence:
#
# PCOD9516832 Si02
#       5
#    32  32  32  32  32
#     4  12  24  44  70  99 134 183 232 289 353 420
#     4  11  24  44  70 101 146 189 231 290 361 428
#     4  11  24  43  70 106 143 189 238 290 359 436
#     4  11  25  44  70 100 140 178 232 293 356 424
#     4  11  24  47  69  97 136 181 232 293 356 423
#
# _framework density 26.21565
#
# number of rings (size 3 to 8) (size 9 to 14) (size 15 to 20)
#    0.000    0.800    4.000    3.000    0.000    5.200 
#    0.000    2.000    0.000    0.000    0.000    0.000 
#    0.000    0.000    0.000    0.000    0.000    0.000 
#
# Total GULP energy -223726.634870 kJ/mol
# GULP energy per Si atom -5593.165872 kJ/mol
# Density = 2.615598 g / cm^3
# Si number density = 26.215650 Si / 1000 Ang^3
#
#
#
# Elastic Constant Matrix: (Units=GPa)
#
#
# Indices 1 2 3 4 5 6 
#
# 1 124.0939 47.5218 7.9684 0.0000 0.0000 0.0000
# 2 47.5218 246.9334 28.8330 0.0000 0.0000 0.0000
# 3 7.9684 28.8330 44.8252 0.0000 0.0000 0.0000
# 4 0.0000 0.0000 0.0000 32.0126 0.0000 0.0000
# 5 0.0000 0.0000 0.0000 0.0000 16.6056 0.0000
# 6 0.0000 0.0000 0.0000 0.0000 0.0000 55.6207
#
#
#
# Elastic Compliance Matrix: (Units=1/GPa)
#
#
# Indices 1 2 3 4 5 6 
#
# 1 0.008710 -0.001617 -0.000508 0.000000 0.000000 0.000000
# 2 -0.001617 0.004679 -0.002722 0.000000 0.000000 0.000000
# 3 -0.000508 -0.002722 0.024150 0.000000 0.000000 0.000000
# 4 0.000000 0.000000 0.000000 0.031238 0.000000 0.000000
# 5 0.000000 0.000000 0.000000 0.000000 0.060221 0.000000
# 6 0.000000 0.000000 0.000000 0.000000 0.000000 0.017979
#
#
# Mechanical properties :
#
#
# Convention : Reuss Voigt Hill
#
# Bulk Modulus (GPa) = 35.91373 64.94433 50.42903
# Shear Modulus (GPa) = 30.12909 42.94972 36.53941
#
# Velocity S-wave (km/s) = 3.39378 4.05201 3.73741
# Velocity P-wave (km/s) = 5.39315 6.83510 6.15649
#
# Compressibility (1/GPa) = 0.02784450
#
# Stress axis : x y z
#
# Youngs Moduli (GPa) = 114.80720 213.73528 41.40760
#
# Poissons Ratio (x) = 0.34559 0.02105
# Poissons Ratio (y) = 0.18563 0.11271
# Poissons Ratio (z) = 0.05836 0.58180
#
# Static dielectric constant tensor:
#      x y z
#    x 2.082630 0.000000 0.000000 
#    y 0.000000 2.136360 0.000000 
#    z 0.000000 0.000000 2.043260 
# 
# From -- ./inp_files/36302.got.cif
#   From: 2010.05.17/outbox.cif.g08.bks.cpg/sg70_19_cif.got.tgz:36302.got - 2010.06.03 15:57:51.
