data_PCOD9516070
_publ_section_title
;
Structure prediction by ZEFSAII (Michael W. Deem and Ramdas Pophale) SiO2 
 PCOD9516070
Probable space group: F D D D
;
_chemical_formula_sum "Si O2"
_cell_formula_units_Z 176
_cell_length_a 10.103142
_cell_length_b 28.967042
_cell_length_c 26.093742
_cell_angle_alpha 90.000000
_cell_angle_beta 90.000000
_cell_angle_gamma 90.000000
_cell_volume 7636.545964
_symmetry_space_group_name_H-M "F D D D"
_symmetry_group_IT_number 70
_space_group.IT_coordinate_system_code '2'
_symmetry_cell_setting 'orthorhombic'
loop_
_space_group_symop_operation_xyz
x,y,z
1/4-x,1/4-y,z
x,1/4-y,1/4-z
1/4-x,y,1/4-z
-x,-y,-z
3/4+x,3/4+y,-z
-x,3/4+y,3/4+z
3/4+x,-y,3/4+z
x,1/2+y,1/2+z
1/4-x,3/4-y,1/2+z
x,3/4-y,3/4-z
1/4-x,1/2+y,3/4-z
-x,1/2-y,1/2-z
3/4+x,1/4+y,1/2-z
-x,1/4+y,1/4+z
3/4+x,1/2-y,1/4+z
1/2+x,y,1/2+z
3/4-x,1/4-y,1/2+z
1/2+x,1/4-y,3/4-z
3/4-x,y,3/4-z
1/2-x,-y,1/2-z
1/4+x,3/4+y,1/2-z
1/2-x,3/4+y,1/4+z
1/4+x,-y,1/4+z
1/2+x,1/2+y,z
3/4-x,3/4-y,z
1/2+x,3/4-y,1/4-z
3/4-x,1/2+y,1/4-z
1/2-x,1/2-y,-z
1/4+x,1/4+y,-z
1/2-x,1/4+y,3/4+z
1/4+x,1/2-y,3/4+z
loop_
_atom_site_type_symbol
_atom_site_label
_atom_site_fract_x
_atom_site_fract_y
_atom_site_fract_z
Si Si1 0.229346 0.918597 0.913291
Si Si2 0.645898 0.750574 0.568166
Si Si3 0.680000 0.400530 0.236001
Si Si4 0.822750 0.242889 0.653778
Si Si5 0.125000 0.319998 0.125000
Si Si6 0.690309 0.698689 0.245870
O O1 0.231237 0.875000 0.875000
O O2 0.364873 0.946020 0.926096
O O3 0.133736 0.956993 0.886878
O O4 0.175240 0.905643 0.968996
O O5 0.625000 0.771381 0.625000
O O6 0.802121 0.756669 0.559588
O O7 0.532105 0.770490 0.532483
O O8 0.629430 0.401832 0.177820
O O9 0.749407 0.352160 0.247686
O O10 0.786675 0.442050 0.241477
O O11 0.753644 0.286964 0.629001
O O12 0.714481 0.217800 0.689045
#
# Coordination Sequence:
#
# PCOD9516070 Si02
#       6
#    32  32  32  32  16  32
#     4  11  22  44  69 103 138 179 232 288 343 409
#     4  10  23  39  67  95 136 182 224 284 341 409
#     4  11  25  43  69  98 139 182 229 285 346 411
#     4  11  23  42  69  99 137 177 233 280 348 413
#     4  12  26  46  69 104 132 186 233 286 348 428
#     4  11  23  44  66  99 139 183 226 283 350 413
#
# _framework density 23.047069
#
# number of rings (size 3 to 8) (size 9 to 14) (size 15 to 20)
#    0.000    1.091    1.818    4.909    1.273    5.455 
#    0.000    1.818    0.000    0.000    0.000    0.000 
#    0.000    0.000    0.000    0.000    0.000    0.000 
#
# Total GULP energy -245958.283950 kJ/mol
# GULP energy per Si atom -5589.960999 kJ/mol
# Density = 2.299461 g / cm^3
# Si number density = 23.047069 Si / 1000 Ang^3
#
#
#
# Elastic Constant Matrix: (Units=GPa)
#
#
# Indices 1 2 3 4 5 6 
#
# 1 67.8480 -6.6649 6.0080 0.0000 0.0000 0.0000
# 2 -6.6649 38.7279 -1.2320 0.0000 0.0000 0.0000
# 3 6.0080 -1.2320 121.1139 0.0000 0.0000 0.0000
# 4 0.0000 0.0000 0.0000 27.0627 0.0000 0.0000
# 5 0.0000 0.0000 0.0000 0.0000 28.4787 0.0000
# 6 0.0000 0.0000 0.0000 0.0000 0.0000 161.8710
#
#
#
# Elastic Compliance Matrix: (Units=1/GPa)
#
#
# Indices 1 2 3 4 5 6 
#
# 1 0.015055 0.002568 -0.000721 0.000000 0.000000 0.000000
# 2 0.002568 0.026268 0.000140 0.000000 0.000000 0.000000
# 3 -0.000721 0.000140 0.008294 0.000000 0.000000 0.000000
# 4 0.000000 0.000000 0.000000 0.036951 0.000000 0.000000
# 5 0.000000 0.000000 0.000000 0.000000 0.035114 0.000000
# 6 0.000000 0.000000 0.000000 0.000000 0.000000 0.006178
#
#
# Mechanical properties :
#
#
# Convention : Reuss Voigt Hill
#
# Bulk Modulus (GPa) = 18.66003 24.87912 21.76958
# Shear Modulus (GPa) = 35.27372 58.78773 47.03072
#
# Velocity S-wave (km/s) = 3.91641 5.05599 4.52224
# Velocity P-wave (km/s) = 5.34464 6.70093 6.06084
#
# Compressibility (1/GPa) = 0.05359047
#
# Stress axis : x y z
#
# Youngs Moduli (GPa) = 66.42355 38.06977 120.57111
#
# Poissons Ratio (x) = -0.09776 0.08689
# Poissons Ratio (y) = -0.17057 -0.01686
# Poissons Ratio (z) = 0.04787 -0.00532
#
# Static dielectric constant tensor:
#      x y z
#    x 1.926610 0.000000 0.000000 
#    y 0.000000 1.874400 0.000000 
#    z 0.000000 0.000000 1.926900 
# 
# From -- ./inp_files/57621.got.cif
#   From: 2010.05.17/outbox.cif.g08.bks.cpg/sg70_29_cif.got.tgz:57621.got - 2010.06.03 15:57:51.
