data_PCOD9516499
_publ_section_title
;
Structure prediction by ZEFSAII (Michael W. Deem and Ramdas Pophale) SiO2 
 PCOD9516499
Probable space group: F D D D
;
_chemical_formula_sum "Si O2"
_cell_formula_units_Z 136
_cell_length_a 22.882033
_cell_length_b 30.066878
_cell_length_c 9.887995
_cell_angle_alpha 90.000000
_cell_angle_beta 90.000000
_cell_angle_gamma 90.000000
_cell_volume 6802.854481
_symmetry_space_group_name_H-M "F D D D"
_symmetry_group_IT_number 70
_space_group.IT_coordinate_system_code '2'
_symmetry_cell_setting 'orthorhombic'
loop_
_space_group_symop_operation_xyz
x,y,z
1/4-x,1/4-y,z
x,1/4-y,1/4-z
1/4-x,y,1/4-z
-x,-y,-z
3/4+x,3/4+y,-z
-x,3/4+y,3/4+z
3/4+x,-y,3/4+z
x,1/2+y,1/2+z
1/4-x,3/4-y,1/2+z
x,3/4-y,3/4-z
1/4-x,1/2+y,3/4-z
-x,1/2-y,1/2-z
3/4+x,1/4+y,1/2-z
-x,1/4+y,1/4+z
3/4+x,1/2-y,1/4+z
1/2+x,y,1/2+z
3/4-x,1/4-y,1/2+z
1/2+x,1/4-y,3/4-z
3/4-x,y,3/4-z
1/2-x,-y,1/2-z
1/4+x,3/4+y,1/2-z
1/2-x,3/4+y,1/4+z
1/4+x,-y,1/4+z
1/2+x,1/2+y,z
3/4-x,3/4-y,z
1/2+x,3/4-y,1/4-z
3/4-x,1/2+y,1/4-z
1/2-x,1/2-y,-z
1/4+x,1/4+y,-z
1/2-x,1/4+y,3/4+z
1/4+x,1/2-y,3/4+z
loop_
_atom_site_type_symbol
_atom_site_label
_atom_site_fract_x
_atom_site_fract_y
_atom_site_fract_z
Si Si1 0.412232 0.415747 0.117467
Si Si2 0.833597 0.261705 0.241261
Si Si3 0.134526 0.833342 0.783800
Si Si4 0.743898 0.452215 0.323264
Si Si5 0.625000 0.625000 0.625000
O O1 0.375000 0.375000 0.055826
O O2 0.416239 0.402700 0.274009
O O3 0.372825 0.460052 0.110617
O O4 0.469352 0.420964 0.027551
O O5 0.875000 0.260451 0.375000
O O6 0.823913 0.210189 0.206785
O O7 0.776854 0.289332 0.285517
O O8 0.125000 0.844858 0.625000
O O9 0.071396 0.815150 0.834322
O O10 0.152223 0.875000 0.875000
O O11 0.750000 0.500000 0.250000
#
# Coordination Sequence:
#
# PCOD9516499 Si02
#       5
#    32  32  32  32   8
#     4   9  19  35  55  87 114 147 190 254 292 347
#     4   9  18  35  57  83 109 150 196 249 283 346
#     4  11  23  40  58  89 122 160 197 251 309 360
#     4  11  19  37  65  83 111 154 206 241 296 351
#     4   8  20  36  50  80 124 144 172 246 312 336
#
# _framework density 19.991609
#
# number of rings (size 3 to 8) (size 9 to 14) (size 15 to 20)
#    0.706    1.412    7.059    0.000    3.294    3.294 
#    4.235    0.000    0.000    2.824    0.000    0.000 
#    0.000    0.000    0.000    0.000    0.000    0.000 
#
# Total GULP energy -189397.856641 kJ/mol
# GULP energy per Si atom -5570.525195 kJ/mol
# Density = 1.994611 g / cm^3
# Si number density = 19.991609 Si / 1000 Ang^3
#
#
#
# Elastic Constant Matrix: (Units=GPa)
#
#
# Indices 1 2 3 4 5 6 
#
# 1 50.0109 -1.8934 11.5188 0.0001 -0.0002 0.0000
# 2 -1.8934 97.7902 43.6498 0.0000 -0.0001 0.0000
# 3 11.5188 43.6498 79.6703 0.0005 -0.0007 0.0000
# 4 0.0001 0.0000 0.0005 43.3444 -0.0002 0.0000
# 5 -0.0002 -0.0001 -0.0007 -0.0002 9.8603 0.0000
# 6 0.0000 0.0000 0.0000 0.0000 0.0000 21.0791
#
#
#
# Elastic Compliance Matrix: (Units=1/GPa)
#
#
# Indices 1 2 3 4 5 6 
#
# 1 0.021082 0.002341 -0.004331 0.000000 0.000000 0.000000
# 2 0.002341 0.013796 -0.007897 0.000000 0.000000 0.000000
# 3 -0.004331 -0.007897 0.017505 0.000000 0.000001 0.000000
# 4 0.000000 0.000000 0.000000 0.023071 0.000001 0.000000
# 5 0.000000 0.000000 0.000001 0.000001 0.101417 0.000000
# 6 0.000000 0.000000 0.000000 0.000000 0.000000 0.047440
#
#
# Mechanical properties :
#
#
# Convention : Reuss Voigt Hill
#
# Bulk Modulus (GPa) = 30.66613 37.11353 33.88983
# Shear Modulus (GPa) = 19.61133 26.46983 23.04058
#
# Velocity S-wave (km/s) = 3.13546 3.64269 3.39855
# Velocity P-wave (km/s) = 5.33675 6.02471 5.69114
#
# Compressibility (1/GPa) = 0.03260926
#
# Stress axis : x y z
#
# Youngs Moduli (GPa) = 47.43433 72.48298 57.12779
#
# Poissons Ratio (x) = -0.16970 0.24741
# Poissons Ratio (y) = -0.11106 0.45115
# Poissons Ratio (z) = 0.20543 0.57242
#
# Static dielectric constant tensor:
#      x y z
#    x 1.780030 0.000000 0.000000 
#    y 0.000000 1.774650 0.000000 
#    z 0.000000 0.000000 1.719150 
# 
# From -- ./inp_files/21032.got.cif
#   From: 2010.05.17/outbox.cif.g08.bks.cpg/sg70_11_cif.got.tgz:21032.got - 2010.06.03 15:57:51.
