data_PCOD9516601
_publ_section_title
;
Structure prediction by ZEFSAII (Michael W. Deem and Ramdas Pophale) SiO2 
 PCOD9516601
Probable space group: F D D D
;
_chemical_formula_sum "Si O2"
_cell_formula_units_Z 112
_cell_length_a 26.722345
_cell_length_b 22.377968
_cell_length_c 7.791319
_cell_angle_alpha 90.000000
_cell_angle_beta 90.000000
_cell_angle_gamma 90.000000
_cell_volume 4659.144727
_symmetry_space_group_name_H-M "F D D D"
_symmetry_group_IT_number 70
_space_group.IT_coordinate_system_code '2'
_symmetry_cell_setting 'orthorhombic'
loop_
_space_group_symop_operation_xyz
x,y,z
1/4-x,1/4-y,z
x,1/4-y,1/4-z
1/4-x,y,1/4-z
-x,-y,-z
3/4+x,3/4+y,-z
-x,3/4+y,3/4+z
3/4+x,-y,3/4+z
x,1/2+y,1/2+z
1/4-x,3/4-y,1/2+z
x,3/4-y,3/4-z
1/4-x,1/2+y,3/4-z
-x,1/2-y,1/2-z
3/4+x,1/4+y,1/2-z
-x,1/4+y,1/4+z
3/4+x,1/2-y,1/4+z
1/2+x,y,1/2+z
3/4-x,1/4-y,1/2+z
1/2+x,1/4-y,3/4-z
3/4-x,y,3/4-z
1/2-x,-y,1/2-z
1/4+x,3/4+y,1/2-z
1/2-x,3/4+y,1/4+z
1/4+x,-y,1/4+z
1/2+x,1/2+y,z
3/4-x,3/4-y,z
1/2+x,3/4-y,1/4-z
3/4-x,1/2+y,1/4-z
1/2-x,1/2-y,-z
1/4+x,1/4+y,-z
1/2-x,1/4+y,3/4+z
1/4+x,1/2-y,3/4+z
loop_
_atom_site_type_symbol
_atom_site_label
_atom_site_fract_x
_atom_site_fract_y
_atom_site_fract_z
Si Si1 0.625000 0.467563 0.125000
Si Si2 0.875000 0.017015 0.375000
Si Si3 0.984462 0.875000 0.875000
Si Si4 0.843361 0.935027 0.628631
Si Si5 0.701403 0.864372 0.559377
O O1 0.624095 0.513790 0.280867
O O2 0.673110 0.424500 0.123294
O O3 0.908764 0.065448 0.476392
O O4 0.834371 0.970220 0.453200
O O5 0.950621 0.830627 0.760547
O O6 0.016775 0.905466 0.724522
O O7 0.875000 0.875000 0.604982
O O8 0.727665 0.875000 0.375000
#
# Coordination Sequence:
#
# PCOD9516601 Si02
#       5
#    16  16  16  32  32
#     4  11  21  46  72  96 141 193 246 286 362 453
#     4  11  25  46  76 104 143 201 252 294 368 453
#     4  12  27  46  72 118 150 184 252 314 377 422
#     4  12  24  48  70 101 148 198 240 297 375 447
#     4  11  25  45  74 109 143 188 247 313 365 430
#
# _framework density 24.038747000000001
#
# number of rings (size 3 to 8) (size 9 to 14) (size 15 to 20)
#    0.000    0.571    5.714    2.143    4.000    6.857 
#    0.000    4.286    0.000    0.000    0.000    0.000 
#    0.000    0.000    0.000    0.000    0.000    0.000 
#
# Total GULP energy -156036.249512 kJ/mol
# GULP energy per Si atom -5572.723197 kJ/mol
# Density = 2.398403 g / cm^3
# Si number density = 24.038747 Si / 1000 Ang^3
#
#
#
# Elastic Constant Matrix: (Units=GPa)
#
#
# Indices 1 2 3 4 5 6 
#
# 1 19.3558 14.8582 -0.0996 -0.0057 0.0036 0.0029
# 2 14.8582 160.6295 20.9594 -0.0093 0.0046 0.0022
# 3 -0.0996 20.9594 80.3761 -0.0166 0.0082 0.0076
# 4 -0.0057 -0.0093 -0.0166 15.9583 0.0082 0.0051
# 5 0.0036 0.0046 0.0082 0.0082 24.9649 -0.0042
# 6 0.0029 0.0022 0.0076 0.0051 -0.0042 -39.0152
#
#
#
# Elastic Compliance Matrix: (Units=1/GPa)
#
#
# Indices 1 2 3 4 5 6 
#
# 1 0.055779 -0.005351 0.001464 0.000018 -0.000007 0.000004
# 2 -0.005351 0.006958 -0.001821 0.000000 0.000000 0.000000
# 3 0.001464 -0.001821 0.012918 0.000013 -0.000004 0.000003
# 4 0.000018 0.000000 0.000013 0.062663 -0.000021 0.000008
# 5 -0.000007 0.000000 -0.000004 -0.000021 0.040056 -0.000004
# 6 0.000004 0.000000 0.000003 0.000008 -0.000004 -0.025631
#
#
# Mechanical properties :
#
#
# Convention : Reuss Voigt Hill
#
# Bulk Modulus (GPa) = 15.56647 36.86637 26.21642
# Shear Modulus (GPa) = 26.94372 15.35783 21.15077
#
# Velocity S-wave (km/s) = 3.35154 2.53035 2.96946
# Velocity P-wave (km/s) = 4.63322 4.88942 4.76304
#
# Compressibility (1/GPa) = 0.06424066
#
# Stress axis : x y z
#
# Youngs Moduli (GPa) = 17.92791 143.71833 77.41016
#
# Poissons Ratio (x) = 0.76898 -0.11336
# Poissons Ratio (y) = 0.09593 0.14097
# Poissons Ratio (z) = -0.02625 0.26172
#
# Static dielectric constant tensor:
#      x y z
#    x 1.936010 0.000000 0.000000 
#    y 0.000000 1.833840 0.000000 
#    z 0.000000 0.000000 2.532780 
# 
# From -- ./inp_files/10737.got.cif
#   From: 2010.05.17/outbox.cif.g08.bks.cpg/sg70_6_cif.got.tgz:10737.got - 2010.06.03 15:57:51.
