data_PCOD9516447
_publ_section_title
;
Structure prediction by ZEFSAII (Michael W. Deem and Ramdas Pophale) SiO2 
 PCOD9516447
Probable space group: F D D D
;
_chemical_formula_sum "Si O2"
_cell_formula_units_Z 192
_cell_length_a 26.085625
_cell_length_b 14.892431
_cell_length_c 26.085554
_cell_angle_alpha 90.000000
_cell_angle_beta 90.000000
_cell_angle_gamma 90.000000
_cell_volume 10133.673509
_symmetry_space_group_name_H-M "F D D D"
_symmetry_group_IT_number 70
_space_group.IT_coordinate_system_code '2'
_symmetry_cell_setting 'orthorhombic'
loop_
_space_group_symop_operation_xyz
x,y,z
1/4-x,1/4-y,z
x,1/4-y,1/4-z
1/4-x,y,1/4-z
-x,-y,-z
3/4+x,3/4+y,-z
-x,3/4+y,3/4+z
3/4+x,-y,3/4+z
x,1/2+y,1/2+z
1/4-x,3/4-y,1/2+z
x,3/4-y,3/4-z
1/4-x,1/2+y,3/4-z
-x,1/2-y,1/2-z
3/4+x,1/4+y,1/2-z
-x,1/4+y,1/4+z
3/4+x,1/2-y,1/4+z
1/2+x,y,1/2+z
3/4-x,1/4-y,1/2+z
1/2+x,1/4-y,3/4-z
3/4-x,y,3/4-z
1/2-x,-y,1/2-z
1/4+x,3/4+y,1/2-z
1/2-x,3/4+y,1/4+z
1/4+x,-y,1/4+z
1/2+x,1/2+y,z
3/4-x,3/4-y,z
1/2+x,3/4-y,1/4-z
3/4-x,1/2+y,1/4-z
1/2-x,1/2-y,-z
1/4+x,1/4+y,-z
1/2-x,1/4+y,3/4+z
1/4+x,1/2-y,3/4+z
loop_
_atom_site_type_symbol
_atom_site_label
_atom_site_fract_x
_atom_site_fract_y
_atom_site_fract_z
Si Si1 0.742425 0.356547 0.507573
Si Si2 0.322530 0.424207 0.927473
Si Si3 0.928085 0.125000 0.625000
Si Si4 0.131932 0.317166 0.773637
Si Si5 0.167487 0.363045 0.582513
Si Si6 0.125000 0.125000 0.428082
Si Si7 0.726364 0.182833 0.868066
O O1 0.750000 0.250000 0.500000
O O2 0.780266 0.408400 0.469731
O O3 0.685264 0.386314 0.492169
O O4 0.757830 0.386316 0.564734
O O5 0.306422 0.375000 0.875000
O O6 0.375000 0.375000 0.943587
O O7 0.331993 0.528560 0.918011
O O8 0.892947 0.109735 0.574779
O O9 0.962351 0.212358 0.613987
O O10 0.096944 0.329886 0.723831
O O11 0.136014 0.212358 0.787652
O O12 0.125000 0.334904 0.625000
O O13 0.223831 0.329891 0.596944
O O14 0.175220 0.140265 0.392944
#
# Coordination Sequence:
#
# PCOD9516447 Si02
#       7
#    32  32  16  32  32  16  32
#     4  12  25  37  68 104 139 180 219 285 345 426
#     4  11  22  38  60  94 138 178 216 261 338 406
#     4  10  26  46  69  98 131 184 224 290 332 416
#     4  11  25  45  68  98 135 173 233 274 351 402
#     4  12  22  44  65  94 129 175 222 282 332 408
#     4  10  26  46  69  98 131 184 224 290 332 416
#     4  11  25  45  68  98 135 173 233 274 351 402
#
# _framework density 18.946732000000001
#
# number of rings (size 3 to 8) (size 9 to 14) (size 15 to 20)
#    0.000    0.833    3.333    4.000    7.000    4.000 
#    0.000    0.000    0.000    0.000    0.000    0.000 
#    0.000    0.000    0.000    0.000    0.000    0.000 
#
# Total GULP energy -268346.211097 kJ/mol
# GULP energy per Si atom -5590.546065 kJ/mol
# Density = 1.890361 g / cm^3
# Si number density = 18.946732 Si / 1000 Ang^3
#
#
#
# Elastic Constant Matrix: (Units=GPa)
#
#
# Indices 1 2 3 4 5 6 
#
# 1 167.8711 64.3523 77.1840 0.0000 0.0000 0.0000
# 2 64.3523 163.5845 64.3546 0.0000 0.0000 0.0000
# 3 77.1840 64.3546 167.8866 0.0000 0.0000 0.0000
# 4 0.0000 0.0000 0.0000 38.1666 0.0000 0.0000
# 5 0.0000 0.0000 0.0000 0.0000 44.5654 0.0000
# 6 0.0000 0.0000 0.0000 0.0000 0.0000 38.2119
#
#
#
# Elastic Compliance Matrix: (Units=1/GPa)
#
#
# Indices 1 2 3 4 5 6 
#
# 1 0.008085 -0.002023 -0.002941 0.000000 0.000000 0.000000
# 2 -0.002023 0.007705 -0.002023 0.000000 0.000000 0.000000
# 3 -0.002941 -0.002023 0.008084 0.000000 0.000000 0.000000
# 4 0.000000 0.000000 0.000000 0.026201 0.000000 0.000000
# 5 0.000000 0.000000 0.000000 0.000000 0.022439 0.000000
# 6 0.000000 0.000000 0.000000 0.000000 0.000000 0.026170
#
#
# Mechanical properties :
#
#
# Convention : Reuss Voigt Hill
#
# Bulk Modulus (GPa) = 101.02901 101.23602 101.13252
# Shear Modulus (GPa) = 43.11855 43.75219 43.43537
#
# Velocity S-wave (km/s) = 4.77569 4.81065 4.79320
# Velocity P-wave (km/s) = 9.15686 9.18719 9.17203
#
# Compressibility (1/GPa) = 0.00989815
#
# Stress axis : x y z
#
# Youngs Moduli (GPa) = 123.68579 129.78609 123.69775
#
# Poissons Ratio (x) = 0.26261 0.36384
# Poissons Ratio (y) = 0.25027 0.25027
# Poissons Ratio (z) = 0.36381 0.26259
#
# Static dielectric constant tensor:
#      x y z
#    x 1.647280 0.000000 0.000000 
#    y 0.000000 1.641450 0.000000 
#    z 0.000000 0.000000 1.647270 
# 
# From -- ./inp_files/61781.got.cif
#   From: 2010.05.17/outbox.cif.g08.bks.cpg/sg70_31_cif.got.tgz:61781.got - 2010.06.03 15:57:51.
