data_PCOD9516636
_publ_section_title
;
Structure prediction by ZEFSAII (Michael W. Deem and Ramdas Pophale) SiO2 
 PCOD9516636
Probable space group: F D D D
;
_chemical_formula_sum "Si O2"
_cell_formula_units_Z 176
_cell_length_a 29.794585
_cell_length_b 9.574432
_cell_length_c 24.668964
_cell_angle_alpha 90.000000
_cell_angle_beta 90.000000
_cell_angle_gamma 90.000000
_cell_volume 7037.222310
_symmetry_space_group_name_H-M "F D D D"
_symmetry_group_IT_number 70
_space_group.IT_coordinate_system_code '2'
_symmetry_cell_setting 'orthorhombic'
loop_
_space_group_symop_operation_xyz
x,y,z
1/4-x,1/4-y,z
x,1/4-y,1/4-z
1/4-x,y,1/4-z
-x,-y,-z
3/4+x,3/4+y,-z
-x,3/4+y,3/4+z
3/4+x,-y,3/4+z
x,1/2+y,1/2+z
1/4-x,3/4-y,1/2+z
x,3/4-y,3/4-z
1/4-x,1/2+y,3/4-z
-x,1/2-y,1/2-z
3/4+x,1/4+y,1/2-z
-x,1/4+y,1/4+z
3/4+x,1/2-y,1/4+z
1/2+x,y,1/2+z
3/4-x,1/4-y,1/2+z
1/2+x,1/4-y,3/4-z
3/4-x,y,3/4-z
1/2-x,-y,1/2-z
1/4+x,3/4+y,1/2-z
1/2-x,3/4+y,1/4+z
1/4+x,-y,1/4+z
1/2+x,1/2+y,z
3/4-x,3/4-y,z
1/2+x,3/4-y,1/4-z
3/4-x,1/2+y,1/4-z
1/2-x,1/2-y,-z
1/4+x,1/4+y,-z
1/2-x,1/4+y,3/4+z
1/4+x,1/2-y,3/4+z
loop_
_atom_site_type_symbol
_atom_site_label
_atom_site_fract_x
_atom_site_fract_y
_atom_site_fract_z
Si Si1 0.750567 0.037086 0.381561
Si Si2 0.883425 0.125000 0.125000
Si Si3 0.200955 0.222471 0.795852
Si Si4 0.837749 0.651676 0.839598
Si Si5 0.789723 0.918107 0.000202
Si Si6 0.625000 0.125000 0.449731
Si Si7 0.875000 0.375000 0.786550
O O1 0.760734 0.875000 0.375000
O O2 0.728136 0.054513 0.439555
O O3 0.722413 0.094597 0.330189
O O4 0.796034 0.124887 0.379097
O O5 0.915519 0.207978 0.085222
O O6 0.860141 0.244493 0.161472
O O7 0.241580 0.330979 0.781340
O O8 0.169897 0.165729 0.747435
O O9 0.875000 0.728598 0.875000
O O10 0.817085 0.719931 0.785760
O O11 0.860241 0.508506 0.820343
O O12 0.832960 0.820423 0.014305
#
# Coordination Sequence:
#
# PCOD9516636 Si02
#       7
#    32  16  32  32  32  16  16
#     4  11  22  40  69 104 148 194 252 315 382 452
#     4  12  26  50  72 109 146 199 250 320 376 456
#     4  11  25  43  70 105 150 198 259 316 383 461
#     4  11  23  41  68 106 150 199 254 313 378 457
#     4  11  25  45  67 108 143 203 249 319 383 459
#     4  12  27  48  77 109 149 200 257 311 388 456
#     4  12  22  42  68 109 147 206 253 319 386 458
#
# _framework density 25.009869999999999
#
# number of rings (size 3 to 8) (size 9 to 14) (size 15 to 20)
#    0.000    0.727    1.818    6.273    1.273    3.636 
#    6.545    0.000    0.000    0.000    0.000    0.000 
#    0.000    0.000    0.000    0.000    0.000    0.000 
#
# Total GULP energy -245753.563452 kJ/mol
# GULP energy per Si atom -5585.308260 kJ/mol
# Density = 2.495295 g / cm^3
# Si number density = 25.009870 Si / 1000 Ang^3
#
#
#
# Elastic Constant Matrix: (Units=GPa)
#
#
# Indices 1 2 3 4 5 6 
#
# 1 156.2854 27.1554 66.2649 0.0000 0.0000 0.0000
# 2 27.1554 59.8245 17.0145 0.0000 0.0000 0.0001
# 3 66.2649 17.0145 123.4036 0.0000 0.0000 0.0000
# 4 0.0000 0.0000 0.0000 38.5915 0.0000 0.0000
# 5 0.0000 0.0000 0.0000 0.0000 55.1855 0.0000
# 6 0.0000 0.0001 0.0000 0.0000 0.0000 -133.8120
#
#
#
# Elastic Compliance Matrix: (Units=1/GPa)
#
#
# Indices 1 2 3 4 5 6 
#
# 1 0.008692 -0.002725 -0.004292 0.000000 0.000000 0.000000
# 2 -0.002725 0.018252 -0.001053 0.000000 0.000000 0.000000
# 3 -0.004292 -0.001053 0.010553 0.000000 0.000000 0.000000
# 4 0.000000 0.000000 0.000000 0.025912 0.000000 0.000000
# 5 0.000000 0.000000 0.000000 0.000000 0.018121 0.000000
# 6 0.000000 0.000000 0.000000 0.000000 0.000000 -0.007473
#
#
# Mechanical properties :
#
#
# Convention : Reuss Voigt Hill
#
# Bulk Modulus (GPa) = 46.82212 62.26480 54.54346
# Shear Modulus (GPa) = 51.37948 7.26490 29.32219
#
# Velocity S-wave (km/s) = 4.53743 1.70620 3.42778
# Velocity P-wave (km/s) = 6.79802 5.36951 6.12555
#
# Compressibility (1/GPa) = 0.02135743
#
# Stress axis : x y z
#
# Youngs Moduli (GPa) = 115.05391 54.78865 94.75823
#
# Poissons Ratio (x) = 0.14928 0.40666
# Poissons Ratio (y) = 0.31349 0.09982
# Poissons Ratio (z) = 0.49375 0.05771
#
# Static dielectric constant tensor:
#      x y z
#    x 2.006970 0.000000 0.000000 
#    y 0.000000 1.953550 0.000000 
#    z 0.000000 0.000000 1.883980 
# 
# From -- ./inp_files/55021.got.cif
#   From: 2010.05.17/outbox.cif.g08.bks.cpg/sg70_28_cif.got.tgz:55021.got - 2010.06.03 15:57:51.
