data_PCOD9516766
_publ_section_title
;
Structure prediction by ZEFSAII (Michael W. Deem and Ramdas Pophale) SiO2 
 PCOD9516766
Probable space group: F D D D
;
_chemical_formula_sum "Si O2"
_cell_formula_units_Z 112
_cell_length_a 11.861418
_cell_length_b 15.654259
_cell_length_c 24.289750
_cell_angle_alpha 90.000000
_cell_angle_beta 90.000000
_cell_angle_gamma 90.000000
_cell_volume 4510.162303
_symmetry_space_group_name_H-M "F D D D"
_symmetry_group_IT_number 70
_space_group.IT_coordinate_system_code '2'
_symmetry_cell_setting 'orthorhombic'
loop_
_space_group_symop_operation_xyz
x,y,z
1/4-x,1/4-y,z
x,1/4-y,1/4-z
1/4-x,y,1/4-z
-x,-y,-z
3/4+x,3/4+y,-z
-x,3/4+y,3/4+z
3/4+x,-y,3/4+z
x,1/2+y,1/2+z
1/4-x,3/4-y,1/2+z
x,3/4-y,3/4-z
1/4-x,1/2+y,3/4-z
-x,1/2-y,1/2-z
3/4+x,1/4+y,1/2-z
-x,1/4+y,1/4+z
3/4+x,1/2-y,1/4+z
1/2+x,y,1/2+z
3/4-x,1/4-y,1/2+z
1/2+x,1/4-y,3/4-z
3/4-x,y,3/4-z
1/2-x,-y,1/2-z
1/4+x,3/4+y,1/2-z
1/2-x,3/4+y,1/4+z
1/4+x,-y,1/4+z
1/2+x,1/2+y,z
3/4-x,3/4-y,z
1/2+x,3/4-y,1/4-z
3/4-x,1/2+y,1/4-z
1/2-x,1/2-y,-z
1/4+x,1/4+y,-z
1/2-x,1/4+y,3/4+z
1/4+x,1/2-y,3/4+z
loop_
_atom_site_type_symbol
_atom_site_label
_atom_site_fract_x
_atom_site_fract_y
_atom_site_fract_z
Si Si1 0.477237 0.545629 0.731466
Si Si2 0.742121 0.855486 0.028507
Si Si3 0.321059 0.625000 0.125000
Si Si4 0.540599 0.701695 0.392668
O O1 0.338772 0.556245 0.735513
O O2 0.538469 0.456090 0.718003
O O3 0.499567 0.605823 0.679830
O O4 0.507519 0.564545 0.794330
O O5 0.875000 0.875000 0.012673
O O6 0.717806 0.809982 0.087092
O O7 0.398377 0.542791 0.138274
O O8 0.625000 0.625000 0.380061
#
# Coordination Sequence:
#
# PCOD9516766 Si02
#       4
#    32  32  16  32
#     4  12  24  45  71 105 144 189 238 299 364 430
#     4  11  23  44  71 103 143 183 234 299 360 431
#     4  12  24  46  72 102 142 186 242 296 362 428
#     4  11  25  46  71 105 144 186 241 300 362 441
#
# _framework density 24.832809000000001
#
# number of rings (size 3 to 8) (size 9 to 14) (size 15 to 20)
#    0.000    0.571    8.571    1.714    0.000    1.143 
#    0.000    2.857    0.000    0.000    0.000    0.000 
#    0.000    0.000    0.000    0.000    0.000    0.000 
#
# Total GULP energy -155917.143484 kJ/mol
# GULP energy per Si atom -5568.469410 kJ/mol
# Density = 2.477629 g / cm^3
# Si number density = 24.832809 Si / 1000 Ang^3
#
#
#
# Elastic Constant Matrix: (Units=GPa)
#
#
# Indices 1 2 3 4 5 6 
#
# 1 54.4521 5.3081 29.7495 0.0000 0.0000 0.0000
# 2 5.3081 103.0348 37.5021 0.0000 0.0000 0.0000
# 3 29.7495 37.5021 216.1381 0.0000 0.0000 0.0000
# 4 0.0000 0.0000 0.0000 63.3409 0.0000 0.0000
# 5 0.0000 0.0000 0.0000 0.0000 23.6676 0.0000
# 6 0.0000 0.0000 0.0000 0.0000 0.0000 10.5900
#
#
#
# Elastic Compliance Matrix: (Units=1/GPa)
#
#
# Indices 1 2 3 4 5 6 
#
# 1 0.019858 -0.000030 -0.002728 0.000000 0.000000 0.000000
# 2 -0.000030 0.010360 -0.001793 0.000000 0.000000 0.000000
# 3 -0.002728 -0.001793 0.005313 0.000000 0.000000 0.000000
# 4 0.000000 0.000000 0.000000 0.015788 0.000000 0.000000
# 5 0.000000 0.000000 0.000000 0.000000 0.042252 0.000000
# 6 0.000000 0.000000 0.000000 0.000000 0.000000 0.094429
#
#
# Mechanical properties :
#
#
# Convention : Reuss Voigt Hill
#
# Bulk Modulus (GPa) = 37.83843 57.63826 47.73835
# Shear Modulus (GPa) = 24.28223 39.59073 31.93648
#
# Velocity S-wave (km/s) = 3.13042 3.99719 3.59006
# Velocity P-wave (km/s) = 5.32319 6.67565 6.03741
#
# Compressibility (1/GPa) = 0.02642816
#
# Stress axis : x y z
#
# Youngs Moduli (GPa) = 50.35714 96.52743 188.20572
#
# Poissons Ratio (x) = 0.00290 0.51344
# Poissons Ratio (y) = 0.00152 0.33752
# Poissons Ratio (z) = 0.13738 0.17311
#
# Static dielectric constant tensor:
#      x y z
#    x 2.098790 0.000000 0.000000 
#    y 0.000000 2.057770 0.000000 
#    z 0.000000 0.000000 1.937090 
# 
# From -- ./inp_files/25185.got.cif
#   From: 2010.05.17/outbox.cif.g08.bks.cpg/sg70_13_cif.got.tgz:25185.got - 2010.06.03 15:57:51.
