data_PCOD9516219
_publ_section_title
;
Structure prediction by ZEFSAII (Michael W. Deem and Ramdas Pophale) SiO2 
 PCOD9516219
Probable space group: F D D D
;
_chemical_formula_sum "Si O2"
_cell_formula_units_Z 104
_cell_length_a 30.747258
_cell_length_b 8.848771
_cell_length_c 17.415457
_cell_angle_alpha 90.000000
_cell_angle_beta 90.000000
_cell_angle_gamma 90.000000
_cell_volume 4738.318212
_symmetry_space_group_name_H-M "F D D D"
_symmetry_group_IT_number 70
_space_group.IT_coordinate_system_code '2'
_symmetry_cell_setting 'orthorhombic'
loop_
_space_group_symop_operation_xyz
x,y,z
1/4-x,1/4-y,z
x,1/4-y,1/4-z
1/4-x,y,1/4-z
-x,-y,-z
3/4+x,3/4+y,-z
-x,3/4+y,3/4+z
3/4+x,-y,3/4+z
x,1/2+y,1/2+z
1/4-x,3/4-y,1/2+z
x,3/4-y,3/4-z
1/4-x,1/2+y,3/4-z
-x,1/2-y,1/2-z
3/4+x,1/4+y,1/2-z
-x,1/4+y,1/4+z
3/4+x,1/2-y,1/4+z
1/2+x,y,1/2+z
3/4-x,1/4-y,1/2+z
1/2+x,1/4-y,3/4-z
3/4-x,y,3/4-z
1/2-x,-y,1/2-z
1/4+x,3/4+y,1/2-z
1/2-x,3/4+y,1/4+z
1/4+x,-y,1/4+z
1/2+x,1/2+y,z
3/4-x,3/4-y,z
1/2+x,3/4-y,1/4-z
3/4-x,1/2+y,1/4-z
1/2-x,1/2-y,-z
1/4+x,1/4+y,-z
1/2-x,1/4+y,3/4+z
1/4+x,1/2-y,3/4+z
loop_
_atom_site_type_symbol
_atom_site_label
_atom_site_fract_x
_atom_site_fract_y
_atom_site_fract_z
Si Si1 0.170230 0.713682 0.415885
Si Si2 0.875000 0.875000 0.375000
Si Si3 0.249722 0.789656 0.088922
Si Si4 0.081634 0.412431 0.583026
O O1 0.125000 0.625000 0.412046
O O2 0.207594 0.617894 0.373997
O O3 0.179536 0.751360 0.505455
O O4 0.166222 0.875000 0.375000
O O5 0.903362 0.763774 0.428349
O O6 0.244456 0.625000 0.125000
O O7 0.209374 0.897928 0.111100
O O8 0.250000 0.750000 0.000000
O O9 0.125000 0.471080 0.625000
#
# Coordination Sequence:
#
# PCOD9516219 Si02
#       4
#    32   8  32  32
#     4  12  29  46  74 111 154 195 256 314 374 446
#     4   8  20  40  78  96 144 192 248 276 388 428
#     4  12  26  48  79 110 152 200 248 307 378 451
#     4  10  23  46  76 106 148 198 246 301 376 445
#
# _framework density 21.948716000000001
#
# number of rings (size 3 to 8) (size 9 to 14) (size 15 to 20)
#    0.923    0.000    1.538    3.692   10.769    0.615 
#    0.000    0.000    0.000    0.000    0.000    0.000 
#    0.000    0.000    0.000    0.000    0.000    0.000 
#
# Total GULP energy -145290.322903 kJ/mol
# GULP energy per Si atom -5588.089342 kJ/mol
# Density = 2.189876 g / cm^3
# Si number density = 21.948716 Si / 1000 Ang^3
#
#
#
# Elastic Constant Matrix: (Units=GPa)
#
#
# Indices 1 2 3 4 5 6 
#
# 1 194.3441 59.3053 103.4143 0.0000 0.0000 0.0000
# 2 59.3053 109.2710 58.8059 0.0000 0.0000 0.0000
# 3 103.4143 58.8059 219.5899 0.0000 0.0000 0.0000
# 4 0.0000 0.0000 0.0000 -7.4843 0.0000 0.0000
# 5 0.0000 0.0000 0.0000 0.0000 28.5342 0.0000
# 6 0.0000 0.0000 0.0000 0.0000 0.0000 12.3391
#
#
#
# Elastic Compliance Matrix: (Units=1/GPa)
#
#
# Indices 1 2 3 4 5 6 
#
# 1 0.007410 -0.002505 -0.002819 0.000000 0.000000 0.000000
# 2 -0.002505 0.011539 -0.001911 0.000000 0.000000 0.000000
# 3 -0.002819 -0.001911 0.006393 0.000000 0.000000 0.000000
# 4 0.000000 0.000000 0.000000 -0.133613 0.000000 0.000000
# 5 0.000000 0.000000 0.000000 0.000000 0.035046 0.000000
# 6 0.000000 0.000000 0.000000 0.000000 0.000000 0.081043
#
#
# Mechanical properties :
#
#
# Convention : Reuss Voigt Hill
#
# Bulk Modulus (GPa) = 91.96339 107.36177 99.66258
# Shear Modulus (GPa) = 192.97561 26.78979 109.88270
#
# Velocity S-wave (km/s) = 9.38680 3.49745 7.08322
# Velocity P-wave (km/s) = 12.62826 8.08273 10.60197
#
# Compressibility (1/GPa) = 0.01087389
#
# Stress axis : x y z
#
# Youngs Moduli (GPa) = 134.95718 86.66179 156.41766
#
# Poissons Ratio (x) = 0.21705 0.44092
# Poissons Ratio (y) = 0.33800 0.29886
# Poissons Ratio (z) = 0.38043 0.16558
#
# Static dielectric constant tensor:
#      x y z
#    x 1.842030 0.000000 0.000000 
#    y 0.000000 1.831010 0.000000 
#    z 0.000000 0.000000 1.755220 
# 
# From -- ./inp_files/39300.got.cif
#   From: 2010.05.17/outbox.cif.g08.bks.cpg/sg70_20_cif.got.tgz:39300.got - 2010.06.03 15:57:51.
