data_PCOD9516752
_publ_section_title
;
Structure prediction by ZEFSAII (Michael W. Deem and Ramdas Pophale) SiO2 
 PCOD9516752
Probable space group: F D D D
;
_chemical_formula_sum "Si O2"
_cell_formula_units_Z 112
_cell_length_a 5.279834
_cell_length_b 33.382370
_cell_length_c 29.610783
_cell_angle_alpha 90.000000
_cell_angle_beta 90.000000
_cell_angle_gamma 90.000000
_cell_volume 5219.000355
_symmetry_space_group_name_H-M "F D D D"
_symmetry_group_IT_number 70
_space_group.IT_coordinate_system_code '2'
_symmetry_cell_setting 'orthorhombic'
loop_
_space_group_symop_operation_xyz
x,y,z
1/4-x,1/4-y,z
x,1/4-y,1/4-z
1/4-x,y,1/4-z
-x,-y,-z
3/4+x,3/4+y,-z
-x,3/4+y,3/4+z
3/4+x,-y,3/4+z
x,1/2+y,1/2+z
1/4-x,3/4-y,1/2+z
x,3/4-y,3/4-z
1/4-x,1/2+y,3/4-z
-x,1/2-y,1/2-z
3/4+x,1/4+y,1/2-z
-x,1/4+y,1/4+z
3/4+x,1/2-y,1/4+z
1/2+x,y,1/2+z
3/4-x,1/4-y,1/2+z
1/2+x,1/4-y,3/4-z
3/4-x,y,3/4-z
1/2-x,-y,1/2-z
1/4+x,3/4+y,1/2-z
1/2-x,3/4+y,1/4+z
1/4+x,-y,1/4+z
1/2+x,1/2+y,z
3/4-x,3/4-y,z
1/2+x,3/4-y,1/4-z
3/4-x,1/2+y,1/4-z
1/2-x,1/2-y,-z
1/4+x,1/4+y,-z
1/2-x,1/4+y,3/4+z
1/4+x,1/2-y,3/4+z
loop_
_atom_site_type_symbol
_atom_site_label
_atom_site_fract_x
_atom_site_fract_y
_atom_site_fract_z
Si Si1 0.980637 0.252268 0.672850
Si Si2 0.875000 0.054681 0.875000
Si Si3 0.875000 0.875000 0.024979
Si Si4 0.449666 0.287188 0.999480
Si Si5 0.625000 0.125000 0.336385
O O1 0.713679 0.274096 0.663008
O O2 0.897238 0.217733 0.707747
O O3 0.125000 0.243769 0.625000
O O4 0.152301 0.281022 0.703381
O O5 0.650393 0.086480 0.881319
O O6 0.898411 0.917345 0.998731
O O7 0.618721 0.875937 0.054459
O O8 0.250000 0.250000 0.000000
#
# Coordination Sequence:
#
# PCOD9516752 Si02
#       5
#    32  16  16  32  16
#     4  11  23  43  68 103 143 196 252 306 377 460
#     4  12  24  40  64 107 152 182 236 315 382 464
#     4  12  25  46  70 107 145 192 249 308 379 470
#     4  11  25  45  72 102 148 199 246 314 383 446
#     4  12  25  40  68 110 148 184 233 309 396 460
#
# _framework density 21.460048
#
# number of rings (size 3 to 8) (size 9 to 14) (size 15 to 20)
#    0.000    0.571    2.857    6.000    6.000    0.000 
#    0.000    0.000    0.000   12.857    0.000    0.000 
#    0.000    0.000    0.000    0.000    0.000    0.000 
#
# Total GULP energy -155906.868654 kJ/mol
# GULP energy per Si atom -5568.102452 kJ/mol
# Density = 2.141120 g / cm^3
# Si number density = 21.460048 Si / 1000 Ang^3
#
#
#
# Elastic Constant Matrix: (Units=GPa)
#
#
# Indices 1 2 3 4 5 6 
#
# 1 110.8976 41.2903 53.1830 0.0000 0.0000 0.0000
# 2 41.2903 139.1236 53.4984 0.0000 0.0000 0.0000
# 3 53.1830 53.4984 145.4038 0.0000 0.0000 0.0000
# 4 0.0000 0.0000 0.0000 13.4759 0.0000 0.0000
# 5 0.0000 0.0000 0.0000 0.0000 62.0740 0.0000
# 6 0.0000 0.0000 0.0000 0.0000 0.0000 39.1605
#
#
#
# Elastic Compliance Matrix: (Units=1/GPa)
#
#
# Indices 1 2 3 4 5 6 
#
# 1 0.011429 -0.002079 -0.003416 0.000000 0.000000 0.000000
# 2 -0.002079 0.008750 -0.002459 0.000000 0.000000 0.000000
# 3 -0.003416 -0.002459 0.009032 0.000000 0.000000 0.000000
# 4 0.000000 0.000000 0.000000 0.074207 0.000000 0.000000
# 5 0.000000 0.000000 0.000000 0.000000 0.016110 0.000000
# 6 0.000000 0.000000 0.000000 0.000000 0.000000 0.025536
#
#
# Mechanical properties :
#
#
# Convention : Reuss Voigt Hill
#
# Bulk Modulus (GPa) = 75.16395 76.81872 75.99134
# Shear Modulus (GPa) = 30.22875 39.43896 34.83385
#
# Velocity S-wave (km/s) = 3.75721 4.29159 4.03326
# Velocity P-wave (km/s) = 7.34325 7.77373 7.56155
#
# Compressibility (1/GPa) = 0.01330425
#
# Stress axis : x y z
#
# Youngs Moduli (GPa) = 87.49456 114.27976 110.72326
#
# Poissons Ratio (x) = 0.23755 0.37818
# Poissons Ratio (y) = 0.18187 0.27230
# Poissons Ratio (z) = 0.29885 0.28104
#
# Static dielectric constant tensor:
#      x y z
#    x 1.878900 0.000000 0.000000 
#    y 0.000000 1.819470 0.000000 
#    z 0.000000 0.000000 1.828630 
# 
# From -- ./inp_files/4109.got.cif
#   From: 2010.05.17/outbox.cif.g08.bks.cpg/sg70_3_cif.got.tgz:4109.got - 2010.06.03 15:57:51.
