data_PCOD9516631
_publ_section_title
;
Structure prediction by ZEFSAII (Michael W. Deem and Ramdas Pophale) SiO2 
 PCOD9516631
Probable space group: F D D D
;
_chemical_formula_sum "Si O2"
_cell_formula_units_Z 192
_cell_length_a 14.301703
_cell_length_b 24.479842
_cell_length_c 27.063382
_cell_angle_alpha 90.000000
_cell_angle_beta 90.000000
_cell_angle_gamma 90.000000
_cell_volume 9474.982859
_symmetry_space_group_name_H-M "F D D D"
_symmetry_group_IT_number 70
_space_group.IT_coordinate_system_code '2'
_symmetry_cell_setting 'orthorhombic'
loop_
_space_group_symop_operation_xyz
x,y,z
1/4-x,1/4-y,z
x,1/4-y,1/4-z
1/4-x,y,1/4-z
-x,-y,-z
3/4+x,3/4+y,-z
-x,3/4+y,3/4+z
3/4+x,-y,3/4+z
x,1/2+y,1/2+z
1/4-x,3/4-y,1/2+z
x,3/4-y,3/4-z
1/4-x,1/2+y,3/4-z
-x,1/2-y,1/2-z
3/4+x,1/4+y,1/2-z
-x,1/4+y,1/4+z
3/4+x,1/2-y,1/4+z
1/2+x,y,1/2+z
3/4-x,1/4-y,1/2+z
1/2+x,1/4-y,3/4-z
3/4-x,y,3/4-z
1/2-x,-y,1/2-z
1/4+x,3/4+y,1/2-z
1/2-x,3/4+y,1/4+z
1/4+x,-y,1/4+z
1/2+x,1/2+y,z
3/4-x,3/4-y,z
1/2+x,3/4-y,1/4-z
3/4-x,1/2+y,1/4-z
1/2-x,1/2-y,-z
1/4+x,1/4+y,-z
1/2-x,1/4+y,3/4+z
1/4+x,1/2-y,3/4+z
loop_
_atom_site_type_symbol
_atom_site_label
_atom_site_fract_x
_atom_site_fract_y
_atom_site_fract_z
Si Si1 0.875000 0.457833 0.375000
Si Si2 0.125000 0.353738 0.625000
Si Si3 0.022392 0.052517 0.875906
Si Si4 0.614782 0.290594 0.221807
Si Si5 0.513356 0.664139 0.034562
Si Si6 0.856259 0.311165 0.029029
Si Si7 0.067062 0.549744 0.485482
O O1 0.795055 0.501713 0.359583
O O2 0.811361 0.422534 0.412429
O O3 0.209029 0.395248 0.612179
O O4 0.154090 0.317284 0.671795
O O5 0.089391 0.043167 0.829195
O O6 0.071714 0.063180 0.927794
O O7 0.658010 0.321279 0.269844
O O8 0.504140 0.300016 0.216362
O O9 0.635632 0.227451 0.233373
O O10 0.530504 0.603299 0.014513
O O11 0.577149 0.707139 0.003783
O O12 0.875000 0.375000 0.021389
O O13 0.000000 0.500000 0.500000
#
# Coordination Sequence:
#
# PCOD9516631 Si02
#       7
#    16  16  32  32  32  32  32
#     4  11  22  43  65  94 137 184 226 294 362 424
#     4  11  22  40  70  96 130 178 241 288 348 418
#     4  11  22  40  66  97 131 181 232 287 353 417
#     4  11  24  41  66 103 136 180 235 298 350 426
#     4  11  24  41  65  97 138 180 234 288 363 434
#     4  11  24  42  67  99 140 181 237 292 356 427
#     4  11  24  40  61  99 140 180 236 290 354 430
#
# _framework density 20.263888999999999
#
# number of rings (size 3 to 8) (size 9 to 14) (size 15 to 20)
#    0.000    1.000    6.667    0.000    4.667    2.667 
#    0.000    0.417    0.000    0.000    0.000    0.000 
#    0.000    0.000    0.000    0.000    0.000    0.000 
#
# Total GULP energy -267471.619220 kJ/mol
# GULP energy per Si atom -5572.325400 kJ/mol
# Density = 2.021777 g / cm^3
# Si number density = 20.263889 Si / 1000 Ang^3
#
#
#
# Elastic Constant Matrix: (Units=GPa)
#
#
# Indices 1 2 3 4 5 6 
#
# 1 91.3664 17.2223 37.8921 0.0000 0.0000 0.0000
# 2 17.2223 104.6527 53.2449 0.0000 0.0000 0.0000
# 3 37.8921 53.2449 131.1063 0.0000 0.0000 0.0000
# 4 0.0000 0.0000 0.0000 34.8556 0.0000 0.0000
# 5 0.0000 0.0000 0.0000 0.0000 37.3936 0.0000
# 6 0.0000 0.0000 0.0000 0.0000 0.0000 23.2162
#
#
#
# Elastic Compliance Matrix: (Units=1/GPa)
#
#
# Indices 1 2 3 4 5 6 
#
# 1 0.012442 -0.000275 -0.003484 0.000000 0.000000 0.000000
# 2 -0.000275 0.012050 -0.004814 0.000000 0.000000 0.000000
# 3 -0.003484 -0.004814 0.010590 0.000000 0.000000 0.000000
# 4 0.000000 0.000000 0.000000 0.028690 0.000000 0.000000
# 5 0.000000 0.000000 0.000000 0.000000 0.026743 0.000000
# 6 0.000000 0.000000 0.000000 0.000000 0.000000 0.043073
#
#
# Mechanical properties :
#
#
# Convention : Reuss Voigt Hill
#
# Bulk Modulus (GPa) = 55.75812 60.42712 58.09262
# Shear Modulus (GPa) = 31.90559 33.67747 32.79153
#
# Velocity S-wave (km/s) = 3.97231 4.08112 4.02708
# Velocity P-wave (km/s) = 6.97243 7.21749 7.09602
#
# Compressibility (1/GPa) = 0.01793461
#
# Stress axis : x y z
#
# Youngs Moduli (GPa) = 80.37445 82.98707 94.43188
#
# Poissons Ratio (x) = 0.02280 0.32903
# Poissons Ratio (y) = 0.02208 0.45463
# Poissons Ratio (z) = 0.28005 0.39953
#
# Static dielectric constant tensor:
#      x y z
#    x 1.801690 0.000000 0.000000 
#    y 0.000000 1.757530 0.000000 
#    z 0.000000 0.000000 1.785030 
# 
# From -- ./inp_files/51444.got.cif
#   From: 2010.05.17/outbox.cif.g08.bks.cpg/sg70_26_cif.got.tgz:51444.got - 2010.06.03 15:57:51.
