data_PCOD9516664
_publ_section_title
;
Structure prediction by ZEFSAII (Michael W. Deem and Ramdas Pophale) SiO2 
 PCOD9516664
Probable space group: F D D D
;
_chemical_formula_sum "Si O2"
_cell_formula_units_Z 160
_cell_length_a 20.887816
_cell_length_b 19.098522
_cell_length_c 20.779238
_cell_angle_alpha 90.000000
_cell_angle_beta 90.000000
_cell_angle_gamma 90.000000
_cell_volume 8289.386889
_symmetry_space_group_name_H-M "F D D D"
_symmetry_group_IT_number 70
_space_group.IT_coordinate_system_code '2'
_symmetry_cell_setting 'orthorhombic'
loop_
_space_group_symop_operation_xyz
x,y,z
1/4-x,1/4-y,z
x,1/4-y,1/4-z
1/4-x,y,1/4-z
-x,-y,-z
3/4+x,3/4+y,-z
-x,3/4+y,3/4+z
3/4+x,-y,3/4+z
x,1/2+y,1/2+z
1/4-x,3/4-y,1/2+z
x,3/4-y,3/4-z
1/4-x,1/2+y,3/4-z
-x,1/2-y,1/2-z
3/4+x,1/4+y,1/2-z
-x,1/4+y,1/4+z
3/4+x,1/2-y,1/4+z
1/2+x,y,1/2+z
3/4-x,1/4-y,1/2+z
1/2+x,1/4-y,3/4-z
3/4-x,y,3/4-z
1/2-x,-y,1/2-z
1/4+x,3/4+y,1/2-z
1/2-x,3/4+y,1/4+z
1/4+x,-y,1/4+z
1/2+x,1/2+y,z
3/4-x,3/4-y,z
1/2+x,3/4-y,1/4-z
3/4-x,1/2+y,1/4-z
1/2-x,1/2-y,-z
1/4+x,1/4+y,-z
1/2-x,1/4+y,3/4+z
1/4+x,1/2-y,3/4+z
loop_
_atom_site_type_symbol
_atom_site_label
_atom_site_fract_x
_atom_site_fract_y
_atom_site_fract_z
Si Si1 0.712969 0.906184 0.062553
Si Si2 0.693584 0.322956 0.431601
Si Si3 0.625000 0.736546 0.625000
Si Si4 0.230144 0.125000 0.625000
Si Si5 0.057680 0.269269 0.960518
Si Si6 0.052365 0.983976 0.138182
O O1 0.703727 0.845803 0.114645
O O2 0.656251 0.963048 0.071445
O O3 0.777486 0.950387 0.071417
O O4 0.711854 0.868085 0.993955
O O5 0.672531 0.375000 0.375000
O O6 0.633386 0.275577 0.451260
O O7 0.752573 0.279274 0.403049
O O8 0.681866 0.685950 0.600334
O O9 0.273631 0.086860 0.571674
O O10 0.040884 0.263835 0.035759
O O11 0.125000 0.007886 0.125000
#
# Coordination Sequence:
#
# PCOD9516664 Si02
#       6
#    32  32  16  16  32  32
#     4  11  22  43  65  92 130 169 215 262 318 383
#     4  12  24  44  63  93 131 168 215 272 319 380
#     4   9  18  40  66  94 123 166 206 254 321 394
#     4   9  20  38  66  98 129 164 204 264 329 386
#     4  11  23  42  66  96 132 165 214 266 324 385
#     4  12  25  43  66  91 124 173 216 262 322 380
#
# _framework density 19.301788999999999
#
# number of rings (size 3 to 8) (size 9 to 14) (size 15 to 20)
#    0.000    1.000    6.000    0.600    0.000    1.200 
#    3.600    5.000    0.000    0.000    0.000    0.000 
#    0.000    0.000    0.000    0.000    0.000    0.000 
#
# Total GULP energy -223354.761555 kJ/mol
# GULP energy per Si atom -5583.869039 kJ/mol
# Density = 1.925786 g / cm^3
# Si number density = 19.301789 Si / 1000 Ang^3
#
#
#
# Elastic Constant Matrix: (Units=GPa)
#
#
# Indices 1 2 3 4 5 6 
#
# 1 142.5616 74.7559 43.9031 0.0000 0.0000 0.0000
# 2 74.7559 79.6413 32.3111 0.0000 0.0000 0.0000
# 3 43.9031 32.3111 60.6615 0.0000 0.0000 0.0000
# 4 0.0000 0.0000 0.0000 32.2116 0.0000 0.0000
# 5 0.0000 0.0000 0.0000 0.0000 27.3056 0.0000
# 6 0.0000 0.0000 0.0000 0.0000 0.0000 14.3754
#
#
#
# Elastic Compliance Matrix: (Units=1/GPa)
#
#
# Indices 1 2 3 4 5 6 
#
# 1 0.014595 -0.012009 -0.004166 0.000000 0.000000 0.000000
# 2 -0.012009 0.025900 -0.005104 0.000000 0.000000 0.000000
# 3 -0.004166 -0.005104 0.022219 0.000000 0.000000 0.000000
# 4 0.000000 0.000000 0.000000 0.031045 0.000000 0.000000
# 5 0.000000 0.000000 0.000000 0.000000 0.036623 0.000000
# 6 0.000000 0.000000 0.000000 0.000000 0.000000 0.069563
#
#
# Mechanical properties :
#
#
# Convention : Reuss Voigt Hill
#
# Bulk Modulus (GPa) = 49.61627 64.97830 57.29729
# Shear Modulus (GPa) = 20.06255 23.57146 21.81700
#
# Velocity S-wave (km/s) = 3.22749 3.49837 3.36566
# Velocity P-wave (km/s) = 6.29685 7.07500 6.69723
#
# Compressibility (1/GPa) = 0.02015468
#
# Stress axis : x y z
#
# Youngs Moduli (GPa) = 68.51665 38.61053 45.00738
#
# Poissons Ratio (x) = 0.46369 0.18751
# Poissons Ratio (y) = 0.82285 0.22970
# Poissons Ratio (z) = 0.28545 0.19705
#
# Static dielectric constant tensor:
#      x y z
#    x 1.702280 0.000000 0.000000 
#    y 0.000000 1.681530 0.000000 
#    z 0.000000 0.000000 1.654810 
# 
# From -- ./inp_files/36343.got.cif
#   From: 2010.05.17/outbox.cif.g08.bks.cpg/sg70_19_cif.got.tgz:36343.got - 2010.06.03 15:57:51.
