data_PCOD9516360
_publ_section_title
;
Structure prediction by ZEFSAII (Michael W. Deem and Ramdas Pophale) SiO2 
 PCOD9516360
Probable space group: F D D D
;
_chemical_formula_sum "Si O2"
_cell_formula_units_Z 72
_cell_length_a 8.674056
_cell_length_b 17.533051
_cell_length_c 20.916579
_cell_angle_alpha 90.000000
_cell_angle_beta 90.000000
_cell_angle_gamma 90.000000
_cell_volume 3181.049103
_symmetry_space_group_name_H-M "F D D D"
_symmetry_group_IT_number 70
_space_group.IT_coordinate_system_code '2'
_symmetry_cell_setting 'orthorhombic'
loop_
_space_group_symop_operation_xyz
x,y,z
1/4-x,1/4-y,z
x,1/4-y,1/4-z
1/4-x,y,1/4-z
-x,-y,-z
3/4+x,3/4+y,-z
-x,3/4+y,3/4+z
3/4+x,-y,3/4+z
x,1/2+y,1/2+z
1/4-x,3/4-y,1/2+z
x,3/4-y,3/4-z
1/4-x,1/2+y,3/4-z
-x,1/2-y,1/2-z
3/4+x,1/4+y,1/2-z
-x,1/4+y,1/4+z
3/4+x,1/2-y,1/4+z
1/2+x,y,1/2+z
3/4-x,1/4-y,1/2+z
1/2+x,1/4-y,3/4-z
3/4-x,y,3/4-z
1/2-x,-y,1/2-z
1/4+x,3/4+y,1/2-z
1/2-x,3/4+y,1/4+z
1/4+x,-y,1/4+z
1/2+x,1/2+y,z
3/4-x,3/4-y,z
1/2+x,3/4-y,1/4-z
3/4-x,1/2+y,1/4-z
1/2-x,1/2-y,-z
1/4+x,1/4+y,-z
1/2-x,1/4+y,3/4+z
1/4+x,1/2-y,3/4+z
loop_
_atom_site_type_symbol
_atom_site_label
_atom_site_fract_x
_atom_site_fract_y
_atom_site_fract_z
Si Si1 0.162876 0.917037 0.939313
Si Si2 0.625000 0.625000 0.125000
Si Si3 0.290520 0.082779 0.942228
O O1 0.218207 0.875000 0.875000
O O2 0.982894 0.928458 0.918287
O O3 0.252685 0.993817 0.951820
O O4 0.148049 0.864109 0.000973
O O5 0.125000 0.125000 0.942007
O O6 0.375000 0.093745 0.875000
#
# Coordination Sequence:
#
# PCOD9516360 Si02
#       3
#    32   8  32
#     4  10  24  47  73 101 148 189 238 293 357 429
#     4   8  20  44  74  92 148 180 234 284 348 420
#     4  12  27  44  76 107 145 189 245 290 364 426
#
# _framework density 22.634041
#
# number of rings (size 3 to 8) (size 9 to 14) (size 15 to 20)
#    1.333    0.000    2.222    1.333    9.333    2.667 
#    0.000    0.000    0.000    0.000    0.000    0.000 
#    0.000    0.000    0.000    0.000    0.000    0.000 
#
# Total GULP energy -100571.080463 kJ/mol
# GULP energy per Si atom -5587.282248 kJ/mol
# Density = 2.258252 g / cm^3
# Si number density = 22.634041 Si / 1000 Ang^3
#
#
#
# Elastic Constant Matrix: (Units=GPa)
#
#
# Indices 1 2 3 4 5 6 
#
# 1 77.3488 39.5523 60.9013 0.0000 0.0000 0.0000
# 2 39.5523 170.9514 118.6782 0.0000 0.0000 0.0000
# 3 60.9013 118.6782 246.7634 0.0000 0.0000 0.0000
# 4 0.0000 0.0000 0.0000 28.9004 0.0000 0.0000
# 5 0.0000 0.0000 0.0000 0.0000 -4.5740 0.0000
# 6 0.0000 0.0000 0.0000 0.0000 0.0000 -124.8622
#
#
#
# Elastic Compliance Matrix: (Units=1/GPa)
#
#
# Indices 1 2 3 4 5 6 
#
# 1 0.016288 -0.001468 -0.003314 0.000000 0.000000 0.000000
# 2 -0.001468 0.008914 -0.003925 0.000000 0.000000 0.000000
# 3 -0.003314 -0.003925 0.006758 0.000000 0.000000 0.000000
# 4 0.000000 0.000000 0.000000 0.034602 0.000000 0.000000
# 5 0.000000 0.000000 0.000000 0.000000 -0.218625 0.000000
# 6 0.000000 0.000000 0.000000 0.000000 0.000000 -0.008009
#
#
# Mechanical properties :
#
#
# Convention : Reuss Voigt Hill
#
# Bulk Modulus (GPa) = 68.74343 103.70300 86.22322
# Shear Modulus (GPa) = -36.28184 -1.71172 -18.99678
#
# Velocity S-wave (km/s) = -4.00806 -0.87057 -2.90021
# Velocity P-wave (km/s) = 3.00303 6.70121 5.19251
#
# Compressibility (1/GPa) = 0.01454685
#
# Stress axis : x y z
#
# Youngs Moduli (GPa) = 61.39351 112.18439 147.97430
#
# Poissons Ratio (x) = 0.16468 0.49039
# Poissons Ratio (y) = 0.09012 0.58076
# Poissons Ratio (z) = 0.20346 0.44030
#
# Static dielectric constant tensor:
#      x y z
#    x 1.939430 0.000000 0.000000 
#    y 0.000000 1.811260 0.000000 
#    z 0.000000 0.000000 1.824530 
# 
# From -- ./inp_files/40909.got.cif
#   From: 2010.05.17/outbox.cif.g08.bks.cpg/sg70_21_cif.got.tgz:40909.got - 2010.06.03 15:57:51.
