data_PCOD9516767
_publ_section_title
;
Structure prediction by ZEFSAII (Michael W. Deem and Ramdas Pophale) SiO2 
 PCOD9516767
Probable space group: F D D D
;
_chemical_formula_sum "Si O2"
_cell_formula_units_Z 176
_cell_length_a 24.150107
_cell_length_b 26.493565
_cell_length_c 11.746140
_cell_angle_alpha 90.000000
_cell_angle_beta 90.000000
_cell_angle_gamma 90.000000
_cell_volume 7515.443833
_symmetry_space_group_name_H-M "F D D D"
_symmetry_group_IT_number 70
_space_group.IT_coordinate_system_code '2'
_symmetry_cell_setting 'orthorhombic'
loop_
_space_group_symop_operation_xyz
x,y,z
1/4-x,1/4-y,z
x,1/4-y,1/4-z
1/4-x,y,1/4-z
-x,-y,-z
3/4+x,3/4+y,-z
-x,3/4+y,3/4+z
3/4+x,-y,3/4+z
x,1/2+y,1/2+z
1/4-x,3/4-y,1/2+z
x,3/4-y,3/4-z
1/4-x,1/2+y,3/4-z
-x,1/2-y,1/2-z
3/4+x,1/4+y,1/2-z
-x,1/4+y,1/4+z
3/4+x,1/2-y,1/4+z
1/2+x,y,1/2+z
3/4-x,1/4-y,1/2+z
1/2+x,1/4-y,3/4-z
3/4-x,y,3/4-z
1/2-x,-y,1/2-z
1/4+x,3/4+y,1/2-z
1/2-x,3/4+y,1/4+z
1/4+x,-y,1/4+z
1/2+x,1/2+y,z
3/4-x,3/4-y,z
1/2+x,3/4-y,1/4-z
3/4-x,1/2+y,1/4-z
1/2-x,1/2-y,-z
1/4+x,1/4+y,-z
1/2-x,1/4+y,3/4+z
1/4+x,1/2-y,3/4+z
loop_
_atom_site_type_symbol
_atom_site_label
_atom_site_fract_x
_atom_site_fract_y
_atom_site_fract_z
Si Si1 0.501969 0.320303 0.342987
Si Si2 0.696701 0.823443 0.912884
Si Si3 0.475407 0.761478 0.478380
Si Si4 0.086161 0.077493 0.401830
Si Si5 0.125000 0.452279 0.625000
Si Si6 0.361398 0.725026 0.005925
O O1 0.526077 0.375000 0.375000
O O2 0.493298 0.282136 0.448724
O O3 0.448606 0.333810 0.268323
O O4 0.547613 0.290455 0.270044
O O5 0.725074 0.875000 0.875000
O O6 0.740083 0.779456 0.880835
O O7 0.648024 0.815444 0.820948
O O8 0.666566 0.824738 0.035391
O O9 0.458141 0.809359 0.556816
O O10 0.417226 0.736279 0.446190
O O11 0.125000 0.125000 0.375023
O O12 0.121440 0.027581 0.429419
O O13 0.375000 0.728387 0.875000
#
# Coordination Sequence:
#
# PCOD9516767 Si02
#       6
#    32  32  32  32  16  32
#     4  11  24  43  70 106 148 192 249 309 379 453
#     4  12  27  47  76 109 143 199 247 312 381 447
#     4  11  26  49  71 108 150 198 248 315 380 454
#     4  11  25  43  71 108 146 194 246 311 373 449
#     4  12  26  50  77 104 150 190 255 304 370 460
#     4  11  23  44  71 104 145 190 248 313 369 445
#
# _framework density 23.418444999999998
#
# number of rings (size 3 to 8) (size 9 to 14) (size 15 to 20)
#    0.000    0.727    3.636    5.455    6.364    2.909 
#    0.000    0.000    0.000    0.000    0.000    0.000 
#    0.000    0.000    0.000    0.000    0.000    0.000 
#
# Total GULP energy -245923.799189 kJ/mol
# GULP energy per Si atom -5589.177254 kJ/mol
# Density = 2.336514 g / cm^3
# Si number density = 23.418445 Si / 1000 Ang^3
#
#
#
# Elastic Constant Matrix: (Units=GPa)
#
#
# Indices 1 2 3 4 5 6 
#
# 1 66.4634 24.1932 13.1550 0.0000 0.0000 0.0000
# 2 24.1932 131.5666 45.6989 0.0000 0.0000 0.0000
# 3 13.1550 45.6989 120.9780 0.0000 0.0000 0.0000
# 4 0.0000 0.0000 0.0000 15.3276 0.0000 0.0000
# 5 0.0000 0.0000 0.0000 0.0000 38.5789 0.0000
# 6 0.0000 0.0000 0.0000 0.0000 0.0000 25.2456
#
#
#
# Elastic Compliance Matrix: (Units=1/GPa)
#
#
# Indices 1 2 3 4 5 6 
#
# 1 0.016181 -0.002721 -0.000732 0.000000 0.000000 0.000000
# 2 -0.002721 0.009206 -0.003182 0.000000 0.000000 0.000000
# 3 -0.000732 -0.003182 0.009547 0.000000 0.000000 0.000000
# 4 0.000000 0.000000 0.000000 0.065242 0.000000 0.000000
# 5 0.000000 0.000000 0.000000 0.000000 0.025921 0.000000
# 6 0.000000 0.000000 0.000000 0.000000 0.000000 0.039611
#
#
# Mechanical properties :
#
#
# Convention : Reuss Voigt Hill
#
# Bulk Modulus (GPa) = 46.15602 53.90025 50.02813
# Shear Modulus (GPa) = 26.85287 31.56115 29.20701
#
# Velocity S-wave (km/s) = 3.38990 3.67509 3.53537
# Velocity P-wave (km/s) = 5.92233 6.40894 6.17043
#
# Compressibility (1/GPa) = 0.02166565
#
# Stress axis : x y z
#
# Youngs Moduli (GPa) = 61.79984 108.62141 104.74075
#
# Poissons Ratio (x) = 0.29560 0.07662
# Poissons Ratio (y) = 0.16818 0.33325
# Poissons Ratio (z) = 0.04521 0.34560
#
# Static dielectric constant tensor:
#      x y z
#    x 1.879130 0.000000 0.000000 
#    y 0.000000 2.018060 0.000000 
#    z 0.000000 0.000000 1.901690 
# 
# From -- ./inp_files/19651.got.cif
#   From: 2010.05.17/outbox.cif.g08.bks.cpg/sg70_10_cif.got.tgz:19651.got - 2010.06.03 15:57:51.
