data_PCOD9516912
_publ_section_title
;
Structure prediction by ZEFSAII (Michael W. Deem and Ramdas Pophale) SiO2 
 PCOD9516912
Probable space group: F D D D
;
_chemical_formula_sum "Si O2"
_cell_formula_units_Z 112
_cell_length_a 15.545071
_cell_length_b 11.927383
_cell_length_c 25.961190
_cell_angle_alpha 90.000000
_cell_angle_beta 90.000000
_cell_angle_gamma 90.000000
_cell_volume 4813.516565
_symmetry_space_group_name_H-M "F D D D"
_symmetry_group_IT_number 70
_space_group.IT_coordinate_system_code '2'
_symmetry_cell_setting 'orthorhombic'
loop_
_space_group_symop_operation_xyz
x,y,z
1/4-x,1/4-y,z
x,1/4-y,1/4-z
1/4-x,y,1/4-z
-x,-y,-z
3/4+x,3/4+y,-z
-x,3/4+y,3/4+z
3/4+x,-y,3/4+z
x,1/2+y,1/2+z
1/4-x,3/4-y,1/2+z
x,3/4-y,3/4-z
1/4-x,1/2+y,3/4-z
-x,1/2-y,1/2-z
3/4+x,1/4+y,1/2-z
-x,1/4+y,1/4+z
3/4+x,1/2-y,1/4+z
1/2+x,y,1/2+z
3/4-x,1/4-y,1/2+z
1/2+x,1/4-y,3/4-z
3/4-x,y,3/4-z
1/2-x,-y,1/2-z
1/4+x,3/4+y,1/2-z
1/2-x,3/4+y,1/4+z
1/4+x,-y,1/4+z
1/2+x,1/2+y,z
3/4-x,3/4-y,z
1/2+x,3/4-y,1/4-z
3/4-x,1/2+y,1/4-z
1/2-x,1/2-y,-z
1/4+x,1/4+y,-z
1/2-x,1/4+y,3/4+z
1/4+x,1/2-y,3/4+z
loop_
_atom_site_type_symbol
_atom_site_label
_atom_site_fract_x
_atom_site_fract_y
_atom_site_fract_z
Si Si1 0.704761 0.217777 0.078784
Si Si2 0.125000 0.429862 0.625000
Si Si3 0.213328 0.584594 0.709727
Si Si4 0.119526 0.251146 0.471528
O O1 0.702807 0.125000 0.125000
O O2 0.695253 0.341198 0.103396
O O3 0.793005 0.192140 0.048772
O O4 0.631693 0.235774 0.033527
O O5 0.178744 0.513307 0.661413
O O6 0.125000 0.625000 0.734349
O O7 0.250000 0.500000 0.750000
O O8 0.284643 0.682105 0.704455
O O9 0.125000 0.125000 0.450683
#
# Coordination Sequence:
#
# PCOD9516912 Si02
#       4
#    32  16  32  32
#     4  11  25  44  78 114 158 213 269 332 406 495
#     4  12  24  50  78 112 156 212 270 330 404 492
#     4  12  28  49  77 110 156 206 262 336 408 479
#     4  11  25  47  75 113 160 210 266 338 411 483
#
# _framework density 23.267811999999999
#
# number of rings (size 3 to 8) (size 9 to 14) (size 15 to 20)
#    0.000    0.571    2.857    4.286    4.000    4.571 
#    0.000    0.000    0.000    0.000    0.000    0.000 
#    0.000    0.000    0.000    0.000    0.000    0.000 
#
# Total GULP energy -156047.398818 kJ/mol
# GULP energy per Si atom -5573.121386 kJ/mol
# Density = 2.321485 g / cm^3
# Si number density = 23.267812 Si / 1000 Ang^3
#
#
#
# Elastic Constant Matrix: (Units=GPa)
#
#
# Indices 1 2 3 4 5 6 
#
# 1 176.6572 86.6294 64.7952 0.0000 0.0000 0.0000
# 2 86.6294 184.1483 76.8608 0.0000 0.0000 0.0000
# 3 64.7952 76.8608 143.7901 0.0000 0.0000 0.0000
# 4 0.0000 0.0000 0.0000 57.8811 0.0000 0.0000
# 5 0.0000 0.0000 0.0000 0.0000 41.9735 0.0000
# 6 0.0000 0.0000 0.0000 0.0000 0.0000 23.4469
#
#
#
# Elastic Compliance Matrix: (Units=1/GPa)
#
#
# Indices 1 2 3 4 5 6 
#
# 1 0.007778 -0.002827 -0.001994 0.000000 0.000000 0.000000
# 2 -0.002827 0.008017 -0.003012 0.000000 0.000000 0.000000
# 3 -0.001994 -0.003012 0.009463 0.000000 0.000000 0.000000
# 4 0.000000 0.000000 0.000000 0.017277 0.000000 0.000000
# 5 0.000000 0.000000 0.000000 0.000000 0.023825 0.000000
# 6 0.000000 0.000000 0.000000 0.000000 0.000000 0.042650
#
#
# Mechanical properties :
#
#
# Convention : Reuss Voigt Hill
#
# Bulk Modulus (GPa) = 104.23797 106.79627 105.51712
# Shear Modulus (GPa) = 39.10149 43.08100 41.09124
#
# Velocity S-wave (km/s) = 4.10383 4.30761 4.20695
# Velocity P-wave (km/s) = 8.20681 8.41065 8.30935
#
# Compressibility (1/GPa) = 0.00959343
#
# Stress axis : x y z
#
# Youngs Moduli (GPa) = 128.56258 124.73039 105.67520
#
# Poissons Ratio (x) = 0.35260 0.21072
# Poissons Ratio (y) = 0.36343 0.31826
# Poissons Ratio (z) = 0.25636 0.37564
#
# Static dielectric constant tensor:
#      x y z
#    x 1.848470 0.000000 0.000000 
#    y 0.000000 1.946880 0.000000 
#    z 0.000000 0.000000 1.919780 
# 
# From -- ./inp_files/65437.got.cif
#   From: 2010.05.17/outbox.cif.g08.bks.cpg/sg70_33_cif.got.tgz:65437.got - 2010.06.03 15:57:51.
