data_PCOD9516205
_publ_section_title
;
Structure prediction by ZEFSAII (Michael W. Deem and Ramdas Pophale) SiO2 
 PCOD9516205
Probable space group: F D D D
;
_chemical_formula_sum "Si O2"
_cell_formula_units_Z 96
_cell_length_a 7.484094
_cell_length_b 27.681539
_cell_length_c 17.700560
_cell_angle_alpha 90.000000
_cell_angle_beta 90.000000
_cell_angle_gamma 90.000000
_cell_volume 3667.046963
_symmetry_space_group_name_H-M "F D D D"
_symmetry_group_IT_number 70
_space_group.IT_coordinate_system_code '2'
_symmetry_cell_setting 'orthorhombic'
loop_
_space_group_symop_operation_xyz
x,y,z
1/4-x,1/4-y,z
x,1/4-y,1/4-z
1/4-x,y,1/4-z
-x,-y,-z
3/4+x,3/4+y,-z
-x,3/4+y,3/4+z
3/4+x,-y,3/4+z
x,1/2+y,1/2+z
1/4-x,3/4-y,1/2+z
x,3/4-y,3/4-z
1/4-x,1/2+y,3/4-z
-x,1/2-y,1/2-z
3/4+x,1/4+y,1/2-z
-x,1/4+y,1/4+z
3/4+x,1/2-y,1/4+z
1/2+x,y,1/2+z
3/4-x,1/4-y,1/2+z
1/2+x,1/4-y,3/4-z
3/4-x,y,3/4-z
1/2-x,-y,1/2-z
1/4+x,3/4+y,1/2-z
1/2-x,3/4+y,1/4+z
1/4+x,-y,1/4+z
1/2+x,1/2+y,z
3/4-x,3/4-y,z
1/2+x,3/4-y,1/4-z
3/4-x,1/2+y,1/4-z
1/2-x,1/2-y,-z
1/4+x,1/4+y,-z
1/2-x,1/4+y,3/4+z
1/4+x,1/2-y,3/4+z
loop_
_atom_site_type_symbol
_atom_site_label
_atom_site_fract_x
_atom_site_fract_y
_atom_site_fract_z
Si Si1 0.844231 0.710711 0.754868
Si Si2 0.926433 0.709937 0.594070
Si Si3 0.080163 0.891645 0.543752
O O1 0.798846 0.704599 0.666672
O O2 0.698507 0.735996 0.809014
O O3 0.922838 0.660922 0.786370
O O4 0.000000 0.750000 0.750000
O O5 0.876966 0.675423 0.525585
O O6 0.125000 0.696337 0.625000
O O7 0.125000 0.913134 0.625000
O O8 0.875000 0.875000 0.538770
#
# Coordination Sequence:
#
# PCOD9516205 Si02
#       3
#    32  32  32
#     4  10  23  45  74 109 145 192 249 305 371 453
#     4  10  24  46  79 102 150 194 246 303 383 433
#     4  12  29  47  74 112 153 197 255 309 372 448
#
# _framework density 26.179102
#
# number of rings (size 3 to 8) (size 9 to 14) (size 15 to 20)
#    0.000    1.333    0.000    4.000   14.000    8.000 
#    0.000    0.000    0.000    0.000    0.000    0.000 
#    0.000    0.000    0.000    0.000    0.000    0.000 
#
# Total GULP energy -134490.969510 kJ/mol
# GULP energy per Si atom -5603.790396 kJ/mol
# Density = 2.611952 g / cm^3
# Si number density = 26.179102 Si / 1000 Ang^3
#
#
#
# Elastic Constant Matrix: (Units=GPa)
#
#
# Indices 1 2 3 4 5 6 
#
# 1 71.2429 -9.0514 35.5270 0.0000 0.0000 0.0000
# 2 -9.0514 97.1239 45.8986 0.0000 0.0000 0.0000
# 3 35.5270 45.8986 255.1989 0.0000 0.0000 0.0000
# 4 0.0000 0.0000 0.0000 54.2361 0.0000 0.0000
# 5 0.0000 0.0000 0.0000 0.0000 45.5976 0.0000
# 6 0.0000 0.0000 0.0000 0.0000 0.0000 21.5497
#
#
#
# Elastic Compliance Matrix: (Units=1/GPa)
#
#
# Indices 1 2 3 4 5 6 
#
# 1 0.015720 0.002731 -0.002680 0.000000 0.000000 0.000000
# 2 0.002731 0.011727 -0.002489 0.000000 0.000000 0.000000
# 3 -0.002680 -0.002489 0.004739 0.000000 0.000000 0.000000
# 4 0.000000 0.000000 0.000000 0.018438 0.000000 0.000000
# 5 0.000000 0.000000 0.000000 0.000000 0.021931 0.000000
# 6 0.000000 0.000000 0.000000 0.000000 0.000000 0.046404
#
#
# Mechanical properties :
#
#
# Convention : Reuss Voigt Hill
#
# Bulk Modulus (GPa) = 36.61564 63.14602 49.88083
# Shear Modulus (GPa) = 37.61137 47.68943 42.65040
#
# Velocity S-wave (km/s) = 3.79449 4.27272 4.04069
# Velocity P-wave (km/s) = 5.76320 6.96525 6.39254
#
# Compressibility (1/GPa) = 0.02731073
#
# Stress axis : x y z
#
# Youngs Moduli (GPa) = 63.61420 85.27250 211.00237
#
# Poissons Ratio (x) = -0.23291 0.56541
# Poissons Ratio (y) = -0.17375 0.52527
# Poissons Ratio (z) = 0.17046 0.21228
#
# Static dielectric constant tensor:
#      x y z
#    x 2.246910 0.000000 0.000000 
#    y 0.000000 2.143410 0.000000 
#    z 0.000000 0.000000 2.092290 
# 
# From -- ./inp_files/41106.got.cif
#   From: 2010.05.17/outbox.cif.g08.bks.cpg/sg70_21_cif.got.tgz:41106.got - 2010.06.03 15:57:51.
