data_PCOD9516641
_publ_section_title
;
Structure prediction by ZEFSAII (Michael W. Deem and Ramdas Pophale) SiO2 
 PCOD9516641
Probable space group: F D D D
;
_chemical_formula_sum "Si O2"
_cell_formula_units_Z 168
_cell_length_a 23.561081
_cell_length_b 20.860021
_cell_length_c 16.207858
_cell_angle_alpha 90.000000
_cell_angle_beta 90.000000
_cell_angle_gamma 90.000000
_cell_volume 7965.913326
_symmetry_space_group_name_H-M "F D D D"
_symmetry_group_IT_number 70
_space_group.IT_coordinate_system_code '2'
_symmetry_cell_setting 'orthorhombic'
loop_
_space_group_symop_operation_xyz
x,y,z
1/4-x,1/4-y,z
x,1/4-y,1/4-z
1/4-x,y,1/4-z
-x,-y,-z
3/4+x,3/4+y,-z
-x,3/4+y,3/4+z
3/4+x,-y,3/4+z
x,1/2+y,1/2+z
1/4-x,3/4-y,1/2+z
x,3/4-y,3/4-z
1/4-x,1/2+y,3/4-z
-x,1/2-y,1/2-z
3/4+x,1/4+y,1/2-z
-x,1/4+y,1/4+z
3/4+x,1/2-y,1/4+z
1/2+x,y,1/2+z
3/4-x,1/4-y,1/2+z
1/2+x,1/4-y,3/4-z
3/4-x,y,3/4-z
1/2-x,-y,1/2-z
1/4+x,3/4+y,1/2-z
1/2-x,3/4+y,1/4+z
1/4+x,-y,1/4+z
1/2+x,1/2+y,z
3/4-x,3/4-y,z
1/2+x,3/4-y,1/4-z
3/4-x,1/2+y,1/4-z
1/2-x,1/2-y,-z
1/4+x,1/4+y,-z
1/2-x,1/4+y,3/4+z
1/4+x,1/2-y,3/4+z
loop_
_atom_site_type_symbol
_atom_site_label
_atom_site_fract_x
_atom_site_fract_y
_atom_site_fract_z
Si Si1 0.370844 0.116208 0.724501
Si Si2 0.398766 0.307447 0.065064
Si Si3 0.940911 0.525642 0.467277
Si Si4 0.400878 0.969786 0.733552
Si Si5 0.032050 0.779455 0.533549
Si Si6 0.875000 0.375000 0.875000
O O1 0.374126 0.125000 0.625000
O O2 0.425017 0.150619 0.766942
O O3 0.313771 0.154898 0.753529
O O4 0.377425 0.041649 0.747532
O O5 0.375000 0.375000 0.034767
O O6 0.391719 0.306270 0.163144
O O7 0.355652 0.257698 0.024026
O O8 0.457237 0.278103 0.031825
O O9 0.939114 0.511923 0.370478
O O10 0.000000 0.500000 0.500000
O O11 0.465125 0.967412 0.699419
O O12 0.405117 0.924358 0.812966
#
# Coordination Sequence:
#
# PCOD9516641 Si02
#       6
#    32  32  32  32  32   8
#     4  11  22  43  71 101 142 185 235 299 357 436
#     4  11  23  44  65 100 144 174 229 295 346 438
#     4  11  22  41  67 106 140 176 231 292 367 442
#     4  12  26  48  69 102 141 192 246 300 360 434
#     4  11  25  43  73 104 138 186 236 292 376 429
#     4  12  32  48  68  96 146 192 250 304 348 430
#
# _framework density 21.089860999999999
#
# number of rings (size 3 to 8) (size 9 to 14) (size 15 to 20)
#    0.000    0.762    6.667    2.286    6.667    1.524 
#    0.000    1.905    0.000    0.000    0.000    0.000 
#    0.000    0.000    0.000    0.000    0.000    0.000 
#
# Total GULP energy -234120.034333 kJ/mol
# GULP energy per Si atom -5574.286532 kJ/mol
# Density = 2.104186 g / cm^3
# Si number density = 21.089861 Si / 1000 Ang^3
#
#
#
# Elastic Constant Matrix: (Units=GPa)
#
#
# Indices 1 2 3 4 5 6 
#
# 1 32.5840 -9.3594 2.4150 0.0000 0.0000 0.0000
# 2 -9.3594 130.8827 10.2930 0.0000 0.0000 0.0000
# 3 2.4150 10.2930 104.1174 0.0000 0.0000 0.0000
# 4 0.0000 0.0000 0.0000 30.4958 0.0000 0.0000
# 5 0.0000 0.0000 0.0000 0.0000 25.6289 0.0000
# 6 0.0000 0.0000 0.0000 0.0000 0.0000 12.8317
#
#
#
# Elastic Compliance Matrix: (Units=1/GPa)
#
#
# Indices 1 2 3 4 5 6 
#
# 1 0.031428 0.002323 -0.000959 0.000000 0.000000 0.000000
# 2 0.002323 0.007872 -0.000832 0.000000 0.000000 0.000000
# 3 -0.000959 -0.000832 0.009709 0.000000 0.000000 0.000000
# 4 0.000000 0.000000 0.000000 0.032791 0.000000 0.000000
# 5 0.000000 0.000000 0.000000 0.000000 0.039018 0.000000
# 6 0.000000 0.000000 0.000000 0.000000 0.000000 0.077932
#
#
# Mechanical properties :
#
#
# Convention : Reuss Voigt Hill
#
# Bulk Modulus (GPa) = 19.97069 30.47570 25.22319
# Shear Modulus (GPa) = 23.32331 31.40699 27.36515
#
# Velocity S-wave (km/s) = 3.32912 3.86320 3.60606
# Velocity P-wave (km/s) = 4.92618 5.86352 5.41517
#
# Compressibility (1/GPa) = 0.05007339
#
# Stress axis : x y z
#
# Youngs Moduli (GPa) = 31.81859 127.03297 102.99686
#
# Poissons Ratio (x) = -0.29507 0.09873
# Poissons Ratio (y) = -0.07391 0.08570
# Poissons Ratio (z) = 0.03050 0.10570
#
# Static dielectric constant tensor:
#      x y z
#    x 1.816290 0.000000 0.000000 
#    y 0.000000 1.901100 0.000000 
#    z 0.000000 0.000000 1.785600 
# 
# From -- ./inp_files/27680.got.cif
#   From: 2010.05.17/outbox.cif.g08.bks.cpg/sg70_14_cif.got.tgz:27680.got - 2010.06.03 15:57:51.
