data_PCOD9516086
_publ_section_title
;
Structure prediction by ZEFSAII (Michael W. Deem and Ramdas Pophale) SiO2 
 PCOD9516086
Probable space group: F D D D
;
_chemical_formula_sum "Si O2"
_cell_formula_units_Z 136
_cell_length_a 24.285942
_cell_length_b 13.165376
_cell_length_c 19.779756
_cell_angle_alpha 90.000000
_cell_angle_beta 90.000000
_cell_angle_gamma 90.000000
_cell_volume 6324.251761
_symmetry_space_group_name_H-M "F D D D"
_symmetry_group_IT_number 70
_space_group.IT_coordinate_system_code '2'
_symmetry_cell_setting 'orthorhombic'
loop_
_space_group_symop_operation_xyz
x,y,z
1/4-x,1/4-y,z
x,1/4-y,1/4-z
1/4-x,y,1/4-z
-x,-y,-z
3/4+x,3/4+y,-z
-x,3/4+y,3/4+z
3/4+x,-y,3/4+z
x,1/2+y,1/2+z
1/4-x,3/4-y,1/2+z
x,3/4-y,3/4-z
1/4-x,1/2+y,3/4-z
-x,1/2-y,1/2-z
3/4+x,1/4+y,1/2-z
-x,1/4+y,1/4+z
3/4+x,1/2-y,1/4+z
1/2+x,y,1/2+z
3/4-x,1/4-y,1/2+z
1/2+x,1/4-y,3/4-z
3/4-x,y,3/4-z
1/2-x,-y,1/2-z
1/4+x,3/4+y,1/2-z
1/2-x,3/4+y,1/4+z
1/4+x,-y,1/4+z
1/2+x,1/2+y,z
3/4-x,3/4-y,z
1/2+x,3/4-y,1/4-z
3/4-x,1/2+y,1/4-z
1/2-x,1/2-y,-z
1/4+x,1/4+y,-z
1/2-x,1/4+y,3/4+z
1/4+x,1/2-y,3/4+z
loop_
_atom_site_type_symbol
_atom_site_label
_atom_site_fract_x
_atom_site_fract_y
_atom_site_fract_z
Si Si1 0.532676 0.017789 0.318459
Si Si2 0.805244 0.205148 0.529893
Si Si3 0.875000 0.375000 0.875000
Si Si4 0.403571 0.575789 0.802092
Si Si5 0.063001 0.530321 0.003808
O O1 0.466066 0.036924 0.315724
O O2 0.564032 0.117812 0.291188
O O3 0.554819 0.991381 0.392734
O O4 0.545686 0.916880 0.275728
O O5 0.750000 0.250000 0.500000
O O6 0.858473 0.240821 0.487693
O O7 0.915233 0.436853 0.923182
O O8 0.375000 0.598603 0.875000
O O9 0.408726 0.670452 0.749099
O O10 0.000000 0.500000 0.000000
#
# Coordination Sequence:
#
# PCOD9516086 Si02
#       5
#    32  32   8  32  32
#     4  10  24  43  65 104 142 175 239 290 341 430
#     4  11  23  43  68  99 140 184 235 292 340 417
#     4  12  20  40  68  92 136 186 210 276 360 402
#     4  11  21  43  74 102 135 187 232 283 366 415
#     4  10  23  40  67 104 136 178 231 287 348 427
#
# _framework density 21.504521
#
# number of rings (size 3 to 8) (size 9 to 14) (size 15 to 20)
#    0.000    1.412    3.529    1.412    0.000    0.941 
#    0.000   25.882    0.000    0.000    0.000    0.000 
#    0.000    0.000    0.000    0.000    0.000    0.000 
#
# Total GULP energy -189324.325713 kJ/mol
# GULP energy per Si atom -5568.362521 kJ/mol
# Density = 2.145558 g / cm^3
# Si number density = 21.504521 Si / 1000 Ang^3
#
#
#
# Elastic Constant Matrix: (Units=GPa)
#
#
# Indices 1 2 3 4 5 6 
#
# 1 188.2292 36.5602 50.8962 0.0000 0.0000 0.0000
# 2 36.5602 75.9919 21.2819 0.0000 0.0000 0.0000
# 3 50.8962 21.2819 56.4458 0.0000 0.0000 0.0000
# 4 0.0000 0.0000 0.0000 19.7072 0.0000 0.0000
# 5 0.0000 0.0000 0.0000 0.0000 41.2160 0.0000
# 6 0.0000 0.0000 0.0000 0.0000 0.0000 20.7496
#
#
#
# Elastic Compliance Matrix: (Units=1/GPa)
#
#
# Indices 1 2 3 4 5 6 
#
# 1 0.007252 -0.001853 -0.005840 0.000000 0.000000 0.000000
# 2 -0.001853 0.015186 -0.004055 0.000000 0.000000 0.000000
# 3 -0.005840 -0.004055 0.024511 0.000000 0.000000 0.000000
# 4 0.000000 0.000000 0.000000 0.050743 0.000000 0.000000
# 5 0.000000 0.000000 0.000000 0.000000 0.024262 0.000000
# 6 0.000000 0.000000 0.000000 0.000000 0.000000 0.048194
#
#
# Mechanical properties :
#
#
# Convention : Reuss Voigt Hill
#
# Bulk Modulus (GPa) = 42.63867 59.79370 51.21619
# Shear Modulus (GPa) = 24.81861 30.46313 27.64087
#
# Velocity S-wave (km/s) = 3.40091 3.76785 3.58907
# Velocity P-wave (km/s) = 5.94074 6.84065 6.40651
#
# Compressibility (1/GPa) = 0.02345289
#
# Stress axis : x y z
#
# Youngs Moduli (GPa) = 137.89763 65.84800 40.79853
#
# Poissons Ratio (x) = 0.12204 0.23826
# Poissons Ratio (y) = 0.25557 0.16542
# Poissons Ratio (z) = 0.80532 0.26699
#
# Static dielectric constant tensor:
#      x y z
#    x 1.784240 0.000000 0.000000 
#    y 0.000000 1.923180 0.000000 
#    z 0.000000 0.000000 1.816370 
# 
# From -- ./inp_files/17690.got.cif
#   From: 2010.05.17/outbox.cif.g08.bks.cpg/sg70_9_cif.got.tgz:17690.got - 2010.06.03 15:57:51.
