data_PCOD9516586
_publ_section_title
;
Structure prediction by ZEFSAII (Michael W. Deem and Ramdas Pophale) SiO2 
 PCOD9516586
Probable space group: F D D D
;
_chemical_formula_sum "Si O2"
_cell_formula_units_Z 176
_cell_length_a 11.601174
_cell_length_b 25.357581
_cell_length_c 27.736011
_cell_angle_alpha 90.000000
_cell_angle_beta 90.000000
_cell_angle_gamma 90.000000
_cell_volume 8159.316184
_symmetry_space_group_name_H-M "F D D D"
_symmetry_group_IT_number 70
_space_group.IT_coordinate_system_code '2'
_symmetry_cell_setting 'orthorhombic'
loop_
_space_group_symop_operation_xyz
x,y,z
1/4-x,1/4-y,z
x,1/4-y,1/4-z
1/4-x,y,1/4-z
-x,-y,-z
3/4+x,3/4+y,-z
-x,3/4+y,3/4+z
3/4+x,-y,3/4+z
x,1/2+y,1/2+z
1/4-x,3/4-y,1/2+z
x,3/4-y,3/4-z
1/4-x,1/2+y,3/4-z
-x,1/2-y,1/2-z
3/4+x,1/4+y,1/2-z
-x,1/4+y,1/4+z
3/4+x,1/2-y,1/4+z
1/2+x,y,1/2+z
3/4-x,1/4-y,1/2+z
1/2+x,1/4-y,3/4-z
3/4-x,y,3/4-z
1/2-x,-y,1/2-z
1/4+x,3/4+y,1/2-z
1/2-x,3/4+y,1/4+z
1/4+x,-y,1/4+z
1/2+x,1/2+y,z
3/4-x,3/4-y,z
1/2+x,3/4-y,1/4-z
3/4-x,1/2+y,1/4-z
1/2-x,1/2-y,-z
1/4+x,1/4+y,-z
1/2-x,1/4+y,3/4+z
1/4+x,1/2-y,3/4+z
loop_
_atom_site_type_symbol
_atom_site_label
_atom_site_fract_x
_atom_site_fract_y
_atom_site_fract_z
Si Si1 0.625000 0.125000 0.202999
Si Si2 0.101172 0.428836 0.997479
Si Si3 0.508327 0.318915 0.896972
Si Si4 0.170732 0.492287 0.814502
Si Si5 0.588118 0.241060 0.071932
Si Si6 0.507746 0.158475 0.763425
O O1 0.733571 0.099187 0.230647
O O2 0.583963 0.072662 0.175736
O O3 0.086411 0.479839 0.031241
O O4 0.163826 0.383727 0.028315
O O5 0.192178 0.434544 0.951767
O O6 0.546768 0.375000 0.875000
O O7 0.375000 0.314096 0.875000
O O8 0.573734 0.272751 0.869790
O O9 0.221509 0.442874 0.783922
O O10 0.235674 0.545448 0.802286
O O11 0.039232 0.504138 0.802975
O O12 0.625000 0.259529 0.125000
O O13 0.625000 0.125000 0.755512
#
# Coordination Sequence:
#
# PCOD9516586 Si02
#       6
#    16  32  32  32  32  32
#     4  12  25  46  70  96 140 186 242 286 353 428
#     4  12  25  45  71 104 139 188 234 303 353 428
#     4  11  22  37  66 106 141 176 233 296 351 421
#     4  11  23  39  71 102 134 181 229 286 364 424
#     4  12  26  46  70  99 137 189 243 290 360 432
#     4  11  21  41  72 103 138 177 230 290 364 428
#
# _framework density 21.570435
#
# number of rings (size 3 to 8) (size 9 to 14) (size 15 to 20)
#    0.000    0.545    5.455    3.000    2.545    0.000 
#    0.000    4.545    2.000    0.000    0.000    0.000 
#    0.000    0.000    0.000    0.000    0.000    0.000 
#
# Total GULP energy -245011.334687 kJ/mol
# GULP energy per Si atom -5568.439425 kJ/mol
# Density = 2.152134 g / cm^3
# Si number density = 21.570435 Si / 1000 Ang^3
#
#
#
# Elastic Constant Matrix: (Units=GPa)
#
#
# Indices 1 2 3 4 5 6 
#
# 1 58.9576 1.2091 11.8245 0.0000 0.0000 0.0000
# 2 1.2091 105.9438 55.2512 0.0000 0.0000 0.0000
# 3 11.8245 55.2512 110.4101 0.0000 0.0000 0.0000
# 4 0.0000 0.0000 0.0000 28.5917 0.0000 0.0000
# 5 0.0000 0.0000 0.0000 0.0000 14.7481 0.0000
# 6 0.0000 0.0000 0.0000 0.0000 0.0000 0.9123
#
#
#
# Elastic Compliance Matrix: (Units=1/GPa)
#
#
# Indices 1 2 3 4 5 6 
#
# 1 0.017419 0.001047 -0.002390 0.000000 0.000000 0.000000
# 2 0.001047 0.012835 -0.006535 0.000000 0.000000 0.000000
# 3 -0.002390 -0.006535 0.012583 0.000000 0.000000 0.000000
# 4 0.000000 0.000000 0.000000 0.034975 0.000000 0.000000
# 5 0.000000 0.000000 0.000000 0.000000 0.067805 0.000000
# 6 0.000000 0.000000 0.000000 0.000000 0.000000 1.096087
#
#
# Mechanical properties :
#
#
# Convention : Reuss Voigt Hill
#
# Bulk Modulus (GPa) = 36.92359 45.76456 41.34407
# Shear Modulus (GPa) = 3.94793 22.65222 13.30008
#
# Velocity S-wave (km/s) = 1.35433 3.24412 2.48581
# Velocity P-wave (km/s) = 4.42724 5.94094 5.23905
#
# Compressibility (1/GPa) = 0.02708296
#
# Stress axis : x y z
#
# Youngs Moduli (GPa) = 57.40815 77.91091 79.46996
#
# Poissons Ratio (x) = -0.08161 0.18991
# Poissons Ratio (y) = -0.06013 0.51935
# Poissons Ratio (z) = 0.13719 0.50916
#
# Static dielectric constant tensor:
#      x y z
#    x 1.898190 0.000000 0.000000 
#    y 0.000000 1.758090 0.000000 
#    z 0.000000 0.000000 1.845940 
# 
# From -- ./inp_files/57594.got.cif
#   From: 2010.05.17/outbox.cif.g08.bks.cpg/sg70_29_cif.got.tgz:57594.got - 2010.06.03 15:57:51.
