data_PCOD9516178
_publ_section_title
;
Structure prediction by ZEFSAII (Michael W. Deem and Ramdas Pophale) SiO2 
 PCOD9516178
Probable space group: F D D D
;
_chemical_formula_sum "Si O2"
_cell_formula_units_Z 176
_cell_length_a 24.550914
_cell_length_b 11.715934
_cell_length_c 25.438183
_cell_angle_alpha 90.000000
_cell_angle_beta 90.000000
_cell_angle_gamma 90.000000
_cell_volume 7316.959796
_symmetry_space_group_name_H-M "F D D D"
_symmetry_group_IT_number 70
_space_group.IT_coordinate_system_code '2'
_symmetry_cell_setting 'orthorhombic'
loop_
_space_group_symop_operation_xyz
x,y,z
1/4-x,1/4-y,z
x,1/4-y,1/4-z
1/4-x,y,1/4-z
-x,-y,-z
3/4+x,3/4+y,-z
-x,3/4+y,3/4+z
3/4+x,-y,3/4+z
x,1/2+y,1/2+z
1/4-x,3/4-y,1/2+z
x,3/4-y,3/4-z
1/4-x,1/2+y,3/4-z
-x,1/2-y,1/2-z
3/4+x,1/4+y,1/2-z
-x,1/4+y,1/4+z
3/4+x,1/2-y,1/4+z
1/2+x,y,1/2+z
3/4-x,1/4-y,1/2+z
1/2+x,1/4-y,3/4-z
3/4-x,y,3/4-z
1/2-x,-y,1/2-z
1/4+x,3/4+y,1/2-z
1/2-x,3/4+y,1/4+z
1/4+x,-y,1/4+z
1/2+x,1/2+y,z
3/4-x,3/4-y,z
1/2+x,3/4-y,1/4-z
3/4-x,1/2+y,1/4-z
1/2-x,1/2-y,-z
1/4+x,1/4+y,-z
1/2-x,1/4+y,3/4+z
1/4+x,1/2-y,3/4+z
loop_
_atom_site_type_symbol
_atom_site_label
_atom_site_fract_x
_atom_site_fract_y
_atom_site_fract_z
Si Si1 0.004701 0.166305 0.370090
Si Si2 0.855731 0.624111 0.511377
Si Si3 0.565647 0.642738 0.786455
Si Si4 0.826107 0.464516 0.311958
Si Si5 0.410975 0.125000 0.625000
Si Si6 0.743174 0.199505 0.757237
O O1 0.020050 0.086826 0.419111
O O2 0.050150 0.264632 0.373586
O O3 0.006931 0.100555 0.315473
O O4 0.946920 0.231427 0.365925
O O5 0.829817 0.748911 0.500321
O O6 0.902340 0.567627 0.474998
O O7 0.875818 0.622828 0.571865
O O8 0.806088 0.538049 0.505811
O O9 0.625000 0.625000 0.812486
O O10 0.545114 0.527519 0.757958
O O11 0.875000 0.375000 0.315866
O O12 0.775237 0.399258 0.283675
#
# Coordination Sequence:
#
# PCOD9516178 Si02
#       6
#    32  32  32  32  16  32
#     4  12  24  40  69 106 144 186 244 306 369 443
#     4  11  23  42  69 103 148 187 246 305 373 440
#     4  12  25  43  68 105 145 191 248 309 368 446
#     4  10  23  44  70 102 145 193 240 301 370 454
#     4  12  22  38  71 106 139 182 248 314 362 440
#     4  11  24  43  69 104 147 194 242 300 378 449
#
# _framework density 24.053705000000001
#
# number of rings (size 3 to 8) (size 9 to 14) (size 15 to 20)
#    0.000    0.727    3.636    4.364    0.000    0.000 
#    0.000   10.455    0.000    0.000    0.000    4.455 
#    0.000    0.000    0.000    0.000    0.000    0.000 
#
# Total GULP energy -246176.216278 kJ/mol
# GULP energy per Si atom -5594.914006 kJ/mol
# Density = 2.399896 g / cm^3
# Si number density = 24.053705 Si / 1000 Ang^3
#
#
#
# Elastic Constant Matrix: (Units=GPa)
#
#
# Indices 1 2 3 4 5 6 
#
# 1 127.3217 67.5641 54.5749 0.0000 0.0000 0.0000
# 2 67.5641 144.6767 48.0100 0.0000 0.0000 0.0000
# 3 54.5749 48.0100 114.6558 0.0000 0.0000 0.0000
# 4 0.0000 0.0000 0.0000 41.7065 0.0000 0.0000
# 5 0.0000 0.0000 0.0000 0.0000 51.6483 0.0000
# 6 0.0000 0.0000 0.0000 0.0000 0.0000 35.3369
#
#
#
# Elastic Compliance Matrix: (Units=1/GPa)
#
#
# Indices 1 2 3 4 5 6 
#
# 1 0.011724 -0.004208 -0.003818 0.000000 0.000000 0.000000
# 2 -0.004208 0.009538 -0.001991 0.000000 0.000000 0.000000
# 3 -0.003818 -0.001991 0.011373 0.000000 0.000000 0.000000
# 4 0.000000 0.000000 0.000000 0.023977 0.000000 0.000000
# 5 0.000000 0.000000 0.000000 0.000000 0.019362 0.000000
# 6 0.000000 0.000000 0.000000 0.000000 0.000000 0.028299
#
#
# Mechanical properties :
#
#
# Convention : Reuss Voigt Hill
#
# Bulk Modulus (GPa) = 79.36436 80.77247 80.06842
# Shear Modulus (GPa) = 38.90853 40.17202 39.54028
#
# Velocity S-wave (km/s) = 4.02626 4.09112 4.05882
# Velocity P-wave (km/s) = 7.39464 7.48126 7.43808
#
# Compressibility (1/GPa) = 0.01260011
#
# Stress axis : x y z
#
# Youngs Moduli (GPa) = 85.29670 104.84714 87.92839
#
# Poissons Ratio (x) = 0.44119 0.33575
# Poissons Ratio (y) = 0.35892 0.17505
# Poissons Ratio (z) = 0.32570 0.20873
#
# Static dielectric constant tensor:
#      x y z
#    x 1.949530 0.000000 0.000000 
#    y 0.000000 2.014880 0.000000 
#    z 0.000000 0.000000 1.925970 
# 
# From -- ./inp_files/61657.got.cif
#   From: 2010.05.17/outbox.cif.g08.bks.cpg/sg70_31_cif.got.tgz:61657.got - 2010.06.03 15:57:51.
