data_PCOD9516281
_publ_section_title
;
Structure prediction by ZEFSAII (Michael W. Deem and Ramdas Pophale) SiO2 
 PCOD9516281
Probable space group: F D D D
;
_chemical_formula_sum "Si O2"
_cell_formula_units_Z 216
_cell_length_a 14.379996
_cell_length_b 23.600267
_cell_length_c 29.677648
_cell_angle_alpha 90.000000
_cell_angle_beta 90.000000
_cell_angle_gamma 90.000000
_cell_volume 10071.755191
_symmetry_space_group_name_H-M "F D D D"
_symmetry_group_IT_number 70
_space_group.IT_coordinate_system_code '2'
_symmetry_cell_setting 'orthorhombic'
loop_
_space_group_symop_operation_xyz
x,y,z
1/4-x,1/4-y,z
x,1/4-y,1/4-z
1/4-x,y,1/4-z
-x,-y,-z
3/4+x,3/4+y,-z
-x,3/4+y,3/4+z
3/4+x,-y,3/4+z
x,1/2+y,1/2+z
1/4-x,3/4-y,1/2+z
x,3/4-y,3/4-z
1/4-x,1/2+y,3/4-z
-x,1/2-y,1/2-z
3/4+x,1/4+y,1/2-z
-x,1/4+y,1/4+z
3/4+x,1/2-y,1/4+z
1/2+x,y,1/2+z
3/4-x,1/4-y,1/2+z
1/2+x,1/4-y,3/4-z
3/4-x,y,3/4-z
1/2-x,-y,1/2-z
1/4+x,3/4+y,1/2-z
1/2-x,3/4+y,1/4+z
1/4+x,-y,1/4+z
1/2+x,1/2+y,z
3/4-x,3/4-y,z
1/2+x,3/4-y,1/4-z
3/4-x,1/2+y,1/4-z
1/2-x,1/2-y,-z
1/4+x,1/4+y,-z
1/2-x,1/4+y,3/4+z
1/4+x,1/2-y,3/4+z
loop_
_atom_site_type_symbol
_atom_site_label
_atom_site_fract_x
_atom_site_fract_y
_atom_site_fract_z
Si Si1 0.443833 0.498344 0.717001
Si Si2 0.279711 0.904856 0.605972
Si Si3 0.377630 0.471563 0.935869
Si Si4 0.109546 0.191959 0.731896
Si Si5 0.625000 0.930178 0.625000
Si Si6 0.830150 0.560148 0.143072
Si Si7 0.625000 0.625000 0.125000
Si Si8 0.290007 0.496066 0.175964
O O1 0.451075 0.440603 0.688544
O O2 0.386331 0.481089 0.761643
O O3 0.545750 0.522355 0.727059
O O4 0.397933 0.546140 0.685178
O O5 0.375000 0.875000 0.621152
O O6 0.203061 0.857079 0.601916
O O7 0.245927 0.950216 0.642494
O O8 0.337255 0.527858 0.913062
O O9 0.482433 0.460651 0.916597
O O10 0.328307 0.417700 0.911868
O O11 0.125000 0.125000 0.731326
O O12 0.070310 0.212072 0.779889
O O13 0.035747 0.208933 0.693093
O O14 0.832285 0.625000 0.125000
O O15 0.874314 0.523204 0.102115
#
# Coordination Sequence:
#
# PCOD9516281 Si02
#       8
#    32  32  32  32  16  32   8  32
#     4  11  26  43  69 105 141 178 244 296 347 442
#     4  11  24  45  70  98 140 188 226 299 355 423
#     4  11  25  43  68 102 137 184 238 288 356 429
#     4  11  24  43  69 104 138 183 233 303 359 426
#     4  11  24  43  70 100 131 188 235 280 364 426
#     4  11  23  46  70 100 141 188 230 292 365 430
#     4  10  24  44  68  88 136 194 222 296 362 412
#     4  10  24  43  69 100 139 182 238 287 360 436
#
# _framework density 21.446113
#
# number of rings (size 3 to 8) (size 9 to 14) (size 15 to 20)
#    0.000    1.185    0.741    4.444    9.333    1.778 
#    2.667    3.704    0.000    0.000    0.000    0.000 
#    0.000    0.000    0.000    0.000    0.000    0.000 
#
# Total GULP energy -301298.692023 kJ/mol
# GULP energy per Si atom -5579.605408 kJ/mol
# Density = 2.139730 g / cm^3
# Si number density = 21.446113 Si / 1000 Ang^3
#
#
#
# Elastic Constant Matrix: (Units=GPa)
#
#
# Indices 1 2 3 4 5 6 
#
# 1 84.2795 42.1887 41.1135 0.0000 0.0000 0.0000
# 2 42.1887 149.2604 65.4587 0.0000 0.0000 0.0000
# 3 41.1135 65.4587 167.3610 0.0000 0.0000 0.0000
# 4 0.0000 0.0000 0.0000 31.3022 0.0000 0.0000
# 5 0.0000 0.0000 0.0000 0.0000 13.6476 0.0000
# 6 0.0000 0.0000 0.0000 0.0000 0.0000 18.2594
#
#
#
# Elastic Compliance Matrix: (Units=1/GPa)
#
#
# Indices 1 2 3 4 5 6 
#
# 1 0.014563 -0.003075 -0.002375 0.000000 0.000000 0.000000
# 2 -0.003075 0.008736 -0.002662 0.000000 0.000000 0.000000
# 3 -0.002375 -0.002662 0.007600 0.000000 0.000000 0.000000
# 4 0.000000 0.000000 0.000000 0.031947 0.000000 0.000000
# 5 0.000000 0.000000 0.000000 0.000000 0.073273 0.000000
# 6 0.000000 0.000000 0.000000 0.000000 0.000000 0.054766
#
#
# Mechanical properties :
#
#
# Convention : Reuss Voigt Hill
#
# Bulk Modulus (GPa) = 68.13771 77.60253 72.87012
# Shear Modulus (GPa) = 23.58504 29.45118 26.51811
#
# Velocity S-wave (km/s) = 3.31982 3.70978 3.52020
# Velocity P-wave (km/s) = 6.82170 7.39009 7.11157
#
# Compressibility (1/GPa) = 0.01467616
#
# Stress axis : x y z
#
# Youngs Moduli (GPa) = 68.66738 114.46890 131.58754
#
# Poissons Ratio (x) = 0.35196 0.31251
# Poissons Ratio (y) = 0.21113 0.35022
# Poissons Ratio (z) = 0.16308 0.30466
#
# Static dielectric constant tensor:
#      x y z
#    x 1.899830 0.000000 0.000000 
#    y 0.000000 1.785080 0.000000 
#    z 0.000000 0.000000 1.771530 
# 
# From -- ./inp_files/65964.got.cif
#   From: 2010.05.17/outbox.cif.g08.bks.cpg/sg70_33_cif.got.tgz:65964.got - 2010.06.03 15:57:51.
