data_PCOD9516154
_publ_section_title
;
Structure prediction by ZEFSAII (Michael W. Deem and Ramdas Pophale) SiO2 
 PCOD9516154
Probable space group: F D D D
;
_chemical_formula_sum "Si O2"
_cell_formula_units_Z 120
_cell_length_a 21.253885
_cell_length_b 14.533161
_cell_length_c 17.963665
_cell_angle_alpha 90.000000
_cell_angle_beta 90.000000
_cell_angle_gamma 90.000000
_cell_volume 5548.727009
_symmetry_space_group_name_H-M "F D D D"
_symmetry_group_IT_number 70
_space_group.IT_coordinate_system_code '2'
_symmetry_cell_setting 'orthorhombic'
loop_
_space_group_symop_operation_xyz
x,y,z
1/4-x,1/4-y,z
x,1/4-y,1/4-z
1/4-x,y,1/4-z
-x,-y,-z
3/4+x,3/4+y,-z
-x,3/4+y,3/4+z
3/4+x,-y,3/4+z
x,1/2+y,1/2+z
1/4-x,3/4-y,1/2+z
x,3/4-y,3/4-z
1/4-x,1/2+y,3/4-z
-x,1/2-y,1/2-z
3/4+x,1/4+y,1/2-z
-x,1/4+y,1/4+z
3/4+x,1/2-y,1/4+z
1/2+x,y,1/2+z
3/4-x,1/4-y,1/2+z
1/2+x,1/4-y,3/4-z
3/4-x,y,3/4-z
1/2-x,-y,1/2-z
1/4+x,3/4+y,1/2-z
1/2-x,3/4+y,1/4+z
1/4+x,-y,1/4+z
1/2+x,1/2+y,z
3/4-x,3/4-y,z
1/2+x,3/4-y,1/4-z
3/4-x,1/2+y,1/4-z
1/2-x,1/2-y,-z
1/4+x,1/4+y,-z
1/2-x,1/4+y,3/4+z
1/4+x,1/2-y,3/4+z
loop_
_atom_site_type_symbol
_atom_site_label
_atom_site_fract_x
_atom_site_fract_y
_atom_site_fract_z
Si Si1 0.715248 0.777097 0.681658
Si Si2 0.375000 0.077375 0.375000
Si Si3 0.974875 0.080014 0.056490
Si Si4 0.608045 0.517777 0.286292
Si Si5 0.375000 0.875000 0.875000
O O1 0.685967 0.854936 0.627029
O O2 0.709354 0.830891 0.758572
O O3 0.789068 0.754970 0.678888
O O4 0.670908 0.689548 0.672941
O O5 0.383535 0.020806 0.298444
O O6 0.013426 0.125000 0.125000
O O7 0.910900 0.033656 0.084203
O O8 0.000000 0.000000 0.000000
O O9 0.625000 0.625000 0.284184
#
# Coordination Sequence:
#
# PCOD9516154 Si02
#       5
#    32  16  32  32   8
#     4  10  23  43  67  95 135 186 230 283 356 425
#     4   9  23  41  63  98 136 176 235 279 357 415
#     4  11  25  43  66 104 140 180 239 295 361 434
#     4  11  22  38  67 100 133 182 222 296 346 429
#     4  10  24  52  66  96 142 192 232 290 348 450
#
# _framework density 21.626583
#
# number of rings (size 3 to 8) (size 9 to 14) (size 15 to 20)
#    0.000    1.600    2.667    0.400    9.333    0.000 
#    7.200    4.000    0.000    0.000    0.000    0.000 
#    0.000    0.000    0.000    0.000    0.000    0.000 
#
# Total GULP energy -167143.384820 kJ/mol
# GULP energy per Si atom -5571.446161 kJ/mol
# Density = 2.157736 g / cm^3
# Si number density = 21.626583 Si / 1000 Ang^3
#
#
#
# Elastic Constant Matrix: (Units=GPa)
#
#
# Indices 1 2 3 4 5 6 
#
# 1 166.4020 50.2591 16.4856 0.0000 0.0000 0.0000
# 2 50.2591 132.6022 46.6547 0.0000 0.0000 0.0000
# 3 16.4856 46.6547 77.0133 0.0000 0.0000 0.0000
# 4 0.0000 0.0000 0.0000 10.9405 0.0000 0.0000
# 5 0.0000 0.0000 0.0000 0.0000 25.3450 0.0000
# 6 0.0000 0.0000 0.0000 0.0000 0.0000 29.1496
#
#
#
# Elastic Compliance Matrix: (Units=1/GPa)
#
#
# Indices 1 2 3 4 5 6 
#
# 1 0.006788 -0.002620 0.000134 0.000000 0.000000 0.000000
# 2 -0.002620 0.010595 -0.005858 0.000000 0.000000 0.000000
# 3 0.000134 -0.005858 0.016505 0.000000 0.000000 0.000000
# 4 0.000000 0.000000 0.000000 0.091404 0.000000 0.000000
# 5 0.000000 0.000000 0.000000 0.000000 0.039456 0.000000
# 6 0.000000 0.000000 0.000000 0.000000 0.000000 0.034306
#
#
# Mechanical properties :
#
#
# Convention : Reuss Voigt Hill
#
# Bulk Modulus (GPa) = 58.13772 66.97960 62.55866
# Shear Modulus (GPa) = 22.57609 30.59490 26.58549
#
# Velocity S-wave (km/s) = 3.23446 3.76532 3.50994
# Velocity P-wave (km/s) = 6.39452 7.06694 6.73912
#
# Compressibility (1/GPa) = 0.01720054
#
# Stress axis : x y z
#
# Youngs Moduli (GPa) = 147.32907 94.38102 60.58862
#
# Poissons Ratio (x) = 0.24726 -0.00813
# Poissons Ratio (y) = 0.38597 0.35492
# Poissons Ratio (z) = -0.01976 0.55287
#
# Static dielectric constant tensor:
#      x y z
#    x 1.926550 0.000000 0.000000 
#    y 0.000000 1.800720 0.000000 
#    z 0.000000 0.000000 1.837510 
# 
# From -- ./inp_files/27215.got.cif
#   From: 2010.05.17/outbox.cif.g08.bks.cpg/sg70_14_cif.got.tgz:27215.got - 2010.06.03 15:57:51.
