data_PCOD9516883
_publ_section_title
;
Structure prediction by ZEFSAII (Michael W. Deem and Ramdas Pophale) SiO2 
 PCOD9516883
Probable space group: F D D D
;
_chemical_formula_sum "Si O2"
_cell_formula_units_Z 176
_cell_length_a 21.510446
_cell_length_b 23.052498
_cell_length_c 17.080201
_cell_angle_alpha 90.000000
_cell_angle_beta 90.000000
_cell_angle_gamma 90.000000
_cell_volume 8469.550959
_symmetry_space_group_name_H-M "F D D D"
_symmetry_group_IT_number 70
_space_group.IT_coordinate_system_code '2'
_symmetry_cell_setting 'orthorhombic'
loop_
_space_group_symop_operation_xyz
x,y,z
1/4-x,1/4-y,z
x,1/4-y,1/4-z
1/4-x,y,1/4-z
-x,-y,-z
3/4+x,3/4+y,-z
-x,3/4+y,3/4+z
3/4+x,-y,3/4+z
x,1/2+y,1/2+z
1/4-x,3/4-y,1/2+z
x,3/4-y,3/4-z
1/4-x,1/2+y,3/4-z
-x,1/2-y,1/2-z
3/4+x,1/4+y,1/2-z
-x,1/4+y,1/4+z
3/4+x,1/2-y,1/4+z
1/2+x,y,1/2+z
3/4-x,1/4-y,1/2+z
1/2+x,1/4-y,3/4-z
3/4-x,y,3/4-z
1/2-x,-y,1/2-z
1/4+x,3/4+y,1/2-z
1/2-x,3/4+y,1/4+z
1/4+x,-y,1/4+z
1/2+x,1/2+y,z
3/4-x,3/4-y,z
1/2+x,3/4-y,1/4-z
3/4-x,1/2+y,1/4-z
1/2-x,1/2-y,-z
1/4+x,1/4+y,-z
1/2-x,1/4+y,3/4+z
1/4+x,1/2-y,3/4+z
loop_
_atom_site_type_symbol
_atom_site_label
_atom_site_fract_x
_atom_site_fract_y
_atom_site_fract_z
Si Si1 0.625000 0.358396 0.125000
Si Si2 0.724326 0.750832 0.275457
Si Si3 0.257676 0.051034 0.813334
Si Si4 0.696325 0.643412 0.709305
Si Si5 0.338973 0.543461 0.757987
Si Si6 0.026359 0.058457 0.107502
O O1 0.671156 0.316990 0.078394
O O2 0.661944 0.402243 0.182317
O O3 0.725572 0.713768 0.354416
O O4 0.785733 0.790390 0.281227
O O5 0.659651 0.786597 0.272131
O O6 0.728569 0.718184 0.193673
O O7 0.228188 0.108328 0.777706
O O8 0.250000 0.000000 0.750000
O O9 0.625000 0.625000 0.709538
O O10 0.722944 0.625000 0.625000
O O11 0.289065 0.555182 0.689646
O O12 0.320455 0.484113 0.805050
O O13 0.045545 0.125000 0.125000
#
# Coordination Sequence:
#
# PCOD9516883 Si02
#       6
#    16  32  32  32  32  32
#     4  12  24  50  71  99 150 190 240 304 368 436
#     4  12  25  45  71 105 143 188 241 298 365 439
#     4  12  27  42  71 104 136 189 238 295 358 428
#     4  11  25  47  69  98 144 187 237 298 358 430
#     4  11  24  47  74  99 146 193 237 297 376 437
#     4  11  25  45  72 108 140 187 242 300 357 436
#
# _framework density 20.780322000000002
#
# number of rings (size 3 to 8) (size 9 to 14) (size 15 to 20)
#    0.000    0.545    5.455    1.091    5.091    5.091 
#    0.000    0.000    0.000    0.000    0.000    0.000 
#    0.000    0.000    0.000    0.000    0.000    0.000 
#
# Total GULP energy -245923.377299 kJ/mol
# GULP energy per Si atom -5589.167666 kJ/mol
# Density = 2.073303 g / cm^3
# Si number density = 20.780322 Si / 1000 Ang^3
#
#
#
# Elastic Constant Matrix: (Units=GPa)
#
#
# Indices 1 2 3 4 5 6 
#
# 1 95.3457 26.6367 35.0542 0.0000 0.0000 0.0000
# 2 26.6367 75.0906 29.2190 0.0000 0.0000 0.0000
# 3 35.0542 29.2190 127.9766 0.0000 0.0000 0.0000
# 4 0.0000 0.0000 0.0000 51.5821 0.0000 0.0000
# 5 0.0000 0.0000 0.0000 0.0000 41.1595 0.0000
# 6 0.0000 0.0000 0.0000 0.0000 0.0000 34.2160
#
#
#
# Elastic Compliance Matrix: (Units=1/GPa)
#
#
# Indices 1 2 3 4 5 6 
#
# 1 0.012396 -0.003376 -0.002625 0.000000 0.000000 0.000000
# 2 -0.003376 0.015535 -0.002622 0.000000 0.000000 0.000000
# 3 -0.002625 -0.002622 0.009132 0.000000 0.000000 0.000000
# 4 0.000000 0.000000 0.000000 0.019387 0.000000 0.000000
# 5 0.000000 0.000000 0.000000 0.000000 0.024296 0.000000
# 6 0.000000 0.000000 0.000000 0.000000 0.000000 0.029226
#
#
# Mechanical properties :
#
#
# Convention : Reuss Voigt Hill
#
# Bulk Modulus (GPa) = 50.46116 53.35920 51.91018
# Shear Modulus (GPa) = 37.36282 39.22503 38.29392
#
# Velocity S-wave (km/s) = 4.24487 4.34937 4.29744
# Velocity P-wave (km/s) = 6.95422 7.13836 7.04689
#
# Compressibility (1/GPa) = 0.01981722
#
# Stress axis : x y z
#
# Youngs Moduli (GPa) = 80.66932 64.37024 109.51047
#
# Poissons Ratio (x) = 0.21731 0.28743
# Poissons Ratio (y) = 0.27234 0.28716
# Poissons Ratio (z) = 0.21173 0.16879
#
# Static dielectric constant tensor:
#      x y z
#    x 1.744330 0.000000 0.000000 
#    y 0.000000 1.776970 0.000000 
#    z 0.000000 0.000000 2.767920 
# 
# From -- ./inp_files/28761.got.cif
#   From: 2010.05.17/outbox.cif.g08.bks.cpg/sg70_15_cif.got.tgz:28761.got - 2010.06.03 15:57:51.
