data_PCOD9516393
_publ_section_title
;
Structure prediction by ZEFSAII (Michael W. Deem and Ramdas Pophale) SiO2 
 PCOD9516393
Probable space group: F D D D
;
_chemical_formula_sum "Si O2"
_cell_formula_units_Z 184
_cell_length_a 17.488924
_cell_length_b 24.893693
_cell_length_c 19.285984
_cell_angle_alpha 90.000000
_cell_angle_beta 90.000000
_cell_angle_gamma 90.000000
_cell_volume 8396.421305
_symmetry_space_group_name_H-M "F D D D"
_symmetry_group_IT_number 70
_space_group.IT_coordinate_system_code '2'
_symmetry_cell_setting 'orthorhombic'
loop_
_space_group_symop_operation_xyz
x,y,z
1/4-x,1/4-y,z
x,1/4-y,1/4-z
1/4-x,y,1/4-z
-x,-y,-z
3/4+x,3/4+y,-z
-x,3/4+y,3/4+z
3/4+x,-y,3/4+z
x,1/2+y,1/2+z
1/4-x,3/4-y,1/2+z
x,3/4-y,3/4-z
1/4-x,1/2+y,3/4-z
-x,1/2-y,1/2-z
3/4+x,1/4+y,1/2-z
-x,1/4+y,1/4+z
3/4+x,1/2-y,1/4+z
1/2+x,y,1/2+z
3/4-x,1/4-y,1/2+z
1/2+x,1/4-y,3/4-z
3/4-x,y,3/4-z
1/2-x,-y,1/2-z
1/4+x,3/4+y,1/2-z
1/2-x,3/4+y,1/4+z
1/4+x,-y,1/4+z
1/2+x,1/2+y,z
3/4-x,3/4-y,z
1/2+x,3/4-y,1/4-z
3/4-x,1/2+y,1/4-z
1/2-x,1/2-y,-z
1/4+x,1/4+y,-z
1/2-x,1/4+y,3/4+z
1/4+x,1/2-y,3/4+z
loop_
_atom_site_type_symbol
_atom_site_label
_atom_site_fract_x
_atom_site_fract_y
_atom_site_fract_z
Si Si1 0.521168 0.881173 0.058217
Si Si2 0.625000 0.806038 0.125000
Si Si3 0.471158 0.263835 0.117619
Si Si4 0.875000 0.375000 0.763495
Si Si5 0.125000 0.625000 0.625000
Si Si6 0.546348 0.713826 0.033919
Si Si7 0.125000 0.041070 0.625000
Si Si8 0.620313 0.829615 0.434276
O O1 0.555190 0.849144 0.123940
O O2 0.485720 0.937870 0.080117
O O3 0.447099 0.851541 0.027197
O O4 0.586385 0.892002 0.999842
O O5 0.590285 0.765624 0.067026
O O6 0.555553 0.243467 0.098165
O O7 0.426059 0.214714 0.150870
O O8 0.434167 0.284737 0.047054
O O9 0.844000 0.420947 0.814333
O O10 0.078262 0.663259 0.574908
O O11 0.455513 0.703726 0.044506
O O12 0.605077 0.875000 0.375000
#
# Coordination Sequence:
#
# PCOD9516393 Si02
#       8
#    32  16  32  16   8  32  16  32
#     4  12  26  44  69 109 151 188 237 305 369 441
#     4  11  25  47  73 100 142 192 240 304 354 430
#     4  12  26  41  72 106 142 188 237 299 368 442
#     4  11  24  39  70  97 144 181 232 280 370 451
#     4  10  24  54  70  98 138 194 252 316 342 424
#     4  11  25  48  75 101 141 191 251 300 370 419
#     4  11  21  42  64 100 136 184 219 291 364 434
#     4  12  24  46  72 108 144 192 242 299 370 440
#
# _framework density 21.914099
#
# number of rings (size 3 to 8) (size 9 to 14) (size 15 to 20)
#    0.000    0.522    2.609    6.261    4.870    0.696 
#    3.130    2.609    0.000    0.000    0.000    0.000 
#    0.000    0.000    0.000    0.000    0.000    0.000 
#
# Total GULP energy -256701.559534 kJ/mol
# GULP energy per Si atom -5580.468686 kJ/mol
# Density = 2.186422 g / cm^3
# Si number density = 21.914099 Si / 1000 Ang^3
#
#
#
# Elastic Constant Matrix: (Units=GPa)
#
#
# Indices 1 2 3 4 5 6 
#
# 1 106.0076 20.0282 40.3957 0.0000 0.0000 0.0000
# 2 20.0282 94.6700 33.1931 0.0000 0.0000 0.0000
# 3 40.3957 33.1931 98.2965 0.0000 0.0000 0.0000
# 4 0.0000 0.0000 0.0000 16.3930 0.0000 0.0000
# 5 0.0000 0.0000 0.0000 0.0000 30.5454 0.0000
# 6 0.0000 0.0000 0.0000 0.0000 0.0000 5.6253
#
#
#
# Elastic Compliance Matrix: (Units=1/GPa)
#
#
# Indices 1 2 3 4 5 6 
#
# 1 0.011246 -0.000861 -0.004331 0.000000 0.000000 0.000000
# 2 -0.000861 0.012047 -0.003715 0.000000 0.000000 0.000000
# 3 -0.004331 -0.003715 0.013208 0.000000 0.000000 0.000000
# 4 0.000000 0.000000 0.000000 0.061002 0.000000 0.000000
# 5 0.000000 0.000000 0.000000 0.000000 0.032738 0.000000
# 6 0.000000 0.000000 0.000000 0.000000 0.000000 0.177769
#
#
# Mechanical properties :
#
#
# Convention : Reuss Voigt Hill
#
# Bulk Modulus (GPa) = 53.50833 54.02314 53.76574
# Shear Modulus (GPa) = 15.05785 24.20320 19.63053
#
# Velocity S-wave (km/s) = 2.62416 3.32694 2.99623
# Velocity P-wave (km/s) = 5.80103 6.28202 6.04631
#
# Compressibility (1/GPa) = 0.01868868
#
# Stress axis : x y z
#
# Youngs Moduli (GPa) = 88.91788 83.00494 75.71428
#
# Poissons Ratio (x) = 0.07144 0.32793
# Poissons Ratio (y) = 0.07653 0.28124
# Poissons Ratio (z) = 0.38512 0.30832
#
# Static dielectric constant tensor:
#      x y z
#    x 1.809640 0.000000 0.000000 
#    y 0.000000 1.815540 0.000000 
#    z 0.000000 0.000000 1.815480 
# 
# From -- ./inp_files/43908.got.cif
#   From: 2010.05.17/outbox.cif.g08.bks.cpg/sg70_22_cif.got.tgz:43908.got - 2010.06.03 15:57:51.
