data_PCOD9516005
_publ_section_title
;
Structure prediction by ZEFSAII (Michael W. Deem and Ramdas Pophale) SiO2 
 PCOD9516005
Probable space group: F D D D
;
_chemical_formula_sum "Si O2"
_cell_formula_units_Z 208
_cell_length_a 14.766728
_cell_length_b 22.259037
_cell_length_c 28.975241
_cell_angle_alpha 90.000000
_cell_angle_beta 90.000000
_cell_angle_gamma 90.000000
_cell_volume 9523.963089
_symmetry_space_group_name_H-M "F D D D"
_symmetry_group_IT_number 70
_space_group.IT_coordinate_system_code '2'
_symmetry_cell_setting 'orthorhombic'
loop_
_space_group_symop_operation_xyz
x,y,z
1/4-x,1/4-y,z
x,1/4-y,1/4-z
1/4-x,y,1/4-z
-x,-y,-z
3/4+x,3/4+y,-z
-x,3/4+y,3/4+z
3/4+x,-y,3/4+z
x,1/2+y,1/2+z
1/4-x,3/4-y,1/2+z
x,3/4-y,3/4-z
1/4-x,1/2+y,3/4-z
-x,1/2-y,1/2-z
3/4+x,1/4+y,1/2-z
-x,1/4+y,1/4+z
3/4+x,1/2-y,1/4+z
1/2+x,y,1/2+z
3/4-x,1/4-y,1/2+z
1/2+x,1/4-y,3/4-z
3/4-x,y,3/4-z
1/2-x,-y,1/2-z
1/4+x,3/4+y,1/2-z
1/2-x,3/4+y,1/4+z
1/4+x,-y,1/4+z
1/2+x,1/2+y,z
3/4-x,3/4-y,z
1/2+x,3/4-y,1/4-z
3/4-x,1/2+y,1/4-z
1/2-x,1/2-y,-z
1/4+x,1/4+y,-z
1/2-x,1/4+y,3/4+z
1/4+x,1/2-y,3/4+z
loop_
_atom_site_type_symbol
_atom_site_label
_atom_site_fract_x
_atom_site_fract_y
_atom_site_fract_z
Si Si1 0.024794 0.875000 0.875000
Si Si2 0.233254 0.324941 0.778626
Si Si3 0.517243 0.838489 0.196220
Si Si4 0.877292 0.510812 0.584208
Si Si5 0.033794 0.316999 0.739222
Si Si6 0.457906 0.694216 0.492394
Si Si7 0.217735 0.160538 0.392567
O O1 0.982506 0.893992 0.825638
O O2 0.080284 0.934319 0.888120
O O3 0.268313 0.363187 0.734341
O O4 0.125155 0.326275 0.768895
O O5 0.252270 0.254163 0.779758
O O6 0.453686 0.780489 0.190335
O O7 0.616083 0.819307 0.213662
O O8 0.514691 0.869879 0.146408
O O9 0.817082 0.536884 0.543697
O O10 0.819696 0.469328 0.617609
O O11 0.986236 0.382270 0.746621
O O12 0.000000 0.250000 0.750000
O O13 0.034571 0.320404 0.683440
O O14 0.125000 0.125000 0.407092
#
# Coordination Sequence:
#
# PCOD9516005 Si02
#       7
#    16  32  32  32  32  32  32
#     4  12  24  42  65 102 133 182 226 282 340 416
#     4  11  25  44  66 101 137 178 233 281 357 415
#     4  10  22  45  67 100 137 185 220 278 348 432
#     4  11  22  43  70  95 137 179 228 276 353 410
#     4  11  25  44  67  96 134 176 233 295 339 413
#     4  11  24  42  68  96 137 180 227 287 347 410
#     4  10  23  41  72 101 132 181 232 279 351 428
#
# _framework density 21.839646999999999
#
# number of rings (size 3 to 8) (size 9 to 14) (size 15 to 20)
#    0.000    1.231    4.615    1.385    6.462    2.462 
#    0.000    0.769    0.000    0.000    0.000    0.000 
#    0.000    0.000    0.000    0.000    0.000    0.000 
#
# Total GULP energy -289976.488276 kJ/mol
# GULP energy per Si atom -5576.470928 kJ/mol
# Density = 2.178994 g / cm^3
# Si number density = 21.839647 Si / 1000 Ang^3
#
#
#
# Elastic Constant Matrix: (Units=GPa)
#
#
# Indices 1 2 3 4 5 6 
#
# 1 40.5079 32.0789 12.0640 0.0000 0.0000 0.0000
# 2 32.0789 173.8102 51.2479 0.0000 0.0000 0.0000
# 3 12.0640 51.2479 119.4689 0.0000 0.0000 0.0000
# 4 0.0000 0.0000 0.0000 32.6725 0.0000 0.0000
# 5 0.0000 0.0000 0.0000 0.0000 15.6746 0.0000
# 6 0.0000 0.0000 0.0000 0.0000 0.0000 27.1193
#
#
#
# Elastic Compliance Matrix: (Units=1/GPa)
#
#
# Indices 1 2 3 4 5 6 
#
# 1 0.028967 -0.005133 -0.000723 0.000000 0.000000 0.000000
# 2 -0.005133 0.007496 -0.002697 0.000000 0.000000 0.000000
# 3 -0.000723 -0.002697 0.009600 0.000000 0.000000 0.000000
# 4 0.000000 0.000000 0.000000 0.030607 0.000000 0.000000
# 5 0.000000 0.000000 0.000000 0.000000 0.063798 0.000000
# 6 0.000000 0.000000 0.000000 0.000000 0.000000 0.036874
#
#
# Mechanical properties :
#
#
# Convention : Reuss Voigt Hill
#
# Bulk Modulus (GPa) = 34.53462 58.28542 46.41002
# Shear Modulus (GPa) = 24.49773 30.98636 27.74205
#
# Velocity S-wave (km/s) = 3.35283 3.77080 3.56794
# Velocity P-wave (km/s) = 5.55299 6.76050 6.18628
#
# Compressibility (1/GPa) = 0.02895645
#
# Stress axis : x y z
#
# Youngs Moduli (GPa) = 34.52233 133.40408 104.16219
#
# Poissons Ratio (x) = 0.68476 0.07533
# Poissons Ratio (y) = 0.17720 0.28095
# Poissons Ratio (z) = 0.02497 0.35982
#
# Static dielectric constant tensor:
#      x y z
#    x 1.837460 0.000000 0.000000 
#    y 0.000000 1.196590 0.000000 
#    z 0.000000 0.000000 1.809630 
# 
# From -- ./inp_files/66807.got.cif
#   From: 2010.05.17/outbox.cif.g08.bks.cpg/sg70_34_cif.got.tgz:66807.got - 2010.06.03 15:57:51.
