data_PCOD9516406
_publ_section_title
;
Structure prediction by ZEFSAII (Michael W. Deem and Ramdas Pophale) SiO2 
 PCOD9516406
Probable space group: F D D D
;
_chemical_formula_sum "Si O2"
_cell_formula_units_Z 136
_cell_length_a 19.480607
_cell_length_b 23.089656
_cell_length_c 13.383428
_cell_angle_alpha 90.000000
_cell_angle_beta 90.000000
_cell_angle_gamma 90.000000
_cell_volume 6019.872798
_symmetry_space_group_name_H-M "F D D D"
_symmetry_group_IT_number 70
_space_group.IT_coordinate_system_code '2'
_symmetry_cell_setting 'orthorhombic'
loop_
_space_group_symop_operation_xyz
x,y,z
1/4-x,1/4-y,z
x,1/4-y,1/4-z
1/4-x,y,1/4-z
-x,-y,-z
3/4+x,3/4+y,-z
-x,3/4+y,3/4+z
3/4+x,-y,3/4+z
x,1/2+y,1/2+z
1/4-x,3/4-y,1/2+z
x,3/4-y,3/4-z
1/4-x,1/2+y,3/4-z
-x,1/2-y,1/2-z
3/4+x,1/4+y,1/2-z
-x,1/4+y,1/4+z
3/4+x,1/2-y,1/4+z
1/2+x,y,1/2+z
3/4-x,1/4-y,1/2+z
1/2+x,1/4-y,3/4-z
3/4-x,y,3/4-z
1/2-x,-y,1/2-z
1/4+x,3/4+y,1/2-z
1/2-x,3/4+y,1/4+z
1/4+x,-y,1/4+z
1/2+x,1/2+y,z
3/4-x,3/4-y,z
1/2+x,3/4-y,1/4-z
3/4-x,1/2+y,1/4-z
1/2-x,1/2-y,-z
1/4+x,1/4+y,-z
1/2-x,1/4+y,3/4+z
1/4+x,1/2-y,3/4+z
loop_
_atom_site_type_symbol
_atom_site_label
_atom_site_fract_x
_atom_site_fract_y
_atom_site_fract_z
Si Si1 0.170744 0.536997 0.284831
Si Si2 0.044890 0.564820 0.594219
Si Si3 0.732212 0.052737 0.891830
Si Si4 0.875000 0.875000 0.375000
Si Si5 0.446005 0.667143 0.815946
O O1 0.094538 0.551310 0.317880
O O2 0.173244 0.580184 0.187860
O O3 0.181218 0.468775 0.264118
O O4 0.231404 0.557555 0.358288
O O5 0.011780 0.625000 0.625000
O O6 0.125000 0.565480 0.625000
O O7 0.028769 0.561920 0.476644
O O8 0.013919 0.510342 0.650283
O O9 0.780932 0.100239 0.944551
O O10 0.375000 0.666422 0.875000
#
# Coordination Sequence:
#
# PCOD9516406 Si02
#       5
#    32  32  32   8  32
#     4  11  25  42  70 103 143 189 232 298 364 431
#     4  10  25  43  70 102 136 184 234 292 354 420
#     4  11  24  47  69 101 144 184 239 298 358 427
#     4  12  20  44  60 108 142 184 228 292 360 420
#     4  11  24  42  70 101 138 188 237 287 360 435
#
# _framework density 22.591840999999999
#
# number of rings (size 3 to 8) (size 9 to 14) (size 15 to 20)
#    0.000    1.176    3.529    0.706    9.882    0.000 
#    0.000    4.706    0.000    0.000    0.000    0.000 
#    0.000    0.000    0.000    0.000    0.000    0.000 
#
# Total GULP energy -189405.451074 kJ/mol
# GULP energy per Si atom -5570.748561 kJ/mol
# Density = 2.254042 g / cm^3
# Si number density = 22.591841 Si / 1000 Ang^3
#
#
#
# Elastic Constant Matrix: (Units=GPa)
#
#
# Indices 1 2 3 4 5 6 
#
# 1 146.2909 64.8207 15.9813 0.0000 0.0000 0.0000
# 2 64.8207 211.6369 38.6771 0.0000 0.0000 0.0000
# 3 15.9813 38.6771 37.2197 0.0000 0.0000 0.0000
# 4 0.0000 0.0000 0.0000 22.9303 0.0000 0.0000
# 5 0.0000 0.0000 0.0000 0.0000 29.0554 0.0000
# 6 0.0000 0.0000 0.0000 0.0000 0.0000 54.1264
#
#
#
# Elastic Compliance Matrix: (Units=1/GPa)
#
#
# Indices 1 2 3 4 5 6 
#
# 1 0.007945 -0.002234 -0.001090 0.000000 0.000000 0.000000
# 2 -0.002234 0.006461 -0.005755 0.000000 0.000000 0.000000
# 3 -0.001090 -0.005755 0.033315 0.000000 0.000000 0.000000
# 4 0.000000 0.000000 0.000000 0.043610 0.000000 0.000000
# 5 0.000000 0.000000 0.000000 0.000000 0.034417 0.000000
# 6 0.000000 0.000000 0.000000 0.000000 0.000000 0.018475
#
#
# Mechanical properties :
#
#
# Convention : Reuss Voigt Hill
#
# Bulk Modulus (GPa) = 33.82481 70.45618 52.14050
# Shear Modulus (GPa) = 29.03000 39.60031 34.31516
#
# Velocity S-wave (km/s) = 3.58855 4.19126 3.90156
# Velocity P-wave (km/s) = 5.67229 7.39435 6.58981
#
# Compressibility (1/GPa) = 0.02956409
#
# Stress axis : x y z
#
# Youngs Moduli (GPa) = 125.87031 154.77340 30.01616
#
# Poissons Ratio (x) = 0.34579 0.03271
# Poissons Ratio (y) = 0.28122 0.17274
# Poissons Ratio (z) = 0.13715 0.89068
#
# Static dielectric constant tensor:
#      x y z
#    x 1.827430 0.000000 0.000000 
#    y 0.000000 1.886030 0.000000 
#    z 0.000000 0.000000 2.065240 
# 
# From -- ./inp_files/27418.got.cif
#   From: 2010.05.17/outbox.cif.g08.bks.cpg/sg70_14_cif.got.tgz:27418.got - 2010.06.03 15:57:51.
