data_PCOD9516316
_publ_section_title
;
Structure prediction by ZEFSAII (Michael W. Deem and Ramdas Pophale) SiO2 
 PCOD9516316
Probable space group: F D D D
;
_chemical_formula_sum "Si O2"
_cell_formula_units_Z 104
_cell_length_a 10.311761
_cell_length_b 25.792732
_cell_length_c 15.764267
_cell_angle_alpha 90.000000
_cell_angle_beta 90.000000
_cell_angle_gamma 90.000000
_cell_volume 4192.798257
_symmetry_space_group_name_H-M "F D D D"
_symmetry_group_IT_number 70
_space_group.IT_coordinate_system_code '2'
_symmetry_cell_setting 'orthorhombic'
loop_
_space_group_symop_operation_xyz
x,y,z
1/4-x,1/4-y,z
x,1/4-y,1/4-z
1/4-x,y,1/4-z
-x,-y,-z
3/4+x,3/4+y,-z
-x,3/4+y,3/4+z
3/4+x,-y,3/4+z
x,1/2+y,1/2+z
1/4-x,3/4-y,1/2+z
x,3/4-y,3/4-z
1/4-x,1/2+y,3/4-z
-x,1/2-y,1/2-z
3/4+x,1/4+y,1/2-z
-x,1/4+y,1/4+z
3/4+x,1/2-y,1/4+z
1/2+x,y,1/2+z
3/4-x,1/4-y,1/2+z
1/2+x,1/4-y,3/4-z
3/4-x,y,3/4-z
1/2-x,-y,1/2-z
1/4+x,3/4+y,1/2-z
1/2-x,3/4+y,1/4+z
1/4+x,-y,1/4+z
1/2+x,1/2+y,z
3/4-x,3/4-y,z
1/2+x,3/4-y,1/4-z
3/4-x,1/2+y,1/4-z
1/2-x,1/2-y,-z
1/4+x,1/4+y,-z
1/2-x,1/4+y,3/4+z
1/4+x,1/2-y,3/4+z
loop_
_atom_site_type_symbol
_atom_site_label
_atom_site_fract_x
_atom_site_fract_y
_atom_site_fract_z
Si Si1 0.062509 0.535060 0.809248
Si Si2 0.544357 0.826920 0.734468
Si Si3 0.094777 0.940147 0.034782
Si Si4 0.625000 0.625000 0.625000
O O1 0.103096 0.476283 0.789741
O O2 0.190271 0.566174 0.779844
O O3 0.931559 0.548031 0.758228
O O4 0.030745 0.550140 0.906353
O O5 0.167496 0.864063 0.711696
O O6 0.458021 0.836417 0.816124
O O7 0.125000 0.967363 0.125000
#
# Coordination Sequence:
#
# PCOD9516316 Si02
#       4
#    32  32  32   8
#     4  10  24  44  77 113 154 217 263 334 410 482
#     4  11  24  46  74 111 167 211 267 341 403 478
#     4  11  22  43  79 115 157 212 269 335 411 492
#     4  12  28  44  78 112 150 228 260 334 408 480
#
# _framework density 24.804437
#
# number of rings (size 3 to 8) (size 9 to 14) (size 15 to 20)
#    0.000    1.231    3.077    2.769    0.000    7.385 
#    0.000   10.769    0.000    5.538    0.000    0.000 
#    0.000    0.000    0.000    0.000    0.000    0.000 
#
# Total GULP energy -145698.242787 kJ/mol
# GULP energy per Si atom -5603.778569 kJ/mol
# Density = 2.474798 g / cm^3
# Si number density = 24.804437 Si / 1000 Ang^3
#
#
#
# Elastic Constant Matrix: (Units=GPa)
#
#
# Indices 1 2 3 4 5 6 
#
# 1 209.4311 62.1477 132.7596 0.0000 0.0000 0.0000
# 2 62.1477 109.0504 69.9302 0.0000 0.0000 0.0000
# 3 132.7596 69.9302 140.8739 0.0000 0.0000 0.0000
# 4 0.0000 0.0000 0.0000 47.6198 0.0000 0.0000
# 5 0.0000 0.0000 0.0000 0.0000 50.3937 0.0000
# 6 0.0000 0.0000 0.0000 0.0000 0.0000 69.7984
#
#
#
# Elastic Compliance Matrix: (Units=1/GPa)
#
#
# Indices 1 2 3 4 5 6 
#
# 1 0.011887 0.000600 -0.011500 0.000000 0.000000 0.000000
# 2 0.000600 0.013483 -0.007259 0.000000 0.000000 0.000000
# 3 -0.011500 -0.007259 0.021539 0.000000 0.000000 0.000000
# 4 0.000000 0.000000 0.000000 0.021000 0.000000 0.000000
# 5 0.000000 0.000000 0.000000 0.000000 0.019844 0.000000
# 6 0.000000 0.000000 0.000000 0.000000 0.000000 0.014327
#
#
# Mechanical properties :
#
#
# Convention : Reuss Voigt Hill
#
# Bulk Modulus (GPa) = 94.40967 109.89227 102.15097
# Shear Modulus (GPa) = 35.22971 46.53023 40.87997
#
# Velocity S-wave (km/s) = 3.77277 4.33585 4.06407
# Velocity P-wave (km/s) = 7.55795 8.33461 7.95576
#
# Compressibility (1/GPa) = 0.01059213
#
# Stress axis : x y z
#
# Youngs Moduli (GPa) = 84.12877 74.16973 46.42695
#
# Poissons Ratio (x) = -0.04453 0.53390
# Poissons Ratio (y) = -0.05051 0.33699
# Poissons Ratio (z) = 0.96747 0.53837
#
# Static dielectric constant tensor:
#      x y z
#    x 1.963500 0.000000 0.000000 
#    y 0.000000 1.969900 0.000000 
#    z 0.000000 0.000000 2.013250 
# 
# From -- ./inp_files/33156.got.cif
#   From: 2010.05.17/outbox.cif.g08.bks.cpg/sg70_17_cif.got.tgz:33156.got - 2010.06.03 15:57:51.
