data_PCOD9516941
_publ_section_title
;
Structure prediction by ZEFSAII (Michael W. Deem and Ramdas Pophale) SiO2 
 PCOD9516941
Probable space group: F D D D
;
_chemical_formula_sum "Si O2"
_cell_formula_units_Z 176
_cell_length_a 22.559583
_cell_length_b 15.552280
_cell_length_c 22.780975
_cell_angle_alpha 90.000000
_cell_angle_beta 90.000000
_cell_angle_gamma 90.000000
_cell_volume 7992.772317
_symmetry_space_group_name_H-M "F D D D"
_symmetry_group_IT_number 70
_space_group.IT_coordinate_system_code '2'
_symmetry_cell_setting 'orthorhombic'
loop_
_space_group_symop_operation_xyz
x,y,z
1/4-x,1/4-y,z
x,1/4-y,1/4-z
1/4-x,y,1/4-z
-x,-y,-z
3/4+x,3/4+y,-z
-x,3/4+y,3/4+z
3/4+x,-y,3/4+z
x,1/2+y,1/2+z
1/4-x,3/4-y,1/2+z
x,3/4-y,3/4-z
1/4-x,1/2+y,3/4-z
-x,1/2-y,1/2-z
3/4+x,1/4+y,1/2-z
-x,1/4+y,1/4+z
3/4+x,1/2-y,1/4+z
1/2+x,y,1/2+z
3/4-x,1/4-y,1/2+z
1/2+x,1/4-y,3/4-z
3/4-x,y,3/4-z
1/2-x,-y,1/2-z
1/4+x,3/4+y,1/2-z
1/2-x,3/4+y,1/4+z
1/4+x,-y,1/4+z
1/2+x,1/2+y,z
3/4-x,3/4-y,z
1/2+x,3/4-y,1/4-z
3/4-x,1/2+y,1/4-z
1/2-x,1/2-y,-z
1/4+x,1/4+y,-z
1/2-x,1/4+y,3/4+z
1/4+x,1/2-y,3/4+z
loop_
_atom_site_type_symbol
_atom_site_label
_atom_site_fract_x
_atom_site_fract_y
_atom_site_fract_z
Si Si1 0.611617 0.973530 0.447576
Si Si2 0.875000 0.375000 0.272619
Si Si3 0.233682 0.538389 0.658231
Si Si4 0.886419 0.193467 0.972929
Si Si5 0.784897 0.654270 0.380345
Si Si6 0.906180 0.461775 0.083655
O O1 0.541036 0.992497 0.444590
O O2 0.616171 0.889921 0.486423
O O3 0.647337 0.049244 0.480453
O O4 0.635329 0.969568 0.381679
O O5 0.824503 0.422787 0.310226
O O6 0.255757 0.625000 0.625000
O O7 0.216709 0.450687 0.623653
O O8 0.835721 0.183199 0.924743
O O9 0.946880 0.190501 0.934416
O O10 0.869266 0.267533 0.019107
O O11 0.725186 0.693219 0.407471
O O12 0.875000 0.375000 0.104030
#
# Coordination Sequence:
#
# PCOD9516941 Si02
#       6
#    32  16  32  32  32  32
#     4  12  24  43  66 104 145 185 237 293 372 451
#     4  12  23  38  68 102 144 185 228 286 384 446
#     4  12  24  40  68 106 144 185 233 298 373 456
#     4  11  26  45  71 102 140 190 244 311 371 441
#     4  11  25  48  70 103 148 188 250 318 369 447
#     4  12  25  46  70 103 141 197 249 302 371 444
#
# _framework density 22.019895000000002
#
# number of rings (size 3 to 8) (size 9 to 14) (size 15 to 20)
#    0.000    0.364    4.545    4.091    5.091    1.455 
#    0.000    3.636    0.000    0.000    0.000    0.000 
#    0.000    0.000    0.000    0.000    0.000    0.000 
#
# Total GULP energy -245615.588804 kJ/mol
# GULP energy per Si atom -5582.172473 kJ/mol
# Density = 2.196978 g / cm^3
# Si number density = 22.019895 Si / 1000 Ang^3
#
#
#
# Elastic Constant Matrix: (Units=GPa)
#
#
# Indices 1 2 3 4 5 6 
#
# 1 60.7526 -16.6603 -10.1100 0.0000 0.0000 0.0000
# 2 -16.6603 53.7441 3.8286 0.0000 0.0000 0.0000
# 3 -10.1100 3.8286 80.5405 0.0000 0.0000 0.0000
# 4 0.0000 0.0000 0.0000 65.7504 0.0000 0.0000
# 5 0.0000 0.0000 0.0000 0.0000 27.1458 0.0000
# 6 0.0000 0.0000 0.0000 0.0000 0.0000 30.8441
#
#
#
# Elastic Compliance Matrix: (Units=1/GPa)
#
#
# Indices 1 2 3 4 5 6 
#
# 1 0.018316 0.005533 0.002036 0.000000 0.000000 0.000000
# 2 0.005533 0.020341 -0.000272 0.000000 0.000000 0.000000
# 3 0.002036 -0.000272 0.012685 0.000000 0.000000 0.000000
# 4 0.000000 0.000000 0.000000 0.015209 0.000000 0.000000
# 5 0.000000 0.000000 0.000000 0.000000 0.036838 0.000000
# 6 0.000000 0.000000 0.000000 0.000000 0.000000 0.032421
#
#
# Mechanical properties :
#
#
# Convention : Reuss Voigt Hill
#
# Bulk Modulus (GPa) = 15.16632 16.57264 15.86948
# Shear Modulus (GPa) = 34.91724 39.27998 37.09861
#
# Velocity S-wave (km/s) = 3.98642 4.22814 4.10906
# Velocity P-wave (km/s) = 5.30012 5.60167 5.45298
#
# Compressibility (1/GPa) = 0.06593557
#
# Stress axis : x y z
#
# Youngs Moduli (GPa) = 54.59607 49.16114 78.83541
#
# Poissons Ratio (x) = -0.27200 -0.16052
# Poissons Ratio (y) = -0.30207 0.02148
# Poissons Ratio (z) = -0.11117 0.01339
#
# Static dielectric constant tensor:
#      x y z
#    x 1.880730 0.000000 0.000000 
#    y 0.000000 1.709810 0.000000 
#    z 0.000000 0.000000 1.900540 
# 
# From -- ./inp_files/53617.got.cif
#   From: 2010.05.17/outbox.cif.g08.bks.cpg/sg70_27_cif.got.tgz:53617.got - 2010.06.03 15:57:51.
