data_PCOD9516033
_publ_section_title
;
Structure prediction by ZEFSAII (Michael W. Deem and Ramdas Pophale) SiO2 
 PCOD9516033
Probable space group: F D D D
;
_chemical_formula_sum "Si O2"
_cell_formula_units_Z 112
_cell_length_a 13.604783
_cell_length_b 30.618012
_cell_length_c 12.218322
_cell_angle_alpha 90.000000
_cell_angle_beta 90.000000
_cell_angle_gamma 90.000000
_cell_volume 5089.559247
_symmetry_space_group_name_H-M "F D D D"
_symmetry_group_IT_number 70
_space_group.IT_coordinate_system_code '2'
_symmetry_cell_setting 'orthorhombic'
loop_
_space_group_symop_operation_xyz
x,y,z
1/4-x,1/4-y,z
x,1/4-y,1/4-z
1/4-x,y,1/4-z
-x,-y,-z
3/4+x,3/4+y,-z
-x,3/4+y,3/4+z
3/4+x,-y,3/4+z
x,1/2+y,1/2+z
1/4-x,3/4-y,1/2+z
x,3/4-y,3/4-z
1/4-x,1/2+y,3/4-z
-x,1/2-y,1/2-z
3/4+x,1/4+y,1/2-z
-x,1/4+y,1/4+z
3/4+x,1/2-y,1/4+z
1/2+x,y,1/2+z
3/4-x,1/4-y,1/2+z
1/2+x,1/4-y,3/4-z
3/4-x,y,3/4-z
1/2-x,-y,1/2-z
1/4+x,3/4+y,1/2-z
1/2-x,3/4+y,1/4+z
1/4+x,-y,1/4+z
1/2+x,1/2+y,z
3/4-x,3/4-y,z
1/2+x,3/4-y,1/4-z
3/4-x,1/2+y,1/4-z
1/2-x,1/2-y,-z
1/4+x,1/4+y,-z
1/2-x,1/4+y,3/4+z
1/4+x,1/2-y,3/4+z
loop_
_atom_site_type_symbol
_atom_site_label
_atom_site_fract_x
_atom_site_fract_y
_atom_site_fract_z
Si Si1 0.923853 0.125000 0.125000
Si Si2 0.550096 0.702858 0.225156
Si Si3 0.403528 0.286625 0.538063
Si Si4 0.293104 0.051720 0.659636
O O1 0.849160 0.095388 0.192476
O O2 0.984418 0.161486 0.189807
O O3 0.625000 0.709186 0.125000
O O4 0.500000 0.750000 0.250000
O O5 0.593522 0.691581 0.343519
O O6 0.369932 0.236270 0.557773
O O7 0.502583 0.293352 0.465437
O O8 0.308735 0.302752 0.473405
#
# Coordination Sequence:
#
# PCOD9516033 Si02
#       4
#    16  32  32  32
#     4  12  27  45  66 112 142 184 262 281 357 456
#     4  12  26  49  73 105 147 194 238 306 377 436
#     4  10  22  46  75  98 147 198 233 306 378 418
#     4  10  23  46  73 108 138 193 248 296 367 444
#
# _framework density 22.005835000000001
#
# number of rings (size 3 to 8) (size 9 to 14) (size 15 to 20)
#    0.000    1.143    2.857    2.143    0.000    2.286 
#   15.429    0.000    0.000    0.000    0.000    0.000 
#    0.000    0.000    0.000    0.000    0.000    0.000 
#
# Total GULP energy -156057.655481 kJ/mol
# GULP energy per Si atom -5573.487696 kJ/mol
# Density = 2.195575 g / cm^3
# Si number density = 22.005835 Si / 1000 Ang^3
#
#
#
# Elastic Constant Matrix: (Units=GPa)
#
#
# Indices 1 2 3 4 5 6 
#
# 1 80.6729 86.5038 42.9272 0.0000 0.0000 0.0000
# 2 86.5038 148.8333 46.6255 0.0000 0.0000 0.0000
# 3 42.9272 46.6255 137.4581 0.0000 0.0000 0.0000
# 4 0.0000 0.0000 0.0000 12.1615 0.0000 0.0000
# 5 0.0000 0.0000 0.0000 0.0000 -15.2829 0.0000
# 6 0.0000 0.0000 0.0000 0.0000 0.0000 48.9360
#
#
#
# Elastic Compliance Matrix: (Units=1/GPa)
#
#
# Indices 1 2 3 4 5 6 
#
# 1 0.035265 -0.019073 -0.004543 0.000000 0.000000 0.000000
# 2 -0.019073 0.017834 -0.000093 0.000000 0.000000 0.000000
# 3 -0.004543 -0.000093 0.008725 0.000000 0.000000 0.000000
# 4 0.000000 0.000000 0.000000 0.082227 0.000000 0.000000
# 5 0.000000 0.000000 0.000000 0.000000 -0.065432 0.000000
# 6 0.000000 0.000000 0.000000 0.000000 0.000000 0.020435
#
#
# Mechanical properties :
#
#
# Convention : Reuss Voigt Hill
#
# Bulk Modulus (GPa) = 69.41898 79.89750 74.65824
# Shear Modulus (GPa) = 33.05255 21.89008 27.47131
#
# Velocity S-wave (km/s) = 3.87976 3.15737 3.53705
# Velocity P-wave (km/s) = 7.18917 7.04828 7.11907
#
# Compressibility (1/GPa) = 0.01440528
#
# Stress axis : x y z
#
# Youngs Moduli (GPa) = 28.35649 56.07390 114.60961
#
# Poissons Ratio (x) = 1.06951 0.52073
# Poissons Ratio (y) = 0.54085 0.01062
# Poissons Ratio (z) = 0.12884 0.00520
#
# Static dielectric constant tensor:
#      x y z
#    x 1.869330 0.000000 0.000000 
#    y 0.000000 1.821750 0.000000 
#    z 0.000000 0.000000 1.920790 
# 
# From -- ./inp_files/15019.got.cif
#   From: 2010.05.17/outbox.cif.g08.bks.cpg/sg70_8_cif.got.tgz:15019.got - 2010.06.03 15:57:51.
