data_PCOD9516732
_publ_section_title
;
Structure prediction by ZEFSAII (Michael W. Deem and Ramdas Pophale) SiO2 
 PCOD9516732
Probable space group: F D D D
;
_chemical_formula_sum "Si O2"
_cell_formula_units_Z 128
_cell_length_a 22.869832
_cell_length_b 19.118713
_cell_length_c 12.684835
_cell_angle_alpha 90.000000
_cell_angle_beta 90.000000
_cell_angle_gamma 90.000000
_cell_volume 5546.339509
_symmetry_space_group_name_H-M "F D D D"
_symmetry_group_IT_number 70
_space_group.IT_coordinate_system_code '2'
_symmetry_cell_setting 'orthorhombic'
loop_
_space_group_symop_operation_xyz
x,y,z
1/4-x,1/4-y,z
x,1/4-y,1/4-z
1/4-x,y,1/4-z
-x,-y,-z
3/4+x,3/4+y,-z
-x,3/4+y,3/4+z
3/4+x,-y,3/4+z
x,1/2+y,1/2+z
1/4-x,3/4-y,1/2+z
x,3/4-y,3/4-z
1/4-x,1/2+y,3/4-z
-x,1/2-y,1/2-z
3/4+x,1/4+y,1/2-z
-x,1/4+y,1/4+z
3/4+x,1/2-y,1/4+z
1/2+x,y,1/2+z
3/4-x,1/4-y,1/2+z
1/2+x,1/4-y,3/4-z
3/4-x,y,3/4-z
1/2-x,-y,1/2-z
1/4+x,3/4+y,1/2-z
1/2-x,3/4+y,1/4+z
1/4+x,-y,1/4+z
1/2+x,1/2+y,z
3/4-x,3/4-y,z
1/2+x,3/4-y,1/4-z
3/4-x,1/2+y,1/4-z
1/2-x,1/2-y,-z
1/4+x,1/4+y,-z
1/2-x,1/4+y,3/4+z
1/4+x,1/2-y,3/4+z
loop_
_atom_site_type_symbol
_atom_site_label
_atom_site_fract_x
_atom_site_fract_y
_atom_site_fract_z
Si Si1 0.960159 0.875000 0.875000
Si Si2 0.273613 0.165021 0.916227
Si Si3 0.941889 0.519070 0.941428
Si Si4 0.375000 0.986287 0.375000
Si Si5 0.412413 0.446468 0.230284
O O1 0.918599 0.817556 0.931889
O O2 0.998430 0.846868 0.781326
O O3 0.298834 0.095045 0.860429
O O4 0.328782 0.215493 0.931821
O O5 0.218913 0.193670 0.845699
O O6 0.886816 0.508430 0.020640
O O7 0.935791 0.461816 0.848010
O O8 0.000000 0.500000 0.000000
O O9 0.375000 0.375000 0.217983
#
# Coordination Sequence:
#
# PCOD9516732 Si02
#       5
#    16  32  32  16  32
#     4  11  28  52  74 108 152 202 249 310 380 459
#     4  12  26  49  76 109 151 198 249 309 379 455
#     4  11  23  41  72 109 144 191 244 306 375 446
#     4  11  26  46  74 104 145 198 254 300 377 452
#     4  11  24  43  71 106 146 186 242 308 372 434
#
# _framework density 23.078285999999999
#
# number of rings (size 3 to 8) (size 9 to 14) (size 15 to 20)
#    0.000    0.750    2.500    5.250    3.500    2.000 
#    0.000    5.000    0.000    0.000    0.000    0.000 
#    0.000    0.000    0.000    0.000    0.000    0.000 
#
# Total GULP energy -178563.867870 kJ/mol
# GULP energy per Si atom -5580.120871 kJ/mol
# Density = 2.302576 g / cm^3
# Si number density = 23.078286 Si / 1000 Ang^3
#
#
#
# Elastic Constant Matrix: (Units=GPa)
#
#
# Indices 1 2 3 4 5 6 
#
# 1 215.3007 74.9932 83.0945 0.0000 0.0000 0.0000
# 2 74.9932 124.0940 36.3436 0.0000 0.0000 0.0000
# 3 83.0945 36.3436 90.1382 0.0000 0.0000 0.0000
# 4 0.0000 0.0000 0.0000 20.5248 0.0000 0.0000
# 5 0.0000 0.0000 0.0000 0.0000 13.6546 0.0000
# 6 0.0000 0.0000 0.0000 0.0000 0.0000 49.2907
#
#
#
# Elastic Compliance Matrix: (Units=1/GPa)
#
#
# Indices 1 2 3 4 5 6 
#
# 1 0.008132 -0.003083 -0.006254 0.000000 0.000000 0.000000
# 2 -0.003083 0.010306 -0.001313 0.000000 0.000000 0.000000
# 3 -0.006254 -0.001313 0.017389 0.000000 0.000000 0.000000
# 4 0.000000 0.000000 0.000000 0.048722 0.000000 0.000000
# 5 0.000000 0.000000 0.000000 0.000000 0.073235 0.000000
# 6 0.000000 0.000000 0.000000 0.000000 0.000000 0.020288
#
#
# Mechanical properties :
#
#
# Convention : Reuss Voigt Hill
#
# Bulk Modulus (GPa) = 68.83760 90.93283 79.88522
# Shear Modulus (GPa) = 24.48419 32.36746 28.42583
#
# Velocity S-wave (km/s) = 3.26071 3.74907 3.51338
# Velocity P-wave (km/s) = 6.63844 7.63074 7.15182
#
# Compressibility (1/GPa) = 0.01452694
#
# Stress axis : x y z
#
# Youngs Moduli (GPa) = 122.97051 97.02934 57.50924
#
# Poissons Ratio (x) = 0.29913 0.35964
# Poissons Ratio (y) = 0.37911 0.07553
# Poissons Ratio (z) = 0.76900 0.12744
#
# Static dielectric constant tensor:
#      x y z
#    x 1.888200 0.000000 0.000000 
#    y 0.000000 1.972340 0.000000 
#    z 0.000000 0.000000 1.830000 
# 
# From -- ./inp_files/45767.got.cif
#   From: 2010.05.17/outbox.cif.g08.bks.cpg/sg70_23_cif.got.tgz:45767.got - 2010.06.03 15:57:51.
