data_PCOD9516897
_publ_section_title
;
Structure prediction by ZEFSAII (Michael W. Deem and Ramdas Pophale) SiO2 
 PCOD9516897
Probable space group: F D D D
;
_chemical_formula_sum "Si O2"
_cell_formula_units_Z 184
_cell_length_a 17.500995
_cell_length_b 22.097806
_cell_length_c 22.277839
_cell_angle_alpha 90.000000
_cell_angle_beta 90.000000
_cell_angle_gamma 90.000000
_cell_volume 8615.588706
_symmetry_space_group_name_H-M "F D D D"
_symmetry_group_IT_number 70
_space_group.IT_coordinate_system_code '2'
_symmetry_cell_setting 'orthorhombic'
loop_
_space_group_symop_operation_xyz
x,y,z
1/4-x,1/4-y,z
x,1/4-y,1/4-z
1/4-x,y,1/4-z
-x,-y,-z
3/4+x,3/4+y,-z
-x,3/4+y,3/4+z
3/4+x,-y,3/4+z
x,1/2+y,1/2+z
1/4-x,3/4-y,1/2+z
x,3/4-y,3/4-z
1/4-x,1/2+y,3/4-z
-x,1/2-y,1/2-z
3/4+x,1/4+y,1/2-z
-x,1/4+y,1/4+z
3/4+x,1/2-y,1/4+z
1/2+x,y,1/2+z
3/4-x,1/4-y,1/2+z
1/2+x,1/4-y,3/4-z
3/4-x,y,3/4-z
1/2-x,-y,1/2-z
1/4+x,3/4+y,1/2-z
1/2-x,3/4+y,1/4+z
1/4+x,-y,1/4+z
1/2+x,1/2+y,z
3/4-x,3/4-y,z
1/2+x,3/4-y,1/4-z
3/4-x,1/2+y,1/4-z
1/2-x,1/2-y,-z
1/4+x,1/4+y,-z
1/2-x,1/4+y,3/4+z
1/4+x,1/2-y,3/4+z
loop_
_atom_site_type_symbol
_atom_site_label
_atom_site_fract_x
_atom_site_fract_y
_atom_site_fract_z
Si Si1 0.454943 0.434339 0.765223
Si Si2 0.608698 0.471569 0.330446
Si Si3 0.045395 0.722385 0.933510
Si Si4 0.875000 0.875000 0.270065
Si Si5 0.375000 0.375000 0.875000
Si Si6 0.488226 0.375000 0.375000
Si Si7 0.625000 0.442388 0.125000
Si Si8 0.718369 0.318369 0.507285
O O1 0.413530 0.483108 0.723639
O O2 0.535454 0.466318 0.778026
O O3 0.418073 0.419303 0.829614
O O4 0.466292 0.368288 0.737268
O O5 0.645961 0.512904 0.380954
O O6 0.538935 0.431209 0.352646
O O7 0.672025 0.425253 0.304613
O O8 0.960612 0.711357 0.904484
O O9 0.079638 0.671156 0.976721
O O10 0.811998 0.898014 0.318312
O O11 0.588156 0.420816 0.062458
O O12 0.750000 0.250000 0.500000
#
# Coordination Sequence:
#
# PCOD9516897 Si02
#       8
#    32  32  32  16   8  16  16  32
#     4  12  26  45  69 112 144 206 248 304 391 466
#     4  12  25  46  75 107 152 197 261 313 388 457
#     4  12  26  45  74 108 145 200 254 313 384 461
#     4  11  26  49  80 105 150 199 260 320 382 441
#     4  12  26  40  72 104 160 188 252 310 392 460
#     4  11  24  53  78 106 150 200 256 331 372 449
#     4  12  25  46  69 106 154 191 244 323 382 452
#     4  12  25  44  70 105 150 197 243 315 380 467
#
# _framework density 21.356636999999999
#
# number of rings (size 3 to 8) (size 9 to 14) (size 15 to 20)
#    0.000    0.174    5.217    3.652    2.435    0.696 
#    3.130    0.000    0.000    0.000    0.000    0.000 
#    0.000    0.000    0.000    0.000    0.000    0.000 
#
# Total GULP energy -256187.313538 kJ/mol
# GULP energy per Si atom -5569.289425 kJ/mol
# Density = 2.130803 g / cm^3
# Si number density = 21.356637 Si / 1000 Ang^3
#
#
#
# Elastic Constant Matrix: (Units=GPa)
#
#
# Indices 1 2 3 4 5 6 
#
# 1 107.5470 52.7651 49.3636 0.0000 0.0000 0.0000
# 2 52.7651 116.3631 42.8090 0.0000 0.0000 0.0000
# 3 49.3636 42.8090 117.8786 0.0000 0.0000 0.0000
# 4 0.0000 0.0000 0.0000 34.4424 0.0000 0.0000
# 5 0.0000 0.0000 0.0000 0.0000 46.9785 0.0000
# 6 0.0000 0.0000 0.0000 0.0000 0.0000 30.4370
#
#
#
# Elastic Compliance Matrix: (Units=1/GPa)
#
#
# Indices 1 2 3 4 5 6 
#
# 1 0.013362 -0.004618 -0.003919 0.000000 0.000000 0.000000
# 2 -0.004618 0.011515 -0.002248 0.000000 0.000000 0.000000
# 3 -0.003919 -0.002248 0.010941 0.000000 0.000000 0.000000
# 4 0.000000 0.000000 0.000000 0.029034 0.000000 0.000000
# 5 0.000000 0.000000 0.000000 0.000000 0.021286 0.000000
# 6 0.000000 0.000000 0.000000 0.000000 0.000000 0.032855
#
#
# Mechanical properties :
#
#
# Convention : Reuss Voigt Hill
#
# Bulk Modulus (GPa) = 70.17979 70.18490 70.18235
# Shear Modulus (GPa) = 34.40886 35.49498 34.95192
#
# Velocity S-wave (km/s) = 4.01827 4.08120 4.04986
# Velocity P-wave (km/s) = 7.37976 7.42583 7.40283
#
# Compressibility (1/GPa) = 0.01424912
#
# Stress axis : x y z
#
# Youngs Moduli (GPa) = 74.83656 86.84598 91.40117
#
# Poissons Ratio (x) = 0.40101 0.35819
# Poissons Ratio (y) = 0.34556 0.20547
# Poissons Ratio (z) = 0.29327 0.19523
#
# Static dielectric constant tensor:
#      x y z
#    x 1.854590 0.000000 0.000000 
#    y 0.000000 1.812200 0.000000 
#    z 0.000000 0.000000 1.834950 
# 
# From -- ./inp_files/52304.got.cif
#   From: 2010.05.17/outbox.cif.g08.bks.cpg/sg70_27_cif.got.tgz:52304.got - 2010.06.03 15:57:51.
