data_PCOD9516652
_publ_section_title
;
Structure prediction by ZEFSAII (Michael W. Deem and Ramdas Pophale) SiO2 
 PCOD9516652
Probable space group: F D D D
;
_chemical_formula_sum "Si O2"
_cell_formula_units_Z 128
_cell_length_a 9.419348
_cell_length_b 25.273544
_cell_length_c 24.757089
_cell_angle_alpha 90.000000
_cell_angle_beta 90.000000
_cell_angle_gamma 90.000000
_cell_volume 5893.680186
_symmetry_space_group_name_H-M "F D D D"
_symmetry_group_IT_number 70
_space_group.IT_coordinate_system_code '2'
_symmetry_cell_setting 'orthorhombic'
loop_
_space_group_symop_operation_xyz
x,y,z
1/4-x,1/4-y,z
x,1/4-y,1/4-z
1/4-x,y,1/4-z
-x,-y,-z
3/4+x,3/4+y,-z
-x,3/4+y,3/4+z
3/4+x,-y,3/4+z
x,1/2+y,1/2+z
1/4-x,3/4-y,1/2+z
x,3/4-y,3/4-z
1/4-x,1/2+y,3/4-z
-x,1/2-y,1/2-z
3/4+x,1/4+y,1/2-z
-x,1/4+y,1/4+z
3/4+x,1/2-y,1/4+z
1/2+x,y,1/2+z
3/4-x,1/4-y,1/2+z
1/2+x,1/4-y,3/4-z
3/4-x,y,3/4-z
1/2-x,-y,1/2-z
1/4+x,3/4+y,1/2-z
1/2-x,3/4+y,1/4+z
1/4+x,-y,1/4+z
1/2+x,1/2+y,z
3/4-x,3/4-y,z
1/2+x,3/4-y,1/4-z
3/4-x,1/2+y,1/4-z
1/2-x,1/2-y,-z
1/4+x,1/4+y,-z
1/2-x,1/4+y,3/4+z
1/4+x,1/2-y,3/4+z
loop_
_atom_site_type_symbol
_atom_site_label
_atom_site_fract_x
_atom_site_fract_y
_atom_site_fract_z
Si Si1 0.269678 0.033694 0.803262
Si Si2 0.125000 0.625000 0.766387
Si Si3 0.608223 0.345856 0.816785
Si Si4 0.875000 0.375000 0.753516
Si Si5 0.900622 0.271240 0.584374
O O1 0.227198 0.092057 0.785227
O O2 0.159566 0.020305 0.850745
O O3 0.431478 0.024700 0.820062
O O4 0.250000 0.000000 0.750000
O O5 0.257182 0.626911 0.724841
O O6 0.153464 0.574101 0.804629
O O7 0.603277 0.375000 0.875000
O O8 0.767922 0.345242 0.793517
O O9 0.572552 0.283201 0.818614
#
# Coordination Sequence:
#
# PCOD9516652 Si02
#       5
#    32  16  32  16  32
#     4  11  22  42  69 104 137 178 235 295 352 416
#     4  12  26  50  64 102 150 189 235 286 366 434
#     4  12  26  43  72 104 140 187 235 296 357 421
#     4  12  22  42  70  98 136 176 238 294 352 416
#     4  11  25  43  70 102 141 186 236 290 354 428
#
# _framework density 21.718178999999999
#
# number of rings (size 3 to 8) (size 9 to 14) (size 15 to 20)
#    0.000    0.500    5.000    3.750    3.500    0.000 
#    0.000    0.000    0.000    0.000    0.000    0.000 
#    0.000    0.000    0.000    0.000    0.000    0.000 
#
# Total GULP energy -178506.333569 kJ/mol
# GULP energy per Si atom -5578.322924 kJ/mol
# Density = 2.166875 g / cm^3
# Si number density = 21.718179 Si / 1000 Ang^3
#
#
#
# Elastic Constant Matrix: (Units=GPa)
#
#
# Indices 1 2 3 4 5 6 
#
# 1 42.1592 -8.2697 3.7950 0.0000 0.0000 0.0000
# 2 -8.2697 104.5273 20.0352 0.0000 0.0000 0.0000
# 3 3.7950 20.0352 116.4294 0.0000 0.0000 0.0000
# 4 0.0000 0.0000 0.0000 33.8100 0.0000 0.0000
# 5 0.0000 0.0000 0.0000 0.0000 17.8762 0.0000
# 6 0.0000 0.0000 0.0000 0.0000 0.0000 27.3770
#
#
#
# Elastic Compliance Matrix: (Units=1/GPa)
#
#
# Indices 1 2 3 4 5 6 
#
# 1 0.024244 0.002140 -0.001158 0.000000 0.000000 0.000000
# 2 0.002140 0.010082 -0.001805 0.000000 0.000000 0.000000
# 3 -0.001158 -0.001805 0.008937 0.000000 0.000000 0.000000
# 4 0.000000 0.000000 0.000000 0.029577 0.000000 0.000000
# 5 0.000000 0.000000 0.000000 0.000000 0.055940 0.000000
# 6 0.000000 0.000000 0.000000 0.000000 0.000000 0.036527
#
#
# Mechanical properties :
#
#
# Convention : Reuss Voigt Hill
#
# Bulk Modulus (GPa) = 24.02874 32.69300 28.36087
# Shear Modulus (GPa) = 27.65093 32.31632 29.98362
#
# Velocity S-wave (km/s) = 3.57202 3.86163 3.71964
# Velocity P-wave (km/s) = 5.30098 5.91345 5.61557
#
# Compressibility (1/GPa) = 0.04161684
#
# Stress axis : x y z
#
# Youngs Moduli (GPa) = 41.24783 99.18561 111.89174
#
# Poissons Ratio (x) = -0.21227 0.12963
# Poissons Ratio (y) = -0.08827 0.20193
# Poissons Ratio (z) = 0.04779 0.17900
#
# Static dielectric constant tensor:
#      x y z
#    x 1.757570 0.000000 0.000000 
#    y 0.000000 1.703530 0.000000 
#    z 0.000000 0.000000 1.849000 
# 
# From -- ./inp_files/49948.got.cif
#   From: 2010.05.17/outbox.cif.g08.bks.cpg/sg70_25_cif.got.tgz:49948.got - 2010.06.03 15:57:51.
