data_PCOD9516816
_publ_section_title
;
Structure prediction by ZEFSAII (Michael W. Deem and Ramdas Pophale) SiO2 
 PCOD9516816
Probable space group: F D D D
;
_chemical_formula_sum "Si O2"
_cell_formula_units_Z 128
_cell_length_a 16.715754
_cell_length_b 23.042289
_cell_length_c 15.059076
_cell_angle_alpha 90.000000
_cell_angle_beta 90.000000
_cell_angle_gamma 90.000000
_cell_volume 5800.292776
_symmetry_space_group_name_H-M "F D D D"
_symmetry_group_IT_number 70
_space_group.IT_coordinate_system_code '2'
_symmetry_cell_setting 'orthorhombic'
loop_
_space_group_symop_operation_xyz
x,y,z
1/4-x,1/4-y,z
x,1/4-y,1/4-z
1/4-x,y,1/4-z
-x,-y,-z
3/4+x,3/4+y,-z
-x,3/4+y,3/4+z
3/4+x,-y,3/4+z
x,1/2+y,1/2+z
1/4-x,3/4-y,1/2+z
x,3/4-y,3/4-z
1/4-x,1/2+y,3/4-z
-x,1/2-y,1/2-z
3/4+x,1/4+y,1/2-z
-x,1/4+y,1/4+z
3/4+x,1/2-y,1/4+z
1/2+x,y,1/2+z
3/4-x,1/4-y,1/2+z
1/2+x,1/4-y,3/4-z
3/4-x,y,3/4-z
1/2-x,-y,1/2-z
1/4+x,3/4+y,1/2-z
1/2-x,3/4+y,1/4+z
1/4+x,-y,1/4+z
1/2+x,1/2+y,z
3/4-x,3/4-y,z
1/2+x,3/4-y,1/4-z
3/4-x,1/2+y,1/4-z
1/2-x,1/2-y,-z
1/4+x,1/4+y,-z
1/2-x,1/4+y,3/4+z
1/4+x,1/2-y,3/4+z
loop_
_atom_site_type_symbol
_atom_site_label
_atom_site_fract_x
_atom_site_fract_y
_atom_site_fract_z
Si Si1 0.375000 0.375000 0.019348
Si Si2 0.375000 0.973254 0.375000
Si Si3 0.494206 0.572115 0.851853
Si Si4 0.881312 0.773792 0.270363
Si Si5 0.955477 0.592469 0.031754
O O1 0.450878 0.393127 0.078952
O O2 0.392449 0.319415 0.957297
O O3 0.449118 0.016570 0.391179
O O4 0.552983 0.549996 0.773366
O O5 0.434861 0.614458 0.798317
O O6 0.875000 0.761815 0.375000
O O7 0.901737 0.714648 0.219752
O O8 0.955187 0.818302 0.262395
O O9 0.952222 0.625000 0.125000
#
# Coordination Sequence:
#
# PCOD9516816 Si02
#       5
#    16  16  32  32  32
#     4  11  26  52  65 100 140 190 229 298 354 417
#     4  11  30  46  72 100 138 186 247 282 362 430
#     4  12  25  45  74  98 143 186 233 292 350 425
#     4  11  24  42  69 106 142 183 227 292 351 414
#     4  11  24  41  69 107 140 179 233 286 354 413
#
# _framework density 22.067851999999998
#
# number of rings (size 3 to 8) (size 9 to 14) (size 15 to 20)
#    0.000    0.750    5.000    0.750    8.750    0.000 
#    4.500    0.000    0.000    0.000    0.000    0.000 
#    0.000    0.000    0.000    0.000    0.000    0.000 
#
# Total GULP energy -179096.026221 kJ/mol
# GULP energy per Si atom -5596.750819 kJ/mol
# Density = 2.201762 g / cm^3
# Si number density = 22.067852 Si / 1000 Ang^3
#
#
#
# Elastic Constant Matrix: (Units=GPa)
#
#
# Indices 1 2 3 4 5 6 
#
# 1 34.7344 38.5886 32.3543 0.0000 0.0000 0.0000
# 2 38.5886 170.9627 78.9874 0.0000 0.0000 0.0000
# 3 32.3543 78.9874 130.5893 0.0000 0.0000 0.0000
# 4 0.0000 0.0000 0.0000 44.2982 0.0000 0.0000
# 5 0.0000 0.0000 0.0000 0.0000 25.6819 0.0000
# 6 0.0000 0.0000 0.0000 0.0000 0.0000 30.2595
#
#
#
# Elastic Compliance Matrix: (Units=1/GPa)
#
#
# Indices 1 2 3 4 5 6 
#
# 1 0.042049 -0.006492 -0.006491 0.000000 0.000000 0.000000
# 2 -0.006492 0.009120 -0.003908 0.000000 0.000000 0.000000
# 3 -0.006491 -0.003908 0.011629 0.000000 0.000000 0.000000
# 4 0.000000 0.000000 0.000000 0.022574 0.000000 0.000000
# 5 0.000000 0.000000 0.000000 0.000000 0.038938 0.000000
# 6 0.000000 0.000000 0.000000 0.000000 0.000000 0.033047
#
#
# Mechanical properties :
#
#
# Convention : Reuss Voigt Hill
#
# Bulk Modulus (GPa) = 34.46345 70.68297 52.57321
# Shear Modulus (GPa) = 24.89895 32.47167 28.68531
#
# Velocity S-wave (km/s) = 3.36265 3.84011 3.60928
# Velocity P-wave (km/s) = 5.54324 7.19453 6.42218
#
# Compressibility (1/GPa) = 0.02901625
#
# Stress axis : x y z
#
# Youngs Moduli (GPa) = 23.78203 109.64851 85.98823
#
# Poissons Ratio (x) = 0.71183 0.55816
# Poissons Ratio (y) = 0.15439 0.33603
# Poissons Ratio (z) = 0.15437 0.42849
#
# Static dielectric constant tensor:
#      x y z
#    x 1.825340 0.000000 0.000000 
#    y 0.000000 1.789750 0.000000 
#    z 0.000000 0.000000 1.806090 
# 
# From -- ./inp_files/27303.got.cif
#   From: 2010.05.17/outbox.cif.g08.bks.cpg/sg70_14_cif.got.tgz:27303.got - 2010.06.03 15:57:51.
