data_PCOD9516066
_publ_section_title
;
Structure prediction by ZEFSAII (Michael W. Deem and Ramdas Pophale) SiO2 
 PCOD9516066
Probable space group: F D D D
;
_chemical_formula_sum "Si O2"
_cell_formula_units_Z 208
_cell_length_a 27.487669
_cell_length_b 16.574898
_cell_length_c 20.593600
_cell_angle_alpha 90.000000
_cell_angle_beta 90.000000
_cell_angle_gamma 90.000000
_cell_volume 9382.553511
_symmetry_space_group_name_H-M "F D D D"
_symmetry_group_IT_number 70
_space_group.IT_coordinate_system_code '2'
_symmetry_cell_setting 'orthorhombic'
loop_
_space_group_symop_operation_xyz
x,y,z
1/4-x,1/4-y,z
x,1/4-y,1/4-z
1/4-x,y,1/4-z
-x,-y,-z
3/4+x,3/4+y,-z
-x,3/4+y,3/4+z
3/4+x,-y,3/4+z
x,1/2+y,1/2+z
1/4-x,3/4-y,1/2+z
x,3/4-y,3/4-z
1/4-x,1/2+y,3/4-z
-x,1/2-y,1/2-z
3/4+x,1/4+y,1/2-z
-x,1/4+y,1/4+z
3/4+x,1/2-y,1/4+z
1/2+x,y,1/2+z
3/4-x,1/4-y,1/2+z
1/2+x,1/4-y,3/4-z
3/4-x,y,3/4-z
1/2-x,-y,1/2-z
1/4+x,3/4+y,1/2-z
1/2-x,3/4+y,1/4+z
1/4+x,-y,1/4+z
1/2+x,1/2+y,z
3/4-x,3/4-y,z
1/2+x,3/4-y,1/4-z
3/4-x,1/2+y,1/4-z
1/2-x,1/2-y,-z
1/4+x,1/4+y,-z
1/2-x,1/4+y,3/4+z
1/4+x,1/2-y,3/4+z
loop_
_atom_site_type_symbol
_atom_site_label
_atom_site_fract_x
_atom_site_fract_y
_atom_site_fract_z
Si Si1 0.505272 0.074198 0.350183
Si Si2 0.595979 0.466464 0.901473
Si Si3 0.499915 0.125000 0.125000
Si Si4 0.028968 0.754235 0.023676
Si Si5 0.880890 0.470572 0.947653
Si Si6 0.459303 0.188701 0.775251
Si Si7 0.691091 0.509854 0.820193
O O1 0.496842 0.040164 0.278961
O O2 0.459289 0.057665 0.396559
O O3 0.524939 0.165573 0.342193
O O4 0.550933 0.021904 0.377750
O O5 0.591538 0.375000 0.875000
O O6 0.645372 0.504254 0.870910
O O7 0.587320 0.455267 0.979605
O O8 0.526970 0.197154 0.087481
O O9 0.466869 0.174270 0.174150
O O10 0.086434 0.752355 0.009335
O O11 0.018446 0.848383 0.019859
O O12 0.875000 0.506199 0.875000
O O13 0.875000 0.375000 0.941851
O O14 0.926640 0.480830 0.994672
O O15 0.500000 0.250000 0.750000
#
# Coordination Sequence:
#
# PCOD9516066 Si02
#       7
#    32  32  16  32  32  32  32
#     4  11  22  39  66  93 129 170 223 272 339 392
#     4  11  19  37  66  93 123 164 223 273 324 388
#     4  12  28  38  63  98 140 174 214 278 335 404
#     4  12  23  43  62  96 139 173 220 273 336 402
#     4  11  22  39  65  95 130 175 221 265 330 409
#     4  10  23  39  64  97 124 170 221 280 325 393
#     4  12  22  41  63  97 130 177 222 276 333 406
#
# _framework density 22.168804999999999
#
# number of rings (size 3 to 8) (size 9 to 14) (size 15 to 20)
#    0.000    0.769    6.923    1.385    0.000    1.846 
#    0.000    0.000    0.000    0.000    0.000    0.000 
#    0.000    0.000    0.000    0.000    0.000    0.000 
#
# Total GULP energy -289826.742791 kJ/mol
# GULP energy per Si atom -5573.591208 kJ/mol
# Density = 2.211835 g / cm^3
# Si number density = 22.168805 Si / 1000 Ang^3
#
#
#
# Elastic Constant Matrix: (Units=GPa)
#
#
# Indices 1 2 3 4 5 6 
#
# 1 31.2412 4.5225 21.7879 0.0000 0.0000 0.0000
# 2 4.5225 131.1130 11.8184 0.0000 0.0000 0.0000
# 3 21.7879 11.8184 132.2396 0.0000 0.0000 0.0000
# 4 0.0000 0.0000 0.0000 23.2410 0.0000 0.0000
# 5 0.0000 0.0000 0.0000 0.0000 39.6770 0.0000
# 6 0.0000 0.0000 0.0000 0.0000 0.0000 22.0185
#
#
#
# Elastic Compliance Matrix: (Units=1/GPa)
#
#
# Indices 1 2 3 4 5 6 
#
# 1 0.036231 -0.000717 -0.005905 0.000000 0.000000 0.000000
# 2 -0.000717 0.007703 -0.000570 0.000000 0.000000 0.000000
# 3 -0.005905 -0.000570 0.008586 0.000000 0.000000 0.000000
# 4 0.000000 0.000000 0.000000 0.043027 0.000000 0.000000
# 5 0.000000 0.000000 0.000000 0.000000 0.025204 0.000000
# 6 0.000000 0.000000 0.000000 0.000000 0.000000 0.045416
#
#
# Mechanical properties :
#
#
# Convention : Reuss Voigt Hill
#
# Bulk Modulus (GPa) = 26.22304 41.20568 33.71436
# Shear Modulus (GPa) = 25.87117 34.08497 29.97807
#
# Velocity S-wave (km/s) = 3.41986 3.92538 3.68130
# Velocity P-wave (km/s) = 5.23912 6.25878 5.77151
#
# Compressibility (1/GPa) = 0.03813441
#
# Stress axis : x y z
#
# Youngs Moduli (GPa) = 27.60041 129.81695 116.46916
#
# Poissons Ratio (x) = 0.09313 0.68779
# Poissons Ratio (y) = 0.01980 0.06641
# Poissons Ratio (z) = 0.16299 0.07403
#
# Static dielectric constant tensor:
#      x y z
#    x 1.918740 0.000000 0.000000 
#    y 0.000000 1.797960 0.000000 
#    z 0.000000 0.000000 1.947970 
# 
# From -- ./inp_files/46965.got.cif
#   From: 2010.05.17/outbox.cif.g08.bks.cpg/sg70_24_cif.got.tgz:46965.got - 2010.06.03 15:57:51.
