data_PCOD9516449
_publ_section_title
;
Structure prediction by ZEFSAII (Michael W. Deem and Ramdas Pophale) SiO2 
 PCOD9516449
Probable space group: F D D D
;
_chemical_formula_sum "Si O2"
_cell_formula_units_Z 112
_cell_length_a 25.110449
_cell_length_b 9.764511
_cell_length_c 15.563137
_cell_angle_alpha 90.000000
_cell_angle_beta 90.000000
_cell_angle_gamma 90.000000
_cell_volume 3815.945100
_symmetry_space_group_name_H-M "F D D D"
_symmetry_group_IT_number 70
_space_group.IT_coordinate_system_code '2'
_symmetry_cell_setting 'orthorhombic'
loop_
_space_group_symop_operation_xyz
x,y,z
1/4-x,1/4-y,z
x,1/4-y,1/4-z
1/4-x,y,1/4-z
-x,-y,-z
3/4+x,3/4+y,-z
-x,3/4+y,3/4+z
3/4+x,-y,3/4+z
x,1/2+y,1/2+z
1/4-x,3/4-y,1/2+z
x,3/4-y,3/4-z
1/4-x,1/2+y,3/4-z
-x,1/2-y,1/2-z
3/4+x,1/4+y,1/2-z
-x,1/4+y,1/4+z
3/4+x,1/2-y,1/4+z
1/2+x,y,1/2+z
3/4-x,1/4-y,1/2+z
1/2+x,1/4-y,3/4-z
3/4-x,y,3/4-z
1/2-x,-y,1/2-z
1/4+x,3/4+y,1/2-z
1/2-x,3/4+y,1/4+z
1/4+x,-y,1/4+z
1/2+x,1/2+y,z
3/4-x,3/4-y,z
1/2+x,3/4-y,1/4-z
3/4-x,1/2+y,1/4-z
1/2-x,1/2-y,-z
1/4+x,1/4+y,-z
1/2-x,1/4+y,3/4+z
1/4+x,1/2-y,3/4+z
loop_
_atom_site_type_symbol
_atom_site_label
_atom_site_fract_x
_atom_site_fract_y
_atom_site_fract_z
Si Si1 0.341313 0.737597 0.511184
Si Si2 0.974480 0.375000 0.875000
Si Si3 0.506593 0.787145 0.122312
Si Si4 0.811776 0.202371 0.019671
O O1 0.375000 0.875000 0.485659
O O2 0.302076 0.665621 0.440925
O O3 0.302837 0.782658 0.588273
O O4 0.382723 0.618092 0.534552
O O5 0.936706 0.328619 0.796713
O O6 0.022344 0.264030 0.850302
O O7 0.518541 0.625000 0.125000
O O8 0.527957 0.832649 0.028822
#
# Coordination Sequence:
#
# PCOD9516449 Si02
#       4
#    32  16  32  32
#     4  11  23  42  70 105 143 189 245 309 375 432
#     4  10  26  46  73 106 156 192 243 306 372 470
#     4  11  24  42  71 106 139 182 249 310 353 443
#     4  11  23  47  74 106 150 197 244 305 379 448
#
# _framework density 29.350525999999999
#
# number of rings (size 3 to 8) (size 9 to 14) (size 15 to 20)
#    0.000    1.143    2.857    2.571    6.000    0.000 
#    0.000    2.857    0.000    0.000    0.000    0.000 
#    0.000    0.000    0.000    0.000    0.000    0.000 
#
# Total GULP energy -155955.281850 kJ/mol
# GULP energy per Si atom -5569.831495 kJ/mol
# Density = 2.928372 g / cm^3
# Si number density = 29.350526 Si / 1000 Ang^3
#
#
#
# Elastic Constant Matrix: (Units=GPa)
#
#
# Indices 1 2 3 4 5 6 
#
# 1 268.2225 50.2723 95.6389 0.0000 0.0000 0.0000
# 2 50.2723 53.2295 48.2484 0.0000 0.0000 0.0000
# 3 95.6389 48.2484 191.7652 0.0000 0.0000 0.0000
# 4 0.0000 0.0000 0.0000 67.3295 0.0000 0.0000
# 5 0.0000 0.0000 0.0000 0.0000 167.9025 0.0000
# 6 0.0000 0.0000 0.0000 0.0000 0.0000 119.0678
#
#
#
# Elastic Compliance Matrix: (Units=1/GPa)
#
#
# Indices 1 2 3 4 5 6 
#
# 1 0.004907 -0.003130 -0.001660 0.000000 0.000000 0.000000
# 2 -0.003130 0.026333 -0.005065 0.000000 0.000000 0.000000
# 3 -0.001660 -0.005065 0.007317 0.000000 0.000000 0.000000
# 4 0.000000 0.000000 0.000000 0.014852 0.000000 0.000000
# 5 0.000000 0.000000 0.000000 0.000000 0.005956 0.000000
# 6 0.000000 0.000000 0.000000 0.000000 0.000000 0.008399
#
#
# Mechanical properties :
#
#
# Convention : Reuss Voigt Hill
#
# Bulk Modulus (GPa) = 53.05448 100.17069 76.61258
# Shear Modulus (GPa) = 53.33124 92.13047 72.73085
#
# Velocity S-wave (km/s) = 4.26731 5.60873 4.98336
# Velocity P-wave (km/s) = 6.51116 8.72622 7.69877
#
# Compressibility (1/GPa) = 0.01884855
#
# Stress axis : x y z
#
# Youngs Moduli (GPa) = 203.80683 37.97509 136.67425
#
# Poissons Ratio (x) = 0.11885 0.22683
# Poissons Ratio (y) = 0.63785 0.69220
# Poissons Ratio (z) = 0.33824 0.19233
#
# Static dielectric constant tensor:
#      x y z
#    x 2.234820 0.000000 0.000000 
#    y 0.000000 2.258100 0.000000 
#    z 0.000000 0.000000 3.812260 
# 
# From -- ./inp_files/17290.got.cif
#   From: 2010.05.17/outbox.cif.g08.bks.cpg/sg70_9_cif.got.tgz:17290.got - 2010.06.03 15:57:51.
