data_PCOD9516831
_publ_section_title
;
Structure prediction by ZEFSAII (Michael W. Deem and Ramdas Pophale) SiO2 
 PCOD9516831
Probable space group: F D D D
;
_chemical_formula_sum "Si O2"
_cell_formula_units_Z 192
_cell_length_a 27.047441
_cell_length_b 30.903526
_cell_length_c 11.037120
_cell_angle_alpha 90.000000
_cell_angle_beta 90.000000
_cell_angle_gamma 90.000000
_cell_volume 9225.501429
_symmetry_space_group_name_H-M "F D D D"
_symmetry_group_IT_number 70
_space_group.IT_coordinate_system_code '2'
_symmetry_cell_setting 'orthorhombic'
loop_
_space_group_symop_operation_xyz
x,y,z
1/4-x,1/4-y,z
x,1/4-y,1/4-z
1/4-x,y,1/4-z
-x,-y,-z
3/4+x,3/4+y,-z
-x,3/4+y,3/4+z
3/4+x,-y,3/4+z
x,1/2+y,1/2+z
1/4-x,3/4-y,1/2+z
x,3/4-y,3/4-z
1/4-x,1/2+y,3/4-z
-x,1/2-y,1/2-z
3/4+x,1/4+y,1/2-z
-x,1/4+y,1/4+z
3/4+x,1/2-y,1/4+z
1/2+x,y,1/2+z
3/4-x,1/4-y,1/2+z
1/2+x,1/4-y,3/4-z
3/4-x,y,3/4-z
1/2-x,-y,1/2-z
1/4+x,3/4+y,1/2-z
1/2-x,3/4+y,1/4+z
1/4+x,-y,1/4+z
1/2+x,1/2+y,z
3/4-x,3/4-y,z
1/2+x,3/4-y,1/4-z
3/4-x,1/2+y,1/4-z
1/2-x,1/2-y,-z
1/4+x,1/4+y,-z
1/2-x,1/4+y,3/4+z
1/4+x,1/2-y,3/4+z
loop_
_atom_site_type_symbol
_atom_site_label
_atom_site_fract_x
_atom_site_fract_y
_atom_site_fract_z
Si Si1 0.206763 0.601257 0.511199
Si Si2 0.486051 0.228134 0.438144
Si Si3 0.918962 0.844154 0.544407
Si Si4 0.244308 0.375000 0.375000
Si Si5 0.125000 0.712089 0.625000
Si Si6 0.659839 0.500105 0.371291
Si Si7 0.311821 0.709948 0.056344
O O1 0.230813 0.625000 0.625000
O O2 0.242888 0.570220 0.439119
O O3 0.184157 0.637545 0.425442
O O4 0.164249 0.569255 0.559941
O O5 0.462081 0.237166 0.569038
O O6 0.529796 0.260569 0.399670
O O7 0.447332 0.229632 0.327437
O O8 0.875000 0.875000 0.502042
O O9 0.967656 0.849711 0.463430
O O10 0.899599 0.795754 0.560447
O O11 0.210012 0.338259 0.434506
O O12 0.096980 0.739919 0.728677
O O13 0.618634 0.465393 0.408353
#
# Coordination Sequence:
#
# PCOD9516831 Si02
#       7
#    32  32  32  16  16  32  32
#     4  12  22  42  67  96 138 173 226 285 344 404
#     4  11  24  43  69  98 135 185 224 279 357 412
#     4  12  22  39  68 105 132 174 229 282 345 415
#     4  12  25  42  68 102 140 176 230 291 348 422
#     4  12  23  40  66  98 136 176 224 292 340 410
#     4  12  25  43  69  99 136 182 230 282 350 419
#     4  11  24  44  69 100 141 176 225 293 347 422
#
# _framework density 20.811876999999999
#
# number of rings (size 3 to 8) (size 9 to 14) (size 15 to 20)
#    0.000    0.333    8.333    1.000    2.333    2.000 
#    4.500    0.000    0.000    0.000    0.000    0.000 
#    0.000    0.000    0.000    0.000    0.000    0.000 
#
# Total GULP energy -268206.660266 kJ/mol
# GULP energy per Si atom -5587.638756 kJ/mol
# Density = 2.076451 g / cm^3
# Si number density = 20.811877 Si / 1000 Ang^3
#
#
#
# Elastic Constant Matrix: (Units=GPa)
#
#
# Indices 1 2 3 4 5 6 
#
# 1 45.9496 11.1259 17.8481 0.0001 0.0000 -0.0001
# 2 11.1259 66.7244 4.6919 0.0002 -0.0002 -0.0001
# 3 17.8481 4.6919 91.6080 0.0006 -0.0004 -0.0003
# 4 0.0001 0.0002 0.0006 31.0478 -0.0002 -0.0002
# 5 0.0000 -0.0002 -0.0004 -0.0002 28.0824 0.0001
# 6 -0.0001 -0.0001 -0.0003 -0.0002 0.0001 22.8792
#
#
#
# Elastic Compliance Matrix: (Units=1/GPa)
#
#
# Indices 1 2 3 4 5 6 
#
# 1 0.024448 -0.003755 -0.004571 0.000000 0.000000 0.000000
# 2 -0.003755 0.015618 -0.000068 0.000000 0.000000 0.000000
# 3 -0.004571 -0.000068 0.011810 0.000000 0.000000 0.000000
# 4 0.000000 0.000000 0.000000 0.032208 0.000000 0.000000
# 5 0.000000 0.000000 0.000000 0.000000 0.035610 0.000000
# 6 0.000000 0.000000 0.000000 0.000000 0.000000 0.043708
#
#
# Mechanical properties :
#
#
# Convention : Reuss Voigt Hill
#
# Bulk Modulus (GPa) = 28.50035 30.17931 29.33983
# Shear Modulus (GPa) = 26.05718 27.77628 26.91673
#
# Velocity S-wave (km/s) = 3.54225 3.65723 3.60020
# Velocity P-wave (km/s) = 5.51852 5.68914 5.60448
#
# Compressibility (1/GPa) = 0.03508729
#
# Stress axis : x y z
#
# Youngs Moduli (GPa) = 40.90370 64.02887 84.67319
#
# Poissons Ratio (x) = 0.24043 0.38703
# Poissons Ratio (y) = 0.15360 0.00578
# Poissons Ratio (z) = 0.18696 0.00437
#
# Static dielectric constant tensor:
#      x y z
#    x 1.726410 0.000000 0.000000 
#    y 0.000000 1.730270 0.000000 
#    z 0.000000 0.000000 1.800420 
# 
# From -- ./inp_files/21250.got.cif
#   From: 2010.05.17/outbox.cif.g08.bks.cpg/sg70_11_cif.got.tgz:21250.got - 2010.06.03 15:57:51.
