data_PCOD9516379
_publ_section_title
;
Structure prediction by ZEFSAII (Michael W. Deem and Ramdas Pophale) SiO2 
 PCOD9516379
Probable space group: F D D D
;
_chemical_formula_sum "Si O2"
_cell_formula_units_Z 192
_cell_length_a 29.713574
_cell_length_b 9.874195
_cell_length_c 29.496062
_cell_angle_alpha 90.000000
_cell_angle_beta 90.000000
_cell_angle_gamma 90.000000
_cell_volume 8654.074503
_symmetry_space_group_name_H-M "F D D D"
_symmetry_group_IT_number 70
_space_group.IT_coordinate_system_code '2'
_symmetry_cell_setting 'orthorhombic'
loop_
_space_group_symop_operation_xyz
x,y,z
1/4-x,1/4-y,z
x,1/4-y,1/4-z
1/4-x,y,1/4-z
-x,-y,-z
3/4+x,3/4+y,-z
-x,3/4+y,3/4+z
3/4+x,-y,3/4+z
x,1/2+y,1/2+z
1/4-x,3/4-y,1/2+z
x,3/4-y,3/4-z
1/4-x,1/2+y,3/4-z
-x,1/2-y,1/2-z
3/4+x,1/4+y,1/2-z
-x,1/4+y,1/4+z
3/4+x,1/2-y,1/4+z
1/2+x,y,1/2+z
3/4-x,1/4-y,1/2+z
1/2+x,1/4-y,3/4-z
3/4-x,y,3/4-z
1/2-x,-y,1/2-z
1/4+x,3/4+y,1/2-z
1/2-x,3/4+y,1/4+z
1/4+x,-y,1/4+z
1/2+x,1/2+y,z
3/4-x,3/4-y,z
1/2+x,3/4-y,1/4-z
3/4-x,1/2+y,1/4-z
1/2-x,1/2-y,-z
1/4+x,1/4+y,-z
1/2-x,1/4+y,3/4+z
1/4+x,1/2-y,3/4+z
loop_
_atom_site_type_symbol
_atom_site_label
_atom_site_fract_x
_atom_site_fract_y
_atom_site_fract_z
Si Si1 0.375000 0.375000 0.875000
Si Si2 0.100935 0.429772 0.205042
Si Si3 0.773807 0.889630 0.620116
Si Si4 0.153166 0.761486 0.307812
Si Si5 0.125000 0.125000 0.625000
Si Si6 0.440476 0.064871 0.316810
Si Si7 0.835987 0.125000 0.125000
Si Si8 0.773954 0.466179 0.296252
O O1 0.408128 0.272547 0.900662
O O2 0.085540 0.476431 0.254829
O O3 0.098287 0.528254 0.160973
O O4 0.154488 0.402140 0.210461
O O5 0.071244 0.295669 0.197942
O O6 0.803374 0.988019 0.588549
O O7 0.728278 0.851021 0.592962
O O8 0.804172 0.757255 0.629065
O O9 0.756793 0.974941 0.663270
O O10 0.125000 0.625000 0.312134
O O11 0.119748 0.869780 0.331477
O O12 0.466317 0.943019 0.292919
O O13 0.750000 0.500000 0.250000
#
# Coordination Sequence:
#
# PCOD9516379 Si02
#       8
#     8  32  32  32   8  32  16  32
#     4  12  18  42  60  94 134 180 216 282 358 408
#     4  12  25  46  72 108 143 192 244 303 375 443
#     4  11  24  46  73 102 143 193 235 302 367 437
#     4  10  24  49  70 103 147 191 242 297 371 445
#     4  12  26  42  74 104 142 192 240 302 380 456
#     4  12  23  42  69  98 144 181 236 300 360 430
#     4  10  26  46  74 103 142 197 242 295 370 445
#     4  12  26  41  69 109 144 185 245 302 362 441
#
# _framework density 22.186081000000001
#
# number of rings (size 3 to 8) (size 9 to 14) (size 15 to 20)
#    0.000    0.667    4.167    2.500    7.000    2.667 
#    0.000    1.667    0.000    0.000    0.000    0.000 
#    0.000    0.000    0.000    0.000    0.000    0.000 
#
# Total GULP energy -267990.007162 kJ/mol
# GULP energy per Si atom -5583.125149 kJ/mol
# Density = 2.213558 g / cm^3
# Si number density = 22.186081 Si / 1000 Ang^3
#
#
#
# Elastic Constant Matrix: (Units=GPa)
#
#
# Indices 1 2 3 4 5 6 
#
# 1 128.2786 34.9811 53.0069 0.0000 0.0000 0.0000
# 2 34.9811 73.0634 23.3997 0.0000 0.0000 0.0000
# 3 53.0069 23.3997 139.3809 0.0000 0.0000 0.0000
# 4 0.0000 0.0000 0.0000 29.5381 0.0000 0.0000
# 5 0.0000 0.0000 0.0000 0.0000 38.5289 0.0000
# 6 0.0000 0.0000 0.0000 0.0000 0.0000 46.8132
#
#
#
# Elastic Compliance Matrix: (Units=1/GPa)
#
#
# Indices 1 2 3 4 5 6 
#
# 1 0.010175 -0.003839 -0.003225 0.000000 0.000000 0.000000
# 2 -0.003839 0.015913 -0.001212 0.000000 0.000000 0.000000
# 3 -0.003225 -0.001212 0.008605 0.000000 0.000000 0.000000
# 4 0.000000 0.000000 0.000000 0.033855 0.000000 0.000000
# 5 0.000000 0.000000 0.000000 0.000000 0.025955 0.000000
# 6 0.000000 0.000000 0.000000 0.000000 0.000000 0.021362
#
#
# Mechanical properties :
#
#
# Convention : Reuss Voigt Hill
#
# Bulk Modulus (GPa) = 55.12268 62.61092 58.86680
# Shear Modulus (GPa) = 36.11134 38.26506 37.18820
#
# Velocity S-wave (km/s) = 4.03880 4.15750 4.09858
# Velocity P-wave (km/s) = 6.82999 7.16439 6.99919
#
# Compressibility (1/GPa) = 0.01814135
#
# Stress axis : x y z
#
# Youngs Moduli (GPa) = 98.28007 62.84315 116.21797
#
# Poissons Ratio (x) = 0.24123 0.37482
# Poissons Ratio (y) = 0.37726 0.14081
# Poissons Ratio (z) = 0.31697 0.07614
#
# Static dielectric constant tensor:
#      x y z
#    x 1.833740 0.000000 0.000000 
#    y 0.000000 1.890860 0.000000 
#    z 0.000000 0.000000 1.858940 
# 
# From -- ./inp_files/68438.got.cif
#   From: 2010.05.17/outbox.cif.g08.bks.cpg/sg70_35_cif.got.tgz:68438.got - 2010.06.03 15:57:51.
