data_PCOD9516141
_publ_section_title
;
Structure prediction by ZEFSAII (Michael W. Deem and Ramdas Pophale) SiO2 
 PCOD9516141
Probable space group: F D D D
;
_chemical_formula_sum "Si O2"
_cell_formula_units_Z 216
_cell_length_a 12.791926
_cell_length_b 26.614196
_cell_length_c 28.133177
_cell_angle_alpha 90.000000
_cell_angle_beta 90.000000
_cell_angle_gamma 90.000000
_cell_volume 9577.850809
_symmetry_space_group_name_H-M "F D D D"
_symmetry_group_IT_number 70
_space_group.IT_coordinate_system_code '2'
_symmetry_cell_setting 'orthorhombic'
loop_
_space_group_symop_operation_xyz
x,y,z
1/4-x,1/4-y,z
x,1/4-y,1/4-z
1/4-x,y,1/4-z
-x,-y,-z
3/4+x,3/4+y,-z
-x,3/4+y,3/4+z
3/4+x,-y,3/4+z
x,1/2+y,1/2+z
1/4-x,3/4-y,1/2+z
x,3/4-y,3/4-z
1/4-x,1/2+y,3/4-z
-x,1/2-y,1/2-z
3/4+x,1/4+y,1/2-z
-x,1/4+y,1/4+z
3/4+x,1/2-y,1/4+z
1/2+x,y,1/2+z
3/4-x,1/4-y,1/2+z
1/2+x,1/4-y,3/4-z
3/4-x,y,3/4-z
1/2-x,-y,1/2-z
1/4+x,3/4+y,1/2-z
1/2-x,3/4+y,1/4+z
1/4+x,-y,1/4+z
1/2+x,1/2+y,z
3/4-x,3/4-y,z
1/2+x,3/4-y,1/4-z
3/4-x,1/2+y,1/4-z
1/2-x,1/2-y,-z
1/4+x,1/4+y,-z
1/2-x,1/4+y,3/4+z
1/4+x,1/2-y,3/4+z
loop_
_atom_site_type_symbol
_atom_site_label
_atom_site_fract_x
_atom_site_fract_y
_atom_site_fract_z
Si Si1 0.305653 0.300096 0.480698
Si Si2 0.218805 0.504174 0.087523
Si Si3 0.375000 0.375000 0.875000
Si Si4 0.978371 0.558571 0.371538
Si Si5 0.918108 0.959573 0.812055
Si Si6 0.392610 0.073520 0.097643
Si Si7 0.125000 0.125000 0.441855
Si Si8 0.876671 0.935009 0.706822
O O1 0.250000 0.250000 0.500000
O O2 0.416305 0.284875 0.456328
O O3 0.235648 0.325039 0.440076
O O4 0.311756 0.338788 0.523406
O O5 0.125000 0.497674 0.125000
O O6 0.314141 0.532924 0.114177
O O7 0.267616 0.452622 0.069301
O O8 0.409473 0.331174 0.837224
O O9 0.875000 0.592125 0.375000
O O10 0.936678 0.512116 0.339063
O O11 0.062266 0.587882 0.341427
O O12 0.031006 0.548621 0.422626
O O13 0.882318 0.961922 0.757919
O O14 0.035034 0.937098 0.819807
O O15 0.378394 0.125000 0.125000
O O16 0.875000 0.875000 0.713181
#
# Coordination Sequence:
#
# PCOD9516141 Si02
#       8
#    32  32   8  32  32  32  16  32
#     4  11  24  43  71 109 147 200 252 308 386 461
#     4  10  23  42  72 105 151 194 247 314 377 454
#     4  12  24  50  76 100 150 192 254 328 368 442
#     4  12  28  49  75 106 154 198 253 313 386 450
#     4  12  25  49  73 110 150 200 258 316 376 460
#     4  11  22  40  75 107 147 195 249 315 384 442
#     4  12  26  49  69 106 158 187 247 314 374 462
#     4  12  26  46  73 108 148 195 254 307 382 467
#
# _framework density 22.552030999999999
#
# number of rings (size 3 to 8) (size 9 to 14) (size 15 to 20)
#    0.000    0.593    4.444    3.556    2.074    5.630 
#    0.000    0.000    0.000    0.000    0.000    0.000 
#    0.000    0.000    0.000    0.000    0.000    0.000 
#
# Total GULP energy -301460.588068 kJ/mol
# GULP energy per Si atom -5582.603483 kJ/mol
# Density = 2.250070 g / cm^3
# Si number density = 22.552031 Si / 1000 Ang^3
#
#
#
# Elastic Constant Matrix: (Units=GPa)
#
#
# Indices 1 2 3 4 5 6 
#
# 1 89.1890 24.1758 49.4632 0.0000 0.0000 0.0000
# 2 24.1758 93.0238 52.0631 0.0000 0.0000 0.0000
# 3 49.4632 52.0631 164.4334 0.0000 0.0000 0.0000
# 4 0.0000 0.0000 0.0000 17.4866 0.0000 0.0000
# 5 0.0000 0.0000 0.0000 0.0000 14.4634 0.0000
# 6 0.0000 0.0000 0.0000 0.0000 0.0000 20.2594
#
#
#
# Elastic Compliance Matrix: (Units=1/GPa)
#
#
# Indices 1 2 3 4 5 6 
#
# 1 0.013631 -0.001516 -0.003620 0.000000 0.000000 0.000000
# 2 -0.001516 0.013234 -0.003734 0.000000 0.000000 0.000000
# 3 -0.003620 -0.003734 0.008353 0.000000 0.000000 0.000000
# 4 0.000000 0.000000 0.000000 0.057187 0.000000 0.000000
# 5 0.000000 0.000000 0.000000 0.000000 0.069140 0.000000
# 6 0.000000 0.000000 0.000000 0.000000 0.000000 0.049360
#
#
# Mechanical properties :
#
#
# Convention : Reuss Voigt Hill
#
# Bulk Modulus (GPa) = 57.22010 66.45004 61.83507
# Shear Modulus (GPa) = 21.32464 25.17148 23.24806
#
# Velocity S-wave (km/s) = 3.07836 3.34451 3.21419
# Velocity P-wave (km/s) = 6.16949 6.66660 6.42285
#
# Compressibility (1/GPa) = 0.01747638
#
# Stress axis : x y z
#
# Youngs Moduli (GPa) = 73.36275 75.56392 119.72133
#
# Poissons Ratio (x) = 0.11458 0.43341
# Poissons Ratio (y) = 0.11125 0.44704
# Poissons Ratio (z) = 0.26559 0.28215
#
# Static dielectric constant tensor:
#      x y z
#    x 1.894530 0.000000 0.000000 
#    y 0.000000 1.836260 0.000000 
#    z 0.000000 0.000000 1.823630 
# 
# From -- ./inp_files/58813.got.cif
#   From: 2010.05.17/outbox.cif.g08.bks.cpg/sg70_30_cif.got.tgz:58813.got - 2010.06.03 15:57:51.
