data_PCOD9516639
_publ_section_title
;
Structure prediction by ZEFSAII (Michael W. Deem and Ramdas Pophale) SiO2 
 PCOD9516639
Probable space group: F D D D
;
_chemical_formula_sum "Si O2"
_cell_formula_units_Z 192
_cell_length_a 27.039497
_cell_length_b 15.289841
_cell_length_c 24.706544
_cell_angle_alpha 90.000000
_cell_angle_beta 90.000000
_cell_angle_gamma 90.000000
_cell_volume 10214.416847
_symmetry_space_group_name_H-M "F D D D"
_symmetry_group_IT_number 70
_space_group.IT_coordinate_system_code '2'
_symmetry_cell_setting 'orthorhombic'
loop_
_space_group_symop_operation_xyz
x,y,z
1/4-x,1/4-y,z
x,1/4-y,1/4-z
1/4-x,y,1/4-z
-x,-y,-z
3/4+x,3/4+y,-z
-x,3/4+y,3/4+z
3/4+x,-y,3/4+z
x,1/2+y,1/2+z
1/4-x,3/4-y,1/2+z
x,3/4-y,3/4-z
1/4-x,1/2+y,3/4-z
-x,1/2-y,1/2-z
3/4+x,1/4+y,1/2-z
-x,1/4+y,1/4+z
3/4+x,1/2-y,1/4+z
1/2+x,y,1/2+z
3/4-x,1/4-y,1/2+z
1/2+x,1/4-y,3/4-z
3/4-x,y,3/4-z
1/2-x,-y,1/2-z
1/4+x,3/4+y,1/2-z
1/2-x,3/4+y,1/4+z
1/4+x,-y,1/4+z
1/2+x,1/2+y,z
3/4-x,3/4-y,z
1/2+x,3/4-y,1/4-z
3/4-x,1/2+y,1/4-z
1/2-x,1/2-y,-z
1/4+x,1/4+y,-z
1/2-x,1/4+y,3/4+z
1/4+x,1/2-y,3/4+z
loop_
_atom_site_type_symbol
_atom_site_label
_atom_site_fract_x
_atom_site_fract_y
_atom_site_fract_z
Si Si1 0.370942 0.031173 0.181213
Si Si2 0.625000 0.625000 0.402590
Si Si3 0.224997 0.146847 0.452888
Si Si4 0.467962 0.125000 0.625000
Si Si5 0.529312 0.895123 0.936315
Si Si6 0.708667 0.971762 0.610032
Si Si7 0.362916 0.775167 0.449274
O O1 0.320248 0.079712 0.165909
O O2 0.417100 0.097547 0.187500
O O3 0.383319 0.959053 0.135735
O O4 0.360915 0.982995 0.237142
O O5 0.672027 0.606229 0.439694
O O6 0.246582 0.117351 0.511239
O O7 0.217863 0.250919 0.447004
O O8 0.261393 0.114426 0.405148
O O9 0.503845 0.198018 0.599596
O O10 0.510039 0.875000 0.875000
O O11 0.685629 0.988798 0.669267
O O12 0.660612 0.973553 0.572185
O O13 0.375000 0.875000 0.434059
#
# Coordination Sequence:
#
# PCOD9516639 Si02
#       7
#    32  16  32  16  32  32  32
#     4  12  23  39  64  94 131 168 220 265 324 391
#     4  12  22  40  67  97 126 166 222 274 322 396
#     4  11  24  42  68  93 127 173 220 272 326 390
#     4  12  22  37  60  94 130 165 210 266 316 394
#     4  11  23  45  67  89 127 175 218 270 330 386
#     4  11  22  41  62  93 134 171 208 258 333 397
#     4  11  22  41  65  94 133 174 207 264 334 401
#
# _framework density 18.796961
#
# number of rings (size 3 to 8) (size 9 to 14) (size 15 to 20)
#    0.000    0.667    8.333    0.500    0.000    0.667 
#    6.000    0.417    0.000    0.000    0.000    0.000 
#    0.000    0.000    0.000    0.000    0.000    0.000 
#
# Total GULP energy -267729.432177 kJ/mol
# GULP energy per Si atom -5577.696504 kJ/mol
# Density = 1.875418 g / cm^3
# Si number density = 18.796961 Si / 1000 Ang^3
#
#
#
# Elastic Constant Matrix: (Units=GPa)
#
#
# Indices 1 2 3 4 5 6 
#
# 1 120.1179 30.9871 43.7139 0.0000 0.0000 0.0000
# 2 30.9871 66.6708 14.7635 0.0000 0.0000 0.0000
# 3 43.7139 14.7635 122.7768 0.0000 0.0000 0.0000
# 4 0.0000 0.0000 0.0000 29.0616 0.0000 0.0000
# 5 0.0000 0.0000 0.0000 0.0000 851.0679 0.0000
# 6 0.0000 0.0000 0.0000 0.0000 0.0000 30.3588
#
#
#
# Elastic Compliance Matrix: (Units=1/GPa)
#
#
# Indices 1 2 3 4 5 6 
#
# 1 0.010599 -0.004202 -0.003268 0.000000 0.000000 0.000000
# 2 -0.004202 0.017076 -0.000557 0.000000 0.000000 0.000000
# 3 -0.003268 -0.000557 0.009375 0.000000 0.000000 0.000000
# 4 0.000000 0.000000 0.000000 0.034410 0.000000 0.000000
# 5 0.000000 0.000000 0.000000 0.000000 0.001175 0.000000
# 6 0.000000 0.000000 0.000000 0.000000 0.000000 0.032939
#
#
# Mechanical properties :
#
#
# Convention : Reuss Voigt Hill
#
# Bulk Modulus (GPa) = 47.63172 54.27718 50.95445
# Shear Modulus (GPa) = 38.87205 196.77105 117.82155
#
# Velocity S-wave (km/s) = 4.55246 10.24254 7.92573
# Velocity P-wave (km/s) = 7.28205 12.99299 10.53200
#
# Compressibility (1/GPa) = 0.02099441
#
# Stress axis : x y z
#
# Youngs Moduli (GPa) = 94.35179 58.56325 106.66105
#
# Poissons Ratio (x) = 0.24610 0.34860
# Poissons Ratio (y) = 0.39649 0.05942
# Poissons Ratio (z) = 0.30837 0.03262
#
# Static dielectric constant tensor:
#      x y z
#    x 1.665250 0.000000 0.000000 
#    y 0.000000 1.681750 0.000000 
#    z 0.000000 0.000000 1.672090 
# 
# From -- ./inp_files/30162.got.cif
#   From: 2010.05.17/outbox.cif.g08.bks.cpg/sg70_16_cif.got.tgz:30162.got - 2010.06.03 15:57:51.
