data_PCOD9516807
_publ_section_title
;
Structure prediction by ZEFSAII (Michael W. Deem and Ramdas Pophale) SiO2 
 PCOD9516807
Probable space group: F D D D
;
_chemical_formula_sum "Si O2"
_cell_formula_units_Z 176
_cell_length_a 8.957852
_cell_length_b 30.483589
_cell_length_c 25.162824
_cell_angle_alpha 90.000000
_cell_angle_beta 90.000000
_cell_angle_gamma 90.000000
_cell_volume 6871.148906
_symmetry_space_group_name_H-M "F D D D"
_symmetry_group_IT_number 70
_space_group.IT_coordinate_system_code '2'
_symmetry_cell_setting 'orthorhombic'
loop_
_space_group_symop_operation_xyz
x,y,z
1/4-x,1/4-y,z
x,1/4-y,1/4-z
1/4-x,y,1/4-z
-x,-y,-z
3/4+x,3/4+y,-z
-x,3/4+y,3/4+z
3/4+x,-y,3/4+z
x,1/2+y,1/2+z
1/4-x,3/4-y,1/2+z
x,3/4-y,3/4-z
1/4-x,1/2+y,3/4-z
-x,1/2-y,1/2-z
3/4+x,1/4+y,1/2-z
-x,1/4+y,1/4+z
3/4+x,1/2-y,1/4+z
1/2+x,y,1/2+z
3/4-x,1/4-y,1/2+z
1/2+x,1/4-y,3/4-z
3/4-x,y,3/4-z
1/2-x,-y,1/2-z
1/4+x,3/4+y,1/2-z
1/2-x,3/4+y,1/4+z
1/4+x,-y,1/4+z
1/2+x,1/2+y,z
3/4-x,3/4-y,z
1/2+x,3/4-y,1/4-z
3/4-x,1/2+y,1/4-z
1/2-x,1/2-y,-z
1/4+x,1/4+y,-z
1/2-x,1/4+y,3/4+z
1/4+x,1/2-y,3/4+z
loop_
_atom_site_type_symbol
_atom_site_label
_atom_site_fract_x
_atom_site_fract_y
_atom_site_fract_z
Si Si1 0.850799 0.167189 0.162706
Si Si2 0.880435 0.569755 0.795666
Si Si3 0.868770 0.300035 0.484724
Si Si4 0.125000 0.864788 0.625000
Si Si5 0.125000 0.625000 0.002566
Si Si6 0.372522 0.034578 0.432325
Si Si7 0.125000 0.010425 0.625000
O O1 0.873412 0.125000 0.125000
O O2 0.002309 0.183623 0.191207
O O3 0.736707 0.152227 0.209081
O O4 0.767601 0.207423 0.132329
O O5 0.982160 0.576221 0.743865
O O6 0.961267 0.601372 0.838616
O O7 0.723884 0.590467 0.780221
O O8 0.866234 0.522522 0.824036
O O9 0.931784 0.251371 0.472764
O O10 0.779975 0.297153 0.540637
O O11 0.049547 0.830295 0.584845
O O12 0.375000 0.011474 0.375000
#
# Coordination Sequence:
#
# PCOD9516807 Si02
#       7
#    32  32  32  16  16  32  16
#     4  12  26  53  78 111 166 218 267 341 421 498
#     4  11  27  46  79 118 156 210 276 339 411 492
#     4  11  24  48  78 120 156 207 284 341 396 507
#     4   9  22  46  71 108 156 198 257 338 400 475
#     4  12  27  50  74 110 154 214 254 338 415 494
#     4   9  21  44  72 109 158 202 250 342 403 468
#     4  11  23  52  81 114 162 220 269 336 427 501
#
# _framework density 25.614348
#
# number of rings (size 3 to 8) (size 9 to 14) (size 15 to 20)
#    0.545    0.727    1.818    3.273    0.000    9.455 
#    3.273    3.636    0.000    0.000    0.000    0.000 
#    0.000    0.000    0.000    0.000    0.000    0.000 
#
# Total GULP energy -245673.708023 kJ/mol
# GULP energy per Si atom -5583.493364 kJ/mol
# Density = 2.555605 g / cm^3
# Si number density = 25.614348 Si / 1000 Ang^3
#
#
#
# Elastic Constant Matrix: (Units=GPa)
#
#
# Indices 1 2 3 4 5 6 
#
# 1 129.8908 71.8986 76.5920 0.0000 0.0000 0.0000
# 2 71.8986 169.6317 81.4829 0.0000 0.0000 0.0000
# 3 76.5920 81.4829 118.0035 0.0000 0.0000 0.0000
# 4 0.0000 0.0000 0.0000 38.0864 0.0000 0.0000
# 5 0.0000 0.0000 0.0000 0.0000 25.4196 0.0000
# 6 0.0000 0.0000 0.0000 0.0000 0.0000 14.8953
#
#
#
# Elastic Compliance Matrix: (Units=1/GPa)
#
#
# Indices 1 2 3 4 5 6 
#
# 1 0.012989 -0.002178 -0.006927 0.000000 0.000000 0.000000
# 2 -0.002178 0.009186 -0.004929 0.000000 0.000000 0.000000
# 3 -0.006927 -0.004929 0.016374 0.000000 0.000000 0.000000
# 4 0.000000 0.000000 0.000000 0.026256 0.000000 0.000000
# 5 0.000000 0.000000 0.000000 0.000000 0.039340 0.000000
# 6 0.000000 0.000000 0.000000 0.000000 0.000000 0.067135
#
#
# Mechanical properties :
#
#
# Convention : Reuss Voigt Hill
#
# Bulk Modulus (GPa) = 95.41349 97.49702 96.45525
# Shear Modulus (GPa) = 24.64974 28.18375 26.41675
#
# Velocity S-wave (km/s) = 3.10553 3.32069 3.21491
# Velocity P-wave (km/s) = 7.08449 7.26971 7.17770
#
# Compressibility (1/GPa) = 0.01048070
#
# Stress axis : x y z
#
# Youngs Moduli (GPa) = 76.98963 108.85906 61.07268
#
# Poissons Ratio (x) = 0.23711 0.42302
# Poissons Ratio (y) = 0.16769 0.30105
# Poissons Ratio (z) = 0.53327 0.53661
#
# Static dielectric constant tensor:
#      x y z
#    x 2.054170 0.000000 0.000000 
#    y 0.000000 2.055960 0.000000 
#    z 0.000000 0.000000 2.069940 
# 
# From -- ./inp_files/58737.got.cif
#   From: 2010.05.17/outbox.cif.g08.bks.cpg/sg70_30_cif.got.tgz:58737.got - 2010.06.03 15:57:51.
