data_PCOD9516564
_publ_section_title
;
Structure prediction by ZEFSAII (Michael W. Deem and Ramdas Pophale) SiO2 
 PCOD9516564
Probable space group: F D D D
;
_chemical_formula_sum "Si O2"
_cell_formula_units_Z 176
_cell_length_a 13.316644
_cell_length_b 27.077326
_cell_length_c 24.802816
_cell_angle_alpha 90.000000
_cell_angle_beta 90.000000
_cell_angle_gamma 90.000000
_cell_volume 8943.377339
_symmetry_space_group_name_H-M "F D D D"
_symmetry_group_IT_number 70
_space_group.IT_coordinate_system_code '2'
_symmetry_cell_setting 'orthorhombic'
loop_
_space_group_symop_operation_xyz
x,y,z
1/4-x,1/4-y,z
x,1/4-y,1/4-z
1/4-x,y,1/4-z
-x,-y,-z
3/4+x,3/4+y,-z
-x,3/4+y,3/4+z
3/4+x,-y,3/4+z
x,1/2+y,1/2+z
1/4-x,3/4-y,1/2+z
x,3/4-y,3/4-z
1/4-x,1/2+y,3/4-z
-x,1/2-y,1/2-z
3/4+x,1/4+y,1/2-z
-x,1/4+y,1/4+z
3/4+x,1/2-y,1/4+z
1/2+x,y,1/2+z
3/4-x,1/4-y,1/2+z
1/2+x,1/4-y,3/4-z
3/4-x,y,3/4-z
1/2-x,-y,1/2-z
1/4+x,3/4+y,1/2-z
1/2-x,3/4+y,1/4+z
1/4+x,-y,1/4+z
1/2+x,1/2+y,z
3/4-x,3/4-y,z
1/2+x,3/4-y,1/4-z
3/4-x,1/2+y,1/4-z
1/2-x,1/2-y,-z
1/4+x,1/4+y,-z
1/2-x,1/4+y,3/4+z
1/4+x,1/2-y,3/4+z
loop_
_atom_site_type_symbol
_atom_site_label
_atom_site_fract_x
_atom_site_fract_y
_atom_site_fract_z
Si Si1 0.134063 0.554640 0.858072
Si Si2 0.954590 0.125000 0.625000
Si Si3 0.956800 0.629362 0.829399
Si Si4 0.874297 0.787319 0.227301
Si Si5 0.831135 0.671114 0.515573
Si Si6 0.718489 0.523605 0.592041
O O1 0.226633 0.571134 0.820562
O O2 0.074071 0.504460 0.846057
O O3 0.042232 0.592812 0.851874
O O4 0.169485 0.554103 0.920257
O O5 0.902422 0.113395 0.567869
O O6 0.018512 0.174039 0.619537
O O7 0.875000 0.638746 0.875000
O O8 0.903442 0.601271 0.780119
O O9 0.901946 0.729056 0.220005
O O10 0.807283 0.784306 0.280345
O O11 0.967870 0.823429 0.241847
O O12 0.625000 0.498288 0.625000
#
# Coordination Sequence:
#
# PCOD9516564 Si02
#       6
#    32  16  32  32  32  32
#     4  11  23  40  65  96 128 176 217 266 336 394
#     4  12  25  36  64 103 132 168 217 268 348 393
#     4  11  23  40  64  95 133 170 225 270 319 397
#     4  11  21  37  65  92 136 173 207 266 343 393
#     4  11  22  39  61  94 133 177 207 271 333 399
#     4  12  22  38  63 101 140 167 209 272 340 403
#
# _framework density 19.679366000000002
#
# number of rings (size 3 to 8) (size 9 to 14) (size 15 to 20)
#    0.000    0.727    7.273    1.909    2.545    0.000 
#    0.000    0.909    0.000    2.182    0.000    0.000 
#    0.000    0.000    0.000    0.000    0.000    0.000 
#
# Total GULP energy -245225.660068 kJ/mol
# GULP energy per Si atom -5573.310456 kJ/mol
# Density = 1.963457 g / cm^3
# Si number density = 19.679366 Si / 1000 Ang^3
#
#
#
# Elastic Constant Matrix: (Units=GPa)
#
#
# Indices 1 2 3 4 5 6 
#
# 1 87.3313 41.2792 45.0211 0.0000 0.0000 0.0000
# 2 41.2792 66.9695 17.2388 0.0000 0.0000 0.0000
# 3 45.0211 17.2388 123.9235 0.0000 0.0000 0.0000
# 4 0.0000 0.0000 0.0000 34.8914 0.0000 0.0000
# 5 0.0000 0.0000 0.0000 0.0000 23.4061 0.0000
# 6 0.0000 0.0000 0.0000 0.0000 0.0000 -4.0044
#
#
#
# Elastic Compliance Matrix: (Units=1/GPa)
#
#
# Indices 1 2 3 4 5 6 
#
# 1 0.019236 -0.010431 -0.005537 0.000000 0.000000 0.000000
# 2 -0.010431 0.021144 0.000848 0.000000 0.000000 0.000000
# 3 -0.005537 0.000848 0.009963 0.000000 0.000000 0.000000
# 4 0.000000 0.000000 0.000000 0.028660 0.000000 0.000000
# 5 0.000000 0.000000 0.000000 0.000000 0.042724 0.000000
# 6 0.000000 0.000000 0.000000 0.000000 0.000000 -0.249728
#
#
# Mechanical properties :
#
#
# Convention : Reuss Voigt Hill
#
# Bulk Modulus (GPa) = 49.74583 53.92248 51.83416
# Shear Modulus (GPa) = -54.90905 22.50432 -16.20237
#
# Velocity S-wave (km/s) = -5.28795 3.38531 -2.87246
# Velocity P-wave (km/s) = 3.45690 6.53762 3.92366
#
# Compressibility (1/GPa) = 0.02010219
#
# Stress axis : x y z
#
# Youngs Moduli (GPa) = 51.98625 47.29575 100.37002
#
# Poissons Ratio (x) = 0.49336 0.55577
# Poissons Ratio (y) = 0.54229 -0.08516
# Poissons Ratio (z) = 0.28786 -0.04013
#
# Static dielectric constant tensor:
#      x y z
#    x 1.765440 0.000000 0.000000 
#    y 0.000000 1.792350 0.000000 
#    z 0.000000 0.000000 1.775370 
# 
# From -- ./inp_files/57606.got.cif
#   From: 2010.05.17/outbox.cif.g08.bks.cpg/sg70_29_cif.got.tgz:57606.got - 2010.06.03 15:57:51.
