data_PCOD9516272
_publ_section_title
;
Structure prediction by ZEFSAII (Michael W. Deem and Ramdas Pophale) SiO2 
 PCOD9516272
Probable space group: F D D D
;
_chemical_formula_sum "Si O2"
_cell_formula_units_Z 152
_cell_length_a 33.183047
_cell_length_b 20.670316
_cell_length_c 11.445534
_cell_angle_alpha 90.000000
_cell_angle_beta 90.000000
_cell_angle_gamma 90.000000
_cell_volume 7850.538323
_symmetry_space_group_name_H-M "F D D D"
_symmetry_group_IT_number 70
_space_group.IT_coordinate_system_code '2'
_symmetry_cell_setting 'orthorhombic'
loop_
_space_group_symop_operation_xyz
x,y,z
1/4-x,1/4-y,z
x,1/4-y,1/4-z
1/4-x,y,1/4-z
-x,-y,-z
3/4+x,3/4+y,-z
-x,3/4+y,3/4+z
3/4+x,-y,3/4+z
x,1/2+y,1/2+z
1/4-x,3/4-y,1/2+z
x,3/4-y,3/4-z
1/4-x,1/2+y,3/4-z
-x,1/2-y,1/2-z
3/4+x,1/4+y,1/2-z
-x,1/4+y,1/4+z
3/4+x,1/2-y,1/4+z
1/2+x,y,1/2+z
3/4-x,1/4-y,1/2+z
1/2+x,1/4-y,3/4-z
3/4-x,y,3/4-z
1/2-x,-y,1/2-z
1/4+x,3/4+y,1/2-z
1/2-x,3/4+y,1/4+z
1/4+x,-y,1/4+z
1/2+x,1/2+y,z
3/4-x,3/4-y,z
1/2+x,3/4-y,1/4-z
3/4-x,1/2+y,1/4-z
1/2-x,1/2-y,-z
1/4+x,1/4+y,-z
1/2-x,1/4+y,3/4+z
1/4+x,1/2-y,3/4+z
loop_
_atom_site_type_symbol
_atom_site_label
_atom_site_fract_x
_atom_site_fract_y
_atom_site_fract_z
Si Si1 0.203723 0.769820 0.135480
Si Si2 0.205408 0.196444 0.390888
Si Si3 0.125000 0.125000 0.625000
Si Si4 0.924323 0.307222 0.074818
Si Si5 0.625000 0.890773 0.125000
Si Si6 0.613696 0.986046 0.753976
O O1 0.246519 0.804334 0.119176
O O2 0.208285 0.733569 0.259660
O O3 0.164845 0.816249 0.141004
O O4 0.197995 0.722706 0.023064
O O5 0.188986 0.124239 0.371226
O O6 0.179652 0.242407 0.304322
O O7 0.101253 0.079386 0.712726
O O8 0.896720 0.264600 0.158030
O O9 0.632507 0.840987 0.232653
O O10 0.625000 0.013052 0.625000
#
# Coordination Sequence:
#
# PCOD9516272 Si02
#       6
#    32  32   8  32  16  32
#     4  11  24  40  68  96 131 167 219 291 321 384
#     4  11  23  40  66  99 126 165 225 282 329 379
#     4  12  18  36  66  96 112 154 220 266 310 368
#     4  12  21  40  66  94 125 165 220 270 323 384
#     4  10  25  44  60  96 132 179 218 250 350 410
#     4  10  24  43  63  92 134 177 215 259 332 415
#
# _framework density 19.361729
#
# number of rings (size 3 to 8) (size 9 to 14) (size 15 to 20)
#    0.632    0.421    4.211    1.895    2.947    5.053 
#    0.000    6.316    0.000    0.000    0.000    0.000 
#    0.000    0.000    0.000    0.000    0.000    0.000 
#
# Total GULP energy -211846.906909 kJ/mol
# GULP energy per Si atom -5574.918603 kJ/mol
# Density = 1.931766 g / cm^3
# Si number density = 19.361729 Si / 1000 Ang^3
#
#
#
# Elastic Constant Matrix: (Units=GPa)
#
#
# Indices 1 2 3 4 5 6 
#
# 1 107.7744 37.4583 21.2856 0.0000 0.0000 0.0000
# 2 37.4583 98.7422 10.7326 0.0000 0.0000 0.0000
# 3 21.2856 10.7326 81.7215 0.0000 0.0000 0.0000
# 4 0.0000 0.0000 0.0000 35.5163 0.0000 0.0000
# 5 0.0000 0.0000 0.0000 0.0000 27.0289 0.0000
# 6 0.0000 0.0000 0.0000 0.0000 0.0000 2.9173
#
#
#
# Elastic Compliance Matrix: (Units=1/GPa)
#
#
# Indices 1 2 3 4 5 6 
#
# 1 0.011125 -0.003962 -0.002377 0.000000 0.000000 0.000000
# 2 -0.003962 0.011685 -0.000503 0.000000 0.000000 0.000000
# 3 -0.002377 -0.000503 0.012922 0.000000 0.000000 0.000000
# 4 0.000000 0.000000 0.000000 0.028156 0.000000 0.000000
# 5 0.000000 0.000000 0.000000 0.000000 0.036997 0.000000
# 6 0.000000 0.000000 0.000000 0.000000 0.000000 0.342788
#
#
# Mechanical properties :
#
#
# Convention : Reuss Voigt Hill
#
# Bulk Modulus (GPa) = 45.35544 47.46570 46.41057
# Shear Modulus (GPa) = 10.75947 27.67659 19.21803
#
# Velocity S-wave (km/s) = 2.35990 3.78491 3.15394
# Velocity P-wave (km/s) = 5.55893 6.60826 6.10618
#
# Compressibility (1/GPa) = 0.02204807
#
# Stress axis : x y z
#
# Youngs Moduli (GPa) = 89.88582 85.57969 77.38781
#
# Poissons Ratio (x) = 0.33907 0.18398
# Poissons Ratio (y) = 0.35613 0.03890
# Poissons Ratio (z) = 0.21369 0.04302
#
# Static dielectric constant tensor:
#      x y z
#    x 1.665530 0.000000 0.000000 
#    y 0.000000 1.759260 0.000000 
#    z 0.000000 0.000000 1.684920 
# 
# From -- ./inp_files/22222.got.cif
#   From: 2010.05.17/outbox.cif.g08.bks.cpg/sg70_12_cif.got.tgz:22222.got - 2010.06.03 15:57:51.
