data_PCOD9516184
_publ_section_title
;
Structure prediction by ZEFSAII (Michael W. Deem and Ramdas Pophale) SiO2 
 PCOD9516184
Probable space group: F D D D
;
_chemical_formula_sum "Si O2"
_cell_formula_units_Z 104
_cell_length_a 23.405363
_cell_length_b 10.580474
_cell_length_c 15.839347
_cell_angle_alpha 90.000000
_cell_angle_beta 90.000000
_cell_angle_gamma 90.000000
_cell_volume 3922.453273
_symmetry_space_group_name_H-M "F D D D"
_symmetry_group_IT_number 70
_space_group.IT_coordinate_system_code '2'
_symmetry_cell_setting 'orthorhombic'
loop_
_space_group_symop_operation_xyz
x,y,z
1/4-x,1/4-y,z
x,1/4-y,1/4-z
1/4-x,y,1/4-z
-x,-y,-z
3/4+x,3/4+y,-z
-x,3/4+y,3/4+z
3/4+x,-y,3/4+z
x,1/2+y,1/2+z
1/4-x,3/4-y,1/2+z
x,3/4-y,3/4-z
1/4-x,1/2+y,3/4-z
-x,1/2-y,1/2-z
3/4+x,1/4+y,1/2-z
-x,1/4+y,1/4+z
3/4+x,1/2-y,1/4+z
1/2+x,y,1/2+z
3/4-x,1/4-y,1/2+z
1/2+x,1/4-y,3/4-z
3/4-x,y,3/4-z
1/2-x,-y,1/2-z
1/4+x,3/4+y,1/2-z
1/2-x,3/4+y,1/4+z
1/4+x,-y,1/4+z
1/2+x,1/2+y,z
3/4-x,3/4-y,z
1/2+x,3/4-y,1/4-z
3/4-x,1/2+y,1/4-z
1/2-x,1/2-y,-z
1/4+x,1/4+y,-z
1/2-x,1/4+y,3/4+z
1/4+x,1/2-y,3/4+z
loop_
_atom_site_type_symbol
_atom_site_label
_atom_site_fract_x
_atom_site_fract_y
_atom_site_fract_z
Si Si1 0.125000 0.125000 0.625000
Si Si2 0.527556 0.454055 0.598340
Si Si3 0.375000 0.375000 0.034115
Si Si4 0.006711 0.176038 0.038252
Si Si5 0.577189 0.375000 0.375000
O O1 0.166973 0.216164 0.574871
O O2 0.524796 0.316871 0.561212
O O3 0.528058 0.434521 0.701208
O O4 0.470601 0.534371 0.579765
O O5 0.387001 0.240329 0.082255
O O6 0.433724 0.394912 0.982658
O O7 0.980442 0.125000 0.125000
#
# Coordination Sequence:
#
# PCOD9516184 Si02
#       5
#     8  32  16  32  16
#     4  10  24  44  80 110 140 212 250 312 376 468
#     4  10  24  48  76 106 156 198 257 308 386 456
#     4  10  23  44  81 109 155 192 260 304 390 452
#     4  11  24  48  72 111 150 199 248 325 378 451
#     4   9  22  49  72 116 148 201 244 323 370 460
#
# _framework density 26.514019000000001
#
# number of rings (size 3 to 8) (size 9 to 14) (size 15 to 20)
#    0.000    1.846    0.000    1.385    4.308   11.077 
#   22.154    7.692    0.000    0.000    0.000    0.000 
#    0.000    0.000    0.000    0.000    0.000    0.000 
#
# Total GULP energy -145296.775460 kJ/mol
# GULP energy per Si atom -5588.337518 kJ/mol
# Density = 2.645367 g / cm^3
# Si number density = 26.514019 Si / 1000 Ang^3
#
#
#
# Elastic Constant Matrix: (Units=GPa)
#
#
# Indices 1 2 3 4 5 6 
#
# 1 145.3595 66.1873 41.8999 0.0000 0.0000 0.0000
# 2 66.1873 229.9072 66.9818 0.0000 0.0000 0.0000
# 3 41.8999 66.9818 141.1733 0.0000 0.0000 0.0000
# 4 0.0000 0.0000 0.0000 70.6584 0.0000 0.0000
# 5 0.0000 0.0000 0.0000 0.0000 89.3287 0.0000
# 6 0.0000 0.0000 0.0000 0.0000 0.0000 89.3854
#
#
#
# Elastic Compliance Matrix: (Units=1/GPa)
#
#
# Indices 1 2 3 4 5 6 
#
# 1 0.008190 -0.001914 -0.001523 0.000000 0.000000 0.000000
# 2 -0.001914 0.005495 -0.002039 0.000000 0.000000 0.000000
# 3 -0.001523 -0.002039 0.008503 0.000000 0.000000 0.000000
# 4 0.000000 0.000000 0.000000 0.014153 0.000000 0.000000
# 5 0.000000 0.000000 0.000000 0.000000 0.011195 0.000000
# 6 0.000000 0.000000 0.000000 0.000000 0.000000 0.011188
#
#
# Mechanical properties :
#
#
# Convention : Reuss Voigt Hill
#
# Bulk Modulus (GPa) = 88.99868 96.28644 92.64256
# Shear Modulus (GPa) = 68.10245 72.63257 70.36751
#
# Velocity S-wave (km/s) = 5.07358 5.23961 5.15726
# Velocity P-wave (km/s) = 8.24385 8.54393 8.39523
#
# Compressibility (1/GPa) = 0.01123612
#
# Stress axis : x y z
#
# Youngs Moduli (GPa) = 122.10053 181.99436 117.60876
#
# Poissons Ratio (x) = 0.34837 0.17906
# Poissons Ratio (y) = 0.23373 0.23979
# Poissons Ratio (z) = 0.18590 0.37107
#
# Static dielectric constant tensor:
#      x y z
#    x 2.030260 0.000000 0.000000 
#    y 0.000000 2.090150 0.000000 
#    z 0.000000 0.000000 2.393710 
# 
# From -- ./inp_files/16227.got.cif
#   From: 2010.05.17/outbox.cif.g08.bks.cpg/sg70_9_cif.got.tgz:16227.got - 2010.06.03 15:57:51.
