data_PCOD9516734
_publ_section_title
;
Structure prediction by ZEFSAII (Michael W. Deem and Ramdas Pophale) SiO2 
 PCOD9516734
Probable space group: F D D D
;
_chemical_formula_sum "Si O2"
_cell_formula_units_Z 128
_cell_length_a 25.263837
_cell_length_b 11.506614
_cell_length_c 20.154506
_cell_angle_alpha 90.000000
_cell_angle_beta 90.000000
_cell_angle_gamma 90.000000
_cell_volume 5858.939493
_symmetry_space_group_name_H-M "F D D D"
_symmetry_group_IT_number 70
_space_group.IT_coordinate_system_code '2'
_symmetry_cell_setting 'orthorhombic'
loop_
_space_group_symop_operation_xyz
x,y,z
1/4-x,1/4-y,z
x,1/4-y,1/4-z
1/4-x,y,1/4-z
-x,-y,-z
3/4+x,3/4+y,-z
-x,3/4+y,3/4+z
3/4+x,-y,3/4+z
x,1/2+y,1/2+z
1/4-x,3/4-y,1/2+z
x,3/4-y,3/4-z
1/4-x,1/2+y,3/4-z
-x,1/2-y,1/2-z
3/4+x,1/4+y,1/2-z
-x,1/4+y,1/4+z
3/4+x,1/2-y,1/4+z
1/2+x,y,1/2+z
3/4-x,1/4-y,1/2+z
1/2+x,1/4-y,3/4-z
3/4-x,y,3/4-z
1/2-x,-y,1/2-z
1/4+x,3/4+y,1/2-z
1/2-x,3/4+y,1/4+z
1/4+x,-y,1/4+z
1/2+x,1/2+y,z
3/4-x,3/4-y,z
1/2+x,3/4-y,1/4-z
3/4-x,1/2+y,1/4-z
1/2-x,1/2-y,-z
1/4+x,1/4+y,-z
1/2-x,1/4+y,3/4+z
1/4+x,1/2-y,3/4+z
loop_
_atom_site_type_symbol
_atom_site_label
_atom_site_fract_x
_atom_site_fract_y
_atom_site_fract_z
Si Si1 0.813224 0.897455 0.725144
Si Si2 0.214574 0.256545 0.399789
Si Si3 0.933086 0.862486 0.277014
Si Si4 0.781520 0.152582 0.702043
O O1 0.875000 0.875000 0.721950
O O2 0.787255 0.840621 0.657883
O O3 0.781681 0.839993 0.785848
O O4 0.803329 0.034208 0.733887
O O5 0.188952 0.375000 0.375000
O O6 0.272452 0.298446 0.427435
O O7 0.180914 0.216448 0.461828
O O8 0.875000 0.875000 0.306092
O O9 0.948960 0.986066 0.243688
O O10 0.793168 0.125000 0.625000
#
# Coordination Sequence:
#
# PCOD9516734 Si02
#       4
#    32  32  32  32
#     4  11  25  43  70  96 133 184 223 278 342 398
#     4  11  23  42  65 100 137 171 231 277 323 415
#     4  11  25  41  69 101 137 184 221 281 346 396
#     4  11  24  44  65 101 135 171 233 278 329 413
#
# _framework density 21.846958000000001
#
# number of rings (size 3 to 8) (size 9 to 14) (size 15 to 20)
#    0.000    1.000    5.000    0.750    3.500    1.000 
#    0.000    0.000    0.000    0.000    0.000    0.000 
#    0.000    0.000    0.000    0.000    0.000    0.000 
#
# Total GULP energy -178306.236032 kJ/mol
# GULP energy per Si atom -5572.069876 kJ/mol
# Density = 2.179723 g / cm^3
# Si number density = 21.846958 Si / 1000 Ang^3
#
#
#
# Elastic Constant Matrix: (Units=GPa)
#
#
# Indices 1 2 3 4 5 6 
#
# 1 153.7797 47.7584 36.6393 0.0000 0.0000 0.0000
# 2 47.7584 132.3315 23.9539 0.0000 0.0000 0.0000
# 3 36.6393 23.9539 43.5338 0.0000 0.0000 0.0000
# 4 0.0000 0.0000 0.0000 -915.9004 0.0000 0.0000
# 5 0.0000 0.0000 0.0000 0.0000 62.3936 0.0000
# 6 0.0000 0.0000 0.0000 0.0000 0.0000 14.0228
#
#
#
# Elastic Compliance Matrix: (Units=1/GPa)
#
#
# Indices 1 2 3 4 5 6 
#
# 1 0.008580 -0.001987 -0.006128 0.000000 0.000000 0.000000
# 2 -0.001987 0.008853 -0.003199 0.000000 0.000000 0.000000
# 3 -0.006128 -0.003199 0.029888 0.000000 0.000000 0.000000
# 4 0.000000 0.000000 0.000000 -0.001092 0.000000 0.000000
# 5 0.000000 0.000000 0.000000 0.000000 0.016027 0.000000
# 6 0.000000 0.000000 0.000000 0.000000 0.000000 0.071312
#
#
# Mechanical properties :
#
#
# Convention : Reuss Voigt Hill
#
# Bulk Modulus (GPa) = 40.49631 60.70535 50.60083
# Shear Modulus (GPa) = 30.40862 -153.14390 -61.36764
#
# Velocity S-wave (km/s) = 3.73486 -8.38157 -5.30573
# Velocity P-wave (km/s) = 6.09717 8.11299 3.78452
#
# Compressibility (1/GPa) = 0.02469361
#
# Stress axis : x y z
#
# Youngs Moduli (GPa) = 116.55063 112.95603 33.45836
#
# Poissons Ratio (x) = 0.22448 0.20502
# Poissons Ratio (y) = 0.23162 0.10702
# Poissons Ratio (z) = 0.71418 0.36131
#
# Static dielectric constant tensor:
#      x y z
#    x 1.819240 0.000000 0.000000 
#    y 0.000000 1.812270 0.000000 
#    z 0.000000 0.000000 1.853630 
# 
# From -- ./inp_files/18816.got.cif
#   From: 2010.05.17/outbox.cif.g08.bks.cpg/sg70_10_cif.got.tgz:18816.got - 2010.06.03 15:57:51.
