data_PCOD9516405
_publ_section_title
;
Structure prediction by ZEFSAII (Michael W. Deem and Ramdas Pophale) SiO2 
 PCOD9516405
Probable space group: F D D D
;
_chemical_formula_sum "Si O2"
_cell_formula_units_Z 96
_cell_length_a 27.283769
_cell_length_b 7.404416
_cell_length_c 20.775821
_cell_angle_alpha 90.000000
_cell_angle_beta 90.000000
_cell_angle_gamma 90.000000
_cell_volume 4197.139164
_symmetry_space_group_name_H-M "F D D D"
_symmetry_group_IT_number 70
_space_group.IT_coordinate_system_code '2'
_symmetry_cell_setting 'orthorhombic'
loop_
_space_group_symop_operation_xyz
x,y,z
1/4-x,1/4-y,z
x,1/4-y,1/4-z
1/4-x,y,1/4-z
-x,-y,-z
3/4+x,3/4+y,-z
-x,3/4+y,3/4+z
3/4+x,-y,3/4+z
x,1/2+y,1/2+z
1/4-x,3/4-y,1/2+z
x,3/4-y,3/4-z
1/4-x,1/2+y,3/4-z
-x,1/2-y,1/2-z
3/4+x,1/4+y,1/2-z
-x,1/4+y,1/4+z
3/4+x,1/2-y,1/4+z
1/2+x,y,1/2+z
3/4-x,1/4-y,1/2+z
1/2+x,1/4-y,3/4-z
3/4-x,y,3/4-z
1/2-x,-y,1/2-z
1/4+x,3/4+y,1/2-z
1/2-x,3/4+y,1/4+z
1/4+x,-y,1/4+z
1/2+x,1/2+y,z
3/4-x,3/4-y,z
1/2+x,3/4-y,1/4-z
3/4-x,1/2+y,1/4-z
1/2-x,1/2-y,-z
1/4+x,1/4+y,-z
1/2-x,1/4+y,3/4+z
1/4+x,1/2-y,3/4+z
loop_
_atom_site_type_symbol
_atom_site_label
_atom_site_fract_x
_atom_site_fract_y
_atom_site_fract_z
Si Si1 0.084553 0.370708 0.800319
Si Si2 0.048844 0.148544 0.194162
Si Si3 0.194497 0.481541 0.977445
O O1 0.067841 0.375000 0.875000
O O2 0.072108 0.540543 0.754842
O O3 0.142928 0.334395 0.802043
O O4 0.060542 0.195372 0.766976
O O5 0.072399 0.125000 0.125000
O O6 0.049467 0.361277 0.208893
O O7 0.993669 0.071410 0.190482
#
# Coordination Sequence:
#
# PCOD9516405 Si02
#       3
#    32  32  32
#     4  11  25  42  71 100 134 176 233 274 334 406
#     4  11  25  44  69  98 138 174 225 280 345 398
#     4  10  25  43  68 100 133 181 222 277 337 412
#
# _framework density 22.872720999999999
#
# number of rings (size 3 to 8) (size 9 to 14) (size 15 to 20)
#    0.000    1.333    0.000    3.000   18.667    4.000 
#    0.000    3.333    0.000    0.000    0.000    0.000 
#    0.000    0.000    0.000    0.000    0.000    0.000 
#
# Total GULP energy -134007.417354 kJ/mol
# GULP energy per Si atom -5583.642390 kJ/mol
# Density = 2.282066 g / cm^3
# Si number density = 22.872721 Si / 1000 Ang^3
#
#
#
# Elastic Constant Matrix: (Units=GPa)
#
#
# Indices 1 2 3 4 5 6 
#
# 1 129.6121 22.3083 21.1547 0.0000 0.0000 0.0000
# 2 22.3083 153.8940 48.1034 0.0000 0.0000 0.0000
# 3 21.1547 48.1034 114.4906 0.0000 0.0000 0.0000
# 4 0.0000 0.0000 0.0000 -12.0272 0.0000 0.0000
# 5 0.0000 0.0000 0.0000 0.0000 -23.6402 0.0000
# 6 0.0000 0.0000 0.0000 0.0000 0.0000 37.5165
#
#
#
# Elastic Compliance Matrix: (Units=1/GPa)
#
#
# Indices 1 2 3 4 5 6 
#
# 1 0.008041 -0.000807 -0.001147 0.000000 0.000000 0.000000
# 2 -0.000807 0.007561 -0.003028 0.000000 0.000000 0.000000
# 3 -0.001147 -0.003028 0.010218 0.000000 0.000000 0.000000
# 4 0.000000 0.000000 0.000000 -0.083145 0.000000 0.000000
# 5 0.000000 0.000000 0.000000 0.000000 -0.042301 0.000000
# 6 0.000000 0.000000 0.000000 0.000000 0.000000 0.026655
#
#
# Mechanical properties :
#
#
# Convention : Reuss Voigt Hill
#
# Bulk Modulus (GPa) = 63.06054 64.56993 63.81523
# Shear Modulus (GPa) = -86.62444 20.79850 -32.91297
#
# Velocity S-wave (km/s) = -6.16073 3.01876 -3.79748
# Velocity P-wave (km/s) = 4.79334 6.35939 2.95515
#
# Compressibility (1/GPa) = 0.01585778
#
# Stress axis : x y z
#
# Youngs Moduli (GPa) = 124.35607 132.25051 97.86330
#
# Poissons Ratio (x) = 0.10676 0.11222
# Poissons Ratio (y) = 0.10039 0.29631
# Poissons Ratio (z) = 0.14259 0.40042
#
# Static dielectric constant tensor:
#      x y z
#    x 1.902770 0.000000 0.000000 
#    y 0.000000 1.830570 0.000000 
#    z 0.000000 0.000000 1.876610 
# 
# From -- ./inp_files/46412.got.cif
#   From: 2010.05.17/outbox.cif.g08.bks.cpg/sg70_24_cif.got.tgz:46412.got - 2010.06.03 15:57:51.
