data_PCOD9516846
_publ_section_title
;
Structure prediction by ZEFSAII (Michael W. Deem and Ramdas Pophale) SiO2 
 PCOD9516846
Probable space group: F D D D
;
_chemical_formula_sum "Si O2"
_cell_formula_units_Z 144
_cell_length_a 22.200744
_cell_length_b 20.055819
_cell_length_c 12.382057
_cell_angle_alpha 90.000000
_cell_angle_beta 90.000000
_cell_angle_gamma 90.000000
_cell_volume 5513.161687
_symmetry_space_group_name_H-M "F D D D"
_symmetry_group_IT_number 70
_space_group.IT_coordinate_system_code '2'
_symmetry_cell_setting 'orthorhombic'
loop_
_space_group_symop_operation_xyz
x,y,z
1/4-x,1/4-y,z
x,1/4-y,1/4-z
1/4-x,y,1/4-z
-x,-y,-z
3/4+x,3/4+y,-z
-x,3/4+y,3/4+z
3/4+x,-y,3/4+z
x,1/2+y,1/2+z
1/4-x,3/4-y,1/2+z
x,3/4-y,3/4-z
1/4-x,1/2+y,3/4-z
-x,1/2-y,1/2-z
3/4+x,1/4+y,1/2-z
-x,1/4+y,1/4+z
3/4+x,1/2-y,1/4+z
1/2+x,y,1/2+z
3/4-x,1/4-y,1/2+z
1/2+x,1/4-y,3/4-z
3/4-x,y,3/4-z
1/2-x,-y,1/2-z
1/4+x,3/4+y,1/2-z
1/2-x,3/4+y,1/4+z
1/4+x,-y,1/4+z
1/2+x,1/2+y,z
3/4-x,3/4-y,z
1/2+x,3/4-y,1/4-z
3/4-x,1/2+y,1/4-z
1/2-x,1/2-y,-z
1/4+x,1/4+y,-z
1/2-x,1/4+y,3/4+z
1/4+x,1/2-y,3/4+z
loop_
_atom_site_type_symbol
_atom_site_label
_atom_site_fract_x
_atom_site_fract_y
_atom_site_fract_z
Si Si1 0.635630 0.523666 0.475063
Si Si2 0.860459 0.512845 0.488671
Si Si3 0.205655 0.865577 0.256316
Si Si4 0.501770 0.644388 0.474268
Si Si5 0.500000 0.000000 0.000000
O O1 0.621896 0.527569 0.346443
O O2 0.671481 0.454657 0.495447
O O3 0.567983 0.668388 0.501219
O O4 0.570179 0.519719 0.525999
O O5 0.875000 0.478439 0.375000
O O6 0.905801 0.576295 0.493806
O O7 0.793548 0.543494 0.487048
O O8 0.234099 0.875000 0.375000
O O9 0.248395 0.872266 0.152958
O O10 0.479486 0.577214 0.530266
#
# Coordination Sequence:
#
# PCOD9516846 Si02
#       5
#    32  32  32  32  16
#     4  11  24  44  71 105 142 191 252 309 377 465
#     4   9  20  42  71 101 140 184 236 310 386 444
#     4   9  20  42  71 101 140 184 236 310 386 444
#     4  11  24  44  71 105 142 191 252 309 377 465
#     4  12  26  44  68  98 156 196 240 308 370 462
#
# _framework density 26.119312000000001
#
# number of rings (size 3 to 8) (size 9 to 14) (size 15 to 20)
#    0.000    1.778    2.222    0.667    3.111    8.000 
#    0.000    0.000    4.889    0.000    0.000    0.000 
#    0.000    0.000    0.000    0.000    0.000    0.000 
#
# Total GULP energy -200859.535195 kJ/mol
# GULP energy per Si atom -5579.431533 kJ/mol
# Density = 2.605986 g / cm^3
# Si number density = 26.119312 Si / 1000 Ang^3
#
#
#
# Elastic Constant Matrix: (Units=GPa)
#
#
# Indices 1 2 3 4 5 6 
#
# 1 160.0508 38.2888 13.5845 0.0000 0.0000 0.0000
# 2 38.2888 72.7382 1.6823 0.0000 0.0000 0.0000
# 3 13.5845 1.6823 169.2134 0.0000 0.0000 0.0000
# 4 0.0000 0.0000 0.0000 9.1708 0.0000 0.0000
# 5 0.0000 0.0000 0.0000 0.0000 10.8644 0.0000
# 6 0.0000 0.0000 0.0000 0.0000 0.0000 25.8739
#
#
#
# Elastic Compliance Matrix: (Units=1/GPa)
#
#
# Indices 1 2 3 4 5 6 
#
# 1 0.007197 -0.003776 -0.000540 0.000000 0.000000 0.000000
# 2 -0.003776 0.015732 0.000147 0.000000 0.000000 0.000000
# 3 -0.000540 0.000147 0.005952 0.000000 0.000000 0.000000
# 4 0.000000 0.000000 0.000000 0.109041 0.000000 0.000000
# 5 0.000000 0.000000 0.000000 0.000000 0.092044 0.000000
# 6 0.000000 0.000000 0.000000 0.000000 0.000000 0.038649
#
#
# Mechanical properties :
#
#
# Convention : Reuss Voigt Hill
#
# Bulk Modulus (GPa) = 48.68099 56.56817 52.62458
# Shear Modulus (GPa) = 17.61792 32.41160 25.01476
#
# Velocity S-wave (km/s) = 2.59996 3.52647 3.09805
# Velocity P-wave (km/s) = 5.26227 6.18756 5.74358
#
# Compressibility (1/GPa) = 0.02054190
#
# Stress axis : x y z
#
# Youngs Moduli (GPa) = 138.94270 63.56376 168.02178
#
# Poissons Ratio (x) = 0.24002 0.09077
# Poissons Ratio (y) = 0.52466 -0.02465
# Poissons Ratio (z) = 0.07506 -0.00933
#
# Static dielectric constant tensor:
#      x y z
#    x 1.859290 0.000000 0.000000 
#    y 0.000000 1.684290 0.000000 
#    z 0.000000 0.000000 2.233310 
# 
# From -- ./inp_files/31225.got.cif
#   From: 2010.05.17/outbox.cif.g08.bks.cpg/sg70_16_cif.got.tgz:31225.got - 2010.06.03 15:57:51.
