data_PCOD9516733
_publ_section_title
;
Structure prediction by ZEFSAII (Michael W. Deem and Ramdas Pophale) SiO2 
 PCOD9516733
Probable space group: F D D D
;
_chemical_formula_sum "Si O2"
_cell_formula_units_Z 80
_cell_length_a 4.815358
_cell_length_b 28.962587
_cell_length_c 25.072007
_cell_angle_alpha 90.000000
_cell_angle_beta 90.000000
_cell_angle_gamma 90.000000
_cell_volume 3496.673098
_symmetry_space_group_name_H-M "F D D D"
_symmetry_group_IT_number 70
_space_group.IT_coordinate_system_code '2'
_symmetry_cell_setting 'orthorhombic'
loop_
_space_group_symop_operation_xyz
x,y,z
1/4-x,1/4-y,z
x,1/4-y,1/4-z
1/4-x,y,1/4-z
-x,-y,-z
3/4+x,3/4+y,-z
-x,3/4+y,3/4+z
3/4+x,-y,3/4+z
x,1/2+y,1/2+z
1/4-x,3/4-y,1/2+z
x,3/4-y,3/4-z
1/4-x,1/2+y,3/4-z
-x,1/2-y,1/2-z
3/4+x,1/4+y,1/2-z
-x,1/4+y,1/4+z
3/4+x,1/2-y,1/4+z
1/2+x,y,1/2+z
3/4-x,1/4-y,1/2+z
1/2+x,1/4-y,3/4-z
3/4-x,y,3/4-z
1/2-x,-y,1/2-z
1/4+x,3/4+y,1/2-z
1/2-x,3/4+y,1/4+z
1/4+x,-y,1/4+z
1/2+x,1/2+y,z
3/4-x,3/4-y,z
1/2+x,3/4-y,1/4-z
3/4-x,1/2+y,1/4-z
1/2-x,1/2-y,-z
1/4+x,1/4+y,-z
1/2-x,1/4+y,3/4+z
1/4+x,1/2-y,3/4+z
loop_
_atom_site_type_symbol
_atom_site_label
_atom_site_fract_x
_atom_site_fract_y
_atom_site_fract_z
Si Si1 0.625000 0.625000 0.913224
Si Si2 0.357509 0.025341 0.662666
Si Si3 0.541065 0.539944 0.270075
O O1 0.375000 0.637280 0.875000
O O2 0.689824 0.669294 0.949032
O O3 0.625000 0.014333 0.625000
O O4 0.424361 0.056909 0.713431
O O5 0.125000 0.046554 0.625000
O O6 0.196985 0.982157 0.691707
O O7 0.750000 0.500000 0.250000
#
# Coordination Sequence:
#
# PCOD9516733 Si02
#       3
#    16  32  32
#     4  12  32  46  75 114 149 184 252 312 366 438
#     4  11  23  41  75 101 140 195 242 290 367 439
#     4  11  26  45  75 107 149 191 248 299 373 445
#
# _framework density 22.878892
#
# number of rings (size 3 to 8) (size 9 to 14) (size 15 to 20)
#    0.000    0.800    4.000    1.200   16.800    0.000 
#    0.000    1.000    8.800    0.000    0.000    0.000 
#    0.000    0.000    0.000    0.000    0.000    0.000 
#
# Total GULP energy -111698.975911 kJ/mol
# GULP energy per Si atom -5584.948796 kJ/mol
# Density = 2.282682 g / cm^3
# Si number density = 22.878892 Si / 1000 Ang^3
#
#
#
# Elastic Constant Matrix: (Units=GPa)
#
#
# Indices 1 2 3 4 5 6 
#
# 1 113.6934 16.6298 38.7302 0.0000 0.0000 0.0000
# 2 16.6298 82.6934 36.1903 0.0000 0.0000 0.0000
# 3 38.7302 36.1903 162.5392 0.0000 0.0000 0.0000
# 4 0.0000 0.0000 0.0000 37.1684 0.0000 0.0000
# 5 0.0000 0.0000 0.0000 0.0000 50.3890 0.0000
# 6 0.0000 0.0000 0.0000 0.0000 0.0000 18.5706
#
#
#
# Elastic Compliance Matrix: (Units=1/GPa)
#
#
# Indices 1 2 3 4 5 6 
#
# 1 0.009652 -0.001035 -0.002069 0.000000 0.000000 0.000000
# 2 -0.001035 0.013510 -0.002761 0.000000 0.000000 0.000000
# 3 -0.002069 -0.002761 0.007260 0.000000 0.000000 0.000000
# 4 0.000000 0.000000 0.000000 0.026905 0.000000 0.000000
# 5 0.000000 0.000000 0.000000 0.000000 0.019846 0.000000
# 6 0.000000 0.000000 0.000000 0.000000 0.000000 0.053849
#
#
# Mechanical properties :
#
#
# Convention : Reuss Voigt Hill
#
# Bulk Modulus (GPa) = 53.50526 60.22518 56.86522
# Shear Modulus (GPa) = 33.56100 39.05065 36.30583
#
# Velocity S-wave (km/s) = 3.83417 4.13588 3.98788
# Velocity P-wave (km/s) = 6.56035 7.01341 6.79066
#
# Compressibility (1/GPa) = 0.01868975
#
# Stress axis : x y z
#
# Youngs Moduli (GPa) = 103.60580 74.02185 137.73606
#
# Poissons Ratio (x) = 0.07664 0.28503
# Poissons Ratio (y) = 0.10727 0.38033
# Poissons Ratio (z) = 0.21440 0.20439
#
# Static dielectric constant tensor:
#      x y z
#    x 1.957720 0.000000 0.000000 
#    y 0.000000 1.810360 0.000000 
#    z 0.000000 0.000000 1.956330 
# 
# From -- ./inp_files/2456.got.cif
#   From: 2010.05.17/outbox.cif.g08.bks.cpg/sg70_2_cif.got.tgz:2456.got - 2010.06.03 15:57:51.
