data_PCOD9516829
_publ_section_title
;
Structure prediction by ZEFSAII (Michael W. Deem and Ramdas Pophale) SiO2 
 PCOD9516829
Probable space group: F D D D
;
_chemical_formula_sum "Si O2"
_cell_formula_units_Z 144
_cell_length_a 14.587708
_cell_length_b 15.663108
_cell_length_c 25.938621
_cell_angle_alpha 90.000000
_cell_angle_beta 90.000000
_cell_angle_gamma 90.000000
_cell_volume 5926.685576
_symmetry_space_group_name_H-M "F D D D"
_symmetry_group_IT_number 70
_space_group.IT_coordinate_system_code '2'
_symmetry_cell_setting 'orthorhombic'
loop_
_space_group_symop_operation_xyz
x,y,z
1/4-x,1/4-y,z
x,1/4-y,1/4-z
1/4-x,y,1/4-z
-x,-y,-z
3/4+x,3/4+y,-z
-x,3/4+y,3/4+z
3/4+x,-y,3/4+z
x,1/2+y,1/2+z
1/4-x,3/4-y,1/2+z
x,3/4-y,3/4-z
1/4-x,1/2+y,3/4-z
-x,1/2-y,1/2-z
3/4+x,1/4+y,1/2-z
-x,1/4+y,1/4+z
3/4+x,1/2-y,1/4+z
1/2+x,y,1/2+z
3/4-x,1/4-y,1/2+z
1/2+x,1/4-y,3/4-z
3/4-x,y,3/4-z
1/2-x,-y,1/2-z
1/4+x,3/4+y,1/2-z
1/2-x,3/4+y,1/4+z
1/4+x,-y,1/4+z
1/2+x,1/2+y,z
3/4-x,3/4-y,z
1/2+x,3/4-y,1/4-z
3/4-x,1/2+y,1/4-z
1/2-x,1/2-y,-z
1/4+x,1/4+y,-z
1/2-x,1/4+y,3/4+z
1/4+x,1/2-y,3/4+z
loop_
_atom_site_type_symbol
_atom_site_label
_atom_site_fract_x
_atom_site_fract_y
_atom_site_fract_z
Si Si1 0.625000 0.125000 0.264577
Si Si2 0.764828 0.746526 0.879324
Si Si3 0.997830 0.446852 0.094735
Si Si4 0.700705 0.487934 0.551965
Si Si5 0.764505 0.375980 0.288640
O O1 0.675846 0.054323 0.298971
O O2 0.697979 0.175080 0.230127
O O3 0.875000 0.750705 0.875000
O O4 0.741310 0.649983 0.866371
O O5 0.737752 0.783519 0.935351
O O6 0.734972 0.808784 0.833139
O O7 0.097560 0.468438 0.071830
O O8 0.987361 0.499585 0.147185
O O9 0.727315 0.409587 0.515020
O O10 0.875000 0.375000 0.284769
#
# Coordination Sequence:
#
# PCOD9516829 Si02
#       5
#    16  32  32  32  32
#     4  12  26  49  68  94 148 185 236 296 342 428
#     4   9  16  38  62  94 138 165 214 286 344 408
#     4  11  24  43  66  96 135 182 235 283 337 431
#     4  11  24  44  69  98 137 186 227 287 359 405
#     4   9  19  35  67 100 131 175 216 280 358 404
#
# _framework density 24.296886000000001
#
# number of rings (size 3 to 8) (size 9 to 14) (size 15 to 20)
#    0.000    1.778    4.444    2.000    1.556    2.667 
#    4.000    0.000    0.000    0.000    0.000    0.000 
#    0.000    0.000    0.000    0.000    0.000    0.000 
#
# Total GULP energy -201230.181047 kJ/mol
# GULP energy per Si atom -5589.727251 kJ/mol
# Density = 2.424158 g / cm^3
# Si number density = 24.296886 Si / 1000 Ang^3
#
#
#
# Elastic Constant Matrix: (Units=GPa)
#
#
# Indices 1 2 3 4 5 6 
#
# 1 41.5241 7.4070 29.1478 0.0000 0.0000 0.0000
# 2 7.4070 50.5958 17.4141 0.0000 0.0000 0.0000
# 3 29.1478 17.4141 153.3479 0.0000 0.0000 0.0000
# 4 0.0000 0.0000 0.0000 24.2756 0.0000 0.0000
# 5 0.0000 0.0000 0.0000 0.0000 31.6912 0.0000
# 6 0.0000 0.0000 0.0000 0.0000 0.0000 20.6672
#
#
#
# Elastic Compliance Matrix: (Units=1/GPa)
#
#
# Indices 1 2 3 4 5 6 
#
# 1 0.028059 -0.002365 -0.005065 0.000000 0.000000 0.000000
# 2 -0.002365 0.020768 -0.001909 0.000000 0.000000 0.000000
# 3 -0.005065 -0.001909 0.007701 0.000000 0.000000 0.000000
# 4 0.000000 0.000000 0.000000 0.041194 0.000000 0.000000
# 5 0.000000 0.000000 0.000000 0.000000 0.031555 0.000000
# 6 0.000000 0.000000 0.000000 0.000000 0.000000 0.048386
#
#
# Mechanical properties :
#
#
# Convention : Reuss Voigt Hill
#
# Bulk Modulus (GPa) = 26.41941 39.26731 32.84336
# Shear Modulus (GPa) = 23.92853 28.09338 26.01095
#
# Velocity S-wave (km/s) = 3.14162 3.40406 3.27547
# Velocity P-wave (km/s) = 4.90478 5.62554 5.27748
#
# Compressibility (1/GPa) = 0.03785096
#
# Stress axis : x y z
#
# Youngs Moduli (GPa) = 35.63860 48.15178 129.85972
#
# Poissons Ratio (x) = 0.11386 0.65773
# Poissons Ratio (y) = 0.08427 0.24789
# Poissons Ratio (z) = 0.18051 0.09192
#
# Static dielectric constant tensor:
#      x y z
#    x 1.922840 0.000000 0.000000 
#    y 0.000000 1.933530 0.000000 
#    z 0.000000 0.000000 2.002750 
# 
# From -- ./inp_files/34935.got.cif
#   From: 2010.05.17/outbox.cif.g08.bks.cpg/sg70_18_cif.got.tgz:34935.got - 2010.06.03 15:57:51.
