data_PCOD9516526
_publ_section_title
;
Structure prediction by ZEFSAII (Michael W. Deem and Ramdas Pophale) SiO2 
 PCOD9516526
Probable space group: F D D D
;
_chemical_formula_sum "Si O2"
_cell_formula_units_Z 168
_cell_length_a 11.992561
_cell_length_b 22.438059
_cell_length_c 32.824362
_cell_angle_alpha 90.000000
_cell_angle_beta 90.000000
_cell_angle_gamma 90.000000
_cell_volume 8832.700719
_symmetry_space_group_name_H-M "F D D D"
_symmetry_group_IT_number 70
_space_group.IT_coordinate_system_code '2'
_symmetry_cell_setting 'orthorhombic'
loop_
_space_group_symop_operation_xyz
x,y,z
1/4-x,1/4-y,z
x,1/4-y,1/4-z
1/4-x,y,1/4-z
-x,-y,-z
3/4+x,3/4+y,-z
-x,3/4+y,3/4+z
3/4+x,-y,3/4+z
x,1/2+y,1/2+z
1/4-x,3/4-y,1/2+z
x,3/4-y,3/4-z
1/4-x,1/2+y,3/4-z
-x,1/2-y,1/2-z
3/4+x,1/4+y,1/2-z
-x,1/4+y,1/4+z
3/4+x,1/2-y,1/4+z
1/2+x,y,1/2+z
3/4-x,1/4-y,1/2+z
1/2+x,1/4-y,3/4-z
3/4-x,y,3/4-z
1/2-x,-y,1/2-z
1/4+x,3/4+y,1/2-z
1/2-x,3/4+y,1/4+z
1/4+x,-y,1/4+z
1/2+x,1/2+y,z
3/4-x,3/4-y,z
1/2+x,3/4-y,1/4-z
3/4-x,1/2+y,1/4-z
1/2-x,1/2-y,-z
1/4+x,1/4+y,-z
1/2-x,1/4+y,3/4+z
1/4+x,1/2-y,3/4+z
loop_
_atom_site_type_symbol
_atom_site_label
_atom_site_fract_x
_atom_site_fract_y
_atom_site_fract_z
Si Si1 0.094875 0.834946 0.523782
Si Si2 0.416834 0.942935 0.665478
Si Si3 0.985968 0.044958 0.687573
Si Si4 0.811098 0.438632 0.175147
Si Si5 0.625000 0.125000 0.125000
Si Si6 0.294170 0.722831 0.958149
O O1 0.214155 0.813535 0.541032
O O2 0.076411 0.903547 0.536663
O O3 0.002714 0.796495 0.548161
O O4 0.065856 0.829784 0.476256
O O5 0.375000 0.875000 0.668914
O O6 0.476966 0.945636 0.621943
O O7 0.302942 0.979103 0.673925
O O8 0.038364 0.087554 0.653125
O O9 0.095115 0.007888 0.698881
O O10 0.893892 0.994522 0.678595
O O11 0.875000 0.375000 0.177859
O O12 0.250000 0.750000 0.000000
#
# Coordination Sequence:
#
# PCOD9516526 Si02
#       6
#    32  32  32  32   8  32
#     4  11  22  39  63  93 126 169 222 263 326 399
#     4   9  20  34  59  89 121 158 209 273 323 381
#     4  12  24  42  65  94 130 172 217 269 337 401
#     4  11  22  40  60  94 130 169 216 270 330 392
#     4  12  28  44  68 100 138 172 216 290 348 394
#     4  11  20  37  63  92 126 166 219 272 324 392
#
# _framework density 19.020230000000002
#
# number of rings (size 3 to 8) (size 9 to 14) (size 15 to 20)
#    0.000    1.143    3.810    3.429    1.333    0.000 
#    0.000    0.000    0.000    0.000    0.000    0.000 
#    0.000    0.000    0.000    0.000    0.000    0.000 
#
# Total GULP energy -234058.024364 kJ/mol
# GULP energy per Si atom -5572.810104 kJ/mol
# Density = 1.897694 g / cm^3
# Si number density = 19.020230 Si / 1000 Ang^3
#
#
#
# Elastic Constant Matrix: (Units=GPa)
#
#
# Indices 1 2 3 4 5 6 
#
# 1 113.7028 45.1353 60.7273 0.0000 0.0000 0.0000
# 2 45.1353 75.0248 45.1399 0.0000 0.0000 0.0000
# 3 60.7273 45.1399 119.7382 0.0000 0.0000 0.0000
# 4 0.0000 0.0000 0.0000 12.4407 0.0000 0.0000
# 5 0.0000 0.0000 0.0000 0.0000 39.0700 0.0000
# 6 0.0000 0.0000 0.0000 0.0000 0.0000 30.8252
#
#
#
# Elastic Compliance Matrix: (Units=1/GPa)
#
#
# Indices 1 2 3 4 5 6 
#
# 1 0.013445 -0.005155 -0.004876 0.000000 0.000000 0.000000
# 2 -0.005155 0.019216 -0.004630 0.000000 0.000000 0.000000
# 3 -0.004876 -0.004630 0.012570 0.000000 0.000000 0.000000
# 4 0.000000 0.000000 0.000000 0.080381 0.000000 0.000000
# 5 0.000000 0.000000 0.000000 0.000000 0.025595 0.000000
# 6 0.000000 0.000000 0.000000 0.000000 0.000000 0.032441
#
#
# Mechanical properties :
#
#
# Convention : Reuss Voigt Hill
#
# Bulk Modulus (GPa) = 62.85390 67.83009 65.34200
# Shear Modulus (GPa) = 22.90720 26.96473 24.93597
#
# Velocity S-wave (km/s) = 3.47415 3.76930 3.62473
# Velocity P-wave (km/s) = 7.01502 7.39480 7.20741
#
# Compressibility (1/GPa) = 0.01590991
#
# Stress axis : x y z
#
# Youngs Moduli (GPa) = 74.37577 52.04048 79.55748
#
# Poissons Ratio (x) = 0.26828 0.38788
# Poissons Ratio (y) = 0.38343 0.36831
# Poissons Ratio (z) = 0.36262 0.24092
#
# Static dielectric constant tensor:
#      x y z
#    x 1.655020 0.000000 0.000000 
#    y 0.000000 1.665240 0.000000 
#    z 0.000000 0.000000 1.682990 
# 
# From -- ./inp_files/54963.got.cif
#   From: 2010.05.17/outbox.cif.g08.bks.cpg/sg70_28_cif.got.tgz:54963.got - 2010.06.03 15:57:51.
