data_PCOD9516428
_publ_section_title
;
Structure prediction by ZEFSAII (Michael W. Deem and Ramdas Pophale) SiO2 
 PCOD9516428
Probable space group: F D D D
;
_chemical_formula_sum "Si O2"
_cell_formula_units_Z 120
_cell_length_a 27.053756
_cell_length_b 16.194091
_cell_length_c 10.899812
_cell_angle_alpha 90.000000
_cell_angle_beta 90.000000
_cell_angle_gamma 90.000000
_cell_volume 4775.327389
_symmetry_space_group_name_H-M "F D D D"
_symmetry_group_IT_number 70
_space_group.IT_coordinate_system_code '2'
_symmetry_cell_setting 'orthorhombic'
loop_
_space_group_symop_operation_xyz
x,y,z
1/4-x,1/4-y,z
x,1/4-y,1/4-z
1/4-x,y,1/4-z
-x,-y,-z
3/4+x,3/4+y,-z
-x,3/4+y,3/4+z
3/4+x,-y,3/4+z
x,1/2+y,1/2+z
1/4-x,3/4-y,1/2+z
x,3/4-y,3/4-z
1/4-x,1/2+y,3/4-z
-x,1/2-y,1/2-z
3/4+x,1/4+y,1/2-z
-x,1/4+y,1/4+z
3/4+x,1/2-y,1/4+z
1/2+x,y,1/2+z
3/4-x,1/4-y,1/2+z
1/2+x,1/4-y,3/4-z
3/4-x,y,3/4-z
1/2-x,-y,1/2-z
1/4+x,3/4+y,1/2-z
1/2-x,3/4+y,1/4+z
1/4+x,-y,1/4+z
1/2+x,1/2+y,z
3/4-x,3/4-y,z
1/2+x,3/4-y,1/4-z
3/4-x,1/2+y,1/4-z
1/2-x,1/2-y,-z
1/4+x,1/4+y,-z
1/2-x,1/4+y,3/4+z
1/4+x,1/2-y,3/4+z
loop_
_atom_site_type_symbol
_atom_site_label
_atom_site_fract_x
_atom_site_fract_y
_atom_site_fract_z
Si Si1 0.308072 0.981624 0.240732
Si Si2 0.125000 0.125000 0.625000
Si Si3 0.199476 0.817297 0.735235
Si Si4 0.614530 0.875000 0.375000
Si Si5 0.298364 0.330494 0.582241
O O1 0.318289 0.891834 0.189029
O O2 0.250000 0.000000 0.250000
O O3 0.320278 0.008088 0.377728
O O4 0.331390 0.045179 0.143534
O O5 0.087016 0.078714 0.530890
O O6 0.152801 0.874979 0.763545
O O7 0.247493 0.872330 0.705425
O O8 0.210729 0.756235 0.849713
#
# Coordination Sequence:
#
# PCOD9516428 Si02
#       5
#    32   8  32  16  32
#     4  10  25  46  77 110 149 199 255 325 391 473
#     4  12  26  44  66 108 152 208 252 322 376 484
#     4  11  26  48  79 116 152 206 260 329 393 479
#     4  12  25  44  70 115 147 206 256 319 394 462
#     4  11  26  48  77 114 156 208 256 329 397 472
#
# _framework density 25.129166999999999
#
# number of rings (size 3 to 8) (size 9 to 14) (size 15 to 20)
#    0.000    1.067    0.000    4.000   14.933    6.400 
#    9.600    4.000    0.000    0.000    0.000    0.000 
#    0.000    0.000    0.000    0.000    0.000    0.000 
#
# Total GULP energy -167631.642761 kJ/mol
# GULP energy per Si atom -5587.721425 kJ/mol
# Density = 2.507197 g / cm^3
# Si number density = 25.129167 Si / 1000 Ang^3
#
#
#
# Elastic Constant Matrix: (Units=GPa)
#
#
# Indices 1 2 3 4 5 6 
#
# 1 181.6096 46.7785 50.6641 0.0000 0.0000 0.0000
# 2 46.7785 130.0325 62.6688 0.0000 0.0000 0.0000
# 3 50.6641 62.6688 150.6559 0.0000 0.0000 0.0000
# 4 0.0000 0.0000 0.0000 32.9313 0.0000 0.0000
# 5 0.0000 0.0000 0.0000 0.0000 46.2610 0.0000
# 6 0.0000 0.0000 0.0000 0.0000 0.0000 37.5876
#
#
#
# Elastic Compliance Matrix: (Units=1/GPa)
#
#
# Indices 1 2 3 4 5 6 
#
# 1 0.006320 -0.001563 -0.001475 0.000000 0.000000 0.000000
# 2 -0.001563 0.010005 -0.003636 0.000000 0.000000 0.000000
# 3 -0.001475 -0.003636 0.008646 0.000000 0.000000 0.000000
# 4 0.000000 0.000000 0.000000 0.030366 0.000000 0.000000
# 5 0.000000 0.000000 0.000000 0.000000 0.021616 0.000000
# 6 0.000000 0.000000 0.000000 0.000000 0.000000 0.026605
#
#
# Mechanical properties :
#
#
# Convention : Reuss Voigt Hill
#
# Bulk Modulus (GPa) = 86.03609 86.94675 86.49142
# Shear Modulus (GPa) = 41.39675 43.50176 42.44925
#
# Velocity S-wave (km/s) = 4.06317 4.16519 4.11450
# Velocity P-wave (km/s) = 7.50495 7.60308 7.55418
#
# Compressibility (1/GPa) = 0.01162303
#
# Stress axis : x y z
#
# Youngs Moduli (GPa) = 158.21692 99.94942 115.65438
#
# Poissons Ratio (x) = 0.15618 0.17065
# Poissons Ratio (y) = 0.24724 0.42056
# Poissons Ratio (z) = 0.23345 0.36345
#
# Static dielectric constant tensor:
#      x y z
#    x 2.029470 0.000000 0.000000 
#    y 0.000000 2.006580 0.000000 
#    z 0.000000 0.000000 2.179160 
# 
# From -- ./inp_files/20267.got.cif
#   From: 2010.05.17/outbox.cif.g08.bks.cpg/sg70_11_cif.got.tgz:20267.got - 2010.06.03 15:57:51.
