data_PCOD9516812
_publ_section_title
;
Structure prediction by ZEFSAII (Michael W. Deem and Ramdas Pophale) SiO2 
 PCOD9516812
Probable space group: F D D D
;
_chemical_formula_sum "Si O2"
_cell_formula_units_Z 136
_cell_length_a 15.239675
_cell_length_b 23.229391
_cell_length_c 16.410944
_cell_angle_alpha 90.000000
_cell_angle_beta 90.000000
_cell_angle_gamma 90.000000
_cell_volume 5809.611524
_symmetry_space_group_name_H-M "F D D D"
_symmetry_group_IT_number 70
_space_group.IT_coordinate_system_code '2'
_symmetry_cell_setting 'orthorhombic'
loop_
_space_group_symop_operation_xyz
x,y,z
1/4-x,1/4-y,z
x,1/4-y,1/4-z
1/4-x,y,1/4-z
-x,-y,-z
3/4+x,3/4+y,-z
-x,3/4+y,3/4+z
3/4+x,-y,3/4+z
x,1/2+y,1/2+z
1/4-x,3/4-y,1/2+z
x,3/4-y,3/4-z
1/4-x,1/2+y,3/4-z
-x,1/2-y,1/2-z
3/4+x,1/4+y,1/2-z
-x,1/4+y,1/4+z
3/4+x,1/2-y,1/4+z
1/2+x,y,1/2+z
3/4-x,1/4-y,1/2+z
1/2+x,1/4-y,3/4-z
3/4-x,y,3/4-z
1/2-x,-y,1/2-z
1/4+x,3/4+y,1/2-z
1/2-x,3/4+y,1/4+z
1/4+x,-y,1/4+z
1/2+x,1/2+y,z
3/4-x,3/4-y,z
1/2+x,3/4-y,1/4-z
3/4-x,1/2+y,1/4-z
1/2-x,1/2-y,-z
1/4+x,1/4+y,-z
1/2-x,1/4+y,3/4+z
1/4+x,1/2-y,3/4+z
loop_
_atom_site_type_symbol
_atom_site_label
_atom_site_fract_x
_atom_site_fract_y
_atom_site_fract_z
Si Si1 0.161992 0.058783 0.036151
Si Si2 0.531046 0.016432 0.396432
Si Si3 0.678361 0.047768 0.269155
Si Si4 0.625000 0.125000 0.125000
Si Si5 0.969090 0.108072 0.345408
O O1 0.125000 0.125000 0.041602
O O2 0.099619 0.018995 0.974649
O O3 0.247616 0.072625 0.980770
O O4 0.209292 0.032658 0.118901
O O5 0.592218 0.024317 0.316039
O O6 0.474797 0.073645 0.414560
O O7 0.672027 0.081938 0.185620
O O8 0.714730 0.093535 0.333047
O O9 0.750000 0.000000 0.250000
O O10 0.875000 0.089257 0.375000
#
# Coordination Sequence:
#
# PCOD9516812 Si02
#       5
#    32  32  32   8  32
#     4  11  24  44  71 101 139 191 236 294 364 438
#     4  11  24  45  67 104 143 182 238 303 361 430
#     4  11  24  40  69 103 140 190 238 303 368 434
#     4  12  24  44  68 108 150 180 250 300 360 438
#     4  11  24  45  66  99 141 180 235 299 357 428
#
# _framework density 23.409481
#
# number of rings (size 3 to 8) (size 9 to 14) (size 15 to 20)
#    0.000    0.941    2.353    4.941    8.235    1.882 
#    0.000    2.353    0.000    0.000    0.000    0.000 
#    0.000    0.000    0.000    0.000    0.000    0.000 
#
# Total GULP energy -189486.526144 kJ/mol
# GULP energy per Si atom -5573.133122 kJ/mol
# Density = 2.335620 g / cm^3
# Si number density = 23.409481 Si / 1000 Ang^3
#
#
#
# Elastic Constant Matrix: (Units=GPa)
#
#
# Indices 1 2 3 4 5 6 
#
# 1 115.0228 46.6950 21.0916 0.0000 0.0000 0.0000
# 2 46.6950 142.7086 64.3742 0.0000 0.0000 0.0000
# 3 21.0916 64.3742 154.1263 0.0000 0.0000 0.0000
# 4 0.0000 0.0000 0.0000 -185.6938 0.0000 0.0000
# 5 0.0000 0.0000 0.0000 0.0000 -2.3544 0.0000
# 6 0.0000 0.0000 0.0000 0.0000 0.0000 30.1064
#
#
#
# Elastic Compliance Matrix: (Units=1/GPa)
#
#
# Indices 1 2 3 4 5 6 
#
# 1 0.010026 -0.003279 -0.000002 0.000000 0.000000 0.000000
# 2 -0.003279 0.009707 -0.003605 0.000000 0.000000 0.000000
# 3 -0.000002 -0.003605 0.007994 0.000000 0.000000 0.000000
# 4 0.000000 0.000000 0.000000 -0.005385 0.000000 0.000000
# 5 0.000000 0.000000 0.000000 0.000000 -0.424730 0.000000
# 6 0.000000 0.000000 0.000000 0.000000 0.000000 0.033215
#
#
# Mechanical properties :
#
#
# Convention : Reuss Voigt Hill
#
# Bulk Modulus (GPa) = 71.67165 75.13102 73.40133
# Shear Modulus (GPa) = -14.25527 -12.94191 -13.59859
#
# Velocity S-wave (km/s) = -2.47037 -2.35382 -2.41280
# Velocity P-wave (km/s) = 4.74826 4.97761 4.86429
#
# Compressibility (1/GPa) = 0.01395252
#
# Stress axis : x y z
#
# Youngs Moduli (GPa) = 99.74394 103.02155 125.08784
#
# Poissons Ratio (x) = 0.33785 0.00028
# Poissons Ratio (y) = 0.32710 0.45100
# Poissons Ratio (z) = 0.00022 0.37144
#
# Static dielectric constant tensor:
#      x y z
#    x 1.775380 0.000000 0.000000 
#    y 0.000000 1.937970 0.000000 
#    z 0.000000 0.000000 1.706690 
# 
# From -- ./inp_files/27459.got.cif
#   From: 2010.05.17/outbox.cif.g08.bks.cpg/sg70_14_cif.got.tgz:27459.got - 2010.06.03 15:57:51.
