data_PCOD9516342
_publ_section_title
;
Structure prediction by ZEFSAII (Michael W. Deem and Ramdas Pophale) SiO2 
 PCOD9516342
Probable space group: F D D D
;
_chemical_formula_sum "Si O2"
_cell_formula_units_Z 144
_cell_length_a 26.003605
_cell_length_b 17.957845
_cell_length_c 11.853932
_cell_angle_alpha 90.000000
_cell_angle_beta 90.000000
_cell_angle_gamma 90.000000
_cell_volume 5535.415311
_symmetry_space_group_name_H-M "F D D D"
_symmetry_group_IT_number 70
_space_group.IT_coordinate_system_code '2'
_symmetry_cell_setting 'orthorhombic'
loop_
_space_group_symop_operation_xyz
x,y,z
1/4-x,1/4-y,z
x,1/4-y,1/4-z
1/4-x,y,1/4-z
-x,-y,-z
3/4+x,3/4+y,-z
-x,3/4+y,3/4+z
3/4+x,-y,3/4+z
x,1/2+y,1/2+z
1/4-x,3/4-y,1/2+z
x,3/4-y,3/4-z
1/4-x,1/2+y,3/4-z
-x,1/2-y,1/2-z
3/4+x,1/4+y,1/2-z
-x,1/4+y,1/4+z
3/4+x,1/2-y,1/4+z
1/2+x,y,1/2+z
3/4-x,1/4-y,1/2+z
1/2+x,1/4-y,3/4-z
3/4-x,y,3/4-z
1/2-x,-y,1/2-z
1/4+x,3/4+y,1/2-z
1/2-x,3/4+y,1/4+z
1/4+x,-y,1/4+z
1/2+x,1/2+y,z
3/4-x,3/4-y,z
1/2+x,3/4-y,1/4-z
3/4-x,1/2+y,1/4-z
1/2-x,1/2-y,-z
1/4+x,1/4+y,-z
1/2-x,1/4+y,3/4+z
1/4+x,1/2-y,3/4+z
loop_
_atom_site_type_symbol
_atom_site_label
_atom_site_fract_x
_atom_site_fract_y
_atom_site_fract_z
Si Si1 0.897730 0.999943 0.770104
Si Si2 0.256969 0.125000 0.125000
Si Si3 0.288001 0.871614 0.143962
Si Si4 0.308791 0.100449 0.755161
Si Si5 0.659528 0.765835 0.812502
O O1 0.875000 0.958107 0.875000
O O2 0.927016 0.945421 0.687981
O O3 0.928710 0.070421 0.814543
O O4 0.855340 0.035797 0.690865
O O5 0.227072 0.090827 0.233848
O O6 0.289801 0.184517 0.197163
O O7 0.320238 0.930906 0.068209
O O8 0.244140 0.832449 0.067313
O O9 0.300028 0.125000 0.625000
O O10 0.358335 0.044422 0.754930
#
# Coordination Sequence:
#
# PCOD9516342 Si02
#       5
#    32  16  32  32  32
#     4  11  22  44  72 104 151 194 241 316 387 442
#     4  12  22  42  67 108 146 186 249 318 384 444
#     4  12  25  40  73 112 142 194 256 314 374 466
#     4  10  24  46  70 100 154 204 248 302 381 460
#     4  11  23  43  66 101 148 197 242 305 385 446
#
# _framework density 26.014308
#
# number of rings (size 3 to 8) (size 9 to 14) (size 15 to 20)
#    0.000    0.889    3.333    5.333    0.000    4.444 
#    0.000    2.222    0.000    1.333    0.000    0.000 
#    0.000    0.000    0.000    0.000    0.000    0.000 
#
# Total GULP energy -200772.466678 kJ/mol
# GULP energy per Si atom -5577.012963 kJ/mol
# Density = 2.595510 g / cm^3
# Si number density = 26.014308 Si / 1000 Ang^3
#
#
#
# Elastic Constant Matrix: (Units=GPa)
#
#
# Indices 1 2 3 4 5 6 
#
# 1 108.1704 60.2284 70.7110 0.0000 0.0000 0.0000
# 2 60.2284 132.3134 29.1981 0.0000 0.0000 0.0000
# 3 70.7110 29.1981 144.6633 0.0000 0.0000 0.0000
# 4 0.0000 0.0000 0.0000 20.2045 0.0000 0.0000
# 5 0.0000 0.0000 0.0000 0.0000 49.4293 0.0000
# 6 0.0000 0.0000 0.0000 0.0000 0.0000 24.1264
#
#
#
# Elastic Compliance Matrix: (Units=1/GPa)
#
#
# Indices 1 2 3 4 5 6 
#
# 1 0.017574 -0.006389 -0.007301 0.000000 0.000000 0.000000
# 2 -0.006389 0.010233 0.001057 0.000000 0.000000 0.000000
# 3 -0.007301 0.001057 0.010268 0.000000 0.000000 0.000000
# 4 0.000000 0.000000 0.000000 0.049494 0.000000 0.000000
# 5 0.000000 0.000000 0.000000 0.000000 0.020231 0.000000
# 6 0.000000 0.000000 0.000000 0.000000 0.000000 0.041448
#
#
# Mechanical properties :
#
#
# Convention : Reuss Voigt Hill
#
# Bulk Modulus (GPa) = 78.06004 78.38023 78.22013
# Shear Modulus (GPa) = 27.96699 33.75269 30.85984
#
# Velocity S-wave (km/s) = 3.28237 3.60594 3.44795
# Velocity P-wave (km/s) = 6.66611 6.89436 6.78119
#
# Compressibility (1/GPa) = 0.01281065
#
# Stress axis : x y z
#
# Youngs Moduli (GPa) = 56.90097 97.72743 97.39176
#
# Poissons Ratio (x) = 0.62435 0.71104
# Poissons Ratio (y) = 0.36352 -0.10299
# Poissons Ratio (z) = 0.41543 -0.10334
#
# Static dielectric constant tensor:
#      x y z
#    x 2.230000 0.000000 0.000000 
#    y 0.000000 2.232410 0.000000 
#    z 0.000000 0.000000 2.083850 
# 
# From -- ./inp_files/20624.got.cif
#   From: 2010.05.17/outbox.cif.g08.bks.cpg/sg70_11_cif.got.tgz:20624.got - 2010.06.03 15:57:51.
