data_PCOD9516516
_publ_section_title
;
Structure prediction by ZEFSAII (Michael W. Deem and Ramdas Pophale) SiO2 
 PCOD9516516
Probable space group: F D D D
;
_chemical_formula_sum "Si O2"
_cell_formula_units_Z 136
_cell_length_a 12.351680
_cell_length_b 33.004156
_cell_length_c 14.401387
_cell_angle_alpha 90.000000
_cell_angle_beta 90.000000
_cell_angle_gamma 90.000000
_cell_volume 5870.822960
_symmetry_space_group_name_H-M "F D D D"
_symmetry_group_IT_number 70
_space_group.IT_coordinate_system_code '2'
_symmetry_cell_setting 'orthorhombic'
loop_
_space_group_symop_operation_xyz
x,y,z
1/4-x,1/4-y,z
x,1/4-y,1/4-z
1/4-x,y,1/4-z
-x,-y,-z
3/4+x,3/4+y,-z
-x,3/4+y,3/4+z
3/4+x,-y,3/4+z
x,1/2+y,1/2+z
1/4-x,3/4-y,1/2+z
x,3/4-y,3/4-z
1/4-x,1/2+y,3/4-z
-x,1/2-y,1/2-z
3/4+x,1/4+y,1/2-z
-x,1/4+y,1/4+z
3/4+x,1/2-y,1/4+z
1/2+x,y,1/2+z
3/4-x,1/4-y,1/2+z
1/2+x,1/4-y,3/4-z
3/4-x,y,3/4-z
1/2-x,-y,1/2-z
1/4+x,3/4+y,1/2-z
1/2-x,3/4+y,1/4+z
1/4+x,-y,1/4+z
1/2+x,1/2+y,z
3/4-x,3/4-y,z
1/2+x,3/4-y,1/4-z
3/4-x,1/2+y,1/4-z
1/2-x,1/2-y,-z
1/4+x,1/4+y,-z
1/2-x,1/4+y,3/4+z
1/4+x,1/2-y,3/4+z
loop_
_atom_site_type_symbol
_atom_site_label
_atom_site_fract_x
_atom_site_fract_y
_atom_site_fract_z
Si Si1 0.875000 0.375000 0.375000
Si Si2 0.516789 0.174505 0.015610
Si Si3 0.998837 0.082478 0.508454
Si Si4 0.359324 0.509278 0.699487
Si Si5 0.768310 0.694441 0.229097
O O1 0.797813 0.344231 0.314566
O O2 0.504655 0.129281 0.978879
O O3 0.636711 0.188555 0.986054
O O4 0.505308 0.169820 0.128179
O O5 0.423591 0.205763 0.994513
O O6 0.882520 0.067876 0.476546
O O7 0.250000 0.500000 0.750000
O O8 0.439807 0.470947 0.706326
O O9 0.315470 0.527234 0.603189
#
# Coordination Sequence:
#
# PCOD9516516 Si02
#       5
#     8  32  32  32  32
#     4  12  20  36  56  86 108 148 196 248 282 386
#     4   8  15  29  53  77 117 136 195 237 304 337
#     4   8  15  30  51  83 102 152 186 247 279 369
#     4  11  20  35  50  86 114 156 183 253 295 366
#     4  11  22  34  59  83 120 147 206 241 313 353
#
# _framework density 23.165406999999998
#
# number of rings (size 3 to 8) (size 9 to 14) (size 15 to 20)
#    0.000    2.353    2.353    4.235    0.000    0.941 
#    0.000    0.000    0.000    2.824    0.000    6.588 
#    0.000    0.000    0.000    0.000    0.000    0.000 
#
# Total GULP energy -189532.199158 kJ/mol
# GULP energy per Si atom -5574.476446 kJ/mol
# Density = 2.311268 g / cm^3
# Si number density = 23.165407 Si / 1000 Ang^3
#
#
#
# Elastic Constant Matrix: (Units=GPa)
#
#
# Indices 1 2 3 4 5 6 
#
# 1 252.8477 93.1904 50.1309 0.0000 0.0000 0.0000
# 2 93.1904 110.3360 43.0936 0.0000 0.0000 0.0000
# 3 50.1309 43.0936 74.9323 0.0000 0.0000 0.0000
# 4 0.0000 0.0000 0.0000 17.7746 0.0000 0.0000
# 5 0.0000 0.0000 0.0000 0.0000 5.6821 0.0000
# 6 0.0000 0.0000 0.0000 0.0000 0.0000 54.5304
#
#
#
# Elastic Compliance Matrix: (Units=1/GPa)
#
#
# Indices 1 2 3 4 5 6 
#
# 1 0.005852 -0.004402 -0.001383 0.000000 0.000000 0.000000
# 2 -0.004402 0.015000 -0.005682 0.000000 0.000000 0.000000
# 3 -0.001383 -0.005682 0.017538 0.000000 0.000000 0.000000
# 4 0.000000 0.000000 0.000000 0.056260 0.000000 0.000000
# 5 0.000000 0.000000 0.000000 0.000000 0.175990 0.000000
# 6 0.000000 0.000000 0.000000 0.000000 0.000000 0.018338
#
#
# Mechanical properties :
#
#
# Convention : Reuss Voigt Hill
#
# Bulk Modulus (GPa) = 64.69811 90.10510 77.40161
# Shear Modulus (GPa) = 15.76963 32.37748 24.07356
#
# Velocity S-wave (km/s) = 2.61193 3.74259 3.22716
# Velocity P-wave (km/s) = 6.08980 7.59321 6.88268
#
# Compressibility (1/GPa) = 0.01545640
#
# Stress axis : x y z
#
# Youngs Moduli (GPa) = 170.89212 66.66523 57.01816
#
# Poissons Ratio (x) = 0.29347 0.07887
# Poissons Ratio (y) = 0.75228 0.32396
# Poissons Ratio (z) = 0.23638 0.37877
#
# Static dielectric constant tensor:
#      x y z
#    x 1.843770 0.000000 0.000000 
#    y 0.000000 1.858830 0.000000 
#    z 0.000000 0.000000 1.434690 
# 
# From -- ./inp_files/42076.got.cif
#   From: 2010.05.17/outbox.cif.g08.bks.cpg/sg70_22_cif.got.tgz:42076.got - 2010.06.03 15:57:51.
