data_PCOD9516507
_publ_section_title
;
Structure prediction by ZEFSAII (Michael W. Deem and Ramdas Pophale) SiO2 
 PCOD9516507
Probable space group: F D D D
;
_chemical_formula_sum "Si O2"
_cell_formula_units_Z 160
_cell_length_a 9.657613
_cell_length_b 35.853349
_cell_length_c 26.209573
_cell_angle_alpha 90.000000
_cell_angle_beta 90.000000
_cell_angle_gamma 90.000000
_cell_volume 9075.268284
_symmetry_space_group_name_H-M "F D D D"
_symmetry_group_IT_number 70
_space_group.IT_coordinate_system_code '2'
_symmetry_cell_setting 'orthorhombic'
loop_
_space_group_symop_operation_xyz
x,y,z
1/4-x,1/4-y,z
x,1/4-y,1/4-z
1/4-x,y,1/4-z
-x,-y,-z
3/4+x,3/4+y,-z
-x,3/4+y,3/4+z
3/4+x,-y,3/4+z
x,1/2+y,1/2+z
1/4-x,3/4-y,1/2+z
x,3/4-y,3/4-z
1/4-x,1/2+y,3/4-z
-x,1/2-y,1/2-z
3/4+x,1/4+y,1/2-z
-x,1/4+y,1/4+z
3/4+x,1/2-y,1/4+z
1/2+x,y,1/2+z
3/4-x,1/4-y,1/2+z
1/2+x,1/4-y,3/4-z
3/4-x,y,3/4-z
1/2-x,-y,1/2-z
1/4+x,3/4+y,1/2-z
1/2-x,3/4+y,1/4+z
1/4+x,-y,1/4+z
1/2+x,1/2+y,z
3/4-x,3/4-y,z
1/2+x,3/4-y,1/4-z
3/4-x,1/2+y,1/4-z
1/2-x,1/2-y,-z
1/4+x,1/4+y,-z
1/2-x,1/4+y,3/4+z
1/4+x,1/2-y,3/4+z
loop_
_atom_site_type_symbol
_atom_site_label
_atom_site_fract_x
_atom_site_fract_y
_atom_site_fract_z
Si Si1 0.603929 0.875000 0.375000
Si Si2 0.017026 0.952647 0.352118
Si Si3 0.875000 0.875000 0.786551
Si Si4 0.852326 0.448927 0.220440
Si Si5 0.962990 0.224537 0.491732
Si Si6 0.458592 0.270577 0.618265
O O1 0.694131 0.912364 0.376353
O O2 0.505841 0.876197 0.425058
O O3 0.993800 0.952015 0.291527
O O4 0.875000 0.967470 0.375000
O O5 0.140368 0.981290 0.365753
O O6 0.880657 0.911077 0.750261
O O7 0.948222 0.481976 0.242644
O O8 0.693570 0.460868 0.231126
O O9 0.856177 0.450224 0.158684
O O10 0.056109 0.220608 0.441488
O O11 0.625000 0.267858 0.625000
#
# Coordination Sequence:
#
# PCOD9516507 Si02
#       6
#    16  32  16  32  32  32
#     4  11  23  32  52  80 110 144 176 226 286 328
#     4  11  22  35  53  80 115 146 180 224 277 333
#     4  11  20  32  58  84 108 134 187 234 278 320
#     4   9  17  31  55  85 108 134 182 239 267 314
#     4   9  17  34  55  79 109 144 183 221 274 320
#     4   9  19  34  60  80 107 141 189 228 270 322
#
# _framework density 17.630333
#
# number of rings (size 3 to 8) (size 9 to 14) (size 15 to 20)
#    0.000    2.200    2.000    2.700    2.800    0.800 
#    0.000    0.000    4.400   14.400    0.000    0.000 
#    0.000    0.000    0.000    0.000    0.000    0.000 
#
# Total GULP energy -222895.250865 kJ/mol
# GULP energy per Si atom -5572.381272 kJ/mol
# Density = 1.759021 g / cm^3
# Si number density = 17.630333 Si / 1000 Ang^3
#
#
#
# Elastic Constant Matrix: (Units=GPa)
#
#
# Indices 1 2 3 4 5 6 
#
# 1 21.3145 1.1138 15.7865 0.0000 0.0000 0.0000
# 2 1.1138 65.5473 3.4146 0.0000 0.0000 0.0000
# 3 15.7865 3.4146 115.9849 0.0000 0.0000 0.0000
# 4 0.0000 0.0000 0.0000 29.3977 0.0000 0.0000
# 5 0.0000 0.0000 0.0000 0.0000 5.0886 0.0000
# 6 0.0000 0.0000 0.0000 0.0000 0.0000 6.5137
#
#
#
# Elastic Compliance Matrix: (Units=1/GPa)
#
#
# Indices 1 2 3 4 5 6 
#
# 1 0.052194 -0.000518 -0.007089 0.000000 0.000000 0.000000
# 2 -0.000518 0.015285 -0.000380 0.000000 0.000000 0.000000
# 3 -0.007089 -0.000380 0.009598 0.000000 0.000000 0.000000
# 4 0.000000 0.000000 0.000000 0.034016 0.000000 0.000000
# 5 0.000000 0.000000 0.000000 0.000000 0.196519 0.000000
# 6 0.000000 0.000000 0.000000 0.000000 0.000000 0.153523
#
#
# Mechanical properties :
#
#
# Convention : Reuss Voigt Hill
#
# Bulk Modulus (GPa) = 16.36544 27.05295 21.70920
# Shear Modulus (GPa) = 10.05076 20.36877 15.20977
#
# Velocity S-wave (km/s) = 2.39023 3.40270 2.94037
# Velocity P-wave (km/s) = 4.11343 5.55118 4.88549
#
# Compressibility (1/GPa) = 0.06110437
#
# Stress axis : x y z
#
# Youngs Moduli (GPa) = 19.15942 65.42482 104.19022
#
# Poissons Ratio (x) = 0.03387 0.73858
# Poissons Ratio (y) = 0.00992 0.03954
# Poissons Ratio (z) = 0.13582 0.02483
#
# Static dielectric constant tensor:
#      x y z
#    x 1.597300 0.000000 0.000000 
#    y 0.000000 1.576320 0.000000 
#    z 0.000000 0.000000 1.660180 
# 
# From -- ./inp_files/57707.got.cif
#   From: 2010.05.17/outbox.cif.g08.bks.cpg/sg70_29_cif.got.tgz:57707.got - 2010.06.03 15:57:51.
