data_PCOD9516908
_publ_section_title
;
Structure prediction by ZEFSAII (Michael W. Deem and Ramdas Pophale) SiO2 
 PCOD9516908
Probable space group: F D D D
;
_chemical_formula_sum "Si O2"
_cell_formula_units_Z 168
_cell_length_a 13.413625
_cell_length_b 21.331824
_cell_length_c 26.167382
_cell_angle_alpha 90.000000
_cell_angle_beta 90.000000
_cell_angle_gamma 90.000000
_cell_volume 7487.458478
_symmetry_space_group_name_H-M "F D D D"
_symmetry_group_IT_number 70
_space_group.IT_coordinate_system_code '2'
_symmetry_cell_setting 'orthorhombic'
loop_
_space_group_symop_operation_xyz
x,y,z
1/4-x,1/4-y,z
x,1/4-y,1/4-z
1/4-x,y,1/4-z
-x,-y,-z
3/4+x,3/4+y,-z
-x,3/4+y,3/4+z
3/4+x,-y,3/4+z
x,1/2+y,1/2+z
1/4-x,3/4-y,1/2+z
x,3/4-y,3/4-z
1/4-x,1/2+y,3/4-z
-x,1/2-y,1/2-z
3/4+x,1/4+y,1/2-z
-x,1/4+y,1/4+z
3/4+x,1/2-y,1/4+z
1/2+x,y,1/2+z
3/4-x,1/4-y,1/2+z
1/2+x,1/4-y,3/4-z
3/4-x,y,3/4-z
1/2-x,-y,1/2-z
1/4+x,3/4+y,1/2-z
1/2-x,3/4+y,1/4+z
1/4+x,-y,1/4+z
1/2+x,1/2+y,z
3/4-x,3/4-y,z
1/2+x,3/4-y,1/4-z
3/4-x,1/2+y,1/4-z
1/2-x,1/2-y,-z
1/4+x,1/4+y,-z
1/2-x,1/4+y,3/4+z
1/4+x,1/2-y,3/4+z
loop_
_atom_site_type_symbol
_atom_site_label
_atom_site_fract_x
_atom_site_fract_y
_atom_site_fract_z
Si Si1 0.648153 0.426257 0.211320
Si Si2 0.666064 0.688000 0.794088
Si Si3 0.468773 0.537174 0.074429
Si Si4 0.140371 0.473810 0.046747
Si Si5 0.875000 0.875000 0.875000
Si Si6 0.207863 0.500686 0.368834
O O1 0.533794 0.443284 0.198268
O O2 0.730502 0.467771 0.181153
O O3 0.671913 0.442822 0.270269
O O4 0.645565 0.351408 0.202988
O O5 0.625000 0.625000 0.766866
O O6 0.637180 0.747303 0.759243
O O7 0.601095 0.690805 0.845281
O O8 0.558172 0.582158 0.089005
O O9 0.385169 0.543881 0.118669
O O10 0.239755 0.492821 0.076747
O O11 0.049013 0.504044 0.078983
#
# Coordination Sequence:
#
# PCOD9516908 Si02
#       6
#    32  32  32  32   8  32
#     4  11  26  46  71 102 148 187 243 291 374 428
#     4  12  25  45  71 105 142 188 239 304 363 430
#     4  11  27  46  69 107 144 194 236 304 355 444
#     4  11  26  46  71 107 143 192 240 304 360 435
#     4  12  28  44  76 102 144 188 242 296 364 430
#     4  11  25  44  72 103 140 189 241 292 362 428
#
# _framework density 22.437521
#
# number of rings (size 3 to 8) (size 9 to 14) (size 15 to 20)
#    0.000    0.762    3.810    1.714    8.000    1.524 
#    0.000    0.952    0.000    0.000    0.000    0.000 
#    0.000    0.000    0.000    0.000    0.000    0.000 
#
# Total GULP energy -234273.040072 kJ/mol
# GULP energy per Si atom -5577.929526 kJ/mol
# Density = 2.238645 g / cm^3
# Si number density = 22.437521 Si / 1000 Ang^3
#
#
#
# Elastic Constant Matrix: (Units=GPa)
#
#
# Indices 1 2 3 4 5 6 
#
# 1 144.5638 28.8353 33.9119 0.0000 0.0000 0.0000
# 2 28.8353 71.0223 10.9271 0.0000 0.0000 0.0000
# 3 33.9119 10.9271 44.7127 0.0000 0.0000 0.0000
# 4 0.0000 0.0000 0.0000 14.4713 0.0000 0.0000
# 5 0.0000 0.0000 0.0000 0.0000 30.2678 0.0000
# 6 0.0000 0.0000 0.0000 0.0000 0.0000 5.1286
#
#
#
# Elastic Compliance Matrix: (Units=1/GPa)
#
#
# Indices 1 2 3 4 5 6 
#
# 1 0.008876 -0.002668 -0.006080 0.000000 0.000000 0.000000
# 2 -0.002668 0.015432 -0.001748 0.000000 0.000000 0.000000
# 3 -0.006080 -0.001748 0.027403 0.000000 0.000000 0.000000
# 4 0.000000 0.000000 0.000000 0.069102 0.000000 0.000000
# 5 0.000000 0.000000 0.000000 0.000000 0.033038 0.000000
# 6 0.000000 0.000000 0.000000 0.000000 0.000000 0.194984
#
#
# Mechanical properties :
#
#
# Convention : Reuss Voigt Hill
#
# Bulk Modulus (GPa) = 32.55207 45.29415 38.92311
# Shear Modulus (GPa) = 13.15556 22.41518 17.78537
#
# Velocity S-wave (km/s) = 2.42403 3.16413 2.81848
# Velocity P-wave (km/s) = 4.73011 5.79479 5.28931
#
# Compressibility (1/GPa) = 0.03072001
#
# Stress axis : x y z
#
# Youngs Moduli (GPa) = 112.66666 64.79922 36.49211
#
# Poissons Ratio (x) = 0.17290 0.22186
# Poissons Ratio (y) = 0.30062 0.06378
# Poissons Ratio (z) = 0.68497 0.11325
#
# Static dielectric constant tensor:
#      x y z
#    x 1.840310 0.000000 0.000000 
#    y 0.000000 1.878870 0.000000 
#    z 0.000000 0.000000 1.838840 
# 
# From -- ./inp_files/58462.got.cif
#   From: 2010.05.17/outbox.cif.g08.bks.cpg/sg70_30_cif.got.tgz:58462.got - 2010.06.03 15:57:51.
