data_PCOD9516983
_publ_section_title
;
Structure prediction by ZEFSAII (Michael W. Deem and Ramdas Pophale) SiO2 
 PCOD9516983
Probable space group: F D D D
;
_chemical_formula_sum "Si O2"
_cell_formula_units_Z 176
_cell_length_a 12.156477
_cell_length_b 26.324213
_cell_length_c 25.670413
_cell_angle_alpha 90.000000
_cell_angle_beta 90.000000
_cell_angle_gamma 90.000000
_cell_volume 8214.780903
_symmetry_space_group_name_H-M "F D D D"
_symmetry_group_IT_number 70
_space_group.IT_coordinate_system_code '2'
_symmetry_cell_setting 'orthorhombic'
loop_
_space_group_symop_operation_xyz
x,y,z
1/4-x,1/4-y,z
x,1/4-y,1/4-z
1/4-x,y,1/4-z
-x,-y,-z
3/4+x,3/4+y,-z
-x,3/4+y,3/4+z
3/4+x,-y,3/4+z
x,1/2+y,1/2+z
1/4-x,3/4-y,1/2+z
x,3/4-y,3/4-z
1/4-x,1/2+y,3/4-z
-x,1/2-y,1/2-z
3/4+x,1/4+y,1/2-z
-x,1/4+y,1/4+z
3/4+x,1/2-y,1/4+z
1/2+x,y,1/2+z
3/4-x,1/4-y,1/2+z
1/2+x,1/4-y,3/4-z
3/4-x,y,3/4-z
1/2-x,-y,1/2-z
1/4+x,3/4+y,1/2-z
1/2-x,3/4+y,1/4+z
1/4+x,-y,1/4+z
1/2+x,1/2+y,z
3/4-x,3/4-y,z
1/2+x,3/4-y,1/4-z
3/4-x,1/2+y,1/4-z
1/2-x,1/2-y,-z
1/4+x,1/4+y,-z
1/2-x,1/4+y,3/4+z
1/4+x,1/2-y,3/4+z
loop_
_atom_site_type_symbol
_atom_site_label
_atom_site_fract_x
_atom_site_fract_y
_atom_site_fract_z
Si Si1 0.314435 0.495700 0.110127
Si Si2 0.502456 0.602991 0.677327
Si Si3 0.625000 0.329681 0.125000
Si Si4 0.533324 0.504963 0.170380
Si Si5 0.635208 0.343954 0.719700
Si Si6 0.851157 0.315486 0.511741
O O1 0.252198 0.542625 0.082588
O O2 0.227590 0.457408 0.136099
O O3 0.412118 0.514502 0.147734
O O4 0.370341 0.463200 0.064577
O O5 0.625000 0.625000 0.679924
O O6 0.448486 0.625000 0.625000
O O7 0.442338 0.617764 0.730215
O O8 0.645844 0.365620 0.175102
O O9 0.625000 0.507184 0.125000
O O10 0.536692 0.447839 0.193155
O O11 0.576981 0.542183 0.215303
O O12 0.530700 0.313256 0.742591
O O13 0.875000 0.375000 0.515371
#
# Coordination Sequence:
#
# PCOD9516983 Si02
#       6
#    32  32  16  32  32  32
#     4  12  26  48  72 106 149 190 250 308 364 452
#     4  11  27  50  72 102 148 197 247 305 365 437
#     4  12  26  42  75 108 145 200 252 304 378 438
#     4  12  25  44  75 108 145 192 241 302 384 439
#     4  12  24  44  73 108 150 192 241 312 371 450
#     4  12  25  47  70 108 150 189 242 313 372 438
#
# _framework density 21.424796000000001
#
# number of rings (size 3 to 8) (size 9 to 14) (size 15 to 20)
#    0.000    0.182    6.364    2.727    5.091    0.364 
#    0.000    2.727    0.000    0.000    0.000    0.000 
#    0.000    0.000    0.000    0.000    0.000    0.000 
#
# Total GULP energy -246124.919348 kJ/mol
# GULP energy per Si atom -5593.748167 kJ/mol
# Density = 2.137603 g / cm^3
# Si number density = 21.424796 Si / 1000 Ang^3
#
#
#
# Elastic Constant Matrix: (Units=GPa)
#
#
# Indices 1 2 3 4 5 6 
#
# 1 128.7868 29.9668 49.6997 0.0000 0.0000 0.0000
# 2 29.9668 92.7238 24.5081 0.0000 0.0000 0.0000
# 3 49.6997 24.5081 105.1216 0.0000 0.0000 0.0000
# 4 0.0000 0.0000 0.0000 34.8561 0.0000 0.0000
# 5 0.0000 0.0000 0.0000 0.0000 24.2788 0.0000
# 6 0.0000 0.0000 0.0000 0.0000 0.0000 32.1724
#
#
#
# Elastic Compliance Matrix: (Units=1/GPa)
#
#
# Indices 1 2 3 4 5 6 
#
# 1 0.009861 -0.002083 -0.004177 0.000000 0.000000 0.000000
# 2 -0.002083 0.011933 -0.001797 0.000000 0.000000 0.000000
# 3 -0.004177 -0.001797 0.011906 0.000000 0.000000 0.000000
# 4 0.000000 0.000000 0.000000 0.028689 0.000000 0.000000
# 5 0.000000 0.000000 0.000000 0.000000 0.041188 0.000000
# 6 0.000000 0.000000 0.000000 0.000000 0.000000 0.031083
#
#
# Mechanical properties :
#
#
# Convention : Reuss Voigt Hill
#
# Bulk Modulus (GPa) = 56.86054 59.44237 58.15146
# Shear Modulus (GPa) = 31.92098 33.09196 32.50647
#
# Velocity S-wave (km/s) = 3.86412 3.93436 3.89940
# Velocity P-wave (km/s) = 6.81951 6.96016 6.89019
#
# Compressibility (1/GPa) = 0.01758689
#
# Stress axis : x y z
#
# Youngs Moduli (GPa) = 101.40709 83.80149 83.98834
#
# Poissons Ratio (x) = 0.17456 0.35078
# Poissons Ratio (y) = 0.21124 0.15095
# Poissons Ratio (z) = 0.42354 0.15061
#
# Static dielectric constant tensor:
#      x y z
#    x 1.829310 0.000000 0.000000 
#    y 0.000000 1.791300 0.000000 
#    z 0.000000 0.000000 1.760290 
# 
# From -- ./inp_files/57603.got.cif
#   From: 2010.05.17/outbox.cif.g08.bks.cpg/sg70_29_cif.got.tgz:57603.got - 2010.06.03 15:57:51.
