data_PCOD9516113
_publ_section_title
;
Structure prediction by ZEFSAII (Michael W. Deem and Ramdas Pophale) SiO2 
 PCOD9516113
Probable space group: F D D D
;
_chemical_formula_sum "Si O2"
_cell_formula_units_Z 152
_cell_length_a 26.275288
_cell_length_b 14.279651
_cell_length_c 20.315043
_cell_angle_alpha 90.000000
_cell_angle_beta 90.000000
_cell_angle_gamma 90.000000
_cell_volume 7622.243597
_symmetry_space_group_name_H-M "F D D D"
_symmetry_group_IT_number 70
_space_group.IT_coordinate_system_code '2'
_symmetry_cell_setting 'orthorhombic'
loop_
_space_group_symop_operation_xyz
x,y,z
1/4-x,1/4-y,z
x,1/4-y,1/4-z
1/4-x,y,1/4-z
-x,-y,-z
3/4+x,3/4+y,-z
-x,3/4+y,3/4+z
3/4+x,-y,3/4+z
x,1/2+y,1/2+z
1/4-x,3/4-y,1/2+z
x,3/4-y,3/4-z
1/4-x,1/2+y,3/4-z
-x,1/2-y,1/2-z
3/4+x,1/4+y,1/2-z
-x,1/4+y,1/4+z
3/4+x,1/2-y,1/4+z
1/2+x,y,1/2+z
3/4-x,1/4-y,1/2+z
1/2+x,1/4-y,3/4-z
3/4-x,y,3/4-z
1/2-x,-y,1/2-z
1/4+x,3/4+y,1/2-z
1/2-x,3/4+y,1/4+z
1/4+x,-y,1/4+z
1/2+x,1/2+y,z
3/4-x,3/4-y,z
1/2+x,3/4-y,1/4-z
3/4-x,1/2+y,1/4-z
1/2-x,1/2-y,-z
1/4+x,1/4+y,-z
1/2-x,1/4+y,3/4+z
1/4+x,1/2-y,3/4+z
loop_
_atom_site_type_symbol
_atom_site_label
_atom_site_fract_x
_atom_site_fract_y
_atom_site_fract_z
Si Si1 0.875000 0.375000 0.875000
Si Si2 0.046630 0.875000 0.375000
Si Si3 0.678677 0.173214 0.905436
Si Si4 0.680280 0.081124 0.765200
Si Si5 0.463774 0.631392 0.201972
Si Si6 0.460088 0.813999 0.974544
O O1 0.837030 0.428531 0.924124
O O2 0.076680 0.784651 0.349833
O O3 0.010109 0.831739 0.431136
O O4 0.625000 0.125000 0.918253
O O5 0.695853 0.127472 0.835895
O O6 0.711267 0.142358 0.968081
O O7 0.625000 0.125000 0.749109
O O8 0.726182 0.099362 0.715068
O O9 0.680350 0.968901 0.772833
O O10 0.454422 0.625000 0.125000
O O11 0.454771 0.534733 0.239295
#
# Coordination Sequence:
#
# PCOD9516113 Si02
#       6
#     8  16  32  32  32  32
#     4  10  24  44  64  96 134 164 222 276 332 406
#     4  11  24  41  66  94 134 168 220 281 328 401
#     4  11  22  40  64  96 128 170 223 269 335 397
#     4  10  23  42  61  97 132 173 229 269 329 402
#     4  11  22  42  70  93 136 177 217 280 333 396
#     4  11  22  43  65  97 130 172 219 276 336 394
#
# _framework density 19.941635000000002
#
# number of rings (size 3 to 8) (size 9 to 14) (size 15 to 20)
#    0.000    1.263    5.263    0.632    0.000    3.789 
#    0.000    4.211    0.000    0.000    0.000    0.000 
#    0.000    0.000    0.000    0.000    0.000    0.000 
#
# Total GULP energy -212132.441603 kJ/mol
# GULP energy per Si atom -5582.432674 kJ/mol
# Density = 1.989625 g / cm^3
# Si number density = 19.941635 Si / 1000 Ang^3
#
#
#
# Elastic Constant Matrix: (Units=GPa)
#
#
# Indices 1 2 3 4 5 6 
#
# 1 81.9633 44.9462 15.1834 0.0000 0.0000 0.0000
# 2 44.9462 192.8988 55.5471 0.0000 0.0000 0.0000
# 3 15.1834 55.5471 57.0152 0.0000 0.0000 0.0000
# 4 0.0000 0.0000 0.0000 28.1296 0.0000 0.0000
# 5 0.0000 0.0000 0.0000 0.0000 8.3388 0.0000
# 6 0.0000 0.0000 0.0000 0.0000 0.0000 14.3554
#
#
#
# Elastic Compliance Matrix: (Units=1/GPa)
#
#
# Indices 1 2 3 4 5 6 
#
# 1 0.014012 -0.003044 -0.000765 0.000000 0.000000 0.000000
# 2 -0.003044 0.007867 -0.006854 0.000000 0.000000 0.000000
# 3 -0.000765 -0.006854 0.024420 0.000000 0.000000 0.000000
# 4 0.000000 0.000000 0.000000 0.035550 0.000000 0.000000
# 5 0.000000 0.000000 0.000000 0.000000 0.119921 0.000000
# 6 0.000000 0.000000 0.000000 0.000000 0.000000 0.069660
#
#
# Mechanical properties :
#
#
# Convention : Reuss Voigt Hill
#
# Bulk Modulus (GPa) = 40.04473 62.58116 51.31295
# Shear Modulus (GPa) = 16.60683 24.57814 20.59249
#
# Velocity S-wave (km/s) = 2.88891 3.51451 3.21695
# Velocity P-wave (km/s) = 5.59037 6.92238 6.29173
#
# Compressibility (1/GPa) = 0.02497207
#
# Stress axis : x y z
#
# Youngs Moduli (GPa) = 71.36826 127.11306 40.94962
#
# Poissons Ratio (x) = 0.38698 0.03134
# Poissons Ratio (y) = 0.21727 0.28066
# Poissons Ratio (z) = 0.05463 0.87120
#
# Static dielectric constant tensor:
#      x y z
#    x 1.736740 0.000000 0.000000 
#    y 0.000000 1.704630 0.000000 
#    z 0.000000 0.000000 1.744720 
# 
# From -- ./inp_files/42786.got.cif
#   From: 2010.05.17/outbox.cif.g08.bks.cpg/sg70_22_cif.got.tgz:42786.got - 2010.06.03 15:57:51.
