data_PCOD9516993
_publ_section_title
;
Structure prediction by ZEFSAII (Michael W. Deem and Ramdas Pophale) SiO2 
 PCOD9516993
Probable space group: F D D D
;
_chemical_formula_sum "Si O2"
_cell_formula_units_Z 160
_cell_length_a 16.558065
_cell_length_b 17.984246
_cell_length_c 22.798816
_cell_angle_alpha 90.000000
_cell_angle_beta 90.000000
_cell_angle_gamma 90.000000
_cell_volume 6789.129788
_symmetry_space_group_name_H-M "F D D D"
_symmetry_group_IT_number 70
_space_group.IT_coordinate_system_code '2'
_symmetry_cell_setting 'orthorhombic'
loop_
_space_group_symop_operation_xyz
x,y,z
1/4-x,1/4-y,z
x,1/4-y,1/4-z
1/4-x,y,1/4-z
-x,-y,-z
3/4+x,3/4+y,-z
-x,3/4+y,3/4+z
3/4+x,-y,3/4+z
x,1/2+y,1/2+z
1/4-x,3/4-y,1/2+z
x,3/4-y,3/4-z
1/4-x,1/2+y,3/4-z
-x,1/2-y,1/2-z
3/4+x,1/4+y,1/2-z
-x,1/4+y,1/4+z
3/4+x,1/2-y,1/4+z
1/2+x,y,1/2+z
3/4-x,1/4-y,1/2+z
1/2+x,1/4-y,3/4-z
3/4-x,y,3/4-z
1/2-x,-y,1/2-z
1/4+x,3/4+y,1/2-z
1/2-x,3/4+y,1/4+z
1/4+x,-y,1/4+z
1/2+x,1/2+y,z
3/4-x,3/4-y,z
1/2+x,3/4-y,1/4-z
3/4-x,1/2+y,1/4-z
1/2-x,1/2-y,-z
1/4+x,1/4+y,-z
1/2-x,1/4+y,3/4+z
1/4+x,1/2-y,3/4+z
loop_
_atom_site_type_symbol
_atom_site_label
_atom_site_fract_x
_atom_site_fract_y
_atom_site_fract_z
Si Si1 0.033927 0.782743 0.649106
Si Si2 0.042051 0.510071 0.161518
Si Si3 0.156462 0.388726 0.005931
Si Si4 0.625000 0.625000 0.524820
Si Si5 0.699660 0.875000 0.875000
Si Si6 0.515705 0.666304 0.819103
O O1 0.125000 0.784595 0.625000
O O2 0.049203 0.817082 0.714243
O O3 0.981651 0.842986 0.611113
O O4 0.000337 0.700407 0.638705
O O5 0.125000 0.494768 0.125000
O O6 0.040606 0.456916 0.217882
O O7 0.055107 0.591128 0.185986
O O8 0.978874 0.484734 0.114046
O O9 0.153397 0.386011 0.936333
O O10 0.068121 0.401903 0.034270
O O11 0.582262 0.569971 0.480145
#
# Coordination Sequence:
#
# PCOD9516993 Si02
#       6
#    32  32  32  16  16  32
#     4   9  19  38  61  84 126 170 206 263 338 381
#     4   9  20  40  59  83 123 164 205 261 327 379
#     4   9  20  38  57  85 128 165 200 270 326 373
#     4  12  21  38  68  98 122 173 224 262 330 412
#     4  12  19  32  64  97 116 164 230 260 312 411
#     4   9  21  42  60  86 132 172 204 273 336 380
#
# _framework density 23.567084999999999
#
# number of rings (size 3 to 8) (size 9 to 14) (size 15 to 20)
#    0.000    2.400    0.000    4.800    0.000    3.200 
#   10.800    0.000   17.600    0.000    0.000    0.000 
#    0.000    0.000    0.000    0.000    0.000    0.000 
#
# Total GULP energy -223030.701994 kJ/mol
# GULP energy per Si atom -5575.767550 kJ/mol
# Density = 2.351345 g / cm^3
# Si number density = 23.567085 Si / 1000 Ang^3
#
#
#
# Elastic Constant Matrix: (Units=GPa)
#
#
# Indices 1 2 3 4 5 6 
#
# 1 25.9741 15.8943 26.7857 0.0000 0.0000 0.0000
# 2 15.8943 105.2349 55.2612 0.0000 0.0000 0.0000
# 3 26.7857 55.2612 197.3300 0.0000 0.0000 0.0000
# 4 0.0000 0.0000 0.0000 26.4680 0.0000 0.0000
# 5 0.0000 0.0000 0.0000 0.0000 21.4190 0.0000
# 6 0.0000 0.0000 0.0000 0.0000 0.0000 22.6040
#
#
#
# Elastic Compliance Matrix: (Units=1/GPa)
#
#
# Indices 1 2 3 4 5 6 
#
# 1 0.046396 -0.004338 -0.005083 0.000000 0.000000 0.000000
# 2 -0.004338 0.011547 -0.002645 0.000000 0.000000 0.000000
# 3 -0.005083 -0.002645 0.006498 0.000000 0.000000 0.000000
# 4 0.000000 0.000000 0.000000 0.037781 0.000000 0.000000
# 5 0.000000 0.000000 0.000000 0.000000 0.046688 0.000000
# 6 0.000000 0.000000 0.000000 0.000000 0.000000 0.044240
#
#
# Mechanical properties :
#
#
# Convention : Reuss Voigt Hill
#
# Bulk Modulus (GPa) = 24.80822 58.26905 41.53864
# Shear Modulus (GPa) = 21.67143 29.47139 25.57141
#
# Velocity S-wave (km/s) = 3.03572 3.54012 3.29758
# Velocity P-wave (km/s) = 4.77880 6.44115 5.67121
#
# Compressibility (1/GPa) = 0.04030922
#
# Stress axis : x y z
#
# Youngs Moduli (GPa) = 21.55341 86.60577 153.88795
#
# Poissons Ratio (x) = 0.37573 0.78220
# Poissons Ratio (y) = 0.09351 0.40698
# Poissons Ratio (z) = 0.10955 0.22904
#
# Static dielectric constant tensor:
#      x y z
#    x 1.918640 0.000000 0.000000 
#    y 0.000000 2.016450 0.000000 
#    z 0.000000 0.000000 1.890850 
# 
# From -- ./inp_files/36358.got.cif
#   From: 2010.05.17/outbox.cif.g08.bks.cpg/sg70_19_cif.got.tgz:36358.got - 2010.06.03 15:57:51.
