data_PCOD9516958
_publ_section_title
;
Structure prediction by ZEFSAII (Michael W. Deem and Ramdas Pophale) SiO2 
 PCOD9516958
Probable space group: F D D D
;
_chemical_formula_sum "Si O2"
_cell_formula_units_Z 176
_cell_length_a 23.320484
_cell_length_b 16.411305
_cell_length_c 22.314569
_cell_angle_alpha 90.000000
_cell_angle_beta 90.000000
_cell_angle_gamma 90.000000
_cell_volume 8540.222379
_symmetry_space_group_name_H-M "F D D D"
_symmetry_group_IT_number 70
_space_group.IT_coordinate_system_code '2'
_symmetry_cell_setting 'orthorhombic'
loop_
_space_group_symop_operation_xyz
x,y,z
1/4-x,1/4-y,z
x,1/4-y,1/4-z
1/4-x,y,1/4-z
-x,-y,-z
3/4+x,3/4+y,-z
-x,3/4+y,3/4+z
3/4+x,-y,3/4+z
x,1/2+y,1/2+z
1/4-x,3/4-y,1/2+z
x,3/4-y,3/4-z
1/4-x,1/2+y,3/4-z
-x,1/2-y,1/2-z
3/4+x,1/4+y,1/2-z
-x,1/4+y,1/4+z
3/4+x,1/2-y,1/4+z
1/2+x,y,1/2+z
3/4-x,1/4-y,1/2+z
1/2+x,1/4-y,3/4-z
3/4-x,y,3/4-z
1/2-x,-y,1/2-z
1/4+x,3/4+y,1/2-z
1/2-x,3/4+y,1/4+z
1/4+x,-y,1/4+z
1/2+x,1/2+y,z
3/4-x,3/4-y,z
1/2+x,3/4-y,1/4-z
3/4-x,1/2+y,1/4-z
1/2-x,1/2-y,-z
1/4+x,1/4+y,-z
1/2-x,1/4+y,3/4+z
1/4+x,1/2-y,3/4+z
loop_
_atom_site_type_symbol
_atom_site_label
_atom_site_fract_x
_atom_site_fract_y
_atom_site_fract_z
Si Si1 0.375000 0.057203 0.375000
Si Si2 0.930915 0.625000 0.625000
Si Si3 0.308334 0.610203 0.261924
Si Si4 0.220592 0.049329 0.197032
Si Si5 0.682411 0.067934 0.294313
Si Si6 0.375000 0.375000 0.008202
Si Si7 0.342241 0.236000 0.657956
O O1 0.346059 0.107102 0.431169
O O2 0.322513 0.004098 0.344974
O O3 0.888570 0.698614 0.612315
O O4 0.973652 0.657769 0.672633
O O5 0.321531 0.514927 0.246080
O O6 0.240200 0.614650 0.274913
O O7 0.318643 0.666948 0.202674
O O8 0.180814 0.123133 0.218672
O O9 0.250000 0.000000 0.250000
O O10 0.625000 0.125000 0.293046
O O11 0.696183 0.037814 0.362824
O O12 0.375329 0.453343 0.048932
#
# Coordination Sequence:
#
# PCOD9516958 Si02
#       7
#    16  16  32  32  32  16  32
#     4  12  26  45  69 108 148 188 228 302 371 431
#     4  12  24  43  70 100 137 190 230 284 348 424
#     4  11  26  47  68 106 145 180 242 300 350 422
#     4  12  26  43  68 104 142 185 230 291 362 424
#     4  11  26  46  75 101 134 196 245 290 353 424
#     4  12  24  45  64 106 136 177 238 278 356 426
#     4  12  24  45  72 101 141 185 240 292 349 429
#
# _framework density 20.608362
#
# number of rings (size 3 to 8) (size 9 to 14) (size 15 to 20)
#    0.000    0.364    6.364    1.091    5.091    1.455 
#    0.000    2.273    0.000    0.000    0.000    0.000 
#    0.000    0.000    0.000    0.000    0.000    0.000 
#
# Total GULP energy -244984.198528 kJ/mol
# GULP energy per Si atom -5567.822694 kJ/mol
# Density = 2.056146 g / cm^3
# Si number density = 20.608362 Si / 1000 Ang^3
#
#
#
# Elastic Constant Matrix: (Units=GPa)
#
#
# Indices 1 2 3 4 5 6 
#
# 1 133.4422 54.9229 59.1568 0.0000 0.0000 0.0000
# 2 54.9229 89.3977 42.1930 0.0000 0.0000 0.0000
# 3 59.1568 42.1930 108.1991 0.0000 0.0000 0.0000
# 4 0.0000 0.0000 0.0000 35.6269 0.0000 0.0000
# 5 0.0000 0.0000 0.0000 0.0000 21.6609 0.0000
# 6 0.0000 0.0000 0.0000 0.0000 0.0000 -21.5361
#
#
#
# Elastic Compliance Matrix: (Units=1/GPa)
#
#
# Indices 1 2 3 4 5 6 
#
# 1 0.011469 -0.005009 -0.004318 0.000000 0.000000 0.000000
# 2 -0.005009 0.015896 -0.003460 0.000000 0.000000 0.000000
# 3 -0.004318 -0.003460 0.012952 0.000000 0.000000 0.000000
# 4 0.000000 0.000000 0.000000 0.028069 0.000000 0.000000
# 5 0.000000 0.000000 0.000000 0.000000 0.046166 0.000000
# 6 0.000000 0.000000 0.000000 0.000000 0.000000 -0.046434
#
#
# Mechanical properties :
#
#
# Convention : Reuss Voigt Hill
#
# Bulk Modulus (GPa) = 67.82160 71.50937 69.66549
# Shear Modulus (GPa) = 50.70604 18.80143 34.75373
#
# Velocity S-wave (km/s) = 4.96568 3.02374 4.11102
# Velocity P-wave (km/s) = 8.11533 6.85312 7.51078
#
# Compressibility (1/GPa) = 0.01474456
#
# Stress axis : x y z
#
# Youngs Moduli (GPa) = 87.18826 62.90758 77.20648
#
# Poissons Ratio (x) = 0.31508 0.33335
# Poissons Ratio (y) = 0.43669 0.26717
# Poissons Ratio (z) = 0.37645 0.21769
#
# Static dielectric constant tensor:
#      x y z
#    x 1.690400 0.000000 0.000000 
#    y 0.000000 1.728540 0.000000 
#    z 0.000000 0.000000 2.022940 
# 
# From -- ./inp_files/53655.got.cif
#   From: 2010.05.17/outbox.cif.g08.bks.cpg/sg70_27_cif.got.tgz:53655.got - 2010.06.03 15:57:51.
