data_PCOD9516298
_publ_section_title
;
Structure prediction by ZEFSAII (Michael W. Deem and Ramdas Pophale) SiO2 
 PCOD9516298
Probable space group: F D D D
;
_chemical_formula_sum "Si O2"
_cell_formula_units_Z 216
_cell_length_a 22.285557
_cell_length_b 14.553734
_cell_length_c 27.796979
_cell_angle_alpha 90.000000
_cell_angle_beta 90.000000
_cell_angle_gamma 90.000000
_cell_volume 9015.618482
_symmetry_space_group_name_H-M "F D D D"
_symmetry_group_IT_number 70
_space_group.IT_coordinate_system_code '2'
_symmetry_cell_setting 'orthorhombic'
loop_
_space_group_symop_operation_xyz
x,y,z
1/4-x,1/4-y,z
x,1/4-y,1/4-z
1/4-x,y,1/4-z
-x,-y,-z
3/4+x,3/4+y,-z
-x,3/4+y,3/4+z
3/4+x,-y,3/4+z
x,1/2+y,1/2+z
1/4-x,3/4-y,1/2+z
x,3/4-y,3/4-z
1/4-x,1/2+y,3/4-z
-x,1/2-y,1/2-z
3/4+x,1/4+y,1/2-z
-x,1/4+y,1/4+z
3/4+x,1/2-y,1/4+z
1/2+x,y,1/2+z
3/4-x,1/4-y,1/2+z
1/2+x,1/4-y,3/4-z
3/4-x,y,3/4-z
1/2-x,-y,1/2-z
1/4+x,3/4+y,1/2-z
1/2-x,3/4+y,1/4+z
1/4+x,-y,1/4+z
1/2+x,1/2+y,z
3/4-x,3/4-y,z
1/2+x,3/4-y,1/4-z
3/4-x,1/2+y,1/4-z
1/2-x,1/2-y,-z
1/4+x,1/4+y,-z
1/2-x,1/4+y,3/4+z
1/4+x,1/2-y,3/4+z
loop_
_atom_site_type_symbol
_atom_site_label
_atom_site_fract_x
_atom_site_fract_y
_atom_site_fract_z
Si Si1 0.253723 0.140276 0.230704
Si Si2 0.156949 0.027587 0.880263
Si Si3 0.838508 0.489789 0.285097
Si Si4 0.375000 0.375000 0.875000
Si Si5 0.059701 0.875000 0.875000
Si Si6 0.225748 0.230665 0.692751
Si Si7 0.107407 0.898495 0.573758
Si Si8 0.748127 0.980055 0.305862
O O1 0.292241 0.067543 0.263621
O O2 0.273107 0.143014 0.174618
O O3 0.263268 0.239905 0.252469
O O4 0.186470 0.102104 0.240397
O O5 0.125000 0.125000 0.880167
O O6 0.104432 0.956122 0.891497
O O7 0.216354 0.020992 0.913834
O O8 0.183325 0.997510 0.828449
O O9 0.839090 0.442494 0.338536
O O10 0.893754 0.561072 0.287833
O O11 0.160248 0.275625 0.683955
O O12 0.229289 0.122650 0.684074
O O13 0.125000 0.859779 0.625000
O O14 0.044890 0.948539 0.577535
O O15 0.750000 0.000000 0.250000
#
# Coordination Sequence:
#
# PCOD9516298 Si02
#       8
#    32  32  32   8  16  32  32  32
#     4  10  26  47  75 102 153 197 256 311 401 452
#     4  12  29  48  76 109 158 207 259 318 401 470
#     4  10  24  44  67 111 143 191 249 307 373 464
#     4  12  22  40  72 104 150 180 254 308 376 444
#     4  12  27  50  76 110 158 208 261 326 390 488
#     4  11  25  51  75 112 144 198 255 318 385 465
#     4  11  23  44  79 102 146 190 248 308 377 442
#     4  12  28  47  74 114 151 193 258 318 381 467
#
# _framework density 23.958423
#
# number of rings (size 3 to 8) (size 9 to 14) (size 15 to 20)
#    0.000    0.889    3.704    0.889   12.444    2.963 
#    0.000    0.000    0.000    0.000    0.000    0.000 
#    0.000    0.000    0.000    0.000    0.000    0.000 
#
# Total GULP energy -300626.887689 kJ/mol
# GULP energy per Si atom -5567.164587 kJ/mol
# Density = 2.390389 g / cm^3
# Si number density = 23.958423 Si / 1000 Ang^3
#
#
#
# Elastic Constant Matrix: (Units=GPa)
#
#
# Indices 1 2 3 4 5 6 
#
# 1 70.6306 -2.0357 18.7814 0.0000 0.0000 0.0000
# 2 -2.0357 86.6449 -5.1895 0.0000 0.0000 0.0000
# 3 18.7814 -5.1895 103.7539 0.0000 0.0000 0.0000
# 4 0.0000 0.0000 0.0000 31.3465 0.0000 0.0000
# 5 0.0000 0.0000 0.0000 0.0000 70.4552 0.0000
# 6 0.0000 0.0000 0.0000 0.0000 0.0000 -244.6646
#
#
#
# Elastic Compliance Matrix: (Units=1/GPa)
#
#
# Indices 1 2 3 4 5 6 
#
# 1 0.014877 0.000189 -0.002684 0.000000 0.000000 0.000000
# 2 0.000189 0.011578 0.000545 0.000000 0.000000 0.000000
# 3 -0.002684 0.000545 0.010151 0.000000 0.000000 0.000000
# 4 0.000000 0.000000 0.000000 0.031901 0.000000 0.000000
# 5 0.000000 0.000000 0.000000 0.000000 0.014193 0.000000
# 6 0.000000 0.000000 0.000000 0.000000 0.000000 -0.004087
#
#
# Mechanical properties :
#
#
# Convention : Reuss Voigt Hill
#
# Bulk Modulus (GPa) = 30.57438 31.57134 31.07286
# Shear Modulus (GPa) = 53.52364 -11.94103 20.79131
#
# Velocity S-wave (km/s) = 4.73167 -2.23492 2.94905
# Velocity P-wave (km/s) = 6.52999 2.55858 4.95919
#
# Compressibility (1/GPa) = 0.03270712
#
# Stress axis : x y z
#
# Youngs Moduli (GPa) = 67.21693 86.36751 98.51018
#
# Poissons Ratio (x) = -0.01631 0.26436
# Poissons Ratio (y) = -0.01269 -0.05368
# Poissons Ratio (z) = 0.18038 -0.04707
#
# Static dielectric constant tensor:
#      x y z
#    x 1.884280 0.000000 0.000000 
#    y 0.000000 1.932130 0.000000 
#    z 0.000000 0.000000 1.970120 
# 
# From -- ./inp_files/67996.got.cif
#   From: 2010.05.17/outbox.cif.g08.bks.cpg/sg70_34_cif.got.tgz:67996.got - 2010.06.03 15:57:51.
