data_PCOD9516662
_publ_section_title
;
Structure prediction by ZEFSAII (Michael W. Deem and Ramdas Pophale) SiO2 
 PCOD9516662
Probable space group: F D D D
;
_chemical_formula_sum "Si O2"
_cell_formula_units_Z 112
_cell_length_a 24.538840
_cell_length_b 11.305536
_cell_length_c 14.253731
_cell_angle_alpha 90.000000
_cell_angle_beta 90.000000
_cell_angle_gamma 90.000000
_cell_volume 3954.337603
_symmetry_space_group_name_H-M "F D D D"
_symmetry_group_IT_number 70
_space_group.IT_coordinate_system_code '2'
_symmetry_cell_setting 'orthorhombic'
loop_
_space_group_symop_operation_xyz
x,y,z
1/4-x,1/4-y,z
x,1/4-y,1/4-z
1/4-x,y,1/4-z
-x,-y,-z
3/4+x,3/4+y,-z
-x,3/4+y,3/4+z
3/4+x,-y,3/4+z
x,1/2+y,1/2+z
1/4-x,3/4-y,1/2+z
x,3/4-y,3/4-z
1/4-x,1/2+y,3/4-z
-x,1/2-y,1/2-z
3/4+x,1/4+y,1/2-z
-x,1/4+y,1/4+z
3/4+x,1/2-y,1/4+z
1/2+x,y,1/2+z
3/4-x,1/4-y,1/2+z
1/2+x,1/4-y,3/4-z
3/4-x,y,3/4-z
1/2-x,-y,1/2-z
1/4+x,3/4+y,1/2-z
1/2-x,3/4+y,1/4+z
1/4+x,-y,1/4+z
1/2+x,1/2+y,z
3/4-x,3/4-y,z
1/2+x,3/4-y,1/4-z
3/4-x,1/2+y,1/4-z
1/2-x,1/2-y,-z
1/4+x,1/4+y,-z
1/2-x,1/4+y,3/4+z
1/4+x,1/2-y,3/4+z
loop_
_atom_site_type_symbol
_atom_site_label
_atom_site_fract_x
_atom_site_fract_y
_atom_site_fract_z
Si Si1 0.005070 0.765264 0.622503
Si Si2 0.177466 0.375000 0.375000
Si Si3 0.405359 0.256344 0.759383
Si Si4 0.061356 0.151840 0.737847
O O1 0.862898 0.683201 0.700517
O O2 0.955903 0.792571 0.692972
O O3 0.982251 0.806323 0.524703
O O4 0.063452 0.812304 0.657024
O O5 0.201859 0.266832 0.441952
O O6 0.488680 0.375000 0.875000
O O7 0.375000 0.375000 0.784691
O O8 0.125000 0.125000 0.762232
O O9 0.940693 0.375000 0.875000
#
# Coordination Sequence:
#
# PCOD9516662 Si02
#       4
#    32  16  32  32
#     4  11  22  45  78 118 168 215 298 361 430 550
#     4  12  20  48  84 120 173 227 300 360 460 556
#     4  11  22  42  81 117 164 227 290 358 443 537
#     4  11  23  45  86 123 172 233 292 381 462 531
#
# _framework density 28.323328
#
# number of rings (size 3 to 8) (size 9 to 14) (size 15 to 20)
#    0.000    0.857    7.143    0.000    0.000    0.571 
#    0.000   17.143   12.571    8.571    0.000    0.000 
#    0.000    0.000    0.000    0.000    0.000    0.000 
#
# Total GULP energy -156625.758283 kJ/mol
# GULP energy per Si atom -5593.777082 kJ/mol
# Density = 2.825886 g / cm^3
# Si number density = 28.323328 Si / 1000 Ang^3
#
#
#
# Elastic Constant Matrix: (Units=GPa)
#
#
# Indices 1 2 3 4 5 6 
#
# 1 122.7798 49.1426 68.6464 0.0000 0.0000 0.0000
# 2 49.1426 126.0769 63.3588 0.0000 0.0000 0.0000
# 3 68.6464 63.3588 191.3451 0.0000 0.0000 0.0000
# 4 0.0000 0.0000 0.0000 26.5254 0.0000 0.0000
# 5 0.0000 0.0000 0.0000 0.0000 82.6079 0.0000
# 6 0.0000 0.0000 0.0000 0.0000 0.0000 45.4167
#
#
#
# Elastic Compliance Matrix: (Units=1/GPa)
#
#
# Indices 1 2 3 4 5 6 
#
# 1 0.010927 -0.002746 -0.003011 0.000000 0.000000 0.000000
# 2 -0.002746 0.010205 -0.002394 0.000000 0.000000 0.000000
# 3 -0.003011 -0.002394 0.007099 0.000000 0.000000 0.000000
# 4 0.000000 0.000000 0.000000 0.037700 0.000000 0.000000
# 5 0.000000 0.000000 0.000000 0.000000 0.012105 0.000000
# 6 0.000000 0.000000 0.000000 0.000000 0.000000 0.022018
#
#
# Mechanical properties :
#
#
# Convention : Reuss Voigt Hill
#
# Bulk Modulus (GPa) = 83.82670 89.16639 86.49655
# Shear Modulus (GPa) = 41.55125 48.18026 44.86575
#
# Velocity S-wave (km/s) = 3.83434 4.12889 3.98434
# Velocity P-wave (km/s) = 7.01880 7.36751 7.19527
#
# Compressibility (1/GPa) = 0.01192937
#
# Stress axis : x y z
#
# Youngs Moduli (GPa) = 91.51474 97.98990 140.86421
#
# Poissons Ratio (x) = 0.26909 0.42413
# Poissons Ratio (y) = 0.25131 0.33722
# Poissons Ratio (z) = 0.27554 0.23458
#
# Static dielectric constant tensor:
#      x y z
#    x 2.197300 0.000000 0.000000 
#    y 0.000000 2.482370 0.000000 
#    z 0.000000 0.000000 2.423250 
# 
# From -- ./inp_files/41898.got.cif
#   From: 2010.05.17/outbox.cif.g08.bks.cpg/sg70_21_cif.got.tgz:41898.got - 2010.06.03 15:57:51.
