data_PCOD9516765
_publ_section_title
;
Structure prediction by ZEFSAII (Michael W. Deem and Ramdas Pophale) SiO2 
 PCOD9516765
Probable space group: F D D D
;
_chemical_formula_sum "Si O2"
_cell_formula_units_Z 144
_cell_length_a 24.932503
_cell_length_b 10.481627
_cell_length_c 24.380599
_cell_angle_alpha 90.000000
_cell_angle_beta 90.000000
_cell_angle_gamma 90.000000
_cell_volume 6371.459872
_symmetry_space_group_name_H-M "F D D D"
_symmetry_group_IT_number 70
_space_group.IT_coordinate_system_code '2'
_symmetry_cell_setting 'orthorhombic'
loop_
_space_group_symop_operation_xyz
x,y,z
1/4-x,1/4-y,z
x,1/4-y,1/4-z
1/4-x,y,1/4-z
-x,-y,-z
3/4+x,3/4+y,-z
-x,3/4+y,3/4+z
3/4+x,-y,3/4+z
x,1/2+y,1/2+z
1/4-x,3/4-y,1/2+z
x,3/4-y,3/4-z
1/4-x,1/2+y,3/4-z
-x,1/2-y,1/2-z
3/4+x,1/4+y,1/2-z
-x,1/4+y,1/4+z
3/4+x,1/2-y,1/4+z
1/2+x,y,1/2+z
3/4-x,1/4-y,1/2+z
1/2+x,1/4-y,3/4-z
3/4-x,y,3/4-z
1/2-x,-y,1/2-z
1/4+x,3/4+y,1/2-z
1/2-x,3/4+y,1/4+z
1/4+x,-y,1/4+z
1/2+x,1/2+y,z
3/4-x,3/4-y,z
1/2+x,3/4-y,1/4-z
3/4-x,1/2+y,1/4-z
1/2-x,1/2-y,-z
1/4+x,1/4+y,-z
1/2-x,1/4+y,3/4+z
1/4+x,1/2-y,3/4+z
loop_
_atom_site_type_symbol
_atom_site_label
_atom_site_fract_x
_atom_site_fract_y
_atom_site_fract_z
Si Si1 0.076213 0.720119 0.045103
Si Si2 0.762288 0.125000 0.125000
Si Si3 0.418928 0.981431 0.471148
Si Si4 0.186616 0.095208 0.821337
Si Si5 0.781166 0.736031 0.087283
O O1 0.125000 0.625000 0.059295
O O2 0.028897 0.706231 0.088101
O O3 0.093873 0.868283 0.039889
O O4 0.055136 0.662897 0.986992
O O5 0.799389 0.197726 0.080348
O O6 0.375000 0.875000 0.457299
O O7 0.473739 0.951030 0.438381
O O8 0.432659 0.975286 0.535899
O O9 0.125000 0.125000 0.835162
O O10 0.223671 0.156556 0.867319
O O11 0.805252 0.625000 0.125000
#
# Coordination Sequence:
#
# PCOD9516765 Si02
#       5
#    32  16  32  32  32
#     4  11  25  47  73 107 146 193 245 300 369 450
#     4  12  25  48  72 104 150 196 241 308 376 440
#     4  11  25  46  73 107 146 193 244 307 369 444
#     4  11  25  42  73 106 141 192 247 301 369 440
#     4  11  23  44  71 101 145 188 243 298 373 439
#
# _framework density 22.600785999999999
#
# number of rings (size 3 to 8) (size 9 to 14) (size 15 to 20)
#    0.000    0.889    4.444    1.667    1.556    5.778 
#    4.000    0.000    0.000    1.333    0.000    0.000 
#    0.000    0.000    0.000    0.000    0.000    0.000 
#
# Total GULP energy -201008.789871 kJ/mol
# GULP energy per Si atom -5583.577496 kJ/mol
# Density = 2.254935 g / cm^3
# Si number density = 22.600786 Si / 1000 Ang^3
#
#
#
# Elastic Constant Matrix: (Units=GPa)
#
#
# Indices 1 2 3 4 5 6 
#
# 1 95.1199 54.7550 40.6932 0.0000 0.0000 0.0000
# 2 54.7550 129.6626 37.1840 0.0000 0.0000 0.0000
# 3 40.6932 37.1840 113.3430 0.0000 0.0000 0.0000
# 4 0.0000 0.0000 0.0000 9.0960 0.0000 0.0000
# 5 0.0000 0.0000 0.0000 0.0000 19.4791 0.0000
# 6 0.0000 0.0000 0.0000 0.0000 0.0000 21.1843
#
#
#
# Elastic Compliance Matrix: (Units=1/GPa)
#
#
# Indices 1 2 3 4 5 6 
#
# 1 0.015171 -0.005348 -0.003692 0.000000 0.000000 0.000000
# 2 -0.005348 0.010398 -0.001491 0.000000 0.000000 0.000000
# 3 -0.003692 -0.001491 0.010638 0.000000 0.000000 0.000000
# 4 0.000000 0.000000 0.000000 0.109938 0.000000 0.000000
# 5 0.000000 0.000000 0.000000 0.000000 0.051337 0.000000
# 6 0.000000 0.000000 0.000000 0.000000 0.000000 0.047205
#
#
# Mechanical properties :
#
#
# Convention : Reuss Voigt Hill
#
# Bulk Modulus (GPa) = 66.03221 67.04334 66.53777
# Shear Modulus (GPa) = 18.46398 23.65146 21.05772
#
# Velocity S-wave (km/s) = 2.86136 3.23846 3.05573
# Velocity P-wave (km/s) = 6.34009 6.61151 6.47722
#
# Compressibility (1/GPa) = 0.01514412
#
# Stress axis : x y z
#
# Youngs Moduli (GPa) = 65.91510 96.17000 94.00504
#
# Poissons Ratio (x) = 0.51428 0.34711
# Poissons Ratio (y) = 0.35249 0.14020
# Poissons Ratio (z) = 0.24339 0.14342
#
# Static dielectric constant tensor:
#      x y z
#    x 1.799360 0.000000 0.000000 
#    y 0.000000 2.040540 0.000000 
#    z 0.000000 0.000000 1.802890 
# 
# From -- ./inp_files/54195.got.cif
#   From: 2010.05.17/outbox.cif.g08.bks.cpg/sg70_28_cif.got.tgz:54195.got - 2010.06.03 15:57:51.
