data_PCOD9516013
_publ_section_title
;
Structure prediction by ZEFSAII (Michael W. Deem and Ramdas Pophale) SiO2 
 PCOD9516013
Probable space group: F D D D
;
_chemical_formula_sum "Si O2"
_cell_formula_units_Z 72
_cell_length_a 4.940262
_cell_length_b 20.366706
_cell_length_c 26.912838
_cell_angle_alpha 90.000000
_cell_angle_beta 90.000000
_cell_angle_gamma 90.000000
_cell_volume 2707.885353
_symmetry_space_group_name_H-M "F D D D"
_symmetry_group_IT_number 70
_space_group.IT_coordinate_system_code '2'
_symmetry_cell_setting 'orthorhombic'
loop_
_space_group_symop_operation_xyz
x,y,z
1/4-x,1/4-y,z
x,1/4-y,1/4-z
1/4-x,y,1/4-z
-x,-y,-z
3/4+x,3/4+y,-z
-x,3/4+y,3/4+z
3/4+x,-y,3/4+z
x,1/2+y,1/2+z
1/4-x,3/4-y,1/2+z
x,3/4-y,3/4-z
1/4-x,1/2+y,3/4-z
-x,1/2-y,1/2-z
3/4+x,1/4+y,1/2-z
-x,1/4+y,1/4+z
3/4+x,1/2-y,1/4+z
1/2+x,y,1/2+z
3/4-x,1/4-y,1/2+z
1/2+x,1/4-y,3/4-z
3/4-x,y,3/4-z
1/2-x,-y,1/2-z
1/4+x,3/4+y,1/2-z
1/2-x,3/4+y,1/4+z
1/4+x,-y,1/4+z
1/2+x,1/2+y,z
3/4-x,3/4-y,z
1/2+x,3/4-y,1/4-z
3/4-x,1/2+y,1/4-z
1/2-x,1/2-y,-z
1/4+x,1/4+y,-z
1/2-x,1/4+y,3/4+z
1/4+x,1/2-y,3/4+z
loop_
_atom_site_type_symbol
_atom_site_label
_atom_site_fract_x
_atom_site_fract_y
_atom_site_fract_z
Si Si1 0.375000 0.375000 0.875000
Si Si2 0.738158 0.473453 0.937314
Si Si3 0.512138 0.195728 0.944931
O O1 0.578610 0.415971 0.910039
O O2 0.543556 0.536824 0.931546
O O3 0.037940 0.497839 0.924037
O O4 0.762727 0.452707 0.995092
O O5 0.625000 0.125000 0.931110
#
# Coordination Sequence:
#
# PCOD9516013 Si02
#       3
#     8  32  32
#     4  12  28  46  68 114 148 190 240 332 360 434
#     4  10  25  40  70 105 141 184 238 296 373 416
#     4  10  22  45  70 101 136 192 242 290 347 461
#
# _framework density 26.589013000000001
#
# number of rings (size 3 to 8) (size 9 to 14) (size 15 to 20)
#    0.000    1.778    0.000    1.333   18.667    3.556 
#    0.000    4.444    0.000    0.000    0.000    0.000 
#    0.000    0.000    0.000    0.000    0.000    0.000 
#
# Total GULP energy -101002.444004 kJ/mol
# GULP energy per Si atom -5611.246889 kJ/mol
# Density = 2.652849 g / cm^3
# Si number density = 26.589013 Si / 1000 Ang^3
#
#
#
# Elastic Constant Matrix: (Units=GPa)
#
#
# Indices 1 2 3 4 5 6 
#
# 1 137.7272 31.6582 49.3089 0.0000 0.0000 0.0000
# 2 31.6582 134.2698 47.1070 0.0000 0.0000 0.0000
# 3 49.3089 47.1070 125.7662 0.0000 0.0000 0.0000
# 4 0.0000 0.0000 0.0000 22.9721 0.0000 0.0000
# 5 0.0000 0.0000 0.0000 0.0000 40.4977 0.0000
# 6 0.0000 0.0000 0.0000 0.0000 0.0000 49.6979
#
#
#
# Elastic Compliance Matrix: (Units=1/GPa)
#
#
# Indices 1 2 3 4 5 6 
#
# 1 0.008554 -0.000967 -0.002991 0.000000 0.000000 0.000000
# 2 -0.000967 0.008684 -0.002873 0.000000 0.000000 0.000000
# 3 -0.002991 -0.002873 0.010200 0.000000 0.000000 0.000000
# 4 0.000000 0.000000 0.000000 0.043531 0.000000 0.000000
# 5 0.000000 0.000000 0.000000 0.000000 0.024693 0.000000
# 6 0.000000 0.000000 0.000000 0.000000 0.000000 0.020122
#
#
# Mechanical properties :
#
#
# Convention : Reuss Voigt Hill
#
# Bulk Modulus (GPa) = 72.60075 72.65683 72.62879
# Shear Modulus (GPa) = 37.30249 40.61281 38.95765
#
# Velocity S-wave (km/s) = 3.74963 3.91247 3.83192
# Velocity P-wave (km/s) = 6.79046 6.91340 6.85221
#
# Compressibility (1/GPa) = 0.01377396
#
# Stress axis : x y z
#
# Youngs Moduli (GPa) = 116.90317 115.15612 98.03580
#
# Poissons Ratio (x) = 0.11140 0.29327
# Poissons Ratio (y) = 0.11309 0.28169
# Poissons Ratio (z) = 0.34971 0.33088
#
# Static dielectric constant tensor:
#      x y z
#    x 1.948580 0.000000 0.000000 
#    y 0.000000 2.047200 0.000000 
#    z 0.000000 0.000000 2.140870 
# 
# From -- ./inp_files/2306.got.cif
#   From: 2010.05.17/outbox.cif.g08.bks.cpg/sg70_2_cif.got.tgz:2306.got - 2010.06.03 15:57:51.
