data_PCOD9516407
_publ_section_title
;
Structure prediction by ZEFSAII (Michael W. Deem and Ramdas Pophale) SiO2 
 PCOD9516407
Probable space group: F D D D
;
_chemical_formula_sum "Si O2"
_cell_formula_units_Z 104
_cell_length_a 22.270940
_cell_length_b 7.106863
_cell_length_c 28.526716
_cell_angle_alpha 90.000000
_cell_angle_beta 90.000000
_cell_angle_gamma 90.000000
_cell_volume 4515.109320
_symmetry_space_group_name_H-M "F D D D"
_symmetry_group_IT_number 70
_space_group.IT_coordinate_system_code '2'
_symmetry_cell_setting 'orthorhombic'
loop_
_space_group_symop_operation_xyz
x,y,z
1/4-x,1/4-y,z
x,1/4-y,1/4-z
1/4-x,y,1/4-z
-x,-y,-z
3/4+x,3/4+y,-z
-x,3/4+y,3/4+z
3/4+x,-y,3/4+z
x,1/2+y,1/2+z
1/4-x,3/4-y,1/2+z
x,3/4-y,3/4-z
1/4-x,1/2+y,3/4-z
-x,1/2-y,1/2-z
3/4+x,1/4+y,1/2-z
-x,1/4+y,1/4+z
3/4+x,1/2-y,1/4+z
1/2+x,y,1/2+z
3/4-x,1/4-y,1/2+z
1/2+x,1/4-y,3/4-z
3/4-x,y,3/4-z
1/2-x,-y,1/2-z
1/4+x,3/4+y,1/2-z
1/2-x,3/4+y,1/4+z
1/4+x,-y,1/4+z
1/2+x,1/2+y,z
3/4-x,3/4-y,z
1/2+x,3/4-y,1/4-z
3/4-x,1/2+y,1/4-z
1/2-x,1/2-y,-z
1/4+x,1/4+y,-z
1/2-x,1/4+y,3/4+z
1/4+x,1/2-y,3/4+z
loop_
_atom_site_type_symbol
_atom_site_label
_atom_site_fract_x
_atom_site_fract_y
_atom_site_fract_z
Si Si1 0.711613 0.843602 0.196085
Si Si2 0.936819 0.131918 0.551263
Si Si3 0.946190 0.679246 0.676658
Si Si4 0.625000 0.125000 0.625000
O O1 0.682350 0.900914 0.245294
O O2 0.757550 0.008211 0.180217
O O3 0.757273 0.675602 0.209813
O O4 0.664399 0.761076 0.158933
O O5 0.946047 0.350652 0.563601
O O6 0.870343 0.093559 0.570162
O O7 0.968147 0.625000 0.625000
#
# Coordination Sequence:
#
# PCOD9516407 Si02
#       4
#    32  32  32   8
#     4  11  24  46  67 102 143 179 233 287 363 414
#     4  10  25  43  71  99 135 189 230 290 355 417
#     4  11  23  42  72  99 136 177 242 290 340 412
#     4  12  24  44  74 108 146 184 232 300 348 428
#
# _framework density 23.033773
#
# number of rings (size 3 to 8) (size 9 to 14) (size 15 to 20)
#    0.000    1.231    1.538    3.692    8.615    0.000 
#    0.000    6.154    0.000    0.000    0.000    0.000 
#    0.000    0.000    0.000    0.000    0.000    0.000 
#
# Total GULP energy -145327.670521 kJ/mol
# GULP energy per Si atom -5589.525789 kJ/mol
# Density = 2.298135 g / cm^3
# Si number density = 23.033773 Si / 1000 Ang^3
#
#
#
# Elastic Constant Matrix: (Units=GPa)
#
#
# Indices 1 2 3 4 5 6 
#
# 1 124.8463 52.2275 49.5084 0.0000 0.0019 -0.0006
# 2 52.2275 129.9720 15.6540 0.0001 0.0014 0.0001
# 3 49.5084 15.6540 94.4331 0.0000 -0.0002 0.0000
# 4 0.0000 0.0001 0.0000 23.3487 -0.0017 0.0000
# 5 0.0019 0.0014 -0.0002 -0.0017 399.4883 -0.0001
# 6 -0.0006 0.0001 0.0000 0.0000 -0.0001 52.0313
#
#
#
# Elastic Compliance Matrix: (Units=1/GPa)
#
#
# Indices 1 2 3 4 5 6 
#
# 1 0.011951 -0.004130 -0.005581 0.000000 0.000000 0.000000
# 2 -0.004130 0.009278 0.000627 0.000000 0.000000 0.000000
# 3 -0.005581 0.000627 0.013411 0.000000 0.000000 0.000000
# 4 0.000000 0.000000 0.000000 0.042829 0.000000 0.000000
# 5 0.000000 0.000000 0.000000 0.000000 0.002503 0.000000
# 6 0.000000 0.000000 0.000000 0.000000 0.000000 0.019219
#
#
# Mechanical properties :
#
#
# Convention : Reuss Voigt Hill
#
# Bulk Modulus (GPa) = 60.70554 64.89235 62.79895
# Shear Modulus (GPa) = 40.70024 110.43109 75.56567
#
# Velocity S-wave (km/s) = 4.20811 6.93161 5.73391
# Velocity P-wave (km/s) = 7.07270 9.60712 8.43564
#
# Compressibility (1/GPa) = 0.01647296
#
# Stress axis : x y z
#
# Youngs Moduli (GPa) = 83.67743 107.78158 74.56385
#
# Poissons Ratio (x) = 0.44514 0.41612
# Poissons Ratio (y) = 0.34559 -0.04677
# Poissons Ratio (z) = 0.46698 -0.06761
#
# Static dielectric constant tensor:
#      x y z
#    x 1.824720 0.000000 0.000000 
#    y 0.000000 1.897130 0.000000 
#    z 0.000000 0.000000 1.856730 
# 
# From -- ./inp_files/59180.got.cif
#   From: 2010.05.17/outbox.cif.g08.bks.cpg/sg70_30_cif.got.tgz:59180.got - 2010.06.03 15:57:51.
