data_PCOD9516818
_publ_section_title
;
Structure prediction by ZEFSAII (Michael W. Deem and Ramdas Pophale) SiO2 
 PCOD9516818
Probable space group: F D D D
;
_chemical_formula_sum "Si O2"
_cell_formula_units_Z 176
_cell_length_a 25.720747
_cell_length_b 27.246111
_cell_length_c 11.964093
_cell_angle_alpha 90.000000
_cell_angle_beta 90.000000
_cell_angle_gamma 90.000000
_cell_volume 8384.320655
_symmetry_space_group_name_H-M "F D D D"
_symmetry_group_IT_number 70
_space_group.IT_coordinate_system_code '2'
_symmetry_cell_setting 'orthorhombic'
loop_
_space_group_symop_operation_xyz
x,y,z
1/4-x,1/4-y,z
x,1/4-y,1/4-z
1/4-x,y,1/4-z
-x,-y,-z
3/4+x,3/4+y,-z
-x,3/4+y,3/4+z
3/4+x,-y,3/4+z
x,1/2+y,1/2+z
1/4-x,3/4-y,1/2+z
x,3/4-y,3/4-z
1/4-x,1/2+y,3/4-z
-x,1/2-y,1/2-z
3/4+x,1/4+y,1/2-z
-x,1/4+y,1/4+z
3/4+x,1/2-y,1/4+z
1/2+x,y,1/2+z
3/4-x,1/4-y,1/2+z
1/2+x,1/4-y,3/4-z
3/4-x,y,3/4-z
1/2-x,-y,1/2-z
1/4+x,3/4+y,1/2-z
1/2-x,3/4+y,1/4+z
1/4+x,-y,1/4+z
1/2+x,1/2+y,z
3/4-x,3/4-y,z
1/2+x,3/4-y,1/4-z
3/4-x,1/2+y,1/4-z
1/2-x,1/2-y,-z
1/4+x,1/4+y,-z
1/2-x,1/4+y,3/4+z
1/4+x,1/2-y,3/4+z
loop_
_atom_site_type_symbol
_atom_site_label
_atom_site_fract_x
_atom_site_fract_y
_atom_site_fract_z
Si Si1 0.293986 0.858018 0.132434
Si Si2 0.437028 0.647666 0.745550
Si Si3 0.125000 0.482081 0.125000
Si Si4 0.800929 0.719537 0.023451
Si Si5 0.999205 0.875000 0.875000
Si Si6 0.625000 0.825490 0.125000
Si Si7 0.641777 0.544375 0.422460
O O1 0.284499 0.860505 0.266041
O O2 0.321851 0.908654 0.097902
O O3 0.333063 0.814538 0.094385
O O4 0.238097 0.855285 0.073212
O O5 0.453352 0.625000 0.625000
O O6 0.410312 0.698836 0.790315
O O7 0.390474 0.610275 0.774439
O O8 0.096065 0.519031 0.209112
O O9 0.784390 0.671486 0.091790
O O10 0.843501 0.752722 0.083775
O O11 0.750000 0.750000 0.000000
O O12 0.825017 0.704757 0.905753
#
# Coordination Sequence:
#
# PCOD9516818 Si02
#       7
#    32  32  16  32  16  16  32
#     4  11  26  46  71 104 148 198 248 314 385 454
#     4  11  24  46  72 104 141 191 249 301 375 458
#     4  11  26  47  72 105 146 191 242 311 375 454
#     4  12  25  45  73 108 146 190 255 320 380 463
#     4  12  24  49  74 104 154 196 252 329 380 448
#     4  11  24  42  68 106 138 192 234 314 377 444
#     4  11  26  45  70 106 142 195 244 308 385 457
#
# _framework density 20.991562999999999
#
# number of rings (size 3 to 8) (size 9 to 14) (size 15 to 20)
#    0.000    0.727    3.636    2.182    8.909    2.909 
#    6.545    0.000    0.000    0.000    0.000    0.000 
#    0.000    0.000    0.000    0.000    0.000    0.000 
#
# Total GULP energy -245378.593407 kJ/mol
# GULP energy per Si atom -5576.786214 kJ/mol
# Density = 2.094379 g / cm^3
# Si number density = 20.991563 Si / 1000 Ang^3
#
#
#
# Elastic Constant Matrix: (Units=GPa)
#
#
# Indices 1 2 3 4 5 6 
#
# 1 97.5170 40.0321 23.1348 0.0000 0.0000 0.0000
# 2 40.0321 126.2805 38.4991 0.0000 0.0000 0.0000
# 3 23.1348 38.4991 110.0310 0.0001 -0.0001 -0.0001
# 4 0.0000 0.0000 0.0001 21.3060 0.0000 0.0000
# 5 0.0000 0.0000 -0.0001 0.0000 36.5209 0.0000
# 6 0.0000 0.0000 -0.0001 0.0000 0.0000 31.3105
#
#
#
# Elastic Compliance Matrix: (Units=1/GPa)
#
#
# Indices 1 2 3 4 5 6 
#
# 1 0.011960 -0.003386 -0.001330 0.000000 0.000000 0.000000
# 2 -0.003386 0.009823 -0.002725 0.000000 0.000000 0.000000
# 3 -0.001330 -0.002725 0.010321 0.000000 0.000000 0.000000
# 4 0.000000 0.000000 0.000000 0.046935 0.000000 0.000000
# 5 0.000000 0.000000 0.000000 0.000000 0.027382 0.000000
# 6 0.000000 0.000000 0.000000 0.000000 0.000000 0.031938
#
#
# Mechanical properties :
#
#
# Convention : Reuss Voigt Hill
#
# Bulk Modulus (GPa) = 58.06341 59.68451 58.87396
# Shear Modulus (GPa) = 31.44997 33.30497 32.37747
#
# Velocity S-wave (km/s) = 3.87488 3.98752 3.93161
# Velocity P-wave (km/s) = 6.90942 7.04945 6.97979
#
# Compressibility (1/GPa) = 0.01722255
#
# Stress axis : x y z
#
# Youngs Moduli (GPa) = 83.61103 101.80110 96.88542
#
# Poissons Ratio (x) = 0.34470 0.12885
# Poissons Ratio (y) = 0.28311 0.26402
# Poissons Ratio (z) = 0.11120 0.27742
#
# Static dielectric constant tensor:
#      x y z
#    x 1.743650 0.000000 0.000000 
#    y 0.000000 1.769900 0.000000 
#    z 0.000000 0.000000 3.926270 
# 
# From -- ./inp_files/21220.got.cif
#   From: 2010.05.17/outbox.cif.g08.bks.cpg/sg70_11_cif.got.tgz:21220.got - 2010.06.03 15:57:51.
