data_PCOD9516061
_publ_section_title
;
Structure prediction by ZEFSAII (Michael W. Deem and Ramdas Pophale) SiO2 
 PCOD9516061
Probable space group: F D D D
;
_chemical_formula_sum "Si O2"
_cell_formula_units_Z 144
_cell_length_a 25.651171
_cell_length_b 22.751242
_cell_length_c 11.361795
_cell_angle_alpha 90.000000
_cell_angle_beta 90.000000
_cell_angle_gamma 90.000000
_cell_volume 6630.698104
_symmetry_space_group_name_H-M "F D D D"
_symmetry_group_IT_number 70
_space_group.IT_coordinate_system_code '2'
_symmetry_cell_setting 'orthorhombic'
loop_
_space_group_symop_operation_xyz
x,y,z
1/4-x,1/4-y,z
x,1/4-y,1/4-z
1/4-x,y,1/4-z
-x,-y,-z
3/4+x,3/4+y,-z
-x,3/4+y,3/4+z
3/4+x,-y,3/4+z
x,1/2+y,1/2+z
1/4-x,3/4-y,1/2+z
x,3/4-y,3/4-z
1/4-x,1/2+y,3/4-z
-x,1/2-y,1/2-z
3/4+x,1/4+y,1/2-z
-x,1/4+y,1/4+z
3/4+x,1/2-y,1/4+z
1/2+x,y,1/2+z
3/4-x,1/4-y,1/2+z
1/2+x,1/4-y,3/4-z
3/4-x,y,3/4-z
1/2-x,-y,1/2-z
1/4+x,3/4+y,1/2-z
1/2-x,3/4+y,1/4+z
1/4+x,-y,1/4+z
1/2+x,1/2+y,z
3/4-x,3/4-y,z
1/2+x,3/4-y,1/4-z
3/4-x,1/2+y,1/4-z
1/2-x,1/2-y,-z
1/4+x,1/4+y,-z
1/2-x,1/4+y,3/4+z
1/4+x,1/2-y,3/4+z
loop_
_atom_site_type_symbol
_atom_site_label
_atom_site_fract_x
_atom_site_fract_y
_atom_site_fract_z
Si Si1 0.326857 0.176578 0.456270
Si Si2 0.978532 0.875000 0.875000
Si Si3 0.055851 0.526626 0.461491
Si Si4 0.016546 0.270389 0.510806
Si Si5 0.160185 0.955686 0.979538
O O1 0.375000 0.193640 0.375000
O O2 0.281170 0.213411 0.393864
O O3 0.325270 0.105363 0.455581
O O4 0.336693 0.192430 0.590461
O O5 0.944453 0.838826 0.779421
O O6 0.017531 0.917531 0.805231
O O7 0.051546 0.524085 0.318276
O O8 0.104156 0.485790 0.500413
O O9 0.000000 0.500000 0.500000
O O10 0.957183 0.250073 0.498402
#
# Coordination Sequence:
#
# PCOD9516061 Si02
#       5
#    32  16  32  32  32
#     4  11  24  41  69  94 128 175 225 276 328 403
#     4  10  24  37  62  94 134 168 204 272 331 394
#     4  10  23  39  61  98 134 171 217 271 332 404
#     4  11  23  42  65  95 133 171 220 274 335 400
#     4  11  25  41  66  98 129 175 223 275 340 392
#
# _framework density 21.717171
#
# number of rings (size 3 to 8) (size 9 to 14) (size 15 to 20)
#    0.000    1.333    2.222    2.000   12.444    1.778 
#    0.000    0.000    0.000    0.000    0.000    0.000 
#    0.000    0.000    0.000    0.000    0.000    0.000 
#
# Total GULP energy -200891.393440 kJ/mol
# GULP energy per Si atom -5580.316484 kJ/mol
# Density = 2.166774 g / cm^3
# Si number density = 21.717171 Si / 1000 Ang^3
#
#
#
# Elastic Constant Matrix: (Units=GPa)
#
#
# Indices 1 2 3 4 5 6 
#
# 1 112.5366 30.0992 20.7591 0.0000 0.0000 0.0000
# 2 30.0992 78.3720 40.9581 0.0000 0.0000 0.0000
# 3 20.7591 40.9581 114.2658 0.0001 0.0000 0.0000
# 4 0.0000 0.0000 0.0001 24.0532 0.0000 0.0000
# 5 0.0000 0.0000 0.0000 0.0000 29.4337 0.0000
# 6 0.0000 0.0000 0.0000 0.0000 0.0000 26.6445
#
#
#
# Elastic Compliance Matrix: (Units=1/GPa)
#
#
# Indices 1 2 3 4 5 6 
#
# 1 0.009930 -0.003533 -0.000538 0.000000 0.000000 0.000000
# 2 -0.003533 0.016958 -0.005437 0.000000 0.000000 0.000000
# 3 -0.000538 -0.005437 0.010798 0.000000 0.000000 0.000000
# 4 0.000000 0.000000 0.000000 0.041574 0.000000 0.000000
# 5 0.000000 0.000000 0.000000 0.000000 0.033975 0.000000
# 6 0.000000 0.000000 0.000000 0.000000 0.000000 0.037531
#
#
# Mechanical properties :
#
#
# Convention : Reuss Voigt Hill
#
# Bulk Modulus (GPa) = 53.55731 54.31192 53.93461
# Shear Modulus (GPa) = 28.40847 30.25014 29.32930
#
# Velocity S-wave (km/s) = 3.62071 3.73622 3.67892
# Velocity P-wave (km/s) = 6.49570 6.60875 6.55247
#
# Compressibility (1/GPa) = 0.01867159
#
# Stress axis : x y z
#
# Youngs Moduli (GPa) = 100.70444 58.97056 92.61016
#
# Poissons Ratio (x) = 0.20832 0.04980
# Poissons Ratio (y) = 0.35575 0.50348
# Poissons Ratio (z) = 0.05416 0.32060
#
# Static dielectric constant tensor:
#      x y z
#    x 1.838820 0.000000 0.000000 
#    y 0.000000 1.839580 0.000000 
#    z 0.000000 0.000000 1.970970 
# 
# From -- ./inp_files/19220.got.cif
#   From: 2010.05.17/outbox.cif.g08.bks.cpg/sg70_10_cif.got.tgz:19220.got - 2010.06.03 15:57:51.
