data_PCOD9516593
_publ_section_title
;
Structure prediction by ZEFSAII (Michael W. Deem and Ramdas Pophale) SiO2 
 PCOD9516593
Probable space group: F D D D
;
_chemical_formula_sum "Si O2"
_cell_formula_units_Z 208
_cell_length_a 17.090416
_cell_length_b 21.873919
_cell_length_c 27.380237
_cell_angle_alpha 90.000000
_cell_angle_beta 90.000000
_cell_angle_gamma 90.000000
_cell_volume 10235.673793
_symmetry_space_group_name_H-M "F D D D"
_symmetry_group_IT_number 70
_space_group.IT_coordinate_system_code '2'
_symmetry_cell_setting 'orthorhombic'
loop_
_space_group_symop_operation_xyz
x,y,z
1/4-x,1/4-y,z
x,1/4-y,1/4-z
1/4-x,y,1/4-z
-x,-y,-z
3/4+x,3/4+y,-z
-x,3/4+y,3/4+z
3/4+x,-y,3/4+z
x,1/2+y,1/2+z
1/4-x,3/4-y,1/2+z
x,3/4-y,3/4-z
1/4-x,1/2+y,3/4-z
-x,1/2-y,1/2-z
3/4+x,1/4+y,1/2-z
-x,1/4+y,1/4+z
3/4+x,1/2-y,1/4+z
1/2+x,y,1/2+z
3/4-x,1/4-y,1/2+z
1/2+x,1/4-y,3/4-z
3/4-x,y,3/4-z
1/2-x,-y,1/2-z
1/4+x,3/4+y,1/2-z
1/2-x,3/4+y,1/4+z
1/4+x,-y,1/4+z
1/2+x,1/2+y,z
3/4-x,3/4-y,z
1/2+x,3/4-y,1/4-z
3/4-x,1/2+y,1/4-z
1/2-x,1/2-y,-z
1/4+x,1/4+y,-z
1/2-x,1/4+y,3/4+z
1/4+x,1/2-y,3/4+z
loop_
_atom_site_type_symbol
_atom_site_label
_atom_site_fract_x
_atom_site_fract_y
_atom_site_fract_z
Si Si1 0.443398 0.116504 0.067495
Si Si2 0.669653 0.523677 0.676277
Si Si3 0.500000 0.750000 0.250000
Si Si4 0.064106 0.297696 0.497127
Si Si5 0.956425 0.607159 0.905283
Si Si6 0.930643 0.541042 0.263255
Si Si7 0.287594 0.391818 0.688052
O O1 0.429729 0.125000 0.125000
O O2 0.524627 0.079789 0.060576
O O3 0.373442 0.079331 0.040730
O O4 0.447195 0.181603 0.040547
O O5 0.625000 0.535955 0.625000
O O6 0.610707 0.499612 0.717946
O O7 0.722594 0.462892 0.668916
O O8 0.406588 0.734617 0.263256
O O9 0.474110 0.788633 0.202283
O O10 0.993478 0.260372 0.473200
O O11 0.022262 0.349940 0.530199
O O12 0.875000 0.606458 0.875000
O O13 0.943526 0.651588 0.950634
O O14 0.021309 0.630420 0.868316
O O15 0.375000 0.375000 0.702152
#
# Coordination Sequence:
#
# PCOD9516593 Si02
#       7
#    32  32  16  32  32  32  32
#     4  12  27  45  67 104 142 183 226 285 349 420
#     4  11  22  45  73  93 141 181 220 283 353 412
#     4  12  22  42  74  94 136 184 216 288 342 406
#     4  12  24  44  69 101 136 179 226 285 340 414
#     4  11  21  43  68  98 128 175 227 282 330 404
#     4  12  26  43  70 100 138 178 232 282 346 403
#     4  12  24  43  75 100 131 180 235 277 348 408
#
# _framework density 20.321086000000001
#
# number of rings (size 3 to 8) (size 9 to 14) (size 15 to 20)
#    0.000    0.308    9.231    1.385    0.000    4.615 
#    0.000    0.000    0.000    0.923    0.000    0.000 
#    0.000    0.000    0.000    0.000    0.000    0.000 
#
# Total GULP energy -289547.632411 kJ/mol
# GULP energy per Si atom -5568.223700 kJ/mol
# Density = 2.027483 g / cm^3
# Si number density = 20.321086 Si / 1000 Ang^3
#
#
#
# Elastic Constant Matrix: (Units=GPa)
#
#
# Indices 1 2 3 4 5 6 
#
# 1 115.0942 22.0567 26.8547 0.0000 0.0000 0.0000
# 2 22.0567 20.7844 -2.7658 0.0000 0.0000 0.0000
# 3 26.8547 -2.7658 55.4740 0.0000 0.0000 0.0000
# 4 0.0000 0.0000 0.0000 108.2416 0.0000 0.0000
# 5 0.0000 0.0000 0.0000 0.0000 26.2579 0.0000
# 6 0.0000 0.0000 0.0000 0.0000 0.0000 -4.4548
#
#
#
# Elastic Compliance Matrix: (Units=1/GPa)
#
#
# Indices 1 2 3 4 5 6 
#
# 1 0.013230 -0.014992 -0.007152 0.000000 0.000000 0.000000
# 2 -0.014992 0.065422 0.010519 0.000000 0.000000 0.000000
# 3 -0.007152 0.010519 0.022013 0.000000 0.000000 0.000000
# 4 0.000000 0.000000 0.000000 0.009239 0.000000 0.000000
# 5 0.000000 0.000000 0.000000 0.000000 0.038084 0.000000
# 6 0.000000 0.000000 0.000000 0.000000 0.000000 -0.224477
#
#
# Mechanical properties :
#
#
# Convention : Reuss Voigt Hill
#
# Bulk Modulus (GPa) = 12.91717 31.51599 22.21658
# Shear Modulus (GPa) = -182.25861 35.68942 -73.28460
#
# Velocity S-wave (km/s) = -9.48072 4.19534 -6.01179
# Velocity P-wave (km/s) = 10.65247 6.24584 6.10183
#
# Compressibility (1/GPa) = 0.07741634
#
# Stress axis : x y z
#
# Youngs Moduli (GPa) = 75.58331 15.28527 45.42706
#
# Poissons Ratio (x) = 0.22916 0.32491
# Poissons Ratio (y) = 1.13315 -0.47786
# Poissons Ratio (z) = 0.54059 -0.16079
#
# Static dielectric constant tensor:
#      x y z
#    x 1.727290 0.000000 0.000000 
#    y 0.000000 1.754800 0.000000 
#    z 0.000000 0.000000 1.703370 
# 
# From -- ./inp_files/59606.got.cif
#   From: 2010.05.17/outbox.cif.g08.bks.cpg/sg70_30_cif.got.tgz:59606.got - 2010.06.03 15:57:51.
