data_PCOD9516584
_publ_section_title
;
Structure prediction by ZEFSAII (Michael W. Deem and Ramdas Pophale) SiO2 
 PCOD9516584
Probable space group: F D D D
;
_chemical_formula_sum "Si O2"
_cell_formula_units_Z 176
_cell_length_a 15.647337
_cell_length_b 23.424902
_cell_length_c 22.480707
_cell_angle_alpha 90.000000
_cell_angle_beta 90.000000
_cell_angle_gamma 90.000000
_cell_volume 8240.018450
_symmetry_space_group_name_H-M "F D D D"
_symmetry_group_IT_number 70
_space_group.IT_coordinate_system_code '2'
_symmetry_cell_setting 'orthorhombic'
loop_
_space_group_symop_operation_xyz
x,y,z
1/4-x,1/4-y,z
x,1/4-y,1/4-z
1/4-x,y,1/4-z
-x,-y,-z
3/4+x,3/4+y,-z
-x,3/4+y,3/4+z
3/4+x,-y,3/4+z
x,1/2+y,1/2+z
1/4-x,3/4-y,1/2+z
x,3/4-y,3/4-z
1/4-x,1/2+y,3/4-z
-x,1/2-y,1/2-z
3/4+x,1/4+y,1/2-z
-x,1/4+y,1/4+z
3/4+x,1/2-y,1/4+z
1/2+x,y,1/2+z
3/4-x,1/4-y,1/2+z
1/2+x,1/4-y,3/4-z
3/4-x,y,3/4-z
1/2-x,-y,1/2-z
1/4+x,3/4+y,1/2-z
1/2-x,3/4+y,1/4+z
1/4+x,-y,1/4+z
1/2+x,1/2+y,z
3/4-x,3/4-y,z
1/2+x,3/4-y,1/4-z
3/4-x,1/2+y,1/4-z
1/2-x,1/2-y,-z
1/4+x,1/4+y,-z
1/2-x,1/4+y,3/4+z
1/4+x,1/2-y,3/4+z
loop_
_atom_site_type_symbol
_atom_site_label
_atom_site_fract_x
_atom_site_fract_y
_atom_site_fract_z
Si Si1 0.483200 0.472046 0.716141
Si Si2 0.473890 0.525747 0.152505
Si Si3 0.875000 0.054847 0.875000
Si Si4 0.838667 0.658411 0.676014
Si Si5 0.653799 0.338900 0.040532
Si Si6 0.166197 0.185010 0.405623
O O1 0.477917 0.455446 0.786203
O O2 0.458978 0.538101 0.705617
O O3 0.578336 0.454895 0.696551
O O4 0.426735 0.439927 0.666136
O O5 0.542618 0.485525 0.119046
O O6 0.425546 0.567336 0.105804
O O7 0.397249 0.484858 0.174700
O O8 0.861002 0.100001 0.927584
O O9 0.787179 0.625000 0.625000
O O10 0.853327 0.608451 0.722872
O O11 0.742948 0.313414 0.062081
O O12 0.125000 0.125000 0.420792
#
# Coordination Sequence:
#
# PCOD9516584 Si02
#       6
#    32  32  16  32  32  32
#     4  11  22  41  66 100 133 181 225 281 357 415
#     4  11  24  42  67  96 142 177 236 288 348 405
#     4  12  22  44  69 102 129 186 242 278 344 418
#     4  11  24  44  68  99 145 179 227 301 343 409
#     4  12  22  42  71  95 138 181 230 286 347 418
#     4  11  21  41  67  96 130 182 228 285 337 421
#
# _framework density 21.359176000000001
#
# number of rings (size 3 to 8) (size 9 to 14) (size 15 to 20)
#    0.000    0.727    7.273    0.000    0.000    1.455 
#    6.545    0.455    4.000    0.000    0.000    0.000 
#    0.000    0.000    0.000    0.000    0.000    0.000 
#
# Total GULP energy -245384.006309 kJ/mol
# GULP energy per Si atom -5576.909234 kJ/mol
# Density = 2.131056 g / cm^3
# Si number density = 21.359176 Si / 1000 Ang^3
#
#
#
# Elastic Constant Matrix: (Units=GPa)
#
#
# Indices 1 2 3 4 5 6 
#
# 1 84.4072 40.2429 3.3888 0.0000 0.0000 0.0000
# 2 40.2429 83.1105 4.4610 0.0000 0.0000 0.0000
# 3 3.3888 4.4610 83.4943 0.0000 0.0000 0.0000
# 4 0.0000 0.0000 0.0000 24.3452 0.0000 0.0000
# 5 0.0000 0.0000 0.0000 0.0000 15.9213 0.0000
# 6 0.0000 0.0000 0.0000 0.0000 0.0000 36.1430
#
#
#
# Elastic Compliance Matrix: (Units=1/GPa)
#
#
# Indices 1 2 3 4 5 6 
#
# 1 0.015408 -0.007448 -0.000227 0.000000 0.000000 0.000000
# 2 -0.007448 0.015667 -0.000535 0.000000 0.000000 0.000000
# 3 -0.000227 -0.000535 0.012015 0.000000 0.000000 0.000000
# 4 0.000000 0.000000 0.000000 0.041076 0.000000 0.000000
# 5 0.000000 0.000000 0.000000 0.000000 0.062809 0.000000
# 6 0.000000 0.000000 0.000000 0.000000 0.000000 0.027668
#
#
# Mechanical properties :
#
#
# Convention : Reuss Voigt Hill
#
# Bulk Modulus (GPa) = 37.49712 38.57748 38.03730
# Shear Modulus (GPa) = 25.00587 28.80984 26.90785
#
# Velocity S-wave (km/s) = 3.42531 3.67662 3.55319
# Velocity P-wave (km/s) = 5.76518 6.01032 5.88902
#
# Compressibility (1/GPa) = 0.02666871
#
# Stress axis : x y z
#
# Youngs Moduli (GPa) = 64.90310 63.82675 83.23162
#
# Poissons Ratio (x) = 0.47540 0.01893
# Poissons Ratio (y) = 0.48342 0.04451
# Poissons Ratio (z) = 0.01476 0.03413
#
# Static dielectric constant tensor:
#      x y z
#    x 1.744190 0.000000 0.000000 
#    y 0.000000 1.780010 0.000000 
#    z 0.000000 0.000000 2.065200 
# 
# From -- ./inp_files/29066.got.cif
#   From: 2010.05.17/outbox.cif.g08.bks.cpg/sg70_15_cif.got.tgz:29066.got - 2010.06.03 15:57:51.
