data_PCOD9516806
_publ_section_title
;
Structure prediction by ZEFSAII (Michael W. Deem and Ramdas Pophale) SiO2 
 PCOD9516806
Probable space group: F D D D
;
_chemical_formula_sum "Si O2"
_cell_formula_units_Z 136
_cell_length_a 13.510284
_cell_length_b 30.916238
_cell_length_c 12.304925
_cell_angle_alpha 90.000000
_cell_angle_beta 90.000000
_cell_angle_gamma 90.000000
_cell_volume 5139.609123
_symmetry_space_group_name_H-M "F D D D"
_symmetry_group_IT_number 70
_space_group.IT_coordinate_system_code '2'
_symmetry_cell_setting 'orthorhombic'
loop_
_space_group_symop_operation_xyz
x,y,z
1/4-x,1/4-y,z
x,1/4-y,1/4-z
1/4-x,y,1/4-z
-x,-y,-z
3/4+x,3/4+y,-z
-x,3/4+y,3/4+z
3/4+x,-y,3/4+z
x,1/2+y,1/2+z
1/4-x,3/4-y,1/2+z
x,3/4-y,3/4-z
1/4-x,1/2+y,3/4-z
-x,1/2-y,1/2-z
3/4+x,1/4+y,1/2-z
-x,1/4+y,1/4+z
3/4+x,1/2-y,1/4+z
1/2+x,y,1/2+z
3/4-x,1/4-y,1/2+z
1/2+x,1/4-y,3/4-z
3/4-x,y,3/4-z
1/2-x,-y,1/2-z
1/4+x,3/4+y,1/2-z
1/2-x,3/4+y,1/4+z
1/4+x,-y,1/4+z
1/2+x,1/2+y,z
3/4-x,3/4-y,z
1/2+x,3/4-y,1/4-z
3/4-x,1/2+y,1/4-z
1/2-x,1/2-y,-z
1/4+x,1/4+y,-z
1/2-x,1/4+y,3/4+z
1/4+x,1/2-y,3/4+z
loop_
_atom_site_type_symbol
_atom_site_label
_atom_site_fract_x
_atom_site_fract_y
_atom_site_fract_z
Si Si1 0.375000 0.375000 0.375000
Si Si2 0.008335 0.367437 0.049909
Si Si3 0.517613 0.742655 0.082977
Si Si4 0.803302 0.466699 0.666643
Si Si5 0.022262 0.407527 0.469844
O O1 0.443750 0.348254 0.452832
O O2 0.920176 0.271928 0.078445
O O3 0.971034 0.350418 0.165408
O O4 0.990417 0.419152 0.053806
O O5 0.117440 0.355532 0.009435
O O6 0.625000 0.760980 0.125000
O O7 0.492872 0.704205 0.167941
O O8 0.528603 0.724807 0.960658
O O9 0.750000 0.500000 0.750000
O O10 0.991768 0.375000 0.375000
#
# Coordination Sequence:
#
# PCOD9516806 Si02
#       5
#     8  32  32  32  32
#     4  12  28  44  74 124 158 216 292 366 440 516
#     4  11  27  47  84 120 169 223 296 374 439 543
#     4  12  29  53  85 127 180 236 298 374 461 558
#     4  12  28  52  86 125 174 232 294 374 467 545
#     4  11  23  51  83 118 167 227 301 365 446 534
#
# _framework density 26.461155999999999
#
# number of rings (size 3 to 8) (size 9 to 14) (size 15 to 20)
#    0.000    0.471    3.529    2.824    9.882    0.471 
#    8.471    0.000    0.000    0.000    0.000    0.000 
#    0.000    0.000    0.000    0.000    0.000    0.000 
#
# Total GULP energy -190480.985669 kJ/mol
# GULP energy per Si atom -5602.381931 kJ/mol
# Density = 2.640093 g / cm^3
# Si number density = 26.461156 Si / 1000 Ang^3
#
#
#
# Elastic Constant Matrix: (Units=GPa)
#
#
# Indices 1 2 3 4 5 6 
#
# 1 195.2047 73.5358 69.0536 0.0000 0.0000 0.0000
# 2 73.5358 206.4694 82.6426 0.0000 0.0000 0.0000
# 3 69.0536 82.6426 264.0116 0.0000 0.0000 0.0000
# 4 0.0000 0.0000 0.0000 68.9489 0.0000 0.0000
# 5 0.0000 0.0000 0.0000 0.0000 46.2057 0.0000
# 6 0.0000 0.0000 0.0000 0.0000 0.0000 33.1277
#
#
#
# Elastic Compliance Matrix: (Units=1/GPa)
#
#
# Indices 1 2 3 4 5 6 
#
# 1 0.006165 -0.001772 -0.001058 0.000000 0.000000 0.000000
# 2 -0.001772 0.006047 -0.001429 0.000000 0.000000 0.000000
# 3 -0.001058 -0.001429 0.004512 0.000000 0.000000 0.000000
# 4 0.000000 0.000000 0.000000 0.014504 0.000000 0.000000
# 5 0.000000 0.000000 0.000000 0.000000 0.021642 0.000000
# 6 0.000000 0.000000 0.000000 0.000000 0.000000 0.030186
#
#
# Mechanical properties :
#
#
# Convention : Reuss Voigt Hill
#
# Bulk Modulus (GPa) = 121.88042 124.01663 122.94853
# Shear Modulus (GPa) = 53.01775 59.02003 56.01889
#
# Velocity S-wave (km/s) = 4.48102 4.72788 4.60610
# Velocity P-wave (km/s) = 8.54007 8.76202 8.65176
#
# Compressibility (1/GPa) = 0.00820476
#
# Stress axis : x y z
#
# Youngs Moduli (GPa) = 162.21700 165.38240 221.64511
#
# Poissons Ratio (x) = 0.29310 0.23442
# Poissons Ratio (y) = 0.28749 0.31678
# Poissons Ratio (z) = 0.17156 0.23637
#
# Static dielectric constant tensor:
#      x y z
#    x 2.110850 0.000000 0.000000 
#    y 0.000000 2.191790 0.000000 
#    z 0.000000 0.000000 2.038150 
# 
# From -- ./inp_files/17662.got.cif
#   From: 2010.05.17/outbox.cif.g08.bks.cpg/sg70_9_cif.got.tgz:17662.got - 2010.06.03 15:57:51.
