data_PCOD9516190
_publ_section_title
;
Structure prediction by ZEFSAII (Michael W. Deem and Ramdas Pophale) SiO2 
 PCOD9516190
Probable space group: F D D D
;
_chemical_formula_sum "Si O2"
_cell_formula_units_Z 176
_cell_length_a 15.884152
_cell_length_b 30.631786
_cell_length_c 16.387425
_cell_angle_alpha 90.000000
_cell_angle_beta 90.000000
_cell_angle_gamma 90.000000
_cell_volume 7973.464604
_symmetry_space_group_name_H-M "F D D D"
_symmetry_group_IT_number 70
_space_group.IT_coordinate_system_code '2'
_symmetry_cell_setting 'orthorhombic'
loop_
_space_group_symop_operation_xyz
x,y,z
1/4-x,1/4-y,z
x,1/4-y,1/4-z
1/4-x,y,1/4-z
-x,-y,-z
3/4+x,3/4+y,-z
-x,3/4+y,3/4+z
3/4+x,-y,3/4+z
x,1/2+y,1/2+z
1/4-x,3/4-y,1/2+z
x,3/4-y,3/4-z
1/4-x,1/2+y,3/4-z
-x,1/2-y,1/2-z
3/4+x,1/4+y,1/2-z
-x,1/4+y,1/4+z
3/4+x,1/2-y,1/4+z
1/2+x,y,1/2+z
3/4-x,1/4-y,1/2+z
1/2+x,1/4-y,3/4-z
3/4-x,y,3/4-z
1/2-x,-y,1/2-z
1/4+x,3/4+y,1/2-z
1/2-x,3/4+y,1/4+z
1/4+x,-y,1/4+z
1/2+x,1/2+y,z
3/4-x,3/4-y,z
1/2+x,3/4-y,1/4-z
3/4-x,1/2+y,1/4-z
1/2-x,1/2-y,-z
1/4+x,1/4+y,-z
1/2-x,1/4+y,3/4+z
1/4+x,1/2-y,3/4+z
loop_
_atom_site_type_symbol
_atom_site_label
_atom_site_fract_x
_atom_site_fract_y
_atom_site_fract_z
Si Si1 0.130337 0.365249 0.722763
Si Si2 0.731669 0.586398 0.565538
Si Si3 0.302819 0.911216 0.253344
Si Si4 0.625000 0.234205 0.625000
Si Si5 0.791252 0.287033 0.664120
Si Si6 0.933858 0.527955 0.051901
O O1 0.125000 0.369384 0.625000
O O2 0.056998 0.393319 0.763018
O O3 0.215534 0.384767 0.761457
O O4 0.110889 0.315562 0.748155
O O5 0.704233 0.625000 0.625000
O O6 0.678938 0.563334 0.495041
O O7 0.764038 0.549658 0.625791
O O8 0.375000 0.875000 0.261147
O O9 0.325514 0.951539 0.313227
O O10 0.297549 0.931629 0.163208
O O11 0.697577 0.265019 0.665615
O O12 0.859645 0.249360 0.657259
O O13 0.000000 0.500000 0.000000
#
# Coordination Sequence:
#
# PCOD9516190 Si02
#       6
#    32  32  32  16  32  32
#     4  11  23  46  71  98 141 193 240 299 372 438
#     4  10  23  45  67  97 133 185 239 287 358 440
#     4  12  26  42  73 105 144 189 245 301 376 452
#     4  12  25  46  74 112 148 186 250 316 382 436
#     4  12  24  44  70 103 143 185 240 307 371 435
#     4  11  27  42  69  99 143 184 244 296 366 435
#
# _framework density 22.073215999999999
#
# number of rings (size 3 to 8) (size 9 to 14) (size 15 to 20)
#    0.000    0.727    1.818    5.182    5.091    2.909 
#    0.000    2.727    0.000    0.000    0.000    0.000 
#    0.000    0.000    0.000    0.000    0.000    0.000 
#
# Total GULP energy -246048.580926 kJ/mol
# GULP energy per Si atom -5592.013203 kJ/mol
# Density = 2.202298 g / cm^3
# Si number density = 22.073216 Si / 1000 Ang^3
#
#
#
# Elastic Constant Matrix: (Units=GPa)
#
#
# Indices 1 2 3 4 5 6 
#
# 1 46.8620 1.5354 -0.6354 0.0000 0.0000 0.0000
# 2 1.5354 99.0297 36.3537 0.0000 0.0000 0.0000
# 3 -0.6354 36.3537 127.4367 0.0000 0.0000 0.0000
# 4 0.0000 0.0000 0.0000-2190.3144 0.0000 0.0000
# 5 0.0000 0.0000 0.0000 0.0000 56.7206 0.0000
# 6 0.0000 0.0000 0.0000 0.0000 0.0000 146.3992
#
#
#
# Elastic Compliance Matrix: (Units=1/GPa)
#
#
# Indices 1 2 3 4 5 6 
#
# 1 0.021356 -0.000413 0.000224 0.000000 0.000000 0.000000
# 2 -0.000413 0.011287 -0.003222 0.000000 0.000000 0.000000
# 3 0.000224 -0.003222 0.008767 0.000000 0.000000 0.000000
# 4 0.000000 0.000000 0.000000 -0.000457 0.000000 0.000000
# 5 0.000000 0.000000 0.000000 0.000000 0.017630 0.000000
# 6 0.000000 0.000000 0.000000 0.000000 0.000000 0.006831
#
#
# Mechanical properties :
#
#
# Convention : Reuss Voigt Hill
#
# Bulk Modulus (GPa) = 28.91151 38.64842 33.77997
# Shear Modulus (GPa) = 59.69004 -381.70062 -161.00529
#
# Velocity S-wave (km/s) = 5.20582 -13.16435 -8.54984
# Velocity P-wave (km/s) = 7.01858 14.61231 9.06254
#
# Compressibility (1/GPa) = 0.03458830
#
# Stress axis : x y z
#
# Youngs Moduli (GPa) = 46.82556 88.59626 114.06059
#
# Poissons Ratio (x) = 0.03663 -0.02560
# Poissons Ratio (y) = 0.01936 0.36750
# Poissons Ratio (z) = -0.01051 0.28545
#
# Static dielectric constant tensor:
#      x y z
#    x 1.810580 0.000000 0.000000 
#    y 0.000000 1.819670 0.000000 
#    z 0.000000 0.000000 1.809760 
# 
# From -- ./inp_files/35248.got.cif
#   From: 2010.05.17/outbox.cif.g08.bks.cpg/sg70_18_cif.got.tgz:35248.got - 2010.06.03 15:57:51.
