data_PCOD9516671
_publ_section_title
;
Structure prediction by ZEFSAII (Michael W. Deem and Ramdas Pophale) SiO2 
 PCOD9516671
Probable space group: F D D D
;
_chemical_formula_sum "Si O2"
_cell_formula_units_Z 168
_cell_length_a 15.205830
_cell_length_b 21.891572
_cell_length_c 21.647605
_cell_angle_alpha 90.000000
_cell_angle_beta 90.000000
_cell_angle_gamma 90.000000
_cell_volume 7206.044411
_symmetry_space_group_name_H-M "F D D D"
_symmetry_group_IT_number 70
_space_group.IT_coordinate_system_code '2'
_symmetry_cell_setting 'orthorhombic'
loop_
_space_group_symop_operation_xyz
x,y,z
1/4-x,1/4-y,z
x,1/4-y,1/4-z
1/4-x,y,1/4-z
-x,-y,-z
3/4+x,3/4+y,-z
-x,3/4+y,3/4+z
3/4+x,-y,3/4+z
x,1/2+y,1/2+z
1/4-x,3/4-y,1/2+z
x,3/4-y,3/4-z
1/4-x,1/2+y,3/4-z
-x,1/2-y,1/2-z
3/4+x,1/4+y,1/2-z
-x,1/4+y,1/4+z
3/4+x,1/2-y,1/4+z
1/2+x,y,1/2+z
3/4-x,1/4-y,1/2+z
1/2+x,1/4-y,3/4-z
3/4-x,y,3/4-z
1/2-x,-y,1/2-z
1/4+x,3/4+y,1/2-z
1/2-x,3/4+y,1/4+z
1/4+x,-y,1/4+z
1/2+x,1/2+y,z
3/4-x,3/4-y,z
1/2+x,3/4-y,1/4-z
3/4-x,1/2+y,1/4-z
1/2-x,1/2-y,-z
1/4+x,1/4+y,-z
1/2-x,1/4+y,3/4+z
1/4+x,1/2-y,3/4+z
loop_
_atom_site_type_symbol
_atom_site_label
_atom_site_fract_x
_atom_site_fract_y
_atom_site_fract_z
Si Si1 0.717375 0.656062 0.795874
Si Si2 0.320558 0.259326 0.091301
Si Si3 0.375000 0.875000 0.875000
Si Si4 0.457769 0.832315 0.280075
Si Si5 0.394586 0.643385 0.942154
Si Si6 0.508830 0.520675 0.683119
O O1 0.625000 0.625000 0.779935
O O2 0.701808 0.685035 0.863656
O O3 0.794438 0.606740 0.784523
O O4 0.748621 0.713915 0.755563
O O5 0.248792 0.205714 0.086745
O O6 0.417768 0.234267 0.103518
O O7 0.327527 0.285740 0.021981
O O8 0.437639 0.921162 0.839203
O O9 0.375000 0.875000 0.295017
O O10 0.539694 0.863595 0.242418
O O11 0.375000 0.611692 0.875000
O O12 0.438192 0.708033 0.927033
#
# Coordination Sequence:
#
# PCOD9516671 Si02
#       6
#    32  32   8  32  32  32
#     4  12  26  45  73 110 143 195 251 297 373 451
#     4  11  24  44  73 104 148 190 246 306 362 444
#     4  12  28  48  68 108 146 184 248 312 372 440
#     4  11  22  43  74 105 145 191 245 298 367 433
#     4  12  23  43  76 102 141 194 245 297 362 441
#     4  12  26  46  73 105 146 193 240 317 372 437
#
# _framework density 23.313762000000001
#
# number of rings (size 3 to 8) (size 9 to 14) (size 15 to 20)
#    0.000    0.381    7.619    1.714    0.000    2.286 
#    0.000    0.000    4.190    0.000    0.000    0.000 
#    0.000    0.000    0.000    0.000    0.000    0.000 
#
# Total GULP energy -234499.085485 kJ/mol
# GULP energy per Si atom -5583.311559 kJ/mol
# Density = 2.326070 g / cm^3
# Si number density = 23.313762 Si / 1000 Ang^3
#
#
#
# Elastic Constant Matrix: (Units=GPa)
#
#
# Indices 1 2 3 4 5 6 
#
# 1 197.0954 70.1600 12.3875 0.0000 0.0000 0.0000
# 2 70.1600 89.5084 6.0047 0.0000 0.0000 0.0000
# 3 12.3875 6.0047 32.1353 0.0000 0.0000 0.0000
# 4 0.0000 0.0000 0.0000 30.2781 0.0000 0.0000
# 5 0.0000 0.0000 0.0000 0.0000 10.2179 0.0000
# 6 0.0000 0.0000 0.0000 0.0000 0.0000 62.6118
#
#
#
# Elastic Compliance Matrix: (Units=1/GPa)
#
#
# Indices 1 2 3 4 5 6 
#
# 1 0.007131 -0.005473 -0.001726 0.000000 0.000000 0.000000
# 2 -0.005473 0.015515 -0.000789 0.000000 0.000000 0.000000
# 3 -0.001726 -0.000789 0.031931 0.000000 0.000000 0.000000
# 4 0.000000 0.000000 0.000000 0.033027 0.000000 0.000000
# 5 0.000000 0.000000 0.000000 0.000000 0.097868 0.000000
# 6 0.000000 0.000000 0.000000 0.000000 0.000000 0.015971
#
#
# Mechanical properties :
#
#
# Convention : Reuss Voigt Hill
#
# Bulk Modulus (GPa) = 25.90681 55.09371 40.50026
# Shear Modulus (GPa) = 21.71200 35.96732 28.83966
#
# Velocity S-wave (km/s) = 3.05502 3.93205 3.52095
# Velocity P-wave (km/s) = 4.85599 6.65563 5.82572
#
# Compressibility (1/GPa) = 0.03859988
#
# Stress axis : x y z
#
# Youngs Moduli (GPa) = 140.24231 64.45240 31.31731
#
# Poissons Ratio (x) = 0.35277 0.05405
# Poissons Ratio (y) = 0.76760 0.02472
# Poissons Ratio (z) = 0.24205 0.05087
#
# Static dielectric constant tensor:
#      x y z
#    x 1.964770 0.000000 0.000000 
#    y 0.000000 1.850140 0.000000 
#    z 0.000000 0.000000 2.070340 
# 
# From -- ./inp_files/42830.got.cif
#   From: 2010.05.17/outbox.cif.g08.bks.cpg/sg70_22_cif.got.tgz:42830.got - 2010.06.03 15:57:51.
