data_PCOD9516681
_publ_section_title
;
Structure prediction by ZEFSAII (Michael W. Deem and Ramdas Pophale) SiO2 
 PCOD9516681
Probable space group: F D D D
;
_chemical_formula_sum "Si O2"
_cell_formula_units_Z 208
_cell_length_a 17.860917
_cell_length_b 18.898253
_cell_length_c 25.924234
_cell_angle_alpha 90.000000
_cell_angle_beta 90.000000
_cell_angle_gamma 90.000000
_cell_volume 8750.469270
_symmetry_space_group_name_H-M "F D D D"
_symmetry_group_IT_number 70
_space_group.IT_coordinate_system_code '2'
_symmetry_cell_setting 'orthorhombic'
loop_
_space_group_symop_operation_xyz
x,y,z
1/4-x,1/4-y,z
x,1/4-y,1/4-z
1/4-x,y,1/4-z
-x,-y,-z
3/4+x,3/4+y,-z
-x,3/4+y,3/4+z
3/4+x,-y,3/4+z
x,1/2+y,1/2+z
1/4-x,3/4-y,1/2+z
x,3/4-y,3/4-z
1/4-x,1/2+y,3/4-z
-x,1/2-y,1/2-z
3/4+x,1/4+y,1/2-z
-x,1/4+y,1/4+z
3/4+x,1/2-y,1/4+z
1/2+x,y,1/2+z
3/4-x,1/4-y,1/2+z
1/2+x,1/4-y,3/4-z
3/4-x,y,3/4-z
1/2-x,-y,1/2-z
1/4+x,3/4+y,1/2-z
1/2-x,3/4+y,1/4+z
1/4+x,-y,1/4+z
1/2+x,1/2+y,z
3/4-x,3/4-y,z
1/2+x,3/4-y,1/4-z
3/4-x,1/2+y,1/4-z
1/2-x,1/2-y,-z
1/4+x,1/4+y,-z
1/2-x,1/4+y,3/4+z
1/4+x,1/2-y,3/4+z
loop_
_atom_site_type_symbol
_atom_site_label
_atom_site_fract_x
_atom_site_fract_y
_atom_site_fract_z
Si Si1 0.211177 0.940077 0.607901
Si Si2 0.646401 0.544249 0.220278
Si Si3 0.222819 0.038773 0.332509
Si Si4 0.375000 0.875000 0.750875
Si Si5 0.259206 0.820150 0.919925
Si Si6 0.660003 0.315983 0.337624
Si Si7 0.737843 0.745690 0.754315
O O1 0.125000 0.931556 0.625000
O O2 0.250159 0.865359 0.600898
O O3 0.244427 0.989779 0.651910
O O4 0.224493 0.986367 0.555596
O O5 0.625000 0.625000 0.206030
O O6 0.704402 0.509243 0.180489
O O7 0.681723 0.547238 0.277701
O O8 0.573755 0.493602 0.228421
O O9 0.170180 0.002481 0.375566
O O10 0.318758 0.922060 0.785289
O O11 0.315138 0.819439 0.728196
O O12 0.283791 0.875000 0.875000
O O13 0.173121 0.838265 0.929756
O O14 0.690692 0.375000 0.375000
O O15 0.706634 0.311444 0.286133
#
# Coordination Sequence:
#
# PCOD9516681 Si02
#       7
#    32  32  32  16  32  32  32
#     4  12  24  45  74 105 142 192 248 305 370 451
#     4  11  24  48  79 102 143 194 251 316 384 453
#     4  11  27  46  73 108 139 193 252 314 374 448
#     4  12  25  46  74 110 150 200 254 306 381 476
#     4  11  22  44  75  99 145 197 240 299 378 453
#     4  11  28  47  70 108 148 196 248 314 379 452
#     4  12  26  45  74 110 149 198 247 310 381 453
#
# _framework density 23.770154000000002
#
# number of rings (size 3 to 8) (size 9 to 14) (size 15 to 20)
#    0.000    0.615    4.615    2.077    6.462    1.846 
#    0.000    1.538    0.000    0.000    0.000    0.000 
#    0.000    0.000    0.000    0.000    0.000    0.000 
#
# Total GULP energy -290801.283179 kJ/mol
# GULP energy per Si atom -5592.332369 kJ/mol
# Density = 2.371605 g / cm^3
# Si number density = 23.770154 Si / 1000 Ang^3
#
#
#
# Elastic Constant Matrix: (Units=GPa)
#
#
# Indices 1 2 3 4 5 6 
#
# 1 120.6119 28.6235 9.4064 0.0000 0.0000 0.0000
# 2 28.6235 114.7096 8.7174 0.0000 0.0000 0.0000
# 3 9.4064 8.7174 42.3000 0.0000 0.0000 0.0000
# 4 0.0000 0.0000 0.0000 22.1604 0.0000 0.0000
# 5 0.0000 0.0000 0.0000 0.0000 -54.8566 0.0000
# 6 0.0000 0.0000 0.0000 0.0000 0.0000 -299.8718
#
#
#
# Elastic Compliance Matrix: (Units=1/GPa)
#
#
# Indices 1 2 3 4 5 6 
#
# 1 0.008912 -0.002106 -0.001548 0.000000 0.000000 0.000000
# 2 -0.002106 0.009354 -0.001459 0.000000 0.000000 0.000000
# 3 -0.001548 -0.001459 0.024286 0.000000 0.000000 0.000000
# 4 0.000000 0.000000 0.000000 0.045125 0.000000 0.000000
# 5 0.000000 0.000000 0.000000 0.000000 -0.018229 0.000000
# 6 0.000000 0.000000 0.000000 0.000000 0.000000 -0.003335
#
#
# Mechanical properties :
#
#
# Convention : Reuss Voigt Hill
#
# Bulk Modulus (GPa) = 30.93585 41.23511 36.08548
# Shear Modulus (GPa) = 57.39612 -51.12198 3.13707
#
# Velocity S-wave (km/s) = 4.91922 -4.64257 1.15005
# Velocity P-wave (km/s) = 6.73111 3.36940 4.12037
#
# Compressibility (1/GPa) = 0.03232495
#
# Stress axis : x y z
#
# Youngs Moduli (GPa) = 112.21369 106.90497 41.17670
#
# Poissons Ratio (x) = 0.22515 0.06373
# Poissons Ratio (y) = 0.23633 0.06009
# Poissons Ratio (z) = 0.17367 0.15602
#
# Static dielectric constant tensor:
#      x y z
#    x 1.907170 0.000000 0.000000 
#    y 0.000000 1.940620 0.000000 
#    z 0.000000 0.000000 1.891660 
# 
# From -- ./inp_files/59623.got.cif
#   From: 2010.05.17/outbox.cif.g08.bks.cpg/sg70_30_cif.got.tgz:59623.got - 2010.06.03 15:57:51.
