data_PCOD9516811
_publ_section_title
;
Structure prediction by ZEFSAII (Michael W. Deem and Ramdas Pophale) SiO2 
 PCOD9516811
Probable space group: F D D D
;
_chemical_formula_sum "Si O2"
_cell_formula_units_Z 160
_cell_length_a 25.514039
_cell_length_b 12.173362
_cell_length_c 25.513962
_cell_angle_alpha 90.000000
_cell_angle_beta 90.000000
_cell_angle_gamma 90.000000
_cell_volume 7924.423118
_symmetry_space_group_name_H-M "F D D D"
_symmetry_group_IT_number 70
_space_group.IT_coordinate_system_code '2'
_symmetry_cell_setting 'orthorhombic'
loop_
_space_group_symop_operation_xyz
x,y,z
1/4-x,1/4-y,z
x,1/4-y,1/4-z
1/4-x,y,1/4-z
-x,-y,-z
3/4+x,3/4+y,-z
-x,3/4+y,3/4+z
3/4+x,-y,3/4+z
x,1/2+y,1/2+z
1/4-x,3/4-y,1/2+z
x,3/4-y,3/4-z
1/4-x,1/2+y,3/4-z
-x,1/2-y,1/2-z
3/4+x,1/4+y,1/2-z
-x,1/4+y,1/4+z
3/4+x,1/2-y,1/4+z
1/2+x,y,1/2+z
3/4-x,1/4-y,1/2+z
1/2+x,1/4-y,3/4-z
3/4-x,y,3/4-z
1/2-x,-y,1/2-z
1/4+x,3/4+y,1/2-z
1/2-x,3/4+y,1/4+z
1/4+x,-y,1/4+z
1/2+x,1/2+y,z
3/4-x,3/4-y,z
1/2+x,3/4-y,1/4-z
3/4-x,1/2+y,1/4-z
1/2-x,1/2-y,-z
1/4+x,1/4+y,-z
1/2-x,1/4+y,3/4+z
1/4+x,1/2-y,3/4+z
loop_
_atom_site_type_symbol
_atom_site_label
_atom_site_fract_x
_atom_site_fract_y
_atom_site_fract_z
Si Si1 0.125000 0.125000 0.849210
Si Si2 0.828784 0.701789 0.019008
Si Si3 0.150790 0.375000 0.875000
Si Si4 0.507613 0.105235 0.799871
Si Si5 0.049872 0.394765 0.757612
Si Si6 0.230992 0.548210 0.328784
O O1 0.124306 0.250000 0.875694
O O2 0.179133 0.121164 0.817690
O O3 0.817690 0.628836 0.070866
O O4 0.808706 0.821024 0.037289
O O5 0.889673 0.680662 0.007162
O O6 0.793266 0.670131 0.969477
O O7 0.507163 0.069337 0.860327
O O8 0.513893 0.000000 0.763892
O O9 0.037290 0.321024 0.808706
O O10 0.030522 0.329868 0.706733
#
# Coordination Sequence:
#
# PCOD9516811 Si02
#       6
#    16  32  16  32  32  32
#     4  12  22  38  68  98 129 175 218 284 320 392
#     4  11  24  40  67  93 135 168 222 268 335 389
#     4  12  22  38  68  98 129 175 218 284 320 392
#     4  11  24  42  65 101 127 176 217 277 331 399
#     4  11  24  42  65 101 127 176 217 277 331 399
#     4  11  24  40  67  93 135 168 222 268 335 389
#
# _framework density 20.190743999999999
#
# number of rings (size 3 to 8) (size 9 to 14) (size 15 to 20)
#    0.000    0.800    4.000    3.600    0.000    0.800 
#    0.000    0.000    0.000    4.800    0.000    0.000 
#    0.000    0.000    0.000    0.000    0.000    0.000 
#
# Total GULP energy -222709.158391 kJ/mol
# GULP energy per Si atom -5567.728960 kJ/mol
# Density = 2.014479 g / cm^3
# Si number density = 20.190744 Si / 1000 Ang^3
#
#
#
# Elastic Constant Matrix: (Units=GPa)
#
#
# Indices 1 2 3 4 5 6 
#
# 1 80.4382 25.2660 52.5984 0.0000 0.0000 0.0000
# 2 25.2660 131.4905 25.2652 0.0000 0.0000 0.0000
# 3 52.5984 25.2652 80.4342 0.0000 0.0000 0.0000
# 4 0.0000 0.0000 0.0000 17.1103 0.0000 0.0000
# 5 0.0000 0.0000 0.0000 0.0000 26.6679 0.0000
# 6 0.0000 0.0000 0.0000 0.0000 0.0000 17.1104
#
#
#
# Elastic Compliance Matrix: (Units=1/GPa)
#
#
# Indices 1 2 3 4 5 6 
#
# 1 0.022015 -0.001558 -0.013907 0.000000 0.000000 0.000000
# 2 -0.001558 0.008204 -0.001558 0.000000 0.000000 0.000000
# 3 -0.013907 -0.001558 0.022016 0.000000 0.000000 0.000000
# 4 0.000000 0.000000 0.000000 0.058444 0.000000 0.000000
# 5 0.000000 0.000000 0.000000 0.000000 0.037498 0.000000
# 6 0.000000 0.000000 0.000000 0.000000 0.000000 0.058444
#
#
# Mechanical properties :
#
#
# Convention : Reuss Voigt Hill
#
# Bulk Modulus (GPa) = 54.97851 55.40246 55.19048
# Shear Modulus (GPa) = 20.26505 24.79327 22.52916
#
# Velocity S-wave (km/s) = 3.17153 3.50802 3.34401
# Velocity P-wave (km/s) = 6.37967 6.62626 6.50413
#
# Compressibility (1/GPa) = 0.01818893
#
# Stress axis : x y z
#
# Youngs Moduli (GPa) = 45.42370 121.89373 45.42144
#
# Poissons Ratio (x) = 0.18992 0.63167
# Poissons Ratio (y) = 0.07077 0.07077
# Poissons Ratio (z) = 0.63170 0.18992
#
# Static dielectric constant tensor:
#      x y z
#    x 1.721090 0.000000 0.000000 
#    y 0.000000 1.872400 0.000000 
#    z 0.000000 0.000000 1.721090 
# 
# From -- ./inp_files/61619.got.cif
#   From: 2010.05.17/outbox.cif.g08.bks.cpg/sg70_31_cif.got.tgz:61619.got - 2010.06.03 15:57:51.
