data_PCOD9516318
_publ_section_title
;
Structure prediction by ZEFSAII (Michael W. Deem and Ramdas Pophale) SiO2 
 PCOD9516318
Probable space group: F D D D
;
_chemical_formula_sum "Si O2"
_cell_formula_units_Z 88
_cell_length_a 11.010234
_cell_length_b 16.032843
_cell_length_c 19.155328
_cell_angle_alpha 90.000000
_cell_angle_beta 90.000000
_cell_angle_gamma 90.000000
_cell_volume 3381.401039
_symmetry_space_group_name_H-M "F D D D"
_symmetry_group_IT_number 70
_space_group.IT_coordinate_system_code '2'
_symmetry_cell_setting 'orthorhombic'
loop_
_space_group_symop_operation_xyz
x,y,z
1/4-x,1/4-y,z
x,1/4-y,1/4-z
1/4-x,y,1/4-z
-x,-y,-z
3/4+x,3/4+y,-z
-x,3/4+y,3/4+z
3/4+x,-y,3/4+z
x,1/2+y,1/2+z
1/4-x,3/4-y,1/2+z
x,3/4-y,3/4-z
1/4-x,1/2+y,3/4-z
-x,1/2-y,1/2-z
3/4+x,1/4+y,1/2-z
-x,1/4+y,1/4+z
3/4+x,1/2-y,1/4+z
1/2+x,y,1/2+z
3/4-x,1/4-y,1/2+z
1/2+x,1/4-y,3/4-z
3/4-x,y,3/4-z
1/2-x,-y,1/2-z
1/4+x,3/4+y,1/2-z
1/2-x,3/4+y,1/4+z
1/4+x,-y,1/4+z
1/2+x,1/2+y,z
3/4-x,3/4-y,z
1/2+x,3/4-y,1/4-z
3/4-x,1/2+y,1/4-z
1/2-x,1/2-y,-z
1/4+x,1/4+y,-z
1/2-x,1/4+y,3/4+z
1/4+x,1/2-y,3/4+z
loop_
_atom_site_type_symbol
_atom_site_label
_atom_site_fract_x
_atom_site_fract_y
_atom_site_fract_z
Si Si1 0.602622 0.274640 0.870814
Si Si2 0.125000 0.125000 0.625000
Si Si3 0.625000 0.832058 0.125000
Si Si4 0.347276 0.236049 0.283520
O O1 0.592844 0.375000 0.875000
O O2 0.481746 0.226611 0.846716
O O3 0.712705 0.248220 0.818616
O O4 0.597742 0.248632 0.952378
O O5 0.176892 0.191052 0.570022
O O6 0.603358 0.897958 0.061584
#
# Coordination Sequence:
#
# PCOD9516318 Si02
#       4
#    32   8  16  32
#     4  12  26  48  75 110 160 202 266 318 403 464
#     4  10  24  44  78 110 142 200 276 328 364 456
#     4  11  27  41  73 108 154 204 255 325 393 459
#     4  11  26  46  77 111 150 207 265 328 378 474
#
# _framework density 26.024715
#
# number of rings (size 3 to 8) (size 9 to 14) (size 15 to 20)
#    0.000    0.727    1.818    3.818    5.091   11.636 
#    0.000    0.000    0.000    0.000    0.000    0.000 
#    0.000    0.000    0.000    0.000    0.000    0.000 
#
# Total GULP energy -122783.020947 kJ/mol
# GULP energy per Si atom -5581.046407 kJ/mol
# Density = 2.596548 g / cm^3
# Si number density = 26.024715 Si / 1000 Ang^3
#
#
#
# Elastic Constant Matrix: (Units=GPa)
#
#
# Indices 1 2 3 4 5 6 
#
# 1 172.0885 74.4770 26.0083 0.0000 0.0000 0.0000
# 2 74.4770 179.4918 19.4718 0.0000 0.0000 0.0000
# 3 26.0083 19.4718 120.7115 0.0000 0.0000 0.0000
# 4 0.0000 0.0000 0.0000 25.0560 0.0000 0.0000
# 5 0.0000 0.0000 0.0000 0.0000 39.4271 0.0000
# 6 0.0000 0.0000 0.0000 0.0000 0.0000 40.9479
#
#
#
# Elastic Compliance Matrix: (Units=1/GPa)
#
#
# Indices 1 2 3 4 5 6 
#
# 1 0.007222 -0.002878 -0.001092 0.000000 0.000000 0.000000
# 2 -0.002878 0.006817 -0.000480 0.000000 0.000000 0.000000
# 3 -0.001092 -0.000480 0.008597 0.000000 0.000000 0.000000
# 4 0.000000 0.000000 0.000000 0.039911 0.000000 0.000000
# 5 0.000000 0.000000 0.000000 0.000000 0.025363 0.000000
# 6 0.000000 0.000000 0.000000 0.000000 0.000000 0.024421
#
#
# Mechanical properties :
#
#
# Convention : Reuss Voigt Hill
#
# Bulk Modulus (GPa) = 72.79533 79.13401 75.96467
# Shear Modulus (GPa) = 39.74290 44.57518 42.15904
#
# Velocity S-wave (km/s) = 3.91208 4.14309 4.02924
# Velocity P-wave (km/s) = 6.95975 7.30481 7.13437
#
# Compressibility (1/GPa) = 0.01373714
#
# Stress axis : x y z
#
# Youngs Moduli (GPa) = 138.47523 146.68141 116.32244
#
# Poissons Ratio (x) = 0.42215 0.12699
# Poissons Ratio (y) = 0.39853 0.05579
# Poissons Ratio (z) = 0.15117 0.07035
#
# Static dielectric constant tensor:
#      x y z
#    x 2.443140 0.000000 0.000000 
#    y 0.000000 1.993310 0.000000 
#    z 0.000000 0.000000 2.125240 
# 
# From -- ./inp_files/56949.got.cif
#   From: 2010.05.17/outbox.cif.g08.bks.cpg/sg70_29_cif.got.tgz:56949.got - 2010.06.03 15:57:51.
