data_PCOD9516568
_publ_section_title
;
Structure prediction by ZEFSAII (Michael W. Deem and Ramdas Pophale) SiO2 
 PCOD9516568
Probable space group: F D D D
;
_chemical_formula_sum "Si O2"
_cell_formula_units_Z 96
_cell_length_a 12.783511
_cell_length_b 28.493768
_cell_length_c 12.429064
_cell_angle_alpha 90.000000
_cell_angle_beta 90.000000
_cell_angle_gamma 90.000000
_cell_volume 4527.291492
_symmetry_space_group_name_H-M "F D D D"
_symmetry_group_IT_number 70
_space_group.IT_coordinate_system_code '2'
_symmetry_cell_setting 'orthorhombic'
loop_
_space_group_symop_operation_xyz
x,y,z
1/4-x,1/4-y,z
x,1/4-y,1/4-z
1/4-x,y,1/4-z
-x,-y,-z
3/4+x,3/4+y,-z
-x,3/4+y,3/4+z
3/4+x,-y,3/4+z
x,1/2+y,1/2+z
1/4-x,3/4-y,1/2+z
x,3/4-y,3/4-z
1/4-x,1/2+y,3/4-z
-x,1/2-y,1/2-z
3/4+x,1/4+y,1/2-z
-x,1/4+y,1/4+z
3/4+x,1/2-y,1/4+z
1/2+x,y,1/2+z
3/4-x,1/4-y,1/2+z
1/2+x,1/4-y,3/4-z
3/4-x,y,3/4-z
1/2-x,-y,1/2-z
1/4+x,3/4+y,1/2-z
1/2-x,3/4+y,1/4+z
1/4+x,-y,1/4+z
1/2+x,1/2+y,z
3/4-x,3/4-y,z
1/2+x,3/4-y,1/4-z
3/4-x,1/2+y,1/4-z
1/2-x,1/2-y,-z
1/4+x,1/4+y,-z
1/2-x,1/4+y,3/4+z
1/4+x,1/2-y,3/4+z
loop_
_atom_site_type_symbol
_atom_site_label
_atom_site_fract_x
_atom_site_fract_y
_atom_site_fract_z
Si Si1 0.994267 0.875396 0.744915
Si Si2 0.353162 0.719969 0.527086
Si Si3 0.685242 0.978273 0.020029
O O1 0.985222 0.875000 0.875000
O O2 0.875000 0.875000 0.702784
O O3 0.071347 0.831148 0.732115
O O4 0.122805 0.972533 0.843866
O O5 0.250000 0.750000 0.500000
O O6 0.460376 0.742958 0.487456
O O7 0.285113 0.575217 0.453208
O O8 0.625000 0.997764 0.125000
#
# Coordination Sequence:
#
# PCOD9516568 Si02
#       3
#    32  32  32
#     4   9  18  36  59  84 114 155 210 257 293 360
#     4  11  21  38  63  88 118 163 212 253 303 378
#     4  11  23  38  59  89 128 159 199 259 323 366
#
# _framework density 21.204730999999999
#
# number of rings (size 3 to 8) (size 9 to 14) (size 15 to 20)
#    0.000    1.667    3.333    2.000    0.000    2.667 
#    0.000    0.000    0.000    7.000    0.000    0.000 
#    0.000    0.000    0.000    0.000    0.000    0.000 
#
# Total GULP energy -133645.985852 kJ/mol
# GULP energy per Si atom -5568.582744 kJ/mol
# Density = 2.115647 g / cm^3
# Si number density = 21.204731 Si / 1000 Ang^3
#
#
#
# Elastic Constant Matrix: (Units=GPa)
#
#
# Indices 1 2 3 4 5 6 
#
# 1 101.9733 47.8520 29.5729 0.0000 0.0000 0.0000
# 2 47.8520 112.0655 -6.6965 0.0000 0.0000 0.0000
# 3 29.5729 -6.6965 91.7002 0.0000 0.0000 0.0000
# 4 0.0000 0.0000 0.0000 20.0204 0.0000 0.0000
# 5 0.0000 0.0000 0.0000 0.0000 30.0002 0.0000
# 6 0.0000 0.0000 0.0000 0.0000 0.0000 1.7518
#
#
#
# Elastic Compliance Matrix: (Units=1/GPa)
#
#
# Indices 1 2 3 4 5 6 
#
# 1 0.014282 -0.006401 -0.005073 0.000000 0.000000 0.000000
# 2 -0.006401 0.011832 0.002928 0.000000 0.000000 0.000000
# 3 -0.005073 0.002928 0.012755 0.000000 0.000000 0.000000
# 4 0.000000 0.000000 0.000000 0.049949 0.000000 0.000000
# 5 0.000000 0.000000 0.000000 0.000000 0.033333 0.000000
# 6 0.000000 0.000000 0.000000 0.000000 0.000000 0.570852
#
#
# Mechanical properties :
#
#
# Convention : Reuss Voigt Hill
#
# Bulk Modulus (GPa) = 45.92203 49.68843 47.80523
# Shear Modulus (GPa) = 6.97006 26.02186 16.49596
#
# Velocity S-wave (km/s) = 1.81498 3.50690 2.79218
# Velocity P-wave (km/s) = 5.10840 6.31517 5.74357
#
# Compressibility (1/GPa) = 0.02177604
#
# Stress axis : x y z
#
# Youngs Moduli (GPa) = 70.01970 84.51834 78.40033
#
# Poissons Ratio (x) = 0.54104 0.39774
# Poissons Ratio (y) = 0.44823 -0.22959
# Poissons Ratio (z) = 0.35523 -0.24751
#
# Static dielectric constant tensor:
#      x y z
#    x 1.736310 0.000000 0.000000 
#    y 0.000000 1.785810 0.000000 
#    z 0.000000 0.000000 1.959010 
# 
# From -- ./inp_files/49833.got.cif
#   From: 2010.05.17/outbox.cif.g08.bks.cpg/sg70_25_cif.got.tgz:49833.got - 2010.06.03 15:57:51.
