data_PCOD9516002
_publ_section_title
;
Structure prediction by ZEFSAII (Michael W. Deem and Ramdas Pophale) SiO2 
 PCOD9516002
Probable space group: F D D D
;
_chemical_formula_sum "Si O2"
_cell_formula_units_Z 80
_cell_length_a 26.399184
_cell_length_b 11.750794
_cell_length_c 10.392115
_cell_angle_alpha 90.000000
_cell_angle_beta 90.000000
_cell_angle_gamma 90.000000
_cell_volume 3223.752262
_symmetry_space_group_name_H-M "F D D D"
_symmetry_group_IT_number 70
_space_group.IT_coordinate_system_code '2'
_symmetry_cell_setting 'orthorhombic'
loop_
_space_group_symop_operation_xyz
x,y,z
1/4-x,1/4-y,z
x,1/4-y,1/4-z
1/4-x,y,1/4-z
-x,-y,-z
3/4+x,3/4+y,-z
-x,3/4+y,3/4+z
3/4+x,-y,3/4+z
x,1/2+y,1/2+z
1/4-x,3/4-y,1/2+z
x,3/4-y,3/4-z
1/4-x,1/2+y,3/4-z
-x,1/2-y,1/2-z
3/4+x,1/4+y,1/2-z
-x,1/4+y,1/4+z
3/4+x,1/2-y,1/4+z
1/2+x,y,1/2+z
3/4-x,1/4-y,1/2+z
1/2+x,1/4-y,3/4-z
3/4-x,y,3/4-z
1/2-x,-y,1/2-z
1/4+x,3/4+y,1/2-z
1/2-x,3/4+y,1/4+z
1/4+x,-y,1/4+z
1/2+x,1/2+y,z
3/4-x,3/4-y,z
1/2+x,3/4-y,1/4-z
3/4-x,1/2+y,1/4-z
1/2-x,1/2-y,-z
1/4+x,1/4+y,-z
1/2-x,1/4+y,3/4+z
1/4+x,1/2-y,3/4+z
loop_
_atom_site_type_symbol
_atom_site_label
_atom_site_fract_x
_atom_site_fract_y
_atom_site_fract_z
Si Si1 0.381216 0.125000 0.125000
Si Si2 0.320138 0.813941 0.996686
Si Si3 0.696396 0.560443 0.256972
O O1 0.415474 0.182332 0.237198
O O2 0.345457 0.219403 0.056580
O O3 0.375000 0.875000 0.999123
O O4 0.295625 0.847526 0.130359
O O5 0.294289 0.875000 0.875000
O O6 0.750000 0.500000 0.250000
O O7 0.683732 0.625000 0.125000
#
# Coordination Sequence:
#
# PCOD9516002 Si02
#       3
#    16  32  32
#     4  10  22  44  74  96 137 182 244 289 340 420
#     4   9  21  40  67  96 129 177 236 282 338 412
#     4  11  23  41  67 102 139 180 224 288 357 411
#
# _framework density 24.815802999999999
#
# number of rings (size 3 to 8) (size 9 to 14) (size 15 to 20)
#    0.000    2.000    2.000    0.000    0.000   20.000 
#    0.000    2.000   13.200    0.000    0.000    0.000 
#    0.000    0.000    0.000    0.000    0.000    0.000 
#
# Total GULP energy -111701.410928 kJ/mol
# GULP energy per Si atom -5585.070546 kJ/mol
# Density = 2.475932 g / cm^3
# Si number density = 24.815803 Si / 1000 Ang^3
#
#
#
# Elastic Constant Matrix: (Units=GPa)
#
#
# Indices 1 2 3 4 5 6 
#
# 1 68.2920 34.6343 32.9430 0.0000 0.0000 0.0000
# 2 34.6343 143.8939 81.1713 0.0000 0.0000 0.0000
# 3 32.9430 81.1713 214.2034 0.0000 0.0000 0.0000
# 4 0.0000 0.0000 0.0000 32.6818 0.0000 0.0000
# 5 0.0000 0.0000 0.0000 0.0000 -15.9422 0.0000
# 6 0.0000 0.0000 0.0000 0.0000 0.0000 -109.5519
#
#
#
# Elastic Compliance Matrix: (Units=1/GPa)
#
#
# Indices 1 2 3 4 5 6 
#
# 1 0.016981 -0.003325 -0.001352 0.000000 0.000000 0.000000
# 2 -0.003325 0.009490 -0.003085 0.000000 0.000000 0.000000
# 3 -0.001352 -0.003085 0.006045 0.000000 0.000000 0.000000
# 4 0.000000 0.000000 0.000000 0.030598 0.000000 0.000000
# 5 0.000000 0.000000 0.000000 0.000000 -0.062727 0.000000
# 6 0.000000 0.000000 0.000000 0.000000 0.000000 -0.009128
#
#
# Mechanical properties :
#
#
# Convention : Reuss Voigt Hill
#
# Bulk Modulus (GPa) = 58.84466 80.43182 69.63824
# Shear Modulus (GPa) = 401.70204 -0.05305 200.82449
#
# Velocity S-wave (km/s) = 12.73675 -0.14637 9.00565
# Velocity P-wave (km/s) = 15.49400 5.69678 11.67299
#
# Compressibility (1/GPa) = 0.01699390
#
# Stress axis : x y z
#
# Youngs Moduli (GPa) = 58.88874 105.37416 165.41694
#
# Poissons Ratio (x) = 0.35034 0.22359
# Poissons Ratio (y) = 0.19579 0.51029
# Poissons Ratio (z) = 0.07960 0.32506
#
# Static dielectric constant tensor:
#      x y z
#    x 1.978420 0.000000 0.000000 
#    y 0.000000 2.314820 0.000000 
#    z 0.000000 0.000000 2.098270 
# 
# From -- ./inp_files/21543.got.cif
#   From: 2010.05.17/outbox.cif.g08.bks.cpg/sg70_11_cif.got.tgz:21543.got - 2010.06.03 15:57:51.
