data_PCOD9516830
_publ_section_title
;
Structure prediction by ZEFSAII (Michael W. Deem and Ramdas Pophale) SiO2 
 PCOD9516830
Probable space group: F D D D
;
_chemical_formula_sum "Si O2"
_cell_formula_units_Z 136
_cell_length_a 16.095992
_cell_length_b 15.755475
_cell_length_c 22.469509
_cell_angle_alpha 90.000000
_cell_angle_beta 90.000000
_cell_angle_gamma 90.000000
_cell_volume 5698.267472
_symmetry_space_group_name_H-M "F D D D"
_symmetry_group_IT_number 70
_space_group.IT_coordinate_system_code '2'
_symmetry_cell_setting 'orthorhombic'
loop_
_space_group_symop_operation_xyz
x,y,z
1/4-x,1/4-y,z
x,1/4-y,1/4-z
1/4-x,y,1/4-z
-x,-y,-z
3/4+x,3/4+y,-z
-x,3/4+y,3/4+z
3/4+x,-y,3/4+z
x,1/2+y,1/2+z
1/4-x,3/4-y,1/2+z
x,3/4-y,3/4-z
1/4-x,1/2+y,3/4-z
-x,1/2-y,1/2-z
3/4+x,1/4+y,1/2-z
-x,1/4+y,1/4+z
3/4+x,1/2-y,1/4+z
1/2+x,y,1/2+z
3/4-x,1/4-y,1/2+z
1/2+x,1/4-y,3/4-z
3/4-x,y,3/4-z
1/2-x,-y,1/2-z
1/4+x,3/4+y,1/2-z
1/2-x,3/4+y,1/4+z
1/4+x,-y,1/4+z
1/2+x,1/2+y,z
3/4-x,3/4-y,z
1/2+x,3/4-y,1/4-z
3/4-x,1/2+y,1/4-z
1/2-x,1/2-y,-z
1/4+x,1/4+y,-z
1/2-x,1/4+y,3/4+z
1/4+x,1/2-y,3/4+z
loop_
_atom_site_type_symbol
_atom_site_label
_atom_site_fract_x
_atom_site_fract_y
_atom_site_fract_z
Si Si1 0.694887 0.198216 0.289876
Si Si2 0.048920 0.301070 0.921054
Si Si3 0.532516 0.376819 0.100652
Si Si4 0.281909 0.145247 0.037261
Si Si5 0.375000 0.375000 0.875000
O O1 0.625000 0.125000 0.288432
O O2 0.753090 0.181869 0.233153
O O3 0.745290 0.187526 0.350137
O O4 0.677546 0.299072 0.287697
O O5 0.028756 0.375000 0.875000
O O6 0.146319 0.299079 0.933781
O O7 0.017360 0.211152 0.897951
O O8 0.625000 0.360352 0.125000
O O9 0.525352 0.411179 0.033443
O O10 0.196263 0.150746 0.074586
#
# Coordination Sequence:
#
# PCOD9516830 Si02
#       5
#    32  32  32  32   8
#     4  11  26  43  70 105 146 187 240 304 364 441
#     4  11  24  43  69 103 142 188 234 301 371 437
#     4  11  25  45  74 106 145 194 246 303 369 438
#     4  11  26  48  71 103 143 196 241 305 366 449
#     4  12  28  48  72 100 146 196 252 292 376 440
#
# _framework density 23.866902
#
# number of rings (size 3 to 8) (size 9 to 14) (size 15 to 20)
#    0.000    0.941    3.529    1.412    9.882    1.882 
#    0.000    5.882    0.000    0.000    0.000    0.000 
#    0.000    0.000    0.000    0.000    0.000    0.000 
#
# Total GULP energy -190172.988423 kJ/mol
# GULP energy per Si atom -5593.323189 kJ/mol
# Density = 2.381258 g / cm^3
# Si number density = 23.866902 Si / 1000 Ang^3
#
#
#
# Elastic Constant Matrix: (Units=GPa)
#
#
# Indices 1 2 3 4 5 6 
#
# 1 137.8983 53.4740 5.1591 0.0000 0.0000 0.0000
# 2 53.4740 89.7147 53.5106 0.0000 0.0000 0.0000
# 3 5.1591 53.5106 150.1437 0.0000 0.0000 0.0000
# 4 0.0000 0.0000 0.0000 41.6106 0.0000 0.0000
# 5 0.0000 0.0000 0.0000 0.0000 29.8310 0.0000
# 6 0.0000 0.0000 0.0000 0.0000 0.0000 -10.9597
#
#
#
# Elastic Compliance Matrix: (Units=1/GPa)
#
#
# Indices 1 2 3 4 5 6 
#
# 1 0.010002 -0.007311 0.002262 0.000000 0.000000 0.000000
# 2 -0.007311 0.019499 -0.006698 0.000000 0.000000 0.000000
# 3 0.002262 -0.006698 0.008970 0.000000 0.000000 0.000000
# 4 0.000000 0.000000 0.000000 0.024032 0.000000 0.000000
# 5 0.000000 0.000000 0.000000 0.000000 0.033522 0.000000
# 6 0.000000 0.000000 0.000000 0.000000 0.000000 -0.091243
#
#
# Mechanical properties :
#
#
# Convention : Reuss Voigt Hill
#
# Bulk Modulus (GPa) = 66.77025 66.89382 66.83204
# Shear Modulus (GPa) = 150.29206 29.80392 90.04799
#
# Velocity S-wave (km/s) = 7.94403 3.53761 6.14908
# Velocity P-wave (km/s) = 10.59152 6.69141 8.85876
#
# Compressibility (1/GPa) = 0.01497673
#
# Stress axis : x y z
#
# Youngs Moduli (GPa) = 99.97942 51.28426 111.48542
#
# Poissons Ratio (x) = 0.37493 -0.25216
# Poissons Ratio (y) = 0.73093 0.74675
# Poissons Ratio (z) = -0.22614 0.34351
#
# Static dielectric constant tensor:
#      x y z
#    x 1.889310 0.000000 0.000000 
#    y 0.000000 1.969370 0.000000 
#    z 0.000000 0.000000 1.903050 
# 
# From -- ./inp_files/28484.got.cif
#   From: 2010.05.17/outbox.cif.g08.bks.cpg/sg70_15_cif.got.tgz:28484.got - 2010.06.03 15:57:51.
