data_PCOD9516592
_publ_section_title
;
Structure prediction by ZEFSAII (Michael W. Deem and Ramdas Pophale) SiO2 
 PCOD9516592
Probable space group: F D D D
;
_chemical_formula_sum "Si O2"
_cell_formula_units_Z 168
_cell_length_a 28.260626
_cell_length_b 22.442667
_cell_length_c 13.672720
_cell_angle_alpha 90.000000
_cell_angle_beta 90.000000
_cell_angle_gamma 90.000000
_cell_volume 8671.838142
_symmetry_space_group_name_H-M "F D D D"
_symmetry_group_IT_number 70
_space_group.IT_coordinate_system_code '2'
_symmetry_cell_setting 'orthorhombic'
loop_
_space_group_symop_operation_xyz
x,y,z
1/4-x,1/4-y,z
x,1/4-y,1/4-z
1/4-x,y,1/4-z
-x,-y,-z
3/4+x,3/4+y,-z
-x,3/4+y,3/4+z
3/4+x,-y,3/4+z
x,1/2+y,1/2+z
1/4-x,3/4-y,1/2+z
x,3/4-y,3/4-z
1/4-x,1/2+y,3/4-z
-x,1/2-y,1/2-z
3/4+x,1/4+y,1/2-z
-x,1/4+y,1/4+z
3/4+x,1/2-y,1/4+z
1/2+x,y,1/2+z
3/4-x,1/4-y,1/2+z
1/2+x,1/4-y,3/4-z
3/4-x,y,3/4-z
1/2-x,-y,1/2-z
1/4+x,3/4+y,1/2-z
1/2-x,3/4+y,1/4+z
1/4+x,-y,1/4+z
1/2+x,1/2+y,z
3/4-x,3/4-y,z
1/2+x,3/4-y,1/4-z
3/4-x,1/2+y,1/4-z
1/2-x,1/2-y,-z
1/4+x,1/4+y,-z
1/2-x,1/4+y,3/4+z
1/4+x,1/2-y,3/4+z
loop_
_atom_site_type_symbol
_atom_site_label
_atom_site_fract_x
_atom_site_fract_y
_atom_site_fract_z
Si Si1 0.866308 0.695613 0.110756
Si Si2 0.551331 0.246022 0.699228
Si Si3 0.311925 0.790007 0.741003
Si Si4 0.790250 0.500962 0.528127
Si Si5 0.625000 0.625000 0.625000
Si Si6 0.430432 0.883233 0.554754
O O1 0.863068 0.625000 0.125000
O O2 0.841424 0.733868 0.197449
O O3 0.837447 0.715480 0.013817
O O4 0.920320 0.716642 0.093923
O O5 0.500000 0.250000 0.750000
O O6 0.551118 0.262948 0.586344
O O7 0.565647 0.176916 0.712337
O O8 0.263803 0.770056 0.793314
O O9 0.343245 0.831690 0.809146
O O10 0.299212 0.830049 0.646232
O O11 0.795851 0.430278 0.542946
O O12 0.375000 0.875000 0.575468
#
# Coordination Sequence:
#
# PCOD9516592 Si02
#       6
#    32  32  32  32   8  32
#     4  11  25  44  62  97 143 162 215 285 332 395
#     4  11  22  39  65  99 129 172 209 267 335 397
#     4  11  25  45  69  95 128 182 221 284 321 399
#     4  12  23  41  69  99 126 176 220 266 343 393
#     4  12  24  52  68  88 134 180 248 262 328 398
#     4  11  21  43  67  92 134 163 217 274 321 395
#
# _framework density 19.373055999999998
#
# number of rings (size 3 to 8) (size 9 to 14) (size 15 to 20)
#    0.000    0.762    8.571    1.143    4.000    0.762 
#    6.857    1.905    0.000    0.000    0.000    0.000 
#    0.000    0.000    0.000    0.000    0.000    0.000 
#
# Total GULP energy -234673.337791 kJ/mol
# GULP energy per Si atom -5587.460424 kJ/mol
# Density = 1.932896 g / cm^3
# Si number density = 19.373056 Si / 1000 Ang^3
#
#
#
# Elastic Constant Matrix: (Units=GPa)
#
#
# Indices 1 2 3 4 5 6 
#
# 1 154.5543 76.6814 33.7410 0.0000 0.0000 0.0000
# 2 76.6814 173.5534 40.9681 0.0000 0.0000 0.0000
# 3 33.7410 40.9681 49.9833 0.0000 0.0000 0.0000
# 4 0.0000 0.0000 0.0000 9.7430 0.0000 0.0000
# 5 0.0000 0.0000 0.0000 0.0000 6.2303 0.0000
# 6 0.0000 0.0000 0.0000 0.0000 0.0000 37.1074
#
#
#
# Elastic Compliance Matrix: (Units=1/GPa)
#
#
# Indices 1 2 3 4 5 6 
#
# 1 0.008726 -0.003056 -0.003385 0.000000 0.000000 0.000000
# 2 -0.003056 0.008215 -0.004670 0.000000 0.000000 0.000000
# 3 -0.003385 -0.004670 0.026120 0.000000 0.000000 0.000000
# 4 0.000000 0.000000 0.000000 0.102637 0.000000 0.000000
# 5 0.000000 0.000000 0.000000 0.000000 0.160505 0.000000
# 6 0.000000 0.000000 0.000000 0.000000 0.000000 0.026949
#
#
# Mechanical properties :
#
#
# Convention : Reuss Voigt Hill
#
# Bulk Modulus (GPa) = 47.99141 75.65244 61.82192
# Shear Modulus (GPa) = 13.79999 25.72952 19.76475
#
# Velocity S-wave (km/s) = 2.67184 3.64828 3.19755
# Velocity P-wave (km/s) = 5.86041 7.54199 6.75374
#
# Compressibility (1/GPa) = 0.02083706
#
# Stress axis : x y z
#
# Youngs Moduli (GPa) = 114.60618 121.73505 38.28554
#
# Poissons Ratio (x) = 0.37204 0.12961
# Poissons Ratio (y) = 0.35025 0.17879
# Poissons Ratio (z) = 0.38797 0.56849
#
# Static dielectric constant tensor:
#      x y z
#    x 1.732170 0.000000 0.000000 
#    y 0.000000 0.916530 0.000000 
#    z 0.000000 0.000000 1.692610 
# 
# From -- ./inp_files/29842.got.cif
#   From: 2010.05.17/outbox.cif.g08.bks.cpg/sg70_15_cif.got.tgz:29842.got - 2010.06.03 15:57:51.
