data_PCOD9516257
_publ_section_title
;
Structure prediction by ZEFSAII (Michael W. Deem and Ramdas Pophale) SiO2 
 PCOD9516257
Probable space group: F D D D
;
_chemical_formula_sum "Si O2"
_cell_formula_units_Z 96
_cell_length_a 9.571541
_cell_length_b 14.806354
_cell_length_c 31.238518
_cell_angle_alpha 90.000000
_cell_angle_beta 90.000000
_cell_angle_gamma 90.000000
_cell_volume 4427.111037
_symmetry_space_group_name_H-M "F D D D"
_symmetry_group_IT_number 70
_space_group.IT_coordinate_system_code '2'
_symmetry_cell_setting 'orthorhombic'
loop_
_space_group_symop_operation_xyz
x,y,z
1/4-x,1/4-y,z
x,1/4-y,1/4-z
1/4-x,y,1/4-z
-x,-y,-z
3/4+x,3/4+y,-z
-x,3/4+y,3/4+z
3/4+x,-y,3/4+z
x,1/2+y,1/2+z
1/4-x,3/4-y,1/2+z
x,3/4-y,3/4-z
1/4-x,1/2+y,3/4-z
-x,1/2-y,1/2-z
3/4+x,1/4+y,1/2-z
-x,1/4+y,1/4+z
3/4+x,1/2-y,1/4+z
1/2+x,y,1/2+z
3/4-x,1/4-y,1/2+z
1/2+x,1/4-y,3/4-z
3/4-x,y,3/4-z
1/2-x,-y,1/2-z
1/4+x,3/4+y,1/2-z
1/2-x,3/4+y,1/4+z
1/4+x,-y,1/4+z
1/2+x,1/2+y,z
3/4-x,3/4-y,z
1/2+x,3/4-y,1/4-z
3/4-x,1/2+y,1/4-z
1/2-x,1/2-y,-z
1/4+x,1/4+y,-z
1/2-x,1/4+y,3/4+z
1/4+x,1/2-y,3/4+z
loop_
_atom_site_type_symbol
_atom_site_label
_atom_site_fract_x
_atom_site_fract_y
_atom_site_fract_z
Si Si1 0.375000 0.375000 0.513976
Si Si2 0.125000 0.125000 0.944489
Si Si3 0.921509 0.073569 0.229332
Si Si4 0.232542 0.301253 0.902528
O O1 0.326938 0.469024 0.536508
O O2 0.240238 0.347894 0.486443
O O3 0.174026 0.205222 0.914210
O O4 0.246073 0.086382 0.975928
O O5 0.987397 0.146778 0.197711
O O6 0.146168 0.375000 0.875000
O O7 0.375000 0.288681 0.875000
#
# Coordination Sequence:
#
# PCOD9516257 Si02
#       4
#    16  16  32  32
#     4  10  24  41  79 106 134 167 239 296 342 394
#     4  12  24  47  73 100 134 191 233 286 333 430
#     4  11  23  47  75 106 136 182 238 287 342 417
#     4  11  26  44  67 103 141 186 228 283 351 418
#
# _framework density 21.684570999999998
#
# number of rings (size 3 to 8) (size 9 to 14) (size 15 to 20)
#    0.000    1.000    3.333    3.000    9.333    1.333 
#    6.000    0.833    0.000    0.000    0.000    0.000 
#    0.000    0.000    0.000    0.000    0.000    0.000 
#
# Total GULP energy -133790.486299 kJ/mol
# GULP energy per Si atom -5574.603596 kJ/mol
# Density = 2.163522 g / cm^3
# Si number density = 21.684571 Si / 1000 Ang^3
#
#
#
# Elastic Constant Matrix: (Units=GPa)
#
#
# Indices 1 2 3 4 5 6 
#
# 1 115.4991 53.2877 39.5271 0.0000 0.0000 0.0000
# 2 53.2877 266.3584 70.1643 0.0000 0.0000 0.0000
# 3 39.5271 70.1643 87.4094 0.0000 0.0000 0.0000
# 4 0.0000 0.0000 0.0000 -30.2373 0.0000 0.0000
# 5 0.0000 0.0000 0.0000 0.0000 -43.8944 0.0000
# 6 0.0000 0.0000 0.0000 0.0000 0.0000 5.3043
#
#
#
# Elastic Compliance Matrix: (Units=1/GPa)
#
#
# Indices 1 2 3 4 5 6 
#
# 1 0.010481 -0.001076 -0.003876 0.000000 0.000000 0.000000
# 2 -0.001076 0.004871 -0.003424 0.000000 0.000000 0.000000
# 3 -0.003876 -0.003424 0.015942 0.000000 0.000000 0.000000
# 4 0.000000 0.000000 0.000000 -0.033072 0.000000 0.000000
# 5 0.000000 0.000000 0.000000 0.000000 -0.022782 0.000000
# 6 0.000000 0.000000 0.000000 0.000000 0.000000 0.188528
#
#
# Mechanical properties :
#
#
# Convention : Reuss Voigt Hill
#
# Bulk Modulus (GPa) = 68.76359 88.35835 78.56097
# Shear Modulus (GPa) = 26.94447 6.65370 16.79909
#
# Velocity S-wave (km/s) = 3.52883 1.75359 2.78637
# Velocity P-wave (km/s) = 6.95580 6.70341 6.83077
#
# Compressibility (1/GPa) = 0.01454258
#
# Stress axis : x y z
#
# Youngs Moduli (GPa) = 95.41184 205.27592 62.72912
#
# Poissons Ratio (x) = 0.22083 0.24314
# Poissons Ratio (y) = 0.10264 0.21478
# Poissons Ratio (z) = 0.36981 0.70285
#
# Static dielectric constant tensor:
#      x y z
#    x 1.836920 0.000000 0.000000 
#    y 0.000000 1.846100 0.000000 
#    z 0.000000 0.000000 1.877160 
# 
# From -- ./inp_files/24409.got.cif
#   From: 2010.05.17/outbox.cif.g08.bks.cpg/sg70_13_cif.got.tgz:24409.got - 2010.06.03 15:57:51.
