data_PCOD9516749
_publ_section_title
;
Structure prediction by ZEFSAII (Michael W. Deem and Ramdas Pophale) SiO2 
 PCOD9516749
Probable space group: F D D D
;
_chemical_formula_sum "Si O2"
_cell_formula_units_Z 72
_cell_length_a 5.827810
_cell_length_b 17.410511
_cell_length_c 27.769735
_cell_angle_alpha 90.000000
_cell_angle_beta 90.000000
_cell_angle_gamma 90.000000
_cell_volume 2817.660330
_symmetry_space_group_name_H-M "F D D D"
_symmetry_group_IT_number 70
_space_group.IT_coordinate_system_code '2'
_symmetry_cell_setting 'orthorhombic'
loop_
_space_group_symop_operation_xyz
x,y,z
1/4-x,1/4-y,z
x,1/4-y,1/4-z
1/4-x,y,1/4-z
-x,-y,-z
3/4+x,3/4+y,-z
-x,3/4+y,3/4+z
3/4+x,-y,3/4+z
x,1/2+y,1/2+z
1/4-x,3/4-y,1/2+z
x,3/4-y,3/4-z
1/4-x,1/2+y,3/4-z
-x,1/2-y,1/2-z
3/4+x,1/4+y,1/2-z
-x,1/4+y,1/4+z
3/4+x,1/2-y,1/4+z
1/2+x,y,1/2+z
3/4-x,1/4-y,1/2+z
1/2+x,1/4-y,3/4-z
3/4-x,y,3/4-z
1/2-x,-y,1/2-z
1/4+x,3/4+y,1/2-z
1/2-x,3/4+y,1/4+z
1/4+x,-y,1/4+z
1/2+x,1/2+y,z
3/4-x,3/4-y,z
1/2+x,3/4-y,1/4-z
3/4-x,1/2+y,1/4-z
1/2-x,1/2-y,-z
1/4+x,1/4+y,-z
1/2-x,1/4+y,3/4+z
1/4+x,1/2-y,3/4+z
loop_
_atom_site_type_symbol
_atom_site_label
_atom_site_fract_x
_atom_site_fract_y
_atom_site_fract_z
Si Si1 0.382922 0.108889 0.302684
Si Si2 0.947365 0.189942 0.047529
Si Si3 0.875000 0.375000 0.875000
O O1 0.625000 0.125000 0.329059
O O2 0.393193 0.162025 0.254503
O O3 0.125000 0.125000 0.320515
O O4 0.413643 0.018545 0.293259
O O5 0.756728 0.182676 0.088572
O O6 0.125000 0.125000 0.062835
#
# Coordination Sequence:
#
# PCOD9516749 Si02
#       3
#    32  32   8
#     4  11  23  42  77 106 134 177 248 295 342 418
#     4  11  24  43  71 106 137 188 239 294 356 421
#     4  12  26  40  72  94 160 188 236 288 374 432
#
# _framework density 25.553118000000001
#
# number of rings (size 3 to 8) (size 9 to 14) (size 15 to 20)
#    0.000    0.889    2.222    7.333    6.222    0.000 
#    0.000    0.000    9.778    0.000    0.000    0.000 
#    0.000    0.000    0.000    0.000    0.000    0.000 
#
# Total GULP energy -100545.295947 kJ/mol
# GULP energy per Si atom -5585.849775 kJ/mol
# Density = 2.549496 g / cm^3
# Si number density = 25.553118 Si / 1000 Ang^3
#
#
#
# Elastic Constant Matrix: (Units=GPa)
#
#
# Indices 1 2 3 4 5 6 
#
# 1 241.0537 69.7336 76.6903 0.0000 0.0000 0.0000
# 2 69.7336 222.9076 31.2969 0.0000 0.0000 0.0000
# 3 76.6903 31.2969 179.0082 0.0000 0.0000 0.0000
# 4 0.0000 0.0000 0.0000 -0.3029 0.0000 0.0000
# 5 0.0000 0.0000 0.0000 0.0000 114.8943 0.0000
# 6 0.0000 0.0000 0.0000 0.0000 0.0000 30.3089
#
#
#
# Elastic Compliance Matrix: (Units=1/GPa)
#
#
# Indices 1 2 3 4 5 6 
#
# 1 0.005165 -0.001338 -0.001979 0.000000 0.000000 0.000000
# 2 -0.001338 0.004946 -0.000291 0.000000 0.000000 0.000000
# 3 -0.001979 -0.000291 0.006485 0.000000 0.000000 0.000000
# 4 0.000000 0.000000 0.000000 -3.301577 0.000000 0.000000
# 5 0.000000 0.000000 0.000000 0.000000 0.008704 0.000000
# 6 0.000000 0.000000 0.000000 0.000000 0.000000 0.032994
#
#
# Mechanical properties :
#
#
# Convention : Reuss Voigt Hill
#
# Bulk Modulus (GPa) = 106.61930 110.93457 108.77694
# Shear Modulus (GPa) = -1.54658 59.99662 29.22502
#
# Velocity S-wave (km/s) = -0.77882 4.85079 3.38553
# Velocity P-wave (km/s) = 6.40363 8.65339 7.61208
#
# Compressibility (1/GPa) = 0.00937917
#
# Stress axis : x y z
#
# Youngs Moduli (GPa) = 193.60741 202.19766 154.19996
#
# Poissons Ratio (x) = 0.27054 0.30514
# Poissons Ratio (y) = 0.25904 0.04494
# Poissons Ratio (z) = 0.38313 0.05893
#
# Static dielectric constant tensor:
#      x y z
#    x 2.094020 0.000000 0.000000 
#    y 0.000000 2.019180 0.000000 
#    z 0.000000 0.000000 2.010450 
# 
# From -- ./inp_files/1819.got.cif
#   From: 2010.05.17/outbox.cif.g08.bks.cpg/sg70_1_cif.got.tgz:1819.got - 2010.06.03 15:57:51.
