data_PCOD9516864
_publ_section_title
;
Structure prediction by ZEFSAII (Michael W. Deem and Ramdas Pophale) SiO2 
 PCOD9516864
Probable space group: F D D D
;
_chemical_formula_sum "Si O2"
_cell_formula_units_Z 176
_cell_length_a 13.675843
_cell_length_b 22.417200
_cell_length_c 23.555054
_cell_angle_alpha 90.000000
_cell_angle_beta 90.000000
_cell_angle_gamma 90.000000
_cell_volume 7221.369662
_symmetry_space_group_name_H-M "F D D D"
_symmetry_group_IT_number 70
_space_group.IT_coordinate_system_code '2'
_symmetry_cell_setting 'orthorhombic'
loop_
_space_group_symop_operation_xyz
x,y,z
1/4-x,1/4-y,z
x,1/4-y,1/4-z
1/4-x,y,1/4-z
-x,-y,-z
3/4+x,3/4+y,-z
-x,3/4+y,3/4+z
3/4+x,-y,3/4+z
x,1/2+y,1/2+z
1/4-x,3/4-y,1/2+z
x,3/4-y,3/4-z
1/4-x,1/2+y,3/4-z
-x,1/2-y,1/2-z
3/4+x,1/4+y,1/2-z
-x,1/4+y,1/4+z
3/4+x,1/2-y,1/4+z
1/2+x,y,1/2+z
3/4-x,1/4-y,1/2+z
1/2+x,1/4-y,3/4-z
3/4-x,y,3/4-z
1/2-x,-y,1/2-z
1/4+x,3/4+y,1/2-z
1/2-x,3/4+y,1/4+z
1/4+x,-y,1/4+z
1/2+x,1/2+y,z
3/4-x,3/4-y,z
1/2+x,3/4-y,1/4-z
3/4-x,1/2+y,1/4-z
1/2-x,1/2-y,-z
1/4+x,1/4+y,-z
1/2-x,1/4+y,3/4+z
1/4+x,1/2-y,3/4+z
loop_
_atom_site_type_symbol
_atom_site_label
_atom_site_fract_x
_atom_site_fract_y
_atom_site_fract_z
Si Si1 0.041703 0.575537 0.556266
Si Si2 0.038351 0.219264 0.666001
Si Si3 0.357653 0.304276 0.638896
Si Si4 0.621638 0.777679 0.249660
Si Si5 0.584221 0.558617 0.768828
Si Si6 0.882203 0.625000 0.125000
O O1 0.125000 0.625000 0.559485
O O2 0.100353 0.514007 0.554179
O O3 0.969979 0.572619 0.501368
O O4 0.950415 0.581961 0.598216
O O5 0.125000 0.197585 0.625000
O O6 0.092173 0.226266 0.726838
O O7 0.995622 0.280063 0.637857
O O8 0.953149 0.168604 0.661385
O O9 0.375000 0.375000 0.647777
O O10 0.372252 0.269260 0.697495
O O11 0.422505 0.287353 0.583762
O O12 0.724618 0.808914 0.253197
O O13 0.625000 0.625000 0.769683
#
# Coordination Sequence:
#
# PCOD9516864 Si02
#       6
#    32  32  32  32  32  16
#     4  11  25  43  72 102 141 194 247 294 361 430
#     4  12  22  44  77 110 142 190 239 313 373 434
#     4  11  25  46  67 105 152 192 241 291 368 448
#     4  11  24  50  72 104 151 196 241 303 373 440
#     4  11  24  45  76 111 145 186 245 309 375 438
#     4  12  24  42  78 116 148 178 254 310 366 432
#
# _framework density 24.372108999999998
#
# number of rings (size 3 to 8) (size 9 to 14) (size 15 to 20)
#    0.000    0.727    3.636    3.818    2.545    1.455 
#    6.545    6.364    0.000    0.000    0.000    0.000 
#    0.000    0.000    0.000    0.000    0.000    0.000 
#
# Total GULP energy -245080.136120 kJ/mol
# GULP energy per Si atom -5570.003094 kJ/mol
# Density = 2.431664 g / cm^3
# Si number density = 24.372109 Si / 1000 Ang^3
#
#
#
# Elastic Constant Matrix: (Units=GPa)
#
#
# Indices 1 2 3 4 5 6 
#
# 1 215.3650 65.4399 35.3503 0.0000 0.0000 0.0000
# 2 65.4399 105.5195 21.3825 0.0000 0.0000 0.0000
# 3 35.3503 21.3825 82.6422 0.0000 0.0000 0.0000
# 4 0.0000 0.0000 0.0000 2.7475 0.0000 0.0000
# 5 0.0000 0.0000 0.0000 0.0000 27.8625 0.0000
# 6 0.0000 0.0000 0.0000 0.0000 0.0000 47.9721
#
#
#
# Elastic Compliance Matrix: (Units=1/GPa)
#
#
# Indices 1 2 3 4 5 6 
#
# 1 0.005933 -0.003340 -0.001674 0.000000 0.000000 0.000000
# 2 -0.003340 0.011882 -0.001645 0.000000 0.000000 0.000000
# 3 -0.001674 -0.001645 0.013242 0.000000 0.000000 0.000000
# 4 0.000000 0.000000 0.000000 0.363965 0.000000 0.000000
# 5 0.000000 0.000000 0.000000 0.000000 0.035890 0.000000
# 6 0.000000 0.000000 0.000000 0.000000 0.000000 0.020845
#
#
# Mechanical properties :
#
#
# Convention : Reuss Voigt Hill
#
# Bulk Modulus (GPa) = 56.37561 71.98579 64.18070
# Shear Modulus (GPa) = 10.61596 34.47337 22.54467
#
# Velocity S-wave (km/s) = 2.08932 3.76501 3.04471
# Velocity P-wave (km/s) = 5.38533 6.96424 6.22505
#
# Compressibility (1/GPa) = 0.01773817
#
# Stress axis : x y z
#
# Youngs Moduli (GPa) = 168.55012 84.16157 75.51750
#
# Poissons Ratio (x) = 0.28113 0.12638
# Poissons Ratio (y) = 0.56301 0.12426
# Poissons Ratio (z) = 0.28208 0.13848
#
# Static dielectric constant tensor:
#      x y z
#    x 1.942770 0.000000 0.000000 
#    y 0.000000 2.141660 0.000000 
#    z 0.000000 0.000000 2.275530 
# 
# From -- ./inp_files/51196.got.cif
#   From: 2010.05.17/outbox.cif.g08.bks.cpg/sg70_26_cif.got.tgz:51196.got - 2010.06.03 15:57:51.
