data_PCOD9516417
_publ_section_title
;
Structure prediction by ZEFSAII (Michael W. Deem and Ramdas Pophale) SiO2 
 PCOD9516417
Probable space group: F D D D
;
_chemical_formula_sum "Si O2"
_cell_formula_units_Z 104
_cell_length_a 12.636088
_cell_length_b 23.190370
_cell_length_c 15.398254
_cell_angle_alpha 90.000000
_cell_angle_beta 90.000000
_cell_angle_gamma 90.000000
_cell_volume 4512.235923
_symmetry_space_group_name_H-M "F D D D"
_symmetry_group_IT_number 70
_space_group.IT_coordinate_system_code '2'
_symmetry_cell_setting 'orthorhombic'
loop_
_space_group_symop_operation_xyz
x,y,z
1/4-x,1/4-y,z
x,1/4-y,1/4-z
1/4-x,y,1/4-z
-x,-y,-z
3/4+x,3/4+y,-z
-x,3/4+y,3/4+z
3/4+x,-y,3/4+z
x,1/2+y,1/2+z
1/4-x,3/4-y,1/2+z
x,3/4-y,3/4-z
1/4-x,1/2+y,3/4-z
-x,1/2-y,1/2-z
3/4+x,1/4+y,1/2-z
-x,1/4+y,1/4+z
3/4+x,1/2-y,1/4+z
1/2+x,y,1/2+z
3/4-x,1/4-y,1/2+z
1/2+x,1/4-y,3/4-z
3/4-x,y,3/4-z
1/2-x,-y,1/2-z
1/4+x,3/4+y,1/2-z
1/2-x,3/4+y,1/4+z
1/4+x,-y,1/4+z
1/2+x,1/2+y,z
3/4-x,3/4-y,z
1/2+x,3/4-y,1/4-z
3/4-x,1/2+y,1/4-z
1/2-x,1/2-y,-z
1/4+x,1/4+y,-z
1/2-x,1/4+y,3/4+z
1/4+x,1/2-y,3/4+z
loop_
_atom_site_type_symbol
_atom_site_label
_atom_site_fract_x
_atom_site_fract_y
_atom_site_fract_z
Si Si1 0.288826 0.162154 0.260154
Si Si2 0.102154 0.718984 0.208891
Si Si3 0.125000 0.625000 0.625000
Si Si4 0.375000 0.875000 0.101494
Si Si5 0.209890 0.375000 0.375000
O O1 0.322500 0.224341 0.295273
O O2 0.199579 0.164114 0.185147
O O3 0.228798 0.130516 0.338585
O O4 0.385941 0.130048 0.210400
O O5 0.138519 0.677488 0.285865
O O6 0.000000 0.750000 0.250000
O O7 0.035919 0.681606 0.131160
#
# Coordination Sequence:
#
# PCOD9516417 Si02
#       5
#    32  32   8  16  16
#     4  10  25  44  77  96 142 185 233 283 351 406
#     4  12  25  43  68 105 143 175 230 287 352 400
#     4   8  20  56  64 104 136 184 236 292 332 422
#     4  11  25  47  69 104 132 190 241 275 339 429
#     4  11  23  47  67 106 142 176 223 297 343 413
#
# _framework density 23.048439999999999
#
# number of rings (size 3 to 8) (size 9 to 14) (size 15 to 20)
#    0.000    1.231    3.077    0.923    8.615    0.000 
#    5.538    4.615    0.000    0.000    0.000    0.000 
#    0.000    0.000    0.000    0.000    0.000    0.000 
#
# Total GULP energy -144894.789541 kJ/mol
# GULP energy per Si atom -5572.876521 kJ/mol
# Density = 2.299598 g / cm^3
# Si number density = 23.048440 Si / 1000 Ang^3
#
#
#
# Elastic Constant Matrix: (Units=GPa)
#
#
# Indices 1 2 3 4 5 6 
#
# 1 153.8418 82.9128 88.7316 0.0000 0.0000 0.0000
# 2 82.9128 172.4064 95.9908 0.0000 0.0000 0.0000
# 3 88.7316 95.9908 216.2160 0.0000 0.0000 0.0000
# 4 0.0000 0.0000 0.0000 15.2431 0.0000 0.0000
# 5 0.0000 0.0000 0.0000 0.0000 31.6468 0.0000
# 6 0.0000 0.0000 0.0000 0.0000 0.0000 34.7473
#
#
#
# Elastic Compliance Matrix: (Units=1/GPa)
#
#
# Indices 1 2 3 4 5 6 
#
# 1 0.009724 -0.003261 -0.002543 0.000000 0.000000 0.000000
# 2 -0.003261 0.008798 -0.002568 0.000000 0.000000 0.000000
# 3 -0.002543 -0.002568 0.006809 0.000000 0.000000 0.000000
# 4 0.000000 0.000000 0.000000 0.065604 0.000000 0.000000
# 5 0.000000 0.000000 0.000000 0.000000 0.031599 0.000000
# 6 0.000000 0.000000 0.000000 0.000000 0.000000 0.028779
#
#
# Mechanical properties :
#
#
# Convention : Reuss Voigt Hill
#
# Bulk Modulus (GPa) = 116.44393 119.74830 118.09611
# Shear Modulus (GPa) = 29.25373 34.64938 31.95156
#
# Velocity S-wave (km/s) = 3.56649 3.88148 3.72732
# Velocity P-wave (km/s) = 8.22137 8.49445 8.35902
#
# Compressibility (1/GPa) = 0.00858782
#
# Stress axis : x y z
#
# Youngs Moduli (GPa) = 102.83531 113.66171 146.87150
#
# Poissons Ratio (x) = 0.37061 0.37351
# Poissons Ratio (y) = 0.33531 0.37714
# Poissons Ratio (z) = 0.26152 0.29187
#
# Static dielectric constant tensor:
#      x y z
#    x 2.303260 0.000000 0.000000 
#    y 0.000000 1.775730 0.000000 
#    z 0.000000 0.000000 0.871390 
# 
# From -- ./inp_files/33721.got.cif
#   From: 2010.05.17/outbox.cif.g08.bks.cpg/sg70_17_cif.got.tgz:33721.got - 2010.06.03 15:57:51.
