data_PCOD9516523
_publ_section_title
;
Structure prediction by ZEFSAII (Michael W. Deem and Ramdas Pophale) SiO2 
 PCOD9516523
Probable space group: F D D D
;
_chemical_formula_sum "Si O2"
_cell_formula_units_Z 160
_cell_length_a 21.334763
_cell_length_b 19.042766
_cell_length_c 16.042105
_cell_angle_alpha 90.000000
_cell_angle_beta 90.000000
_cell_angle_gamma 90.000000
_cell_volume 6517.472512
_symmetry_space_group_name_H-M "F D D D"
_symmetry_group_IT_number 70
_space_group.IT_coordinate_system_code '2'
_symmetry_cell_setting 'orthorhombic'
loop_
_space_group_symop_operation_xyz
x,y,z
1/4-x,1/4-y,z
x,1/4-y,1/4-z
1/4-x,y,1/4-z
-x,-y,-z
3/4+x,3/4+y,-z
-x,3/4+y,3/4+z
3/4+x,-y,3/4+z
x,1/2+y,1/2+z
1/4-x,3/4-y,1/2+z
x,3/4-y,3/4-z
1/4-x,1/2+y,3/4-z
-x,1/2-y,1/2-z
3/4+x,1/4+y,1/2-z
-x,1/4+y,1/4+z
3/4+x,1/2-y,1/4+z
1/2+x,y,1/2+z
3/4-x,1/4-y,1/2+z
1/2+x,1/4-y,3/4-z
3/4-x,y,3/4-z
1/2-x,-y,1/2-z
1/4+x,3/4+y,1/2-z
1/2-x,3/4+y,1/4+z
1/4+x,-y,1/4+z
1/2+x,1/2+y,z
3/4-x,3/4-y,z
1/2+x,3/4-y,1/4-z
3/4-x,1/2+y,1/4-z
1/2-x,1/2-y,-z
1/4+x,1/4+y,-z
1/2-x,1/4+y,3/4+z
1/4+x,1/2-y,3/4+z
loop_
_atom_site_type_symbol
_atom_site_label
_atom_site_fract_x
_atom_site_fract_y
_atom_site_fract_z
Si Si1 0.784130 0.310252 0.817413
Si Si2 0.770277 0.375000 0.375000
Si Si3 0.317599 0.928801 0.127660
Si Si4 0.296153 0.155033 0.288347
Si Si5 0.375000 0.282172 0.875000
Si Si6 0.142370 0.950195 0.969365
O O1 0.805984 0.375000 0.875000
O O2 0.806775 0.320290 0.722101
O O3 0.802251 0.228835 0.835707
O O4 0.708198 0.310649 0.824509
O O5 0.733683 0.336101 0.303523
O O6 0.819838 0.324330 0.419803
O O7 0.375000 0.875000 0.145449
O O8 0.252547 0.897648 0.165515
O O9 0.343037 0.003079 0.165851
O O10 0.360143 0.117589 0.260807
O O11 0.341455 0.242545 0.802301
#
# Coordination Sequence:
#
# PCOD9516523 Si02
#       6
#    32  16  32  32  16  32
#     4  12  30  50  73 112 150 208 276 326 383 477
#     4  11  20  36  68 114 156 190 243 318 398 462
#     4  12  25  50  76 109 161 207 254 331 401 473
#     4  12  25  44  75 113 158 206 254 324 401 472
#     4  11  20  38  68 116 159 182 246 324 397 478
#     4  12  25  45  76 119 159 208 260 329 409 483
#
# _framework density 24.549393999999999
#
# number of rings (size 3 to 8) (size 9 to 14) (size 15 to 20)
#    0.000    0.200    6.000    3.000    4.200    1.200 
#    0.000    4.000    0.000    0.000    0.000    0.000 
#    0.000    0.000    0.000    0.000    0.000    0.000 
#
# Total GULP energy -223485.563918 kJ/mol
# GULP energy per Si atom -5587.139098 kJ/mol
# Density = 2.449352 g / cm^3
# Si number density = 24.549394 Si / 1000 Ang^3
#
#
#
# Elastic Constant Matrix: (Units=GPa)
#
#
# Indices 1 2 3 4 5 6 
#
# 1 103.2394 57.8305 13.1668 0.0000 0.0000 0.0000
# 2 57.8305 153.2243 47.9258 0.0000 0.0000 0.0000
# 3 13.1668 47.9258 106.9185 0.0000 0.0000 0.0000
# 4 0.0000 0.0000 0.0000 50.2947 0.0000 0.0000
# 5 0.0000 0.0000 0.0000 0.0000 29.2835 0.0000
# 6 0.0000 0.0000 0.0000 0.0000 0.0000 50.6750
#
#
#
# Elastic Compliance Matrix: (Units=1/GPa)
#
#
# Indices 1 2 3 4 5 6 
#
# 1 0.012323 -0.004857 0.000660 0.000000 0.000000 0.000000
# 2 -0.004857 0.009505 -0.003663 0.000000 0.000000 0.000000
# 3 0.000660 -0.003663 0.010913 0.000000 0.000000 0.000000
# 4 0.000000 0.000000 0.000000 0.019883 0.000000 0.000000
# 5 0.000000 0.000000 0.000000 0.000000 0.034149 0.000000
# 6 0.000000 0.000000 0.000000 0.000000 0.000000 0.019734
#
#
# Mechanical properties :
#
#
# Convention : Reuss Voigt Hill
#
# Bulk Modulus (GPa) = 58.74974 66.80315 62.77645
# Shear Modulus (GPa) = 39.09277 42.34792 40.72035
#
# Velocity S-wave (km/s) = 3.99483 4.15783 4.07715
# Velocity P-wave (km/s) = 6.72766 7.09372 6.91311
#
# Compressibility (1/GPa) = 0.01702135
#
# Stress axis : x y z
#
# Youngs Moduli (GPa) = 81.14926 105.20535 91.63062
#
# Poissons Ratio (x) = 0.51102 -0.06045
# Poissons Ratio (y) = 0.39417 0.33560
# Poissons Ratio (z) = -0.05354 0.38532
#
# Static dielectric constant tensor:
#      x y z
#    x 1.572940 0.000000 0.000000 
#    y 0.000000 2.160730 0.000000 
#    z 0.000000 0.000000 1.930320 
# 
# From -- ./inp_files/38485.got.cif
#   From: 2010.05.17/outbox.cif.g08.bks.cpg/sg70_20_cif.got.tgz:38485.got - 2010.06.03 15:57:51.
