data_PCOD9516392
_publ_section_title
;
Structure prediction by ZEFSAII (Michael W. Deem and Ramdas Pophale) SiO2 
 PCOD9516392
Probable space group: F D D D
;
_chemical_formula_sum "Si O2"
_cell_formula_units_Z 88
_cell_length_a 13.681519
_cell_length_b 12.512753
_cell_length_c 20.856905
_cell_angle_alpha 90.000000
_cell_angle_beta 90.000000
_cell_angle_gamma 90.000000
_cell_volume 3570.565897
_symmetry_space_group_name_H-M "F D D D"
_symmetry_group_IT_number 70
_space_group.IT_coordinate_system_code '2'
_symmetry_cell_setting 'orthorhombic'
loop_
_space_group_symop_operation_xyz
x,y,z
1/4-x,1/4-y,z
x,1/4-y,1/4-z
1/4-x,y,1/4-z
-x,-y,-z
3/4+x,3/4+y,-z
-x,3/4+y,3/4+z
3/4+x,-y,3/4+z
x,1/2+y,1/2+z
1/4-x,3/4-y,1/2+z
x,3/4-y,3/4-z
1/4-x,1/2+y,3/4-z
-x,1/2-y,1/2-z
3/4+x,1/4+y,1/2-z
-x,1/4+y,1/4+z
3/4+x,1/2-y,1/4+z
1/2+x,y,1/2+z
3/4-x,1/4-y,1/2+z
1/2+x,1/4-y,3/4-z
3/4-x,y,3/4-z
1/2-x,-y,1/2-z
1/4+x,3/4+y,1/2-z
1/2-x,3/4+y,1/4+z
1/4+x,-y,1/4+z
1/2+x,1/2+y,z
3/4-x,3/4-y,z
1/2+x,3/4-y,1/4-z
3/4-x,1/2+y,1/4-z
1/2-x,1/2-y,-z
1/4+x,1/4+y,-z
1/2-x,1/4+y,3/4+z
1/4+x,1/2-y,3/4+z
loop_
_atom_site_type_symbol
_atom_site_label
_atom_site_fract_x
_atom_site_fract_y
_atom_site_fract_z
Si Si1 0.125000 0.625000 0.625000
Si Si2 0.703920 0.006429 0.935282
Si Si3 0.805274 0.625000 0.625000
Si Si4 0.822220 0.032351 0.308483
O O1 0.195754 0.694727 0.670008
O O2 0.632587 0.973350 0.875335
O O3 0.737603 0.127837 0.943206
O O4 0.648245 0.966059 0.999671
O O5 0.731112 0.581962 0.678987
O O6 0.875000 0.054722 0.375000
#
# Coordination Sequence:
#
# PCOD9516392 Si02
#       4
#     8  32  16  32
#     4  10  24  52  78 122 154 212 254 330 400 460
#     4  11  25  49  81 112 160 204 267 323 395 474
#     4  11  25  45  73 110 154 192 261 325 387 457
#     4  12  25  47  77 115 154 208 261 322 395 466
#
# _framework density 24.645955000000001
#
# number of rings (size 3 to 8) (size 9 to 14) (size 15 to 20)
#    0.000    0.727    1.818    4.909    0.000    4.364 
#    6.545    0.000    0.000    0.000    0.000    0.000 
#    0.000    0.000    0.000    0.000    0.000    0.000 
#
# Total GULP energy -122617.014724 kJ/mol
# GULP energy per Si atom -5573.500669 kJ/mol
# Density = 2.458986 g / cm^3
# Si number density = 24.645955 Si / 1000 Ang^3
#
#
#
# Elastic Constant Matrix: (Units=GPa)
#
#
# Indices 1 2 3 4 5 6 
#
# 1 185.6133 69.8372 87.6904 0.0000 0.0000 0.0000
# 2 69.8372 142.1085 75.7428 0.0000 0.0000 0.0000
# 3 87.6904 75.7428 128.3711 0.0000 0.0000 0.0000
# 4 0.0000 0.0000 0.0000 9.5821 0.0000 0.0000
# 5 0.0000 0.0000 0.0000 0.0000 73.6117 0.0000
# 6 0.0000 0.0000 0.0000 0.0000 0.0000 56.4754
#
#
#
# Elastic Compliance Matrix: (Units=1/GPa)
#
#
# Indices 1 2 3 4 5 6 
#
# 1 0.008173 -0.001518 -0.004687 0.000000 0.000000 0.000000
# 2 -0.001518 0.010547 -0.005186 0.000000 0.000000 0.000000
# 3 -0.004687 -0.005186 0.014052 0.000000 0.000000 0.000000
# 4 0.000000 0.000000 0.000000 0.104361 0.000000 0.000000
# 5 0.000000 0.000000 0.000000 0.000000 0.013585 0.000000
# 6 0.000000 0.000000 0.000000 0.000000 0.000000 0.017707
#
#
# Mechanical properties :
#
#
# Convention : Reuss Voigt Hill
#
# Bulk Modulus (GPa) = 100.11107 102.51483 101.31295
# Shear Modulus (GPa) = 25.70194 42.78867 34.24530
#
# Velocity S-wave (km/s) = 3.23282 4.17121 3.73163
# Velocity P-wave (km/s) = 7.39207 8.05506 7.73067
#
# Compressibility (1/GPa) = 0.00998891
#
# Stress axis : x y z
#
# Youngs Moduli (GPa) = 122.35004 94.81269 71.16589
#
# Poissons Ratio (x) = 0.14396 0.33358
# Poissons Ratio (y) = 0.18577 0.36906
# Poissons Ratio (z) = 0.57349 0.49169
#
# Static dielectric constant tensor:
#      x y z
#    x 2.018210 0.000000 0.000000 
#    y 0.000000 2.032800 0.000000 
#    z 0.000000 0.000000 2.009340 
# 
# From -- ./inp_files/14767.got.cif
#   From: 2010.05.17/outbox.cif.g08.bks.cpg/sg70_8_cif.got.tgz:14767.got - 2010.06.03 15:57:51.
