data_PCOD9516042
_publ_section_title
;
Structure prediction by ZEFSAII (Michael W. Deem and Ramdas Pophale) SiO2 
 PCOD9516042
Probable space group: F D D D
;
_chemical_formula_sum "Si O2"
_cell_formula_units_Z 160
_cell_length_a 16.681385
_cell_length_b 26.621882
_cell_length_c 15.195603
_cell_angle_alpha 90.000000
_cell_angle_beta 90.000000
_cell_angle_gamma 90.000000
_cell_volume 6748.213255
_symmetry_space_group_name_H-M "F D D D"
_symmetry_group_IT_number 70
_space_group.IT_coordinate_system_code '2'
_symmetry_cell_setting 'orthorhombic'
loop_
_space_group_symop_operation_xyz
x,y,z
1/4-x,1/4-y,z
x,1/4-y,1/4-z
1/4-x,y,1/4-z
-x,-y,-z
3/4+x,3/4+y,-z
-x,3/4+y,3/4+z
3/4+x,-y,3/4+z
x,1/2+y,1/2+z
1/4-x,3/4-y,1/2+z
x,3/4-y,3/4-z
1/4-x,1/2+y,3/4-z
-x,1/2-y,1/2-z
3/4+x,1/4+y,1/2-z
-x,1/4+y,1/4+z
3/4+x,1/2-y,1/4+z
1/2+x,y,1/2+z
3/4-x,1/4-y,1/2+z
1/2+x,1/4-y,3/4-z
3/4-x,y,3/4-z
1/2-x,-y,1/2-z
1/4+x,3/4+y,1/2-z
1/2-x,3/4+y,1/4+z
1/4+x,-y,1/4+z
1/2+x,1/2+y,z
3/4-x,3/4-y,z
1/2+x,3/4-y,1/4-z
3/4-x,1/2+y,1/4-z
1/2-x,1/2-y,-z
1/4+x,1/4+y,-z
1/2-x,1/4+y,3/4+z
1/4+x,1/2-y,3/4+z
loop_
_atom_site_type_symbol
_atom_site_label
_atom_site_fract_x
_atom_site_fract_y
_atom_site_fract_z
Si Si1 0.875000 0.375000 0.008567
Si Si2 0.875000 0.523112 0.375000
Si Si3 0.804916 0.085400 0.544867
Si Si4 0.613569 0.699667 0.982217
Si Si5 0.412711 0.984492 0.035410
Si Si6 0.256322 0.645864 0.390352
O O1 0.874132 0.314615 0.981995
O O2 0.791619 0.371442 0.061446
O O3 0.901190 0.492911 0.459692
O O4 0.800307 0.556934 0.399612
O O5 0.820400 0.125000 0.625000
O O6 0.710858 0.069406 0.541128
O O7 0.815058 0.114452 0.452013
O O8 0.856619 0.034427 0.539548
O O9 0.581724 0.718920 0.888614
O O10 0.685362 0.663002 0.956217
O O11 0.500000 0.000000 0.000000
#
# Coordination Sequence:
#
# PCOD9516042 Si02
#       6
#    16  16  32  32  32  32
#     4  10  22  50  65  97 138 190 248 306 372 448
#     4  12  24  36  73  98 142 183 238 290 374 446
#     4  12  24  43  72 107 142 182 246 306 381 458
#     4  11  22  45  66 107 143 186 237 300 380 457
#     4  11  26  47  73  99 148 197 249 309 378 465
#     4  11  22  40  66  99 141 179 229 303 371 444
#
# _framework density 23.709980000000002
#
# number of rings (size 3 to 8) (size 9 to 14) (size 15 to 20)
#    0.000    0.800    4.000    5.400    2.800    1.600 
#    3.600    0.000    0.000    1.200    0.000    0.000 
#    0.000    0.000    0.000    0.000    0.000    0.000 
#
# Total GULP energy -222927.625441 kJ/mol
# GULP energy per Si atom -5573.190636 kJ/mol
# Density = 2.365601 g / cm^3
# Si number density = 23.709980 Si / 1000 Ang^3
#
#
#
# Elastic Constant Matrix: (Units=GPa)
#
#
# Indices 1 2 3 4 5 6 
#
# 1 84.1854 50.9124 13.3221 0.0000 0.0000 0.0000
# 2 50.9124 146.6213 29.7579 0.0000 0.0000 0.0000
# 3 13.3221 29.7579 69.9359 0.0000 0.0000 0.0000
# 4 0.0000 0.0000 0.0000 29.1709 0.0000 0.0000
# 5 0.0000 0.0000 0.0000 0.0000 -3.0176 0.0000
# 6 0.0000 0.0000 0.0000 0.0000 0.0000 42.6015
#
#
#
# Elastic Compliance Matrix: (Units=1/GPa)
#
#
# Indices 1 2 3 4 5 6 
#
# 1 0.015068 -0.005089 -0.000705 0.000000 0.000000 0.000000
# 2 -0.005089 0.009184 -0.002938 0.000000 0.000000 0.000000
# 3 -0.000705 -0.002938 0.015683 0.000000 0.000000 0.000000
# 4 0.000000 0.000000 0.000000 0.034281 0.000000 0.000000
# 5 0.000000 0.000000 0.000000 0.000000 -0.331393 0.000000
# 6 0.000000 0.000000 0.000000 0.000000 0.000000 0.023473
#
#
# Mechanical properties :
#
#
# Convention : Reuss Voigt Hill
#
# Bulk Modulus (GPa) = 44.50292 54.30305 49.40298
# Shear Modulus (GPa) = -23.95213 27.53431 1.79109
#
# Velocity S-wave (km/s) = -3.18183 3.41148 0.87009
# Velocity P-wave (km/s) = 2.30471 6.20244 4.67878
#
# Compressibility (1/GPa) = 0.02247044
#
# Stress axis : x y z
#
# Youngs Moduli (GPa) = 66.36692 108.88812 63.76199
#
# Poissons Ratio (x) = 0.55413 0.04494
# Poissons Ratio (y) = 0.33774 0.18735
# Poissons Ratio (z) = 0.04678 0.31995
#
# Static dielectric constant tensor:
#      x y z
#    x 1.954710 0.000000 0.000000 
#    y 0.000000 2.041340 0.000000 
#    z 0.000000 0.000000 1.904650 
# 
# From -- ./inp_files/34013.got.cif
#   From: 2010.05.17/outbox.cif.g08.bks.cpg/sg70_18_cif.got.tgz:34013.got - 2010.06.03 15:57:51.
