data_PCOD9516386
_publ_section_title
;
Structure prediction by ZEFSAII (Michael W. Deem and Ramdas Pophale) SiO2 
 PCOD9516386
Probable space group: F D D D
;
_chemical_formula_sum "Si O2"
_cell_formula_units_Z 120
_cell_length_a 9.204735
_cell_length_b 25.973844
_cell_length_c 17.810437
_cell_angle_alpha 90.000000
_cell_angle_beta 90.000000
_cell_angle_gamma 90.000000
_cell_volume 4258.161149
_symmetry_space_group_name_H-M "F D D D"
_symmetry_group_IT_number 70
_space_group.IT_coordinate_system_code '2'
_symmetry_cell_setting 'orthorhombic'
loop_
_space_group_symop_operation_xyz
x,y,z
1/4-x,1/4-y,z
x,1/4-y,1/4-z
1/4-x,y,1/4-z
-x,-y,-z
3/4+x,3/4+y,-z
-x,3/4+y,3/4+z
3/4+x,-y,3/4+z
x,1/2+y,1/2+z
1/4-x,3/4-y,1/2+z
x,3/4-y,3/4-z
1/4-x,1/2+y,3/4-z
-x,1/2-y,1/2-z
3/4+x,1/4+y,1/2-z
-x,1/4+y,1/4+z
3/4+x,1/2-y,1/4+z
1/2+x,y,1/2+z
3/4-x,1/4-y,1/2+z
1/2+x,1/4-y,3/4-z
3/4-x,y,3/4-z
1/2-x,-y,1/2-z
1/4+x,3/4+y,1/2-z
1/2-x,3/4+y,1/4+z
1/4+x,-y,1/4+z
1/2+x,1/2+y,z
3/4-x,3/4-y,z
1/2+x,3/4-y,1/4-z
3/4-x,1/2+y,1/4-z
1/2-x,1/2-y,-z
1/4+x,1/4+y,-z
1/2-x,1/4+y,3/4+z
1/4+x,1/2-y,3/4+z
loop_
_atom_site_type_symbol
_atom_site_label
_atom_site_fract_x
_atom_site_fract_y
_atom_site_fract_z
Si Si1 0.150221 0.878099 0.472798
Si Si2 0.684111 0.476523 0.325180
Si Si3 0.644387 0.770388 0.708669
Si Si4 0.125000 0.438817 0.625000
Si Si5 0.625000 0.125000 0.125000
O O1 0.222266 0.833366 0.421716
O O2 0.216386 0.933270 0.493871
O O3 0.133705 0.847167 0.551974
O O4 0.995932 0.893791 0.436082
O O5 0.750000 0.500000 0.250000
O O6 0.511163 0.476852 0.312609
O O7 0.740796 0.520074 0.382501
O O8 0.625000 0.793412 0.625000
O O9 0.500000 0.750000 0.750000
#
# Coordination Sequence:
#
# PCOD9516386 Si02
#       5
#    32  32  32  16   8
#     4  11  26  48  74 118 158 218 262 338 411 488
#     4  10  26  47  76 113 157 204 272 334 393 488
#     4  12  29  50  82 116 156 214 272 335 407 487
#     4  10  24  50  81 113 160 223 277 326 410 512
#     4  12  28  40  78 118 172 198 270 346 404 480
#
# _framework density 28.181177999999999
#
# number of rings (size 3 to 8) (size 9 to 14) (size 15 to 20)
#    0.000    1.067    1.333    1.600   18.667    4.267 
#    0.000    1.333    0.000    0.000    0.000    0.000 
#    0.000    0.000    0.000    0.000    0.000    0.000 
#
# Total GULP energy -167516.512600 kJ/mol
# GULP energy per Si atom -5583.883753 kJ/mol
# Density = 2.811704 g / cm^3
# Si number density = 28.181178 Si / 1000 Ang^3
#
#
#
# Elastic Constant Matrix: (Units=GPa)
#
#
# Indices 1 2 3 4 5 6 
#
# 1 151.7370 41.4545 30.3611 0.0000 0.0000 0.0000
# 2 41.4545 239.2354 52.9051 0.0000 0.0000 0.0000
# 3 30.3611 52.9051 130.4729 0.0000 0.0000 0.0000
# 4 0.0000 0.0000 0.0000 65.8609 0.0000 0.0000
# 5 0.0000 0.0000 0.0000 0.0000 51.0553 0.0000
# 6 0.0000 0.0000 0.0000 0.0000 0.0000 30.9923
#
#
#
# Elastic Compliance Matrix: (Units=1/GPa)
#
#
# Indices 1 2 3 4 5 6 
#
# 1 0.007104 -0.000951 -0.001268 0.000000 0.000000 0.000000
# 2 -0.000951 0.004719 -0.001692 0.000000 0.000000 0.000000
# 3 -0.001268 -0.001692 0.008646 0.000000 0.000000 0.000000
# 4 0.000000 0.000000 0.000000 0.015184 0.000000 0.000000
# 5 0.000000 0.000000 0.000000 0.000000 0.019587 0.000000
# 6 0.000000 0.000000 0.000000 0.000000 0.000000 0.032266
#
#
# Mechanical properties :
#
#
# Convention : Reuss Voigt Hill
#
# Bulk Modulus (GPa) = 79.06813 85.65408 82.36110
# Shear Modulus (GPa) = 50.23051 56.03000 53.13026
#
# Velocity S-wave (km/s) = 4.22644 4.46377 4.34673
# Velocity P-wave (km/s) = 7.20660 7.55162 7.38113
#
# Compressibility (1/GPa) = 0.01264732
#
# Stress axis : x y z
#
# Youngs Moduli (GPa) = 140.77204 211.91228 115.66598
#
# Poissons Ratio (x) = 0.20144 0.14662
# Poissons Ratio (y) = 0.13382 0.19574
# Poissons Ratio (z) = 0.17844 0.35861
#
# Static dielectric constant tensor:
#      x y z
#    x 2.276640 0.000000 0.000000 
#    y 0.000000 2.162580 0.000000 
#    z 0.000000 0.000000 2.416260 
# 
# From -- ./inp_files/49120.got.cif
#   From: 2010.05.17/outbox.cif.g08.bks.cpg/sg70_25_cif.got.tgz:49120.got - 2010.06.03 15:57:51.
