data_PCOD9516579
_publ_section_title
;
Structure prediction by ZEFSAII (Michael W. Deem and Ramdas Pophale) SiO2 
 PCOD9516579
Probable space group: F D D D
;
_chemical_formula_sum "Si O2"
_cell_formula_units_Z 160
_cell_length_a 11.640665
_cell_length_b 24.358385
_cell_length_c 23.942949
_cell_angle_alpha 90.000000
_cell_angle_beta 90.000000
_cell_angle_gamma 90.000000
_cell_volume 6788.970508
_symmetry_space_group_name_H-M "F D D D"
_symmetry_group_IT_number 70
_space_group.IT_coordinate_system_code '2'
_symmetry_cell_setting 'orthorhombic'
loop_
_space_group_symop_operation_xyz
x,y,z
1/4-x,1/4-y,z
x,1/4-y,1/4-z
1/4-x,y,1/4-z
-x,-y,-z
3/4+x,3/4+y,-z
-x,3/4+y,3/4+z
3/4+x,-y,3/4+z
x,1/2+y,1/2+z
1/4-x,3/4-y,1/2+z
x,3/4-y,3/4-z
1/4-x,1/2+y,3/4-z
-x,1/2-y,1/2-z
3/4+x,1/4+y,1/2-z
-x,1/4+y,1/4+z
3/4+x,1/2-y,1/4+z
1/2+x,y,1/2+z
3/4-x,1/4-y,1/2+z
1/2+x,1/4-y,3/4-z
3/4-x,y,3/4-z
1/2-x,-y,1/2-z
1/4+x,3/4+y,1/2-z
1/2-x,3/4+y,1/4+z
1/4+x,-y,1/4+z
1/2+x,1/2+y,z
3/4-x,3/4-y,z
1/2+x,3/4-y,1/4-z
3/4-x,1/2+y,1/4-z
1/2-x,1/2-y,-z
1/4+x,1/4+y,-z
1/2-x,1/4+y,3/4+z
1/4+x,1/2-y,3/4+z
loop_
_atom_site_type_symbol
_atom_site_label
_atom_site_fract_x
_atom_site_fract_y
_atom_site_fract_z
Si Si1 0.610428 0.041678 0.918871
Si Si2 0.626365 0.411254 0.691315
Si Si3 0.785243 0.503641 0.506069
Si Si4 0.512561 0.936597 0.869898
Si Si5 0.543016 0.289899 0.676914
O O1 0.513540 0.080773 0.946219
O O2 0.709538 0.038156 0.963432
O O3 0.670400 0.049928 0.856938
O O4 0.556195 0.980792 0.914352
O O5 0.625000 0.425644 0.625000
O O6 0.543229 0.452234 0.724778
O O7 0.577499 0.350354 0.698628
O O8 0.801501 0.540313 0.560532
O O9 0.905037 0.496082 0.472636
O O10 0.556695 0.875000 0.875000
O O11 0.375000 0.935859 0.875000
O O12 0.625000 0.276091 0.625000
#
# Coordination Sequence:
#
# PCOD9516579 Si02
#       5
#    32  32  32  32  32
#     4  11  22  44  65  94 137 177 219 285 330 420
#     4  11  21  41  63  98 131 173 224 278 336 408
#     4  11  22  41  66  97 133 174 221 280 347 402
#     4  11  24  40  64 100 135 168 221 284 342 409
#     4   9  24  39  64  97 134 170 227 275 341 403
#
# _framework density 23.567639
#
# number of rings (size 3 to 8) (size 9 to 14) (size 15 to 20)
#    0.000    1.400    4.000    0.600    2.800    9.600 
#    0.000    0.000    4.400    4.200    0.000    0.000 
#    0.000    0.000    0.000    0.000    0.000    0.000 
#
# Total GULP energy -222853.811866 kJ/mol
# GULP energy per Si atom -5571.345297 kJ/mol
# Density = 2.351400 g / cm^3
# Si number density = 23.567639 Si / 1000 Ang^3
#
#
#
# Elastic Constant Matrix: (Units=GPa)
#
#
# Indices 1 2 3 4 5 6 
#
# 1 118.6598 35.9670 16.6962 0.0000 0.0000 0.0000
# 2 35.9670 94.7808 13.0267 0.0000 0.0000 0.0000
# 3 16.6962 13.0267 70.3120 0.0000 0.0000 0.0000
# 4 0.0000 0.0000 0.0000 -9.2067 0.0000 0.0000
# 5 0.0000 0.0000 0.0000 0.0000 22.7375 0.0000
# 6 0.0000 0.0000 0.0000 0.0000 0.0000 17.5715
#
#
#
# Elastic Compliance Matrix: (Units=1/GPa)
#
#
# Indices 1 2 3 4 5 6 
#
# 1 0.009709 -0.003456 -0.001665 0.000000 0.000000 0.000000
# 2 -0.003456 0.012056 -0.001413 0.000000 0.000000 0.000000
# 3 -0.001665 -0.001413 0.014880 0.000000 0.000000 0.000000
# 4 0.000000 0.000000 0.000000 -0.108617 0.000000 0.000000
# 5 0.000000 0.000000 0.000000 0.000000 0.043980 0.000000
# 6 0.000000 0.000000 0.000000 0.000000 0.000000 0.056910
#
#
# Mechanical properties :
#
#
# Convention : Reuss Voigt Hill
#
# Bulk Modulus (GPa) = 42.41416 46.12581 44.26999
# Shear Modulus (GPa) = 100.30916 20.75796 60.53356
#
# Velocity S-wave (km/s) = 6.53105 2.97102 5.07354
# Velocity P-wave (km/s) = 8.65498 5.60209 7.29013
#
# Compressibility (1/GPa) = 0.02357703
#
# Stress axis : x y z
#
# Youngs Moduli (GPa) = 102.99532 82.94512 67.20618
#
# Poissons Ratio (x) = 0.28662 0.11192
# Poissons Ratio (y) = 0.35590 0.09497
# Poissons Ratio (z) = 0.17152 0.11721
#
# Static dielectric constant tensor:
#      x y z
#    x 2.216510 0.000000 0.000000 
#    y 0.000000 1.900770 0.000000 
#    z 0.000000 0.000000 1.940670 
# 
# From -- ./inp_files/57532.got.cif
#   From: 2010.05.17/outbox.cif.g08.bks.cpg/sg70_29_cif.got.tgz:57532.got - 2010.06.03 15:57:51.
