data_PCOD9516889
_publ_section_title
;
Structure prediction by ZEFSAII (Michael W. Deem and Ramdas Pophale) SiO2 
 PCOD9516889
Probable space group: F D D D
;
_chemical_formula_sum "Si O2"
_cell_formula_units_Z 160
_cell_length_a 20.718952
_cell_length_b 13.896793
_cell_length_c 23.590547
_cell_angle_alpha 90.000000
_cell_angle_beta 90.000000
_cell_angle_gamma 90.000000
_cell_volume 6792.355122
_symmetry_space_group_name_H-M "F D D D"
_symmetry_group_IT_number 70
_space_group.IT_coordinate_system_code '2'
_symmetry_cell_setting 'orthorhombic'
loop_
_space_group_symop_operation_xyz
x,y,z
1/4-x,1/4-y,z
x,1/4-y,1/4-z
1/4-x,y,1/4-z
-x,-y,-z
3/4+x,3/4+y,-z
-x,3/4+y,3/4+z
3/4+x,-y,3/4+z
x,1/2+y,1/2+z
1/4-x,3/4-y,1/2+z
x,3/4-y,3/4-z
1/4-x,1/2+y,3/4-z
-x,1/2-y,1/2-z
3/4+x,1/4+y,1/2-z
-x,1/4+y,1/4+z
3/4+x,1/2-y,1/4+z
1/2+x,y,1/2+z
3/4-x,1/4-y,1/2+z
1/2+x,1/4-y,3/4-z
3/4-x,y,3/4-z
1/2-x,-y,1/2-z
1/4+x,3/4+y,1/2-z
1/2-x,3/4+y,1/4+z
1/4+x,-y,1/4+z
1/2+x,1/2+y,z
3/4-x,3/4-y,z
1/2+x,3/4-y,1/4-z
3/4-x,1/2+y,1/4-z
1/2-x,1/2-y,-z
1/4+x,1/4+y,-z
1/2-x,1/4+y,3/4+z
1/4+x,1/2-y,3/4+z
loop_
_atom_site_type_symbol
_atom_site_label
_atom_site_fract_x
_atom_site_fract_y
_atom_site_fract_z
Si Si1 0.086513 0.027153 0.270319
Si Si2 0.220020 0.317445 0.646983
Si Si3 0.260933 0.976246 0.403994
Si Si4 0.348303 0.983874 0.791656
Si Si5 0.368733 0.086652 0.683624
O O1 0.125000 0.125000 0.266136
O O2 0.048490 0.009823 0.212430
O O3 0.033968 0.037910 0.319972
O O4 0.131949 0.937042 0.284091
O O5 0.224725 0.430110 0.632916
O O6 0.159694 0.295797 0.687498
O O7 0.204675 0.257030 0.589628
O O8 0.279787 0.875000 0.375000
O O9 0.184618 0.967269 0.417137
O O10 0.331317 0.020406 0.728669
O O11 0.375000 0.875000 0.791527
O O12 0.338588 0.125000 0.625000
#
# Coordination Sequence:
#
# PCOD9516889 Si02
#       5
#    32  32  32  32  32
#     4  12  26  44  74 112 152 199 243 308 377 445
#     4  11  24  48  74 108 148 197 250 304 373 438
#     4  11  25  44  75 109 151 197 248 308 370 446
#     4  11  25  48  81 107 144 197 259 308 360 446
#     4  11  25  48  70 111 150 189 242 306 374 438
#
# _framework density 23.555895
#
# number of rings (size 3 to 8) (size 9 to 14) (size 15 to 20)
#    0.000    0.800    4.000    3.600    2.800    6.000 
#    0.000    3.000    0.000    0.000    0.000    0.000 
#    0.000    0.000    0.000    0.000    0.000    0.000 
#
# Total GULP energy -223956.351054 kJ/mol
# GULP energy per Si atom -5598.908776 kJ/mol
# Density = 2.350228 g / cm^3
# Si number density = 23.555895 Si / 1000 Ang^3
#
#
#
# Elastic Constant Matrix: (Units=GPa)
#
#
# Indices 1 2 3 4 5 6 
#
# 1 68.6411 19.4841 24.9227 0.0000 0.0000 0.0000
# 2 19.4841 127.5498 50.2535 0.0000 0.0000 0.0000
# 3 24.9227 50.2535 138.6067 0.0000 0.0000 0.0000
# 4 0.0000 0.0000 0.0000 52.1957 0.0000 0.0000
# 5 0.0000 0.0000 0.0000 0.0000 -38.9410 0.0000
# 6 0.0000 0.0000 0.0000 0.0000 0.0000 28.3072
#
#
#
# Elastic Compliance Matrix: (Units=1/GPa)
#
#
# Indices 1 2 3 4 5 6 
#
# 1 0.015832 -0.001513 -0.002298 0.000000 0.000000 0.000000
# 2 -0.001513 0.009291 -0.003097 0.000000 0.000000 0.000000
# 3 -0.002298 -0.003097 0.008751 0.000000 0.000000 0.000000
# 4 0.000000 0.000000 0.000000 0.019159 0.000000 0.000000
# 5 0.000000 0.000000 0.000000 0.000000 -0.025680 0.000000
# 6 0.000000 0.000000 0.000000 0.000000 0.000000 0.035327
#
#
# Mechanical properties :
#
#
# Convention : Reuss Voigt Hill
#
# Bulk Modulus (GPa) = 49.85398 58.23534 54.04466
# Shear Modulus (GPa) = 60.10936 24.32154 42.21545
#
# Velocity S-wave (km/s) = 5.05699 3.21675 4.23796
# Velocity P-wave (km/s) = 7.43691 6.21067 6.85128
#
# Compressibility (1/GPa) = 0.02005858
#
# Stress axis : x y z
#
# Youngs Moduli (GPa) = 63.16128 107.62836 114.27782
#
# Poissons Ratio (x) = 0.16285 0.26264
# Poissons Ratio (y) = 0.09557 0.35387
# Poissons Ratio (z) = 0.14516 0.33328
#
# Static dielectric constant tensor:
#      x y z
#    x 1.881860 0.000000 0.000000 
#    y 0.000000 1.845770 0.000000 
#    z 0.000000 0.000000 1.948100 
# 
# From -- ./inp_files/53560.got.cif
#   From: 2010.05.17/outbox.cif.g08.bks.cpg/sg70_27_cif.got.tgz:53560.got - 2010.06.03 15:57:51.
