data_PCOD9516921
_publ_section_title
;
Structure prediction by ZEFSAII (Michael W. Deem and Ramdas Pophale) SiO2 
 PCOD9516921
Probable space group: F D D D
;
_chemical_formula_sum "Si O2"
_cell_formula_units_Z 96
_cell_length_a 26.291169
_cell_length_b 21.468525
_cell_length_c 7.279522
_cell_angle_alpha 90.000000
_cell_angle_beta 90.000000
_cell_angle_gamma 90.000000
_cell_volume 4108.799667
_symmetry_space_group_name_H-M "F D D D"
_symmetry_group_IT_number 70
_space_group.IT_coordinate_system_code '2'
_symmetry_cell_setting 'orthorhombic'
loop_
_space_group_symop_operation_xyz
x,y,z
1/4-x,1/4-y,z
x,1/4-y,1/4-z
1/4-x,y,1/4-z
-x,-y,-z
3/4+x,3/4+y,-z
-x,3/4+y,3/4+z
3/4+x,-y,3/4+z
x,1/2+y,1/2+z
1/4-x,3/4-y,1/2+z
x,3/4-y,3/4-z
1/4-x,1/2+y,3/4-z
-x,1/2-y,1/2-z
3/4+x,1/4+y,1/2-z
-x,1/4+y,1/4+z
3/4+x,1/2-y,1/4+z
1/2+x,y,1/2+z
3/4-x,1/4-y,1/2+z
1/2+x,1/4-y,3/4-z
3/4-x,y,3/4-z
1/2-x,-y,1/2-z
1/4+x,3/4+y,1/2-z
1/2-x,3/4+y,1/4+z
1/4+x,-y,1/4+z
1/2+x,1/2+y,z
3/4-x,3/4-y,z
1/2+x,3/4-y,1/4-z
3/4-x,1/2+y,1/4-z
1/2-x,1/2-y,-z
1/4+x,1/4+y,-z
1/2-x,1/4+y,3/4+z
1/4+x,1/2-y,3/4+z
loop_
_atom_site_type_symbol
_atom_site_label
_atom_site_fract_x
_atom_site_fract_y
_atom_site_fract_z
Si Si1 0.185507 0.053509 0.143764
Si Si2 0.569061 0.533828 0.680504
Si Si3 0.541270 0.943330 0.903397
O O1 0.206761 0.125000 0.125000
O O2 0.125000 0.059314 0.125000
O O3 0.192435 0.034873 0.355424
O O4 0.199991 0.997253 0.002697
O O5 0.625000 0.558404 0.625000
O O6 0.565727 0.466160 0.591894
O O7 0.519986 0.563148 0.580015
O O8 0.562488 0.875000 0.875000
#
# Coordination Sequence:
#
# PCOD9516921 Si02
#       3
#    32  32  32
#     4  11  25  46  72 105 141 188 237 285 351 427
#     4  11  25  48  71 101 141 185 236 290 346 426
#     4  11  27  46  72 106 139 185 235 294 359 413
#
# _framework density 23.364488000000001
#
# number of rings (size 3 to 8) (size 9 to 14) (size 15 to 20)
#    0.000    1.000    3.333    1.000    9.333    3.333 
#    0.000    0.000    0.000    0.000    0.000    0.000 
#    0.000    0.000    0.000    0.000    0.000    0.000 
#
# Total GULP energy -133738.261230 kJ/mol
# GULP energy per Si atom -5572.427551 kJ/mol
# Density = 2.331131 g / cm^3
# Si number density = 23.364488 Si / 1000 Ang^3
#
#
#
# Elastic Constant Matrix: (Units=GPa)
#
#
# Indices 1 2 3 4 5 6 
#
# 1 109.9602 18.0587 10.7500 0.0012 -0.0002 -0.0014
# 2 18.0587 225.1799 98.6266 0.0059 -0.0027 -0.0139
# 3 10.7500 98.6266 202.2859 0.0124 -0.0051 -0.0173
# 4 0.0012 0.0059 0.0124 54.3283 -0.0035 -0.0058
# 5 -0.0002 -0.0027 -0.0051 -0.0035 31.2834 0.0104
# 6 -0.0014 -0.0139 -0.0173 -0.0058 0.0104 -45.7556
#
#
#
# Elastic Compliance Matrix: (Units=1/GPa)
#
#
# Indices 1 2 3 4 5 6 
#
# 1 0.009220 -0.000667 -0.000165 0.000000 0.000000 0.000000
# 2 -0.000667 0.005695 -0.002741 0.000000 0.000000 -0.000001
# 3 -0.000165 -0.002741 0.006289 -0.000001 0.000001 -0.000002
# 4 0.000000 0.000000 -0.000001 0.018407 0.000002 -0.000002
# 5 0.000000 0.000000 0.000001 0.000002 0.031966 0.000007
# 6 0.000000 -0.000001 -0.000002 -0.000002 0.000007 -0.021855
#
#
# Mechanical properties :
#
#
# Convention : Reuss Voigt Hill
#
# Bulk Modulus (GPa) = 71.13692 88.03299 79.58495
# Shear Modulus (GPa) = 81.23088 35.30392 58.26740
#
# Velocity S-wave (km/s) = 5.90274 3.89139 4.99926
# Velocity P-wave (km/s) = 8.77320 7.61252 8.21339
#
# Compressibility (1/GPa) = 0.01405740
#
# Stress axis : x y z
#
# Youngs Moduli (GPa) = 108.46125 175.59161 159.01404
#
# Poissons Ratio (x) = 0.11717 0.02618
# Poissons Ratio (y) = 0.07238 0.43589
# Poissons Ratio (z) = 0.01785 0.48133
#
# Static dielectric constant tensor:
#      x y z
#    x 1.890610 -0.000020 0.000050 
#    y -0.000020 2.037580 0.000020 
#    z 0.000050 0.000020 1.775850 
# 
# From -- ./inp_files/10334.got.cif
#   From: 2010.05.17/outbox.cif.g08.bks.cpg/sg70_6_cif.got.tgz:10334.got - 2010.06.03 15:57:51.
