data_PCOD9516114
_publ_section_title
;
Structure prediction by ZEFSAII (Michael W. Deem and Ramdas Pophale) SiO2 
 PCOD9516114
Probable space group: F D D D
;
_chemical_formula_sum "Si O2"
_cell_formula_units_Z 112
_cell_length_a 16.752879
_cell_length_b 15.547636
_cell_length_c 18.742314
_cell_angle_alpha 90.000000
_cell_angle_beta 90.000000
_cell_angle_gamma 90.000000
_cell_volume 4881.766758
_symmetry_space_group_name_H-M "F D D D"
_symmetry_group_IT_number 70
_space_group.IT_coordinate_system_code '2'
_symmetry_cell_setting 'orthorhombic'
loop_
_space_group_symop_operation_xyz
x,y,z
1/4-x,1/4-y,z
x,1/4-y,1/4-z
1/4-x,y,1/4-z
-x,-y,-z
3/4+x,3/4+y,-z
-x,3/4+y,3/4+z
3/4+x,-y,3/4+z
x,1/2+y,1/2+z
1/4-x,3/4-y,1/2+z
x,3/4-y,3/4-z
1/4-x,1/2+y,3/4-z
-x,1/2-y,1/2-z
3/4+x,1/4+y,1/2-z
-x,1/4+y,1/4+z
3/4+x,1/2-y,1/4+z
1/2+x,y,1/2+z
3/4-x,1/4-y,1/2+z
1/2+x,1/4-y,3/4-z
3/4-x,y,3/4-z
1/2-x,-y,1/2-z
1/4+x,3/4+y,1/2-z
1/2-x,3/4+y,1/4+z
1/4+x,-y,1/4+z
1/2+x,1/2+y,z
3/4-x,3/4-y,z
1/2+x,3/4-y,1/4-z
3/4-x,1/2+y,1/4-z
1/2-x,1/2-y,-z
1/4+x,1/4+y,-z
1/2-x,1/4+y,3/4+z
1/4+x,1/2-y,3/4+z
loop_
_atom_site_type_symbol
_atom_site_label
_atom_site_fract_x
_atom_site_fract_y
_atom_site_fract_z
Si Si1 0.882982 0.179271 0.697864
Si Si2 0.297967 0.136618 0.831541
Si Si3 0.454749 0.836190 0.454510
Si Si4 0.625000 0.625000 0.396396
O O1 0.897608 0.125000 0.625000
O O2 0.950271 0.162392 0.756333
O O3 0.796100 0.148603 0.727807
O O4 0.874549 0.280690 0.683684
O O5 0.375000 0.108501 0.875000
O O6 0.308384 0.235268 0.806930
O O7 0.217899 0.125114 0.877674
O O8 0.455600 0.875000 0.375000
O O9 0.375000 0.875000 0.491701
#
# Coordination Sequence:
#
# PCOD9516114 Si02
#       4
#    32  32  32  16
#     4  10  23  42  62  92 128 169 213 259 321 379
#     4  11  22  41  65  92 126 171 210 261 321 377
#     4   9  17  37  59  93 132 151 201 267 314 378
#     4  10  24  44  61  94 133 158 226 274 298 384
#
# _framework density 22.942513000000002
#
# number of rings (size 3 to 8) (size 9 to 14) (size 15 to 20)
#    0.000    2.000    2.857    0.857    0.000    5.714 
#    5.143    1.429    0.000    0.000    0.000    0.000 
#    0.000    0.000    0.000    0.000    0.000    0.000 
#
# Total GULP energy -155896.167087 kJ/mol
# GULP energy per Si atom -5567.720253 kJ/mol
# Density = 2.289030 g / cm^3
# Si number density = 22.942513 Si / 1000 Ang^3
#
#
#
# Elastic Constant Matrix: (Units=GPa)
#
#
# Indices 1 2 3 4 5 6 
#
# 1 172.7975 10.6853 38.4311 0.0000 0.0000 0.0000
# 2 10.6853 109.6593 21.2522 0.0000 0.0000 0.0000
# 3 38.4311 21.2522 81.0804 0.0000 0.0000 0.0000
# 4 0.0000 0.0000 0.0000 -2.8770 0.0000 0.0000
# 5 0.0000 0.0000 0.0000 0.0000 28.2201 0.0000
# 6 0.0000 0.0000 0.0000 0.0000 0.0000 34.0491
#
#
#
# Elastic Compliance Matrix: (Units=1/GPa)
#
#
# Indices 1 2 3 4 5 6 
#
# 1 0.006469 -0.000038 -0.003056 0.000000 0.000000 0.000000
# 2 -0.000038 0.009607 -0.002500 0.000000 0.000000 0.000000
# 3 -0.003056 -0.002500 0.014437 0.000000 0.000000 0.000000
# 4 0.000000 0.000000 0.000000 -0.347590 0.000000 0.000000
# 5 0.000000 0.000000 0.000000 0.000000 0.035436 0.000000
# 6 0.000000 0.000000 0.000000 0.000000 0.000000 0.029369
#
#
# Mechanical properties :
#
#
# Convention : Reuss Voigt Hill
#
# Bulk Modulus (GPa) = 51.74672 56.03047 53.88860
# Shear Modulus (GPa) = -21.30925 31.42303 5.05689
#
# Velocity S-wave (km/s) = -3.05095 3.70488 1.48625
# Velocity P-wave (km/s) = 3.19263 6.54039 5.14634
#
# Compressibility (1/GPa) = 0.01932490
#
# Stress axis : x y z
#
# Youngs Moduli (GPa) = 154.57798 104.08641 69.26429
#
# Poissons Ratio (x) = 0.00396 0.21170
# Poissons Ratio (y) = 0.00588 0.17317
# Poissons Ratio (z) = 0.47245 0.26024
#
# Static dielectric constant tensor:
#      x y z
#    x 1.933350 0.000000 0.000000 
#    y 0.000000 1.851700 0.000000 
#    z 0.000000 0.000000 1.889720 
# 
# From -- ./inp_files/26232.got.cif
#   From: 2010.05.17/outbox.cif.g08.bks.cpg/sg70_14_cif.got.tgz:26232.got - 2010.06.03 15:57:51.
