data_PCOD9516841
_publ_section_title
;
Structure prediction by ZEFSAII (Michael W. Deem and Ramdas Pophale) SiO2 
 PCOD9516841
Probable space group: F D D D
;
_chemical_formula_sum "Si O2"
_cell_formula_units_Z 128
_cell_length_a 10.992581
_cell_length_b 21.960755
_cell_length_c 26.628262
_cell_angle_alpha 90.000000
_cell_angle_beta 90.000000
_cell_angle_gamma 90.000000
_cell_volume 6428.205658
_symmetry_space_group_name_H-M "F D D D"
_symmetry_group_IT_number 70
_space_group.IT_coordinate_system_code '2'
_symmetry_cell_setting 'orthorhombic'
loop_
_space_group_symop_operation_xyz
x,y,z
1/4-x,1/4-y,z
x,1/4-y,1/4-z
1/4-x,y,1/4-z
-x,-y,-z
3/4+x,3/4+y,-z
-x,3/4+y,3/4+z
3/4+x,-y,3/4+z
x,1/2+y,1/2+z
1/4-x,3/4-y,1/2+z
x,3/4-y,3/4-z
1/4-x,1/2+y,3/4-z
-x,1/2-y,1/2-z
3/4+x,1/4+y,1/2-z
-x,1/4+y,1/4+z
3/4+x,1/2-y,1/4+z
1/2+x,y,1/2+z
3/4-x,1/4-y,1/2+z
1/2+x,1/4-y,3/4-z
3/4-x,y,3/4-z
1/2-x,-y,1/2-z
1/4+x,3/4+y,1/2-z
1/2-x,3/4+y,1/4+z
1/4+x,-y,1/4+z
1/2+x,1/2+y,z
3/4-x,3/4-y,z
1/2+x,3/4-y,1/4-z
3/4-x,1/2+y,1/4-z
1/2-x,1/2-y,-z
1/4+x,1/4+y,-z
1/2-x,1/4+y,3/4+z
1/4+x,1/2-y,3/4+z
loop_
_atom_site_type_symbol
_atom_site_label
_atom_site_fract_x
_atom_site_fract_y
_atom_site_fract_z
Si Si1 0.684010 0.232525 0.552134
Si Si2 0.512953 0.586587 0.456997
Si Si3 0.788734 0.125000 0.625000
Si Si4 0.375000 0.586912 0.875000
Si Si5 0.102563 0.460413 0.293105
O O1 0.750000 0.250000 0.500000
O O2 0.722168 0.172318 0.585126
O O3 0.697241 0.290676 0.588665
O O4 0.540712 0.224926 0.540189
O O5 0.625000 0.625000 0.479760
O O6 0.463320 0.621856 0.408593
O O7 0.570932 0.520945 0.447738
O O8 0.402297 0.575063 0.494853
O O9 0.867828 0.167809 0.659439
#
# Coordination Sequence:
#
# PCOD9516841 Si02
#       5
#    32  32  16  16  32
#     4  12  24  43  74 104 139 185 231 292 359 413
#     4  11  24  45  66  95 139 180 225 285 350 423
#     4  12  23  44  69 102 137 172 236 295 338 427
#     4  12  24  45  68  99 138 180 232 286 340 432
#     4  11  24  44  68  96 139 177 225 293 347 414
#
# _framework density 19.912244999999999
#
# number of rings (size 3 to 8) (size 9 to 14) (size 15 to 20)
#    0.000    0.500    5.000    3.000    0.000    4.000 
#    4.500    0.000    0.000    0.000    0.000    0.000 
#    0.000    0.000    0.000    0.000    0.000    0.000 
#
# Total GULP energy -178601.308384 kJ/mol
# GULP energy per Si atom -5581.290887 kJ/mol
# Density = 1.986692 g / cm^3
# Si number density = 19.912245 Si / 1000 Ang^3
#
#
#
# Elastic Constant Matrix: (Units=GPa)
#
#
# Indices 1 2 3 4 5 6 
#
# 1 56.9919 40.7471 54.0097 0.0000 0.0000 0.0000
# 2 40.7471 117.3923 88.4275 0.0000 0.0000 0.0000
# 3 54.0097 88.4275 157.2510 0.0000 0.0000 0.0000
# 4 0.0000 0.0000 0.0000 24.6416 0.0000 0.0000
# 5 0.0000 0.0000 0.0000 0.0000 24.5687 0.0000
# 6 0.0000 0.0000 0.0000 0.0000 0.0000 3.7236
#
#
#
# Elastic Compliance Matrix: (Units=1/GPa)
#
#
# Indices 1 2 3 4 5 6 
#
# 1 0.027137 -0.004161 -0.006981 0.000000 0.000000 0.000000
# 2 -0.004161 0.015416 -0.007240 0.000000 0.000000 0.000000
# 3 -0.006981 -0.007240 0.012828 0.000000 0.000000 0.000000
# 4 0.000000 0.000000 0.000000 0.040582 0.000000 0.000000
# 5 0.000000 0.000000 0.000000 0.000000 0.040702 0.000000
# 6 0.000000 0.000000 0.000000 0.000000 0.000000 0.268561
#
#
# Mechanical properties :
#
#
# Convention : Reuss Voigt Hill
#
# Bulk Modulus (GPa) = 53.71139 77.55598 65.63369
# Shear Modulus (GPa) = 11.15587 20.48351 15.81969
#
# Velocity S-wave (km/s) = 2.36953 3.21080 2.82169
# Velocity P-wave (km/s) = 5.87527 7.26492 6.60674
#
# Compressibility (1/GPa) = 0.01861802
#
# Stress axis : x y z
#
# Youngs Moduli (GPa) = 36.85068 64.86609 77.95392
#
# Poissons Ratio (x) = 0.26991 0.54416
# Poissons Ratio (y) = 0.15334 0.56439
# Poissons Ratio (z) = 0.25724 0.46963
#
# Static dielectric constant tensor:
#      x y z
#    x 1.711500 0.000000 0.000000 
#    y 0.000000 1.800930 0.000000 
#    z 0.000000 0.000000 1.740350 
# 
# From -- ./inp_files/49947.got.cif
#   From: 2010.05.17/outbox.cif.g08.bks.cpg/sg70_25_cif.got.tgz:49947.got - 2010.06.03 15:57:51.
