data_PCOD9516304
_publ_section_title
;
Structure prediction by ZEFSAII (Michael W. Deem and Ramdas Pophale) SiO2 
 PCOD9516304
Probable space group: F D D D
;
_chemical_formula_sum "Si O2"
_cell_formula_units_Z 216
_cell_length_a 11.488125
_cell_length_b 27.343758
_cell_length_c 31.031406
_cell_angle_alpha 90.000000
_cell_angle_beta 90.000000
_cell_angle_gamma 90.000000
_cell_volume 9747.849326
_symmetry_space_group_name_H-M "F D D D"
_symmetry_group_IT_number 70
_space_group.IT_coordinate_system_code '2'
_symmetry_cell_setting 'orthorhombic'
loop_
_space_group_symop_operation_xyz
x,y,z
1/4-x,1/4-y,z
x,1/4-y,1/4-z
1/4-x,y,1/4-z
-x,-y,-z
3/4+x,3/4+y,-z
-x,3/4+y,3/4+z
3/4+x,-y,3/4+z
x,1/2+y,1/2+z
1/4-x,3/4-y,1/2+z
x,3/4-y,3/4-z
1/4-x,1/2+y,3/4-z
-x,1/2-y,1/2-z
3/4+x,1/4+y,1/2-z
-x,1/4+y,1/4+z
3/4+x,1/2-y,1/4+z
1/2+x,y,1/2+z
3/4-x,1/4-y,1/2+z
1/2+x,1/4-y,3/4-z
3/4-x,y,3/4-z
1/2-x,-y,1/2-z
1/4+x,3/4+y,1/2-z
1/2-x,3/4+y,1/4+z
1/4+x,-y,1/4+z
1/2+x,1/2+y,z
3/4-x,3/4-y,z
1/2+x,3/4-y,1/4-z
3/4-x,1/2+y,1/4-z
1/2-x,1/2-y,-z
1/4+x,1/4+y,-z
1/2-x,1/4+y,3/4+z
1/4+x,1/2-y,3/4+z
loop_
_atom_site_type_symbol
_atom_site_label
_atom_site_fract_x
_atom_site_fract_y
_atom_site_fract_z
Si Si1 0.875000 0.875000 0.375000
Si Si2 0.316996 0.949641 0.244885
Si Si3 0.430602 0.087681 0.238995
Si Si4 0.016533 0.508549 0.820496
Si Si5 0.930894 0.821433 0.915744
Si Si6 0.311573 0.569658 0.181361
Si Si7 0.252937 0.779652 0.079734
Si Si8 0.125000 0.625000 0.300542
O O1 0.795454 0.911591 0.347402
O O2 0.204375 0.914602 0.245395
O O3 0.397348 0.953365 0.203094
O O4 0.398790 0.947311 0.287018
O O5 0.250000 0.000000 0.250000
O O6 0.439055 0.140805 0.218411
O O7 0.533274 0.091057 0.273963
O O8 0.458535 0.043762 0.204152
O O9 0.033454 0.509565 0.872055
O O10 0.882965 0.525787 0.818118
O O11 0.875000 0.793737 0.875000
O O12 0.875000 0.875000 0.916842
O O13 0.066487 0.825497 0.907399
O O14 0.307182 0.514379 0.198158
O O15 0.300298 0.834120 0.075412
#
# Coordination Sequence:
#
# PCOD9516304 Si02
#       8
#     8  32  32  32  32  32  32  16
#     4  12  22  40  70 120 144 184 228 306 380 444
#     4  10  24  44  69 100 142 188 236 291 362 442
#     4  11  24  45  72 112 146 184 243 304 376 452
#     4  10  24  49  75 104 141 196 247 297 372 449
#     4  11  24  41  66 104 141 180 232 294 363 436
#     4  12  24  40  74 105 146 186 232 304 374 441
#     4  11  26  47  73 103 145 192 248 309 370 442
#     4  12  29  48  66 109 148 190 249 310 368 443
#
# _framework density 22.158733999999999
#
# number of rings (size 3 to 8) (size 9 to 14) (size 15 to 20)
#    0.000    1.037    1.481    4.889   10.370    1.185 
#    6.667    0.000    0.000    0.000    0.000    0.000 
#    0.000    0.000    0.000    0.000    0.000    0.000 
#
# Total GULP energy -301276.232721 kJ/mol
# GULP energy per Si atom -5579.189495 kJ/mol
# Density = 2.210830 g / cm^3
# Si number density = 22.158734 Si / 1000 Ang^3
#
#
#
# Elastic Constant Matrix: (Units=GPa)
#
#
# Indices 1 2 3 4 5 6 
#
# 1 140.8334 29.1485 44.1491 0.0000 0.0000 0.0000
# 2 29.1485 123.3871 23.7443 0.0000 0.0000 0.0000
# 3 44.1491 23.7443 73.4461 0.0000 0.0000 0.0000
# 4 0.0000 0.0000 0.0000 17.3887 0.0000 0.0000
# 5 0.0000 0.0000 0.0000 0.0000 48.7876 0.0000
# 6 0.0000 0.0000 0.0000 0.0000 0.0000 -8.5004
#
#
#
# Elastic Compliance Matrix: (Units=1/GPa)
#
#
# Indices 1 2 3 4 5 6 
#
# 1 0.008898 -0.001144 -0.004979 0.000000 0.000000 0.000000
# 2 -0.001144 0.008789 -0.002154 0.000000 0.000000 0.000000
# 3 -0.004979 -0.002154 0.017305 0.000000 0.000000 0.000000
# 4 0.000000 0.000000 0.000000 0.057509 0.000000 0.000000
# 5 0.000000 0.000000 0.000000 0.000000 0.020497 0.000000
# 6 0.000000 0.000000 0.000000 0.000000 0.000000 -0.117642
#
#
# Mechanical properties :
#
#
# Convention : Reuss Voigt Hill
#
# Bulk Modulus (GPa) = 54.23397 59.08339 56.65868
# Shear Modulus (GPa) = 276.92566 27.57683 152.25124
#
# Velocity S-wave (km/s) = 11.19129 3.53159 8.29810
# Velocity P-wave (km/s) = 13.83913 6.58416 10.83680
#
# Compressibility (1/GPa) = 0.01843863
#
# Stress axis : x y z
#
# Youngs Moduli (GPa) = 112.38257 113.77475 57.78797
#
# Poissons Ratio (x) = 0.13015 0.28772
# Poissons Ratio (y) = 0.12856 0.12447
# Poissons Ratio (z) = 0.55955 0.24505
#
# Static dielectric constant tensor:
#      x y z
#    x 1.694540 0.000000 0.000000 
#    y 0.000000 1.869120 0.000000 
#    z 0.000000 0.000000 1.831410 
# 
# From -- ./inp_files/65192.got.cif
#   From: 2010.05.17/outbox.cif.g08.bks.cpg/sg70_33_cif.got.tgz:65192.got - 2010.06.03 15:57:51.
