data_PCOD9516133
_publ_section_title
;
Structure prediction by ZEFSAII (Michael W. Deem and Ramdas Pophale) SiO2 
 PCOD9516133
Probable space group: F D D D
;
_chemical_formula_sum "Si O2"
_cell_formula_units_Z 216
_cell_length_a 15.231185
_cell_length_b 27.366571
_cell_length_c 24.723173
_cell_angle_alpha 90.000000
_cell_angle_beta 90.000000
_cell_angle_gamma 90.000000
_cell_volume 10305.244144
_symmetry_space_group_name_H-M "F D D D"
_symmetry_group_IT_number 70
_space_group.IT_coordinate_system_code '2'
_symmetry_cell_setting 'orthorhombic'
loop_
_space_group_symop_operation_xyz
x,y,z
1/4-x,1/4-y,z
x,1/4-y,1/4-z
1/4-x,y,1/4-z
-x,-y,-z
3/4+x,3/4+y,-z
-x,3/4+y,3/4+z
3/4+x,-y,3/4+z
x,1/2+y,1/2+z
1/4-x,3/4-y,1/2+z
x,3/4-y,3/4-z
1/4-x,1/2+y,3/4-z
-x,1/2-y,1/2-z
3/4+x,1/4+y,1/2-z
-x,1/4+y,1/4+z
3/4+x,1/2-y,1/4+z
1/2+x,y,1/2+z
3/4-x,1/4-y,1/2+z
1/2+x,1/4-y,3/4-z
3/4-x,y,3/4-z
1/2-x,-y,1/2-z
1/4+x,3/4+y,1/2-z
1/2-x,3/4+y,1/4+z
1/4+x,-y,1/4+z
1/2+x,1/2+y,z
3/4-x,3/4-y,z
1/2+x,3/4-y,1/4-z
3/4-x,1/2+y,1/4-z
1/2-x,1/2-y,-z
1/4+x,1/4+y,-z
1/2-x,1/4+y,3/4+z
1/4+x,1/2-y,3/4+z
loop_
_atom_site_type_symbol
_atom_site_label
_atom_site_fract_x
_atom_site_fract_y
_atom_site_fract_z
Si Si1 0.230687 0.813211 0.812189
Si Si2 0.602464 0.393056 0.685991
Si Si3 0.125000 0.125000 0.625000
Si Si4 0.277612 0.890472 0.041569
Si Si5 0.240309 0.191551 0.904790
Si Si6 0.540703 0.708196 0.093250
Si Si7 0.339683 0.125000 0.125000
Si Si8 0.188183 0.041020 0.966613
O O1 0.312568 0.838717 0.841475
O O2 0.251111 0.817108 0.748935
O O3 0.149197 0.845703 0.832062
O O4 0.211727 0.756401 0.819772
O O5 0.625000 0.409302 0.625000
O O6 0.696499 0.397215 0.715506
O O7 0.572878 0.335741 0.682821
O O8 0.518251 0.421381 0.707599
O O9 0.375000 0.875000 0.026608
O O10 0.280084 0.907072 0.103468
O O11 0.261570 0.243969 0.878015
O O12 0.157006 0.192551 0.944539
O O13 0.625000 0.688653 0.125000
O O14 0.467449 0.666328 0.095775
O O15 0.565461 0.718387 0.030978
#
# Coordination Sequence:
#
# PCOD9516133 Si02
#       8
#    32  32   8  32  32  32  16  32
#     4  11  23  42  69  94 141 180 229 278 336 410
#     4  10  23  42  70 100 137 173 226 281 343 399
#     4  10  24  44  62  96 138 192 226 272 346 404
#     4  11  21  42  67  99 136 180 224 277 342 405
#     4  11  23  44  69 100 138 180 225 285 346 406
#     4  12  26  44  68 102 139 182 231 280 344 418
#     4  11  25  47  65  98 142 186 221 285 343 407
#     4  12  25  44  72 104 136 178 232 288 343 405
#
# _framework density 20.960201999999999
#
# number of rings (size 3 to 8) (size 9 to 14) (size 15 to 20)
#    0.000    0.889    3.704    4.667    1.037    4.148 
#    0.000    0.741    0.000    0.000    0.000    0.000 
#    0.000    0.000    0.000    0.000    0.000    0.000 
#
# Total GULP energy -301387.435014 kJ/mol
# GULP energy per Si atom -5581.248797 kJ/mol
# Density = 2.091250 g / cm^3
# Si number density = 20.960202 Si / 1000 Ang^3
#
#
#
# Elastic Constant Matrix: (Units=GPa)
#
#
# Indices 1 2 3 4 5 6 
#
# 1 154.3375 45.3900 54.3023 0.0000 0.0000 0.0000
# 2 45.3900 92.4445 22.9526 0.0000 0.0000 0.0000
# 3 54.3023 22.9526 92.8923 0.0000 0.0000 0.0000
# 4 0.0000 0.0000 0.0000 19.6948 0.0000 0.0000
# 5 0.0000 0.0000 0.0000 0.0000 6.5750 0.0000
# 6 0.0000 0.0000 0.0000 0.0000 0.0000 12.1477
#
#
#
# Elastic Compliance Matrix: (Units=1/GPa)
#
#
# Indices 1 2 3 4 5 6 
#
# 1 0.009024 -0.003325 -0.004454 0.000000 0.000000 0.000000
# 2 -0.003325 0.012749 -0.001206 0.000000 0.000000 0.000000
# 3 -0.004454 -0.001206 0.013667 0.000000 0.000000 0.000000
# 4 0.000000 0.000000 0.000000 0.050775 0.000000 0.000000
# 5 0.000000 0.000000 0.000000 0.000000 0.152091 0.000000
# 6 0.000000 0.000000 0.000000 0.000000 0.000000 0.082320
#
#
# Mechanical properties :
#
#
# Convention : Reuss Voigt Hill
#
# Bulk Modulus (GPa) = 57.24135 64.99599 61.11867
# Shear Modulus (GPa) = 14.51717 22.15214 18.33465
#
# Velocity S-wave (km/s) = 2.63460 3.25448 2.96080
# Velocity P-wave (km/s) = 6.05175 6.72300 6.39618
#
# Compressibility (1/GPa) = 0.01746989
#
# Stress axis : x y z
#
# Youngs Moduli (GPa) = 110.81319 78.43473 73.17009
#
# Poissons Ratio (x) = 0.26080 0.32588
# Poissons Ratio (y) = 0.36846 0.08828
# Poissons Ratio (z) = 0.49353 0.09463
#
# Static dielectric constant tensor:
#      x y z
#    x 1.764320 0.000000 0.000000 
#    y 0.000000 1.759290 0.000000 
#    z 0.000000 0.000000 1.759490 
# 
# From -- ./inp_files/58805.got.cif
#   From: 2010.05.17/outbox.cif.g08.bks.cpg/sg70_30_cif.got.tgz:58805.got - 2010.06.03 15:57:51.
