data_PCOD9516470
_publ_section_title
;
Structure prediction by ZEFSAII (Michael W. Deem and Ramdas Pophale) SiO2 
 PCOD9516470
Probable space group: F D D D
;
_chemical_formula_sum "Si O2"
_cell_formula_units_Z 104
_cell_length_a 25.451665
_cell_length_b 8.970625
_cell_length_c 20.196678
_cell_angle_alpha 90.000000
_cell_angle_beta 90.000000
_cell_angle_gamma 90.000000
_cell_volume 4611.251845
_symmetry_space_group_name_H-M "F D D D"
_symmetry_group_IT_number 70
_space_group.IT_coordinate_system_code '2'
_symmetry_cell_setting 'orthorhombic'
loop_
_space_group_symop_operation_xyz
x,y,z
1/4-x,1/4-y,z
x,1/4-y,1/4-z
1/4-x,y,1/4-z
-x,-y,-z
3/4+x,3/4+y,-z
-x,3/4+y,3/4+z
3/4+x,-y,3/4+z
x,1/2+y,1/2+z
1/4-x,3/4-y,1/2+z
x,3/4-y,3/4-z
1/4-x,1/2+y,3/4-z
-x,1/2-y,1/2-z
3/4+x,1/4+y,1/2-z
-x,1/4+y,1/4+z
3/4+x,1/2-y,1/4+z
1/2+x,y,1/2+z
3/4-x,1/4-y,1/2+z
1/2+x,1/4-y,3/4-z
3/4-x,y,3/4-z
1/2-x,-y,1/2-z
1/4+x,3/4+y,1/2-z
1/2-x,3/4+y,1/4+z
1/4+x,-y,1/4+z
1/2+x,1/2+y,z
3/4-x,3/4-y,z
1/2+x,3/4-y,1/4-z
3/4-x,1/2+y,1/4-z
1/2-x,1/2-y,-z
1/4+x,1/4+y,-z
1/2-x,1/4+y,3/4+z
1/4+x,1/2-y,3/4+z
loop_
_atom_site_type_symbol
_atom_site_label
_atom_site_fract_x
_atom_site_fract_y
_atom_site_fract_z
Si Si1 0.375000 0.875000 0.375000
Si Si2 0.050534 0.375000 0.375000
Si Si3 0.214463 0.120634 0.029457
Si Si4 0.875000 0.875000 0.613981
Si Si5 0.962447 0.082222 0.552279
O O1 0.332676 0.809058 0.427081
O O2 0.088207 0.244318 0.348582
O O3 0.009374 0.296039 0.423683
O O4 0.250000 0.250000 0.000000
O O5 0.196326 0.989049 0.981498
O O6 0.837201 0.771815 0.569313
O O7 0.985961 0.125000 0.625000
O O8 0.000000 0.000000 0.500000
#
# Coordination Sequence:
#
# PCOD9516470 Si02
#       5
#     8  16  32  16  32
#     4  10  28  46  76 118 150 200 258 328 392 464
#     4  11  24  45  72 106 142 199 254 307 390 470
#     4  11  26  46  75 109 155 199 260 323 397 477
#     4  12  24  45  75 108 144 208 254 316 394 483
#     4  12  27  48  75 111 156 203 263 329 404 484
#
# _framework density 22.553526999999999
#
# number of rings (size 3 to 8) (size 9 to 14) (size 15 to 20)
#    0.000    0.615    4.615    1.846    8.615    1.231 
#    0.000    0.000    0.000    0.000    0.000    0.000 
#    0.000    0.000    0.000    0.000    0.000    0.000 
#
# Total GULP energy -144807.044707 kJ/mol
# GULP energy per Si atom -5569.501719 kJ/mol
# Density = 2.250219 g / cm^3
# Si number density = 22.553527 Si / 1000 Ang^3
#
#
#
# Elastic Constant Matrix: (Units=GPa)
#
#
# Indices 1 2 3 4 5 6 
#
# 1 151.3900 47.6324 55.6021 0.0000 0.0000 0.0000
# 2 47.6324 119.9874 37.7367 0.0000 0.0000 0.0000
# 3 55.6021 37.7367 111.7047 0.0000 0.0000 0.0000
# 4 0.0000 0.0000 0.0000 37.8337 0.0000 0.0000
# 5 0.0000 0.0000 0.0000 0.0000 57.3417 0.0000
# 6 0.0000 0.0000 0.0000 0.0000 0.0000 50.5837
#
#
#
# Elastic Compliance Matrix: (Units=1/GPa)
#
#
# Indices 1 2 3 4 5 6 
#
# 1 0.008624 -0.002320 -0.003509 0.000000 0.000000 0.000000
# 2 -0.002320 0.009949 -0.002206 0.000000 0.000000 0.000000
# 3 -0.003509 -0.002206 0.011444 0.000000 0.000000 0.000000
# 4 0.000000 0.000000 0.000000 0.026431 0.000000 0.000000
# 5 0.000000 0.000000 0.000000 0.000000 0.017439 0.000000
# 6 0.000000 0.000000 0.000000 0.000000 0.000000 0.019769
#
#
# Mechanical properties :
#
#
# Convention : Reuss Voigt Hill
#
# Bulk Modulus (GPa) = 71.70067 73.89162 72.79614
# Shear Modulus (GPa) = 43.71511 45.29255 44.50383
#
# Velocity S-wave (km/s) = 4.40737 4.48618 4.44695
# Velocity P-wave (km/s) = 7.60001 7.72453 7.66253
#
# Compressibility (1/GPa) = 0.01394687
#
# Stress axis : x y z
#
# Youngs Moduli (GPa) = 115.95286 100.51187 87.38089
#
# Poissons Ratio (x) = 0.23319 0.30662
# Poissons Ratio (y) = 0.26901 0.19278
# Poissons Ratio (z) = 0.40688 0.22175
#
# Static dielectric constant tensor:
#      x y z
#    x 1.862480 0.000000 0.000000 
#    y 0.000000 5.009150 0.000000 
#    z 0.000000 0.000000 2.049170 
# 
# From -- ./inp_files/8217.got.cif
#   From: 2010.05.17/outbox.cif.g08.bks.cpg/sg70_5_cif.got.tgz:8217.got - 2010.06.03 15:57:51.
