data_PCOD9516313
_publ_section_title
;
Structure prediction by ZEFSAII (Michael W. Deem and Ramdas Pophale) SiO2 
 PCOD9516313
Probable space group: F D D D
;
_chemical_formula_sum "Si O2"
_cell_formula_units_Z 176
_cell_length_a 26.532690
_cell_length_b 12.293166
_cell_length_c 23.424831
_cell_angle_alpha 90.000000
_cell_angle_beta 90.000000
_cell_angle_gamma 90.000000
_cell_volume 7640.494991
_symmetry_space_group_name_H-M "F D D D"
_symmetry_group_IT_number 70
_space_group.IT_coordinate_system_code '2'
_symmetry_cell_setting 'orthorhombic'
loop_
_space_group_symop_operation_xyz
x,y,z
1/4-x,1/4-y,z
x,1/4-y,1/4-z
1/4-x,y,1/4-z
-x,-y,-z
3/4+x,3/4+y,-z
-x,3/4+y,3/4+z
3/4+x,-y,3/4+z
x,1/2+y,1/2+z
1/4-x,3/4-y,1/2+z
x,3/4-y,3/4-z
1/4-x,1/2+y,3/4-z
-x,1/2-y,1/2-z
3/4+x,1/4+y,1/2-z
-x,1/4+y,1/4+z
3/4+x,1/2-y,1/4+z
1/2+x,y,1/2+z
3/4-x,1/4-y,1/2+z
1/2+x,1/4-y,3/4-z
3/4-x,y,3/4-z
1/2-x,-y,1/2-z
1/4+x,3/4+y,1/2-z
1/2-x,3/4+y,1/4+z
1/4+x,-y,1/4+z
1/2+x,1/2+y,z
3/4-x,3/4-y,z
1/2+x,3/4-y,1/4-z
3/4-x,1/2+y,1/4-z
1/2-x,1/2-y,-z
1/4+x,1/4+y,-z
1/2-x,1/4+y,3/4+z
1/4+x,1/2-y,3/4+z
loop_
_atom_site_type_symbol
_atom_site_label
_atom_site_fract_x
_atom_site_fract_y
_atom_site_fract_z
Si Si1 0.534575 0.325876 0.110776
Si Si2 0.549458 0.250637 0.875197
Si Si3 0.907001 0.265167 0.000059
Si Si4 0.146357 0.951133 0.954908
Si Si5 0.232936 0.875000 0.875000
Si Si6 0.125000 0.958575 0.125000
Si Si7 0.125000 0.125000 0.036408
O O1 0.490298 0.413588 0.101602
O O2 0.515423 0.224390 0.147147
O O3 0.579532 0.384453 0.144181
O O4 0.557955 0.273995 0.052667
O O5 0.529178 0.375000 0.875000
O O6 0.563007 0.217197 0.940174
O O7 0.601014 0.259516 0.837582
O O8 0.875000 0.375000 0.987692
O O9 0.873375 0.158689 0.015352
O O10 0.196119 0.924359 0.921329
O O11 0.158435 0.049700 0.997110
O O12 0.100499 0.036474 0.077606
#
# Coordination Sequence:
#
# PCOD9516313 Si02
#       7
#    32  32  32  32  16  16  16
#     4  12  28  45  73 105 152 200 246 305 379 445
#     4  10  24  44  76 107 145 184 257 313 371 443
#     4  11  24  46  72 105 152 200 245 308 376 445
#     4  11  22  47  76 107 144 195 246 316 373 435
#     4  12  26  45  74 114 142 201 254 306 372 458
#     4  11  28  49  66 110 155 202 241 314 370 445
#     4  11  24  44  80  98 144 196 250 297 384 430
#
# _framework density 23.035157000000002
#
# number of rings (size 3 to 8) (size 9 to 14) (size 15 to 20)
#    0.000    0.909    4.545    2.182    6.364    5.818 
#    3.273    2.727    0.000    0.000    0.000    0.000 
#    0.000    0.000    0.000    0.000    0.000    0.000 
#
# Total GULP energy -245881.668286 kJ/mol
# GULP energy per Si atom -5588.219734 kJ/mol
# Density = 2.298273 g / cm^3
# Si number density = 23.035157 Si / 1000 Ang^3
#
#
#
# Elastic Constant Matrix: (Units=GPa)
#
#
# Indices 1 2 3 4 5 6 
#
# 1 92.7374 79.0276 34.5720 0.0000 0.0000 0.0000
# 2 79.0276 184.5392 50.3438 0.0000 0.0000 0.0000
# 3 34.5720 50.3438 103.7295 0.0000 0.0000 0.0000
# 4 0.0000 0.0000 0.0000 30.9374 0.0000 0.0000
# 5 0.0000 0.0000 0.0000 0.0000 -8.0636 0.0000
# 6 0.0000 0.0000 0.0000 0.0000 0.0000 40.9970
#
#
#
# Elastic Compliance Matrix: (Units=1/GPa)
#
#
# Indices 1 2 3 4 5 6 
#
# 1 0.017540 -0.006819 -0.002536 0.000000 0.000000 0.000000
# 2 -0.006819 0.008897 -0.002045 0.000000 0.000000 0.000000
# 3 -0.002536 -0.002045 0.011478 0.000000 0.000000 0.000000
# 4 0.000000 0.000000 0.000000 0.032323 0.000000 0.000000
# 5 0.000000 0.000000 0.000000 0.000000 -0.124014 0.000000
# 6 0.000000 0.000000 0.000000 0.000000 0.000000 0.024392
#
#
# Mechanical properties :
#
#
# Convention : Reuss Voigt Hill
#
# Bulk Modulus (GPa) = 66.16494 78.76588 72.46541
# Shear Modulus (GPa) = -3239.93858 27.24500 -1606.34679
#
# Velocity S-wave (km/s) = -37.54427 3.44285 -26.43595
# Velocity P-wave (km/s) = 43.01911 7.07618 30.00476
#
# Compressibility (1/GPa) = 0.01511374
#
# Stress axis : x y z
#
# Youngs Moduli (GPa) = 57.01280 112.39393 87.12016
#
# Poissons Ratio (x) = 0.76647 0.22095
# Poissons Ratio (y) = 0.38880 0.17819
# Poissons Ratio (z) = 0.14459 0.22988
#
# Static dielectric constant tensor:
#      x y z
#    x 1.839660 0.000000 0.000000 
#    y 0.000000 1.881230 0.000000 
#    z 0.000000 0.000000 1.949570 
# 
# From -- ./inp_files/61697.got.cif
#   From: 2010.05.17/outbox.cif.g08.bks.cpg/sg70_31_cif.got.tgz:61697.got - 2010.06.03 15:57:51.
