data_PCOD9516626
_publ_section_title
;
Structure prediction by ZEFSAII (Michael W. Deem and Ramdas Pophale) SiO2 
 PCOD9516626
Probable space group: F D D D
;
_chemical_formula_sum "Si O2"
_cell_formula_units_Z 192
_cell_length_a 22.478349
_cell_length_b 17.009835
_cell_length_c 22.592133
_cell_angle_alpha 90.000000
_cell_angle_beta 90.000000
_cell_angle_gamma 90.000000
_cell_volume 8638.170000
_symmetry_space_group_name_H-M "F D D D"
_symmetry_group_IT_number 70
_space_group.IT_coordinate_system_code '2'
_symmetry_cell_setting 'orthorhombic'
loop_
_space_group_symop_operation_xyz
x,y,z
1/4-x,1/4-y,z
x,1/4-y,1/4-z
1/4-x,y,1/4-z
-x,-y,-z
3/4+x,3/4+y,-z
-x,3/4+y,3/4+z
3/4+x,-y,3/4+z
x,1/2+y,1/2+z
1/4-x,3/4-y,1/2+z
x,3/4-y,3/4-z
1/4-x,1/2+y,3/4-z
-x,1/2-y,1/2-z
3/4+x,1/4+y,1/2-z
-x,1/4+y,1/4+z
3/4+x,1/2-y,1/4+z
1/2+x,y,1/2+z
3/4-x,1/4-y,1/2+z
1/2+x,1/4-y,3/4-z
3/4-x,y,3/4-z
1/2-x,-y,1/2-z
1/4+x,3/4+y,1/2-z
1/2-x,3/4+y,1/4+z
1/4+x,-y,1/4+z
1/2+x,1/2+y,z
3/4-x,3/4-y,z
1/2+x,3/4-y,1/4-z
3/4-x,1/2+y,1/4-z
1/2-x,1/2-y,-z
1/4+x,1/4+y,-z
1/2-x,1/4+y,3/4+z
1/4+x,1/2-y,3/4+z
loop_
_atom_site_type_symbol
_atom_site_label
_atom_site_fract_x
_atom_site_fract_y
_atom_site_fract_z
Si Si1 0.375000 0.375000 0.275993
Si Si2 0.311418 0.639045 0.536366
Si Si3 0.735659 0.392934 0.587449
Si Si4 0.875000 0.747578 0.375000
Si Si5 0.125000 0.125000 0.031508
Si Si6 0.059703 0.542063 0.324119
Si Si7 0.721209 0.125000 0.625000
Si Si8 0.606043 0.737564 0.932248
O O1 0.360461 0.447086 0.319088
O O2 0.426572 0.403079 0.231961
O O3 0.289072 0.651553 0.470360
O O4 0.303877 0.545987 0.548514
O O5 0.265998 0.675988 0.584605
O O6 0.376393 0.672512 0.553140
O O7 0.681536 0.444743 0.610757
O O8 0.758510 0.333780 0.637818
O O9 0.789901 0.451964 0.568659
O O10 0.176424 0.093540 0.074787
O O11 0.141104 0.193442 0.985578
O O12 0.115187 0.535673 0.369720
#
# Coordination Sequence:
#
# PCOD9516626 Si02
#       8
#    16  32  32  16  16  32  16  32
#     4  11  23  52  72  96 153 183 248 316 370 441
#     4  12  26  43  70 113 153 194 258 312 375 457
#     4  12  26  48  75 110 149 199 255 313 382 448
#     4  11  28  50  72 114 145 188 254 331 370 440
#     4  11  23  40  70 104 149 207 242 312 390 431
#     4  12  23  47  74 103 146 201 248 307 377 456
#     4  11  22  40  62 108 150 189 252 310 366 449
#     4  12  23  45  73 104 147 202 251 305 377 455
#
# _framework density 22.226929999999999
#
# number of rings (size 3 to 8) (size 9 to 14) (size 15 to 20)
#    0.000    0.333    8.333    0.000    2.333    3.333 
#    6.000    0.000    0.000    0.000    0.000    0.000 
#    0.000    0.000    0.000    0.000    0.000    0.000 
#
# Total GULP energy -267944.005823 kJ/mol
# GULP energy per Si atom -5582.166788 kJ/mol
# Density = 2.217634 g / cm^3
# Si number density = 22.226930 Si / 1000 Ang^3
#
#
#
# Elastic Constant Matrix: (Units=GPa)
#
#
# Indices 1 2 3 4 5 6 
#
# 1 100.5853 51.9774 27.8022 0.0000 0.0000 0.0000
# 2 51.9774 131.6806 47.3979 0.0000 0.0000 0.0000
# 3 27.8022 47.3979 155.8931 0.0000 0.0000 0.0000
# 4 0.0000 0.0000 0.0000 28.4545 0.0000 0.0000
# 5 0.0000 0.0000 0.0000 0.0000 37.0666 0.0000
# 6 0.0000 0.0000 0.0000 0.0000 0.0000 28.8917
#
#
#
# Elastic Compliance Matrix: (Units=1/GPa)
#
#
# Indices 1 2 3 4 5 6 
#
# 1 0.012583 -0.004670 -0.000824 0.000000 0.000000 0.000000
# 2 -0.004670 0.010261 -0.002287 0.000000 0.000000 0.000000
# 3 -0.000824 -0.002287 0.007257 0.000000 0.000000 0.000000
# 4 0.000000 0.000000 0.000000 0.035144 0.000000 0.000000
# 5 0.000000 0.000000 0.000000 0.000000 0.026978 0.000000
# 6 0.000000 0.000000 0.000000 0.000000 0.000000 0.034612
#
#
# Mechanical properties :
#
#
# Convention : Reuss Voigt Hill
#
# Bulk Modulus (GPa) = 68.78353 71.39045 70.08699
# Shear Modulus (GPa) = 33.95750 36.28134 35.11942
#
# Velocity S-wave (km/s) = 3.91290 4.04457 3.97928
# Velocity P-wave (km/s) = 7.17131 7.34847 7.26043
#
# Compressibility (1/GPa) = 0.01453836
#
# Stress axis : x y z
#
# Youngs Moduli (GPa) = 79.47299 97.45960 137.79970
#
# Poissons Ratio (x) = 0.45515 0.11357
# Poissons Ratio (y) = 0.37115 0.31512
# Poissons Ratio (z) = 0.06550 0.22287
#
# Static dielectric constant tensor:
#      x y z
#    x 1.833590 0.000000 0.000000 
#    y 0.000000 1.907620 0.000000 
#    z 0.000000 0.000000 1.809710 
# 
# From -- ./inp_files/45991.got.cif
#   From: 2010.05.17/outbox.cif.g08.bks.cpg/sg70_23_cif.got.tgz:45991.got - 2010.06.03 15:57:51.
