data_PCOD9516352
_publ_section_title
;
Structure prediction by ZEFSAII (Michael W. Deem and Ramdas Pophale) SiO2 
 PCOD9516352
Probable space group: F D D D
;
_chemical_formula_sum "Si O2"
_cell_formula_units_Z 136
_cell_length_a 19.641948
_cell_length_b 12.691589
_cell_length_c 19.330881
_cell_angle_alpha 90.000000
_cell_angle_beta 90.000000
_cell_angle_gamma 90.000000
_cell_volume 4818.947600
_symmetry_space_group_name_H-M "F D D D"
_symmetry_group_IT_number 70
_space_group.IT_coordinate_system_code '2'
_symmetry_cell_setting 'orthorhombic'
loop_
_space_group_symop_operation_xyz
x,y,z
1/4-x,1/4-y,z
x,1/4-y,1/4-z
1/4-x,y,1/4-z
-x,-y,-z
3/4+x,3/4+y,-z
-x,3/4+y,3/4+z
3/4+x,-y,3/4+z
x,1/2+y,1/2+z
1/4-x,3/4-y,1/2+z
x,3/4-y,3/4-z
1/4-x,1/2+y,3/4-z
-x,1/2-y,1/2-z
3/4+x,1/4+y,1/2-z
-x,1/4+y,1/4+z
3/4+x,1/2-y,1/4+z
1/2+x,y,1/2+z
3/4-x,1/4-y,1/2+z
1/2+x,1/4-y,3/4-z
3/4-x,y,3/4-z
1/2-x,-y,1/2-z
1/4+x,3/4+y,1/2-z
1/2-x,3/4+y,1/4+z
1/4+x,-y,1/4+z
1/2+x,1/2+y,z
3/4-x,3/4-y,z
1/2+x,3/4-y,1/4-z
3/4-x,1/2+y,1/4-z
1/2-x,1/2-y,-z
1/4+x,1/4+y,-z
1/2-x,1/4+y,3/4+z
1/4+x,1/2-y,3/4+z
loop_
_atom_site_type_symbol
_atom_site_label
_atom_site_fract_x
_atom_site_fract_y
_atom_site_fract_z
Si Si1 0.488303 0.739198 0.953677
Si Si2 0.875000 0.875000 0.375000
Si Si3 0.363353 0.259612 0.595996
Si Si4 0.084178 0.434264 0.475987
Si Si5 0.071658 0.018893 0.171706
O O1 0.424915 0.801811 0.921587
O O2 0.545430 0.744221 0.893397
O O3 0.511423 0.778499 0.031284
O O4 0.474489 0.617459 0.977958
O O5 0.375000 0.375000 0.568973
O O6 0.424395 0.230927 0.649833
O O7 0.367468 0.168022 0.539546
O O8 0.124254 0.523748 0.515299
O O9 0.057556 0.125000 0.125000
O O10 0.125000 0.950355 0.125000
#
# Coordination Sequence:
#
# PCOD9516352 Si02
#       5
#    32   8  32  32  32
#     4  11  26  49  80 113 165 224 281 347 417 519
#     4  12  28  56  76 120 170 240 288 344 440 504
#     4  10  24  49  77 110 165 217 283 350 416 501
#     4  10  24  46  73 116 153 214 279 333 428 492
#     4  10  24  47  78 114 163 212 276 354 425 504
#
# _framework density 28.221928999999999
#
# number of rings (size 3 to 8) (size 9 to 14) (size 15 to 20)
#    0.000    1.647    0.000    2.824   19.765    2.824 
#    4.235    5.882    0.000    0.000    0.000    0.000 
#    0.000    0.000    0.000    0.000    0.000    0.000 
#
# Total GULP energy -189272.260001 kJ/mol
# GULP energy per Si atom -5566.831176 kJ/mol
# Density = 2.815769 g / cm^3
# Si number density = 28.221929 Si / 1000 Ang^3
#
#
#
# Elastic Constant Matrix: (Units=GPa)
#
#
# Indices 1 2 3 4 5 6 
#
# 1 156.4295 51.9477 81.9352 0.0000 0.0000 0.0000
# 2 51.9477 179.6185 64.7606 0.0000 0.0000 0.0000
# 3 81.9352 64.7606 168.3587 0.0000 0.0000 0.0000
# 4 0.0000 0.0000 0.0000 63.5187 0.0000 0.0000
# 5 0.0000 0.0000 0.0000 0.0000 57.1088 0.0000
# 6 0.0000 0.0000 0.0000 0.0000 0.0000 38.3162
#
#
#
# Elastic Compliance Matrix: (Units=1/GPa)
#
#
# Indices 1 2 3 4 5 6 
#
# 1 0.008783 -0.001160 -0.003828 0.000000 0.000000 0.000000
# 2 -0.001160 0.006617 -0.001981 0.000000 0.000000 0.000000
# 3 -0.003828 -0.001981 0.008565 0.000000 0.000000 0.000000
# 4 0.000000 0.000000 0.000000 0.015743 0.000000 0.000000
# 5 0.000000 0.000000 0.000000 0.000000 0.017510 0.000000
# 6 0.000000 0.000000 0.000000 0.000000 0.000000 0.026099
#
#
# Mechanical properties :
#
#
# Convention : Reuss Voigt Hill
#
# Bulk Modulus (GPa) = 99.73248 100.18819 99.96033
# Shear Modulus (GPa) = 49.70308 52.17295 50.93801
#
# Velocity S-wave (km/s) = 4.20116 4.30428 4.25303
# Velocity P-wave (km/s) = 7.67778 7.76399 7.72101
#
# Compressibility (1/GPa) = 0.01002682
#
# Stress axis : x y z
#
# Youngs Moduli (GPa) = 113.85594 151.12650 116.75776
#
# Poissons Ratio (x) = 0.17529 0.44698
# Poissons Ratio (y) = 0.13206 0.23127
# Poissons Ratio (z) = 0.43587 0.29935
#
# Static dielectric constant tensor:
#      x y z
#    x 2.501640 0.000000 0.000000 
#    y 0.000000 2.220790 0.000000 
#    z 0.000000 0.000000 2.294930 
# 
# From -- ./inp_files/53532.got.cif
#   From: 2010.05.17/outbox.cif.g08.bks.cpg/sg70_27_cif.got.tgz:53532.got - 2010.06.03 15:57:51.
