data_PCOD9516985
_publ_section_title
;
Structure prediction by ZEFSAII (Michael W. Deem and Ramdas Pophale) SiO2 
 PCOD9516985
Probable space group: F D D D
;
_chemical_formula_sum "Si O2"
_cell_formula_units_Z 80
_cell_length_a 5.146711
_cell_length_b 28.435261
_cell_length_c 24.292949
_cell_angle_alpha 90.000000
_cell_angle_beta 90.000000
_cell_angle_gamma 90.000000
_cell_volume 3555.226215
_symmetry_space_group_name_H-M "F D D D"
_symmetry_group_IT_number 70
_space_group.IT_coordinate_system_code '2'
_symmetry_cell_setting 'orthorhombic'
loop_
_space_group_symop_operation_xyz
x,y,z
1/4-x,1/4-y,z
x,1/4-y,1/4-z
1/4-x,y,1/4-z
-x,-y,-z
3/4+x,3/4+y,-z
-x,3/4+y,3/4+z
3/4+x,-y,3/4+z
x,1/2+y,1/2+z
1/4-x,3/4-y,1/2+z
x,3/4-y,3/4-z
1/4-x,1/2+y,3/4-z
-x,1/2-y,1/2-z
3/4+x,1/4+y,1/2-z
-x,1/4+y,1/4+z
3/4+x,1/2-y,1/4+z
1/2+x,y,1/2+z
3/4-x,1/4-y,1/2+z
1/2+x,1/4-y,3/4-z
3/4-x,y,3/4-z
1/2-x,-y,1/2-z
1/4+x,3/4+y,1/2-z
1/2-x,3/4+y,1/4+z
1/4+x,-y,1/4+z
1/2+x,1/2+y,z
3/4-x,3/4-y,z
1/2+x,3/4-y,1/4-z
3/4-x,1/2+y,1/4-z
1/2-x,1/2-y,-z
1/4+x,1/4+y,-z
1/2-x,1/4+y,3/4+z
1/4+x,1/2-y,3/4+z
loop_
_atom_site_type_symbol
_atom_site_label
_atom_site_fract_x
_atom_site_fract_y
_atom_site_fract_z
Si Si1 0.771231 0.075198 0.759469
Si Si2 0.875000 0.375000 0.662994
Si Si3 0.126320 0.493078 0.413421
O O1 0.625000 0.125000 0.754848
O O2 0.841262 0.052956 0.701178
O O3 0.026136 0.084419 0.796542
O O4 0.610763 0.036599 0.793952
O O5 0.625000 0.385840 0.625000
O O6 0.375000 0.490439 0.375000
O O7 0.875000 0.498867 0.375000
#
# Coordination Sequence:
#
# PCOD9516985 Si02
#       3
#    32  16  32
#     4  11  28  48  77 112 146 196 258 300 368 450
#     4  12  26  42  77 110 137 186 250 310 358 428
#     4  11  29  49  74 110 156 194 241 313 376 437
#
# _framework density 22.502085000000001
#
# number of rings (size 3 to 8) (size 9 to 14) (size 15 to 20)
#    0.000    0.800    2.000    1.200   16.800    4.000 
#    0.000    0.000    0.000    0.000    0.000    0.000 
#    0.000    0.000    0.000    0.000    0.000    0.000 
#
# Total GULP energy -112055.030368 kJ/mol
# GULP energy per Si atom -5602.751518 kJ/mol
# Density = 2.245087 g / cm^3
# Si number density = 22.502085 Si / 1000 Ang^3
#
#
#
# Elastic Constant Matrix: (Units=GPa)
#
#
# Indices 1 2 3 4 5 6 
#
# 1 168.8578 58.1187 73.9576 0.0000 0.0000 0.0000
# 2 58.1187 149.3843 75.3793 0.0000 0.0000 0.0000
# 3 73.9576 75.3793 141.3098 0.0000 0.0000 0.0000
# 4 0.0000 0.0000 0.0000 65.8681 0.0000 0.0000
# 5 0.0000 0.0000 0.0000 0.0000 -54.4863 0.0000
# 6 0.0000 0.0000 0.0000 0.0000 0.0000 7.5823
#
#
#
# Elastic Compliance Matrix: (Units=1/GPa)
#
#
# Indices 1 2 3 4 5 6 
#
# 1 0.007877 -0.001347 -0.003404 0.000000 0.000000 0.000000
# 2 -0.001347 0.009390 -0.004304 0.000000 0.000000 0.000000
# 3 -0.003404 -0.004304 0.011154 0.000000 0.000000 0.000000
# 4 0.000000 0.000000 0.000000 0.015182 0.000000 0.000000
# 5 0.000000 0.000000 0.000000 0.000000 -0.018353 0.000000
# 6 0.000000 0.000000 0.000000 0.000000 0.000000 0.131886
#
#
# Mechanical properties :
#
#
# Convention : Reuss Voigt Hill
#
# Bulk Modulus (GPa) = 96.98323 97.16255 97.07289
# Shear Modulus (GPa) = 27.98269 20.59924 24.29096
#
# Velocity S-wave (km/s) = 3.53024 3.02890 3.28914
# Velocity P-wave (km/s) = 7.73369 7.45020 7.59327
#
# Compressibility (1/GPa) = 0.01031106
#
# Stress axis : x y z
#
# Youngs Moduli (GPa) = 126.95867 106.49708 89.65315
#
# Poissons Ratio (x) = 0.14343 0.30518
# Poissons Ratio (y) = 0.17099 0.38587
# Poissons Ratio (z) = 0.43216 0.45837
#
# Static dielectric constant tensor:
#      x y z
#    x 1.867620 0.000000 0.000000 
#    y 0.000000 1.855910 0.000000 
#    z 0.000000 0.000000 1.801770 
# 
# From -- ./inp_files/55743.got.cif
#   From: 2010.05.17/outbox.cif.g08.bks.cpg/sg70_28_cif.got.tgz:55743.got - 2010.06.03 15:57:51.
