data_PCOD9516809
_publ_section_title
;
Structure prediction by ZEFSAII (Michael W. Deem and Ramdas Pophale) SiO2 
 PCOD9516809
Probable space group: F D D D
;
_chemical_formula_sum "Si O2"
_cell_formula_units_Z 208
_cell_length_a 20.446308
_cell_length_b 26.963088
_cell_length_c 19.849915
_cell_angle_alpha 90.000000
_cell_angle_beta 90.000000
_cell_angle_gamma 90.000000
_cell_volume 10943.170837
_symmetry_space_group_name_H-M "F D D D"
_symmetry_group_IT_number 70
_space_group.IT_coordinate_system_code '2'
_symmetry_cell_setting 'orthorhombic'
loop_
_space_group_symop_operation_xyz
x,y,z
1/4-x,1/4-y,z
x,1/4-y,1/4-z
1/4-x,y,1/4-z
-x,-y,-z
3/4+x,3/4+y,-z
-x,3/4+y,3/4+z
3/4+x,-y,3/4+z
x,1/2+y,1/2+z
1/4-x,3/4-y,1/2+z
x,3/4-y,3/4-z
1/4-x,1/2+y,3/4-z
-x,1/2-y,1/2-z
3/4+x,1/4+y,1/2-z
-x,1/4+y,1/4+z
3/4+x,1/2-y,1/4+z
1/2+x,y,1/2+z
3/4-x,1/4-y,1/2+z
1/2+x,1/4-y,3/4-z
3/4-x,y,3/4-z
1/2-x,-y,1/2-z
1/4+x,3/4+y,1/2-z
1/2-x,3/4+y,1/4+z
1/4+x,-y,1/4+z
1/2+x,1/2+y,z
3/4-x,3/4-y,z
1/2+x,3/4-y,1/4-z
3/4-x,1/2+y,1/4-z
1/2-x,1/2-y,-z
1/4+x,1/4+y,-z
1/2-x,1/4+y,3/4+z
1/4+x,1/2-y,3/4+z
loop_
_atom_site_type_symbol
_atom_site_label
_atom_site_fract_x
_atom_site_fract_y
_atom_site_fract_z
Si Si1 0.303037 0.361125 0.708491
Si Si2 0.325077 0.612569 0.547343
Si Si3 0.625000 0.489068 0.625000
Si Si4 0.124501 0.749392 0.276468
Si Si5 0.557574 0.653898 0.437707
Si Si6 0.960525 0.593720 0.194142
Si Si7 0.229992 0.515526 0.387994
O O1 0.375000 0.375000 0.734988
O O2 0.241364 0.368804 0.756272
O O3 0.290033 0.389707 0.638213
O O4 0.306692 0.303958 0.685510
O O5 0.310998 0.625000 0.625000
O O6 0.352895 0.556471 0.535449
O O7 0.386006 0.648823 0.531310
O O8 0.631403 0.515026 0.697714
O O9 0.696128 0.463872 0.619940
O O10 0.177537 0.712203 0.307386
O O11 0.057919 0.740239 0.317641
O O12 0.625000 0.625000 0.452043
O O13 0.506474 0.639304 0.495049
O O14 0.967686 0.625000 0.125000
O O15 0.979048 0.538003 0.172929
#
# Coordination Sequence:
#
# PCOD9516809 Si02
#       7
#    32  32  16  32  32  32  32
#     4  11  24  44  69  92 126 170 219 276 326 389
#     4  11  24  44  69  92 126 170 219 276 326 389
#     4  12  26  36  69  94 134 184 206 256 321 414
#     4  12  23  43  61  97 133 170 214 266 325 377
#     4  11  24  38  61  93 133 169 212 265 315 391
#     4  11  24  38  61  93 133 169 212 265 315 391
#     4  12  23  43  61  97 133 170 214 266 325 377
#
# _framework density 19.007289
#
# number of rings (size 3 to 8) (size 9 to 14) (size 15 to 20)
#    0.000    0.615    9.231    0.462    4.308    1.231 
#    0.000    3.077    0.000    3.692    0.000    0.000 
#    0.000    0.000    0.000    0.000    0.000    0.000 
#
# Total GULP energy -290116.483967 kJ/mol
# GULP energy per Si atom -5579.163153 kJ/mol
# Density = 1.896403 g / cm^3
# Si number density = 19.007289 Si / 1000 Ang^3
#
#
#
# Elastic Constant Matrix: (Units=GPa)
#
#
# Indices 1 2 3 4 5 6 
#
# 1 166.7895 14.5308 72.0962 0.0000 0.0000 0.0000
# 2 14.5308 66.2726 8.9325 0.0000 0.0000 0.0000
# 3 72.0962 8.9325 117.4959 0.0000 0.0000 0.0000
# 4 0.0000 0.0000 0.0000 4.3984 0.0000 0.0000
# 5 0.0000 0.0000 0.0000 0.0000 39.5759 0.0000
# 6 0.0000 0.0000 0.0000 0.0000 0.0000 -4.8795
#
#
#
# Elastic Compliance Matrix: (Units=1/GPa)
#
#
# Indices 1 2 3 4 5 6 
#
# 1 0.008244 -0.001137 -0.004972 0.000000 0.000000 0.000000
# 2 -0.001137 0.015402 -0.000473 0.000000 0.000000 0.000000
# 3 -0.004972 -0.000473 0.011598 0.000000 0.000000 0.000000
# 4 0.000000 0.000000 0.000000 0.227356 0.000000 0.000000
# 5 0.000000 0.000000 0.000000 0.000000 0.025268 0.000000
# 6 0.000000 0.000000 0.000000 0.000000 0.000000 -0.204938
#
#
# Mechanical properties :
#
#
# Convention : Reuss Voigt Hill
#
# Bulk Modulus (GPa) = 45.29175 60.18633 52.73904
# Shear Modulus (GPa) = 48.33026 24.81884 36.57455
#
# Velocity S-wave (km/s) = 5.04801 3.61744 4.39137
# Velocity P-wave (km/s) = 7.60637 7.01295 7.31568
#
# Compressibility (1/GPa) = 0.02207907
#
# Stress axis : x y z
#
# Youngs Moduli (GPa) = 121.30229 64.92521 86.22354
#
# Poissons Ratio (x) = 0.07385 0.42871
# Poissons Ratio (y) = 0.13797 0.04079
# Poissons Ratio (z) = 0.60312 0.03071
#
# Static dielectric constant tensor:
#      x y z
#    x 1.686100 0.000000 0.000000 
#    y 0.000000 1.690690 0.000000 
#    z 0.000000 0.000000 1.663710 
# 
# From -- ./inp_files/38722.got.cif
#   From: 2010.05.17/outbox.cif.g08.bks.cpg/sg70_20_cif.got.tgz:38722.got - 2010.06.03 15:57:51.
