data_PCOD9516400
_publ_section_title
;
Structure prediction by ZEFSAII (Michael W. Deem and Ramdas Pophale) SiO2 
 PCOD9516400
Probable space group: F D D D
;
_chemical_formula_sum "Si O2"
_cell_formula_units_Z 104
_cell_length_a 24.649130
_cell_length_b 11.434243
_cell_length_c 16.019867
_cell_angle_alpha 90.000000
_cell_angle_beta 90.000000
_cell_angle_gamma 90.000000
_cell_volume 4515.105672
_symmetry_space_group_name_H-M "F D D D"
_symmetry_group_IT_number 70
_space_group.IT_coordinate_system_code '2'
_symmetry_cell_setting 'orthorhombic'
loop_
_space_group_symop_operation_xyz
x,y,z
1/4-x,1/4-y,z
x,1/4-y,1/4-z
1/4-x,y,1/4-z
-x,-y,-z
3/4+x,3/4+y,-z
-x,3/4+y,3/4+z
3/4+x,-y,3/4+z
x,1/2+y,1/2+z
1/4-x,3/4-y,1/2+z
x,3/4-y,3/4-z
1/4-x,1/2+y,3/4-z
-x,1/2-y,1/2-z
3/4+x,1/4+y,1/2-z
-x,1/4+y,1/4+z
3/4+x,1/2-y,1/4+z
1/2+x,y,1/2+z
3/4-x,1/4-y,1/2+z
1/2+x,1/4-y,3/4-z
3/4-x,y,3/4-z
1/2-x,-y,1/2-z
1/4+x,3/4+y,1/2-z
1/2-x,3/4+y,1/4+z
1/4+x,-y,1/4+z
1/2+x,1/2+y,z
3/4-x,3/4-y,z
1/2+x,3/4-y,1/4-z
3/4-x,1/2+y,1/4-z
1/2-x,1/2-y,-z
1/4+x,1/4+y,-z
1/2-x,1/4+y,3/4+z
1/4+x,1/2-y,3/4+z
loop_
_atom_site_type_symbol
_atom_site_label
_atom_site_fract_x
_atom_site_fract_y
_atom_site_fract_z
Si Si1 0.311365 0.707359 0.996213
Si Si2 0.065336 0.106578 0.352506
Si Si3 0.765262 0.974379 0.942463
Si Si4 0.625000 0.125000 0.125000
O O1 0.309007 0.577590 0.959236
O O2 0.340898 0.791517 0.933246
O O3 0.250000 0.750000 0.000000
O O4 0.328148 0.744381 0.089139
O O5 0.125000 0.125000 0.312877
O O6 0.018045 0.084497 0.284313
O O7 0.040055 0.210762 0.410747
O O8 0.778468 0.875000 0.875000
#
# Coordination Sequence:
#
# PCOD9516400 Si02
#       4
#    32  32  32   8
#     4  10  25  42  73 105 145 188 260 293 372 445
#     4  11  25  46  73 110 150 202 251 300 381 454
#     4  11  26  46  72 107 158 190 251 320 373 444
#     4  12  24  48  78 108 146 204 236 322 372 442
#
# _framework density 23.03379
#
# number of rings (size 3 to 8) (size 9 to 14) (size 15 to 20)
#    0.000    1.231    1.538    1.846   17.231    5.538 
#    0.000    0.000    0.000    0.000    0.000    0.000 
#    0.000    0.000    0.000    0.000    0.000    0.000 
#
# Total GULP energy -144875.330974 kJ/mol
# GULP energy per Si atom -5572.128114 kJ/mol
# Density = 2.298136 g / cm^3
# Si number density = 23.033790 Si / 1000 Ang^3
#
#
#
# Elastic Constant Matrix: (Units=GPa)
#
#
# Indices 1 2 3 4 5 6 
#
# 1 85.1961 33.0570 43.5294 0.0000 0.0000 0.0000
# 2 33.0570 147.9287 62.6512 0.0000 0.0000 0.0000
# 3 43.5294 62.6512 138.1558 0.0000 0.0000 0.0000
# 4 0.0000 0.0000 0.0000 50.2921 0.0000 0.0000
# 5 0.0000 0.0000 0.0000 0.0000 34.0791 0.0000
# 6 0.0000 0.0000 0.0000 0.0000 0.0000 -39.7137
#
#
#
# Elastic Compliance Matrix: (Units=1/GPa)
#
#
# Indices 1 2 3 4 5 6 
#
# 1 0.014286 -0.001592 -0.003779 0.000000 0.000000 0.000000
# 2 -0.001592 0.008544 -0.003373 0.000000 0.000000 0.000000
# 3 -0.003779 -0.003373 0.009959 0.000000 0.000000 0.000000
# 4 0.000000 0.000000 0.000000 0.019884 0.000000 0.000000
# 5 0.000000 0.000000 0.000000 0.000000 0.029344 0.000000
# 6 0.000000 0.000000 0.000000 0.000000 0.000000 -0.025180
#
#
# Mechanical properties :
#
#
# Convention : Reuss Voigt Hill
#
# Bulk Modulus (GPa) = 65.35721 72.19510 68.77615
# Shear Modulus (GPa) = 62.95215 24.40101 43.67658
#
# Velocity S-wave (km/s) = 5.23352 3.25831 4.35926
# Velocity P-wave (km/s) = 8.05951 6.75030 7.43378
#
# Compressibility (1/GPa) = 0.01530053
#
# Stress axis : x y z
#
# Youngs Moduli (GPa) = 69.99722 117.03638 100.41509
#
# Poissons Ratio (x) = 0.18630 0.37951
# Poissons Ratio (y) = 0.11142 0.33872
# Poissons Ratio (z) = 0.26455 0.39478
#
# Static dielectric constant tensor:
#      x y z
#    x 1.849800 0.000000 0.000000 
#    y 0.000000 2.001610 0.000000 
#    z 0.000000 0.000000 1.935770 
# 
# From -- ./inp_files/16175.got.cif
#   From: 2010.05.17/outbox.cif.g08.bks.cpg/sg70_9_cif.got.tgz:16175.got - 2010.06.03 15:57:51.
