data_PCOD9516968
_publ_section_title
;
Structure prediction by ZEFSAII (Michael W. Deem and Ramdas Pophale) SiO2 
 PCOD9516968
Probable space group: F D D D
;
_chemical_formula_sum "Si O2"
_cell_formula_units_Z 104
_cell_length_a 14.842324
_cell_length_b 25.244739
_cell_length_c 11.441506
_cell_angle_alpha 90.000000
_cell_angle_beta 90.000000
_cell_angle_gamma 90.000000
_cell_volume 4287.024697
_symmetry_space_group_name_H-M "F D D D"
_symmetry_group_IT_number 70
_space_group.IT_coordinate_system_code '2'
_symmetry_cell_setting 'orthorhombic'
loop_
_space_group_symop_operation_xyz
x,y,z
1/4-x,1/4-y,z
x,1/4-y,1/4-z
1/4-x,y,1/4-z
-x,-y,-z
3/4+x,3/4+y,-z
-x,3/4+y,3/4+z
3/4+x,-y,3/4+z
x,1/2+y,1/2+z
1/4-x,3/4-y,1/2+z
x,3/4-y,3/4-z
1/4-x,1/2+y,3/4-z
-x,1/2-y,1/2-z
3/4+x,1/4+y,1/2-z
-x,1/4+y,1/4+z
3/4+x,1/2-y,1/4+z
1/2+x,y,1/2+z
3/4-x,1/4-y,1/2+z
1/2+x,1/4-y,3/4-z
3/4-x,y,3/4-z
1/2-x,-y,1/2-z
1/4+x,3/4+y,1/2-z
1/2-x,3/4+y,1/4+z
1/4+x,-y,1/4+z
1/2+x,1/2+y,z
3/4-x,3/4-y,z
1/2+x,3/4-y,1/4-z
3/4-x,1/2+y,1/4-z
1/2-x,1/2-y,-z
1/4+x,1/4+y,-z
1/2-x,1/4+y,3/4+z
1/4+x,1/2-y,3/4+z
loop_
_atom_site_type_symbol
_atom_site_label
_atom_site_fract_x
_atom_site_fract_y
_atom_site_fract_z
Si Si1 0.307702 0.214836 0.233420
Si Si2 0.733035 0.912653 0.200448
Si Si3 0.594315 0.453019 0.250115
Si Si4 0.375000 0.375000 0.375000
O O1 0.412916 0.209069 0.269185
O O2 0.256793 0.169176 0.310797
O O3 0.248947 0.265358 0.268144
O O4 0.325974 0.209249 0.094738
O O5 0.682523 0.858283 0.234985
O O6 0.817954 0.910539 0.284295
O O7 0.625000 0.473798 0.125000
#
# Coordination Sequence:
#
# PCOD9516968 Si02
#       4
#    32  32  32   8
#     4  11  26  48  77 113 155 215 265 337 401 484
#     4  11  26  47  79 112 164 203 272 344 400 483
#     4  12  25  49  79 116 163 217 272 334 415 492
#     4  12  24  48  84 114 150 220 264 338 420 480
#
# _framework density 24.259250000000002
#
# number of rings (size 3 to 8) (size 9 to 14) (size 15 to 20)
#    0.000    0.615    6.154    0.923    4.308    7.385 
#    0.000    0.000    0.000    0.000    0.000    0.000 
#    0.000    0.000    0.000    0.000    0.000    0.000 
#
# Total GULP energy -144949.317570 kJ/mol
# GULP energy per Si atom -5574.973753 kJ/mol
# Density = 2.420404 g / cm^3
# Si number density = 24.259250 Si / 1000 Ang^3
#
#
#
# Elastic Constant Matrix: (Units=GPa)
#
#
# Indices 1 2 3 4 5 6 
#
# 1 134.8107 55.9196 76.5832 0.0000 0.0000 0.0000
# 2 55.9196 102.4539 50.7069 0.0000 0.0000 0.0000
# 3 76.5832 50.7069 223.4817 0.0000 0.0000 0.0000
# 4 0.0000 0.0000 0.0000 31.9681 0.0000 0.0000
# 5 0.0000 0.0000 0.0000 0.0000 57.3963 0.0000
# 6 0.0000 0.0000 0.0000 0.0000 0.0000 29.0074
#
#
#
# Elastic Compliance Matrix: (Units=1/GPa)
#
#
# Indices 1 2 3 4 5 6 
#
# 1 0.010842 -0.004595 -0.002673 0.000000 0.000000 0.000000
# 2 -0.004595 0.012942 -0.001362 0.000000 0.000000 0.000000
# 3 -0.002673 -0.001362 0.005700 0.000000 0.000000 0.000000
# 4 0.000000 0.000000 0.000000 0.031281 0.000000 0.000000
# 5 0.000000 0.000000 0.000000 0.000000 0.017423 0.000000
# 6 0.000000 0.000000 0.000000 0.000000 0.000000 0.034474
#
#
# Mechanical properties :
#
#
# Convention : Reuss Voigt Hill
#
# Bulk Modulus (GPa) = 81.80079 91.90728 86.85404
# Shear Modulus (GPa) = 37.31444 42.17681 39.74562
#
# Velocity S-wave (km/s) = 3.92618 4.17416 4.05207
# Velocity P-wave (km/s) = 7.37196 7.82299 7.60082
#
# Compressibility (1/GPa) = 0.01222482
#
# Stress axis : x y z
#
# Youngs Moduli (GPa) = 92.23280 77.26522 175.45032
#
# Poissons Ratio (x) = 0.35502 0.46896
# Poissons Ratio (y) = 0.42379 0.23897
# Poissons Ratio (z) = 0.24653 0.10524
#
# Static dielectric constant tensor:
#      x y z
#    x 1.972760 0.000000 0.000000 
#    y 0.000000 1.944170 0.000000 
#    z 0.000000 0.000000 2.226460 
# 
# From -- ./inp_files/16187.got.cif
#   From: 2010.05.17/outbox.cif.g08.bks.cpg/sg70_9_cif.got.tgz:16187.got - 2010.06.03 15:57:51.
