data_PCOD9516817
_publ_section_title
;
Structure prediction by ZEFSAII (Michael W. Deem and Ramdas Pophale) SiO2 
 PCOD9516817
Probable space group: F D D D
;
_chemical_formula_sum "Si O2"
_cell_formula_units_Z 64
_cell_length_a 4.902877
_cell_length_b 23.355585
_cell_length_c 23.845510
_cell_angle_alpha 90.000000
_cell_angle_beta 90.000000
_cell_angle_gamma 90.000000
_cell_volume 2730.538870
_symmetry_space_group_name_H-M "F D D D"
_symmetry_group_IT_number 70
_space_group.IT_coordinate_system_code '2'
_symmetry_cell_setting 'orthorhombic'
loop_
_space_group_symop_operation_xyz
x,y,z
1/4-x,1/4-y,z
x,1/4-y,1/4-z
1/4-x,y,1/4-z
-x,-y,-z
3/4+x,3/4+y,-z
-x,3/4+y,3/4+z
3/4+x,-y,3/4+z
x,1/2+y,1/2+z
1/4-x,3/4-y,1/2+z
x,3/4-y,3/4-z
1/4-x,1/2+y,3/4-z
-x,1/2-y,1/2-z
3/4+x,1/4+y,1/2-z
-x,1/4+y,1/4+z
3/4+x,1/2-y,1/4+z
1/2+x,y,1/2+z
3/4-x,1/4-y,1/2+z
1/2+x,1/4-y,3/4-z
3/4-x,y,3/4-z
1/2-x,-y,1/2-z
1/4+x,3/4+y,1/2-z
1/2-x,3/4+y,1/4+z
1/4+x,-y,1/4+z
1/2+x,1/2+y,z
3/4-x,3/4-y,z
1/2+x,3/4-y,1/4-z
3/4-x,1/2+y,1/4-z
1/2-x,1/2-y,-z
1/4+x,1/4+y,-z
1/2-x,1/4+y,3/4+z
1/4+x,1/2-y,3/4+z
loop_
_atom_site_type_symbol
_atom_site_label
_atom_site_fract_x
_atom_site_fract_y
_atom_site_fract_z
Si Si1 0.134391 0.835295 0.223942
Si Si2 0.361104 0.226274 0.588176
O O1 0.375000 0.875000 0.200639
O O2 0.211774 0.809457 0.284484
O O3 0.040509 0.782451 0.185920
O O4 0.875000 0.875000 0.232314
O O5 0.625000 0.240101 0.625000
O O6 0.125000 0.196347 0.625000
#
# Coordination Sequence:
#
# PCOD9516817 Si02
#       2
#    32  32
#     4  11  24  42  65  95 131 170 215 267 321 382
#     4  11  24  42  65  95 131 170 215 267 321 382
#
# _framework density 23.438596
#
# number of rings (size 3 to 8) (size 9 to 14) (size 15 to 20)
#    0.000    1.000    0.000    6.000    0.000   18.000 
#    0.000    0.000    0.000    0.000    0.000    0.000 
#    0.000    0.000    0.000    0.000    0.000    0.000 
#
# Total GULP energy -89648.665134 kJ/mol
# GULP energy per Si atom -5603.041571 kJ/mol
# Density = 2.338525 g / cm^3
# Si number density = 23.438596 Si / 1000 Ang^3
#
#
#
# Elastic Constant Matrix: (Units=GPa)
#
#
# Indices 1 2 3 4 5 6 
#
# 1 138.3982 20.3128 18.3703 0.0000 0.0000 0.0000
# 2 20.3128 78.2368 0.2716 0.0000 0.0000 0.0000
# 3 18.3703 0.2716 78.8465 0.0000 0.0000 0.0000
# 4 0.0000 0.0000 0.0000 -4.6863 0.0000 0.0000
# 5 0.0000 0.0000 0.0000 0.0000 80.6465 0.0000
# 6 0.0000 0.0000 0.0000 0.0000 0.0000 21.4279
#
#
#
# Elastic Compliance Matrix: (Units=1/GPa)
#
#
# Indices 1 2 3 4 5 6 
#
# 1 0.007759 -0.002008 -0.001801 0.000000 0.000000 0.000000
# 2 -0.002008 0.013302 0.000422 0.000000 0.000000 0.000000
# 3 -0.001801 0.000422 0.013101 0.000000 0.000000 0.000000
# 4 0.000000 0.000000 0.000000 -0.213388 0.000000 0.000000
# 5 0.000000 0.000000 0.000000 0.000000 0.012400 0.000000
# 6 0.000000 0.000000 0.000000 0.000000 0.000000 0.046668
#
#
# Mechanical properties :
#
#
# Convention : Reuss Voigt Hill
#
# Bulk Modulus (GPa) = 36.51272 41.48789 39.00031
# Shear Modulus (GPa) = -47.95947 36.57940 -5.69004
#
# Velocity S-wave (km/s) = -4.52837 3.95479 -1.55978
# Velocity P-wave (km/s) = 3.42487 6.21232 3.66491
#
# Compressibility (1/GPa) = 0.02738771
#
# Stress axis : x y z
#
# Youngs Moduli (GPa) = 128.87702 75.17856 76.33002
#
# Poissons Ratio (x) = 0.15098 0.13746
# Poissons Ratio (y) = 0.25883 -0.03222
# Poissons Ratio (z) = 0.23210 -0.03173
#
# Static dielectric constant tensor:
#      x y z
#    x 1.831880 0.000000 0.000000 
#    y 0.000000 1.917340 0.000000 
#    z 0.000000 0.000000 1.934750 
# 
# From -- ./inp_files/48156.got.cif
#   From: 2010.05.17/outbox.cif.g08.bks.cpg/sg70_25_cif.got.tgz:48156.got - 2010.06.03 15:57:51.
