data_PCOD9516500
_publ_section_title
;
Structure prediction by ZEFSAII (Michael W. Deem and Ramdas Pophale) SiO2 
 PCOD9516500
Probable space group: F D D D
;
_chemical_formula_sum "Si O2"
_cell_formula_units_Z 192
_cell_length_a 28.844517
_cell_length_b 34.109151
_cell_length_c 10.243358
_cell_angle_alpha 90.000000
_cell_angle_beta 90.000000
_cell_angle_gamma 90.000000
_cell_volume 10078.050544
_symmetry_space_group_name_H-M "F D D D"
_symmetry_group_IT_number 70
_space_group.IT_coordinate_system_code '2'
_symmetry_cell_setting 'orthorhombic'
loop_
_space_group_symop_operation_xyz
x,y,z
1/4-x,1/4-y,z
x,1/4-y,1/4-z
1/4-x,y,1/4-z
-x,-y,-z
3/4+x,3/4+y,-z
-x,3/4+y,3/4+z
3/4+x,-y,3/4+z
x,1/2+y,1/2+z
1/4-x,3/4-y,1/2+z
x,3/4-y,3/4-z
1/4-x,1/2+y,3/4-z
-x,1/2-y,1/2-z
3/4+x,1/4+y,1/2-z
-x,1/4+y,1/4+z
3/4+x,1/2-y,1/4+z
1/2+x,y,1/2+z
3/4-x,1/4-y,1/2+z
1/2+x,1/4-y,3/4-z
3/4-x,y,3/4-z
1/2-x,-y,1/2-z
1/4+x,3/4+y,1/2-z
1/2-x,3/4+y,1/4+z
1/4+x,-y,1/4+z
1/2+x,1/2+y,z
3/4-x,3/4-y,z
1/2+x,3/4-y,1/4-z
3/4-x,1/2+y,1/4-z
1/2-x,1/2-y,-z
1/4+x,1/4+y,-z
1/2-x,1/4+y,3/4+z
1/4+x,1/2-y,3/4+z
loop_
_atom_site_type_symbol
_atom_site_label
_atom_site_fract_x
_atom_site_fract_y
_atom_site_fract_z
Si Si1 0.596018 0.546733 0.256841
Si Si2 0.132459 0.344673 0.478715
Si Si3 0.250208 0.239249 0.288726
Si Si4 0.732301 0.937613 0.295959
Si Si5 0.943161 0.375000 0.875000
Si Si6 0.125000 0.125000 0.850087
Si Si7 0.895550 0.745510 0.519501
O O1 0.542786 0.534459 0.227857
O O2 0.602947 0.590689 0.312937
O O3 0.617107 0.519012 0.371227
O O4 0.625000 0.542339 0.125000
O O5 0.125000 0.359216 0.625000
O O6 0.112914 0.375000 0.375000
O O7 0.186965 0.338616 0.457607
O O8 0.112265 0.301078 0.466607
O O9 0.264553 0.212459 0.412983
O O10 0.229913 0.280116 0.341097
O O11 0.298827 0.249992 0.220379
O O12 0.776253 0.910212 0.318781
O O13 0.912960 0.390852 0.753584
O O14 0.875000 0.756276 0.375000
#
# Coordination Sequence:
#
# PCOD9516500 Si02
#       7
#    32  32  32  32  16  16  32
#     4  12  26  43  63  93 137 175 213 262 325 392
#     4  11  22  39  62  95 129 163 203 265 317 379
#     4  11  21  39  67  92 127 168 213 267 323 372
#     4  11  19  37  65  95 119 158 214 272 316 365
#     4  11  22  36  68  98 118 156 230 266 313 380
#     4  11  25  40  60  96 132 166 206 278 320 376
#     4  11  22  42  69  97 123 166 223 269 317 374
#
# _framework density 19.051303999999998
#
# number of rings (size 3 to 8) (size 9 to 14) (size 15 to 20)
#    0.000    0.833    7.500    2.250    2.333    1.333 
#    0.000    3.333    0.000    0.000    0.000    0.000 
#    0.000    0.000    0.000    0.000    0.000    0.000 
#
# Total GULP energy -267952.779105 kJ/mol
# GULP energy per Si atom -5582.349565 kJ/mol
# Density = 1.900794 g / cm^3
# Si number density = 19.051304 Si / 1000 Ang^3
#
#
#
# Elastic Constant Matrix: (Units=GPa)
#
#
# Indices 1 2 3 4 5 6 
#
# 1 114.7599 4.7920 14.7751 -0.0045 -0.0001 0.0056
# 2 4.7920 51.6726 27.1773 -0.0017 0.0033 0.0093
# 3 14.7751 27.1773 75.3013 -0.0047 0.0022 0.0206
# 4 -0.0045 -0.0017 -0.0047 46.0175 0.0038 0.0220
# 5 -0.0001 0.0033 0.0022 0.0038 18.5361 -0.0098
# 6 0.0056 0.0093 0.0206 0.0220 -0.0098 35.9613
#
#
#
# Elastic Compliance Matrix: (Units=1/GPa)
#
#
# Indices 1 2 3 4 5 6 
#
# 1 0.008940 0.000115 -0.001796 0.000001 0.000000 0.000000
# 2 0.000115 0.023888 -0.008644 0.000000 -0.000003 -0.000001
# 3 -0.001796 -0.008644 0.016752 0.000001 0.000000 -0.000007
# 4 0.000001 0.000000 0.000001 0.021731 -0.000004 -0.000013
# 5 0.000000 -0.000003 0.000000 -0.000004 0.053949 0.000015
# 6 0.000000 -0.000001 -0.000007 -0.000013 0.000015 0.027808
#
#
# Mechanical properties :
#
#
# Convention : Reuss Voigt Hill
#
# Bulk Modulus (GPa) = 34.56455 37.24697 35.90576
# Shear Modulus (GPa) = 27.26856 33.10228 30.18542
#
# Velocity S-wave (km/s) = 3.78739 4.17290 3.98481
# Velocity P-wave (km/s) = 6.10803 6.54299 6.32925
#
# Compressibility (1/GPa) = 0.02893138
#
# Stress axis : x y z
#
# Youngs Moduli (GPa) = 111.85387 41.86133 59.69364
#
# Poissons Ratio (x) = -0.00483 0.10720
# Poissons Ratio (y) = -0.01291 0.51601
# Poissons Ratio (z) = 0.20087 0.36186
#
# Static dielectric constant tensor:
#      x y z
#    x 1.704880 0.000000 0.000000 
#    y 0.000000 1.659510 0.000000 
#    z 0.000000 0.000000 1.648150 
# 
# From -- ./inp_files/22643.got.cif
#   From: 2010.05.17/outbox.cif.g08.bks.cpg/sg70_12_cif.got.tgz:22643.got - 2010.06.03 15:57:51.
