data_PCOD9516490
_publ_section_title
;
Structure prediction by ZEFSAII (Michael W. Deem and Ramdas Pophale) SiO2 
 PCOD9516490
Probable space group: F D D D
;
_chemical_formula_sum "Si O2"
_cell_formula_units_Z 216
_cell_length_a 10.874932
_cell_length_b 27.254213
_cell_length_c 27.741518
_cell_angle_alpha 90.000000
_cell_angle_beta 90.000000
_cell_angle_gamma 90.000000
_cell_volume 8222.245078
_symmetry_space_group_name_H-M "F D D D"
_symmetry_group_IT_number 70
_space_group.IT_coordinate_system_code '2'
_symmetry_cell_setting 'orthorhombic'
loop_
_space_group_symop_operation_xyz
x,y,z
1/4-x,1/4-y,z
x,1/4-y,1/4-z
1/4-x,y,1/4-z
-x,-y,-z
3/4+x,3/4+y,-z
-x,3/4+y,3/4+z
3/4+x,-y,3/4+z
x,1/2+y,1/2+z
1/4-x,3/4-y,1/2+z
x,3/4-y,3/4-z
1/4-x,1/2+y,3/4-z
-x,1/2-y,1/2-z
3/4+x,1/4+y,1/2-z
-x,1/4+y,1/4+z
3/4+x,1/2-y,1/4+z
1/2+x,y,1/2+z
3/4-x,1/4-y,1/2+z
1/2+x,1/4-y,3/4-z
3/4-x,y,3/4-z
1/2-x,-y,1/2-z
1/4+x,3/4+y,1/2-z
1/2-x,3/4+y,1/4+z
1/4+x,-y,1/4+z
1/2+x,1/2+y,z
3/4-x,3/4-y,z
1/2+x,3/4-y,1/4-z
3/4-x,1/2+y,1/4-z
1/2-x,1/2-y,-z
1/4+x,1/4+y,-z
1/2-x,1/4+y,3/4+z
1/4+x,1/2-y,3/4+z
loop_
_atom_site_type_symbol
_atom_site_label
_atom_site_fract_x
_atom_site_fract_y
_atom_site_fract_z
Si Si1 0.625000 0.125000 0.625000
Si Si2 0.434183 0.770436 0.152590
Si Si3 0.061961 0.557205 0.548115
Si Si4 0.991218 0.125249 0.922020
Si Si5 0.836223 0.112343 0.010124
Si Si6 0.194590 0.730370 0.211198
Si Si7 0.375000 0.036826 0.875000
Si Si8 0.659273 0.290841 0.303575
O O1 0.538004 0.090632 0.594720
O O2 0.544889 0.747511 0.184381
O O3 0.487638 0.824795 0.143354
O O4 0.321473 0.755380 0.189640
O O5 0.413350 0.738446 0.104023
O O6 0.205200 0.563609 0.540311
O O7 0.958054 0.577256 0.513947
O O8 0.125000 0.125000 0.948638
O O9 0.981360 0.173712 0.888351
O O10 0.869912 0.129674 0.955621
O O11 0.728828 0.075422 0.026096
O O12 0.829085 0.160467 0.044000
O O13 0.103647 0.749642 0.169334
O O14 0.145293 0.752951 0.260283
#
# Coordination Sequence:
#
# PCOD9516490 Si02
#       8
#     8  32  32  32  32  32  16  32
#     4  12  16  26  44  88 132 178 194 268 364 412
#     4  11  23  38  63 104 142 188 239 295 382 452
#     4  11  19  30  53  93 148 173 217 293 365 429
#     4  12  24  44  73 107 143 199 243 310 389 446
#     4  11  22  39  69 102 145 187 247 302 384 452
#     4  11  26  44  65 102 145 194 239 316 373 436
#     4  12  26  47  68  97 158 195 243 316 372 442
#     4  12  21  38  64 101 136 185 246 302 362 447
#
# _framework density 26.270198000000001
#
# number of rings (size 3 to 8) (size 9 to 14) (size 15 to 20)
#    0.000    0.593    5.926    2.667    4.148    4.148 
#    0.000    0.741    0.000    1.778    0.000    0.000 
#    0.000    0.000    0.000    0.000    0.000    0.000 
#
# Total GULP energy -300974.234788 kJ/mol
# GULP energy per Si atom -5573.596941 kJ/mol
# Density = 2.621041 g / cm^3
# Si number density = 26.270198 Si / 1000 Ang^3
#
#
#
# Elastic Constant Matrix: (Units=GPa)
#
#
# Indices 1 2 3 4 5 6 
#
# 1 58.9064 18.1378 5.1408 0.0000 0.0000 0.0000
# 2 18.1378 197.5929 60.9196 0.0000 0.0000 0.0000
# 3 5.1408 60.9196 117.1185 0.0000 0.0000 0.0000
# 4 0.0000 0.0000 0.0000 37.1414 0.0000 0.0000
# 5 0.0000 0.0000 0.0000 0.0000 31.8389 0.0000
# 6 0.0000 0.0000 0.0000 0.0000 0.0000 25.7376
#
#
#
# Elastic Compliance Matrix: (Units=1/GPa)
#
#
# Indices 1 2 3 4 5 6 
#
# 1 0.017470 -0.001628 0.000080 0.000000 0.000000 0.000000
# 2 -0.001628 0.006179 -0.003143 0.000000 0.000000 0.000000
# 3 0.000080 -0.003143 0.010170 0.000000 0.000000 0.000000
# 4 0.000000 0.000000 0.000000 0.026924 0.000000 0.000000
# 5 0.000000 0.000000 0.000000 0.000000 0.031408 0.000000
# 6 0.000000 0.000000 0.000000 0.000000 0.000000 0.038854
#
#
# Mechanical properties :
#
#
# Convention : Reuss Voigt Hill
#
# Bulk Modulus (GPa) = 40.92080 60.22380 50.57230
# Shear Modulus (GPa) = 33.66255 38.23821 35.95038
#
# Velocity S-wave (km/s) = 3.58354 3.81934 3.70332
# Velocity P-wave (km/s) = 5.72128 6.51339 6.13015
#
# Compressibility (1/GPa) = 0.02443745
#
# Stress axis : x y z
#
# Youngs Moduli (GPa) = 57.23938 161.83028 98.33292
#
# Poissons Ratio (x) = 0.26352 -0.00788
# Poissons Ratio (y) = 0.09321 0.30903
# Poissons Ratio (z) = -0.00459 0.50859
#
# Static dielectric constant tensor:
#      x y z
#    x 2.436480 0.000000 0.000000 
#    y 0.000000 2.126970 0.000000 
#    z 0.000000 0.000000 2.199110 
# 
# From -- ./inp_files/66045.got.cif
#   From: 2010.05.17/outbox.cif.g08.bks.cpg/sg70_34_cif.got.tgz:66045.got - 2010.06.03 15:57:51.
