data_PCOD9516269
_publ_section_title
;
Structure prediction by ZEFSAII (Michael W. Deem and Ramdas Pophale) SiO2 
 PCOD9516269
Probable space group: F D D D
;
_chemical_formula_sum "Si O2"
_cell_formula_units_Z 80
_cell_length_a 5.333125
_cell_length_b 29.579529
_cell_length_c 24.733579
_cell_angle_alpha 90.000000
_cell_angle_beta 90.000000
_cell_angle_gamma 90.000000
_cell_volume 3901.754874
_symmetry_space_group_name_H-M "F D D D"
_symmetry_group_IT_number 70
_space_group.IT_coordinate_system_code '2'
_symmetry_cell_setting 'orthorhombic'
loop_
_space_group_symop_operation_xyz
x,y,z
1/4-x,1/4-y,z
x,1/4-y,1/4-z
1/4-x,y,1/4-z
-x,-y,-z
3/4+x,3/4+y,-z
-x,3/4+y,3/4+z
3/4+x,-y,3/4+z
x,1/2+y,1/2+z
1/4-x,3/4-y,1/2+z
x,3/4-y,3/4-z
1/4-x,1/2+y,3/4-z
-x,1/2-y,1/2-z
3/4+x,1/4+y,1/2-z
-x,1/4+y,1/4+z
3/4+x,1/2-y,1/4+z
1/2+x,y,1/2+z
3/4-x,1/4-y,1/2+z
1/2+x,1/4-y,3/4-z
3/4-x,y,3/4-z
1/2-x,-y,1/2-z
1/4+x,3/4+y,1/2-z
1/2-x,3/4+y,1/4+z
1/4+x,-y,1/4+z
1/2+x,1/2+y,z
3/4-x,3/4-y,z
1/2+x,3/4-y,1/4-z
3/4-x,1/2+y,1/4-z
1/2-x,1/2-y,-z
1/4+x,1/4+y,-z
1/2-x,1/4+y,3/4+z
1/4+x,1/2-y,3/4+z
loop_
_atom_site_type_symbol
_atom_site_label
_atom_site_fract_x
_atom_site_fract_y
_atom_site_fract_z
Si Si1 0.372874 0.698618 0.096931
Si Si2 0.875000 0.712446 0.375000
Si Si3 0.878597 0.095055 0.267340
O O1 0.625000 0.681793 0.125000
O O2 0.344194 0.752131 0.109461
O O3 0.125000 0.678414 0.125000
O O4 0.361336 0.688294 0.033812
O O5 0.918770 0.681901 0.427088
O O6 0.625000 0.125000 0.270408
O O7 0.125000 0.125000 0.258150
#
# Coordination Sequence:
#
# PCOD9516269 Si02
#       3
#    32  16  32
#     4  10  24  42  70  91 130 170 220 257 321 387
#     4  10  26  44  69  92 132 174 220 256 321 390
#     4  12  26  42  67  98 133 167 215 272 323 372
#
# _framework density 20.503595000000001
#
# number of rings (size 3 to 8) (size 9 to 14) (size 15 to 20)
#    1.200    0.000    0.000    4.800    5.600    6.400 
#    0.000    0.000    0.000    0.000    0.000    0.000 
#    0.000    0.000    0.000    0.000    0.000    0.000 
#
# Total GULP energy -111660.521636 kJ/mol
# GULP energy per Si atom -5583.026082 kJ/mol
# Density = 2.045693 g / cm^3
# Si number density = 20.503595 Si / 1000 Ang^3
#
#
#
# Elastic Constant Matrix: (Units=GPa)
#
#
# Indices 1 2 3 4 5 6 
#
# 1 133.3403 28.8804 30.6959 0.0000 0.0000 0.0000
# 2 28.8804 56.8755 36.2496 0.0000 0.0000 0.0000
# 3 30.6959 36.2496 198.0908 0.0000 0.0000 0.0000
# 4 0.0000 0.0000 0.0000 105.0636 0.0000 0.0000
# 5 0.0000 0.0000 0.0000 0.0000 -6.4395 0.0000
# 6 0.0000 0.0000 0.0000 0.0000 0.0000 15.6031
#
#
#
# Elastic Compliance Matrix: (Units=1/GPa)
#
#
# Indices 1 2 3 4 5 6 
#
# 1 0.008488 -0.003930 -0.000596 0.000000 0.000000 0.000000
# 2 -0.003930 0.021723 -0.003366 0.000000 0.000000 0.000000
# 3 -0.000596 -0.003366 0.005757 0.000000 0.000000 0.000000
# 4 0.000000 0.000000 0.000000 0.009518 0.000000 0.000000
# 5 0.000000 0.000000 0.000000 0.000000 -0.155292 0.000000
# 6 0.000000 0.000000 0.000000 0.000000 0.000000 0.064090
#
#
# Mechanical properties :
#
#
# Convention : Reuss Voigt Hill
#
# Bulk Modulus (GPa) = 49.54666 64.43985 56.99325
# Shear Modulus (GPa) = -215.48721 42.34415 -86.57153
#
# Velocity S-wave (km/s) = -10.26282 4.54938 -6.50494
# Velocity P-wave (km/s) = 10.78038 7.68717 5.34434
#
# Compressibility (1/GPa) = 0.02018299
#
# Stress axis : x y z
#
# Youngs Moduli (GPa) = 117.81229 46.03324 173.71457
#
# Poissons Ratio (x) = 0.18092 0.10355
# Poissons Ratio (y) = 0.46302 0.58477
# Poissons Ratio (z) = 0.07023 0.15496
#
# Static dielectric constant tensor:
#      x y z
#    x 1.726730 0.000000 0.000000 
#    y 0.000000 1.764100 0.000000 
#    z 0.000000 0.000000 1.695310 
# 
# From -- ./inp_files/2406.got.cif
#   From: 2010.05.17/outbox.cif.g08.bks.cpg/sg70_2_cif.got.tgz:2406.got - 2010.06.03 15:57:51.
