data_PCOD9516614
_publ_section_title
;
Structure prediction by ZEFSAII (Michael W. Deem and Ramdas Pophale) SiO2 
 PCOD9516614
Probable space group: F D D D
;
_chemical_formula_sum "Si O2"
_cell_formula_units_Z 128
_cell_length_a 10.310777
_cell_length_b 22.388463
_cell_length_c 24.126987
_cell_angle_alpha 90.000000
_cell_angle_beta 90.000000
_cell_angle_gamma 90.000000
_cell_volume 5569.532775
_symmetry_space_group_name_H-M "F D D D"
_symmetry_group_IT_number 70
_space_group.IT_coordinate_system_code '2'
_symmetry_cell_setting 'orthorhombic'
loop_
_space_group_symop_operation_xyz
x,y,z
1/4-x,1/4-y,z
x,1/4-y,1/4-z
1/4-x,y,1/4-z
-x,-y,-z
3/4+x,3/4+y,-z
-x,3/4+y,3/4+z
3/4+x,-y,3/4+z
x,1/2+y,1/2+z
1/4-x,3/4-y,1/2+z
x,3/4-y,3/4-z
1/4-x,1/2+y,3/4-z
-x,1/2-y,1/2-z
3/4+x,1/4+y,1/2-z
-x,1/4+y,1/4+z
3/4+x,1/2-y,1/4+z
1/2+x,y,1/2+z
3/4-x,1/4-y,1/2+z
1/2+x,1/4-y,3/4-z
3/4-x,y,3/4-z
1/2-x,-y,1/2-z
1/4+x,3/4+y,1/2-z
1/2-x,3/4+y,1/4+z
1/4+x,-y,1/4+z
1/2+x,1/2+y,z
3/4-x,3/4-y,z
1/2+x,3/4-y,1/4-z
3/4-x,1/2+y,1/4-z
1/2-x,1/2-y,-z
1/4+x,1/4+y,-z
1/2-x,1/4+y,3/4+z
1/4+x,1/2-y,3/4+z
loop_
_atom_site_type_symbol
_atom_site_label
_atom_site_fract_x
_atom_site_fract_y
_atom_site_fract_z
Si Si1 0.009003 0.032616 0.059328
Si Si2 0.393279 0.472931 0.168132
Si Si3 0.423277 0.623773 0.434102
Si Si4 0.206775 0.839031 0.290032
O O1 0.157099 0.059196 0.059404
O O2 0.934108 0.095782 0.065259
O O3 0.952687 0.990227 0.107621
O O4 0.000000 0.000000 0.000000
O O5 0.497066 0.432659 0.203026
O O6 0.269874 0.430293 0.170024
O O7 0.359373 0.536253 0.195361
O O8 0.375000 0.642907 0.375000
O O9 0.310253 0.603226 0.475080
#
# Coordination Sequence:
#
# PCOD9516614 Si02
#       4
#    32  32  32  32
#     4  11  22  38  64  92 122 163 214 268 325 390
#     4  11  23  40  61  89 126 167 210 266 328 394
#     4  11  23  39  61  88 123 165 211 263 322 388
#     4  11  22  38  61  91 123 160 208 266 321 381
#
# _framework density 22.982178000000001
#
# number of rings (size 3 to 8) (size 9 to 14) (size 15 to 20)
#    0.000    1.000    0.000    8.250    0.000    6.000 
#    0.000    0.000    0.000    4.500    0.000    0.000 
#    0.000    0.000    0.000    0.000    0.000    0.000 
#
# Total GULP energy -178402.743821 kJ/mol
# GULP energy per Si atom -5575.085744 kJ/mol
# Density = 2.292987 g / cm^3
# Si number density = 22.982178 Si / 1000 Ang^3
#
#
#
# Elastic Constant Matrix: (Units=GPa)
#
#
# Indices 1 2 3 4 5 6 
#
# 1 37.8758 19.1471 -0.3118 0.0000 0.0000 0.0000
# 2 19.1471 202.9925 19.8039 0.0000 0.0000 0.0000
# 3 -0.3118 19.8039 87.9937 0.0000 0.0000 0.0000
# 4 0.0000 0.0000 0.0000 45.4400 0.0000 0.0000
# 5 0.0000 0.0000 0.0000 0.0000 17.8588 0.0000
# 6 0.0000 0.0000 0.0000 0.0000 0.0000 28.8600
#
#
#
# Elastic Compliance Matrix: (Units=1/GPa)
#
#
# Indices 1 2 3 4 5 6 
#
# 1 0.027767 -0.002688 0.000703 0.000000 0.000000 0.000000
# 2 -0.002688 0.005297 -0.001202 0.000000 0.000000 0.000000
# 3 0.000703 -0.001202 0.011637 0.000000 0.000000 0.000000
# 4 0.000000 0.000000 0.000000 0.022007 0.000000 0.000000
# 5 0.000000 0.000000 0.000000 0.000000 0.055995 0.000000
# 6 0.000000 0.000000 0.000000 0.000000 0.000000 0.034650
#
#
# Mechanical properties :
#
#
# Convention : Reuss Voigt Hill
#
# Bulk Modulus (GPa) = 26.09005 45.12673 35.60839
# Shear Modulus (GPa) = 28.32841 37.77993 33.05417
#
# Velocity S-wave (km/s) = 3.51468 4.05888 3.79654
# Velocity P-wave (km/s) = 5.27708 6.45323 5.89456
#
# Compressibility (1/GPa) = 0.03832879
#
# Stress axis : x y z
#
# Youngs Moduli (GPa) = 36.01458 188.78470 85.92991
#
# Poissons Ratio (x) = 0.50739 -0.06043
# Poissons Ratio (y) = 0.09680 0.10326
# Poissons Ratio (z) = -0.02533 0.22686
#
# Static dielectric constant tensor:
#      x y z
#    x 1.956820 0.000000 0.000000 
#    y 0.000000 1.891150 0.000000 
#    z 0.000000 0.000000 1.921960 
# 
# From -- ./inp_files/49934.got.cif
#   From: 2010.05.17/outbox.cif.g08.bks.cpg/sg70_25_cif.got.tgz:49934.got - 2010.06.03 15:57:51.
