data_PCOD9516270
_publ_section_title
;
Structure prediction by ZEFSAII (Michael W. Deem and Ramdas Pophale) SiO2 
 PCOD9516270
Probable space group: F D D D
;
_chemical_formula_sum "Si O2"
_cell_formula_units_Z 176
_cell_length_a 25.736777
_cell_length_b 23.017214
_cell_length_c 13.214706
_cell_angle_alpha 90.000000
_cell_angle_beta 90.000000
_cell_angle_gamma 90.000000
_cell_volume 7828.245202
_symmetry_space_group_name_H-M "F D D D"
_symmetry_group_IT_number 70
_space_group.IT_coordinate_system_code '2'
_symmetry_cell_setting 'orthorhombic'
loop_
_space_group_symop_operation_xyz
x,y,z
1/4-x,1/4-y,z
x,1/4-y,1/4-z
1/4-x,y,1/4-z
-x,-y,-z
3/4+x,3/4+y,-z
-x,3/4+y,3/4+z
3/4+x,-y,3/4+z
x,1/2+y,1/2+z
1/4-x,3/4-y,1/2+z
x,3/4-y,3/4-z
1/4-x,1/2+y,3/4-z
-x,1/2-y,1/2-z
3/4+x,1/4+y,1/2-z
-x,1/4+y,1/4+z
3/4+x,1/2-y,1/4+z
1/2+x,y,1/2+z
3/4-x,1/4-y,1/2+z
1/2+x,1/4-y,3/4-z
3/4-x,y,3/4-z
1/2-x,-y,1/2-z
1/4+x,3/4+y,1/2-z
1/2-x,3/4+y,1/4+z
1/4+x,-y,1/4+z
1/2+x,1/2+y,z
3/4-x,3/4-y,z
1/2+x,3/4-y,1/4-z
3/4-x,1/2+y,1/4-z
1/2-x,1/2-y,-z
1/4+x,1/4+y,-z
1/2-x,1/4+y,3/4+z
1/4+x,1/2-y,3/4+z
loop_
_atom_site_type_symbol
_atom_site_label
_atom_site_fract_x
_atom_site_fract_y
_atom_site_fract_z
Si Si1 0.125000 0.453490 0.625000
Si Si2 0.816752 0.866190 0.755212
Si Si3 0.671201 0.493775 0.925342
Si Si4 0.218985 0.366969 0.662571
Si Si5 0.403939 0.244673 0.482646
Si Si6 0.264536 0.842676 0.780267
O O1 0.133201 0.488724 0.522462
O O2 0.174138 0.413388 0.642391
O O3 0.820309 0.875000 0.875000
O O4 0.875000 0.875000 0.714094
O O5 0.801539 0.804367 0.704625
O O6 0.764639 0.899464 0.724617
O O7 0.638540 0.490041 0.822268
O O8 0.714603 0.443857 0.931048
O O9 0.189206 0.313150 0.715043
O O10 0.244372 0.360611 0.550995
O O11 0.375000 0.254265 0.375000
O O12 0.443003 0.297170 0.509369
O O13 0.288852 0.875000 0.875000
#
# Coordination Sequence:
#
# PCOD9516270 Si02
#       6
#    16  32  32  32  32  32
#     4  10  24  42  71 108 137 184 252 294 366 428
#     4  11  24  44  71 104 145 188 233 296 365 428
#     4  11  25  45  72 103 143 186 238 302 357 435
#     4  11  24  44  70 105 142 189 241 297 362 434
#     4  12  26  45  72 105 145 191 243 297 370 435
#     4  11  26  45  68 101 146 190 236 301 356 431
#
# _framework density 22.482689000000001
#
# number of rings (size 3 to 8) (size 9 to 14) (size 15 to 20)
#    0.000    0.909    2.727    3.273    7.636    1.818 
#    0.000    4.545    0.000    0.000    0.000    0.000 
#    0.000    0.000    0.000    0.000    0.000    0.000 
#
# Total GULP energy -245464.308260 kJ/mol
# GULP energy per Si atom -5578.734279 kJ/mol
# Density = 2.243152 g / cm^3
# Si number density = 22.482689 Si / 1000 Ang^3
#
#
#
# Elastic Constant Matrix: (Units=GPa)
#
#
# Indices 1 2 3 4 5 6 
#
# 1 126.8398 2.9141 51.5270 0.0000 0.0000 0.0000
# 2 2.9141 53.6751 23.3503 0.0000 0.0000 0.0000
# 3 51.5270 23.3503 125.2393 0.0000 0.0000 0.0000
# 4 0.0000 0.0000 0.0000 24.5277 0.0000 0.0000
# 5 0.0000 0.0000 0.0000 0.0000 40.7850 0.0000
# 6 0.0000 0.0000 0.0000 0.0000 0.0000 -24.0416
#
#
#
# Elastic Compliance Matrix: (Units=1/GPa)
#
#
# Indices 1 2 3 4 5 6 
#
# 1 0.009548 0.001296 -0.004170 0.000000 0.000000 0.000000
# 2 0.001296 0.020451 -0.004346 0.000000 0.000000 0.000000
# 3 -0.004170 -0.004346 0.010511 0.000000 0.000000 0.000000
# 4 0.000000 0.000000 0.000000 0.040770 0.000000 0.000000
# 5 0.000000 0.000000 0.000000 0.000000 0.024519 0.000000
# 6 0.000000 0.000000 0.000000 0.000000 0.000000 -0.041594
#
#
# Mechanical properties :
#
#
# Convention : Reuss Voigt Hill
#
# Bulk Modulus (GPa) = 38.35962 51.25969 44.80965
# Shear Modulus (GPa) = 57.25091 23.45172 40.35132
#
# Velocity S-wave (km/s) = 5.05170 3.23321 4.24107
# Velocity P-wave (km/s) = 7.15019 6.06526 6.62995
#
# Compressibility (1/GPa) = 0.02606908
#
# Stress axis : x y z
#
# Youngs Moduli (GPa) = 104.73190 48.89746 95.14141
#
# Poissons Ratio (x) = -0.06336 0.39674
# Poissons Ratio (y) = -0.13570 0.41349
# Poissons Ratio (z) = 0.43673 0.21251
#
# Static dielectric constant tensor:
#      x y z
#    x 1.898600 0.000000 0.000000 
#    y 0.000000 1.872080 0.000000 
#    z 0.000000 0.000000 1.865050 
# 
# From -- ./inp_files/19607.got.cif
#   From: 2010.05.17/outbox.cif.g08.bks.cpg/sg70_10_cif.got.tgz:19607.got - 2010.06.03 15:57:51.
