data_PCOD9516704
_publ_section_title
;
Structure prediction by ZEFSAII (Michael W. Deem and Ramdas Pophale) SiO2 
 PCOD9516704
Probable space group: F D D D
;
_chemical_formula_sum "Si O2"
_cell_formula_units_Z 176
_cell_length_a 10.206207
_cell_length_b 25.403200
_cell_length_c 27.090999
_cell_angle_alpha 90.000000
_cell_angle_beta 90.000000
_cell_angle_gamma 90.000000
_cell_volume 7023.891917
_symmetry_space_group_name_H-M "F D D D"
_symmetry_group_IT_number 70
_space_group.IT_coordinate_system_code '2'
_symmetry_cell_setting 'orthorhombic'
loop_
_space_group_symop_operation_xyz
x,y,z
1/4-x,1/4-y,z
x,1/4-y,1/4-z
1/4-x,y,1/4-z
-x,-y,-z
3/4+x,3/4+y,-z
-x,3/4+y,3/4+z
3/4+x,-y,3/4+z
x,1/2+y,1/2+z
1/4-x,3/4-y,1/2+z
x,3/4-y,3/4-z
1/4-x,1/2+y,3/4-z
-x,1/2-y,1/2-z
3/4+x,1/4+y,1/2-z
-x,1/4+y,1/4+z
3/4+x,1/2-y,1/4+z
1/2+x,y,1/2+z
3/4-x,1/4-y,1/2+z
1/2+x,1/4-y,3/4-z
3/4-x,y,3/4-z
1/2-x,-y,1/2-z
1/4+x,3/4+y,1/2-z
1/2-x,3/4+y,1/4+z
1/4+x,-y,1/4+z
1/2+x,1/2+y,z
3/4-x,3/4-y,z
1/2+x,3/4-y,1/4-z
3/4-x,1/2+y,1/4-z
1/2-x,1/2-y,-z
1/4+x,1/4+y,-z
1/2-x,1/4+y,3/4+z
1/4+x,1/2-y,3/4+z
loop_
_atom_site_type_symbol
_atom_site_label
_atom_site_fract_x
_atom_site_fract_y
_atom_site_fract_z
Si Si1 0.669376 0.447846 0.930212
Si Si2 0.367488 0.125765 0.263419
Si Si3 0.571695 0.277703 0.680800
Si Si4 0.985520 0.268291 0.649866
Si Si5 0.125000 0.125000 0.417814
Si Si6 0.826629 0.505061 0.006953
O O1 0.545950 0.486784 0.937270
O O2 0.699771 0.461573 0.873882
O O3 0.635528 0.393783 0.956994
O O4 0.796445 0.467684 0.960547
O O5 0.500518 0.121754 0.295810
O O6 0.323771 0.185332 0.261477
O O7 0.283116 0.082250 0.292304
O O8 0.625000 0.284273 0.625000
O O9 0.697373 0.254666 0.709729
O O10 0.125000 0.281503 0.625000
O O11 0.899815 0.321120 0.637727
O O12 0.946347 0.260772 0.707082
#
# Coordination Sequence:
#
# PCOD9516704 Si02
#       6
#    32  32  32  32  16  32
#     4  11  24  45  72 102 151 193 243 323 377 452
#     4  11  25  41  73 102 141 199 244 307 390 452
#     4  11  22  47  72 104 151 195 257 325 373 457
#     4  12  27  45  73 109 145 193 250 318 387 463
#     4  12  24  48  72 105 142 192 251 316 376 462
#     4  11  24  46  69 108 147 191 252 308 386 466
#
# _framework density 25.057334000000001
#
# number of rings (size 3 to 8) (size 9 to 14) (size 15 to 20)
#    0.000    0.727    5.455    3.273    2.545   10.182 
#    0.000    1.818    0.000    0.000    0.000    0.000 
#    0.000    0.000    0.000    0.000    0.000    0.000 
#
# Total GULP energy -245894.384846 kJ/mol
# GULP energy per Si atom -5588.508746 kJ/mol
# Density = 2.500030 g / cm^3
# Si number density = 25.057334 Si / 1000 Ang^3
#
#
#
# Elastic Constant Matrix: (Units=GPa)
#
#
# Indices 1 2 3 4 5 6 
#
# 1 85.4868 5.6436 12.1484 0.0000 0.0000 0.0000
# 2 5.6436 70.8224 17.7720 0.0000 0.0000 0.0000
# 3 12.1484 17.7720 139.1874 0.0000 0.0000 0.0000
# 4 0.0000 0.0000 0.0000 35.7315 0.0000 0.0000
# 5 0.0000 0.0000 0.0000 0.0000 36.7434 0.0000
# 6 0.0000 0.0000 0.0000 0.0000 0.0000 20.4958
#
#
#
# Elastic Compliance Matrix: (Units=1/GPa)
#
#
# Indices 1 2 3 4 5 6 
#
# 1 0.011879 -0.000709 -0.000946 0.000000 0.000000 0.000000
# 2 -0.000709 0.014630 -0.001806 0.000000 0.000000 0.000000
# 3 -0.000946 -0.001806 0.007498 0.000000 0.000000 0.000000
# 4 0.000000 0.000000 0.000000 0.027986 0.000000 0.000000
# 5 0.000000 0.000000 0.000000 0.000000 0.027216 0.000000
# 6 0.000000 0.000000 0.000000 0.000000 0.000000 0.048790
#
#
# Mechanical properties :
#
#
# Convention : Reuss Voigt Hill
#
# Bulk Modulus (GPa) = 36.92303 40.73606 38.82955
# Shear Modulus (GPa) = 32.47814 35.92300 34.20057
#
# Velocity S-wave (km/s) = 3.60412 3.79044 3.69845
# Velocity P-wave (km/s) = 5.66454 5.95391 5.81102
#
# Compressibility (1/GPa) = 0.02708337
#
# Stress axis : x y z
#
# Youngs Moduli (GPa) = 84.18215 68.35478 133.37325
#
# Poissons Ratio (x) = 0.04847 0.12621
# Poissons Ratio (y) = 0.05970 0.24088
# Poissons Ratio (z) = 0.07966 0.12345
#
# Static dielectric constant tensor:
#      x y z
#    x 2.100920 0.000000 0.000000 
#    y 0.000000 1.961860 0.000000 
#    z 0.000000 0.000000 2.085890 
# 
# From -- ./inp_files/64732.got.cif
#   From: 2010.05.17/outbox.cif.g08.bks.cpg/sg70_33_cif.got.tgz:64732.got - 2010.06.03 15:57:51.
