data_PCOD9516041
_publ_section_title
;
Structure prediction by ZEFSAII (Michael W. Deem and Ramdas Pophale) SiO2 
 PCOD9516041
Probable space group: F D D D
;
_chemical_formula_sum "Si O2"
_cell_formula_units_Z 96
_cell_length_a 19.350981
_cell_length_b 9.587416
_cell_length_c 21.012884
_cell_angle_alpha 90.000000
_cell_angle_beta 90.000000
_cell_angle_gamma 90.000000
_cell_volume 3898.434318
_symmetry_space_group_name_H-M "F D D D"
_symmetry_group_IT_number 70
_space_group.IT_coordinate_system_code '2'
_symmetry_cell_setting 'orthorhombic'
loop_
_space_group_symop_operation_xyz
x,y,z
1/4-x,1/4-y,z
x,1/4-y,1/4-z
1/4-x,y,1/4-z
-x,-y,-z
3/4+x,3/4+y,-z
-x,3/4+y,3/4+z
3/4+x,-y,3/4+z
x,1/2+y,1/2+z
1/4-x,3/4-y,1/2+z
x,3/4-y,3/4-z
1/4-x,1/2+y,3/4-z
-x,1/2-y,1/2-z
3/4+x,1/4+y,1/2-z
-x,1/4+y,1/4+z
3/4+x,1/2-y,1/4+z
1/2+x,y,1/2+z
3/4-x,1/4-y,1/2+z
1/2+x,1/4-y,3/4-z
3/4-x,y,3/4-z
1/2-x,-y,1/2-z
1/4+x,3/4+y,1/2-z
1/2-x,3/4+y,1/4+z
1/4+x,-y,1/4+z
1/2+x,1/2+y,z
3/4-x,3/4-y,z
1/2+x,3/4-y,1/4-z
3/4-x,1/2+y,1/4-z
1/2-x,1/2-y,-z
1/4+x,1/4+y,-z
1/2-x,1/4+y,3/4+z
1/4+x,1/2-y,3/4+z
loop_
_atom_site_type_symbol
_atom_site_label
_atom_site_fract_x
_atom_site_fract_y
_atom_site_fract_z
Si Si1 0.616561 0.434885 0.260897
Si Si2 0.222309 0.119606 0.338120
Si Si3 0.125000 0.432418 0.625000
Si Si4 0.875000 0.375000 0.705175
O O1 0.615010 0.268202 0.257677
O O2 0.686410 0.499816 0.293205
O O3 0.598353 0.495513 0.191451
O O4 0.688798 0.149636 0.342734
O O5 0.303824 0.128098 0.346110
O O6 0.192310 0.261186 0.308597
#
# Coordination Sequence:
#
# PCOD9516041 Si02
#       4
#    32  32  16  16
#     4  10  24  48  71 105 147 187 239 296 360 427
#     4  10  23  47  72 105 140 192 241 295 355 427
#     4  12  26  42  78 108 142 194 242 296 360 436
#     4  10  22  49  72  97 154 190 230 302 364 418
#
# _framework density 24.625271999999999
#
# number of rings (size 3 to 8) (size 9 to 14) (size 15 to 20)
#    0.000    2.000    0.000    5.000    4.667    4.667 
#   18.000    0.000    0.000    0.000    0.000    0.000 
#    0.000    0.000    0.000    0.000    0.000    0.000 
#
# Total GULP energy -133823.253242 kJ/mol
# GULP energy per Si atom -5575.968885 kJ/mol
# Density = 2.456922 g / cm^3
# Si number density = 24.625272 Si / 1000 Ang^3
#
#
#
# Elastic Constant Matrix: (Units=GPa)
#
#
# Indices 1 2 3 4 5 6 
#
# 1 193.4943 4.7113 12.7036 0.0000 0.0000 0.0000
# 2 4.7113 165.1912 26.7700 0.0000 0.0000 0.0000
# 3 12.7036 26.7700 131.2223 0.0000 0.0000 0.0000
# 4 0.0000 0.0000 0.0000 5.7598 0.0000 0.0000
# 5 0.0000 0.0000 0.0000 0.0000 -114.2772 0.0000
# 6 0.0000 0.0000 0.0000 0.0000 0.0000 -8.4226
#
#
#
# Elastic Compliance Matrix: (Units=1/GPa)
#
#
# Indices 1 2 3 4 5 6 
#
# 1 0.005202 -0.000069 -0.000490 0.000000 0.000000 0.000000
# 2 -0.000069 0.006261 -0.001271 0.000000 0.000000 0.000000
# 3 -0.000490 -0.001271 0.007927 0.000000 0.000000 0.000000
# 4 0.000000 0.000000 0.000000 0.173618 0.000000 0.000000
# 5 0.000000 0.000000 0.000000 0.000000 -0.008751 0.000000
# 6 0.000000 0.000000 0.000000 0.000000 0.000000 -0.118728
#
#
# Mechanical properties :
#
#
# Convention : Reuss Voigt Hill
#
# Bulk Modulus (GPa) = 63.56384 64.25305 63.90845
# Shear Modulus (GPa) = 67.17470 6.32686 36.75078
#
# Velocity S-wave (km/s) = 5.22857 1.60463 3.86735
# Velocity P-wave (km/s) = 7.89425 5.43894 6.77869
#
# Compressibility (1/GPa) = 0.01573221
#
# Stress axis : x y z
#
# Youngs Moduli (GPa) = 192.23637 159.70660 126.14675
#
# Poissons Ratio (x) = 0.01102 0.06175
# Poissons Ratio (y) = 0.01327 0.16029
# Poissons Ratio (z) = 0.09410 0.20294
#
# Static dielectric constant tensor:
#      x y z
#    x 1.991870 0.000000 0.000000 
#    y 0.000000 1.991820 0.000000 
#    z 0.000000 0.000000 2.007990 
# 
# From -- ./inp_files/44356.got.cif
#   From: 2010.05.17/outbox.cif.g08.bks.cpg/sg70_23_cif.got.tgz:44356.got - 2010.06.03 15:57:51.
