data_PCOD9516248
_publ_section_title
;
Structure prediction by ZEFSAII (Michael W. Deem and Ramdas Pophale) SiO2 
 PCOD9516248
Probable space group: F D D D
;
_chemical_formula_sum "Si O2"
_cell_formula_units_Z 224
_cell_length_a 19.900524
_cell_length_b 26.344787
_cell_length_c 19.846606
_cell_angle_alpha 90.000000
_cell_angle_beta 90.000000
_cell_angle_gamma 90.000000
_cell_volume 10405.080670
_symmetry_space_group_name_H-M "F D D D"
_symmetry_group_IT_number 70
_space_group.IT_coordinate_system_code '2'
_symmetry_cell_setting 'orthorhombic'
loop_
_space_group_symop_operation_xyz
x,y,z
1/4-x,1/4-y,z
x,1/4-y,1/4-z
1/4-x,y,1/4-z
-x,-y,-z
3/4+x,3/4+y,-z
-x,3/4+y,3/4+z
3/4+x,-y,3/4+z
x,1/2+y,1/2+z
1/4-x,3/4-y,1/2+z
x,3/4-y,3/4-z
1/4-x,1/2+y,3/4-z
-x,1/2-y,1/2-z
3/4+x,1/4+y,1/2-z
-x,1/4+y,1/4+z
3/4+x,1/2-y,1/4+z
1/2+x,y,1/2+z
3/4-x,1/4-y,1/2+z
1/2+x,1/4-y,3/4-z
3/4-x,y,3/4-z
1/2-x,-y,1/2-z
1/4+x,3/4+y,1/2-z
1/2-x,3/4+y,1/4+z
1/4+x,-y,1/4+z
1/2+x,1/2+y,z
3/4-x,3/4-y,z
1/2+x,3/4-y,1/4-z
3/4-x,1/2+y,1/4-z
1/2-x,1/2-y,-z
1/4+x,1/4+y,-z
1/2-x,1/4+y,3/4+z
1/4+x,1/2-y,3/4+z
loop_
_atom_site_type_symbol
_atom_site_label
_atom_site_fract_x
_atom_site_fract_y
_atom_site_fract_z
Si Si1 0.633768 0.511871 0.466104
Si Si2 0.710942 0.375000 0.875000
Si Si3 0.200144 0.720562 0.155804
Si Si4 0.825649 0.771155 0.061177
Si Si5 0.829143 0.700198 0.940388
Si Si6 0.388567 0.102461 0.989702
Si Si7 0.625000 0.625000 0.325410
Si Si8 0.734542 0.567840 0.839270
O O1 0.687984 0.538509 0.514401
O O2 0.649352 0.511539 0.386961
O O3 0.632616 0.454995 0.494582
O O4 0.561718 0.540286 0.467786
O O5 0.757552 0.325416 0.874425
O O6 0.664652 0.374982 0.809592
O O7 0.125000 0.722852 0.125000
O O8 0.237850 0.772771 0.137035
O O9 0.745799 0.778448 0.068357
O O10 0.853304 0.825318 0.035920
O O11 0.850550 0.729419 0.008680
O O12 0.875000 0.710280 0.875000
O O13 0.834761 0.640317 0.957160
O O14 0.452728 0.096935 0.941540
O O15 0.686235 0.643164 0.372436
#
# Coordination Sequence:
#
# PCOD9516248 Si02
#       8
#    32  16  32  32  32  32  16  32
#     4  11  24  43  70  97 144 185 223 293 344 414
#     4  12  27  40  66 104 140 181 228 278 352 414
#     4  12  25  42  65 102 142 185 229 277 338 421
#     4  10  25  48  65 102 134 174 236 287 351 413
#     4  11  26  45  73  99 133 176 237 298 345 421
#     4  12  24  43  69  98 135 181 228 281 345 412
#     4  10  24  40  71  89 138 178 216 282 342 414
#     4  11  24  43  63 102 138 181 235 272 340 425
#
# _framework density 21.527944999999999
#
# number of rings (size 3 to 8) (size 9 to 14) (size 15 to 20)
#    0.000    0.857    2.857    3.214   12.000    0.000 
#    0.000    0.357    0.000    0.000    0.000    0.000 
#    0.000    0.000    0.000    0.000    0.000    0.000 
#
# Total GULP energy -313242.871328 kJ/mol
# GULP energy per Si atom -5593.622702 kJ/mol
# Density = 2.147895 g / cm^3
# Si number density = 21.527945 Si / 1000 Ang^3
#
#
#
# Elastic Constant Matrix: (Units=GPa)
#
#
# Indices 1 2 3 4 5 6 
#
# 1 53.4013 9.2068 20.1025 0.0000 0.0000 0.0000
# 2 9.2068 76.4184 5.5732 0.0000 0.0000 0.0000
# 3 20.1025 5.5732 93.2194 0.0000 0.0000 0.0000
# 4 0.0000 0.0000 0.0000 27.7273 0.0000 0.0000
# 5 0.0000 0.0000 0.0000 0.0000 18.7678 0.0000
# 6 0.0000 0.0000 0.0000 0.0000 0.0000 44.2607
#
#
#
# Elastic Compliance Matrix: (Units=1/GPa)
#
#
# Indices 1 2 3 4 5 6 
#
# 1 0.020737 -0.002182 -0.004341 0.000000 0.000000 0.000000
# 2 -0.002182 0.013373 -0.000329 0.000000 0.000000 0.000000
# 3 -0.004341 -0.000329 0.011683 0.000000 0.000000 0.000000
# 4 0.000000 0.000000 0.000000 0.036065 0.000000 0.000000
# 5 0.000000 0.000000 0.000000 0.000000 0.053283 0.000000
# 6 0.000000 0.000000 0.000000 0.000000 0.000000 0.022593
#
#
# Mechanical properties :
#
#
# Convention : Reuss Voigt Hill
#
# Bulk Modulus (GPa) = 31.16393 32.53378 31.84886
# Shear Modulus (GPa) = 27.45224 30.69493 29.07358
#
# Velocity S-wave (km/s) = 3.57486 3.78010 3.67891
# Velocity P-wave (km/s) = 5.61666 5.84785 5.73342
#
# Compressibility (1/GPa) = 0.03208837
#
# Stress axis : x y z
#
# Youngs Moduli (GPa) = 48.22403 74.77922 85.59266
#
# Poissons Ratio (x) = 0.16315 0.37159
# Poissons Ratio (y) = 0.10521 0.02816
# Poissons Ratio (z) = 0.20936 0.02460
#
# Static dielectric constant tensor:
#      x y z
#    x 1.801010 0.000000 0.000000 
#    y 0.000000 1.778780 0.000000 
#    z 0.000000 0.000000 1.799440 
# 
# From -- ./inp_files/36927.got.cif
#   From: 2010.05.17/outbox.cif.g08.bks.cpg/sg70_19_cif.got.tgz:36927.got - 2010.06.03 15:57:51.
