data_PCOD9516018
_publ_section_title
;
Structure prediction by ZEFSAII (Michael W. Deem and Ramdas Pophale) SiO2 
 PCOD9516018
Probable space group: F D D D
;
_chemical_formula_sum "Si O2"
_cell_formula_units_Z 112
_cell_length_a 20.552839
_cell_length_b 9.226148
_cell_length_c 27.548948
_cell_angle_alpha 90.000000
_cell_angle_beta 90.000000
_cell_angle_gamma 90.000000
_cell_volume 5223.928890
_symmetry_space_group_name_H-M "F D D D"
_symmetry_group_IT_number 70
_space_group.IT_coordinate_system_code '2'
_symmetry_cell_setting 'orthorhombic'
loop_
_space_group_symop_operation_xyz
x,y,z
1/4-x,1/4-y,z
x,1/4-y,1/4-z
1/4-x,y,1/4-z
-x,-y,-z
3/4+x,3/4+y,-z
-x,3/4+y,3/4+z
3/4+x,-y,3/4+z
x,1/2+y,1/2+z
1/4-x,3/4-y,1/2+z
x,3/4-y,3/4-z
1/4-x,1/2+y,3/4-z
-x,1/2-y,1/2-z
3/4+x,1/4+y,1/2-z
-x,1/4+y,1/4+z
3/4+x,1/2-y,1/4+z
1/2+x,y,1/2+z
3/4-x,1/4-y,1/2+z
1/2+x,1/4-y,3/4-z
3/4-x,y,3/4-z
1/2-x,-y,1/2-z
1/4+x,3/4+y,1/2-z
1/2-x,3/4+y,1/4+z
1/4+x,-y,1/4+z
1/2+x,1/2+y,z
3/4-x,3/4-y,z
1/2+x,3/4-y,1/4-z
3/4-x,1/2+y,1/4-z
1/2-x,1/2-y,-z
1/4+x,1/4+y,-z
1/2-x,1/4+y,3/4+z
1/4+x,1/2-y,3/4+z
loop_
_atom_site_type_symbol
_atom_site_label
_atom_site_fract_x
_atom_site_fract_y
_atom_site_fract_z
Si Si1 0.625000 0.625000 0.535122
Si Si2 0.490784 0.169593 0.489351
Si Si3 0.439774 0.459926 0.638744
Si Si4 0.976415 0.661486 0.298020
O O1 0.579018 0.742940 0.505735
O O2 0.669282 0.734110 0.565785
O O3 0.512374 0.200451 0.434365
O O4 0.538537 0.255302 0.526073
O O5 0.500000 0.000000 0.500000
O O6 0.424838 0.625000 0.625000
O O7 0.375000 0.375000 0.651830
O O8 0.472347 0.395356 0.590646
O O9 0.000000 0.750000 0.250000
#
# Coordination Sequence:
#
# PCOD9516018 Si02
#       4
#    16  32  32  32
#     4  10  22  45  72  92 148 184 248 280 370 435
#     4  11  27  43  71 109 146 190 241 306 368 427
#     4  12  27  44  71 107 141 189 247 293 368 445
#     4  10  23  41  70 103 138 191 234 292 368 422
#
# _framework density 21.439800000000002
#
# number of rings (size 3 to 8) (size 9 to 14) (size 15 to 20)
#    0.000    1.143    5.714    0.000   16.000    2.286 
#    0.000    0.000    0.000    3.429    0.000    0.000 
#    0.000    0.000    0.000    0.000    0.000    0.000 
#
# Total GULP energy -156016.589618 kJ/mol
# GULP energy per Si atom -5572.021058 kJ/mol
# Density = 2.139100 g / cm^3
# Si number density = 21.439800 Si / 1000 Ang^3
#
#
#
# Elastic Constant Matrix: (Units=GPa)
#
#
# Indices 1 2 3 4 5 6 
#
# 1 67.6794 34.8591 22.1203 0.0000 0.0000 0.0000
# 2 34.8591 201.9869 29.8489 0.0000 0.0000 0.0000
# 3 22.1203 29.8489 98.1158 0.0000 0.0000 0.0000
# 4 0.0000 0.0000 0.0000 20.7638 0.0000 0.0000
# 5 0.0000 0.0000 0.0000 0.0000 16.5293 0.0000
# 6 0.0000 0.0000 0.0000 0.0000 0.0000 25.7045
#
#
#
# Elastic Compliance Matrix: (Units=1/GPa)
#
#
# Indices 1 2 3 4 5 6 
#
# 1 0.017068 -0.002489 -0.003091 0.000000 0.000000 0.000000
# 2 -0.002489 0.005547 -0.001126 0.000000 0.000000 0.000000
# 3 -0.003091 -0.001126 0.011232 0.000000 0.000000 0.000000
# 4 0.000000 0.000000 0.000000 0.048161 0.000000 0.000000
# 5 0.000000 0.000000 0.000000 0.000000 0.060499 0.000000
# 6 0.000000 0.000000 0.000000 0.000000 0.000000 0.038904
#
#
# Mechanical properties :
#
#
# Convention : Reuss Voigt Hill
#
# Bulk Modulus (GPa) = 48.93786 60.15988 54.54887
# Shear Modulus (GPa) = 24.79762 31.32976 28.06369
#
# Velocity S-wave (km/s) = 3.40460 3.82683 3.62187
# Velocity P-wave (km/s) = 6.19115 6.90268 6.55657
#
# Compressibility (1/GPa) = 0.02043408
#
# Stress axis : x y z
#
# Youngs Moduli (GPa) = 58.59046 180.28469 89.03515
#
# Poissons Ratio (x) = 0.44869 0.27519
# Poissons Ratio (y) = 0.14582 0.10028
# Poissons Ratio (z) = 0.18109 0.20306
#
# Static dielectric constant tensor:
#      x y z
#    x 1.835150 0.000000 0.000000 
#    y 0.000000 1.814280 0.000000 
#    z 0.000000 0.000000 1.757000 
# 
# From -- ./inp_files/49087.got.cif
#   From: 2010.05.17/outbox.cif.g08.bks.cpg/sg70_25_cif.got.tgz:49087.got - 2010.06.03 15:57:51.
