data_PCOD9516580
_publ_section_title
;
Structure prediction by ZEFSAII (Michael W. Deem and Ramdas Pophale) SiO2 
 PCOD9516580
Probable space group: F D D D
;
_chemical_formula_sum "Si O2"
_cell_formula_units_Z 192
_cell_length_a 11.868552
_cell_length_b 23.722367
_cell_length_c 32.316591
_cell_angle_alpha 90.000000
_cell_angle_beta 90.000000
_cell_angle_gamma 90.000000
_cell_volume 9098.740924
_symmetry_space_group_name_H-M "F D D D"
_symmetry_group_IT_number 70
_space_group.IT_coordinate_system_code '2'
_symmetry_cell_setting 'orthorhombic'
loop_
_space_group_symop_operation_xyz
x,y,z
1/4-x,1/4-y,z
x,1/4-y,1/4-z
1/4-x,y,1/4-z
-x,-y,-z
3/4+x,3/4+y,-z
-x,3/4+y,3/4+z
3/4+x,-y,3/4+z
x,1/2+y,1/2+z
1/4-x,3/4-y,1/2+z
x,3/4-y,3/4-z
1/4-x,1/2+y,3/4-z
-x,1/2-y,1/2-z
3/4+x,1/4+y,1/2-z
-x,1/4+y,1/4+z
3/4+x,1/2-y,1/4+z
1/2+x,y,1/2+z
3/4-x,1/4-y,1/2+z
1/2+x,1/4-y,3/4-z
3/4-x,y,3/4-z
1/2-x,-y,1/2-z
1/4+x,3/4+y,1/2-z
1/2-x,3/4+y,1/4+z
1/4+x,-y,1/4+z
1/2+x,1/2+y,z
3/4-x,3/4-y,z
1/2+x,3/4-y,1/4-z
3/4-x,1/2+y,1/4-z
1/2-x,1/2-y,-z
1/4+x,1/4+y,-z
1/2-x,1/4+y,3/4+z
1/4+x,1/2-y,3/4+z
loop_
_atom_site_type_symbol
_atom_site_label
_atom_site_fract_x
_atom_site_fract_y
_atom_site_fract_z
Si Si1 0.501142 0.255590 0.114261
Si Si2 0.495082 0.623535 0.321194
Si Si3 0.898195 0.667648 0.243802
Si Si4 0.746001 0.895735 0.421585
Si Si5 0.875000 0.875000 0.217797
Si Si6 0.684410 0.740396 0.815988
Si Si7 0.875000 0.218932 0.375000
O O1 0.625000 0.234391 0.125000
O O2 0.510865 0.319834 0.101439
O O3 0.473170 0.212682 0.077569
O O4 0.420827 0.249986 0.153396
O O5 0.625000 0.625000 0.308690
O O6 0.421983 0.608664 0.281103
O O7 0.453608 0.678273 0.346413
O O8 0.907716 0.630783 0.202684
O O9 0.842683 0.725179 0.226084
O O10 0.028384 0.662689 0.259611
O O11 0.724769 0.875000 0.375000
O O12 0.875000 0.875000 0.431068
O O13 0.810027 0.826759 0.192583
O O14 0.795531 0.753321 0.843222
#
# Coordination Sequence:
#
# PCOD9516580 Si02
#       7
#    32  32  32  32  16  32  16
#     4  12  22  38  73 102 132 180 232 285 351 412
#     4  12  26  46  69 102 139 184 237 292 351 425
#     4  12  26  43  68 105 144 182 234 293 365 412
#     4  11  21  41  64 101 143 178 226 284 345 417
#     4  12  24  42  71 104 148 174 228 308 357 410
#     4  12  25  45  69 104 140 188 237 288 351 429
#     4  12  24  48  72  99 143 190 246 290 348 432
#
# _framework density 21.10182
#
# number of rings (size 3 to 8) (size 9 to 14) (size 15 to 20)
#    0.000    0.167    8.333    2.500    2.333    0.000 
#    3.000    1.667    0.000    0.000    0.000    0.000 
#    0.000    0.000    0.000    0.000    0.000    0.000 
#
# Total GULP energy -267808.467880 kJ/mol
# GULP energy per Si atom -5579.343081 kJ/mol
# Density = 2.105379 g / cm^3
# Si number density = 21.101820 Si / 1000 Ang^3
#
#
#
# Elastic Constant Matrix: (Units=GPa)
#
#
# Indices 1 2 3 4 5 6 
#
# 1 107.8038 3.7313 44.8246 0.0000 0.0000 0.0000
# 2 3.7313 52.9727 -3.6331 0.0000 0.0000 0.0000
# 3 44.8246 -3.6331 79.2029 0.0000 0.0000 0.0000
# 4 0.0000 0.0000 0.0000 19.2482 0.0000 0.0000
# 5 0.0000 0.0000 0.0000 0.0000 28.7070 0.0000
# 6 0.0000 0.0000 0.0000 0.0000 0.0000 -10.5787
#
#
#
# Elastic Compliance Matrix: (Units=1/GPa)
#
#
# Indices 1 2 3 4 5 6 
#
# 1 0.012225 -0.001340 -0.006980 0.000000 0.000000 0.000000
# 2 -0.001340 0.019084 0.001634 0.000000 0.000000 0.000000
# 3 -0.006980 0.001634 0.016651 0.000000 0.000000 0.000000
# 4 0.000000 0.000000 0.000000 0.051953 0.000000 0.000000
# 5 0.000000 0.000000 0.000000 0.000000 0.034835 0.000000
# 6 0.000000 0.000000 0.000000 0.000000 0.000000 -0.094530
#
#
# Mechanical properties :
#
#
# Convention : Reuss Voigt Hill
#
# Bulk Modulus (GPa) = 28.91214 36.64722 32.77968
# Shear Modulus (GPa) = 76.78215 20.47909 48.63062
#
# Velocity S-wave (km/s) = 6.03867 3.11865 4.80580
# Velocity P-wave (km/s) = 7.89631 5.51113 6.80897
#
# Compressibility (1/GPa) = 0.03458754
#
# Stress axis : x y z
#
# Youngs Moduli (GPa) = 81.80118 52.39974 60.05628
#
# Poissons Ratio (x) = 0.07021 0.41919
# Poissons Ratio (y) = 0.10960 -0.09811
# Poissons Ratio (z) = 0.57097 -0.08560
#
# Static dielectric constant tensor:
#      x y z
#    x 1.749400 0.000000 0.000000 
#    y 0.000000 1.844650 0.000000 
#    z 0.000000 0.000000 1.788350 
# 
# From -- ./inp_files/64991.got.cif
#   From: 2010.05.17/outbox.cif.g08.bks.cpg/sg70_33_cif.got.tgz:64991.got - 2010.06.03 15:57:51.
