data_PCOD9516796
_publ_section_title
;
Structure prediction by ZEFSAII (Michael W. Deem and Ramdas Pophale) SiO2 
 PCOD9516796
Probable space group: F D D D
;
_chemical_formula_sum "Si O2"
_cell_formula_units_Z 160
_cell_length_a 17.809535
_cell_length_b 26.550066
_cell_length_c 12.804756
_cell_angle_alpha 90.000000
_cell_angle_beta 90.000000
_cell_angle_gamma 90.000000
_cell_volume 6054.656268
_symmetry_space_group_name_H-M "F D D D"
_symmetry_group_IT_number 70
_space_group.IT_coordinate_system_code '2'
_symmetry_cell_setting 'orthorhombic'
loop_
_space_group_symop_operation_xyz
x,y,z
1/4-x,1/4-y,z
x,1/4-y,1/4-z
1/4-x,y,1/4-z
-x,-y,-z
3/4+x,3/4+y,-z
-x,3/4+y,3/4+z
3/4+x,-y,3/4+z
x,1/2+y,1/2+z
1/4-x,3/4-y,1/2+z
x,3/4-y,3/4-z
1/4-x,1/2+y,3/4-z
-x,1/2-y,1/2-z
3/4+x,1/4+y,1/2-z
-x,1/4+y,1/4+z
3/4+x,1/2-y,1/4+z
1/2+x,y,1/2+z
3/4-x,1/4-y,1/2+z
1/2+x,1/4-y,3/4-z
3/4-x,y,3/4-z
1/2-x,-y,1/2-z
1/4+x,3/4+y,1/2-z
1/2-x,3/4+y,1/4+z
1/4+x,-y,1/4+z
1/2+x,1/2+y,z
3/4-x,3/4-y,z
1/2+x,3/4-y,1/4-z
3/4-x,1/2+y,1/4-z
1/2-x,1/2-y,-z
1/4+x,1/4+y,-z
1/2-x,1/4+y,3/4+z
1/4+x,1/2-y,3/4+z
loop_
_atom_site_type_symbol
_atom_site_label
_atom_site_fract_x
_atom_site_fract_y
_atom_site_fract_z
Si Si1 0.927935 0.979830 0.273736
Si Si2 0.504401 0.624192 0.500625
Si Si3 0.160931 0.865904 0.497228
Si Si4 0.207295 0.184021 0.323662
Si Si5 0.585004 0.253251 0.789219
O O1 0.875000 0.971048 0.375000
O O2 0.990743 0.017122 0.320115
O O3 0.902500 0.007119 0.165495
O O4 0.968839 0.930435 0.227698
O O5 0.508646 0.625000 0.625000
O O6 0.418884 0.610439 0.467995
O O7 0.556989 0.584078 0.442244
O O8 0.163944 0.875000 0.375000
O O9 0.241046 0.888017 0.533168
O O10 0.143700 0.806725 0.510079
O O11 0.116265 0.046629 0.263501
O O12 0.500000 0.250000 0.750000
#
# Coordination Sequence:
#
# PCOD9516796 Si02
#       5
#    32  32  32  32  32
#     4  12  26  46  79 118 161 220 288 364 442 533
#     4  11  25  44  76 112 163 214 273 355 438 520
#     4  11  23  47  73 112 158 219 275 348 439 521
#     4  12  26  48  79 115 164 222 288 358 442 541
#     4  12  28  48  77 115 165 221 291 361 442 533
#
# _framework density 26.425944000000001
#
# number of rings (size 3 to 8) (size 9 to 14) (size 15 to 20)
#    0.000    0.400    4.000    4.200    2.800    7.600 
#    0.000    1.000    0.000    0.000    0.000    0.000 
#    0.000    0.000    0.000    0.000    0.000    0.000 
#
# Total GULP energy -223556.927566 kJ/mol
# GULP energy per Si atom -5588.923189 kJ/mol
# Density = 2.636580 g / cm^3
# Si number density = 26.425944 Si / 1000 Ang^3
#
#
#
# Elastic Constant Matrix: (Units=GPa)
#
#
# Indices 1 2 3 4 5 6 
#
# 1 164.2803 60.5899 58.1521 0.0000 0.0000 0.0000
# 2 60.5899 126.4295 46.8252 0.0000 0.0000 0.0000
# 3 58.1521 46.8252 109.6536 0.0000 0.0000 0.0000
# 4 0.0000 0.0000 0.0000 43.4322 0.0000 0.0000
# 5 0.0000 0.0000 0.0000 0.0000 31.5476 0.0000
# 6 0.0000 0.0000 0.0000 0.0000 0.0000 2.7655
#
#
#
# Elastic Compliance Matrix: (Units=1/GPa)
#
#
# Indices 1 2 3 4 5 6 
#
# 1 0.008235 -0.002767 -0.003186 0.000000 0.000000 0.000000
# 2 -0.002767 0.010325 -0.002942 0.000000 0.000000 0.000000
# 3 -0.003186 -0.002942 0.012065 0.000000 0.000000 0.000000
# 4 0.000000 0.000000 0.000000 0.023024 0.000000 0.000000
# 5 0.000000 0.000000 0.000000 0.000000 0.031698 0.000000
# 6 0.000000 0.000000 0.000000 0.000000 0.000000 0.361605
#
#
# Mechanical properties :
#
#
# Convention : Reuss Voigt Hill
#
# Bulk Modulus (GPa) = 77.90073 81.27755 79.58914
# Shear Modulus (GPa) = 10.66051 31.20212 20.93131
#
# Velocity S-wave (km/s) = 2.01069 3.43991 2.81743
# Velocity P-wave (km/s) = 5.91045 6.82648 6.38491
#
# Compressibility (1/GPa) = 0.01283685
#
# Stress axis : x y z
#
# Youngs Moduli (GPa) = 121.42778 96.85213 82.88132
#
# Poissons Ratio (x) = 0.26796 0.26406
# Poissons Ratio (y) = 0.33596 0.24382
# Poissons Ratio (z) = 0.38686 0.28492
#
# Static dielectric constant tensor:
#      x y z
#    x 2.145420 0.000000 0.000000 
#    y 0.000000 2.187560 0.000000 
#    z 0.000000 0.000000 2.226630 
# 
# From -- ./inp_files/28634.got.cif
#   From: 2010.05.17/outbox.cif.g08.bks.cpg/sg70_15_cif.got.tgz:28634.got - 2010.06.03 15:57:51.
