data_PCOD9516054
_publ_section_title
;
Structure prediction by ZEFSAII (Michael W. Deem and Ramdas Pophale) SiO2 
 PCOD9516054
Probable space group: F D D D
;
_chemical_formula_sum "Si O2"
_cell_formula_units_Z 160
_cell_length_a 20.892062
_cell_length_b 32.677256
_cell_length_c 10.738543
_cell_angle_alpha 90.000000
_cell_angle_beta 90.000000
_cell_angle_gamma 90.000000
_cell_volume 7331.152388
_symmetry_space_group_name_H-M "F D D D"
_symmetry_group_IT_number 70
_space_group.IT_coordinate_system_code '2'
_symmetry_cell_setting 'orthorhombic'
loop_
_space_group_symop_operation_xyz
x,y,z
1/4-x,1/4-y,z
x,1/4-y,1/4-z
1/4-x,y,1/4-z
-x,-y,-z
3/4+x,3/4+y,-z
-x,3/4+y,3/4+z
3/4+x,-y,3/4+z
x,1/2+y,1/2+z
1/4-x,3/4-y,1/2+z
x,3/4-y,3/4-z
1/4-x,1/2+y,3/4-z
-x,1/2-y,1/2-z
3/4+x,1/4+y,1/2-z
-x,1/4+y,1/4+z
3/4+x,1/2-y,1/4+z
1/2+x,y,1/2+z
3/4-x,1/4-y,1/2+z
1/2+x,1/4-y,3/4-z
3/4-x,y,3/4-z
1/2-x,-y,1/2-z
1/4+x,3/4+y,1/2-z
1/2-x,3/4+y,1/4+z
1/4+x,-y,1/4+z
1/2+x,1/2+y,z
3/4-x,3/4-y,z
1/2+x,3/4-y,1/4-z
3/4-x,1/2+y,1/4-z
1/2-x,1/2-y,-z
1/4+x,1/4+y,-z
1/2-x,1/4+y,3/4+z
1/4+x,1/2-y,3/4+z
loop_
_atom_site_type_symbol
_atom_site_label
_atom_site_fract_x
_atom_site_fract_y
_atom_site_fract_z
Si Si1 0.748658 0.409292 0.253894
Si Si2 0.501744 0.236117 0.107009
Si Si3 0.627525 0.455736 0.273988
Si Si4 0.454093 0.322468 0.016738
Si Si5 0.082851 0.039624 0.846562
O O1 0.677204 0.419144 0.299010
O O2 0.757882 0.363904 0.200355
O O3 0.797974 0.419671 0.367430
O O4 0.768246 0.441127 0.149774
O O5 0.500000 0.250000 0.250000
O O6 0.487643 0.278687 0.034228
O O7 0.443095 0.204965 0.082787
O O8 0.566280 0.218093 0.047519
O O9 0.625000 0.460814 0.125000
O O10 0.655897 0.496642 0.335635
O O11 0.391123 0.317968 0.103567
#
# Coordination Sequence:
#
# PCOD9516054 Si02
#       5
#    32  32  32  32  32
#     4  11  20  40  65 104 138 171 233 296 368 426
#     4  11  24  43  67  98 138 191 246 290 352 436
#     4  11  21  37  68  99 132 181 234 295 352 436
#     4  10  23  38  64 103 138 177 228 297 364 432
#     4  11  20  38  68  96 137 182 231 290 351 428
#
# _framework density 21.824672
#
# number of rings (size 3 to 8) (size 9 to 14) (size 15 to 20)
#    0.000    1.200    4.000    4.200    0.000    4.800 
#    0.000    5.000    0.000    4.800    0.000    0.000 
#    0.000    0.000    0.000    0.000    0.000    0.000 
#
# Total GULP energy -222889.385156 kJ/mol
# GULP energy per Si atom -5572.234629 kJ/mol
# Density = 2.177500 g / cm^3
# Si number density = 21.824672 Si / 1000 Ang^3
#
#
#
# Elastic Constant Matrix: (Units=GPa)
#
#
# Indices 1 2 3 4 5 6 
#
# 1 143.5565 58.1701 61.2010 0.0000 0.0000 0.0000
# 2 58.1701 74.9315 1.9153 0.0000 0.0000 0.0000
# 3 61.2010 1.9153 118.1916 0.0000 0.0000 0.0000
# 4 0.0000 0.0000 0.0000 5.9245 0.0000 0.0000
# 5 0.0000 0.0000 0.0000 0.0000 34.7796 0.0000
# 6 0.0000 0.0000 0.0000 0.0000 0.0000 27.0841
#
#
#
# Elastic Compliance Matrix: (Units=1/GPa)
#
#
# Indices 1 2 3 4 5 6 
#
# 1 0.014659 -0.011191 -0.007409 0.000000 0.000000 0.000000
# 2 -0.011191 0.021894 0.005440 0.000000 0.000000 0.000000
# 3 -0.007409 0.005440 0.012209 0.000000 0.000000 0.000000
# 4 0.000000 0.000000 0.000000 0.168792 0.000000 0.000000
# 5 0.000000 0.000000 0.000000 0.000000 0.028752 0.000000
# 6 0.000000 0.000000 0.000000 0.000000 0.000000 0.036922
#
#
# Mechanical properties :
#
#
# Convention : Reuss Voigt Hill
#
# Bulk Modulus (GPa) = 44.55905 64.36137 54.46021
# Shear Modulus (GPa) = 15.77139 27.91718 21.84428
#
# Velocity S-wave (km/s) = 2.69111 3.58041 3.16713
# Velocity P-wave (km/s) = 5.48792 6.82984 6.19532
#
# Compressibility (1/GPa) = 0.02244213
#
# Stress axis : x y z
#
# Youngs Moduli (GPa) = 68.21638 45.67470 81.90441
#
# Poissons Ratio (x) = 0.51113 0.60686
# Poissons Ratio (y) = 0.76339 -0.44555
# Poissons Ratio (z) = 0.50544 -0.24847
#
# Static dielectric constant tensor:
#      x y z
#    x 1.893750 0.000000 0.000000 
#    y 0.000000 1.780810 0.000000 
#    z 0.000000 0.000000 1.838820 
# 
# From -- ./inp_files/19453.got.cif
#   From: 2010.05.17/outbox.cif.g08.bks.cpg/sg70_10_cif.got.tgz:19453.got - 2010.06.03 15:57:51.
