data_PCOD9516783
_publ_section_title
;
Structure prediction by ZEFSAII (Michael W. Deem and Ramdas Pophale) SiO2 
 PCOD9516783
Probable space group: F D D D
;
_chemical_formula_sum "Si O2"
_cell_formula_units_Z 136
_cell_length_a 9.162564
_cell_length_b 25.999345
_cell_length_c 20.660419
_cell_angle_alpha 90.000000
_cell_angle_beta 90.000000
_cell_angle_gamma 90.000000
_cell_volume 4921.738702
_symmetry_space_group_name_H-M "F D D D"
_symmetry_group_IT_number 70
_space_group.IT_coordinate_system_code '2'
_symmetry_cell_setting 'orthorhombic'
loop_
_space_group_symop_operation_xyz
x,y,z
1/4-x,1/4-y,z
x,1/4-y,1/4-z
1/4-x,y,1/4-z
-x,-y,-z
3/4+x,3/4+y,-z
-x,3/4+y,3/4+z
3/4+x,-y,3/4+z
x,1/2+y,1/2+z
1/4-x,3/4-y,1/2+z
x,3/4-y,3/4-z
1/4-x,1/2+y,3/4-z
-x,1/2-y,1/2-z
3/4+x,1/4+y,1/2-z
-x,1/4+y,1/4+z
3/4+x,1/2-y,1/4+z
1/2+x,y,1/2+z
3/4-x,1/4-y,1/2+z
1/2+x,1/4-y,3/4-z
3/4-x,y,3/4-z
1/2-x,-y,1/2-z
1/4+x,3/4+y,1/2-z
1/2-x,3/4+y,1/4+z
1/4+x,-y,1/4+z
1/2+x,1/2+y,z
3/4-x,3/4-y,z
1/2+x,3/4-y,1/4-z
3/4-x,1/2+y,1/4-z
1/2-x,1/2-y,-z
1/4+x,1/4+y,-z
1/2-x,1/4+y,3/4+z
1/4+x,1/2-y,3/4+z
loop_
_atom_site_type_symbol
_atom_site_label
_atom_site_fract_x
_atom_site_fract_y
_atom_site_fract_z
Si Si1 0.043235 0.573880 0.357705
Si Si2 0.230661 0.188350 0.266083
Si Si3 0.375000 0.875000 0.875000
Si Si4 0.912143 0.289150 0.968609
Si Si5 0.533151 0.339765 0.809926
O O1 0.125000 0.625000 0.335678
O O2 0.128038 0.558796 0.421856
O O3 0.065378 0.539615 0.295356
O O4 0.875000 0.579844 0.375000
O O5 0.357562 0.227896 0.287231
O O6 0.290235 0.132063 0.248008
O O7 0.111931 0.193586 0.206495
O O8 0.430703 0.918335 0.928821
O O9 0.073577 0.305486 0.942301
O O10 0.531353 0.375000 0.875000
#
# Coordination Sequence:
#
# PCOD9516783 Si02
#       5
#    32  32   8  32  32
#     4  12  24  45  74 104 147 191 246 311 362 444
#     4  11  24  44  68 113 133 191 247 304 366 432
#     4  12  28  52  64 106 148 204 234 308 378 470
#     4  12  26  45  73 100 150 195 243 300 382 443
#     4  11  23  45  73 106 150 180 248 315 364 435
#
# _framework density 27.632511000000001
#
# number of rings (size 3 to 8) (size 9 to 14) (size 15 to 20)
#    0.000    0.471    7.059    2.118    3.294    0.000 
#    6.353    2.353    0.000    0.000    0.000    0.000 
#    0.000    0.000    0.000    0.000    0.000    0.000 
#
# Total GULP energy -189626.674025 kJ/mol
# GULP energy per Si atom -5577.255118 kJ/mol
# Density = 2.756962 g / cm^3
# Si number density = 27.632511 Si / 1000 Ang^3
#
#
#
# Elastic Constant Matrix: (Units=GPa)
#
#
# Indices 1 2 3 4 5 6 
#
# 1 85.9818 14.2828 -1.8040 0.0000 0.0000 0.0000
# 2 14.2828 138.6456 28.5340 0.0000 0.0000 0.0000
# 3 -1.8040 28.5340 182.1644 0.0000 0.0000 0.0000
# 4 0.0000 0.0000 0.0000 -4.2432 0.0000 0.0000
# 5 0.0000 0.0000 0.0000 0.0000 28.9582 0.0000
# 6 0.0000 0.0000 0.0000 0.0000 0.0000 35.8898
#
#
#
# Elastic Compliance Matrix: (Units=1/GPa)
#
#
# Indices 1 2 3 4 5 6 
#
# 1 0.011851 -0.001286 0.000319 0.000000 0.000000 0.000000
# 2 -0.001286 0.007593 -0.001202 0.000000 0.000000 0.000000
# 3 0.000319 -0.001202 0.005681 0.000000 0.000000 0.000000
# 4 0.000000 0.000000 0.000000 -0.235668 0.000000 0.000000
# 5 0.000000 0.000000 0.000000 0.000000 0.034532 0.000000
# 6 0.000000 0.000000 0.000000 0.000000 0.000000 0.027863
#
#
# Mechanical properties :
#
#
# Convention : Reuss Voigt Hill
#
# Bulk Modulus (GPa) = 48.11145 54.31304 51.21224
# Shear Modulus (GPa) = -36.52806 36.50623 -0.01091
#
# Velocity S-wave (km/s) = -3.63977 3.63868 -0.06291
# Velocity P-wave (km/s) = 0.46361 6.11159 4.30909
#
# Compressibility (1/GPa) = 0.02078507
#
# Stress axis : x y z
#
# Youngs Moduli (GPa) = 84.38281 131.70823 176.02571
#
# Poissons Ratio (x) = 0.16944 -0.05613
# Poissons Ratio (y) = 0.10855 0.21159
# Poissons Ratio (z) = -0.02691 0.15832
#
# Static dielectric constant tensor:
#      x y z
#    x 2.169660 0.000000 0.000000 
#    y 0.000000 2.238870 0.000000 
#    z 0.000000 0.000000 2.350590 
# 
# From -- ./inp_files/20455.got.cif
#   From: 2010.05.17/outbox.cif.g08.bks.cpg/sg70_11_cif.got.tgz:20455.got - 2010.06.03 15:57:51.
