data_PCOD9516302
_publ_section_title
;
Structure prediction by ZEFSAII (Michael W. Deem and Ramdas Pophale) SiO2 
 PCOD9516302
Probable space group: F D D D
;
_chemical_formula_sum "Si O2"
_cell_formula_units_Z 160
_cell_length_a 19.149936
_cell_length_b 21.911479
_cell_length_c 15.554670
_cell_angle_alpha 90.000000
_cell_angle_beta 90.000000
_cell_angle_gamma 90.000000
_cell_volume 6526.792737
_symmetry_space_group_name_H-M "F D D D"
_symmetry_group_IT_number 70
_space_group.IT_coordinate_system_code '2'
_symmetry_cell_setting 'orthorhombic'
loop_
_space_group_symop_operation_xyz
x,y,z
1/4-x,1/4-y,z
x,1/4-y,1/4-z
1/4-x,y,1/4-z
-x,-y,-z
3/4+x,3/4+y,-z
-x,3/4+y,3/4+z
3/4+x,-y,3/4+z
x,1/2+y,1/2+z
1/4-x,3/4-y,1/2+z
x,3/4-y,3/4-z
1/4-x,1/2+y,3/4-z
-x,1/2-y,1/2-z
3/4+x,1/4+y,1/2-z
-x,1/4+y,1/4+z
3/4+x,1/2-y,1/4+z
1/2+x,y,1/2+z
3/4-x,1/4-y,1/2+z
1/2+x,1/4-y,3/4-z
3/4-x,y,3/4-z
1/2-x,-y,1/2-z
1/4+x,3/4+y,1/2-z
1/2-x,3/4+y,1/4+z
1/4+x,-y,1/4+z
1/2+x,1/2+y,z
3/4-x,3/4-y,z
1/2+x,3/4-y,1/4-z
3/4-x,1/2+y,1/4-z
1/2-x,1/2-y,-z
1/4+x,1/4+y,-z
1/2-x,1/4+y,3/4+z
1/4+x,1/2-y,3/4+z
loop_
_atom_site_type_symbol
_atom_site_label
_atom_site_fract_x
_atom_site_fract_y
_atom_site_fract_z
Si Si1 0.125000 0.625000 0.403897
Si Si2 0.052480 0.038441 0.215549
Si Si3 0.911968 0.159646 0.754025
Si Si4 0.038727 0.375000 0.375000
Si Si5 0.779216 0.375000 0.875000
Si Si6 0.163634 0.717511 0.253490
Si Si7 0.875000 0.687270 0.875000
O O1 0.071604 0.657744 0.469434
O O2 0.149160 0.680652 0.341873
O O3 0.015761 0.068904 0.131213
O O4 0.114399 0.989685 0.199029
O O5 0.988142 0.000100 0.248388
O O6 0.842859 0.130893 0.705222
O O7 0.976855 0.158725 0.690540
O O8 0.891852 0.229823 0.768122
O O9 0.927001 0.114909 0.834887
O O10 0.824171 0.331530 0.817637
#
# Coordination Sequence:
#
# PCOD9516302 Si02
#       7
#    16  32  32  16  16  32  16
#     4  12  28  48  68 110 144 178 254 292 352 434
#     4  11  24  43  70 104 142 185 226 296 357 416
#     4  10  24  44  68 108 141 179 241 289 347 437
#     4   9  22  41  68  98 138 185 226 287 354 410
#     4  11  22  49  72 102 140 187 240 293 362 406
#     4  11  26  45  74  99 141 194 229 301 350 421
#     4  12  24  41  74 103 144 190 232 294 356 422
#
# _framework density 24.514337000000001
#
# number of rings (size 3 to 8) (size 9 to 14) (size 15 to 20)
#    0.000    1.200    2.000    2.400   11.200    2.800 
#    0.000    3.000    0.000    0.000    0.000    0.000 
#    0.000    0.000    0.000    0.000    0.000    0.000 
#
# Total GULP energy -222786.071683 kJ/mol
# GULP energy per Si atom -5569.651792 kJ/mol
# Density = 2.445854 g / cm^3
# Si number density = 24.514337 Si / 1000 Ang^3
#
#
#
# Elastic Constant Matrix: (Units=GPa)
#
#
# Indices 1 2 3 4 5 6 
#
# 1 80.7774 66.9066 50.1322 0.0000 0.0000 0.0000
# 2 66.9066 176.3732 52.7340 0.0000 0.0000 0.0000
# 3 50.1322 52.7340 79.1465 0.0000 0.0000 0.0000
# 4 0.0000 0.0000 0.0000 57.9431 0.0000 0.0000
# 5 0.0000 0.0000 0.0000 0.0000 40.2539 0.0000
# 6 0.0000 0.0000 0.0000 0.0000 0.0000 62.5368
#
#
#
# Elastic Compliance Matrix: (Units=1/GPa)
#
#
# Indices 1 2 3 4 5 6 
#
# 1 0.024346 -0.005775 -0.011573 0.000000 0.000000 0.000000
# 2 -0.005775 0.008450 -0.001972 0.000000 0.000000 0.000000
# 3 -0.011573 -0.001972 0.021279 0.000000 0.000000 0.000000
# 4 0.000000 0.000000 0.000000 0.017258 0.000000 0.000000
# 5 0.000000 0.000000 0.000000 0.000000 0.024842 0.000000
# 6 0.000000 0.000000 0.000000 0.000000 0.000000 0.015991
#
#
# Mechanical properties :
#
#
# Convention : Reuss Voigt Hill
#
# Bulk Modulus (GPa) = 64.78960 75.09364 69.94162
# Shear Modulus (GPa) = 32.06125 43.24837 37.65481
#
# Velocity S-wave (km/s) = 3.62035 4.20480 3.92348
# Velocity P-wave (km/s) = 6.63043 7.36701 7.00840
#
# Compressibility (1/GPa) = 0.01543458
#
# Stress axis : x y z
#
# Youngs Moduli (GPa) = 41.07522 118.33921 46.99438
#
# Poissons Ratio (x) = 0.68344 0.54386
# Poissons Ratio (y) = 0.23722 0.09268
# Poissons Ratio (z) = 0.47535 0.23339
#
# Static dielectric constant tensor:
#      x y z
#    x 1.999620 0.000000 0.000000 
#    y 0.000000 1.794990 0.000000 
#    z 0.000000 0.000000 2.201480 
# 
# From -- ./inp_files/36386.got.cif
#   From: 2010.05.17/outbox.cif.g08.bks.cpg/sg70_19_cif.got.tgz:36386.got - 2010.06.03 15:57:51.
