data_PCOD9516917
_publ_section_title
;
Structure prediction by ZEFSAII (Michael W. Deem and Ramdas Pophale) SiO2 
 PCOD9516917
Probable space group: F D D D
;
_chemical_formula_sum "Si O2"
_cell_formula_units_Z 112
_cell_length_a 24.130242
_cell_length_b 13.494904
_cell_length_c 14.490298
_cell_angle_alpha 90.000000
_cell_angle_beta 90.000000
_cell_angle_gamma 90.000000
_cell_volume 4718.552526
_symmetry_space_group_name_H-M "F D D D"
_symmetry_group_IT_number 70
_space_group.IT_coordinate_system_code '2'
_symmetry_cell_setting 'orthorhombic'
loop_
_space_group_symop_operation_xyz
x,y,z
1/4-x,1/4-y,z
x,1/4-y,1/4-z
1/4-x,y,1/4-z
-x,-y,-z
3/4+x,3/4+y,-z
-x,3/4+y,3/4+z
3/4+x,-y,3/4+z
x,1/2+y,1/2+z
1/4-x,3/4-y,1/2+z
x,3/4-y,3/4-z
1/4-x,1/2+y,3/4-z
-x,1/2-y,1/2-z
3/4+x,1/4+y,1/2-z
-x,1/4+y,1/4+z
3/4+x,1/2-y,1/4+z
1/2+x,y,1/2+z
3/4-x,1/4-y,1/2+z
1/2+x,1/4-y,3/4-z
3/4-x,y,3/4-z
1/2-x,-y,1/2-z
1/4+x,3/4+y,1/2-z
1/2-x,3/4+y,1/4+z
1/4+x,-y,1/4+z
1/2+x,1/2+y,z
3/4-x,3/4-y,z
1/2+x,3/4-y,1/4-z
3/4-x,1/2+y,1/4-z
1/2-x,1/2-y,-z
1/4+x,1/4+y,-z
1/2-x,1/4+y,3/4+z
1/4+x,1/2-y,3/4+z
loop_
_atom_site_type_symbol
_atom_site_label
_atom_site_fract_x
_atom_site_fract_y
_atom_site_fract_z
Si Si1 0.194923 0.443343 0.783120
Si Si2 0.813916 0.031208 0.378221
Si Si3 0.375000 0.375000 0.648367
Si Si4 0.202989 0.966096 0.833039
O O1 0.203674 0.375000 0.875000
O O2 0.250000 0.500000 0.750000
O O3 0.179248 0.369065 0.700631
O O4 0.152016 0.533715 0.797424
O O5 0.875000 0.983733 0.375000
O O6 0.794968 0.059602 0.274749
O O7 0.757515 0.971305 0.399271
O O8 0.327541 0.321210 0.589520
O O9 0.168496 0.875000 0.875000
#
# Coordination Sequence:
#
# PCOD9516917 Si02
#       4
#    32  32  16  32
#     4  12  28  49  80 114 155 204 263 320 391 463
#     4  11  25  45  74 109 149 199 253 310 386 461
#     4  12  24  52  76 112 158 200 250 330 380 470
#     4  11  26  46  75 111 155 200 256 317 391 460
#
# _framework density 23.736093
#
# number of rings (size 3 to 8) (size 9 to 14) (size 15 to 20)
#    0.000    0.571    2.857    4.286    4.000    7.429 
#    0.000    2.857    0.000    0.000    0.000    0.000 
#    0.000    0.000    0.000    0.000    0.000    0.000 
#
# Total GULP energy -156199.509419 kJ/mol
# GULP energy per Si atom -5578.553908 kJ/mol
# Density = 2.368207 g / cm^3
# Si number density = 23.736093 Si / 1000 Ang^3
#
#
#
# Elastic Constant Matrix: (Units=GPa)
#
#
# Indices 1 2 3 4 5 6 
#
# 1 169.6388 55.7564 38.8056 0.0000 0.0000 0.0000
# 2 55.7564 180.9378 76.6761 0.0000 0.0000 0.0000
# 3 38.8056 76.6761 135.3640 0.0000 0.0000 0.0000
# 4 0.0000 0.0000 0.0000 34.9957 0.0000 0.0000
# 5 0.0000 0.0000 0.0000 0.0000 23.5752 0.0000
# 6 0.0000 0.0000 0.0000 0.0000 0.0000 32.8601
#
#
#
# Elastic Compliance Matrix: (Units=1/GPa)
#
#
# Indices 1 2 3 4 5 6 
#
# 1 0.006657 -0.001635 -0.000982 0.000000 0.000000 0.000000
# 2 -0.001635 0.007674 -0.003878 0.000000 0.000000 0.000000
# 3 -0.000982 -0.003878 0.009866 0.000000 0.000000 0.000000
# 4 0.000000 0.000000 0.000000 0.028575 0.000000 0.000000
# 5 0.000000 0.000000 0.000000 0.000000 0.042417 0.000000
# 6 0.000000 0.000000 0.000000 0.000000 0.000000 0.030432
#
#
# Mechanical properties :
#
#
# Convention : Reuss Voigt Hill
#
# Bulk Modulus (GPa) = 89.23880 92.04631 90.64255
# Shear Modulus (GPa) = 35.12526 39.26636 37.19581
#
# Velocity S-wave (km/s) = 3.85102 4.07171 3.96290
# Velocity P-wave (km/s) = 7.57969 7.80822 7.69480
#
# Compressibility (1/GPa) = 0.01120589
#
# Stress axis : x y z
#
# Youngs Moduli (GPa) = 150.21803 130.30854 101.35993
#
# Poissons Ratio (x) = 0.21307 0.09955
# Poissons Ratio (y) = 0.24563 0.39309
# Poissons Ratio (z) = 0.14754 0.50536
#
# Static dielectric constant tensor:
#      x y z
#    x 2.307800 0.000000 0.000000 
#    y 0.000000 1.860040 0.000000 
#    z 0.000000 0.000000 1.928260 
# 
# From -- ./inp_files/28290.got.cif
#   From: 2010.05.17/outbox.cif.g08.bks.cpg/sg70_15_cif.got.tgz:28290.got - 2010.06.03 15:57:51.
