data_PCOD9516852
_publ_section_title
;
Structure prediction by ZEFSAII (Michael W. Deem and Ramdas Pophale) SiO2 
 PCOD9516852
Probable space group: F D D D
;
_chemical_formula_sum "Si O2"
_cell_formula_units_Z 216
_cell_length_a 23.221471
_cell_length_b 29.951212
_cell_length_c 15.250898
_cell_angle_alpha 90.000000
_cell_angle_beta 90.000000
_cell_angle_gamma 90.000000
_cell_volume 10607.170382
_symmetry_space_group_name_H-M "F D D D"
_symmetry_group_IT_number 70
_space_group.IT_coordinate_system_code '2'
_symmetry_cell_setting 'orthorhombic'
loop_
_space_group_symop_operation_xyz
x,y,z
1/4-x,1/4-y,z
x,1/4-y,1/4-z
1/4-x,y,1/4-z
-x,-y,-z
3/4+x,3/4+y,-z
-x,3/4+y,3/4+z
3/4+x,-y,3/4+z
x,1/2+y,1/2+z
1/4-x,3/4-y,1/2+z
x,3/4-y,3/4-z
1/4-x,1/2+y,3/4-z
-x,1/2-y,1/2-z
3/4+x,1/4+y,1/2-z
-x,1/4+y,1/4+z
3/4+x,1/2-y,1/4+z
1/2+x,y,1/2+z
3/4-x,1/4-y,1/2+z
1/2+x,1/4-y,3/4-z
3/4-x,y,3/4-z
1/2-x,-y,1/2-z
1/4+x,3/4+y,1/2-z
1/2-x,3/4+y,1/4+z
1/4+x,-y,1/4+z
1/2+x,1/2+y,z
3/4-x,3/4-y,z
1/2+x,3/4-y,1/4-z
3/4-x,1/2+y,1/4-z
1/2-x,1/2-y,-z
1/4+x,1/4+y,-z
1/2-x,1/4+y,3/4+z
1/4+x,1/2-y,3/4+z
loop_
_atom_site_type_symbol
_atom_site_label
_atom_site_fract_x
_atom_site_fract_y
_atom_site_fract_z
Si Si1 0.625000 0.625000 0.625000
Si Si2 0.144904 0.744840 0.719589
Si Si3 0.814198 0.349554 0.218953
Si Si4 0.414346 0.530344 0.133805
Si Si5 0.964038 0.360101 0.734255
Si Si6 0.979183 0.625000 0.625000
Si Si7 0.993487 0.787389 0.507579
Si Si8 0.467836 0.035394 0.060830
O O1 0.665069 0.651891 0.556500
O O2 0.125000 0.730511 0.625000
O O3 0.177531 0.702124 0.757778
O O4 0.095753 0.759828 0.786848
O O5 0.191313 0.784085 0.706782
O O6 0.875000 0.375000 0.228327
O O7 0.797946 0.349144 0.116451
O O8 0.769270 0.371400 0.287589
O O9 0.441031 0.579831 0.125820
O O10 0.454879 0.498295 0.191328
O O11 0.350357 0.529966 0.175926
O O12 0.969152 0.413213 0.734892
O O13 0.019221 0.334056 0.770472
O O14 0.002261 0.779263 0.404869
O O15 0.500000 0.000000 0.000000
#
# Coordination Sequence:
#
# PCOD9516852 Si02
#       8
#     8  32  32  32  32  16  32  32
#     4  12  24  42  72 106 138 184 220 292 350 406
#     4  11  25  45  69 101 137 182 234 291 354 418
#     4  12  25  46  72 104 139 185 242 298 353 433
#     4  11  27  45  71 101 146 185 240 296 359 434
#     4  12  25  43  72 105 140 184 238 285 358 423
#     4  12  27  47  70 104 147 193 238 298 370 420
#     4  11  24  45  67 103 138 182 235 283 356 426
#     4  11  26  45  72 102 149 183 232 298 357 428
#
# _framework density 20.363582999999998
#
# number of rings (size 3 to 8) (size 9 to 14) (size 15 to 20)
#    0.000    0.593    3.704    3.778    8.296    1.185 
#    0.000    0.000    0.000    0.000    0.000    0.000 
#    0.000    0.000    0.000    0.000    0.000    0.000 
#
# Total GULP energy -301727.874662 kJ/mol
# GULP energy per Si atom -5587.553234 kJ/mol
# Density = 2.031723 g / cm^3
# Si number density = 20.363583 Si / 1000 Ang^3
#
#
#
# Elastic Constant Matrix: (Units=GPa)
#
#
# Indices 1 2 3 4 5 6 
#
# 1 69.6213 34.2693 70.6885 0.0000 0.0000 0.0000
# 2 34.2693 118.8954 52.0232 0.0000 0.0000 0.0000
# 3 70.6885 52.0232 176.8082 0.0000 0.0000 0.0000
# 4 0.0000 0.0000 0.0000 30.1621 0.0000 0.0000
# 5 0.0000 0.0000 0.0000 0.0000 23.0302 0.0000
# 6 0.0000 0.0000 0.0000 0.0000 0.0000 33.4221
#
#
#
# Elastic Compliance Matrix: (Units=1/GPa)
#
#
# Indices 1 2 3 4 5 6 
#
# 1 0.025247 -0.003283 -0.009128 0.000000 0.000000 0.000000
# 2 -0.003283 0.010081 -0.001653 0.000000 0.000000 0.000000
# 3 -0.009128 -0.001653 0.009792 0.000000 0.000000 0.000000
# 4 0.000000 0.000000 0.000000 0.033154 0.000000 0.000000
# 5 0.000000 0.000000 0.000000 0.000000 0.043421 0.000000
# 6 0.000000 0.000000 0.000000 0.000000 0.000000 0.029920
#
#
# Mechanical properties :
#
#
# Convention : Reuss Voigt Hill
#
# Bulk Modulus (GPa) = 58.85611 75.47630 67.16621
# Shear Modulus (GPa) = 26.96757 31.21247 29.09002
#
# Velocity S-wave (km/s) = 3.64305 3.91929 3.78369
# Velocity P-wave (km/s) = 6.83089 7.59118 7.22105
#
# Compressibility (1/GPa) = 0.01699059
#
# Stress axis : x y z
#
# Youngs Moduli (GPa) = 39.60821 99.20132 102.12694
#
# Poissons Ratio (x) = 0.32568 0.93221
# Poissons Ratio (y) = 0.13004 0.16886
# Poissons Ratio (z) = 0.36154 0.16403
#
# Static dielectric constant tensor:
#      x y z
#    x 2.021510 0.000000 0.000000 
#    y 0.000000 1.748750 0.000000 
#    z 0.000000 0.000000 1.940910 
# 
# From -- ./inp_files/29136.got.cif
#   From: 2010.05.17/outbox.cif.g08.bks.cpg/sg70_15_cif.got.tgz:29136.got - 2010.06.03 15:57:51.
