data_PCOD9516710
_publ_section_title
;
Structure prediction by ZEFSAII (Michael W. Deem and Ramdas Pophale) SiO2 
 PCOD9516710
Probable space group: F D D D
;
_chemical_formula_sum "Si O2"
_cell_formula_units_Z 144
_cell_length_a 20.258548
_cell_length_b 19.074228
_cell_length_c 13.748215
_cell_angle_alpha 90.000000
_cell_angle_beta 90.000000
_cell_angle_gamma 90.000000
_cell_volume 5312.532495
_symmetry_space_group_name_H-M "F D D D"
_symmetry_group_IT_number 70
_space_group.IT_coordinate_system_code '2'
_symmetry_cell_setting 'orthorhombic'
loop_
_space_group_symop_operation_xyz
x,y,z
1/4-x,1/4-y,z
x,1/4-y,1/4-z
1/4-x,y,1/4-z
-x,-y,-z
3/4+x,3/4+y,-z
-x,3/4+y,3/4+z
3/4+x,-y,3/4+z
x,1/2+y,1/2+z
1/4-x,3/4-y,1/2+z
x,3/4-y,3/4-z
1/4-x,1/2+y,3/4-z
-x,1/2-y,1/2-z
3/4+x,1/4+y,1/2-z
-x,1/4+y,1/4+z
3/4+x,1/2-y,1/4+z
1/2+x,y,1/2+z
3/4-x,1/4-y,1/2+z
1/2+x,1/4-y,3/4-z
3/4-x,y,3/4-z
1/2-x,-y,1/2-z
1/4+x,3/4+y,1/2-z
1/2-x,3/4+y,1/4+z
1/4+x,-y,1/4+z
1/2+x,1/2+y,z
3/4-x,3/4-y,z
1/2+x,3/4-y,1/4-z
3/4-x,1/2+y,1/4-z
1/2-x,1/2-y,-z
1/4+x,1/4+y,-z
1/2-x,1/4+y,3/4+z
1/4+x,1/2-y,3/4+z
loop_
_atom_site_type_symbol
_atom_site_label
_atom_site_fract_x
_atom_site_fract_y
_atom_site_fract_z
Si Si1 0.048535 0.491512 0.223902
Si Si2 0.557620 0.751105 0.302300
Si Si3 0.104584 0.381701 0.731008
Si Si4 0.440480 0.869843 0.492058
Si Si5 0.488866 0.875000 0.875000
O O1 0.040144 0.516018 0.335422
O O2 0.112231 0.443443 0.226050
O O3 0.988179 0.436982 0.209368
O O4 0.049346 0.553804 0.147413
O O5 0.611232 0.813240 0.302606
O O6 0.614074 0.682729 0.270021
O O7 0.495670 0.806740 0.251456
O O8 0.125000 0.413851 0.625000
O O9 0.033080 0.370521 0.776865
O O10 0.441089 0.875000 0.375000
#
# Coordination Sequence:
#
# PCOD9516710 Si02
#       5
#    32  32  32  32  16
#     4  12  25  48  68 106 152 196 248 314 374 470
#     4  12  21  42  70 103 143 186 237 310 380 437
#     4  12  26  48  78 108 152 201 255 321 391 460
#     4  11  23  37  64 102 138 178 242 306 375 437
#     4  12  28  48  77 112 149 208 262 308 392 464
#
# _framework density 27.105716000000001
#
# number of rings (size 3 to 8) (size 9 to 14) (size 15 to 20)
#    0.000    0.222    6.667    2.667    3.111    0.889 
#    0.000    0.556    0.000    0.000    0.000    0.000 
#    0.000    0.000    0.000    0.000    0.000    0.000 
#
# Total GULP energy -200756.200037 kJ/mol
# GULP energy per Si atom -5576.561112 kJ/mol
# Density = 2.704402 g / cm^3
# Si number density = 27.105716 Si / 1000 Ang^3
#
#
#
# Elastic Constant Matrix: (Units=GPa)
#
#
# Indices 1 2 3 4 5 6 
#
# 1 99.0527 64.8136 12.9500 0.0000 0.0000 0.0000
# 2 64.8136 257.1646 59.5998 0.0000 0.0000 0.0000
# 3 12.9500 59.5998 129.7396 0.0000 0.0000 0.0000
# 4 0.0000 0.0000 0.0000 63.4658 0.0000 0.0000
# 5 0.0000 0.0000 0.0000 0.0000 24.1247 0.0000
# 6 0.0000 0.0000 0.0000 0.0000 0.0000 30.9754
#
#
#
# Elastic Compliance Matrix: (Units=1/GPa)
#
#
# Indices 1 2 3 4 5 6 
#
# 1 0.012095 -0.003098 0.000216 0.000000 0.000000 0.000000
# 2 -0.003098 0.005146 -0.002055 0.000000 0.000000 0.000000
# 3 0.000216 -0.002055 0.008630 0.000000 0.000000 0.000000
# 4 0.000000 0.000000 0.000000 0.015757 0.000000 0.000000
# 5 0.000000 0.000000 0.000000 0.000000 0.041451 0.000000
# 6 0.000000 0.000000 0.000000 0.000000 0.000000 0.032284
#
#
# Mechanical properties :
#
#
# Convention : Reuss Voigt Hill
#
# Bulk Modulus (GPa) = 62.51270 84.52040 73.51655
# Shear Modulus (GPa) = 38.29431 46.95273 42.62352
#
# Velocity S-wave (km/s) = 3.76277 4.16650 3.96977
# Velocity P-wave (km/s) = 6.48001 7.37534 6.94213
#
# Compressibility (1/GPa) = 0.01599675
#
# Stress axis : x y z
#
# Youngs Moduli (GPa) = 82.68061 194.34122 115.87500
#
# Poissons Ratio (x) = 0.60213 -0.02504
# Poissons Ratio (y) = 0.25617 0.23807
# Poissons Ratio (z) = -0.01786 0.39928
#
# Static dielectric constant tensor:
#      x y z
#    x 2.617780 0.000000 0.000000 
#    y 0.000000 2.491920 0.000000 
#    z 0.000000 0.000000 2.115700 
# 
# From -- ./inp_files/30861.got.cif
#   From: 2010.05.17/outbox.cif.g08.bks.cpg/sg70_16_cif.got.tgz:30861.got - 2010.06.03 15:57:51.
