data_PCOD9516722
_publ_section_title
;
Structure prediction by ZEFSAII (Michael W. Deem and Ramdas Pophale) SiO2 
 PCOD9516722
Probable space group: F D D D
;
_chemical_formula_sum "Si O2"
_cell_formula_units_Z 216
_cell_length_a 27.089550
_cell_length_b 11.359963
_cell_length_c 32.247580
_cell_angle_alpha 90.000000
_cell_angle_beta 90.000000
_cell_angle_gamma 90.000000
_cell_volume 9923.750492
_symmetry_space_group_name_H-M "F D D D"
_symmetry_group_IT_number 70
_space_group.IT_coordinate_system_code '2'
_symmetry_cell_setting 'orthorhombic'
loop_
_space_group_symop_operation_xyz
x,y,z
1/4-x,1/4-y,z
x,1/4-y,1/4-z
1/4-x,y,1/4-z
-x,-y,-z
3/4+x,3/4+y,-z
-x,3/4+y,3/4+z
3/4+x,-y,3/4+z
x,1/2+y,1/2+z
1/4-x,3/4-y,1/2+z
x,3/4-y,3/4-z
1/4-x,1/2+y,3/4-z
-x,1/2-y,1/2-z
3/4+x,1/4+y,1/2-z
-x,1/4+y,1/4+z
3/4+x,1/2-y,1/4+z
1/2+x,y,1/2+z
3/4-x,1/4-y,1/2+z
1/2+x,1/4-y,3/4-z
3/4-x,y,3/4-z
1/2-x,-y,1/2-z
1/4+x,3/4+y,1/2-z
1/2-x,3/4+y,1/4+z
1/4+x,-y,1/4+z
1/2+x,1/2+y,z
3/4-x,3/4-y,z
1/2+x,3/4-y,1/4-z
3/4-x,1/2+y,1/4-z
1/2-x,1/2-y,-z
1/4+x,1/4+y,-z
1/2-x,1/4+y,3/4+z
1/4+x,1/2-y,3/4+z
loop_
_atom_site_type_symbol
_atom_site_label
_atom_site_fract_x
_atom_site_fract_y
_atom_site_fract_z
Si Si1 0.352111 0.003356 0.335868
Si Si2 0.625000 0.125000 0.125000
Si Si3 0.282925 0.485228 0.328013
Si Si4 0.507827 0.744156 0.523018
Si Si5 0.082093 0.905076 0.233332
Si Si6 0.602525 0.253152 0.959004
Si Si7 0.820034 0.125000 0.625000
Si Si8 0.500574 0.089857 0.399043
O O1 0.375000 0.072028 0.375000
O O2 0.375000 0.875000 0.334258
O O3 0.370764 0.058651 0.293668
O O4 0.296268 0.003390 0.349048
O O5 0.664107 0.192607 0.095898
O O6 0.261552 0.375191 0.301581
O O7 0.294186 0.586338 0.295649
O O8 0.253855 0.553070 0.365186
O O9 0.453886 0.752591 0.501855
O O10 0.553192 0.746905 0.489316
O O11 0.506229 0.847724 0.556632
O O12 0.104059 0.818756 0.266813
O O13 0.594579 0.327431 0.917217
O O14 0.625000 0.125000 0.949859
O O15 0.793139 0.246982 0.610522
#
# Coordination Sequence:
#
# PCOD9516722 Si02
#       8
#    32   8  32  32  32  32  16  32
#     4  11  23  40  68 106 144 188 236 300 376 447
#     4  12  20  36  74 110 148 184 230 308 382 428
#     4  12  22  41  71 114 146 184 239 311 376 435
#     4  12  26  45  78 113 144 195 242 318 377 449
#     4  12  25  43  73 107 145 186 251 310 376 431
#     4  12  28  51  75 104 148 197 256 313 372 449
#     4  12  32  50  74 102 152 212 244 306 372 458
#     4  12  25  47  72 110 154 189 247 300 376 455
#
# _framework density 21.765964
#
# number of rings (size 3 to 8) (size 9 to 14) (size 15 to 20)
#    0.000    0.148    5.926    4.000    4.148    2.963 
#    0.000    0.000    0.000    0.000    0.000    0.000 
#    0.000    0.000    0.000    0.000    0.000    0.000 
#
# Total GULP energy -300971.770745 kJ/mol
# GULP energy per Si atom -5573.551310 kJ/mol
# Density = 2.171642 g / cm^3
# Si number density = 21.765964 Si / 1000 Ang^3
#
#
#
# Elastic Constant Matrix: (Units=GPa)
#
#
# Indices 1 2 3 4 5 6 
#
# 1 29.0292 -9.0966 18.6933 0.0000 0.0000 0.0000
# 2 -9.0966 54.8627 33.6277 0.0000 0.0000 0.0000
# 3 18.6933 33.6277 120.4021 0.0000 0.0000 0.0000
# 4 0.0000 0.0000 0.0000 46.7243 0.0000 0.0000
# 5 0.0000 0.0000 0.0000 0.0000 41.0455 0.0000
# 6 0.0000 0.0000 0.0000 0.0000 0.0000 53.6217
#
#
#
# Elastic Compliance Matrix: (Units=1/GPa)
#
#
# Indices 1 2 3 4 5 6 
#
# 1 0.046256 0.014565 -0.011250 0.000000 0.000000 0.000000
# 2 0.014565 0.026578 -0.009685 0.000000 0.000000 0.000000
# 3 -0.011250 -0.009685 0.012757 0.000000 0.000000 0.000000
# 4 0.000000 0.000000 0.000000 0.021402 0.000000 0.000000
# 5 0.000000 0.000000 0.000000 0.000000 0.024363 0.000000
# 6 0.000000 0.000000 0.000000 0.000000 0.000000 0.018649
#
#
# Mechanical properties :
#
#
# Convention : Reuss Voigt Hill
#
# Bulk Modulus (GPa) = 13.72620 32.30475 23.01548
# Shear Modulus (GPa) = 26.73387 39.01629 32.87508
#
# Velocity S-wave (km/s) = 3.50843 4.23843 3.89059
# Velocity P-wave (km/s) = 4.76782 6.23109 5.54791
#
# Compressibility (1/GPa) = 0.07285336
#
# Stress axis : x y z
#
# Youngs Moduli (GPa) = 21.61868 37.62461 78.38893
#
# Poissons Ratio (x) = -0.54800 0.88184
# Poissons Ratio (y) = -0.31487 0.75916
# Poissons Ratio (z) = 0.24320 0.36438
#
# Static dielectric constant tensor:
#      x y z
#    x 1.687170 0.000000 0.000000 
#    y 0.000000 1.176190 0.000000 
#    z 0.000000 0.000000 1.900300 
# 
# From -- ./inp_files/69014.got.cif
#   From: 2010.05.17/outbox.cif.g08.bks.cpg/sg70_35_cif.got.tgz:69014.got - 2010.06.03 15:57:51.
