data_PCOD9516343
_publ_section_title
;
Structure prediction by ZEFSAII (Michael W. Deem and Ramdas Pophale) SiO2 
 PCOD9516343
Probable space group: F D D D
;
_chemical_formula_sum "Si O2"
_cell_formula_units_Z 176
_cell_length_a 12.433355
_cell_length_b 21.028472
_cell_length_c 32.583786
_cell_angle_alpha 90.000000
_cell_angle_beta 90.000000
_cell_angle_gamma 90.000000
_cell_volume 8519.176091
_symmetry_space_group_name_H-M "F D D D"
_symmetry_group_IT_number 70
_space_group.IT_coordinate_system_code '2'
_symmetry_cell_setting 'orthorhombic'
loop_
_space_group_symop_operation_xyz
x,y,z
1/4-x,1/4-y,z
x,1/4-y,1/4-z
1/4-x,y,1/4-z
-x,-y,-z
3/4+x,3/4+y,-z
-x,3/4+y,3/4+z
3/4+x,-y,3/4+z
x,1/2+y,1/2+z
1/4-x,3/4-y,1/2+z
x,3/4-y,3/4-z
1/4-x,1/2+y,3/4-z
-x,1/2-y,1/2-z
3/4+x,1/4+y,1/2-z
-x,1/4+y,1/4+z
3/4+x,1/2-y,1/4+z
1/2+x,y,1/2+z
3/4-x,1/4-y,1/2+z
1/2+x,1/4-y,3/4-z
3/4-x,y,3/4-z
1/2-x,-y,1/2-z
1/4+x,3/4+y,1/2-z
1/2-x,3/4+y,1/4+z
1/4+x,-y,1/4+z
1/2+x,1/2+y,z
3/4-x,3/4-y,z
1/2+x,3/4-y,1/4-z
3/4-x,1/2+y,1/4-z
1/2-x,1/2-y,-z
1/4+x,1/4+y,-z
1/2-x,1/4+y,3/4+z
1/4+x,1/2-y,3/4+z
loop_
_atom_site_type_symbol
_atom_site_label
_atom_site_fract_x
_atom_site_fract_y
_atom_site_fract_z
Si Si1 0.045224 0.292593 0.787767
Si Si2 0.328493 0.440866 0.828600
Si Si3 0.375000 0.375000 0.579632
Si Si4 0.510954 0.269532 0.130405
Si Si5 0.922938 0.189025 0.555809
Si Si6 0.232508 0.776830 0.716578
O O1 0.042007 0.368366 0.791473
O O2 0.169807 0.272162 0.790878
O O3 0.000000 0.250000 0.750000
O O4 0.982850 0.270170 0.827905
O O5 0.375000 0.441891 0.875000
O O6 0.375000 0.375000 0.810062
O O7 0.200753 0.438789 0.821504
O O8 0.379813 0.502951 0.808259
O O9 0.420360 0.429330 0.609192
O O10 0.283453 0.406889 0.550506
O O11 0.625000 0.303041 0.125000
O O12 0.484913 0.222648 0.093115
O O13 0.947723 0.225895 0.513830
#
# Coordination Sequence:
#
# PCOD9516343 Si02
#       6
#    32  32  16  32  32  32
#     4  11  23  42  66  94 134 182 225 281 352 423
#     4  11  23  42  69  95 132 179 230 281 345 420
#     4  10  24  46  70  92 143 194 231 280 370 428
#     4  11  25  42  65 101 133 175 231 292 349 422
#     4  12  24  41  69 102 134 178 232 291 350 418
#     4  11  23  43  64  96 132 179 229 279 348 420
#
# _framework density 20.659275000000001
#
# number of rings (size 3 to 8) (size 9 to 14) (size 15 to 20)
#    0.000    0.909    1.818    6.545    2.545    5.091 
#    1.636    0.000    0.000    0.000    0.000    0.000 
#    0.000    0.000    0.000    0.000    0.000    0.000 
#
# Total GULP energy -245440.921100 kJ/mol
# GULP energy per Si atom -5578.202752 kJ/mol
# Density = 2.061225 g / cm^3
# Si number density = 20.659275 Si / 1000 Ang^3
#
#
#
# Elastic Constant Matrix: (Units=GPa)
#
#
# Indices 1 2 3 4 5 6 
#
# 1 96.9402 29.3963 33.3684 0.0000 0.0000 0.0000
# 2 29.3963 80.8989 53.9638 0.0000 0.0000 0.0000
# 3 33.3684 53.9638 151.6468 0.0000 0.0000 0.0000
# 4 0.0000 0.0000 0.0000 20.9904 0.0000 0.0000
# 5 0.0000 0.0000 0.0000 0.0000 31.2315 0.0000
# 6 0.0000 0.0000 0.0000 0.0000 0.0000 27.6825
#
#
#
# Elastic Compliance Matrix: (Units=1/GPa)
#
#
# Indices 1 2 3 4 5 6 
#
# 1 0.011817 -0.003356 -0.001406 0.000000 0.000000 0.000000
# 2 -0.003356 0.017162 -0.005369 0.000000 0.000000 0.000000
# 3 -0.001406 -0.005369 0.008814 0.000000 0.000000 0.000000
# 4 0.000000 0.000000 0.000000 0.047641 0.000000 0.000000
# 5 0.000000 0.000000 0.000000 0.000000 0.032019 0.000000
# 6 0.000000 0.000000 0.000000 0.000000 0.000000 0.036124
#
#
# Mechanical properties :
#
#
# Convention : Reuss Voigt Hill
#
# Bulk Modulus (GPa) = 57.03960 62.54921 59.79441
# Shear Modulus (GPa) = 27.82691 30.16470 28.99580
#
# Velocity S-wave (km/s) = 3.67406 3.82528 3.75043
# Velocity P-wave (km/s) = 6.75780 7.06064 6.91088
#
# Compressibility (1/GPa) = 0.01753168
#
# Stress axis : x y z
#
# Youngs Moduli (GPa) = 84.62140 58.26907 113.45532
#
# Poissons Ratio (x) = 0.19556 0.15952
# Poissons Ratio (y) = 0.28401 0.60909
# Poissons Ratio (z) = 0.11898 0.31282
#
# Static dielectric constant tensor:
#      x y z
#    x 1.777860 0.000000 0.000000 
#    y 0.000000 1.792090 0.000000 
#    z 0.000000 0.000000 1.740130 
# 
# From -- ./inp_files/64765.got.cif
#   From: 2010.05.17/outbox.cif.g08.bks.cpg/sg70_33_cif.got.tgz:64765.got - 2010.06.03 15:57:51.
