data_PCOD9516964
_publ_section_title
;
Structure prediction by ZEFSAII (Michael W. Deem and Ramdas Pophale) SiO2 
 PCOD9516964
Probable space group: F D D D
;
_chemical_formula_sum "Si O2"
_cell_formula_units_Z 104
_cell_length_a 14.391377
_cell_length_b 34.089445
_cell_length_c 9.463476
_cell_angle_alpha 90.000000
_cell_angle_beta 90.000000
_cell_angle_gamma 90.000000
_cell_volume 4642.725063
_symmetry_space_group_name_H-M "F D D D"
_symmetry_group_IT_number 70
_space_group.IT_coordinate_system_code '2'
_symmetry_cell_setting 'orthorhombic'
loop_
_space_group_symop_operation_xyz
x,y,z
1/4-x,1/4-y,z
x,1/4-y,1/4-z
1/4-x,y,1/4-z
-x,-y,-z
3/4+x,3/4+y,-z
-x,3/4+y,3/4+z
3/4+x,-y,3/4+z
x,1/2+y,1/2+z
1/4-x,3/4-y,1/2+z
x,3/4-y,3/4-z
1/4-x,1/2+y,3/4-z
-x,1/2-y,1/2-z
3/4+x,1/4+y,1/2-z
-x,1/4+y,1/4+z
3/4+x,1/2-y,1/4+z
1/2+x,y,1/2+z
3/4-x,1/4-y,1/2+z
1/2+x,1/4-y,3/4-z
3/4-x,y,3/4-z
1/2-x,-y,1/2-z
1/4+x,3/4+y,1/2-z
1/2-x,3/4+y,1/4+z
1/4+x,-y,1/4+z
1/2+x,1/2+y,z
3/4-x,3/4-y,z
1/2+x,3/4-y,1/4-z
3/4-x,1/2+y,1/4-z
1/2-x,1/2-y,-z
1/4+x,1/4+y,-z
1/2-x,1/4+y,3/4+z
1/4+x,1/2-y,3/4+z
loop_
_atom_site_type_symbol
_atom_site_label
_atom_site_fract_x
_atom_site_fract_y
_atom_site_fract_z
Si Si1 0.618535 0.772889 0.459119
Si Si2 0.233718 0.081694 0.166668
Si Si3 0.625000 0.125000 0.125000
Si Si4 0.518199 0.055959 0.269816
O O1 0.625000 0.781805 0.625000
O O2 0.527021 0.796357 0.418919
O O3 0.597853 0.726603 0.450531
O O4 0.698259 0.787465 0.348612
O O5 0.270513 0.125000 0.125000
O O6 0.125000 0.082476 0.125000
O O7 0.236502 0.930356 0.174781
O O8 0.561052 0.095761 0.211534
#
# Coordination Sequence:
#
# PCOD9516964 Si02
#       4
#    32  32   8  32
#     4  12  27  47  77 112 152 199 253 313 379 455
#     4  11  26  47  76 108 155 200 257 311 380 447
#     4  12  28  44  78 108 154 192 254 312 380 432
#     4  12  27  48  76 110 152 200 256 313 380 455
#
# _framework density 22.400637
#
# number of rings (size 3 to 8) (size 9 to 14) (size 15 to 20)
#    0.000    0.308    1.538    6.462   10.769    0.000 
#    0.000    0.000    0.000    0.000    0.000    0.000 
#    0.000    0.000    0.000    0.000    0.000    0.000 
#
# Total GULP energy -145149.888506 kJ/mol
# GULP energy per Si atom -5582.688019 kJ/mol
# Density = 2.234965 g / cm^3
# Si number density = 22.400637 Si / 1000 Ang^3
#
#
#
# Elastic Constant Matrix: (Units=GPa)
#
#
# Indices 1 2 3 4 5 6 
#
# 1 72.6783 51.1762 40.7353 0.0000 0.0000 0.0000
# 2 51.1762 164.7560 76.5462 0.0000 0.0000 0.0000
# 3 40.7353 76.5462 196.4355 0.0000 0.0000 0.0000
# 4 0.0000 0.0000 0.0000 29.5794 0.0000 0.0000
# 5 0.0000 0.0000 0.0000 0.0000 -50.9226 0.0000
# 6 0.0000 0.0000 0.0000 0.0000 0.0000 101.2023
#
#
#
# Elastic Compliance Matrix: (Units=1/GPa)
#
#
# Indices 1 2 3 4 5 6 
#
# 1 0.018184 -0.004758 -0.001917 0.000000 0.000000 0.000000
# 2 -0.004758 0.008656 -0.002387 0.000000 0.000000 0.000000
# 3 -0.001917 -0.002387 0.006418 0.000000 0.000000 0.000000
# 4 0.000000 0.000000 0.000000 0.033807 0.000000 0.000000
# 5 0.000000 0.000000 0.000000 0.000000 -0.019638 0.000000
# 6 0.000000 0.000000 0.000000 0.000000 0.000000 0.009881
#
#
# Mechanical properties :
#
#
# Convention : Reuss Voigt Hill
#
# Bulk Modulus (GPa) = 66.06722 85.64280 75.85501
# Shear Modulus (GPa) = 62.13010 33.66594 47.89802
#
# Velocity S-wave (km/s) = 5.27220 3.88093 4.62913
# Velocity P-wave (km/s) = 8.16204 7.64182 7.90621
#
# Compressibility (1/GPa) = 0.01513610
#
# Stress axis : x y z
#
# Youngs Moduli (GPa) = 54.99432 115.52469 155.80690
#
# Poissons Ratio (x) = 0.54962 0.29866
# Poissons Ratio (y) = 0.26164 0.37183
# Poissons Ratio (z) = 0.10542 0.27570
#
# Static dielectric constant tensor:
#      x y z
#    x 1.840660 0.000000 0.000000 
#    y 0.000000 1.759780 0.000000 
#    z 0.000000 0.000000 1.878190 
# 
# From -- ./inp_files/16126.got.cif
#   From: 2010.05.17/outbox.cif.g08.bks.cpg/sg70_9_cif.got.tgz:16126.got - 2010.06.03 15:57:51.
