data_PCOD9516365
_publ_section_title
;
Structure prediction by ZEFSAII (Michael W. Deem and Ramdas Pophale) SiO2 
 PCOD9516365
Probable space group: F D D D
;
_chemical_formula_sum "Si O2"
_cell_formula_units_Z 104
_cell_length_a 7.945403
_cell_length_b 27.913310
_cell_length_c 18.699804
_cell_angle_alpha 90.000000
_cell_angle_beta 90.000000
_cell_angle_gamma 90.000000
_cell_volume 4147.289225
_symmetry_space_group_name_H-M "F D D D"
_symmetry_group_IT_number 70
_space_group.IT_coordinate_system_code '2'
_symmetry_cell_setting 'orthorhombic'
loop_
_space_group_symop_operation_xyz
x,y,z
1/4-x,1/4-y,z
x,1/4-y,1/4-z
1/4-x,y,1/4-z
-x,-y,-z
3/4+x,3/4+y,-z
-x,3/4+y,3/4+z
3/4+x,-y,3/4+z
x,1/2+y,1/2+z
1/4-x,3/4-y,1/2+z
x,3/4-y,3/4-z
1/4-x,1/2+y,3/4-z
-x,1/2-y,1/2-z
3/4+x,1/4+y,1/2-z
-x,1/4+y,1/4+z
3/4+x,1/2-y,1/4+z
1/2+x,y,1/2+z
3/4-x,1/4-y,1/2+z
1/2+x,1/4-y,3/4-z
3/4-x,y,3/4-z
1/2-x,-y,1/2-z
1/4+x,3/4+y,1/2-z
1/2-x,3/4+y,1/4+z
1/4+x,-y,1/4+z
1/2+x,1/2+y,z
3/4-x,3/4-y,z
1/2+x,3/4-y,1/4-z
3/4-x,1/2+y,1/4-z
1/2-x,1/2-y,-z
1/4+x,1/4+y,-z
1/2-x,1/4+y,3/4+z
1/4+x,1/2-y,3/4+z
loop_
_atom_site_type_symbol
_atom_site_label
_atom_site_fract_x
_atom_site_fract_y
_atom_site_fract_z
Si Si1 0.026385 0.524928 0.923423
Si Si2 0.540331 0.201853 0.790590
Si Si3 0.875000 0.375000 0.875000
Si Si4 0.633753 0.855475 0.503439
O O1 0.184203 0.528276 0.871291
O O2 0.875000 0.504937 0.875000
O O3 0.997406 0.581051 0.937302
O O4 0.000000 0.500000 0.000000
O O5 0.500000 0.250000 0.750000
O O6 0.408835 0.159897 0.772823
O O7 0.713629 0.176893 0.759984
O O8 0.740311 0.399015 0.819941
#
# Coordination Sequence:
#
# PCOD9516365 Si02
#       4
#    32  32   8  32
#     4  10  24  47  77 114 157 203 267 327 416 493
#     4  10  24  52  84 119 161 216 278 347 420 510
#     4  12  28  46  80 116 168 214 282 344 420 502
#     4  10  26  49  80 113 169 214 274 339 433 499
#
# _framework density 25.076619999999998
#
# number of rings (size 3 to 8) (size 9 to 14) (size 15 to 20)
#    0.000    1.846    0.000    0.000    6.462   12.308 
#    5.538   12.308    0.000    0.000    0.000    0.000 
#    0.000    0.000    0.000    0.000    0.000    0.000 
#
# Total GULP energy -145098.992616 kJ/mol
# GULP energy per Si atom -5580.730485 kJ/mol
# Density = 2.501954 g / cm^3
# Si number density = 25.076620 Si / 1000 Ang^3
#
#
#
# Elastic Constant Matrix: (Units=GPa)
#
#
# Indices 1 2 3 4 5 6 
#
# 1 121.1328 52.4296 66.9969 0.0000 0.0000 0.0000
# 2 52.4296 203.1154 86.1747 0.0000 0.0000 0.0000
# 3 66.9969 86.1747 222.7642 0.0000 0.0000 0.0000
# 4 0.0000 0.0000 0.0000 56.7387 0.0000 0.0000
# 5 0.0000 0.0000 0.0000 0.0000 62.5308 0.0000
# 6 0.0000 0.0000 0.0000 0.0000 0.0000 24.2900
#
#
#
# Elastic Compliance Matrix: (Units=1/GPa)
#
#
# Indices 1 2 3 4 5 6 
#
# 1 0.010326 -0.001612 -0.002482 0.000000 0.000000 0.000000
# 2 -0.001612 0.006142 -0.001891 0.000000 0.000000 0.000000
# 3 -0.002482 -0.001891 0.005967 0.000000 0.000000 0.000000
# 4 0.000000 0.000000 0.000000 0.017625 0.000000 0.000000
# 5 0.000000 0.000000 0.000000 0.000000 0.015992 0.000000
# 6 0.000000 0.000000 0.000000 0.000000 0.000000 0.041169
#
#
# Mechanical properties :
#
#
# Convention : Reuss Voigt Hill
#
# Bulk Modulus (GPa) = 95.56310 106.46833 101.01571
# Shear Modulus (GPa) = 44.37377 51.47266 47.92322
#
# Velocity S-wave (km/s) = 4.21114 4.53550 4.37632
# Velocity P-wave (km/s) = 7.86359 8.36523 8.11828
#
# Compressibility (1/GPa) = 0.01046429
#
# Stress axis : x y z
#
# Youngs Moduli (GPa) = 96.84317 162.81876 167.58961
#
# Poissons Ratio (x) = 0.26254 0.41592
# Poissons Ratio (y) = 0.15616 0.31690
# Poissons Ratio (z) = 0.24034 0.30788
#
# Static dielectric constant tensor:
#      x y z
#    x 2.143820 0.000000 0.000000 
#    y 0.000000 1.991270 0.000000 
#    z 0.000000 0.000000 2.018210 
# 
# From -- ./inp_files/41150.got.cif
#   From: 2010.05.17/outbox.cif.g08.bks.cpg/sg70_21_cif.got.tgz:41150.got - 2010.06.03 15:57:51.
