data_PCOD9516963
_publ_section_title
;
Structure prediction by ZEFSAII (Michael W. Deem and Ramdas Pophale) SiO2 
 PCOD9516963
Probable space group: F D D D
;
_chemical_formula_sum "Si O2"
_cell_formula_units_Z 160
_cell_length_a 18.871809
_cell_length_b 18.546614
_cell_length_c 19.942969
_cell_angle_alpha 90.000000
_cell_angle_beta 90.000000
_cell_angle_gamma 90.000000
_cell_volume 6980.201825
_symmetry_space_group_name_H-M "F D D D"
_symmetry_group_IT_number 70
_space_group.IT_coordinate_system_code '2'
_symmetry_cell_setting 'orthorhombic'
loop_
_space_group_symop_operation_xyz
x,y,z
1/4-x,1/4-y,z
x,1/4-y,1/4-z
1/4-x,y,1/4-z
-x,-y,-z
3/4+x,3/4+y,-z
-x,3/4+y,3/4+z
3/4+x,-y,3/4+z
x,1/2+y,1/2+z
1/4-x,3/4-y,1/2+z
x,3/4-y,3/4-z
1/4-x,1/2+y,3/4-z
-x,1/2-y,1/2-z
3/4+x,1/4+y,1/2-z
-x,1/4+y,1/4+z
3/4+x,1/2-y,1/4+z
1/2+x,y,1/2+z
3/4-x,1/4-y,1/2+z
1/2+x,1/4-y,3/4-z
3/4-x,y,3/4-z
1/2-x,-y,1/2-z
1/4+x,3/4+y,1/2-z
1/2-x,3/4+y,1/4+z
1/4+x,-y,1/4+z
1/2+x,1/2+y,z
3/4-x,3/4-y,z
1/2+x,3/4-y,1/4-z
3/4-x,1/2+y,1/4-z
1/2-x,1/2-y,-z
1/4+x,1/4+y,-z
1/2-x,1/4+y,3/4+z
1/4+x,1/2-y,3/4+z
loop_
_atom_site_type_symbol
_atom_site_label
_atom_site_fract_x
_atom_site_fract_y
_atom_site_fract_z
Si Si1 0.643754 0.797222 0.050326
Si Si2 0.138068 0.041532 0.774839
Si Si3 0.240670 0.738852 0.757712
Si Si4 0.261656 0.293145 0.399693
Si Si5 0.263669 0.847171 0.448411
O O1 0.625000 0.826150 0.125000
O O2 0.684656 0.720654 0.061763
O O3 0.569064 0.795925 0.011776
O O4 0.697954 0.832334 0.997822
O O5 0.125000 0.125000 0.795800
O O6 0.171221 0.044321 0.699602
O O7 0.195331 0.993518 0.813300
O O8 0.062201 0.004037 0.782572
O O9 0.266612 0.745046 0.833302
O O10 0.203332 0.664868 0.737259
O O11 0.249740 0.375000 0.375000
O O12 0.242816 0.875000 0.375000
#
# Coordination Sequence:
#
# PCOD9516963 Si02
#       5
#    32  32  32  32  32
#     4  11  26  47  76 108 152 198 255 309 389 458
#     4  11  26  47  76 108 152 198 255 309 389 458
#     4  12  26  40  78 106 144 198 250 314 382 446
#     4  11  26  49  74 107 154 200 247 319 386 457
#     4  11  26  49  74 107 154 200 247 319 386 457
#
# _framework density 22.921973000000001
#
# number of rings (size 3 to 8) (size 9 to 14) (size 15 to 20)
#    0.000    0.800    4.000    1.200    5.600    4.800 
#    0.000    0.000    0.000    0.000    0.000    0.000 
#    0.000    0.000    0.000    0.000    0.000    0.000 
#
# Total GULP energy -223331.236403 kJ/mol
# GULP energy per Si atom -5583.280910 kJ/mol
# Density = 2.286980 g / cm^3
# Si number density = 22.921973 Si / 1000 Ang^3
#
#
#
# Elastic Constant Matrix: (Units=GPa)
#
#
# Indices 1 2 3 4 5 6 
#
# 1 138.7230 4.2310 30.9489 0.0000 0.0000 0.0000
# 2 4.2310 62.0814 51.3278 0.0000 0.0000 0.0000
# 3 30.9489 51.3278 92.4279 0.0000 0.0000 0.0000
# 4 0.0000 0.0000 0.0000 39.5599 0.0000 0.0000
# 5 0.0000 0.0000 0.0000 0.0000 12.0028 0.0000
# 6 0.0000 0.0000 0.0000 0.0000 0.0000 23.5892
#
#
#
# Elastic Compliance Matrix: (Units=1/GPa)
#
#
# Indices 1 2 3 4 5 6 
#
# 1 0.008106 0.003128 -0.004451 0.000000 0.000000 0.000000
# 2 0.003128 0.030988 -0.018256 0.000000 0.000000 0.000000
# 3 -0.004451 -0.018256 0.022448 0.000000 0.000000 0.000000
# 4 0.000000 0.000000 0.000000 0.025278 0.000000 0.000000
# 5 0.000000 0.000000 0.000000 0.000000 0.083314 0.000000
# 6 0.000000 0.000000 0.000000 0.000000 0.000000 0.042392
#
#
# Mechanical properties :
#
#
# Convention : Reuss Voigt Hill
#
# Bulk Modulus (GPa) = 44.67590 51.80531 48.24060
# Shear Modulus (GPa) = 19.29404 28.81201 24.05302
#
# Velocity S-wave (km/s) = 2.90440 3.54921 3.24287
# Velocity P-wave (km/s) = 5.54798 6.28058 5.92561
#
# Compressibility (1/GPa) = 0.02238343
#
# Stress axis : x y z
#
# Youngs Moduli (GPa) = 123.36101 32.27004 44.54775
#
# Poissons Ratio (x) = -0.10093 0.19829
# Poissons Ratio (y) = -0.38584 0.81327
# Poissons Ratio (z) = 0.54911 0.58912
#
# Static dielectric constant tensor:
#      x y z
#    x 1.795950 0.000000 0.000000 
#    y 0.000000 1.989740 0.000000 
#    z 0.000000 0.000000 1.880370 
# 
# From -- ./inp_files/43664.got.cif
#   From: 2010.05.17/outbox.cif.g08.bks.cpg/sg70_22_cif.got.tgz:43664.got - 2010.06.03 15:57:51.
