data_PCOD9516929
_publ_section_title
;
Structure prediction by ZEFSAII (Michael W. Deem and Ramdas Pophale) SiO2 
 PCOD9516929
Probable space group: F D D D
;
_chemical_formula_sum "Si O2"
_cell_formula_units_Z 104
_cell_length_a 25.445625
_cell_length_b 9.004740
_cell_length_c 17.918765
_cell_angle_alpha 90.000000
_cell_angle_beta 90.000000
_cell_angle_gamma 90.000000
_cell_volume 4105.748795
_symmetry_space_group_name_H-M "F D D D"
_symmetry_group_IT_number 70
_space_group.IT_coordinate_system_code '2'
_symmetry_cell_setting 'orthorhombic'
loop_
_space_group_symop_operation_xyz
x,y,z
1/4-x,1/4-y,z
x,1/4-y,1/4-z
1/4-x,y,1/4-z
-x,-y,-z
3/4+x,3/4+y,-z
-x,3/4+y,3/4+z
3/4+x,-y,3/4+z
x,1/2+y,1/2+z
1/4-x,3/4-y,1/2+z
x,3/4-y,3/4-z
1/4-x,1/2+y,3/4-z
-x,1/2-y,1/2-z
3/4+x,1/4+y,1/2-z
-x,1/4+y,1/4+z
3/4+x,1/2-y,1/4+z
1/2+x,y,1/2+z
3/4-x,1/4-y,1/2+z
1/2+x,1/4-y,3/4-z
3/4-x,y,3/4-z
1/2-x,-y,1/2-z
1/4+x,3/4+y,1/2-z
1/2-x,3/4+y,1/4+z
1/4+x,-y,1/4+z
1/2+x,1/2+y,z
3/4-x,3/4-y,z
1/2+x,3/4-y,1/4-z
3/4-x,1/2+y,1/4-z
1/2-x,1/2-y,-z
1/4+x,1/4+y,-z
1/2-x,1/4+y,3/4+z
1/4+x,1/2-y,3/4+z
loop_
_atom_site_type_symbol
_atom_site_label
_atom_site_fract_x
_atom_site_fract_y
_atom_site_fract_z
Si Si1 0.125000 0.625000 0.748491
Si Si2 0.473174 0.410573 0.266376
Si Si3 0.875000 0.875000 0.375000
Si Si4 0.967852 0.827040 0.657375
Si Si5 0.693441 0.625000 0.125000
O O1 0.085790 0.712202 0.801065
O O2 0.159548 0.713298 0.686686
O O3 0.500000 0.250000 0.250000
O O4 0.419768 0.426997 0.314405
O O5 0.460833 0.451357 0.180562
O O6 0.515256 0.239494 0.437479
O O7 0.020113 0.732328 0.672100
#
# Coordination Sequence:
#
# PCOD9516929 Si02
#       5
#    16  32   8  32  16
#     4  11  25  46  77 111 148 216 258 333 419 470
#     4  12  26  49  77 114 157 209 268 334 408 487
#     4  12  26  48  80 114 154 218 256 340 412 482
#     4  12  25  51  76 111 164 201 276 336 399 501
#     4  11  26  48  75 116 155 208 268 337 406 492
#
# _framework density 25.330335999999999
#
# number of rings (size 3 to 8) (size 9 to 14) (size 15 to 20)
#    0.000    0.308    6.154    1.846    0.000    4.923 
#    5.538    0.000    0.000    0.000    0.000    0.000 
#    0.000    0.000    0.000    0.000    0.000    0.000 
#
# Total GULP energy -144748.331868 kJ/mol
# GULP energy per Si atom -5567.243533 kJ/mol
# Density = 2.527268 g / cm^3
# Si number density = 25.330336 Si / 1000 Ang^3
#
#
#
# Elastic Constant Matrix: (Units=GPa)
#
#
# Indices 1 2 3 4 5 6 
#
# 1 138.9779 22.4779 86.2098 0.0000 0.0000 0.0000
# 2 22.4779 97.9295 21.3268 0.0000 0.0000 0.0000
# 3 86.2098 21.3268 228.7987 0.0000 0.0000 0.0000
# 4 0.0000 0.0000 0.0000 32.5363 0.0000 0.0000
# 5 0.0000 0.0000 0.0000 0.0000 102.9921 0.0000
# 6 0.0000 0.0000 0.0000 0.0000 0.0000 21.3748
#
#
#
# Elastic Compliance Matrix: (Units=1/GPa)
#
#
# Indices 1 2 3 4 5 6 
#
# 1 0.009586 -0.001443 -0.003477 0.000000 0.000000 0.000000
# 2 -0.001443 0.010640 -0.000448 0.000000 0.000000 0.000000
# 3 -0.003477 -0.000448 0.005723 0.000000 0.000000 0.000000
# 4 0.000000 0.000000 0.000000 0.030735 0.000000 0.000000
# 5 0.000000 0.000000 0.000000 0.000000 0.009709 0.000000
# 6 0.000000 0.000000 0.000000 0.000000 0.000000 0.046784
#
#
# Mechanical properties :
#
#
# Convention : Reuss Voigt Hill
#
# Bulk Modulus (GPa) = 65.73820 80.63723 73.18771
# Shear Modulus (GPa) = 38.76429 53.76008 46.26219
#
# Velocity S-wave (km/s) = 3.91621 4.61191 4.27822
# Velocity P-wave (km/s) = 6.81599 7.76292 7.30481
#
# Compressibility (1/GPa) = 0.01521186
#
# Stress axis : x y z
#
# Youngs Moduli (GPa) = 104.32066 93.98302 174.74358
#
# Poissons Ratio (x) = 0.13561 0.60765
# Poissons Ratio (y) = 0.15053 0.07830
# Poissons Ratio (z) = 0.36276 0.04211
#
# Static dielectric constant tensor:
#      x y z
#    x 2.145320 0.000000 0.000000 
#    y 0.000000 2.120980 0.000000 
#    z 0.000000 0.000000 2.020680 
# 
# From -- ./inp_files/16209.got.cif
#   From: 2010.05.17/outbox.cif.g08.bks.cpg/sg70_9_cif.got.tgz:16209.got - 2010.06.03 15:57:51.
