data_PCOD9516970
_publ_section_title
;
Structure prediction by ZEFSAII (Michael W. Deem and Ramdas Pophale) SiO2 
 PCOD9516970
Probable space group: F D D D
;
_chemical_formula_sum "Si O2"
_cell_formula_units_Z 128
_cell_length_a 18.989472
_cell_length_b 16.772445
_cell_length_c 19.354304
_cell_angle_alpha 90.000000
_cell_angle_beta 90.000000
_cell_angle_gamma 90.000000
_cell_volume 6164.343399
_symmetry_space_group_name_H-M "F D D D"
_symmetry_group_IT_number 70
_space_group.IT_coordinate_system_code '2'
_symmetry_cell_setting 'orthorhombic'
loop_
_space_group_symop_operation_xyz
x,y,z
1/4-x,1/4-y,z
x,1/4-y,1/4-z
1/4-x,y,1/4-z
-x,-y,-z
3/4+x,3/4+y,-z
-x,3/4+y,3/4+z
3/4+x,-y,3/4+z
x,1/2+y,1/2+z
1/4-x,3/4-y,1/2+z
x,3/4-y,3/4-z
1/4-x,1/2+y,3/4-z
-x,1/2-y,1/2-z
3/4+x,1/4+y,1/2-z
-x,1/4+y,1/4+z
3/4+x,1/2-y,1/4+z
1/2+x,y,1/2+z
3/4-x,1/4-y,1/2+z
1/2+x,1/4-y,3/4-z
3/4-x,y,3/4-z
1/2-x,-y,1/2-z
1/4+x,3/4+y,1/2-z
1/2-x,3/4+y,1/4+z
1/4+x,-y,1/4+z
1/2+x,1/2+y,z
3/4-x,3/4-y,z
1/2+x,3/4-y,1/4-z
3/4-x,1/2+y,1/4-z
1/2-x,1/2-y,-z
1/4+x,1/4+y,-z
1/2-x,1/4+y,3/4+z
1/4+x,1/2-y,3/4+z
loop_
_atom_site_type_symbol
_atom_site_label
_atom_site_fract_x
_atom_site_fract_y
_atom_site_fract_z
Si Si1 0.946208 0.781504 0.638321
Si Si2 0.475385 0.375000 0.875000
Si Si3 0.875000 0.875000 0.991340
Si Si4 0.433113 0.049350 0.075519
Si Si5 0.800283 0.079961 0.335433
O O1 0.911512 0.813682 0.707958
O O2 0.883104 0.760507 0.585336
O O3 0.981554 0.697575 0.654715
O O4 0.002149 0.845641 0.610069
O O5 0.430434 0.338472 0.937758
O O6 0.424228 0.125000 0.125000
O O7 0.502544 0.999241 0.096734
O O8 0.437505 0.079644 0.997004
O O9 0.875000 0.078998 0.375000
#
# Coordination Sequence:
#
# PCOD9516970 Si02
#       5
#    32  16  16  32  32
#     4  12  25  46  72 102 144 179 232 295 349 416
#     4  11  28  40  74 104 133 188 232 278 371 414
#     4  11  26  48  66 104 141 180 228 300 339 430
#     4  11  26  48  74 105 140 188 236 290 351 419
#     4  11  28  46  74 105 142 187 236 291 350 418
#
# _framework density 20.764579000000001
#
# number of rings (size 3 to 8) (size 9 to 14) (size 15 to 20)
#    0.000    0.750    3.750    0.750   14.000    0.500 
#    0.000    0.000    0.000    0.000    0.000    0.000 
#    0.000    0.000    0.000    0.000    0.000    0.000 
#
# Total GULP energy -178844.973496 kJ/mol
# GULP energy per Si atom -5588.905422 kJ/mol
# Density = 2.071732 g / cm^3
# Si number density = 20.764579 Si / 1000 Ang^3
#
#
#
# Elastic Constant Matrix: (Units=GPa)
#
#
# Indices 1 2 3 4 5 6 
#
# 1 160.4575 78.8417 77.9451 0.0000 0.0000 0.0000
# 2 78.8417 125.3416 73.1825 0.0000 0.0000 0.0000
# 3 77.9451 73.1825 123.0731 0.0000 0.0000 0.0000
# 4 0.0000 0.0000 0.0000 -0.3048 0.0000 0.0000
# 5 0.0000 0.0000 0.0000 0.0000 61.9180 0.0000
# 6 0.0000 0.0000 0.0000 0.0000 0.0000 -5.2105
#
#
#
# Elastic Compliance Matrix: (Units=1/GPa)
#
#
# Indices 1 2 3 4 5 6 
#
# 1 0.010184 -0.004044 -0.004045 0.000000 0.000000 0.000000
# 2 -0.004044 0.013827 -0.005661 0.000000 0.000000 0.000000
# 3 -0.004045 -0.005661 0.014053 0.000000 0.000000 0.000000
# 4 0.000000 0.000000 0.000000 -3.280829 0.000000 0.000000
# 5 0.000000 0.000000 0.000000 0.000000 0.016150 0.000000
# 6 0.000000 0.000000 0.000000 0.000000 0.000000 -0.191922
#
#
# Mechanical properties :
#
#
# Convention : Reuss Voigt Hill
#
# Bulk Modulus (GPa) = 94.65709 96.53454 95.59581
# Shear Modulus (GPa) = -1.47601 23.20742 10.86570
#
# Velocity S-wave (km/s) = -0.84402 3.34675 2.29001
# Velocity P-wave (km/s) = 6.68842 7.84380 7.28904
#
# Compressibility (1/GPa) = 0.01056445
#
# Stress axis : x y z
#
# Youngs Moduli (GPa) = 98.18961 72.32136 71.15857
#
# Poissons Ratio (x) = 0.29249 0.28785
# Poissons Ratio (y) = 0.39711 0.40280
# Poissons Ratio (z) = 0.39719 0.40939
#
# Static dielectric constant tensor:
#      x y z
#    x 1.812610 0.000000 0.000000 
#    y 0.000000 1.713260 0.000000 
#    z 0.000000 0.000000 1.695520 
# 
# From -- ./inp_files/44503.got.cif
#   From: 2010.05.17/outbox.cif.g08.bks.cpg/sg70_23_cif.got.tgz:44503.got - 2010.06.03 15:57:51.
