data_PCOD9516358
_publ_section_title
;
Structure prediction by ZEFSAII (Michael W. Deem and Ramdas Pophale) SiO2 
 PCOD9516358
Probable space group: F D D D
;
_chemical_formula_sum "Si O2"
_cell_formula_units_Z 208
_cell_length_a 24.191626
_cell_length_b 19.829133
_cell_length_c 18.231933
_cell_angle_alpha 90.000000
_cell_angle_beta 90.000000
_cell_angle_gamma 90.000000
_cell_volume 8745.839471
_symmetry_space_group_name_H-M "F D D D"
_symmetry_group_IT_number 70
_space_group.IT_coordinate_system_code '2'
_symmetry_cell_setting 'orthorhombic'
loop_
_space_group_symop_operation_xyz
x,y,z
1/4-x,1/4-y,z
x,1/4-y,1/4-z
1/4-x,y,1/4-z
-x,-y,-z
3/4+x,3/4+y,-z
-x,3/4+y,3/4+z
3/4+x,-y,3/4+z
x,1/2+y,1/2+z
1/4-x,3/4-y,1/2+z
x,3/4-y,3/4-z
1/4-x,1/2+y,3/4-z
-x,1/2-y,1/2-z
3/4+x,1/4+y,1/2-z
-x,1/4+y,1/4+z
3/4+x,1/2-y,1/4+z
1/2+x,y,1/2+z
3/4-x,1/4-y,1/2+z
1/2+x,1/4-y,3/4-z
3/4-x,y,3/4-z
1/2-x,-y,1/2-z
1/4+x,3/4+y,1/2-z
1/2-x,3/4+y,1/4+z
1/4+x,-y,1/4+z
1/2+x,1/2+y,z
3/4-x,3/4-y,z
1/2+x,3/4-y,1/4-z
3/4-x,1/2+y,1/4-z
1/2-x,1/2-y,-z
1/4+x,1/4+y,-z
1/2-x,1/4+y,3/4+z
1/4+x,1/2-y,3/4+z
loop_
_atom_site_type_symbol
_atom_site_label
_atom_site_fract_x
_atom_site_fract_y
_atom_site_fract_z
Si Si1 0.176675 0.676880 0.988252
Si Si2 0.625000 0.325208 0.625000
Si Si3 0.137770 0.312071 0.738280
Si Si4 0.499867 0.755310 0.971093
Si Si5 0.258121 0.736698 0.388295
Si Si6 0.439830 0.864520 0.577553
Si Si7 0.247582 0.625000 0.125000
Si Si8 0.548051 0.875000 0.375000
O O1 0.125000 0.625000 0.990325
O O2 0.154924 0.753058 0.994049
O O3 0.212433 0.658188 0.059012
O O4 0.203673 0.665619 0.908583
O O5 0.636892 0.377186 0.691159
O O6 0.677760 0.280715 0.604503
O O7 0.189936 0.274819 0.697431
O O8 0.164119 0.344677 0.810755
O O9 0.540396 0.692369 0.977528
O O10 0.524220 0.812084 0.917600
O O11 0.491919 0.780399 0.053600
O O12 0.222122 0.683685 0.433820
O O13 0.239215 0.812643 0.401571
O O14 0.375000 0.875000 0.573997
#
# Coordination Sequence:
#
# PCOD9516358 Si02
#       8
#    32  16  32  32  32  32  16  16
#     4  11  21  36  67 101 139 180 218 262 344 424
#     4  12  26  43  71 100 144 174 234 292 350 399
#     4  11  23  43  67 101 138 187 222 282 347 414
#     4  11  23  42  66 101 138 177 230 278 340 418
#     4  11  25  48  66 102 134 177 236 292 342 411
#     4  11  23  45  69  96 137 182 226 287 341 412
#     4  12  21  36  71 104 146 180 209 273 344 430
#     4  10  24  47  71  90 142 184 242 286 350 402
#
# _framework density 23.782737000000001
#
# number of rings (size 3 to 8) (size 9 to 14) (size 15 to 20)
#    0.000    0.923    4.615    3.923    0.000    5.231 
#    5.538    0.769    0.000    0.000    0.000    0.000 
#    0.000    0.000    0.000    0.000    0.000    0.000 
#
# Total GULP energy -291165.707798 kJ/mol
# GULP energy per Si atom -5599.340535 kJ/mol
# Density = 2.372861 g / cm^3
# Si number density = 23.782737 Si / 1000 Ang^3
#
#
#
# Elastic Constant Matrix: (Units=GPa)
#
#
# Indices 1 2 3 4 5 6 
#
# 1 77.6592 48.6099 -2.7361 0.0000 0.0000 0.0000
# 2 48.6099 189.5787 24.4975 0.0000 0.0000 0.0000
# 3 -2.7361 24.4975 62.7441 0.0000 0.0000 0.0000
# 4 0.0000 0.0000 0.0000 32.1792 0.0000 0.0000
# 5 0.0000 0.0000 0.0000 0.0000 19.4160 0.0000
# 6 0.0000 0.0000 0.0000 0.0000 0.0000 38.6087
#
#
#
# Elastic Compliance Matrix: (Units=1/GPa)
#
#
# Indices 1 2 3 4 5 6 
#
# 1 0.015667 -0.004323 0.002371 0.000000 0.000000 0.000000
# 2 -0.004323 0.006748 -0.002823 0.000000 0.000000 0.000000
# 3 0.002371 -0.002823 0.017143 0.000000 0.000000 0.000000
# 4 0.000000 0.000000 0.000000 0.031076 0.000000 0.000000
# 5 0.000000 0.000000 0.000000 0.000000 0.051504 0.000000
# 6 0.000000 0.000000 0.000000 0.000000 0.000000 0.025901
#
#
# Mechanical properties :
#
#
# Convention : Reuss Voigt Hill
#
# Bulk Modulus (GPa) = 33.32537 52.30273 42.81405
# Shear Modulus (GPa) = 29.83428 35.34817 32.59122
#
# Velocity S-wave (km/s) = 3.54567 3.85943 3.70587
# Velocity P-wave (km/s) = 5.55024 6.47301 6.02931
#
# Compressibility (1/GPa) = 0.03000716
#
# Stress axis : x y z
#
# Youngs Moduli (GPa) = 63.83030 148.18629 58.33124
#
# Poissons Ratio (x) = 0.64068 -0.13832
# Poissons Ratio (y) = 0.27597 0.16469
# Poissons Ratio (z) = -0.15135 0.41837
#
# Static dielectric constant tensor:
#      x y z
#    x 1.700610 0.000000 0.000000 
#    y 0.000000 1.881970 0.000000 
#    z 0.000000 0.000000 1.936000 
# 
# From -- ./inp_files/38769.got.cif
#   From: 2010.05.17/outbox.cif.g08.bks.cpg/sg70_20_cif.got.tgz:38769.got - 2010.06.03 15:57:51.
