data_PCOD9516238
_publ_section_title
;
Structure prediction by ZEFSAII (Michael W. Deem and Ramdas Pophale) SiO2 
 PCOD9516238
Probable space group: F D D D
;
_chemical_formula_sum "Si O2"
_cell_formula_units_Z 192
_cell_length_a 16.261287
_cell_length_b 30.457942
_cell_length_c 18.686882
_cell_angle_alpha 90.000000
_cell_angle_beta 90.000000
_cell_angle_gamma 90.000000
_cell_volume 9255.338636
_symmetry_space_group_name_H-M "F D D D"
_symmetry_group_IT_number 70
_space_group.IT_coordinate_system_code '2'
_symmetry_cell_setting 'orthorhombic'
loop_
_space_group_symop_operation_xyz
x,y,z
1/4-x,1/4-y,z
x,1/4-y,1/4-z
1/4-x,y,1/4-z
-x,-y,-z
3/4+x,3/4+y,-z
-x,3/4+y,3/4+z
3/4+x,-y,3/4+z
x,1/2+y,1/2+z
1/4-x,3/4-y,1/2+z
x,3/4-y,3/4-z
1/4-x,1/2+y,3/4-z
-x,1/2-y,1/2-z
3/4+x,1/4+y,1/2-z
-x,1/4+y,1/4+z
3/4+x,1/2-y,1/4+z
1/2+x,y,1/2+z
3/4-x,1/4-y,1/2+z
1/2+x,1/4-y,3/4-z
3/4-x,y,3/4-z
1/2-x,-y,1/2-z
1/4+x,3/4+y,1/2-z
1/2-x,3/4+y,1/4+z
1/4+x,-y,1/4+z
1/2+x,1/2+y,z
3/4-x,3/4-y,z
1/2+x,3/4-y,1/4-z
3/4-x,1/2+y,1/4-z
1/2-x,1/2-y,-z
1/4+x,1/4+y,-z
1/2-x,1/4+y,3/4+z
1/4+x,1/2-y,3/4+z
loop_
_atom_site_type_symbol
_atom_site_label
_atom_site_fract_x
_atom_site_fract_y
_atom_site_fract_z
Si Si1 0.883102 0.942609 0.760870
Si Si2 0.625000 0.125000 0.625000
Si Si3 0.375000 0.515201 0.875000
Si Si4 0.226062 0.582816 0.874023
Si Si5 0.944419 0.035262 0.303883
Si Si6 0.961502 0.077735 0.447485
Si Si7 0.625000 0.125000 0.125000
Si Si8 0.372745 0.441207 0.489438
O O1 0.916761 0.907617 0.819098
O O2 0.817218 0.922294 0.704218
O O3 0.963589 0.959351 0.722245
O O4 0.852373 0.983533 0.808381
O O5 0.296923 0.546751 0.884984
O O6 0.263913 0.629342 0.900982
O O7 0.156030 0.572454 0.931931
O O8 0.956746 0.038701 0.389245
O O9 0.883436 0.074795 0.277916
O O10 0.906747 0.989819 0.276747
O O11 0.029096 0.067122 0.507242
O O12 0.666908 0.158745 0.180486
#
# Coordination Sequence:
#
# PCOD9516238 Si02
#       8
#    32   8  16  32  32  32   8  32
#     4  11  23  43  68  98 134 177 218 280 341 391
#     4  10  24  38  66  92 134 170 218 276 336 394
#     4  11  24  43  69 106 134 170 229 279 328 403
#     4  12  23  45  72  96 132 182 224 269 339 409
#     4  11  23  41  69  97 130 173 228 275 325 408
#     4  11  23  43  68  96 130 182 227 271 331 406
#     4  12  24  42  64  96 134 174 216 276 336 392
#     4  12  24  43  68  96 135 178 218 275 343 393
#
# _framework density 20.744783999999999
#
# number of rings (size 3 to 8) (size 9 to 14) (size 15 to 20)
#    0.000    0.667    5.000    4.000    0.000    0.000 
#    0.000    0.833    3.667    0.000    0.000    0.000 
#    0.000    0.000    0.000    0.000    0.000    0.000 
#
# Total GULP energy -267380.953705 kJ/mol
# GULP energy per Si atom -5570.436536 kJ/mol
# Density = 2.069757 g / cm^3
# Si number density = 20.744784 Si / 1000 Ang^3
#
#
#
# Elastic Constant Matrix: (Units=GPa)
#
#
# Indices 1 2 3 4 5 6 
#
# 1 53.3306 30.6040 -2.3031 0.0000 0.0000 0.0000
# 2 30.6040 112.9845 30.2101 0.0000 0.0000 0.0000
# 3 -2.3031 30.2101 83.6872 0.0000 0.0000 0.0000
# 4 0.0000 0.0000 0.0000 31.0204 0.0000 0.0000
# 5 0.0000 0.0000 0.0000 0.0000 20.6362 0.0000
# 6 0.0000 0.0000 0.0000 0.0000 0.0000 25.5262
#
#
#
# Elastic Compliance Matrix: (Units=1/GPa)
#
#
# Indices 1 2 3 4 5 6 
#
# 1 0.022943 -0.007065 0.003182 0.000000 0.000000 0.000000
# 2 -0.007065 0.011972 -0.004516 0.000000 0.000000 0.000000
# 3 0.003182 -0.004516 0.013667 0.000000 0.000000 0.000000
# 4 0.000000 0.000000 0.000000 0.032237 0.000000 0.000000
# 5 0.000000 0.000000 0.000000 0.000000 0.048458 0.000000
# 6 0.000000 0.000000 0.000000 0.000000 0.000000 0.039175
#
#
# Mechanical properties :
#
#
# Convention : Reuss Voigt Hill
#
# Bulk Modulus (GPa) = 31.46357 40.78047 36.12202
# Shear Modulus (GPa) = 25.53022 28.20265 26.86644
#
# Velocity S-wave (km/s) = 3.51191 3.69115 3.60264
# Velocity P-wave (km/s) = 5.62535 6.15361 5.89540
#
# Compressibility (1/GPa) = 0.03178279
#
# Stress axis : x y z
#
# Youngs Moduli (GPa) = 43.58663 83.52754 73.16823
#
# Poissons Ratio (x) = 0.59015 -0.23281
# Poissons Ratio (y) = 0.30795 0.33044
# Poissons Ratio (z) = -0.13869 0.37723
#
# Static dielectric constant tensor:
#      x y z
#    x 1.851680 0.000000 0.000000 
#    y 0.000000 1.779250 0.000000 
#    z 0.000000 0.000000 1.778660 
# 
# From -- ./inp_files/35548.got.cif
#   From: 2010.05.17/outbox.cif.g08.bks.cpg/sg70_18_cif.got.tgz:35548.got - 2010.06.03 15:57:51.
