data_PCOD9516942
_publ_section_title
;
Structure prediction by ZEFSAII (Michael W. Deem and Ramdas Pophale) SiO2 
 PCOD9516942
Probable space group: F D D D
;
_chemical_formula_sum "Si O2"
_cell_formula_units_Z 96
_cell_length_a 10.373373
_cell_length_b 16.763233
_cell_length_c 23.076497
_cell_angle_alpha 90.000000
_cell_angle_beta 90.000000
_cell_angle_gamma 90.000000
_cell_volume 4012.801338
_symmetry_space_group_name_H-M "F D D D"
_symmetry_group_IT_number 70
_space_group.IT_coordinate_system_code '2'
_symmetry_cell_setting 'orthorhombic'
loop_
_space_group_symop_operation_xyz
x,y,z
1/4-x,1/4-y,z
x,1/4-y,1/4-z
1/4-x,y,1/4-z
-x,-y,-z
3/4+x,3/4+y,-z
-x,3/4+y,3/4+z
3/4+x,-y,3/4+z
x,1/2+y,1/2+z
1/4-x,3/4-y,1/2+z
x,3/4-y,3/4-z
1/4-x,1/2+y,3/4-z
-x,1/2-y,1/2-z
3/4+x,1/4+y,1/2-z
-x,1/4+y,1/4+z
3/4+x,1/2-y,1/4+z
1/2+x,y,1/2+z
3/4-x,1/4-y,1/2+z
1/2+x,1/4-y,3/4-z
3/4-x,y,3/4-z
1/2-x,-y,1/2-z
1/4+x,3/4+y,1/2-z
1/2-x,3/4+y,1/4+z
1/4+x,-y,1/4+z
1/2+x,1/2+y,z
3/4-x,3/4-y,z
1/2+x,3/4-y,1/4-z
3/4-x,1/2+y,1/4-z
1/2-x,1/2-y,-z
1/4+x,1/4+y,-z
1/2-x,1/4+y,3/4+z
1/4+x,1/2-y,3/4+z
loop_
_atom_site_type_symbol
_atom_site_label
_atom_site_fract_x
_atom_site_fract_y
_atom_site_fract_z
Si Si1 0.992646 0.675846 0.705037
Si Si2 0.673779 0.542504 0.896761
Si Si3 0.412406 0.057357 0.965050
O O1 0.125000 0.625000 0.695439
O O2 0.000000 0.750000 0.750000
O O3 0.932706 0.722317 0.648209
O O4 0.891209 0.620413 0.739061
O O5 0.625000 0.625000 0.924664
O O6 0.745620 0.577140 0.839609
O O7 0.789600 0.513421 0.937306
O O8 0.500000 0.000000 0.000000
#
# Coordination Sequence:
#
# PCOD9516942 Si02
#       3
#    32  32  32
#     4  12  23  49  79 111 148 199 256 313 380 456
#     4  11  25  48  74 112 149 198 256 306 384 456
#     4  11  26  46  74 108 155 196 246 319 379 446
#
# _framework density 23.923438000000001
#
# number of rings (size 3 to 8) (size 9 to 14) (size 15 to 20)
#    0.000    0.667    6.667    0.000    4.667    1.333 
#    0.000   10.000    0.000    0.000    0.000    0.000 
#    0.000    0.000    0.000    0.000    0.000    0.000 
#
# Total GULP energy -133725.253879 kJ/mol
# GULP energy per Si atom -5571.885578 kJ/mol
# Density = 2.386899 g / cm^3
# Si number density = 23.923438 Si / 1000 Ang^3
#
#
#
# Elastic Constant Matrix: (Units=GPa)
#
#
# Indices 1 2 3 4 5 6 
#
# 1 173.0968 104.5287 41.4865 0.0000 0.0000 0.0000
# 2 104.5287 146.4691 28.6255 0.0000 0.0000 0.0000
# 3 41.4865 28.6255 69.6474 0.0000 0.0000 0.0000
# 4 0.0000 0.0000 0.0000 22.2514 0.0000 0.0000
# 5 0.0000 0.0000 0.0000 0.0000 38.7738 0.0000
# 6 0.0000 0.0000 0.0000 0.0000 0.0000 68.1921
#
#
#
# Elastic Compliance Matrix: (Units=1/GPa)
#
#
# Indices 1 2 3 4 5 6 
#
# 1 0.010920 -0.007091 -0.003590 0.000000 0.000000 0.000000
# 2 -0.007091 0.012029 -0.000720 0.000000 0.000000 0.000000
# 3 -0.003590 -0.000720 0.016792 0.000000 0.000000 0.000000
# 4 0.000000 0.000000 0.000000 0.044941 0.000000 0.000000
# 5 0.000000 0.000000 0.000000 0.000000 0.025791 0.000000
# 6 0.000000 0.000000 0.000000 0.000000 0.000000 0.014664
#
#
# Mechanical properties :
#
#
# Convention : Reuss Voigt Hill
#
# Bulk Modulus (GPa) = 59.03667 82.05496 70.54582
# Shear Modulus (GPa) = 32.55511 40.14832 36.35171
#
# Velocity S-wave (km/s) = 3.69291 4.10103 3.90231
# Velocity P-wave (km/s) = 6.55090 7.53645 7.06089
#
# Compressibility (1/GPa) = 0.01693862
#
# Stress axis : x y z
#
# Youngs Moduli (GPa) = 91.57631 83.13309 59.55112
#
# Poissons Ratio (x) = 0.58953 0.21379
# Poissons Ratio (y) = 0.64941 0.04287
# Poissons Ratio (z) = 0.32875 0.05984
#
# Static dielectric constant tensor:
#      x y z
#    x 1.720680 0.000000 0.000000 
#    y 0.000000 1.952100 0.000000 
#    z 0.000000 0.000000 1.302110 
# 
# From -- ./inp_files/49646.got.cif
#   From: 2010.05.17/outbox.cif.g08.bks.cpg/sg70_25_cif.got.tgz:49646.got - 2010.06.03 15:57:51.
