data_PCOD9516803
_publ_section_title
;
Structure prediction by ZEFSAII (Michael W. Deem and Ramdas Pophale) SiO2 
 PCOD9516803
Probable space group: F D D D
;
_chemical_formula_sum "Si O2"
_cell_formula_units_Z 176
_cell_length_a 24.920864
_cell_length_b 17.003992
_cell_length_c 17.715091
_cell_angle_alpha 90.000000
_cell_angle_beta 90.000000
_cell_angle_gamma 90.000000
_cell_volume 7506.843720
_symmetry_space_group_name_H-M "F D D D"
_symmetry_group_IT_number 70
_space_group.IT_coordinate_system_code '2'
_symmetry_cell_setting 'orthorhombic'
loop_
_space_group_symop_operation_xyz
x,y,z
1/4-x,1/4-y,z
x,1/4-y,1/4-z
1/4-x,y,1/4-z
-x,-y,-z
3/4+x,3/4+y,-z
-x,3/4+y,3/4+z
3/4+x,-y,3/4+z
x,1/2+y,1/2+z
1/4-x,3/4-y,1/2+z
x,3/4-y,3/4-z
1/4-x,1/2+y,3/4-z
-x,1/2-y,1/2-z
3/4+x,1/4+y,1/2-z
-x,1/4+y,1/4+z
3/4+x,1/2-y,1/4+z
1/2+x,y,1/2+z
3/4-x,1/4-y,1/2+z
1/2+x,1/4-y,3/4-z
3/4-x,y,3/4-z
1/2-x,-y,1/2-z
1/4+x,3/4+y,1/2-z
1/2-x,3/4+y,1/4+z
1/4+x,-y,1/4+z
1/2+x,1/2+y,z
3/4-x,3/4-y,z
1/2+x,3/4-y,1/4-z
3/4-x,1/2+y,1/4-z
1/2-x,1/2-y,-z
1/4+x,1/4+y,-z
1/2-x,1/4+y,3/4+z
1/4+x,1/2-y,3/4+z
loop_
_atom_site_type_symbol
_atom_site_label
_atom_site_fract_x
_atom_site_fract_y
_atom_site_fract_z
Si Si1 0.234732 0.375000 0.875000
Si Si2 0.898193 0.459659 0.225949
Si Si3 0.657459 0.888152 0.750187
Si Si4 0.832588 0.746613 0.442583
Si Si5 0.715363 0.971129 0.614351
Si Si6 0.533253 0.079356 0.920222
O O1 0.200108 0.346637 0.804098
O O2 0.267804 0.448817 0.844602
O O3 0.875000 0.375000 0.248843
O O4 0.857320 0.530353 0.207905
O O5 0.930573 0.497687 0.294965
O O6 0.933916 0.443549 0.153430
O O7 0.608942 0.829080 0.734237
O O8 0.682682 0.916154 0.671455
O O9 0.875000 0.766285 0.375000
O O10 0.772468 0.720526 0.418301
O O11 0.818967 0.811471 0.506001
O O12 0.764583 0.919252 0.585235
#
# Coordination Sequence:
#
# PCOD9516803 Si02
#       6
#    16  32  32  32  32  32
#     4  12  26  40  75 106 146 188 249 302 396 444
#     4  12  25  45  74 106 146 188 252 314 383 463
#     4  12  23  46  72 104 147 195 243 312 380 459
#     4  11  23  48  78 103 146 203 247 309 390 458
#     4  12  24  46  72 110 147 193 245 316 379 468
#     4  11  25  46  76 109 148 192 256 312 382 461
#
# _framework density 23.445271999999999
#
# number of rings (size 3 to 8) (size 9 to 14) (size 15 to 20)
#    0.000    0.364    3.636    5.455    0.000    0.727 
#    0.000    0.000    4.000    0.000    0.000    0.000 
#    0.000    0.000    0.000    0.000    0.000    0.000 
#
# Total GULP energy -246276.357518 kJ/mol
# GULP energy per Si atom -5597.189944 kJ/mol
# Density = 2.339191 g / cm^3
# Si number density = 23.445272 Si / 1000 Ang^3
#
#
#
# Elastic Constant Matrix: (Units=GPa)
#
#
# Indices 1 2 3 4 5 6 
#
# 1 72.5826 42.0209 43.8934 0.0000 0.0000 0.0000
# 2 42.0209 110.2954 23.1413 0.0000 0.0000 0.0000
# 3 43.8934 23.1413 106.3153 0.0000 0.0000 0.0000
# 4 0.0000 0.0000 0.0000 27.2161 0.0000 0.0000
# 5 0.0000 0.0000 0.0000 0.0000 60.0112 0.0000
# 6 0.0000 0.0000 0.0000 0.0000 0.0000 48.9936
#
#
#
# Elastic Compliance Matrix: (Units=1/GPa)
#
#
# Indices 1 2 3 4 5 6 
#
# 1 0.022499 -0.006940 -0.007778 0.000000 0.000000 0.000000
# 2 -0.006940 0.011641 0.000331 0.000000 0.000000 0.000000
# 3 -0.007778 0.000331 0.012545 0.000000 0.000000 0.000000
# 4 0.000000 0.000000 0.000000 0.036743 0.000000 0.000000
# 5 0.000000 0.000000 0.000000 0.000000 0.016664 0.000000
# 6 0.000000 0.000000 0.000000 0.000000 0.000000 0.020411
#
#
# Mechanical properties :
#
#
# Convention : Reuss Voigt Hill
#
# Bulk Modulus (GPa) = 55.82997 56.36716 56.09857
# Shear Modulus (GPa) = 32.20678 39.25337 35.73008
#
# Velocity S-wave (km/s) = 3.71037 4.09621 3.90805
# Velocity P-wave (km/s) = 6.49772 6.81660 6.65907
#
# Compressibility (1/GPa) = 0.01791153
#
# Stress axis : x y z
#
# Youngs Moduli (GPa) = 44.44641 85.90333 79.71132
#
# Poissons Ratio (x) = 0.59615 0.62003
# Poissons Ratio (y) = 0.30845 -0.02641
# Poissons Ratio (z) = 0.34572 -0.02846
#
# Static dielectric constant tensor:
#      x y z
#    x 2.038530 0.000000 0.000000 
#    y 0.000000 1.915230 0.000000 
#    z 0.000000 0.000000 1.856600 
# 
# From -- ./inp_files/38531.got.cif
#   From: 2010.05.17/outbox.cif.g08.bks.cpg/sg70_20_cif.got.tgz:38531.got - 2010.06.03 15:57:51.
