data_PCOD9516105
_publ_section_title
;
Structure prediction by ZEFSAII (Michael W. Deem and Ramdas Pophale) SiO2 
 PCOD9516105
Probable space group: F D D D
;
_chemical_formula_sum "Si O2"
_cell_formula_units_Z 136
_cell_length_a 29.473615
_cell_length_b 17.828784
_cell_length_c 10.557862
_cell_angle_alpha 90.000000
_cell_angle_beta 90.000000
_cell_angle_gamma 90.000000
_cell_volume 5547.931763
_symmetry_space_group_name_H-M "F D D D"
_symmetry_group_IT_number 70
_space_group.IT_coordinate_system_code '2'
_symmetry_cell_setting 'orthorhombic'
loop_
_space_group_symop_operation_xyz
x,y,z
1/4-x,1/4-y,z
x,1/4-y,1/4-z
1/4-x,y,1/4-z
-x,-y,-z
3/4+x,3/4+y,-z
-x,3/4+y,3/4+z
3/4+x,-y,3/4+z
x,1/2+y,1/2+z
1/4-x,3/4-y,1/2+z
x,3/4-y,3/4-z
1/4-x,1/2+y,3/4-z
-x,1/2-y,1/2-z
3/4+x,1/4+y,1/2-z
-x,1/4+y,1/4+z
3/4+x,1/2-y,1/4+z
1/2+x,y,1/2+z
3/4-x,1/4-y,1/2+z
1/2+x,1/4-y,3/4-z
3/4-x,y,3/4-z
1/2-x,-y,1/2-z
1/4+x,3/4+y,1/2-z
1/2-x,3/4+y,1/4+z
1/4+x,-y,1/4+z
1/2+x,1/2+y,z
3/4-x,3/4-y,z
1/2+x,3/4-y,1/4-z
3/4-x,1/2+y,1/4-z
1/2-x,1/2-y,-z
1/4+x,1/4+y,-z
1/2-x,1/4+y,3/4+z
1/4+x,1/2-y,3/4+z
loop_
_atom_site_type_symbol
_atom_site_label
_atom_site_fract_x
_atom_site_fract_y
_atom_site_fract_z
Si Si1 0.497074 0.625000 0.125000
Si Si2 0.543069 0.210995 0.859252
Si Si3 0.204793 0.432078 0.491192
Si Si4 0.393084 0.983012 0.072178
Si Si5 0.875000 0.875000 0.375000
Si Si6 0.625000 0.388085 0.625000
O O1 0.464868 0.698818 0.117378
O O2 0.528795 0.663508 0.234063
O O3 0.596389 0.200919 0.874323
O O4 0.505400 0.183799 0.959049
O O5 0.203934 0.375000 0.375000
O O6 0.181715 0.504198 0.425310
O O7 0.170547 0.410588 0.606252
O O8 0.406558 0.928416 0.958366
O O9 0.378586 0.059080 0.997996
#
# Coordination Sequence:
#
# PCOD9516105 Si02
#       6
#    16  32  32  32   8  16
#     4  10  26  42  63 103 136 178 235 296 356 425
#     4  11  24  44  69  99 140 183 236 296 358 432
#     4  10  23  41  70 102 127 185 243 284 348 442
#     4  10  23  41  68  93 140 182 226 292 359 424
#     4  10  24  44  56 100 144 170 214 298 362 414
#     4   9  20  43  64  97 134 177 232 290 342 429
#
# _framework density 24.513639000000001
#
# number of rings (size 3 to 8) (size 9 to 14) (size 15 to 20)
#    0.000    1.882    0.000    1.412   16.471    0.000 
#    0.000    5.882    0.000    0.000    0.000    0.000 
#    0.000    0.000    0.000    0.000    0.000    0.000 
#
# Total GULP energy -189375.277050 kJ/mol
# GULP energy per Si atom -5569.861090 kJ/mol
# Density = 2.445785 g / cm^3
# Si number density = 24.513639 Si / 1000 Ang^3
#
#
#
# Elastic Constant Matrix: (Units=GPa)
#
#
# Indices 1 2 3 4 5 6 
#
# 1 114.0936 21.4849 37.5642 0.0000 0.0000 0.0000
# 2 21.4849 117.5811 41.2465 0.0000 0.0000 0.0000
# 3 37.5642 41.2465 91.6507 0.0000 0.0000 0.0000
# 4 0.0000 0.0000 0.0000 20.7191 0.0000 0.0000
# 5 0.0000 0.0000 0.0000 0.0000 12.4100 0.0000
# 6 0.0000 0.0000 0.0000 0.0000 0.0000 44.5303
#
#
#
# Elastic Compliance Matrix: (Units=1/GPa)
#
#
# Indices 1 2 3 4 5 6 
#
# 1 0.010154 -0.000470 -0.003950 0.000000 0.000000 0.000000
# 2 -0.000470 0.010121 -0.004362 0.000000 0.000000 0.000000
# 3 -0.003950 -0.004362 0.014493 0.000000 0.000000 0.000000
# 4 0.000000 0.000000 0.000000 0.048265 0.000000 0.000000
# 5 0.000000 0.000000 0.000000 0.000000 0.080580 0.000000
# 6 0.000000 0.000000 0.000000 0.000000 0.000000 0.022457
#
#
# Mechanical properties :
#
#
# Convention : Reuss Voigt Hill
#
# Bulk Modulus (GPa) = 58.12789 58.21297 58.17043
# Shear Modulus (GPa) = 23.88133 30.40051 27.14092
#
# Velocity S-wave (km/s) = 3.12461 3.52539 3.33104
# Velocity P-wave (km/s) = 6.06478 6.35373 6.21094
#
# Compressibility (1/GPa) = 0.01720344
#
# Stress axis : x y z
#
# Youngs Moduli (GPa) = 98.48564 98.80604 68.99746
#
# Poissons Ratio (x) = 0.04640 0.27256
# Poissons Ratio (y) = 0.04625 0.30099
# Poissons Ratio (z) = 0.38905 0.43102
#
# Static dielectric constant tensor:
#      x y z
#    x 1.944830 0.000000 0.000000 
#    y 0.000000 2.109900 0.000000 
#    z 0.000000 0.000000 2.021440 
# 
# From -- ./inp_files/22037.got.cif
#   From: 2010.05.17/outbox.cif.g08.bks.cpg/sg70_12_cif.got.tgz:22037.got - 2010.06.03 15:57:51.
