data_PCOD9516992
_publ_section_title
;
Structure prediction by ZEFSAII (Michael W. Deem and Ramdas Pophale) SiO2 
 PCOD9516992
Probable space group: F D D D
;
_chemical_formula_sum "Si O2"
_cell_formula_units_Z 80
_cell_length_a 27.684813
_cell_length_b 9.151960
_cell_length_c 10.718459
_cell_angle_alpha 90.000000
_cell_angle_beta 90.000000
_cell_angle_gamma 90.000000
_cell_volume 2715.739185
_symmetry_space_group_name_H-M "F D D D"
_symmetry_group_IT_number 70
_space_group.IT_coordinate_system_code '2'
_symmetry_cell_setting 'orthorhombic'
loop_
_space_group_symop_operation_xyz
x,y,z
1/4-x,1/4-y,z
x,1/4-y,1/4-z
1/4-x,y,1/4-z
-x,-y,-z
3/4+x,3/4+y,-z
-x,3/4+y,3/4+z
3/4+x,-y,3/4+z
x,1/2+y,1/2+z
1/4-x,3/4-y,1/2+z
x,3/4-y,3/4-z
1/4-x,1/2+y,3/4-z
-x,1/2-y,1/2-z
3/4+x,1/4+y,1/2-z
-x,1/4+y,1/4+z
3/4+x,1/2-y,1/4+z
1/2+x,y,1/2+z
3/4-x,1/4-y,1/2+z
1/2+x,1/4-y,3/4-z
3/4-x,y,3/4-z
1/2-x,-y,1/2-z
1/4+x,3/4+y,1/2-z
1/2-x,3/4+y,1/4+z
1/4+x,-y,1/4+z
1/2+x,1/2+y,z
3/4-x,3/4-y,z
1/2+x,3/4-y,1/4-z
3/4-x,1/2+y,1/4-z
1/2-x,1/2-y,-z
1/4+x,1/4+y,-z
1/2-x,1/4+y,3/4+z
1/4+x,1/2-y,3/4+z
loop_
_atom_site_type_symbol
_atom_site_label
_atom_site_fract_x
_atom_site_fract_y
_atom_site_fract_z
Si Si1 0.819493 0.898067 0.581687
Si Si2 0.679843 0.365648 0.093102
Si Si3 0.748336 0.125000 0.625000
O O1 0.875000 0.875000 0.621992
O O2 0.809382 0.740414 0.523906
O O3 0.813003 0.004928 0.460274
O O4 0.786832 0.996415 0.672835
O O5 0.625000 0.411176 0.125000
O O6 0.711777 0.506462 0.064912
#
# Coordination Sequence:
#
# PCOD9516992 Si02
#       3
#    32  32  16
#     4   9  20  38  54  78 119 157 187 236 298 351
#     4   9  19  37  58  80 115 156 191 231 293 365
#     4  12  19  32  60  92 108 142 201 252 290 340
#
# _framework density 29.457906999999999
#
# number of rings (size 3 to 8) (size 9 to 14) (size 15 to 20)
#    0.000    2.400    0.000    5.400    0.000    0.000 
#    0.000   20.000    0.000    0.000    0.000    0.000 
#    0.000    0.000    0.000    0.000    0.000    0.000 
#
# Total GULP energy -111452.856336 kJ/mol
# GULP energy per Si atom -5572.642817 kJ/mol
# Density = 2.939086 g / cm^3
# Si number density = 29.457907 Si / 1000 Ang^3
#
#
#
# Elastic Constant Matrix: (Units=GPa)
#
#
# Indices 1 2 3 4 5 6 
#
# 1 246.8398 156.6010 28.9077 0.0000 0.0000 0.0000
# 2 156.6010 379.8236 63.5400 0.0000 0.0000 0.0000
# 3 28.9077 63.5400 101.4834 0.0000 0.0000 0.0000
# 4 0.0000 0.0000 0.0000 72.6737 0.0000 0.0000
# 5 0.0000 0.0000 0.0000 0.0000 -826.0876 0.0000
# 6 0.0000 0.0000 0.0000 0.0000 0.0000 53.3858
#
#
#
# Elastic Compliance Matrix: (Units=1/GPa)
#
#
# Indices 1 2 3 4 5 6 
#
# 1 0.005489 -0.002236 -0.000164 0.000000 0.000000 0.000000
# 2 -0.002236 0.003851 -0.001775 0.000000 0.000000 0.000000
# 3 -0.000164 -0.001775 0.011012 0.000000 0.000000 0.000000
# 4 0.000000 0.000000 0.000000 0.013760 0.000000 0.000000
# 5 0.000000 0.000000 0.000000 0.000000 -0.001211 0.000000
# 6 0.000000 0.000000 0.000000 0.000000 0.000000 0.018732
#
#
# Mechanical properties :
#
#
# Convention : Reuss Voigt Hill
#
# Bulk Modulus (GPa) = 83.30680 136.24935 109.77808
# Shear Modulus (GPa) = 78.14699 -108.06575 -14.95938
#
# Velocity S-wave (km/s) = 5.15616 -6.06337 -2.25594
# Velocity P-wave (km/s) = 7.98682 1.63298 5.52823
#
# Compressibility (1/GPa) = 0.01200382
#
# Stress axis : x y z
#
# Youngs Moduli (GPa) = 182.19252 259.64553 90.81358
#
# Poissons Ratio (x) = 0.58046 0.01487
# Poissons Ratio (y) = 0.40731 0.16116
# Poissons Ratio (z) = 0.02983 0.46077
#
# Static dielectric constant tensor:
#      x y z
#    x 2.419920 0.000000 0.000000 
#    y 0.000000 2.195430 0.000000 
#    z 0.000000 0.000000 2.882540 
# 
# From -- ./inp_files/6804.got.cif
#   From: 2010.05.17/outbox.cif.g08.bks.cpg/sg70_4_cif.got.tgz:6804.got - 2010.06.03 15:57:51.
