data_PCOD9516128
_publ_section_title
;
Structure prediction by ZEFSAII (Michael W. Deem and Ramdas Pophale) SiO2 
 PCOD9516128
Probable space group: F D D D
;
_chemical_formula_sum "Si O2"
_cell_formula_units_Z 88
_cell_length_a 26.225886
_cell_length_b 17.303236
_cell_length_c 9.072935
_cell_angle_alpha 90.000000
_cell_angle_beta 90.000000
_cell_angle_gamma 90.000000
_cell_volume 4117.231623
_symmetry_space_group_name_H-M "F D D D"
_symmetry_group_IT_number 70
_space_group.IT_coordinate_system_code '2'
_symmetry_cell_setting 'orthorhombic'
loop_
_space_group_symop_operation_xyz
x,y,z
1/4-x,1/4-y,z
x,1/4-y,1/4-z
1/4-x,y,1/4-z
-x,-y,-z
3/4+x,3/4+y,-z
-x,3/4+y,3/4+z
3/4+x,-y,3/4+z
x,1/2+y,1/2+z
1/4-x,3/4-y,1/2+z
x,3/4-y,3/4-z
1/4-x,1/2+y,3/4-z
-x,1/2-y,1/2-z
3/4+x,1/4+y,1/2-z
-x,1/4+y,1/4+z
3/4+x,1/2-y,1/4+z
1/2+x,y,1/2+z
3/4-x,1/4-y,1/2+z
1/2+x,1/4-y,3/4-z
3/4-x,y,3/4-z
1/2-x,-y,1/2-z
1/4+x,3/4+y,1/2-z
1/2-x,3/4+y,1/4+z
1/4+x,-y,1/4+z
1/2+x,1/2+y,z
3/4-x,3/4-y,z
1/2+x,3/4-y,1/4-z
3/4-x,1/2+y,1/4-z
1/2-x,1/2-y,-z
1/4+x,1/4+y,-z
1/2-x,1/4+y,3/4+z
1/4+x,1/2-y,3/4+z
loop_
_atom_site_type_symbol
_atom_site_label
_atom_site_fract_x
_atom_site_fract_y
_atom_site_fract_z
Si Si1 0.125000 0.398020 0.625000
Si Si2 0.195016 0.755672 0.073551
Si Si3 0.625000 0.125000 0.125000
Si Si4 0.205490 0.462020 0.840967
O O1 0.165982 0.337831 0.553011
O O2 0.095521 0.449666 0.505813
O O3 0.160137 0.683024 0.029995
O O4 0.198869 0.748497 0.251231
O O5 0.250000 0.750000 0.000000
O O6 0.222336 0.375000 0.875000
O O7 0.250000 0.500000 0.750000
#
# Coordination Sequence:
#
# PCOD9516128 Si02
#       4
#    16  32   8  32
#     4   9  22  45  63  98 137 176 220 282 345 400
#     4  10  23  42  70  96 133 178 222 284 337 410
#     4  10  24  40  60 102 126 168 230 254 350 386
#     4  10  23  42  67  99 133 182 230 280 348 406
#
# _framework density 21.373586
#
# number of rings (size 3 to 8) (size 9 to 14) (size 15 to 20)
#    0.000    2.182    0.000    0.000   10.182   11.636 
#    0.000    0.000    0.000    0.000    0.000    0.000 
#    0.000    0.000    0.000    0.000    0.000    0.000 
#
# Total GULP energy -122853.337026 kJ/mol
# GULP energy per Si atom -5584.242592 kJ/mol
# Density = 2.132494 g / cm^3
# Si number density = 21.373586 Si / 1000 Ang^3
#
#
#
# Elastic Constant Matrix: (Units=GPa)
#
#
# Indices 1 2 3 4 5 6 
#
# 1 197.1481 52.9517 91.9152 0.0000 0.0000 0.0000
# 2 52.9517 53.3014 50.1976 0.0000 0.0000 0.0000
# 3 91.9152 50.1976 139.2751 0.0000 0.0000 0.0000
# 4 0.0000 0.0000 0.0000 23.3603 0.0000 0.0000
# 5 0.0000 0.0000 0.0000 0.0000 55.8963 0.0000
# 6 0.0000 0.0000 0.0000 0.0000 0.0000 15.9070
#
#
#
# Elastic Compliance Matrix: (Units=1/GPa)
#
#
# Indices 1 2 3 4 5 6 
#
# 1 0.007979 -0.004492 -0.003647 0.000000 0.000000 0.000000
# 2 -0.004492 0.030931 -0.008183 0.000000 0.000000 0.000000
# 3 -0.003647 -0.008183 0.012536 0.000000 0.000000 0.000000
# 4 0.000000 0.000000 0.000000 0.042808 0.000000 0.000000
# 5 0.000000 0.000000 0.000000 0.000000 0.017890 0.000000
# 6 0.000000 0.000000 0.000000 0.000000 0.000000 0.062866
#
#
# Mechanical properties :
#
#
# Convention : Reuss Voigt Hill
#
# Bulk Modulus (GPa) = 53.18780 86.65041 69.91910
# Shear Modulus (GPa) = 23.37302 32.01005 27.69154
#
# Velocity S-wave (km/s) = 3.31047 3.87414 3.60334
# Velocity P-wave (km/s) = 6.28897 7.78722 7.07785
#
# Compressibility (1/GPa) = 0.01880130
#
# Stress axis : x y z
#
# Youngs Moduli (GPa) = 125.32712 32.32995 79.76931
#
# Poissons Ratio (x) = 0.14524 0.29089
# Poissons Ratio (y) = 0.56302 0.65278
# Poissons Ratio (z) = 0.45703 0.26457
#
# Static dielectric constant tensor:
#      x y z
#    x 1.287080 0.000000 0.000000 
#    y 0.000000 1.805040 0.000000 
#    z 0.000000 0.000000 1.838090 
# 
# From -- ./inp_files/10355.got.cif
#   From: 2010.05.17/outbox.cif.g08.bks.cpg/sg70_6_cif.got.tgz:10355.got - 2010.06.03 15:57:51.
