data_PCOD9516031
_publ_section_title
;
Structure prediction by ZEFSAII (Michael W. Deem and Ramdas Pophale) SiO2 
 PCOD9516031
Probable space group: F D D D
;
_chemical_formula_sum "Si O2"
_cell_formula_units_Z 240
_cell_length_a 22.920272
_cell_length_b 21.041925
_cell_length_c 23.076066
_cell_angle_alpha 90.000000
_cell_angle_beta 90.000000
_cell_angle_gamma 90.000000
_cell_volume 11129.278437
_symmetry_space_group_name_H-M "F D D D"
_symmetry_group_IT_number 70
_space_group.IT_coordinate_system_code '2'
_symmetry_cell_setting 'orthorhombic'
loop_
_space_group_symop_operation_xyz
x,y,z
1/4-x,1/4-y,z
x,1/4-y,1/4-z
1/4-x,y,1/4-z
-x,-y,-z
3/4+x,3/4+y,-z
-x,3/4+y,3/4+z
3/4+x,-y,3/4+z
x,1/2+y,1/2+z
1/4-x,3/4-y,1/2+z
x,3/4-y,3/4-z
1/4-x,1/2+y,3/4-z
-x,1/2-y,1/2-z
3/4+x,1/4+y,1/2-z
-x,1/4+y,1/4+z
3/4+x,1/2-y,1/4+z
1/2+x,y,1/2+z
3/4-x,1/4-y,1/2+z
1/2+x,1/4-y,3/4-z
3/4-x,y,3/4-z
1/2-x,-y,1/2-z
1/4+x,3/4+y,1/2-z
1/2-x,3/4+y,1/4+z
1/4+x,-y,1/4+z
1/2+x,1/2+y,z
3/4-x,3/4-y,z
1/2+x,3/4-y,1/4-z
3/4-x,1/2+y,1/4-z
1/2-x,1/2-y,-z
1/4+x,1/4+y,-z
1/2-x,1/4+y,3/4+z
1/4+x,1/2-y,3/4+z
loop_
_atom_site_type_symbol
_atom_site_label
_atom_site_fract_x
_atom_site_fract_y
_atom_site_fract_z
Si Si1 0.437198 0.223867 0.666958
Si Si2 0.995475 0.593659 0.424737
Si Si3 0.693564 0.138831 0.937193
Si Si4 0.878276 0.556814 0.471756
Si Si5 0.439365 0.524468 0.614716
Si Si6 0.824170 0.915977 0.994356
Si Si7 0.024324 0.125000 0.125000
Si Si8 0.277376 0.109994 0.532196
O O1 0.469285 0.282360 0.697389
O O2 0.415268 0.180307 0.719482
O O3 0.378273 0.236842 0.631729
O O4 0.483576 0.186624 0.628945
O O5 0.927040 0.575132 0.424864
O O6 0.022033 0.598364 0.360710
O O7 0.018172 0.653601 0.463552
O O8 0.625000 0.125000 0.933122
O O9 0.708339 0.210458 0.916944
O O10 0.716459 0.123577 0.001418
O O11 0.851353 0.485200 0.478348
O O12 0.822355 0.600519 0.479266
O O13 0.449824 0.581857 0.570587
O O14 0.469553 0.549121 0.674541
O O15 0.875000 0.875000 0.024758
O O16 0.809882 0.882013 0.933735
#
# Coordination Sequence:
#
# PCOD9516031 Si02
#       8
#    32  32  32  32  32  32  16  32
#     4  11  20  41  65  94 126 180 230 272 335 421
#     4  12  23  41  66  95 139 182 231 281 341 417
#     4  12  25  46  73 102 136 182 239 287 354 439
#     4  11  23  41  66  95 140 177 225 287 343 415
#     4  10  22  46  74  96 139 175 228 300 355 421
#     4  12  24  40  59  93 138 183 226 278 337 403
#     4  12  25  36  62  98 128 182 231 272 342 420
#     4  10  24  45  71 104 132 178 229 290 364 418
#
# _framework density 21.564741000000001
#
# number of rings (size 3 to 8) (size 9 to 14) (size 15 to 20)
#    0.000    0.800    4.000    5.400    1.867    0.533 
#    2.400    1.333    2.933    0.000    0.000    0.000 
#    0.000    0.000    0.000    0.000    0.000    0.000 
#
# Total GULP energy -334747.952547 kJ/mol
# GULP energy per Si atom -5579.132542 kJ/mol
# Density = 2.151566 g / cm^3
# Si number density = 21.564741 Si / 1000 Ang^3
#
#
#
# Elastic Constant Matrix: (Units=GPa)
#
#
# Indices 1 2 3 4 5 6 
#
# 1 103.5822 37.2812 52.2933 0.0000 0.0000 0.0000
# 2 37.2812 86.5397 24.1360 0.0000 0.0000 0.0000
# 3 52.2933 24.1360 82.7775 0.0000 0.0000 0.0000
# 4 0.0000 0.0000 0.0000 24.2296 0.0000 0.0000
# 5 0.0000 0.0000 0.0000 0.0000 38.8440 0.0000
# 6 0.0000 0.0000 0.0000 0.0000 0.0000 -18.3809
#
#
#
# Elastic Compliance Matrix: (Units=1/GPa)
#
#
# Indices 1 2 3 4 5 6 
#
# 1 0.015518 -0.004301 -0.008549 0.000000 0.000000 0.000000
# 2 -0.004301 0.013770 -0.001298 0.000000 0.000000 0.000000
# 3 -0.008549 -0.001298 0.017860 0.000000 0.000000 0.000000
# 4 0.000000 0.000000 0.000000 0.041272 0.000000 0.000000
# 5 0.000000 0.000000 0.000000 0.000000 0.025744 0.000000
# 6 0.000000 0.000000 0.000000 0.000000 0.000000 -0.054404
#
#
# Mechanical properties :
#
#
# Convention : Reuss Voigt Hill
#
# Bulk Modulus (GPa) = 53.04515 55.59116 54.31816
# Shear Modulus (GPa) = 52.99941 19.55112 36.27526
#
# Velocity S-wave (km/s) = 4.96289 3.01429 4.10586
# Velocity P-wave (km/s) = 7.58234 6.16030 6.90800
#
# Compressibility (1/GPa) = 0.01885186
#
# Stress axis : x y z
#
# Youngs Moduli (GPa) = 64.44021 72.62043 55.99105
#
# Poissons Ratio (x) = 0.31233 0.47869
# Poissons Ratio (y) = 0.27715 0.07268
# Poissons Ratio (z) = 0.55092 0.09427
#
# Static dielectric constant tensor:
#      x y z
#    x 1.811750 0.000000 0.000000 
#    y 0.000000 1.910730 0.000000 
#    z 0.000000 0.000000 1.806670 
# 
# From -- ./inp_files/60566.got.cif
#   From: 2010.05.17/outbox.cif.g08.bks.cpg/sg70_31_cif.got.tgz:60566.got - 2010.06.03 15:57:51.
