data_PCOD9516713
_publ_section_title
;
Structure prediction by ZEFSAII (Michael W. Deem and Ramdas Pophale) SiO2 
 PCOD9516713
Probable space group: F D D D
;
_chemical_formula_sum "Si O2"
_cell_formula_units_Z 104
_cell_length_a 5.361608
_cell_length_b 30.033926
_cell_length_c 32.445798
_cell_angle_alpha 90.000000
_cell_angle_beta 90.000000
_cell_angle_gamma 90.000000
_cell_volume 5224.751327
_symmetry_space_group_name_H-M "F D D D"
_symmetry_group_IT_number 70
_space_group.IT_coordinate_system_code '2'
_symmetry_cell_setting 'orthorhombic'
loop_
_space_group_symop_operation_xyz
x,y,z
1/4-x,1/4-y,z
x,1/4-y,1/4-z
1/4-x,y,1/4-z
-x,-y,-z
3/4+x,3/4+y,-z
-x,3/4+y,3/4+z
3/4+x,-y,3/4+z
x,1/2+y,1/2+z
1/4-x,3/4-y,1/2+z
x,3/4-y,3/4-z
1/4-x,1/2+y,3/4-z
-x,1/2-y,1/2-z
3/4+x,1/4+y,1/2-z
-x,1/4+y,1/4+z
3/4+x,1/2-y,1/4+z
1/2+x,y,1/2+z
3/4-x,1/4-y,1/2+z
1/2+x,1/4-y,3/4-z
3/4-x,y,3/4-z
1/2-x,-y,1/2-z
1/4+x,3/4+y,1/2-z
1/2-x,3/4+y,1/4+z
1/4+x,-y,1/4+z
1/2+x,1/2+y,z
3/4-x,3/4-y,z
1/2+x,3/4-y,1/4-z
3/4-x,1/2+y,1/4-z
1/2-x,1/2-y,-z
1/4+x,1/4+y,-z
1/2-x,1/4+y,3/4+z
1/4+x,1/2-y,3/4+z
loop_
_atom_site_type_symbol
_atom_site_label
_atom_site_fract_x
_atom_site_fract_y
_atom_site_fract_z
Si Si1 0.772738 0.693315 0.167913
Si Si2 0.624698 0.040811 0.902913
Si Si3 0.875000 0.375000 0.482627
Si Si4 0.875000 0.375000 0.875000
Si Si5 0.875000 0.875000 0.536856
O O1 0.625000 0.696822 0.125000
O O2 0.866095 0.743036 0.176083
O O3 0.621638 0.669111 0.203865
O O4 0.980662 0.657722 0.155538
O O5 0.375000 0.041568 0.875000
O O6 0.622915 0.081518 0.934337
O O7 0.875000 0.044645 0.875000
O O8 0.625260 0.375735 0.509655
#
# Coordination Sequence:
#
# PCOD9516713 Si02
#       5
#    32  32  16   8  16
#     4  11  23  38  69  96 123 168 220 268 319 372
#     4  11  24  44  70  94 122 171 226 270 304 378
#     4  12  25  41  64  96 140 170 201 267 326 395
#     4  12  16  40  64  98 122 154 216 268 320 368
#     4  12  27  43  63  94 137 178 205 256 333 381
#
# _framework density 19.905255
#
# number of rings (size 3 to 8) (size 9 to 14) (size 15 to 20)
#    0.000    0.615    4.615    3.692    0.000    2.462 
#    0.000    0.000    0.000    0.000    0.000    0.000 
#    0.000    0.000    0.000    0.000    0.000    0.000 
#
# Total GULP energy -145288.478824 kJ/mol
# GULP energy per Si atom -5588.018416 kJ/mol
# Density = 1.985995 g / cm^3
# Si number density = 19.905255 Si / 1000 Ang^3
#
#
#
# Elastic Constant Matrix: (Units=GPa)
#
#
# Indices 1 2 3 4 5 6 
#
# 1 140.7371 59.0222 62.8185 0.0000 0.0000 0.0000
# 2 59.0222 224.0924 92.0279 0.0000 0.0000 0.0000
# 3 62.8185 92.0279 105.1924 0.0000 0.0000 0.0000
# 4 0.0000 0.0000 0.0000 -292.8001 0.0000 0.0000
# 5 0.0000 0.0000 0.0000 0.0000 41.1717 0.0000
# 6 0.0000 0.0000 0.0000 0.0000 0.0000 21.1250
#
#
#
# Elastic Compliance Matrix: (Units=1/GPa)
#
#
# Indices 1 2 3 4 5 6 
#
# 1 0.009699 -0.000275 -0.005552 0.000000 0.000000 0.000000
# 2 -0.000275 0.006972 -0.005936 0.000000 0.000000 0.000000
# 3 -0.005552 -0.005936 0.018015 0.000000 0.000000 0.000000
# 4 0.000000 0.000000 0.000000 -0.003415 0.000000 0.000000
# 5 0.000000 0.000000 0.000000 0.000000 0.024289 0.000000
# 6 0.000000 0.000000 0.000000 0.000000 0.000000 0.047337
#
#
# Mechanical properties :
#
#
# Convention : Reuss Voigt Hill
#
# Bulk Modulus (GPa) = 89.59251 99.75102 94.67176
# Shear Modulus (GPa) = 38.41996 -29.02379 4.69808
#
# Velocity S-wave (km/s) = 4.39810 -3.82265 1.53797
# Velocity P-wave (km/s) = 8.42011 5.54420 7.12869
#
# Compressibility (1/GPa) = 0.01116165
#
# Stress axis : x y z
#
# Youngs Moduli (GPa) = 103.10824 143.42141 55.51034
#
# Poissons Ratio (x) = 0.03938 0.30817
# Poissons Ratio (y) = 0.02831 0.32950
# Poissons Ratio (z) = 0.57241 0.85133
#
# Static dielectric constant tensor:
#      x y z
#    x 1.743640 0.000000 0.000000 
#    y 0.000000 1.724060 0.000000 
#    z 0.000000 0.000000 1.707220 
# 
# From -- ./inp_files/4104.got.cif
#   From: 2010.05.17/outbox.cif.g08.bks.cpg/sg70_3_cif.got.tgz:4104.got - 2010.06.03 15:57:51.
