data_PCOD9516611
_publ_section_title
;
Structure prediction by ZEFSAII (Michael W. Deem and Ramdas Pophale) SiO2 
 PCOD9516611
Probable space group: F D D D
;
_chemical_formula_sum "Si O2"
_cell_formula_units_Z 80
_cell_length_a 23.298616
_cell_length_b 28.262438
_cell_length_c 4.766030
_cell_angle_alpha 90.000000
_cell_angle_beta 90.000000
_cell_angle_gamma 90.000000
_cell_volume 3138.314894
_symmetry_space_group_name_H-M "F D D D"
_symmetry_group_IT_number 70
_space_group.IT_coordinate_system_code '2'
_symmetry_cell_setting 'orthorhombic'
loop_
_space_group_symop_operation_xyz
x,y,z
1/4-x,1/4-y,z
x,1/4-y,1/4-z
1/4-x,y,1/4-z
-x,-y,-z
3/4+x,3/4+y,-z
-x,3/4+y,3/4+z
3/4+x,-y,3/4+z
x,1/2+y,1/2+z
1/4-x,3/4-y,1/2+z
x,3/4-y,3/4-z
1/4-x,1/2+y,3/4-z
-x,1/2-y,1/2-z
3/4+x,1/4+y,1/2-z
-x,1/4+y,1/4+z
3/4+x,1/2-y,1/4+z
1/2+x,y,1/2+z
3/4-x,1/4-y,1/2+z
1/2+x,1/4-y,3/4-z
3/4-x,y,3/4-z
1/2-x,-y,1/2-z
1/4+x,3/4+y,1/2-z
1/2-x,3/4+y,1/4+z
1/4+x,-y,1/4+z
1/2+x,1/2+y,z
3/4-x,3/4-y,z
1/2+x,3/4-y,1/4-z
3/4-x,1/2+y,1/4-z
1/2-x,1/2-y,-z
1/4+x,1/4+y,-z
1/2-x,1/4+y,3/4+z
1/4+x,1/2-y,3/4+z
loop_
_atom_site_type_symbol
_atom_site_label
_atom_site_fract_x
_atom_site_fract_y
_atom_site_fract_z
Si Si1 0.030905 0.786746 0.961229
Si Si2 0.375000 0.155620 0.875000
Si Si3 0.834632 0.457613 0.645891
O O1 0.076376 0.815723 0.785920
O O2 0.063292 0.756556 0.202382
O O3 0.000000 0.750000 0.750000
O O4 0.976373 0.815838 0.076659
O O5 0.347465 0.125000 0.625000
O O6 0.875000 0.464652 0.375000
O O7 0.875000 0.433405 0.875000
#
# Coordination Sequence:
#
# PCOD9516611 Si02
#       3
#    32  16  32
#     4  11  24  43  74 106 151 203 262 307 376 485
#     4  12  32  48  70 116 171 196 245 338 426 448
#     4  11  22  37  69 113 143 182 269 325 361 431
#
# _framework density 25.491385999999999
#
# number of rings (size 3 to 8) (size 9 to 14) (size 15 to 20)
#    0.000    0.800    4.000    2.400   14.000    0.000 
#    0.000    0.000    0.000    1.200   10.400    0.000 
#    0.000    0.000    0.000    0.000    0.000    0.000 
#
# Total GULP energy -112013.817521 kJ/mol
# GULP energy per Si atom -5600.690876 kJ/mol
# Density = 2.543337 g / cm^3
# Si number density = 25.491386 Si / 1000 Ang^3
#
#
#
# Elastic Constant Matrix: (Units=GPa)
#
#
# Indices 1 2 3 4 5 6 
#
# 1 254.1130 47.1392 92.8976 -0.0978 0.0797 0.0507
# 2 47.1392 47.4049 42.7257 -0.1076 0.1307 0.1162
# 3 92.8976 42.7257 215.6684 -0.1951 0.1058 0.0565
# 4 -0.0978 -0.1076 -0.1951 25.1513 0.2149 0.1507
# 5 0.0797 0.1307 0.1058 0.2149 78.4028 -0.1325
# 6 0.0507 0.1162 0.0565 0.1507 -0.1325 2.8244
#
#
#
# Elastic Compliance Matrix: (Units=1/GPa)
#
#
# Indices 1 2 3 4 5 6 
#
# 1 0.005184 -0.003826 -0.001475 -0.000008 0.000003 0.000095
# 2 -0.003826 0.028506 -0.003999 0.000083 -0.000040 -0.001030
# 3 -0.001475 -0.003999 0.006064 0.000024 0.000000 0.000068
# 4 -0.000008 0.000083 0.000024 0.039774 -0.000113 -0.002130
# 5 0.000003 -0.000040 0.000000 -0.000113 0.012756 0.000606
# 6 0.000095 -0.001030 0.000068 -0.002130 0.000606 0.354233
#
#
# Mechanical properties :
#
#
# Convention : Reuss Voigt Hill
#
# Bulk Modulus (GPa) = 47.27032 98.07902 72.67467
# Shear Modulus (GPa) = 10.58941 43.57063 27.08002
#
# Velocity S-wave (km/s) = 2.04038 4.13877 3.26286
# Velocity P-wave (km/s) = 4.91271 7.83569 6.53960
#
# Compressibility (1/GPa) = 0.02115492
#
# Stress axis : x y z
#
# Youngs Moduli (GPa) = 192.89236 35.07981 164.89646
#
# Poissons Ratio (x) = 0.13421 0.24325
# Poissons Ratio (y) = 0.73798 0.65943
# Poissons Ratio (z) = 0.28455 0.14029
#
# Static dielectric constant tensor:
#      x y z
#    x 2.062060 0.000090 0.000090 
#    y 0.000090 2.102460 -0.000050 
#    z 0.000090 -0.000050 2.055940 
# 
# From -- ./inp_files/3186.got.cif
#   From: 2010.05.17/outbox.cif.g08.bks.cpg/sg70_2_cif.got.tgz:3186.got - 2010.06.03 15:57:51.
