data_PCOD9516023
_publ_section_title
;
Structure prediction by ZEFSAII (Michael W. Deem and Ramdas Pophale) SiO2 
 PCOD9516023
Probable space group: F D D D
;
_chemical_formula_sum "Si O2"
_cell_formula_units_Z 192
_cell_length_a 29.213629
_cell_length_b 11.851892
_cell_length_c 26.115436
_cell_angle_alpha 90.000000
_cell_angle_beta 90.000000
_cell_angle_gamma 90.000000
_cell_volume 9042.124360
_symmetry_space_group_name_H-M "F D D D"
_symmetry_group_IT_number 70
_space_group.IT_coordinate_system_code '2'
_symmetry_cell_setting 'orthorhombic'
loop_
_space_group_symop_operation_xyz
x,y,z
1/4-x,1/4-y,z
x,1/4-y,1/4-z
1/4-x,y,1/4-z
-x,-y,-z
3/4+x,3/4+y,-z
-x,3/4+y,3/4+z
3/4+x,-y,3/4+z
x,1/2+y,1/2+z
1/4-x,3/4-y,1/2+z
x,3/4-y,3/4-z
1/4-x,1/2+y,3/4-z
-x,1/2-y,1/2-z
3/4+x,1/4+y,1/2-z
-x,1/4+y,1/4+z
3/4+x,1/2-y,1/4+z
1/2+x,y,1/2+z
3/4-x,1/4-y,1/2+z
1/2+x,1/4-y,3/4-z
3/4-x,y,3/4-z
1/2-x,-y,1/2-z
1/4+x,3/4+y,1/2-z
1/2-x,3/4+y,1/4+z
1/4+x,-y,1/4+z
1/2+x,1/2+y,z
3/4-x,3/4-y,z
1/2+x,3/4-y,1/4-z
3/4-x,1/2+y,1/4-z
1/2-x,1/2-y,-z
1/4+x,1/4+y,-z
1/2-x,1/4+y,3/4+z
1/4+x,1/2-y,3/4+z
loop_
_atom_site_type_symbol
_atom_site_label
_atom_site_fract_x
_atom_site_fract_y
_atom_site_fract_z
Si Si1 0.919787 0.452868 0.458867
Si Si2 0.967201 0.287998 0.915535
Si Si3 0.125000 0.125000 0.535170
Si Si4 0.037462 0.997610 0.249061
Si Si5 0.564811 0.375000 0.875000
Si Si6 0.125287 0.856682 0.272687
Si Si7 0.519250 0.790427 0.120219
O O1 0.875000 0.375000 0.451594
O O2 0.950992 0.380810 0.497968
O O3 0.905590 0.572589 0.481985
O O4 0.946432 0.472529 0.406856
O O5 0.988274 0.375000 0.875000
O O6 0.916918 0.333558 0.929667
O O7 0.973784 0.167557 0.888993
O O8 0.992740 0.280572 0.969525
O O9 0.135482 0.232979 0.499255
O O10 0.078800 0.929015 0.274698
O O11 0.032280 0.966512 0.189438
O O12 0.596666 0.391151 0.825371
O O13 0.530434 0.267264 0.871985
#
# Coordination Sequence:
#
# PCOD9516023 Si02
#       7
#    32  32  16  32  16  32  32
#     4  10  22  45  75 109 140 184 243 317 364 428
#     4  12  28  46  70 103 145 197 245 299 370 451
#     4  12  25  48  70 100 144 192 244 305 364 448
#     4  11  25  46  72 108 141 192 247 309 370 449
#     4  12  26  46  73 118 144 201 248 320 382 442
#     4  11  26  45  72 104 153 189 244 302 380 450
#     4  12  24  45  79 103 145 191 253 310 369 440
#
# _framework density 21.233947000000001
#
# number of rings (size 3 to 8) (size 9 to 14) (size 15 to 20)
#    0.000    0.667    3.333    3.250    1.167   10.000 
#    4.500    0.000    0.000    0.000    0.000    0.000 
#    0.000    0.000    0.000    0.000    0.000    0.000 
#
# Total GULP energy -268496.928530 kJ/mol
# GULP energy per Si atom -5593.686011 kJ/mol
# Density = 2.118562 g / cm^3
# Si number density = 21.233947 Si / 1000 Ang^3
#
#
#
# Elastic Constant Matrix: (Units=GPa)
#
#
# Indices 1 2 3 4 5 6 
#
# 1 104.8089 45.6660 52.7197 0.0000 0.0000 0.0000
# 2 45.6660 171.7338 51.7486 0.0000 0.0000 0.0000
# 3 52.7197 51.7486 91.6939 0.0000 0.0000 0.0000
# 4 0.0000 0.0000 0.0000 22.1078 0.0000 0.0000
# 5 0.0000 0.0000 0.0000 0.0000 52.7341 0.0000
# 6 0.0000 0.0000 0.0000 0.0000 0.0000 -46.0242
#
#
#
# Elastic Compliance Matrix: (Units=1/GPa)
#
#
# Indices 1 2 3 4 5 6 
#
# 1 0.013751 -0.001535 -0.007040 0.000000 0.000000 0.000000
# 2 -0.001535 0.007188 -0.003174 0.000000 0.000000 0.000000
# 3 -0.007040 -0.003174 0.016745 0.000000 0.000000 0.000000
# 4 0.000000 0.000000 0.000000 0.045233 0.000000 0.000000
# 5 0.000000 0.000000 0.000000 0.000000 0.018963 0.000000
# 6 0.000000 0.000000 0.000000 0.000000 0.000000 -0.021728
#
#
# Mechanical properties :
#
#
# Convention : Reuss Voigt Hill
#
# Bulk Modulus (GPa) = 70.49355 74.27836 72.38595
# Shear Modulus (GPa) = 46.13501 20.30371 33.21936
#
# Velocity S-wave (km/s) = 4.66628 3.09559 3.95960
# Velocity P-wave (km/s) = 7.89321 6.91620 7.42080
#
# Compressibility (1/GPa) = 0.01418569
#
# Stress axis : x y z
#
# Youngs Moduli (GPa) = 72.72086 139.12977 59.72100
#
# Poissons Ratio (x) = 0.21360 0.42043
# Poissons Ratio (y) = 0.11165 0.18953
# Poissons Ratio (z) = 0.51194 0.44155
#
# Static dielectric constant tensor:
#      x y z
#    x 1.787190 0.000000 0.000000 
#    y 0.000000 1.819480 0.000000 
#    z 0.000000 0.000000 1.733990 
# 
# From -- ./inp_files/62228.got.cif
#   From: 2010.05.17/outbox.cif.g08.bks.cpg/sg70_32_cif.got.tgz:62228.got - 2010.06.03 15:57:51.
