data_PCOD9516565
_publ_section_title
;
Structure prediction by ZEFSAII (Michael W. Deem and Ramdas Pophale) SiO2 
 PCOD9516565
Probable space group: F D D D
;
_chemical_formula_sum "Si O2"
_cell_formula_units_Z 128
_cell_length_a 26.517837
_cell_length_b 25.440249
_cell_length_c 9.280222
_cell_angle_alpha 90.000000
_cell_angle_beta 90.000000
_cell_angle_gamma 90.000000
_cell_volume 6260.626857
_symmetry_space_group_name_H-M "F D D D"
_symmetry_group_IT_number 70
_space_group.IT_coordinate_system_code '2'
_symmetry_cell_setting 'orthorhombic'
loop_
_space_group_symop_operation_xyz
x,y,z
1/4-x,1/4-y,z
x,1/4-y,1/4-z
1/4-x,y,1/4-z
-x,-y,-z
3/4+x,3/4+y,-z
-x,3/4+y,3/4+z
3/4+x,-y,3/4+z
x,1/2+y,1/2+z
1/4-x,3/4-y,1/2+z
x,3/4-y,3/4-z
1/4-x,1/2+y,3/4-z
-x,1/2-y,1/2-z
3/4+x,1/4+y,1/2-z
-x,1/4+y,1/4+z
3/4+x,1/2-y,1/4+z
1/2+x,y,1/2+z
3/4-x,1/4-y,1/2+z
1/2+x,1/4-y,3/4-z
3/4-x,y,3/4-z
1/2-x,-y,1/2-z
1/4+x,3/4+y,1/2-z
1/2-x,3/4+y,1/4+z
1/4+x,-y,1/4+z
1/2+x,1/2+y,z
3/4-x,3/4-y,z
1/2+x,3/4-y,1/4-z
3/4-x,1/2+y,1/4-z
1/2-x,1/2-y,-z
1/4+x,1/4+y,-z
1/2-x,1/4+y,3/4+z
1/4+x,1/2-y,3/4+z
loop_
_atom_site_type_symbol
_atom_site_label
_atom_site_fract_x
_atom_site_fract_y
_atom_site_fract_z
Si Si1 0.927763 0.342685 0.580033
Si Si2 0.994017 0.125000 0.125000
Si Si3 0.875000 0.266786 0.375000
Si Si4 0.046011 0.763040 0.856508
Si Si5 0.935262 0.812063 0.373518
O O1 0.875000 0.375000 0.612851
O O2 0.038026 0.323078 0.403026
O O3 0.915081 0.305108 0.448342
O O4 0.947755 0.304294 0.705567
O O5 0.029650 0.130676 0.266911
O O6 0.903558 0.239580 0.242234
O O7 0.000000 0.750000 0.750000
O O8 0.046224 0.723667 0.994745
O O9 0.947100 0.875000 0.375000
O O10 0.875000 0.805924 0.375000
#
# Coordination Sequence:
#
# PCOD9516565 Si02
#       5
#    32  16  16  32  32
#     4  12  19  38  71 102 126 173 230 292 346 404
#     4  12  25  42  68  96 146 184 226 280 355 450
#     4  12  21  40  68  92 130 178 233 288 346 418
#     4  12  25  45  67 100 138 182 233 287 366 432
#     4  11  21  37  67 104 130 161 224 296 342 399
#
# _framework density 20.445236999999999
#
# number of rings (size 3 to 8) (size 9 to 14) (size 15 to 20)
#    0.000    0.250   10.000    1.500    0.000    1.000 
#    2.250    0.000    2.750    0.000    0.000    0.000 
#    0.000    0.000    0.000    0.000    0.000    0.000 
#
# Total GULP energy -178195.314505 kJ/mol
# GULP energy per Si atom -5568.603578 kJ/mol
# Density = 2.039870 g / cm^3
# Si number density = 20.445237 Si / 1000 Ang^3
#
#
#
# Elastic Constant Matrix: (Units=GPa)
#
#
# Indices 1 2 3 4 5 6 
#
# 1 49.2557 40.7905 36.5603 -0.0010 0.0006 0.0003
# 2 40.7905 135.5549 76.1313 -0.0001 0.0003 0.0000
# 3 36.5603 76.1313 172.6410 -0.0022 0.0012 0.0005
# 4 -0.0010 -0.0001 -0.0022 25.2452 0.0016 0.0007
# 5 0.0006 0.0003 0.0012 0.0016 30.4840 -0.0006
# 6 0.0003 0.0000 0.0005 0.0007 -0.0006 28.5476
#
#
#
# Elastic Compliance Matrix: (Units=1/GPa)
#
#
# Indices 1 2 3 4 5 6 
#
# 1 0.028132 -0.006805 -0.002957 0.000001 0.000000 0.000000
# 2 -0.006805 0.011452 -0.003609 -0.000001 0.000000 0.000000
# 3 -0.002957 -0.003609 0.008010 0.000001 0.000000 0.000000
# 4 0.000001 -0.000001 0.000001 0.039611 -0.000002 -0.000001
# 5 0.000000 0.000000 0.000000 -0.000002 0.032804 0.000001
# 6 0.000000 0.000000 0.000000 -0.000001 0.000001 0.035029
#
#
# Mechanical properties :
#
#
# Convention : Reuss Voigt Hill
#
# Bulk Modulus (GPa) = 47.95508 73.82398 60.88953
# Shear Modulus (GPa) = 26.49284 30.45335 28.47309
#
# Velocity S-wave (km/s) = 3.60362 3.86360 3.73587
# Velocity P-wave (km/s) = 6.38914 7.48931 6.96099
#
# Compressibility (1/GPa) = 0.02085285
#
# Stress axis : x y z
#
# Youngs Moduli (GPa) = 35.54649 87.32421 124.84442
#
# Poissons Ratio (x) = 0.59422 0.36914
# Poissons Ratio (y) = 0.24189 0.45055
# Poissons Ratio (z) = 0.10510 0.31514
#
# Static dielectric constant tensor:
#      x y z
#    x 1.841990 0.000000 0.000000 
#    y 0.000000 1.789180 0.000000 
#    z 0.000000 0.000000 1.948110 
# 
# From -- ./inp_files/12024.got.cif
#   From: 2010.05.17/outbox.cif.g08.bks.cpg/sg70_7_cif.got.tgz:12024.got - 2010.06.03 15:57:51.
