data_PCOD9516221
_publ_section_title
;
Structure prediction by ZEFSAII (Michael W. Deem and Ramdas Pophale) SiO2 
 PCOD9516221
Probable space group: F D D D
;
_chemical_formula_sum "Si O2"
_cell_formula_units_Z 240
_cell_length_a 18.550611
_cell_length_b 19.927720
_cell_length_c 26.413278
_cell_angle_alpha 90.000000
_cell_angle_beta 90.000000
_cell_angle_gamma 90.000000
_cell_volume 9764.232977
_symmetry_space_group_name_H-M "F D D D"
_symmetry_group_IT_number 70
_space_group.IT_coordinate_system_code '2'
_symmetry_cell_setting 'orthorhombic'
loop_
_space_group_symop_operation_xyz
x,y,z
1/4-x,1/4-y,z
x,1/4-y,1/4-z
1/4-x,y,1/4-z
-x,-y,-z
3/4+x,3/4+y,-z
-x,3/4+y,3/4+z
3/4+x,-y,3/4+z
x,1/2+y,1/2+z
1/4-x,3/4-y,1/2+z
x,3/4-y,3/4-z
1/4-x,1/2+y,3/4-z
-x,1/2-y,1/2-z
3/4+x,1/4+y,1/2-z
-x,1/4+y,1/4+z
3/4+x,1/2-y,1/4+z
1/2+x,y,1/2+z
3/4-x,1/4-y,1/2+z
1/2+x,1/4-y,3/4-z
3/4-x,y,3/4-z
1/2-x,-y,1/2-z
1/4+x,3/4+y,1/2-z
1/2-x,3/4+y,1/4+z
1/4+x,-y,1/4+z
1/2+x,1/2+y,z
3/4-x,3/4-y,z
1/2+x,3/4-y,1/4-z
3/4-x,1/2+y,1/4-z
1/2-x,1/2-y,-z
1/4+x,1/4+y,-z
1/2-x,1/4+y,3/4+z
1/4+x,1/2-y,3/4+z
loop_
_atom_site_type_symbol
_atom_site_label
_atom_site_fract_x
_atom_site_fract_y
_atom_site_fract_z
Si Si1 0.638403 0.735500 0.680264
Si Si2 0.006824 0.003551 0.202506
Si Si3 0.044505 0.238058 0.886906
Si Si4 0.050592 0.300713 0.351837
Si Si5 0.760626 0.848800 0.997721
Si Si6 0.630720 0.392854 0.065798
Si Si7 0.625000 0.625000 0.314763
Si Si8 0.148648 0.199213 0.467180
O O1 0.625000 0.705694 0.625000
O O2 0.726435 0.741864 0.671977
O O3 0.608245 0.812206 0.683326
O O4 0.590549 0.696605 0.722384
O O5 0.058509 0.939837 0.210082
O O6 0.925143 0.991980 0.220652
O O7 0.993832 0.007892 0.142223
O O8 0.027513 0.075450 0.226359
O O9 0.116073 0.279721 0.900777
O O10 0.065419 0.162865 0.903340
O O11 0.049071 0.232287 0.824873
O O12 0.051111 0.375000 0.375000
O O13 0.007957 0.304529 0.300094
O O14 0.691739 0.849138 0.033777
O O15 0.829743 0.826438 0.028930
O O16 0.625000 0.411771 0.125000
O O17 0.125000 0.125000 0.450159
#
# Coordination Sequence:
#
# PCOD9516221 Si02
#       8
#    32  32  32  32  32  32  16  32
#     4  11  26  48  67 104 144 178 244 305 356 441
#     4  10  23  47  66 100 138 179 234 288 349 443
#     4  11  24  46  72 101 143 185 239 298 354 448
#     4   9  23  45  72 100 139 184 234 289 364 427
#     4  11  24  44  69 102 141 179 229 292 357 421
#     4  11  25  41  72  99 135 184 229 290 358 426
#     4  12  24  40  65 104 139 176 234 294 342 436
#     4  11  24  44  73 100 139 186 235 298 371 430
#
# _framework density 24.579502000000002
#
# number of rings (size 3 to 8) (size 9 to 14) (size 15 to 20)
#    0.000    1.333    3.333    0.000   11.200    2.400 
#    2.400    2.333    0.000    0.000    0.000    0.000 
#    0.000    0.000    0.000    0.000    0.000    0.000 
#
# Total GULP energy -334788.518977 kJ/mol
# GULP energy per Si atom -5579.808650 kJ/mol
# Density = 2.452356 g / cm^3
# Si number density = 24.579502 Si / 1000 Ang^3
#
#
#
# Elastic Constant Matrix: (Units=GPa)
#
#
# Indices 1 2 3 4 5 6 
#
# 1 107.7213 13.3448 25.8822 0.0000 0.0000 0.0000
# 2 13.3448 57.2832 -25.4782 0.0000 0.0000 0.0000
# 3 25.8822 -25.4782 96.7310 0.0000 0.0000 0.0000
# 4 0.0000 0.0000 0.0000 24.9443 0.0000 0.0000
# 5 0.0000 0.0000 0.0000 0.0000 12.3746 0.0000
# 6 0.0000 0.0000 0.0000 0.0000 0.0000 39.7649
#
#
#
# Elastic Compliance Matrix: (Units=1/GPa)
#
#
# Indices 1 2 3 4 5 6 
#
# 1 0.010781 -0.004298 -0.004017 0.000000 0.000000 0.000000
# 2 -0.004298 0.021487 0.006810 0.000000 0.000000 0.000000
# 3 -0.004017 0.006810 0.013206 0.000000 0.000000 0.000000
# 4 0.000000 0.000000 0.000000 0.040089 0.000000 0.000000
# 5 0.000000 0.000000 0.000000 0.000000 0.080811 0.000000
# 6 0.000000 0.000000 0.000000 0.000000 0.000000 0.025148
#
#
# Mechanical properties :
#
#
# Convention : Reuss Voigt Hill
#
# Bulk Modulus (GPa) = 23.54940 32.13701 27.84321
# Shear Modulus (GPa) = 23.95934 31.94919 27.95427
#
# Velocity S-wave (km/s) = 3.12552 3.60923 3.37605
# Velocity P-wave (km/s) = 4.75677 5.52013 5.15260
#
# Compressibility (1/GPa) = 0.04246393
#
# Stress axis : x y z
#
# Youngs Moduli (GPa) = 92.75791 46.53947 75.72156
#
# Poissons Ratio (x) = 0.20003 0.30415
# Poissons Ratio (y) = 0.39868 -0.51563
# Poissons Ratio (z) = 0.37258 -0.31691
#
# Static dielectric constant tensor:
#      x y z
#    x 1.976180 0.000000 0.000000 
#    y 0.000000 1.999020 0.000000 
#    z 0.000000 0.000000 2.258690 
# 
# From -- ./inp_files/60545.got.cif
#   From: 2010.05.17/outbox.cif.g08.bks.cpg/sg70_31_cif.got.tgz:60545.got - 2010.06.03 15:57:51.
