data_PCOD9516575
_publ_section_title
;
Structure prediction by ZEFSAII (Michael W. Deem and Ramdas Pophale) SiO2 
 PCOD9516575
Probable space group: F D D D
;
_chemical_formula_sum "Si O2"
_cell_formula_units_Z 160
_cell_length_a 26.818395
_cell_length_b 25.413347
_cell_length_c 10.200121
_cell_angle_alpha 90.000000
_cell_angle_beta 90.000000
_cell_angle_gamma 90.000000
_cell_volume 6951.843284
_symmetry_space_group_name_H-M "F D D D"
_symmetry_group_IT_number 70
_space_group.IT_coordinate_system_code '2'
_symmetry_cell_setting 'orthorhombic'
loop_
_space_group_symop_operation_xyz
x,y,z
1/4-x,1/4-y,z
x,1/4-y,1/4-z
1/4-x,y,1/4-z
-x,-y,-z
3/4+x,3/4+y,-z
-x,3/4+y,3/4+z
3/4+x,-y,3/4+z
x,1/2+y,1/2+z
1/4-x,3/4-y,1/2+z
x,3/4-y,3/4-z
1/4-x,1/2+y,3/4-z
-x,1/2-y,1/2-z
3/4+x,1/4+y,1/2-z
-x,1/4+y,1/4+z
3/4+x,1/2-y,1/4+z
1/2+x,y,1/2+z
3/4-x,1/4-y,1/2+z
1/2+x,1/4-y,3/4-z
3/4-x,y,3/4-z
1/2-x,-y,1/2-z
1/4+x,3/4+y,1/2-z
1/2-x,3/4+y,1/4+z
1/4+x,-y,1/4+z
1/2+x,1/2+y,z
3/4-x,3/4-y,z
1/2+x,3/4-y,1/4-z
3/4-x,1/2+y,1/4-z
1/2-x,1/2-y,-z
1/4+x,1/4+y,-z
1/2-x,1/4+y,3/4+z
1/4+x,1/2-y,3/4+z
loop_
_atom_site_type_symbol
_atom_site_label
_atom_site_fract_x
_atom_site_fract_y
_atom_site_fract_z
Si Si1 0.833108 0.125000 0.625000
Si Si2 0.308863 0.234000 0.212026
Si Si3 0.527340 0.939567 0.727802
Si Si4 0.875000 0.171627 0.375000
Si Si5 0.108247 0.183321 0.778195
Si Si6 0.238470 0.932391 0.712631
O O1 0.804106 0.179182 0.637300
O O2 0.866352 0.133290 0.497563
O O3 0.267418 0.275971 0.176402
O O4 0.360619 0.264282 0.182795
O O5 0.294784 0.216505 0.362109
O O6 0.578751 0.956970 0.665153
O O7 0.520664 0.879063 0.686001
O O8 0.526205 0.941378 0.885880
O O9 0.125000 0.125000 0.831457
O O10 0.125000 0.180382 0.625000
O O11 0.048735 0.189439 0.797734
#
# Coordination Sequence:
#
# PCOD9516575 Si02
#       6
#    16  32  32  16  32  32
#     4  12  30  48  72 111 150 197 254 304 382 450
#     4  12  26  44  75 109 155 197 248 313 378 452
#     4  11  23  45  72 104 151 192 250 310 364 451
#     4  12  28  48  72 111 145 196 256 306 376 454
#     4  11  21  39  71 115 143 187 251 318 373 439
#     4  11  22  44  73 115 146 191 252 313 380 440
#
# _framework density 23.015477000000001
#
# number of rings (size 3 to 8) (size 9 to 14) (size 15 to 20)
#    0.000    0.600    6.000    3.000    4.200    0.800 
#    0.000    0.000    0.000    0.000    0.000    0.000 
#    0.000    0.000    0.000    0.000    0.000    0.000 
#
# Total GULP energy -223607.622632 kJ/mol
# GULP energy per Si atom -5590.190566 kJ/mol
# Density = 2.296309 g / cm^3
# Si number density = 23.015477 Si / 1000 Ang^3
#
#
#
# Elastic Constant Matrix: (Units=GPa)
#
#
# Indices 1 2 3 4 5 6 
#
# 1 156.7903 28.8537 36.6021 0.0001 -0.0001 0.0000
# 2 28.8537 140.9341 13.4171 0.0003 0.0000 0.0000
# 3 36.6021 13.4171 67.6840 0.0010 -0.0002 0.0000
# 4 0.0001 0.0003 0.0010 27.2940 -0.0001 0.0000
# 5 -0.0001 0.0000 -0.0002 -0.0001 11.3544 0.0000
# 6 0.0000 0.0000 0.0000 0.0000 0.0000 16.6327
#
#
#
# Elastic Compliance Matrix: (Units=1/GPa)
#
#
# Indices 1 2 3 4 5 6 
#
# 1 0.007484 -0.001169 -0.003815 0.000000 0.000000 0.000000
# 2 -0.001169 0.007415 -0.000838 0.000000 0.000000 0.000000
# 3 -0.003815 -0.000838 0.017004 -0.000001 0.000000 0.000000
# 4 0.000000 0.000000 -0.000001 0.036638 0.000000 0.000000
# 5 0.000000 0.000000 0.000000 0.000000 0.088071 0.000000
# 6 0.000000 0.000000 0.000000 0.000000 0.000000 0.060122
#
#
# Mechanical properties :
#
#
# Convention : Reuss Voigt Hill
#
# Bulk Modulus (GPa) = 49.36250 58.12825 53.74537
# Shear Modulus (GPa) = 21.26478 30.15861 25.71169
#
# Velocity S-wave (km/s) = 3.04293 3.62382 3.34600
# Velocity P-wave (km/s) = 5.81721 6.54373 6.19114
#
# Compressibility (1/GPa) = 0.02025829
#
# Stress axis : x y z
#
# Youngs Moduli (GPa) = 133.62310 134.86945 58.81027
#
# Poissons Ratio (x) = 0.15765 0.22438
# Poissons Ratio (y) = 0.15620 0.04926
# Poissons Ratio (z) = 0.50982 0.11298
#
# Static dielectric constant tensor:
#      x y z
#    x 1.900340 0.000000 0.000000 
#    y 0.000000 1.914530 0.000000 
#    z 0.000000 0.000000 1.923870 
# 
# From -- ./inp_files/20887.got.cif
#   From: 2010.05.17/outbox.cif.g08.bks.cpg/sg70_11_cif.got.tgz:20887.got - 2010.06.03 15:57:51.
