data_PCOD9516615
_publ_section_title
;
Structure prediction by ZEFSAII (Michael W. Deem and Ramdas Pophale) SiO2 
 PCOD9516615
Probable space group: F D D D
;
_chemical_formula_sum "Si O2"
_cell_formula_units_Z 136
_cell_length_a 29.826376
_cell_length_b 10.818797
_cell_length_c 21.572110
_cell_angle_alpha 90.000000
_cell_angle_beta 90.000000
_cell_angle_gamma 90.000000
_cell_volume 6961.007257
_symmetry_space_group_name_H-M "F D D D"
_symmetry_group_IT_number 70
_space_group.IT_coordinate_system_code '2'
_symmetry_cell_setting 'orthorhombic'
loop_
_space_group_symop_operation_xyz
x,y,z
1/4-x,1/4-y,z
x,1/4-y,1/4-z
1/4-x,y,1/4-z
-x,-y,-z
3/4+x,3/4+y,-z
-x,3/4+y,3/4+z
3/4+x,-y,3/4+z
x,1/2+y,1/2+z
1/4-x,3/4-y,1/2+z
x,3/4-y,3/4-z
1/4-x,1/2+y,3/4-z
-x,1/2-y,1/2-z
3/4+x,1/4+y,1/2-z
-x,1/4+y,1/4+z
3/4+x,1/2-y,1/4+z
1/2+x,y,1/2+z
3/4-x,1/4-y,1/2+z
1/2+x,1/4-y,3/4-z
3/4-x,y,3/4-z
1/2-x,-y,1/2-z
1/4+x,3/4+y,1/2-z
1/2-x,3/4+y,1/4+z
1/4+x,-y,1/4+z
1/2+x,1/2+y,z
3/4-x,3/4-y,z
1/2+x,3/4-y,1/4-z
3/4-x,1/2+y,1/4-z
1/2-x,1/2-y,-z
1/4+x,1/4+y,-z
1/2-x,1/4+y,3/4+z
1/4+x,1/2-y,3/4+z
loop_
_atom_site_type_symbol
_atom_site_label
_atom_site_fract_x
_atom_site_fract_y
_atom_site_fract_z
Si Si1 0.375000 0.875000 0.375000
Si Si2 0.628791 0.761570 0.769122
Si Si3 0.277795 0.514423 0.574757
Si Si4 0.064792 0.512310 0.867599
Si Si5 0.070014 0.769050 0.522945
O O1 0.406235 0.798901 0.420932
O O2 0.625000 0.625000 0.741956
O O3 0.680398 0.798001 0.779496
O O4 0.608038 0.753659 0.838529
O O5 0.595591 0.850640 0.732564
O O6 0.272637 0.625000 0.625000
O O7 0.289515 0.382808 0.607025
O O8 0.232604 0.488457 0.536888
O O9 0.041915 0.375000 0.875000
O O10 0.076515 0.534525 0.796189
#
# Coordination Sequence:
#
# PCOD9516615 Si02
#       5
#     8  32  32  32  32
#     4  12  28  40  54  92 136 176 192 268 340 372
#     4   9  21  41  68  95 120 168 222 272 320 377
#     4  11  22  38  63 101 121 170 229 248 331 392
#     4   9  21  40  65  92 125 170 212 278 318 369
#     4  11  24  42  61  90 138 166 212 270 325 391
#
# _framework density 19.537402
#
# number of rings (size 3 to 8) (size 9 to 14) (size 15 to 20)
#    0.000    1.882    1.176    2.118    8.235   11.294 
#    0.000    0.588    0.000    0.000    0.000    0.000 
#    0.000    0.000    0.000    0.000    0.000    0.000 
#
# Total GULP energy -189525.627682 kJ/mol
# GULP energy per Si atom -5574.283167 kJ/mol
# Density = 1.949293 g / cm^3
# Si number density = 19.537402 Si / 1000 Ang^3
#
#
#
# Elastic Constant Matrix: (Units=GPa)
#
#
# Indices 1 2 3 4 5 6 
#
# 1 157.0125 56.5479 45.2749 0.0000 0.0000 0.0000
# 2 56.5479 97.6498 28.9367 0.0000 0.0000 0.0000
# 3 45.2749 28.9367 89.6586 0.0000 0.0000 0.0000
# 4 0.0000 0.0000 0.0000 74.9196 0.0000 0.0000
# 5 0.0000 0.0000 0.0000 0.0000 -4.2557 0.0000
# 6 0.0000 0.0000 0.0000 0.0000 0.0000 6.7178
#
#
#
# Elastic Compliance Matrix: (Units=1/GPa)
#
#
# Indices 1 2 3 4 5 6 
#
# 1 0.008754 -0.004157 -0.003079 0.000000 0.000000 0.000000
# 2 -0.004157 0.013298 -0.002193 0.000000 0.000000 0.000000
# 3 -0.003079 -0.002193 0.013416 0.000000 0.000000 0.000000
# 4 0.000000 0.000000 0.000000 0.013348 0.000000 0.000000
# 5 0.000000 0.000000 0.000000 0.000000 -0.234981 0.000000
# 6 0.000000 0.000000 0.000000 0.000000 0.000000 0.148859
#
#
# Mechanical properties :
#
#
# Convention : Reuss Voigt Hill
#
# Bulk Modulus (GPa) = 60.20252 67.31554 63.75903
# Shear Modulus (GPa) = -387.17819 29.71377 -178.73221
#
# Velocity S-wave (km/s) = -14.09266 3.90406 -9.57500
# Velocity P-wave (km/s) = 15.29455 7.40620 9.46233
#
# Compressibility (1/GPa) = 0.01661060
#
# Stress axis : x y z
#
# Youngs Moduli (GPa) = 114.23618 75.20145 74.53914
#
# Poissons Ratio (x) = 0.31260 0.22949
# Poissons Ratio (y) = 0.47487 0.16344
# Poissons Ratio (z) = 0.35171 0.16489
#
# Static dielectric constant tensor:
#      x y z
#    x 1.705630 0.000000 0.000000 
#    y 0.000000 1.794500 0.000000 
#    z 0.000000 0.000000 1.670990 
# 
# From -- ./inp_files/17673.got.cif
#   From: 2010.05.17/outbox.cif.g08.bks.cpg/sg70_9_cif.got.tgz:17673.got - 2010.06.03 15:57:51.
