data_PCOD9516077
_publ_section_title
;
Structure prediction by ZEFSAII (Michael W. Deem and Ramdas Pophale) SiO2 
 PCOD9516077
Probable space group: F D D D
;
_chemical_formula_sum "Si O2"
_cell_formula_units_Z 104
_cell_length_a 26.847281
_cell_length_b 16.503723
_cell_length_c 10.649548
_cell_angle_alpha 90.000000
_cell_angle_beta 90.000000
_cell_angle_gamma 90.000000
_cell_volume 4718.602675
_symmetry_space_group_name_H-M "F D D D"
_symmetry_group_IT_number 70
_space_group.IT_coordinate_system_code '2'
_symmetry_cell_setting 'orthorhombic'
loop_
_space_group_symop_operation_xyz
x,y,z
1/4-x,1/4-y,z
x,1/4-y,1/4-z
1/4-x,y,1/4-z
-x,-y,-z
3/4+x,3/4+y,-z
-x,3/4+y,3/4+z
3/4+x,-y,3/4+z
x,1/2+y,1/2+z
1/4-x,3/4-y,1/2+z
x,3/4-y,3/4-z
1/4-x,1/2+y,3/4-z
-x,1/2-y,1/2-z
3/4+x,1/4+y,1/2-z
-x,1/4+y,1/4+z
3/4+x,1/2-y,1/4+z
1/2+x,y,1/2+z
3/4-x,1/4-y,1/2+z
1/2+x,1/4-y,3/4-z
3/4-x,y,3/4-z
1/2-x,-y,1/2-z
1/4+x,3/4+y,1/2-z
1/2-x,3/4+y,1/4+z
1/4+x,-y,1/4+z
1/2+x,1/2+y,z
3/4-x,3/4-y,z
1/2+x,3/4-y,1/4-z
3/4-x,1/2+y,1/4-z
1/2-x,1/2-y,-z
1/4+x,1/4+y,-z
1/2-x,1/4+y,3/4+z
1/4+x,1/2-y,3/4+z
loop_
_atom_site_type_symbol
_atom_site_label
_atom_site_fract_x
_atom_site_fract_y
_atom_site_fract_z
Si Si1 0.903346 0.670416 0.244081
Si Si2 0.242193 0.576449 0.004284
Si Si3 0.945678 0.812625 0.080441
Si Si4 0.625000 0.125000 0.625000
O O1 0.877151 0.625000 0.125000
O O2 0.875000 0.677144 0.375000
O O3 0.953299 0.616998 0.265885
O O4 0.921197 0.756301 0.187576
O O5 0.208480 0.599919 0.887486
O O6 0.221961 0.625000 0.125000
O O7 0.254187 0.484496 0.038240
O O8 0.909468 0.821247 0.964002
#
# Coordination Sequence:
#
# PCOD9516077 Si02
#       4
#    32  32  32   8
#     4   9  19  36  65  97 129 161 208 261 313 379
#     4   9  19  39  66  88 117 165 211 261 310 387
#     4  10  23  40  61  87 130 159 220 255 323 368
#     4  12  28  40  54  96 132 164 196 292 296 376
#
# _framework density 22.040424000000002
#
# number of rings (size 3 to 8) (size 9 to 14) (size 15 to 20)
#    0.000    3.077    0.000    3.692    8.615    6.154 
#    2.769    0.000    0.000    0.000    0.000    0.000 
#    0.000    0.000    0.000    0.000    0.000    0.000 
#
# Total GULP energy -145102.827590 kJ/mol
# GULP energy per Si atom -5580.877984 kJ/mol
# Density = 2.199026 g / cm^3
# Si number density = 22.040424 Si / 1000 Ang^3
#
#
#
# Elastic Constant Matrix: (Units=GPa)
#
#
# Indices 1 2 3 4 5 6 
#
# 1 20.7255 7.9834 49.4005 0.0000 0.0000 0.0000
# 2 7.9834 59.8416 35.0350 0.0000 0.0000 0.0000
# 3 49.4005 35.0350 149.2089 0.0000 0.0000 0.0000
# 4 0.0000 0.0000 0.0000 26.2606 0.0000 0.0000
# 5 0.0000 0.0000 0.0000 0.0000 13.7314 0.0000
# 6 0.0000 0.0000 0.0000 0.0000 0.0000 -9.4437
#
#
#
# Elastic Compliance Matrix: (Units=1/GPa)
#
#
# Indices 1 2 3 4 5 6 
#
# 1 0.242926 0.017019 -0.084425 0.000000 0.000000 0.000000
# 2 0.017019 0.020566 -0.010464 0.000000 0.000000 0.000000
# 3 -0.084425 -0.010464 0.037111 0.000000 0.000000 0.000000
# 4 0.000000 0.000000 0.000000 0.038080 0.000000 0.000000
# 5 0.000000 0.000000 0.000000 0.000000 0.072826 0.000000
# 6 0.000000 0.000000 0.000000 0.000000 0.000000 -0.105891
#
#
# Mechanical properties :
#
#
# Convention : Reuss Voigt Hill
#
# Bulk Modulus (GPa) = 6.90302 46.06822 26.48562
# Shear Modulus (GPa) = 9.81074 15.26681 12.53877
#
# Velocity S-wave (km/s) = 2.11209 2.63472 2.38775
# Velocity P-wave (km/s) = 3.01441 5.49570 4.43224
#
# Compressibility (1/GPa) = 0.14486411
#
# Stress axis : x y z
#
# Youngs Moduli (GPa) = 4.11647 48.62281 26.94645
#
# Poissons Ratio (x) = -0.82752 2.27495
# Poissons Ratio (y) = -0.07006 0.28196
# Poissons Ratio (z) = 0.34753 0.50878
#
# Static dielectric constant tensor:
#      x y z
#    x 1.829440 0.000000 0.000000 
#    y 0.000000 1.838120 0.000000 
#    z 0.000000 0.000000 1.821130 
# 
# From -- ./inp_files/8185.got.cif
#   From: 2010.05.17/outbox.cif.g08.bks.cpg/sg70_5_cif.got.tgz:8185.got - 2010.06.03 15:57:51.
