data_PCOD9516074
_publ_section_title
;
Structure prediction by ZEFSAII (Michael W. Deem and Ramdas Pophale) SiO2 
 PCOD9516074
Probable space group: F D D D
;
_chemical_formula_sum "Si O2"
_cell_formula_units_Z 240
_cell_length_a 13.127327
_cell_length_b 28.004297
_cell_length_c 32.370850
_cell_angle_alpha 90.000000
_cell_angle_beta 90.000000
_cell_angle_gamma 90.000000
_cell_volume 11900.222509
_symmetry_space_group_name_H-M "F D D D"
_symmetry_group_IT_number 70
_space_group.IT_coordinate_system_code '2'
_symmetry_cell_setting 'orthorhombic'
loop_
_space_group_symop_operation_xyz
x,y,z
1/4-x,1/4-y,z
x,1/4-y,1/4-z
1/4-x,y,1/4-z
-x,-y,-z
3/4+x,3/4+y,-z
-x,3/4+y,3/4+z
3/4+x,-y,3/4+z
x,1/2+y,1/2+z
1/4-x,3/4-y,1/2+z
x,3/4-y,3/4-z
1/4-x,1/2+y,3/4-z
-x,1/2-y,1/2-z
3/4+x,1/4+y,1/2-z
-x,1/4+y,1/4+z
3/4+x,1/2-y,1/4+z
1/2+x,y,1/2+z
3/4-x,1/4-y,1/2+z
1/2+x,1/4-y,3/4-z
3/4-x,y,3/4-z
1/2-x,-y,1/2-z
1/4+x,3/4+y,1/2-z
1/2-x,3/4+y,1/4+z
1/4+x,-y,1/4+z
1/2+x,1/2+y,z
3/4-x,3/4-y,z
1/2+x,3/4-y,1/4-z
3/4-x,1/2+y,1/4-z
1/2-x,1/2-y,-z
1/4+x,1/4+y,-z
1/2-x,1/4+y,3/4+z
1/4+x,1/2-y,3/4+z
loop_
_atom_site_type_symbol
_atom_site_label
_atom_site_fract_x
_atom_site_fract_y
_atom_site_fract_z
Si Si1 0.853090 0.765534 0.173122
Si Si2 0.465204 0.645438 0.401644
Si Si3 0.014639 0.037778 0.101734
Si Si4 0.476878 0.035586 0.752905
Si Si5 0.005620 0.639330 0.717997
Si Si6 0.199204 0.039348 0.285432
Si Si7 0.625000 0.625000 0.341361
Si Si8 0.165002 0.797282 0.078496
O O1 0.792199 0.815071 0.166677
O O2 0.815110 0.730324 0.136369
O O3 0.815170 0.746498 0.216577
O O4 0.973429 0.774134 0.174390
O O5 0.375000 0.668614 0.375000
O O6 0.529358 0.613608 0.369416
O O7 0.423366 0.604595 0.431068
O O8 0.125000 0.040833 0.125000
O O9 0.987686 0.086882 0.077099
O O10 0.007675 0.997941 0.064786
O O11 0.461144 0.089655 0.734958
O O12 0.595508 0.023454 0.762213
O O13 0.413930 0.028367 0.794760
O O14 0.125000 0.625000 0.718012
O O15 0.986238 0.681267 0.751622
O O16 0.155662 0.080147 0.315119
O O17 0.125000 0.790179 0.125000
#
# Coordination Sequence:
#
# PCOD9516074 Si02
#       8
#    32  32  32  32  32  32  16  32
#     4  12  24  39  59  92 124 157 210 254 298 386
#     4  11  22  35  61  92 121 153 192 257 314 362
#     4  12  24  38  62  92 126 169 210 249 306 377
#     4  11  24  41  62  87 124 168 203 252 311 371
#     4  10  23  40  58  87 129 166 205 255 305 368
#     4  11  21  38  60  91 125 155 204 260 311 371
#     4  12  18  38  60  86 127 148 197 252 318 372
#     4  11  23  42  66  89 118 158 199 263 329 367
#
# _framework density 20.167688999999999
#
# number of rings (size 3 to 8) (size 9 to 14) (size 15 to 20)
#    0.000    0.800    4.667    5.200    0.000    2.933 
#    0.000    0.000    0.000    0.000    0.000    2.800 
#    0.000    0.000    0.000    0.000    0.000    0.000 
#
# Total GULP energy -334898.985768 kJ/mol
# GULP energy per Si atom -5581.649763 kJ/mol
# Density = 2.012179 g / cm^3
# Si number density = 20.167689 Si / 1000 Ang^3
#
#
#
# Elastic Constant Matrix: (Units=GPa)
#
#
# Indices 1 2 3 4 5 6 
#
# 1 73.4722 22.5694 26.1671 0.0000 0.0000 0.0000
# 2 22.5694 37.8649 45.7328 0.0000 0.0000 0.0000
# 3 26.1671 45.7328 117.1409 0.0000 0.0000 0.0000
# 4 0.0000 0.0000 0.0000 39.7658 0.0000 0.0000
# 5 0.0000 0.0000 0.0000 0.0000 35.2919 0.0000
# 6 0.0000 0.0000 0.0000 0.0000 0.0000 22.8175
#
#
#
# Elastic Compliance Matrix: (Units=1/GPa)
#
#
# Indices 1 2 3 4 5 6 
#
# 1 0.016667 -0.010289 0.000294 0.000000 0.000000 0.000000
# 2 -0.010289 0.056326 -0.019692 0.000000 0.000000 0.000000
# 3 0.000294 -0.019692 0.016159 0.000000 0.000000 0.000000
# 4 0.000000 0.000000 0.000000 0.025147 0.000000 0.000000
# 5 0.000000 0.000000 0.000000 0.000000 0.028335 0.000000
# 6 0.000000 0.000000 0.000000 0.000000 0.000000 0.043826
#
#
# Mechanical properties :
#
#
# Convention : Reuss Voigt Hill
#
# Bulk Modulus (GPa) = 33.58233 46.37961 39.98097
# Shear Modulus (GPa) = 19.54962 28.50896 24.02929
#
# Velocity S-wave (km/s) = 3.11682 3.76386 3.45552
# Velocity P-wave (km/s) = 5.44431 6.47578 5.98232
#
# Compressibility (1/GPa) = 0.02977757
#
# Stress axis : x y z
#
# Youngs Moduli (GPa) = 60.00040 17.75379 61.88557
#
# Poissons Ratio (x) = 0.18267 -0.01819
# Poissons Ratio (y) = 0.61736 1.21863
# Poissons Ratio (z) = -0.01764 0.34960
#
# Static dielectric constant tensor:
#      x y z
#    x 1.743900 0.000000 0.000000 
#    y 0.000000 1.780370 0.000000 
#    z 0.000000 0.000000 1.758890 
# 
# From -- ./inp_files/66126.got.cif
#   From: 2010.05.17/outbox.cif.g08.bks.cpg/sg70_34_cif.got.tgz:66126.got - 2010.06.03 15:57:51.
