data_PCOD9516483
_publ_section_title
;
Structure prediction by ZEFSAII (Michael W. Deem and Ramdas Pophale) SiO2 
 PCOD9516483
Probable space group: F D D D
;
_chemical_formula_sum "Si O2"
_cell_formula_units_Z 192
_cell_length_a 11.252448
_cell_length_b 26.108548
_cell_length_c 25.970364
_cell_angle_alpha 90.000000
_cell_angle_beta 90.000000
_cell_angle_gamma 90.000000
_cell_volume 7629.705432
_symmetry_space_group_name_H-M "F D D D"
_symmetry_group_IT_number 70
_space_group.IT_coordinate_system_code '2'
_symmetry_cell_setting 'orthorhombic'
loop_
_space_group_symop_operation_xyz
x,y,z
1/4-x,1/4-y,z
x,1/4-y,1/4-z
1/4-x,y,1/4-z
-x,-y,-z
3/4+x,3/4+y,-z
-x,3/4+y,3/4+z
3/4+x,-y,3/4+z
x,1/2+y,1/2+z
1/4-x,3/4-y,1/2+z
x,3/4-y,3/4-z
1/4-x,1/2+y,3/4-z
-x,1/2-y,1/2-z
3/4+x,1/4+y,1/2-z
-x,1/4+y,1/4+z
3/4+x,1/2-y,1/4+z
1/2+x,y,1/2+z
3/4-x,1/4-y,1/2+z
1/2+x,1/4-y,3/4-z
3/4-x,y,3/4-z
1/2-x,-y,1/2-z
1/4+x,3/4+y,1/2-z
1/2-x,3/4+y,1/4+z
1/4+x,-y,1/4+z
1/2+x,1/2+y,z
3/4-x,3/4-y,z
1/2+x,3/4-y,1/4-z
3/4-x,1/2+y,1/4-z
1/2-x,1/2-y,-z
1/4+x,1/4+y,-z
1/2-x,1/4+y,3/4+z
1/4+x,1/2-y,3/4+z
loop_
_atom_site_type_symbol
_atom_site_label
_atom_site_fract_x
_atom_site_fract_y
_atom_site_fract_z
Si Si1 0.416176 0.103627 0.481162
Si Si2 0.936484 0.286795 0.305383
Si Si3 0.220127 0.701498 0.212303
Si Si4 0.123972 0.737067 0.866341
Si Si5 0.908097 0.534142 0.720150
Si Si6 0.875000 0.875000 0.100093
Si Si7 0.625000 0.125000 0.625000
Si Si8 0.125000 0.125000 0.625000
O O1 0.492163 0.056485 0.506119
O O2 0.286153 0.078828 0.491006
O O3 0.398635 0.158311 0.509595
O O4 0.503862 0.118502 0.433967
O O5 0.800340 0.278935 0.291851
O O6 0.950696 0.338388 0.339650
O O7 0.992140 0.245073 0.343010
O O8 0.298994 0.743401 0.181527
O O9 0.126612 0.738618 0.240258
O O10 0.189251 0.662219 0.166613
O O11 0.148489 0.772890 0.914920
O O12 0.141549 0.678023 0.879756
#
# Coordination Sequence:
#
# PCOD9516483 Si02
#       8
#    32  32  32  32  32  16   8   8
#     4  11  20  38  65  99 133 177 213 268 335 408
#     4  11  18  31  58 100 143 174 210 259 326 407
#     4  11  26  45  71  92 124 175 234 281 331 386
#     4  11  23  37  64 100 137 173 213 266 336 407
#     4  12  20  38  63  99 136 174 215 266 332 406
#     4  12  21  39  62 101 152 173 199 272 341 410
#     4  12  14  26  52  94 138 178 200 258 314 386
#     4  12  28  56  68  84 118 176 250 302 308 368
#
# _framework density 25.164798999999999
#
# number of rings (size 3 to 8) (size 9 to 14) (size 15 to 20)
#    0.000    0.667    6.667    2.000    0.000    6.000 
#    0.000    5.000    0.000    0.000    0.000    0.000 
#    0.000    0.000    0.000    0.000    0.000    0.000 
#
# Total GULP energy -267843.159222 kJ/mol
# GULP energy per Si atom -5580.065817 kJ/mol
# Density = 2.510752 g / cm^3
# Si number density = 25.164799 Si / 1000 Ang^3
#
#
#
# Elastic Constant Matrix: (Units=GPa)
#
#
# Indices 1 2 3 4 5 6 
#
# 1 50.3549 13.7866 10.6400 0.0000 0.0000 0.0000
# 2 13.7866 171.9190 19.2311 0.0000 0.0000 0.0000
# 3 10.6400 19.2311 79.9789 0.0000 0.0000 0.0000
# 4 0.0000 0.0000 0.0000 36.2643 0.0000 0.0000
# 5 0.0000 0.0000 0.0000 0.0000 -0.8154 0.0000
# 6 0.0000 0.0000 0.0000 0.0000 0.0000 -132.9309
#
#
#
# Elastic Compliance Matrix: (Units=1/GPa)
#
#
# Indices 1 2 3 4 5 6 
#
# 1 0.020753 -0.001393 -0.002426 0.000000 0.000000 0.000000
# 2 -0.001393 0.006071 -0.001274 0.000000 0.000000 0.000000
# 3 -0.002426 -0.001274 0.013132 0.000000 0.000000 0.000000
# 4 0.000000 0.000000 0.000000 0.027575 0.000000 0.000000
# 5 0.000000 0.000000 0.000000 0.000000 -1.226397 0.000000
# 6 0.000000 0.000000 0.000000 0.000000 0.000000 -0.007523
#
#
# Mechanical properties :
#
#
# Convention : Reuss Voigt Hill
#
# Bulk Modulus (GPa) = 33.59103 43.28536 38.43820
# Shear Modulus (GPa) = -4.36194 -2.25673 -3.30934
#
# Velocity S-wave (km/s) = -1.31800 -0.94801 -1.14801
# Velocity P-wave (km/s) = 3.32585 4.00497 3.68110
#
# Compressibility (1/GPa) = 0.02976985
#
# Stress axis : x y z
#
# Youngs Moduli (GPa) = 48.18579 164.71874 76.14702
#
# Poissons Ratio (x) = 0.22943 0.18473
# Poissons Ratio (y) = 0.06712 0.09705
# Poissons Ratio (z) = 0.11690 0.20993
#
# Static dielectric constant tensor:
#      x y z
#    x 2.031250 0.000000 0.000000 
#    y 0.000000 1.965560 0.000000 
#    z 0.000000 0.000000 2.078930 
# 
# From -- ./inp_files/29114.got.cif
#   From: 2010.05.17/outbox.cif.g08.bks.cpg/sg70_15_cif.got.tgz:29114.got - 2010.06.03 15:57:51.
