data_PCOD9516364
_publ_section_title
;
Structure prediction by ZEFSAII (Michael W. Deem and Ramdas Pophale) SiO2 
 PCOD9516364
Probable space group: F D D D
;
_chemical_formula_sum "Si O2"
_cell_formula_units_Z 112
_cell_length_a 11.804829
_cell_length_b 16.048914
_cell_length_c 22.685515
_cell_angle_alpha 90.000000
_cell_angle_beta 90.000000
_cell_angle_gamma 90.000000
_cell_volume 4297.877108
_symmetry_space_group_name_H-M "F D D D"
_symmetry_group_IT_number 70
_space_group.IT_coordinate_system_code '2'
_symmetry_cell_setting 'orthorhombic'
loop_
_space_group_symop_operation_xyz
x,y,z
1/4-x,1/4-y,z
x,1/4-y,1/4-z
1/4-x,y,1/4-z
-x,-y,-z
3/4+x,3/4+y,-z
-x,3/4+y,3/4+z
3/4+x,-y,3/4+z
x,1/2+y,1/2+z
1/4-x,3/4-y,1/2+z
x,3/4-y,3/4-z
1/4-x,1/2+y,3/4-z
-x,1/2-y,1/2-z
3/4+x,1/4+y,1/2-z
-x,1/4+y,1/4+z
3/4+x,1/2-y,1/4+z
1/2+x,y,1/2+z
3/4-x,1/4-y,1/2+z
1/2+x,1/4-y,3/4-z
3/4-x,y,3/4-z
1/2-x,-y,1/2-z
1/4+x,3/4+y,1/2-z
1/2-x,3/4+y,1/4+z
1/4+x,-y,1/4+z
1/2+x,1/2+y,z
3/4-x,3/4-y,z
1/2+x,3/4-y,1/4-z
3/4-x,1/2+y,1/4-z
1/2-x,1/2-y,-z
1/4+x,1/4+y,-z
1/2-x,1/4+y,3/4+z
1/4+x,1/2-y,3/4+z
loop_
_atom_site_type_symbol
_atom_site_label
_atom_site_fract_x
_atom_site_fract_y
_atom_site_fract_z
Si Si1 0.504958 0.246811 0.488044
Si Si2 0.546683 0.429786 0.067370
Si Si3 0.867819 0.221963 0.105921
Si Si4 0.375000 0.768768 0.875000
O O1 0.501053 0.154446 0.460326
O O2 0.622044 0.277533 0.518347
O O3 0.426043 0.238112 0.544309
O O4 0.444033 0.300114 0.435451
O O5 0.625000 0.411583 0.125000
O O6 0.445174 0.483598 0.094887
O O7 0.869304 0.125000 0.125000
O O8 0.742468 0.259714 0.096523
#
# Coordination Sequence:
#
# PCOD9516364 Si02
#       4
#    32  32  32  16
#     4  11  24  48  75 110 151 200 257 324 382 468
#     4  10  24  47  77 113 153 201 261 320 393 463
#     4  11  26  45  71 109 148 197 252 315 382 464
#     4  12  25  44  72 106 149 200 252 308 394 455
#
# _framework density 26.059377000000001
#
# number of rings (size 3 to 8) (size 9 to 14) (size 15 to 20)
#    0.000    1.143    1.429    3.000    0.000   13.143 
#    0.000    2.857    0.000    0.000    0.000    0.000 
#    0.000    0.000    0.000    0.000    0.000    0.000 
#
# Total GULP energy -156104.245421 kJ/mol
# GULP energy per Si atom -5575.151622 kJ/mol
# Density = 2.600006 g / cm^3
# Si number density = 26.059377 Si / 1000 Ang^3
#
#
#
# Elastic Constant Matrix: (Units=GPa)
#
#
# Indices 1 2 3 4 5 6 
#
# 1 248.2686 90.3856 71.2204 0.0000 0.0000 0.0000
# 2 90.3856 146.8127 46.3511 0.0000 0.0000 0.0000
# 3 71.2204 46.3511 235.1472 0.0000 0.0000 0.0000
# 4 0.0000 0.0000 0.0000 32.7371 0.0000 0.0000
# 5 0.0000 0.0000 0.0000 0.0000 74.7836 0.0000
# 6 0.0000 0.0000 0.0000 0.0000 0.0000 42.3232
#
#
#
# Elastic Compliance Matrix: (Units=1/GPa)
#
#
# Indices 1 2 3 4 5 6 
#
# 1 0.005424 -0.003008 -0.001050 0.000000 0.000000 0.000000
# 2 -0.003008 0.008931 -0.000849 0.000000 0.000000 0.000000
# 3 -0.001050 -0.000849 0.004738 0.000000 0.000000 0.000000
# 4 0.000000 0.000000 0.000000 0.030546 0.000000 0.000000
# 5 0.000000 0.000000 0.000000 0.000000 0.013372 0.000000
# 6 0.000000 0.000000 0.000000 0.000000 0.000000 0.023628
#
#
# Mechanical properties :
#
#
# Convention : Reuss Voigt Hill
#
# Bulk Modulus (GPa) = 107.77035 116.23810 112.00422
# Shear Modulus (GPa) = 50.22731 58.12019 54.17375
#
# Velocity S-wave (km/s) = 4.39500 4.72773 4.56440
# Velocity P-wave (km/s) = 8.19757 8.63156 8.41736
#
# Compressibility (1/GPa) = 0.00927899
#
# Stress axis : x y z
#
# Youngs Moduli (GPa) = 184.36016 111.96413 211.05482
#
# Poissons Ratio (x) = 0.33678 0.22160
# Poissons Ratio (y) = 0.55454 0.17929
# Poissons Ratio (z) = 0.19357 0.09511
#
# Static dielectric constant tensor:
#      x y z
#    x 2.093620 0.000000 0.000000 
#    y 0.000000 2.441070 0.000000 
#    z 0.000000 0.000000 1.943310 
# 
# From -- ./inp_files/41752.got.cif
#   From: 2010.05.17/outbox.cif.g08.bks.cpg/sg70_21_cif.got.tgz:41752.got - 2010.06.03 15:57:51.
