data_PCOD9516432
_publ_section_title
;
Structure prediction by ZEFSAII (Michael W. Deem and Ramdas Pophale) SiO2 
 PCOD9516432
Probable space group: F D D D
;
_chemical_formula_sum "Si O2"
_cell_formula_units_Z 112
_cell_length_a 24.425255
_cell_length_b 15.636454
_cell_length_c 11.620878
_cell_angle_alpha 90.000000
_cell_angle_beta 90.000000
_cell_angle_gamma 90.000000
_cell_volume 4438.296582
_symmetry_space_group_name_H-M "F D D D"
_symmetry_group_IT_number 70
_space_group.IT_coordinate_system_code '2'
_symmetry_cell_setting 'orthorhombic'
loop_
_space_group_symop_operation_xyz
x,y,z
1/4-x,1/4-y,z
x,1/4-y,1/4-z
1/4-x,y,1/4-z
-x,-y,-z
3/4+x,3/4+y,-z
-x,3/4+y,3/4+z
3/4+x,-y,3/4+z
x,1/2+y,1/2+z
1/4-x,3/4-y,1/2+z
x,3/4-y,3/4-z
1/4-x,1/2+y,3/4-z
-x,1/2-y,1/2-z
3/4+x,1/4+y,1/2-z
-x,1/4+y,1/4+z
3/4+x,1/2-y,1/4+z
1/2+x,y,1/2+z
3/4-x,1/4-y,1/2+z
1/2+x,1/4-y,3/4-z
3/4-x,y,3/4-z
1/2-x,-y,1/2-z
1/4+x,3/4+y,1/2-z
1/2-x,3/4+y,1/4+z
1/4+x,-y,1/4+z
1/2+x,1/2+y,z
3/4-x,3/4-y,z
1/2+x,3/4-y,1/4-z
3/4-x,1/2+y,1/4-z
1/2-x,1/2-y,-z
1/4+x,1/4+y,-z
1/2-x,1/4+y,3/4+z
1/4+x,1/2-y,3/4+z
loop_
_atom_site_type_symbol
_atom_site_label
_atom_site_fract_x
_atom_site_fract_y
_atom_site_fract_z
Si Si1 0.294433 0.125000 0.125000
Si Si2 0.962731 0.444501 0.650732
Si Si3 0.372771 0.725035 0.242081
Si Si4 0.506364 0.743500 0.886112
O O1 0.260041 0.211981 0.124109
O O2 0.339801 0.110281 0.226371
O O3 0.905243 0.458457 0.588610
O O4 0.990076 0.359926 0.602550
O O5 0.961724 0.455265 0.788618
O O6 0.375000 0.749024 0.375000
O O7 0.312674 0.718545 0.188781
O O8 0.500000 0.750000 0.750000
#
# Coordination Sequence:
#
# PCOD9516432 Si02
#       4
#    16  32  32  32
#     4   8  24  44  70 102 141 187 242 306 356 440
#     4  10  26  45  71 107 143 192 251 300 368 449
#     4  10  25  48  73 102 147 195 245 304 369 443
#     4  12  27  44  73 107 151 196 243 312 376 446
#
# _framework density 25.234907
#
# number of rings (size 3 to 8) (size 9 to 14) (size 15 to 20)
#    1.714    0.000    0.000    1.714    8.000    8.000 
#    0.000    2.857    0.000    0.000    0.000    0.000 
#    0.000    0.000    0.000    0.000    0.000    0.000 
#
# Total GULP energy -156011.386404 kJ/mol
# GULP energy per Si atom -5571.835229 kJ/mol
# Density = 2.517747 g / cm^3
# Si number density = 25.234907 Si / 1000 Ang^3
#
#
#
# Elastic Constant Matrix: (Units=GPa)
#
#
# Indices 1 2 3 4 5 6 
#
# 1 98.9325 12.9389 76.3312 0.0000 0.0000 0.0000
# 2 12.9389 143.7919 4.9344 0.0000 0.0000 0.0000
# 3 76.3312 4.9344 209.1094 0.0000 0.0000 0.0000
# 4 0.0000 0.0000 0.0000 32.8869 0.0000 0.0000
# 5 0.0000 0.0000 0.0000 0.0000 30.5289 0.0000
# 6 0.0000 0.0000 0.0000 0.0000 0.0000 23.2752
#
#
#
# Elastic Compliance Matrix: (Units=1/GPa)
#
#
# Indices 1 2 3 4 5 6 
#
# 1 0.014244 -0.001104 -0.005173 0.000000 0.000000 0.000000
# 2 -0.001104 0.007046 0.000237 0.000000 0.000000 0.000000
# 3 -0.005173 0.000237 0.006665 0.000000 0.000000 0.000000
# 4 0.000000 0.000000 0.000000 0.030407 0.000000 0.000000
# 5 0.000000 0.000000 0.000000 0.000000 0.032756 0.000000
# 6 0.000000 0.000000 0.000000 0.000000 0.000000 0.042964
#
#
# Mechanical properties :
#
#
# Convention : Reuss Voigt Hill
#
# Bulk Modulus (GPa) = 62.99974 71.13809 67.06891
# Shear Modulus (GPa) = 33.01323 41.18015 37.09669
#
# Velocity S-wave (km/s) = 3.62088 4.04403 3.83829
# Velocity P-wave (km/s) = 6.51924 7.07510 6.80285
#
# Compressibility (1/GPa) = 0.01587308
#
# Stress axis : x y z
#
# Youngs Moduli (GPa) = 70.20596 141.92998 150.03689
#
# Poissons Ratio (x) = 0.15672 0.77619
# Poissons Ratio (y) = 0.07752 -0.03553
# Poissons Ratio (z) = 0.36320 -0.03361
#
# Static dielectric constant tensor:
#      x y z
#    x 1.966160 0.000000 0.000000 
#    y 0.000000 2.125970 0.000000 
#    z 0.000000 0.000000 2.204300 
# 
# From -- ./inp_files/20252.got.cif
#   From: 2010.05.17/outbox.cif.g08.bks.cpg/sg70_11_cif.got.tgz:20252.got - 2010.06.03 15:57:51.
