data_PCOD9516825
_publ_section_title
;
Structure prediction by ZEFSAII (Michael W. Deem and Ramdas Pophale) SiO2 
 PCOD9516825
Probable space group: F D D D
;
_chemical_formula_sum "Si O2"
_cell_formula_units_Z 176
_cell_length_a 25.389970
_cell_length_b 21.081797
_cell_length_c 11.907772
_cell_angle_alpha 90.000000
_cell_angle_beta 90.000000
_cell_angle_gamma 90.000000
_cell_volume 6373.827790
_symmetry_space_group_name_H-M "F D D D"
_symmetry_group_IT_number 70
_space_group.IT_coordinate_system_code '2'
_symmetry_cell_setting 'orthorhombic'
loop_
_space_group_symop_operation_xyz
x,y,z
1/4-x,1/4-y,z
x,1/4-y,1/4-z
1/4-x,y,1/4-z
-x,-y,-z
3/4+x,3/4+y,-z
-x,3/4+y,3/4+z
3/4+x,-y,3/4+z
x,1/2+y,1/2+z
1/4-x,3/4-y,1/2+z
x,3/4-y,3/4-z
1/4-x,1/2+y,3/4-z
-x,1/2-y,1/2-z
3/4+x,1/4+y,1/2-z
-x,1/4+y,1/4+z
3/4+x,1/2-y,1/4+z
1/2+x,y,1/2+z
3/4-x,1/4-y,1/2+z
1/2+x,1/4-y,3/4-z
3/4-x,y,3/4-z
1/2-x,-y,1/2-z
1/4+x,3/4+y,1/2-z
1/2-x,3/4+y,1/4+z
1/4+x,-y,1/4+z
1/2+x,1/2+y,z
3/4-x,3/4-y,z
1/2+x,3/4-y,1/4-z
3/4-x,1/2+y,1/4-z
1/2-x,1/2-y,-z
1/4+x,1/4+y,-z
1/2-x,1/4+y,3/4+z
1/4+x,1/2-y,3/4+z
loop_
_atom_site_type_symbol
_atom_site_label
_atom_site_fract_x
_atom_site_fract_y
_atom_site_fract_z
Si Si1 0.432892 0.716600 0.656393
Si Si2 0.434604 0.360466 0.130430
Si Si3 0.982793 0.590534 0.525853
Si Si4 0.796251 0.439411 0.917128
Si Si5 0.875000 0.200193 0.875000
Si Si6 0.068146 0.496447 0.642010
O O1 0.429922 0.791541 0.687488
O O2 0.492698 0.693063 0.653165
O O3 0.399805 0.678997 0.752137
O O4 0.426309 0.723263 0.520925
O O5 0.375000 0.375000 0.095754
O O6 0.457421 0.419355 0.202532
O O7 0.477112 0.359812 0.032223
O O8 0.952623 0.625000 0.625000
O O9 0.941084 0.564896 0.436631
O O10 0.021523 0.539623 0.587538
O O11 0.823522 0.375000 0.875000
O O12 0.827014 0.504532 0.914184
O O13 0.125000 0.528384 0.625000
#
# Coordination Sequence:
#
# PCOD9516825 Si02
#       6
#    32  32  32  32  16  32
#     4  12  25  43  73 106 146 195 256 317 383 454
#     4  12  22  41  72 107 147 196 256 322 389 457
#     4  11  24  42  73 112 148 200 260 320 389 472
#     4  12  24  44  69 103 146 188 248 320 378 450
#     4  12  25  42  68 110 138 194 252 306 381 462
#     4  11  25  45  70 109 153 195 252 324 389 465
#
# _framework density 27.612921
#
# number of rings (size 3 to 8) (size 9 to 14) (size 15 to 20)
#    0.000    0.364    7.273    1.909    0.000    0.000 
#    0.000    0.909    4.000    0.000    0.000    0.000 
#    0.000    0.000    0.000    0.000    0.000    0.000 
#
# Total GULP energy -245496.911302 kJ/mol
# GULP energy per Si atom -5579.475257 kJ/mol
# Density = 2.755007 g / cm^3
# Si number density = 27.612921 Si / 1000 Ang^3
#
#
#
# Elastic Constant Matrix: (Units=GPa)
#
#
# Indices 1 2 3 4 5 6 
#
# 1 149.0393 19.3786 59.6795 0.0000 0.0000 0.0000
# 2 19.3786 39.7752 -0.4709 0.0000 0.0000 0.0000
# 3 59.6795 -0.4709 178.4185 0.0000 0.0000 0.0000
# 4 0.0000 0.0000 0.0000 31.0532 0.0000 0.0000
# 5 0.0000 0.0000 0.0000 0.0000 32.4668 0.0000
# 6 0.0000 0.0000 0.0000 0.0000 0.0000 21.2630
#
#
#
# Elastic Compliance Matrix: (Units=1/GPa)
#
#
# Indices 1 2 3 4 5 6 
#
# 1 0.008370 -0.004111 -0.002810 0.000000 0.000000 0.000000
# 2 -0.004111 0.027161 0.001447 0.000000 0.000000 0.000000
# 3 -0.002810 0.001447 0.006549 0.000000 0.000000 0.000000
# 4 0.000000 0.000000 0.000000 0.032203 0.000000 0.000000
# 5 0.000000 0.000000 0.000000 0.000000 0.030801 0.000000
# 6 0.000000 0.000000 0.000000 0.000000 0.000000 0.047030
#
#
# Mechanical properties :
#
#
# Convention : Reuss Voigt Hill
#
# Bulk Modulus (GPa) = 32.12296 58.26746 45.19521
# Shear Modulus (GPa) = 28.82860 36.19966 32.51413
#
# Velocity S-wave (km/s) = 3.23464 3.62466 3.43519
# Velocity P-wave (km/s) = 5.06055 6.21811 5.66895
#
# Compressibility (1/GPa) = 0.03113038
#
# Stress axis : x y z
#
# Youngs Moduli (GPa) = 119.48136 36.81712 152.70282
#
# Poissons Ratio (x) = 0.15135 0.42915
# Poissons Ratio (y) = 0.49118 -0.22092
# Poissons Ratio (z) = 0.33579 -0.05327
#
# Static dielectric constant tensor:
#      x y z
#    x 2.136830 0.000000 0.000000 
#    y 0.000000 2.227250 0.000000 
#    z 0.000000 0.000000 2.556280 
# 
# From -- ./inp_files/20980.got.cif
#   From: 2010.05.17/outbox.cif.g08.bks.cpg/sg70_11_cif.got.tgz:20980.got - 2010.06.03 15:57:51.
