data_PCOD9516642
_publ_section_title
;
Structure prediction by ZEFSAII (Michael W. Deem and Ramdas Pophale) SiO2 
 PCOD9516642
Probable space group: F D D D
;
_chemical_formula_sum "Si O2"
_cell_formula_units_Z 176
_cell_length_a 25.687701
_cell_length_b 11.904603
_cell_length_c 24.869523
_cell_angle_alpha 90.000000
_cell_angle_beta 90.000000
_cell_angle_gamma 90.000000
_cell_volume 7605.146947
_symmetry_space_group_name_H-M "F D D D"
_symmetry_group_IT_number 70
_space_group.IT_coordinate_system_code '2'
_symmetry_cell_setting 'orthorhombic'
loop_
_space_group_symop_operation_xyz
x,y,z
1/4-x,1/4-y,z
x,1/4-y,1/4-z
1/4-x,y,1/4-z
-x,-y,-z
3/4+x,3/4+y,-z
-x,3/4+y,3/4+z
3/4+x,-y,3/4+z
x,1/2+y,1/2+z
1/4-x,3/4-y,1/2+z
x,3/4-y,3/4-z
1/4-x,1/2+y,3/4-z
-x,1/2-y,1/2-z
3/4+x,1/4+y,1/2-z
-x,1/4+y,1/4+z
3/4+x,1/2-y,1/4+z
1/2+x,y,1/2+z
3/4-x,1/4-y,1/2+z
1/2+x,1/4-y,3/4-z
3/4-x,y,3/4-z
1/2-x,-y,1/2-z
1/4+x,3/4+y,1/2-z
1/2-x,3/4+y,1/4+z
1/4+x,-y,1/4+z
1/2+x,1/2+y,z
3/4-x,3/4-y,z
1/2+x,3/4-y,1/4-z
3/4-x,1/2+y,1/4-z
1/2-x,1/2-y,-z
1/4+x,1/4+y,-z
1/2-x,1/4+y,3/4+z
1/4+x,1/2-y,3/4+z
loop_
_atom_site_type_symbol
_atom_site_label
_atom_site_fract_x
_atom_site_fract_y
_atom_site_fract_z
Si Si1 0.857230 0.704658 0.446402
Si Si2 0.780945 0.394053 0.224832
Si Si3 0.783887 0.260746 0.856567
Si Si4 0.375000 0.875000 0.711940
Si Si5 0.550703 0.006755 0.370859
Si Si6 0.433475 0.275825 0.917445
O O1 0.803385 0.724968 0.415687
O O2 0.908557 0.763470 0.421162
O O3 0.855052 0.768048 0.503098
O O4 0.859521 0.570150 0.433111
O O5 0.750000 0.500000 0.250000
O O6 0.747140 0.308758 0.187973
O O7 0.816923 0.445760 0.178848
O O8 0.804482 0.330694 0.275084
O O9 0.756099 0.375000 0.875000
O O10 0.419890 0.926564 0.675073
O O11 0.561573 0.875000 0.375000
O O12 0.488744 0.017534 0.357820
O O13 0.422372 0.375000 0.875000
#
# Coordination Sequence:
#
# PCOD9516642 Si02
#       6
#    32  32  32  16  32  32
#     4  11  22  41  68 102 139 177 236 285 356 415
#     4  12  23  44  70  99 137 187 235 288 355 431
#     4  11  22  41  69 102 137 184 230 289 351 417
#     4  12  26  43  70 102 139 188 226 302 358 424
#     4  11  25  45  69  94 138 184 230 282 360 425
#     4  11  23  44  71 103 137 187 233 290 357 426
#
# _framework density 23.142220999999999
#
# number of rings (size 3 to 8) (size 9 to 14) (size 15 to 20)
#    0.000    0.727    7.273    1.636    0.000    3.636 
#    0.000    6.364    0.000    0.000    0.000    0.000 
#    0.000    0.000    0.000    0.000    0.000    0.000 
#
# Total GULP energy -244945.521685 kJ/mol
# GULP energy per Si atom -5566.943675 kJ/mol
# Density = 2.308955 g / cm^3
# Si number density = 23.142221 Si / 1000 Ang^3
#
#
#
# Elastic Constant Matrix: (Units=GPa)
#
#
# Indices 1 2 3 4 5 6 
#
# 1 55.9812 32.8965 30.1782 0.0000 0.0000 0.0000
# 2 32.8965 123.4203 73.3784 0.0000 0.0000 0.0000
# 3 30.1782 73.3784 190.3301 0.0000 0.0000 0.0000
# 4 0.0000 0.0000 0.0000 28.9424 0.0000 0.0000
# 5 0.0000 0.0000 0.0000 0.0000 44.6240 0.0000
# 6 0.0000 0.0000 0.0000 0.0000 0.0000 -10.8287
#
#
#
# Elastic Compliance Matrix: (Units=1/GPa)
#
#
# Indices 1 2 3 4 5 6 
#
# 1 0.021531 -0.004812 -0.001559 0.000000 0.000000 0.000000
# 2 -0.004812 0.011587 -0.003704 0.000000 0.000000 0.000000
# 3 -0.001559 -0.003704 0.006929 0.000000 0.000000 0.000000
# 4 0.000000 0.000000 0.000000 0.034551 0.000000 0.000000
# 5 0.000000 0.000000 0.000000 0.000000 0.022409 0.000000
# 6 0.000000 0.000000 0.000000 0.000000 0.000000 -0.092347
#
#
# Mechanical properties :
#
#
# Convention : Reuss Voigt Hill
#
# Bulk Modulus (GPa) = 50.25753 71.40418 60.83086
# Shear Modulus (GPa) = 159.00914 28.09943 93.55429
#
# Velocity S-wave (km/s) = 8.29811 3.48833 6.36503
# Velocity P-wave (km/s) = 10.65718 6.86630 8.96442
#
# Compressibility (1/GPa) = 0.01989752
#
# Stress axis : x y z
#
# Youngs Moduli (GPa) = 46.44413 86.30049 144.31491
#
# Poissons Ratio (x) = 0.41530 0.22494
# Poissons Ratio (y) = 0.22350 0.53459
# Poissons Ratio (z) = 0.07239 0.31968
#
# Static dielectric constant tensor:
#      x y z
#    x 1.908880 0.000000 0.000000 
#    y 0.000000 2.106060 0.000000 
#    z 0.000000 0.000000 1.913030 
# 
# From -- ./inp_files/54977.got.cif
#   From: 2010.05.17/outbox.cif.g08.bks.cpg/sg70_28_cif.got.tgz:54977.got - 2010.06.03 15:57:51.
