data_PCOD9516866
_publ_section_title
;
Structure prediction by ZEFSAII (Michael W. Deem and Ramdas Pophale) SiO2 
 PCOD9516866
Probable space group: F D D D
;
_chemical_formula_sum "Si O2"
_cell_formula_units_Z 96
_cell_length_a 11.393064
_cell_length_b 14.473515
_cell_length_c 23.085568
_cell_angle_alpha 90.000000
_cell_angle_beta 90.000000
_cell_angle_gamma 90.000000
_cell_volume 3806.756667
_symmetry_space_group_name_H-M "F D D D"
_symmetry_group_IT_number 70
_space_group.IT_coordinate_system_code '2'
_symmetry_cell_setting 'orthorhombic'
loop_
_space_group_symop_operation_xyz
x,y,z
1/4-x,1/4-y,z
x,1/4-y,1/4-z
1/4-x,y,1/4-z
-x,-y,-z
3/4+x,3/4+y,-z
-x,3/4+y,3/4+z
3/4+x,-y,3/4+z
x,1/2+y,1/2+z
1/4-x,3/4-y,1/2+z
x,3/4-y,3/4-z
1/4-x,1/2+y,3/4-z
-x,1/2-y,1/2-z
3/4+x,1/4+y,1/2-z
-x,1/4+y,1/4+z
3/4+x,1/2-y,1/4+z
1/2+x,y,1/2+z
3/4-x,1/4-y,1/2+z
1/2+x,1/4-y,3/4-z
3/4-x,y,3/4-z
1/2-x,-y,1/2-z
1/4+x,3/4+y,1/2-z
1/2-x,3/4+y,1/4+z
1/4+x,-y,1/4+z
1/2+x,1/2+y,z
3/4-x,3/4-y,z
1/2+x,3/4-y,1/4-z
3/4-x,1/2+y,1/4-z
1/2-x,1/2-y,-z
1/4+x,1/4+y,-z
1/2-x,1/4+y,3/4+z
1/4+x,1/2-y,3/4+z
loop_
_atom_site_type_symbol
_atom_site_label
_atom_site_fract_x
_atom_site_fract_y
_atom_site_fract_z
Si Si1 0.777555 0.231379 0.603045
Si Si2 0.829967 0.575219 0.460205
Si Si3 0.956418 0.488760 0.819210
O O1 0.770098 0.125000 0.625000
O O2 0.684022 0.248681 0.551171
O O3 0.743144 0.302588 0.653164
O O4 0.911269 0.254221 0.590232
O O5 0.896320 0.671748 0.458208
O O6 0.742693 0.575274 0.514729
O O7 0.875000 0.465967 0.875000
#
# Coordination Sequence:
#
# PCOD9516866 Si02
#       3
#    32  32  32
#     4  11  24  46  74 115 157 200 265 322 399 474
#     4  11  24  45  77 112 156 207 262 328 389 480
#     4  12  26  47  79 114 160 211 265 328 400 477
#
# _framework density 25.218319000000001
#
# number of rings (size 3 to 8) (size 9 to 14) (size 15 to 20)
#    0.000    0.667    3.333    6.000    0.000    4.667 
#    0.000    3.333    0.000    0.000    0.000    0.000 
#    0.000    0.000    0.000    0.000    0.000    0.000 
#
# Total GULP energy -134011.100502 kJ/mol
# GULP energy per Si atom -5583.795854 kJ/mol
# Density = 2.516092 g / cm^3
# Si number density = 25.218319 Si / 1000 Ang^3
#
#
#
# Elastic Constant Matrix: (Units=GPa)
#
#
# Indices 1 2 3 4 5 6 
#
# 1 208.3241 58.2004 78.1704 0.0000 0.0000 0.0000
# 2 58.2004 145.6125 14.1019 0.0000 0.0000 0.0000
# 3 78.1704 14.1019 133.1456 0.0000 0.0000 0.0000
# 4 0.0000 0.0000 0.0000 69.3576 0.0000 0.0000
# 5 0.0000 0.0000 0.0000 0.0000 -30.1376 0.0000
# 6 0.0000 0.0000 0.0000 0.0000 0.0000 56.8495
#
#
#
# Elastic Compliance Matrix: (Units=1/GPa)
#
#
# Indices 1 2 3 4 5 6 
#
# 1 0.006890 -0.002387 -0.003792 0.000000 0.000000 0.000000
# 2 -0.002387 0.007765 0.000579 0.000000 0.000000 0.000000
# 3 -0.003792 0.000579 0.009676 0.000000 0.000000 0.000000
# 4 0.000000 0.000000 0.000000 0.014418 0.000000 0.000000
# 5 0.000000 0.000000 0.000000 0.000000 -0.033181 0.000000
# 6 0.000000 0.000000 0.000000 0.000000 0.000000 0.017590
#
#
# Mechanical properties :
#
#
# Convention : Reuss Voigt Hill
#
# Bulk Modulus (GPa) = 76.15746 87.55862 81.85804
# Shear Modulus (GPa) = 129.07948 41.65454 85.36701
#
# Velocity S-wave (km/s) = 7.16212 4.06859 5.82449
# Velocity P-wave (km/s) = 9.93274 7.54101 8.81834
#
# Compressibility (1/GPa) = 0.01313069
#
# Stress axis : x y z
#
# Youngs Moduli (GPa) = 145.13789 128.77625 103.35064
#
# Poissons Ratio (x) = 0.30734 0.39194
# Poissons Ratio (y) = 0.34639 -0.05981
# Poissons Ratio (z) = 0.55042 -0.07453
#
# Static dielectric constant tensor:
#      x y z
#    x 1.983450 0.000000 0.000000 
#    y 0.000000 2.020720 0.000000 
#    z 0.000000 0.000000 1.986130 
# 
# From -- ./inp_files/49641.got.cif
#   From: 2010.05.17/outbox.cif.g08.bks.cpg/sg70_25_cif.got.tgz:49641.got - 2010.06.03 15:57:51.
