data_PCOD9516440
_publ_section_title
;
Structure prediction by ZEFSAII (Michael W. Deem and Ramdas Pophale) SiO2 
 PCOD9516440
Probable space group: F D D D
;
_chemical_formula_sum "Si O2"
_cell_formula_units_Z 112
_cell_length_a 31.096763
_cell_length_b 16.243118
_cell_length_c 9.189299
_cell_angle_alpha 90.000000
_cell_angle_beta 90.000000
_cell_angle_gamma 90.000000
_cell_volume 4641.592031
_symmetry_space_group_name_H-M "F D D D"
_symmetry_group_IT_number 70
_space_group.IT_coordinate_system_code '2'
_symmetry_cell_setting 'orthorhombic'
loop_
_space_group_symop_operation_xyz
x,y,z
1/4-x,1/4-y,z
x,1/4-y,1/4-z
1/4-x,y,1/4-z
-x,-y,-z
3/4+x,3/4+y,-z
-x,3/4+y,3/4+z
3/4+x,-y,3/4+z
x,1/2+y,1/2+z
1/4-x,3/4-y,1/2+z
x,3/4-y,3/4-z
1/4-x,1/2+y,3/4-z
-x,1/2-y,1/2-z
3/4+x,1/4+y,1/2-z
-x,1/4+y,1/4+z
3/4+x,1/2-y,1/4+z
1/2+x,y,1/2+z
3/4-x,1/4-y,1/2+z
1/2+x,1/4-y,3/4-z
3/4-x,y,3/4-z
1/2-x,-y,1/2-z
1/4+x,3/4+y,1/2-z
1/2-x,3/4+y,1/4+z
1/4+x,-y,1/4+z
1/2+x,1/2+y,z
3/4-x,3/4-y,z
1/2+x,3/4-y,1/4-z
3/4-x,1/2+y,1/4-z
1/2-x,1/2-y,-z
1/4+x,1/4+y,-z
1/2-x,1/4+y,3/4+z
1/4+x,1/2-y,3/4+z
loop_
_atom_site_type_symbol
_atom_site_label
_atom_site_fract_x
_atom_site_fract_y
_atom_site_fract_z
Si Si1 0.875000 0.375000 0.081281
Si Si2 0.025440 0.800497 0.566734
Si Si3 0.799421 0.375000 0.875000
Si Si4 0.008735 0.875000 0.875000
Si Si5 0.382967 0.545866 0.707862
O O1 0.887312 0.292144 0.165901
O O2 0.834767 0.340300 0.987905
O O3 0.030106 0.857196 0.713393
O O4 0.065264 0.799395 0.455972
O O5 0.982570 0.823320 0.476384
O O6 0.019859 0.706285 0.612769
O O7 0.365448 0.625000 0.625000
O O8 0.375000 0.558702 0.875000
#
# Coordination Sequence:
#
# PCOD9516440 Si02
#       5
#    16  32  16  16  32
#     4  11  29  50  78 115 159 206 260 331 395 462
#     4  11  25  48  78 111 149 204 256 320 388 471
#     4  11  26  50  83 108 155 202 267 322 387 459
#     4  10  26  42  78 112 149 188 261 318 381 467
#     4  12  30  49  77 113 158 207 260 326 394 466
#
# _framework density 24.129652
#
# number of rings (size 3 to 8) (size 9 to 14) (size 15 to 20)
#    0.000    0.857    1.429    2.143   22.000    2.286 
#    0.000    0.000    0.000    0.000    0.000    0.000 
#    0.000    0.000    0.000    0.000    0.000    0.000 
#
# Total GULP energy -156109.207984 kJ/mol
# GULP energy per Si atom -5575.328857 kJ/mol
# Density = 2.407473 g / cm^3
# Si number density = 24.129652 Si / 1000 Ang^3
#
#
#
# Elastic Constant Matrix: (Units=GPa)
#
#
# Indices 1 2 3 4 5 6 
#
# 1 111.1916 10.0883 22.4516 0.0000 0.0000 0.0000
# 2 10.0883 144.5790 83.2058 0.0000 0.0000 0.0000
# 3 22.4516 83.2058 137.1543 0.0000 0.0000 0.0000
# 4 0.0000 0.0000 0.0000 17.2858 0.0000 0.0000
# 5 0.0000 0.0000 0.0000 0.0000 -434.4392 0.0000
# 6 0.0000 0.0000 0.0000 0.0000 0.0000 102.2807
#
#
#
# Elastic Compliance Matrix: (Units=1/GPa)
#
#
# Indices 1 2 3 4 5 6 
#
# 1 0.009312 0.000350 -0.001736 0.000000 0.000000 0.000000
# 2 0.000350 0.010640 -0.006512 0.000000 0.000000 0.000000
# 3 -0.001736 -0.006512 0.011526 0.000000 0.000000 0.000000
# 4 0.000000 0.000000 0.000000 0.057851 0.000000 0.000000
# 5 0.000000 0.000000 0.000000 0.000000 -0.002302 0.000000
# 6 0.000000 0.000000 0.000000 0.000000 0.000000 0.009777
#
#
# Mechanical properties :
#
#
# Convention : Reuss Voigt Hill
#
# Bulk Modulus (GPa) = 63.77411 69.37957 66.57684
# Shear Modulus (GPa) = 42.43442 -44.49592 -1.03075
#
# Velocity S-wave (km/s) = 4.19812 -4.29888 -0.65429
# Velocity P-wave (km/s) = 7.07008 2.04322 5.20388
#
# Compressibility (1/GPa) = 0.01568034
#
# Stress axis : x y z
#
# Youngs Moduli (GPa) = 107.38383 93.98545 86.76122
#
# Poissons Ratio (x) = -0.03285 0.15066
# Poissons Ratio (y) = -0.03754 0.56499
# Poissons Ratio (z) = 0.18647 0.61204
#
# Static dielectric constant tensor:
#      x y z
#    x 2.180850 0.000000 0.000000 
#    y 0.000000 1.746800 0.000000 
#    z 0.000000 0.000000 1.998200 
# 
# From -- ./inp_files/21763.got.cif
#   From: 2010.05.17/outbox.cif.g08.bks.cpg/sg70_11_cif.got.tgz:21763.got - 2010.06.03 15:57:51.
