data_PCOD9516688
_publ_section_title
;
Structure prediction by ZEFSAII (Michael W. Deem and Ramdas Pophale) SiO2 
 PCOD9516688
Probable space group: F D D D
;
_chemical_formula_sum "Si O2"
_cell_formula_units_Z 176
_cell_length_a 27.381874
_cell_length_b 9.706454
_cell_length_c 27.642392
_cell_angle_alpha 90.000000
_cell_angle_beta 90.000000
_cell_angle_gamma 90.000000
_cell_volume 7346.819835
_symmetry_space_group_name_H-M "F D D D"
_symmetry_group_IT_number 70
_space_group.IT_coordinate_system_code '2'
_symmetry_cell_setting 'orthorhombic'
loop_
_space_group_symop_operation_xyz
x,y,z
1/4-x,1/4-y,z
x,1/4-y,1/4-z
1/4-x,y,1/4-z
-x,-y,-z
3/4+x,3/4+y,-z
-x,3/4+y,3/4+z
3/4+x,-y,3/4+z
x,1/2+y,1/2+z
1/4-x,3/4-y,1/2+z
x,3/4-y,3/4-z
1/4-x,1/2+y,3/4-z
-x,1/2-y,1/2-z
3/4+x,1/4+y,1/2-z
-x,1/4+y,1/4+z
3/4+x,1/2-y,1/4+z
1/2+x,y,1/2+z
3/4-x,1/4-y,1/2+z
1/2+x,1/4-y,3/4-z
3/4-x,y,3/4-z
1/2-x,-y,1/2-z
1/4+x,3/4+y,1/2-z
1/2-x,3/4+y,1/4+z
1/4+x,-y,1/4+z
1/2+x,1/2+y,z
3/4-x,3/4-y,z
1/2+x,3/4-y,1/4-z
3/4-x,1/2+y,1/4-z
1/2-x,1/2-y,-z
1/4+x,1/4+y,-z
1/2-x,1/4+y,3/4+z
1/4+x,1/2-y,3/4+z
loop_
_atom_site_type_symbol
_atom_site_label
_atom_site_fract_x
_atom_site_fract_y
_atom_site_fract_z
Si Si1 0.250000 0.000000 0.250000
Si Si2 0.090399 0.875000 0.375000
Si Si3 0.875000 0.375000 0.064073
Si Si4 0.486346 0.430742 0.676644
Si Si5 0.822387 0.697625 0.402064
Si Si6 0.568190 0.596596 0.178903
Si Si7 0.711113 0.119547 0.237866
O O1 0.279984 0.965160 0.196605
O O2 0.295294 0.943455 0.281809
O O3 0.120376 0.761187 0.346178
O O4 0.054795 0.787899 0.410829
O O5 0.827482 0.381357 0.030234
O O6 0.527410 0.435618 0.635272
O O7 0.513394 0.483468 0.726536
O O8 0.875000 0.693012 0.375000
O O9 0.815221 0.566255 0.436802
O O10 0.815190 0.826652 0.437494
O O11 0.625000 0.625000 0.176744
O O12 0.548271 0.625000 0.125000
O O13 0.750000 0.000000 0.250000
#
# Coordination Sequence:
#
# PCOD9516688 Si02
#       7
#    16  16  16  32  32  32  32
#     4  12  26  42  78 110 146 212 260 320 424 470
#     4  12  28  54  73 108 164 214 267 330 422 492
#     4  12  28  50  79 112 158 220 265 344 404 502
#     4  12  24  47  74 111 154 202 258 337 398 492
#     4  12  22  42  77 110 150 198 256 325 398 466
#     4  11  22  45  69 109 160 198 255 328 388 476
#     4  12  24  46  75 108 147 197 269 322 390 481
#
# _framework density 23.955943999999999
#
# number of rings (size 3 to 8) (size 9 to 14) (size 15 to 20)
#    0.000    0.182    7.273    2.182    0.000    2.182 
#    1.636    0.000    0.000    0.000    0.000    0.000 
#    0.000    0.000    0.000    0.000    0.000    0.000 
#
# Total GULP energy -245360.637763 kJ/mol
# GULP energy per Si atom -5576.378131 kJ/mol
# Density = 2.390142 g / cm^3
# Si number density = 23.955944 Si / 1000 Ang^3
#
#
#
# Elastic Constant Matrix: (Units=GPa)
#
#
# Indices 1 2 3 4 5 6 
#
# 1 104.7421 29.9142 70.0629 0.0000 0.0000 0.0000
# 2 29.9142 44.0718 23.6880 0.0000 0.0000 0.0000
# 3 70.0629 23.6880 142.9219 0.0000 0.0000 0.0000
# 4 0.0000 0.0000 0.0000 57.5048 0.0000 0.0000
# 5 0.0000 0.0000 0.0000 0.0000 27.8800 0.0000
# 6 0.0000 0.0000 0.0000 0.0000 0.0000 36.1642
#
#
#
# Elastic Compliance Matrix: (Units=1/GPa)
#
#
# Indices 1 2 3 4 5 6 
#
# 1 0.016115 -0.007347 -0.006682 0.000000 0.000000 0.000000
# 2 -0.007347 0.028259 -0.001082 0.000000 0.000000 0.000000
# 3 -0.006682 -0.001082 0.010452 0.000000 0.000000 0.000000
# 4 0.000000 0.000000 0.000000 0.017390 0.000000 0.000000
# 5 0.000000 0.000000 0.000000 0.000000 0.035868 0.000000
# 6 0.000000 0.000000 0.000000 0.000000 0.000000 0.027652
#
#
# Mechanical properties :
#
#
# Convention : Reuss Voigt Hill
#
# Bulk Modulus (GPa) = 40.64471 59.89624 50.27048
# Shear Modulus (GPa) = 28.70935 35.51451 32.11193
#
# Velocity S-wave (km/s) = 3.46558 3.85449 3.66520
# Velocity P-wave (km/s) = 5.74604 6.69824 6.24033
#
# Compressibility (1/GPa) = 0.02460345
#
# Stress axis : x y z
#
# Youngs Moduli (GPa) = 62.05234 35.38745 95.67535
#
# Poissons Ratio (x) = 0.25999 0.63934
# Poissons Ratio (y) = 0.45589 0.10353
# Poissons Ratio (z) = 0.41466 0.03829
#
# Static dielectric constant tensor:
#      x y z
#    x 1.948030 0.000000 0.000000 
#    y 0.000000 0.765640 0.000000 
#    z 0.000000 0.000000 1.940810 
# 
# From -- ./inp_files/61707.got.cif
#   From: 2010.05.17/outbox.cif.g08.bks.cpg/sg70_31_cif.got.tgz:61707.got - 2010.06.03 15:57:51.
