data_PCOD9516790
_publ_section_title
;
Structure prediction by ZEFSAII (Michael W. Deem and Ramdas Pophale) SiO2 
 PCOD9516790
Probable space group: F D D D
;
_chemical_formula_sum "Si O2"
_cell_formula_units_Z 80
_cell_length_a 7.771520
_cell_length_b 21.007624
_cell_length_c 19.743666
_cell_angle_alpha 90.000000
_cell_angle_beta 90.000000
_cell_angle_gamma 90.000000
_cell_volume 3223.374013
_symmetry_space_group_name_H-M "F D D D"
_symmetry_group_IT_number 70
_space_group.IT_coordinate_system_code '2'
_symmetry_cell_setting 'orthorhombic'
loop_
_space_group_symop_operation_xyz
x,y,z
1/4-x,1/4-y,z
x,1/4-y,1/4-z
1/4-x,y,1/4-z
-x,-y,-z
3/4+x,3/4+y,-z
-x,3/4+y,3/4+z
3/4+x,-y,3/4+z
x,1/2+y,1/2+z
1/4-x,3/4-y,1/2+z
x,3/4-y,3/4-z
1/4-x,1/2+y,3/4-z
-x,1/2-y,1/2-z
3/4+x,1/4+y,1/2-z
-x,1/4+y,1/4+z
3/4+x,1/2-y,1/4+z
1/2+x,y,1/2+z
3/4-x,1/4-y,1/2+z
1/2+x,1/4-y,3/4-z
3/4-x,y,3/4-z
1/2-x,-y,1/2-z
1/4+x,3/4+y,1/2-z
1/2-x,3/4+y,1/4+z
1/4+x,-y,1/4+z
1/2+x,1/2+y,z
3/4-x,3/4-y,z
1/2+x,3/4-y,1/4-z
3/4-x,1/2+y,1/4-z
1/2-x,1/2-y,-z
1/4+x,1/4+y,-z
1/2-x,1/4+y,3/4+z
1/4+x,1/2-y,3/4+z
loop_
_atom_site_type_symbol
_atom_site_label
_atom_site_fract_x
_atom_site_fract_y
_atom_site_fract_z
Si Si1 0.168630 0.878792 0.979899
Si Si2 0.625000 0.417107 0.625000
Si Si3 0.177859 0.268045 0.874547
O O1 0.375000 0.875000 0.977805
O O2 0.113620 0.943482 0.943294
O O3 0.099111 0.819944 0.935194
O O4 0.105021 0.871475 0.055974
O O5 0.791424 0.462102 0.634667
O O6 0.375000 0.248684 0.875000
#
# Coordination Sequence:
#
# PCOD9516790 Si02
#       3
#    32  16  32
#     4  11  23  46  73 102 148 190 237 304 357 425
#     4  12  26  47  74 108 146 192 245 298 360 434
#     4  11  24  48  75 101 148 194 236 298 369 423
#
# _framework density 24.818715999999998
#
# number of rings (size 3 to 8) (size 9 to 14) (size 15 to 20)
#    0.000    0.800    4.000    4.800    0.000    4.800 
#   10.800    0.000    4.400    0.000    0.000    0.000 
#    0.000    0.000    0.000    0.000    0.000    0.000 
#
# Total GULP energy -112437.189558 kJ/mol
# GULP energy per Si atom -5621.859478 kJ/mol
# Density = 2.476223 g / cm^3
# Si number density = 24.818716 Si / 1000 Ang^3
#
#
#
# Elastic Constant Matrix: (Units=GPa)
#
#
# Indices 1 2 3 4 5 6 
#
# 1 163.8993 22.7084 2.0163 0.0000 0.0000 0.0000
# 2 22.7084 87.3206 65.9079 0.0000 0.0000 0.0000
# 3 2.0163 65.9079 188.0991 0.0000 0.0000 0.0000
# 4 0.0000 0.0000 0.0000 33.3964 0.0000 0.0000
# 5 0.0000 0.0000 0.0000 0.0000 21.6510 0.0000
# 6 0.0000 0.0000 0.0000 0.0000 0.0000 0.0732
#
#
#
# Elastic Compliance Matrix: (Units=1/GPa)
#
#
# Indices 1 2 3 4 5 6 
#
# 1 0.006396 -0.002191 0.000699 0.000000 0.000000 0.000000
# 2 -0.002191 0.016320 -0.005695 0.000000 0.000000 0.000000
# 3 0.000699 -0.005695 0.007304 0.000000 0.000000 0.000000
# 4 0.000000 0.000000 0.000000 0.029943 0.000000 0.000000
# 5 0.000000 0.000000 0.000000 0.000000 0.046187 0.000000
# 6 0.000000 0.000000 0.000000 0.000000 0.000000 13.660604
#
#
# Mechanical properties :
#
#
# Convention : Reuss Voigt Hill
#
# Bulk Modulus (GPa) = 63.90974 68.95381 66.43177
# Shear Modulus (GPa) = 0.36268 34.26987 17.31628
#
# Velocity S-wave (km/s) = 0.38269 3.71995 2.64429
# Velocity P-wave (km/s) = 5.09920 6.80397 6.01231
#
# Compressibility (1/GPa) = 0.01564707
#
# Stress axis : x y z
#
# Youngs Moduli (GPa) = 156.34056 61.27328 136.90547
#
# Poissons Ratio (x) = 0.13426 -0.09572
# Poissons Ratio (y) = 0.34256 0.77967
# Poissons Ratio (z) = -0.10931 0.34895
#
# Static dielectric constant tensor:
#      x y z
#    x 1.904830 0.000000 0.000000 
#    y 0.000000 1.944550 0.000000 
#    z 0.000000 0.000000 1.937910 
# 
# From -- ./inp_files/6826.got.cif
#   From: 2010.05.17/outbox.cif.g08.bks.cpg/sg70_4_cif.got.tgz:6826.got - 2010.06.03 15:57:51.
