data_PCOD9516361
_publ_section_title
;
Structure prediction by ZEFSAII (Michael W. Deem and Ramdas Pophale) SiO2 
 PCOD9516361
Probable space group: F D D D
;
_chemical_formula_sum "Si O2"
_cell_formula_units_Z 96
_cell_length_a 27.131598
_cell_length_b 4.915273
_cell_length_c 28.029614
_cell_angle_alpha 90.000000
_cell_angle_beta 90.000000
_cell_angle_gamma 90.000000
_cell_volume 3738.007210
_symmetry_space_group_name_H-M "F D D D"
_symmetry_group_IT_number 70
_space_group.IT_coordinate_system_code '2'
_symmetry_cell_setting 'orthorhombic'
loop_
_space_group_symop_operation_xyz
x,y,z
1/4-x,1/4-y,z
x,1/4-y,1/4-z
1/4-x,y,1/4-z
-x,-y,-z
3/4+x,3/4+y,-z
-x,3/4+y,3/4+z
3/4+x,-y,3/4+z
x,1/2+y,1/2+z
1/4-x,3/4-y,1/2+z
x,3/4-y,3/4-z
1/4-x,1/2+y,3/4-z
-x,1/2-y,1/2-z
3/4+x,1/4+y,1/2-z
-x,1/4+y,1/4+z
3/4+x,1/2-y,1/4+z
1/2+x,y,1/2+z
3/4-x,1/4-y,1/2+z
1/2+x,1/4-y,3/4-z
3/4-x,y,3/4-z
1/2-x,-y,1/2-z
1/4+x,3/4+y,1/2-z
1/2-x,3/4+y,1/4+z
1/4+x,-y,1/4+z
1/2+x,1/2+y,z
3/4-x,3/4-y,z
1/2+x,3/4-y,1/4-z
3/4-x,1/2+y,1/4-z
1/2-x,1/2-y,-z
1/4+x,1/4+y,-z
1/2-x,1/4+y,3/4+z
1/4+x,1/2-y,3/4+z
loop_
_atom_site_type_symbol
_atom_site_label
_atom_site_fract_x
_atom_site_fract_y
_atom_site_fract_z
Si Si1 0.448578 0.125000 0.625000
Si Si2 0.044015 0.837678 0.663413
Si Si3 0.125000 0.625000 0.950910
Si Si4 0.198849 0.908363 0.726263
O O1 0.487251 0.344911 0.645687
O O2 0.414148 0.229322 0.583125
O O3 0.067988 0.625000 0.625000
O O4 0.046161 0.649604 0.709904
O O5 0.060346 0.134970 0.680986
O O6 0.155718 0.816108 0.985861
O O7 0.250000 0.000000 0.750000
#
# Coordination Sequence:
#
# PCOD9516361 Si02
#       4
#    16  32  16  32
#     4  10  26  44  74 107 140 191 244 300 358 436
#     4  10  24  47  74  96 145 195 234 283 374 428
#     4  12  28  40  77 112 142 182 255 302 360 426
#     4  12  24  46  69 108 146 187 235 305 362 429
#
# _framework density 25.682133
#
# number of rings (size 3 to 8) (size 9 to 14) (size 15 to 20)
#    1.000    0.000    3.333    2.000    4.667    1.333 
#    0.000    5.000    0.000    0.000    0.000    0.000 
#    0.000    0.000    0.000    0.000    0.000    0.000 
#
# Total GULP energy -134318.729432 kJ/mol
# GULP energy per Si atom -5596.613726 kJ/mol
# Density = 2.562368 g / cm^3
# Si number density = 25.682133 Si / 1000 Ang^3
#
#
#
# Elastic Constant Matrix: (Units=GPa)
#
#
# Indices 1 2 3 4 5 6 
#
# 1 132.4407 26.8287 57.2796 0.0049 0.0971 0.0777
# 2 26.8287 160.0089 41.4177 0.0688 -0.1812 0.0353
# 3 57.2796 41.4177 110.5618 0.0396 -0.1248 0.0136
# 4 0.0049 0.0688 0.0396 41.3501 -0.0503 0.0084
# 5 0.0971 -0.1812 -0.1248 -0.0503 79.3153 -0.0741
# 6 0.0777 0.0353 0.0136 0.0084 -0.0741 23.3019
#
#
#
# Elastic Compliance Matrix: (Units=1/GPa)
#
#
# Indices 1 2 3 4 5 6 
#
# 1 0.009750 -0.000362 -0.004915 0.000004 -0.000021 -0.000029
# 2 -0.000362 0.006934 -0.002410 -0.000009 0.000012 -0.000008
# 3 -0.004915 -0.002410 0.012494 -0.000007 0.000020 0.000013
# 4 0.000004 -0.000009 -0.000007 0.024184 0.000015 -0.000009
# 5 -0.000021 0.000012 0.000020 0.000015 0.012608 0.000040
# 6 -0.000029 -0.000008 0.000013 -0.000009 0.000040 0.042915
#
#
# Mechanical properties :
#
#
# Convention : Reuss Voigt Hill
#
# Bulk Modulus (GPa) = 72.44946 72.67370 72.56158
# Shear Modulus (GPa) = 38.80132 47.29249 43.04691
#
# Velocity S-wave (km/s) = 3.89116 4.29587 4.09851
# Velocity P-wave (km/s) = 6.96128 7.27769 7.12125
#
# Compressibility (1/GPa) = 0.01380273
#
# Stress axis : x y z
#
# Youngs Moduli (GPa) = 102.56523 144.21228 80.03794
#
# Poissons Ratio (x) = 0.05227 0.39342
# Poissons Ratio (y) = 0.03717 0.19288
# Poissons Ratio (z) = 0.50415 0.34753
#
# Static dielectric constant tensor:
#      x y z
#    x 1.974230 -0.000010 0.000020 
#    y -0.000010 1.961820 0.000000 
#    z 0.000020 0.000000 2.112090 
# 
# From -- ./inp_files/68583.got.cif
#   From: 2010.05.17/outbox.cif.g08.bks.cpg/sg70_35_cif.got.tgz:68583.got - 2010.06.03 15:57:51.
