data_PCOD9516480
_publ_section_title
;
Structure prediction by ZEFSAII (Michael W. Deem and Ramdas Pophale) SiO2 
 PCOD9516480
Probable space group: F D D D
;
_chemical_formula_sum "Si O2"
_cell_formula_units_Z 176
_cell_length_a 25.201387
_cell_length_b 26.424705
_cell_length_c 10.801390
_cell_angle_alpha 90.000000
_cell_angle_beta 90.000000
_cell_angle_gamma 90.000000
_cell_volume 7193.069200
_symmetry_space_group_name_H-M "F D D D"
_symmetry_group_IT_number 70
_space_group.IT_coordinate_system_code '2'
_symmetry_cell_setting 'orthorhombic'
loop_
_space_group_symop_operation_xyz
x,y,z
1/4-x,1/4-y,z
x,1/4-y,1/4-z
1/4-x,y,1/4-z
-x,-y,-z
3/4+x,3/4+y,-z
-x,3/4+y,3/4+z
3/4+x,-y,3/4+z
x,1/2+y,1/2+z
1/4-x,3/4-y,1/2+z
x,3/4-y,3/4-z
1/4-x,1/2+y,3/4-z
-x,1/2-y,1/2-z
3/4+x,1/4+y,1/2-z
-x,1/4+y,1/4+z
3/4+x,1/2-y,1/4+z
1/2+x,y,1/2+z
3/4-x,1/4-y,1/2+z
1/2+x,1/4-y,3/4-z
3/4-x,y,3/4-z
1/2-x,-y,1/2-z
1/4+x,3/4+y,1/2-z
1/2-x,3/4+y,1/4+z
1/4+x,-y,1/4+z
1/2+x,1/2+y,z
3/4-x,3/4-y,z
1/2+x,3/4-y,1/4-z
3/4-x,1/2+y,1/4-z
1/2-x,1/2-y,-z
1/4+x,1/4+y,-z
1/2-x,1/4+y,3/4+z
1/4+x,1/2-y,3/4+z
loop_
_atom_site_type_symbol
_atom_site_label
_atom_site_fract_x
_atom_site_fract_y
_atom_site_fract_z
Si Si1 0.375000 0.238773 0.875000
Si Si2 0.399811 0.819382 0.756922
Si Si3 0.779005 0.736752 0.738587
Si Si4 0.774529 0.082478 0.226712
Si Si5 0.814816 0.948990 0.673904
Si Si6 0.003619 0.853417 0.006969
O O1 0.333518 0.211886 0.787766
O O2 0.420173 0.268308 0.794051
O O3 0.375000 0.791174 0.875000
O O4 0.375000 0.875000 0.756471
O O5 0.460884 0.829729 0.765090
O O6 0.372332 0.797368 0.638041
O O7 0.783627 0.720620 0.594032
O O8 0.729160 0.715663 0.821015
O O9 0.770462 0.797066 0.752061
O O10 0.788497 0.125000 0.125000
O O11 0.789942 0.096946 0.368231
O O12 0.792837 0.894484 0.715886
O O13 0.026693 0.875000 0.875000
#
# Coordination Sequence:
#
# PCOD9516480 Si02
#       6
#    16  32  32  32  32  32
#     4  12  28  43  72 106 148 190 252 306 381 438
#     4  11  17  33  65 102 138 179 222 296 370 425
#     4  12  26  46  74 103 146 197 243 308 373 440
#     4  12  22  43  70 108 152 190 236 304 369 438
#     4  12  25  44  70 107 151 182 240 314 372 431
#     4  12  25  42  73 109 146 189 244 301 381 434
#
# _framework density 24.467998000000001
#
# number of rings (size 3 to 8) (size 9 to 14) (size 15 to 20)
#    0.000    0.182    9.091    2.182    0.000    0.727 
#    0.000    0.000    4.000    0.000    0.000    0.000 
#    0.000    0.000    0.000    0.000    0.000    0.000 
#
# Total GULP energy -244943.619809 kJ/mol
# GULP energy per Si atom -5566.900450 kJ/mol
# Density = 2.441231 g / cm^3
# Si number density = 24.467998 Si / 1000 Ang^3
#
#
#
# Elastic Constant Matrix: (Units=GPa)
#
#
# Indices 1 2 3 4 5 6 
#
# 1 45.6150 11.4228 3.5006 0.0000 0.0000 0.0000
# 2 11.4228 93.4645 29.2167 0.0001 0.0000 0.0000
# 3 3.5006 29.2167 175.2387 0.0003 -0.0002 -0.0005
# 4 0.0000 0.0001 0.0003 49.3956 -0.0001 -0.0002
# 5 0.0000 0.0000 -0.0002 -0.0001 68.0256 0.0002
# 6 0.0000 0.0000 -0.0005 -0.0002 0.0002 16.9360
#
#
#
# Elastic Compliance Matrix: (Units=1/GPa)
#
#
# Indices 1 2 3 4 5 6 
#
# 1 0.022615 -0.002767 0.000010 0.000000 0.000000 0.000000
# 2 -0.002767 0.011626 -0.001883 0.000000 0.000000 0.000000
# 3 0.000010 -0.001883 0.006020 0.000000 0.000000 0.000000
# 4 0.000000 0.000000 0.000000 0.020245 0.000000 0.000000
# 5 0.000000 0.000000 0.000000 0.000000 0.014700 0.000000
# 6 0.000000 0.000000 0.000000 0.000000 0.000000 0.059046
#
#
# Mechanical properties :
#
#
# Convention : Reuss Voigt Hill
#
# Bulk Modulus (GPa) = 32.27861 44.73317 38.50589
# Shear Modulus (GPa) = 32.49723 44.88333 38.69028
#
# Velocity S-wave (km/s) = 3.64834 4.28760 3.98082
# Velocity P-wave (km/s) = 5.56489 6.54472 6.07459
#
# Compressibility (1/GPa) = 0.03098027
#
# Stress axis : x y z
#
# Youngs Moduli (GPa) = 44.21898 86.01380 166.10551
#
# Poissons Ratio (x) = 0.23799 -0.00158
# Poissons Ratio (y) = 0.12235 0.31279
# Poissons Ratio (z) = -0.00042 0.16197
#
# Static dielectric constant tensor:
#      x y z
#    x 1.943440 0.000000 0.000000 
#    y 0.000000 1.972790 0.000000 
#    z 0.000000 0.000000 2.434090 
# 
# From -- ./inp_files/20984.got.cif
#   From: 2010.05.17/outbox.cif.g08.bks.cpg/sg70_11_cif.got.tgz:20984.got - 2010.06.03 15:57:51.
