data_PCOD9516657
_publ_section_title
;
Structure prediction by ZEFSAII (Michael W. Deem and Ramdas Pophale) SiO2 
 PCOD9516657
Probable space group: F D D D
;
_chemical_formula_sum "Si O2"
_cell_formula_units_Z 176
_cell_length_a 22.702358
_cell_length_b 31.364216
_cell_length_c 11.892834
_cell_angle_alpha 90.000000
_cell_angle_beta 90.000000
_cell_angle_gamma 90.000000
_cell_volume 8468.193264
_symmetry_space_group_name_H-M "F D D D"
_symmetry_group_IT_number 70
_space_group.IT_coordinate_system_code '2'
_symmetry_cell_setting 'orthorhombic'
loop_
_space_group_symop_operation_xyz
x,y,z
1/4-x,1/4-y,z
x,1/4-y,1/4-z
1/4-x,y,1/4-z
-x,-y,-z
3/4+x,3/4+y,-z
-x,3/4+y,3/4+z
3/4+x,-y,3/4+z
x,1/2+y,1/2+z
1/4-x,3/4-y,1/2+z
x,3/4-y,3/4-z
1/4-x,1/2+y,3/4-z
-x,1/2-y,1/2-z
3/4+x,1/4+y,1/2-z
-x,1/4+y,1/4+z
3/4+x,1/2-y,1/4+z
1/2+x,y,1/2+z
3/4-x,1/4-y,1/2+z
1/2+x,1/4-y,3/4-z
3/4-x,y,3/4-z
1/2-x,-y,1/2-z
1/4+x,3/4+y,1/2-z
1/2-x,3/4+y,1/4+z
1/4+x,-y,1/4+z
1/2+x,1/2+y,z
3/4-x,3/4-y,z
1/2+x,3/4-y,1/4-z
3/4-x,1/2+y,1/4-z
1/2-x,1/2-y,-z
1/4+x,1/4+y,-z
1/2-x,1/4+y,3/4+z
1/4+x,1/2-y,3/4+z
loop_
_atom_site_type_symbol
_atom_site_label
_atom_site_fract_x
_atom_site_fract_y
_atom_site_fract_z
Si Si1 0.980716 0.181148 0.315235
Si Si2 0.343291 0.725156 0.065114
Si Si3 0.508401 0.578614 0.677707
Si Si4 0.341766 0.267433 0.984632
Si Si5 0.375000 0.465722 0.375000
Si Si6 0.351184 0.108994 0.005372
O O1 0.982161 0.171222 0.447292
O O2 0.938400 0.221880 0.295829
O O3 0.955980 0.139408 0.252169
O O4 0.043394 0.198659 0.274032
O O5 0.285013 0.699925 0.100938
O O6 0.363846 0.754806 0.166889
O O7 0.337733 0.754962 0.958476
O O8 0.395007 0.691367 0.030578
O O9 0.512155 0.625000 0.625000
O O10 0.574920 0.561160 0.686710
O O11 0.375000 0.283305 0.875000
O O12 0.375000 0.113645 0.875000
O O13 0.380567 0.125000 0.125000
#
# Coordination Sequence:
#
# PCOD9516657 Si02
#       6
#    32  32  32  32  16  32
#     4  11  23  40  69 104 137 184 230 299 354 410
#     4  12  23  43  73 103 134 184 238 292 346 424
#     4  12  26  45  72 102 143 191 233 294 363 425
#     4  11  22  42  71 101 142 180 234 292 358 420
#     4  12  27  48  64 104 144 186 236 290 358 435
#     4  12  23  40  69 106 142 175 239 302 346 419
#
# _framework density 20.783653999999999
#
# number of rings (size 3 to 8) (size 9 to 14) (size 15 to 20)
#    0.000    0.364    6.364    4.091    0.000    0.000 
#    0.000    0.000    0.000    0.000    0.000    0.000 
#    0.000    0.000    0.000    0.000    0.000    0.000 
#
# Total GULP energy -245483.332782 kJ/mol
# GULP energy per Si atom -5579.166654 kJ/mol
# Density = 2.073635 g / cm^3
# Si number density = 20.783654 Si / 1000 Ang^3
#
#
#
# Elastic Constant Matrix: (Units=GPa)
#
#
# Indices 1 2 3 4 5 6 
#
# 1 66.1309 29.1083 11.0455 0.0000 0.0000 0.0000
# 2 29.1083 67.5697 26.6053 0.0000 0.0000 0.0000
# 3 11.0455 26.6053 139.4847 0.0000 0.0000 0.0000
# 4 0.0000 0.0000 0.0000 17.0963 0.0000 0.0000
# 5 0.0000 0.0000 0.0000 0.0000 29.1207 0.0000
# 6 0.0000 0.0000 0.0000 0.0000 0.0000 -47.3114
#
#
#
# Elastic Compliance Matrix: (Units=1/GPa)
#
#
# Indices 1 2 3 4 5 6 
#
# 1 0.018660 -0.008062 0.000060 0.000000 0.000000 0.000000
# 2 -0.008062 0.019485 -0.003078 0.000000 0.000000 0.000000
# 3 0.000060 -0.003078 0.007752 0.000000 0.000000 0.000000
# 4 0.000000 0.000000 0.000000 0.058492 0.000000 0.000000
# 5 0.000000 0.000000 0.000000 0.000000 0.034340 0.000000
# 6 0.000000 0.000000 0.000000 0.000000 0.000000 -0.021137
#
#
# Mechanical properties :
#
#
# Convention : Reuss Voigt Hill
#
# Bulk Modulus (GPa) = 42.13006 45.18925 43.65965
# Shear Modulus (GPa) = 33.86060 13.54288 23.70174
#
# Velocity S-wave (km/s) = 4.04071 2.55544 3.38065
# Velocity P-wave (km/s) = 6.48726 5.52240 6.02418
#
# Compressibility (1/GPa) = 0.02373602
#
# Stress axis : x y z
#
# Youngs Moduli (GPa) = 53.59007 51.32246 129.00573
#
# Poissons Ratio (x) = 0.41378 -0.00776
# Poissons Ratio (y) = 0.43206 0.39709
# Poissons Ratio (z) = -0.00322 0.15797
#
# Static dielectric constant tensor:
#      x y z
#    x 1.744430 0.000000 0.000000 
#    y 0.000000 1.724330 0.000000 
#    z 0.000000 0.000000 1.782030 
# 
# From -- ./inp_files/19633.got.cif
#   From: 2010.05.17/outbox.cif.g08.bks.cpg/sg70_10_cif.got.tgz:19633.got - 2010.06.03 15:57:51.
