data_PCOD9516887
_publ_section_title
;
Structure prediction by ZEFSAII (Michael W. Deem and Ramdas Pophale) SiO2 
 PCOD9516887
Probable space group: F D D D
;
_chemical_formula_sum "Si O2"
_cell_formula_units_Z 176
_cell_length_a 13.848421
_cell_length_b 23.859847
_cell_length_c 23.807790
_cell_angle_alpha 90.000000
_cell_angle_beta 90.000000
_cell_angle_gamma 90.000000
_cell_volume 7866.598690
_symmetry_space_group_name_H-M "F D D D"
_symmetry_group_IT_number 70
_space_group.IT_coordinate_system_code '2'
_symmetry_cell_setting 'orthorhombic'
loop_
_space_group_symop_operation_xyz
x,y,z
1/4-x,1/4-y,z
x,1/4-y,1/4-z
1/4-x,y,1/4-z
-x,-y,-z
3/4+x,3/4+y,-z
-x,3/4+y,3/4+z
3/4+x,-y,3/4+z
x,1/2+y,1/2+z
1/4-x,3/4-y,1/2+z
x,3/4-y,3/4-z
1/4-x,1/2+y,3/4-z
-x,1/2-y,1/2-z
3/4+x,1/4+y,1/2-z
-x,1/4+y,1/4+z
3/4+x,1/2-y,1/4+z
1/2+x,y,1/2+z
3/4-x,1/4-y,1/2+z
1/2+x,1/4-y,3/4-z
3/4-x,y,3/4-z
1/2-x,-y,1/2-z
1/4+x,3/4+y,1/2-z
1/2-x,3/4+y,1/4+z
1/4+x,-y,1/4+z
1/2+x,1/2+y,z
3/4-x,3/4-y,z
1/2+x,3/4-y,1/4-z
3/4-x,1/2+y,1/4-z
1/2-x,1/2-y,-z
1/4+x,1/4+y,-z
1/2-x,1/4+y,3/4+z
1/4+x,1/2-y,3/4+z
loop_
_atom_site_type_symbol
_atom_site_label
_atom_site_fract_x
_atom_site_fract_y
_atom_site_fract_z
Si Si1 0.179344 0.834993 0.463579
Si Si2 0.903326 0.276551 0.142681
Si Si3 0.625000 0.531466 0.625000
Si Si4 0.516012 0.463384 0.553955
Si Si5 0.375000 0.875000 0.232939
Si Si6 0.188621 0.341111 0.177855
Si Si7 0.787787 0.125000 0.125000
O O1 0.185994 0.780243 0.423895
O O2 0.279371 0.865470 0.479321
O O3 0.128485 0.817873 0.522479
O O4 0.107290 0.875352 0.428992
O O5 0.811362 0.272678 0.102092
O O6 0.876693 0.321791 0.190807
O O7 0.986582 0.299239 0.100961
O O8 0.618462 0.488231 0.573866
O O9 0.715734 0.572669 0.621544
O O10 0.500000 0.500000 0.500000
O O11 0.512663 0.396916 0.547238
O O12 0.125000 0.361117 0.125000
#
# Coordination Sequence:
#
# PCOD9516887 Si02
#       7
#    32  32  16  32  16  32  16
#     4  12  28  49  78 114 156 210 262 328 392 467
#     4  12  26  51  74 115 155 209 262 320 401 470
#     4  11  24  48  70 106 158 186 246 317 388 452
#     4  12  25  45  78 112 148 204 251 317 393 463
#     4  12  26  51  78 106 158 207 268 326 384 462
#     4  12  25  48  77 107 154 203 263 317 385 464
#     4  11  26  47  72 116 154 195 254 325 384 460
#
# _framework density 22.373075
#
# number of rings (size 3 to 8) (size 9 to 14) (size 15 to 20)
#    0.000    0.182    6.364    1.636    2.545    1.818 
#    0.000    0.000    0.000    0.000    0.000    0.000 
#    0.000    0.000    0.000    0.000    0.000    0.000 
#
# Total GULP energy -245891.424782 kJ/mol
# GULP energy per Si atom -5588.441472 kJ/mol
# Density = 2.232215 g / cm^3
# Si number density = 22.373075 Si / 1000 Ang^3
#
#
#
# Elastic Constant Matrix: (Units=GPa)
#
#
# Indices 1 2 3 4 5 6 
#
# 1 144.4284 55.4917 63.7502 0.0000 0.0000 0.0000
# 2 55.4917 80.4611 40.5834 0.0000 0.0000 0.0000
# 3 63.7502 40.5834 132.9322 0.0000 0.0000 0.0000
# 4 0.0000 0.0000 0.0000 5.4067 0.0000 0.0000
# 5 0.0000 0.0000 0.0000 0.0000 50.0500 0.0000
# 6 0.0000 0.0000 0.0000 0.0000 0.0000 23.7279
#
#
#
# Elastic Compliance Matrix: (Units=1/GPa)
#
#
# Indices 1 2 3 4 5 6 
#
# 1 0.010550 -0.005584 -0.003355 0.000000 0.000000 0.000000
# 2 -0.005584 0.017646 -0.002709 0.000000 0.000000 0.000000
# 3 -0.003355 -0.002709 0.009959 0.000000 0.000000 0.000000
# 4 0.000000 0.000000 0.000000 0.184957 0.000000 0.000000
# 5 0.000000 0.000000 0.000000 0.000000 0.019980 0.000000
# 6 0.000000 0.000000 0.000000 0.000000 0.000000 0.042145
#
#
# Mechanical properties :
#
#
# Convention : Reuss Voigt Hill
#
# Bulk Modulus (GPa) = 67.30104 75.27469 71.28786
# Shear Modulus (GPa) = 15.94974 29.03668 22.49321
#
# Velocity S-wave (km/s) = 2.67291 3.60646 3.17420
# Velocity P-wave (km/s) = 6.29861 7.14565 6.73546
#
# Compressibility (1/GPa) = 0.01485861
#
# Stress axis : x y z
#
# Youngs Moduli (GPa) = 94.78610 56.66995 100.41585
#
# Poissons Ratio (x) = 0.31645 0.33687
# Poissons Ratio (y) = 0.52929 0.27206
# Poissons Ratio (z) = 0.31798 0.15354
#
# Static dielectric constant tensor:
#      x y z
#    x 1.784880 0.000000 0.000000 
#    y 0.000000 1.879350 0.000000 
#    z 0.000000 0.000000 1.632020 
# 
# From -- ./inp_files/51240.got.cif
#   From: 2010.05.17/outbox.cif.g08.bks.cpg/sg70_26_cif.got.tgz:51240.got - 2010.06.03 15:57:51.
