data_PCOD9516088
_publ_section_title
;
Structure prediction by ZEFSAII (Michael W. Deem and Ramdas Pophale) SiO2 
 PCOD9516088
Probable space group: F D D D
;
_chemical_formula_sum "Si O2"
_cell_formula_units_Z 176
_cell_length_a 22.343885
_cell_length_b 30.703285
_cell_length_c 13.114735
_cell_angle_alpha 90.000000
_cell_angle_beta 90.000000
_cell_angle_gamma 90.000000
_cell_volume 8997.110428
_symmetry_space_group_name_H-M "F D D D"
_symmetry_group_IT_number 70
_space_group.IT_coordinate_system_code '2'
_symmetry_cell_setting 'orthorhombic'
loop_
_space_group_symop_operation_xyz
x,y,z
1/4-x,1/4-y,z
x,1/4-y,1/4-z
1/4-x,y,1/4-z
-x,-y,-z
3/4+x,3/4+y,-z
-x,3/4+y,3/4+z
3/4+x,-y,3/4+z
x,1/2+y,1/2+z
1/4-x,3/4-y,1/2+z
x,3/4-y,3/4-z
1/4-x,1/2+y,3/4-z
-x,1/2-y,1/2-z
3/4+x,1/4+y,1/2-z
-x,1/4+y,1/4+z
3/4+x,1/2-y,1/4+z
1/2+x,y,1/2+z
3/4-x,1/4-y,1/2+z
1/2+x,1/4-y,3/4-z
3/4-x,y,3/4-z
1/2-x,-y,1/2-z
1/4+x,3/4+y,1/2-z
1/2-x,3/4+y,1/4+z
1/4+x,-y,1/4+z
1/2+x,1/2+y,z
3/4-x,3/4-y,z
1/2+x,3/4-y,1/4-z
3/4-x,1/2+y,1/4-z
1/2-x,1/2-y,-z
1/4+x,1/4+y,-z
1/2-x,1/4+y,3/4+z
1/4+x,1/2-y,3/4+z
loop_
_atom_site_type_symbol
_atom_site_label
_atom_site_fract_x
_atom_site_fract_y
_atom_site_fract_z
Si Si1 0.269471 0.499494 0.131021
Si Si2 0.159668 0.502079 0.837502
Si Si3 0.375000 0.375000 0.156976
Si Si4 0.176094 0.197949 0.710369
Si Si5 0.475444 0.836508 0.522259
Si Si6 0.992691 0.432419 0.460230
O O1 0.250000 0.500000 0.250000
O O2 0.337847 0.501018 0.089882
O O3 0.239042 0.543238 0.089902
O O4 0.245131 0.453732 0.083046
O O5 0.195558 0.459126 0.802350
O O6 0.193623 0.539712 0.772462
O O7 0.171266 0.514790 0.954538
O O8 0.333259 0.346759 0.230354
O O9 0.414796 0.345011 0.085018
O O10 0.125000 0.201918 0.625000
O O11 0.467573 0.823273 0.404501
O O12 0.502966 0.885251 0.512049
#
# Coordination Sequence:
#
# PCOD9516088 Si02
#       6
#    32  32  16  32  32  32
#     4  12  24  41  70  97 128 181 231 277 337 408
#     4  11  22  43  67 100 132 171 224 270 345 407
#     4  12  23  41  66 102 128 172 232 276 324 402
#     4  12  23  42  68  94 132 172 225 282 328 399
#     4  11  21  39  67  97 136 172 223 272 343 402
#     4  10  23  40  67  99 140 174 212 287 342 409
#
# _framework density 19.561836
#
# number of rings (size 3 to 8) (size 9 to 14) (size 15 to 20)
#    0.000    0.727    7.273    0.273    0.000    5.091 
#    0.000    0.000   24.000    0.000    0.000    0.000 
#    0.000    0.000    0.000    0.000    0.000    0.000 
#
# Total GULP energy -245091.100140 kJ/mol
# GULP energy per Si atom -5570.252276 kJ/mol
# Density = 1.951731 g / cm^3
# Si number density = 19.561836 Si / 1000 Ang^3
#
#
#
# Elastic Constant Matrix: (Units=GPa)
#
#
# Indices 1 2 3 4 5 6 
#
# 1 107.7261 60.3768 35.9385 0.0000 0.0000 0.0000
# 2 60.3768 115.9233 64.8463 0.0000 0.0000 0.0000
# 3 35.9385 64.8463 104.9135 0.0000 0.0000 0.0000
# 4 0.0000 0.0000 0.0000 20.9269 0.0000 0.0000
# 5 0.0000 0.0000 0.0000 0.0000 35.1767 0.0000
# 6 0.0000 0.0000 0.0000 0.0000 0.0000 35.8028
#
#
#
# Elastic Compliance Matrix: (Units=1/GPa)
#
#
# Indices 1 2 3 4 5 6 
#
# 1 0.013121 -0.006603 -0.000414 0.000000 0.000000 0.000000
# 2 -0.006603 0.016508 -0.007942 0.000000 0.000000 0.000000
# 3 -0.000414 -0.007942 0.014582 0.000000 0.000000 0.000000
# 4 0.000000 0.000000 0.000000 0.047785 0.000000 0.000000
# 5 0.000000 0.000000 0.000000 0.000000 0.028428 0.000000
# 6 0.000000 0.000000 0.000000 0.000000 0.000000 0.027931
#
#
# Mechanical properties :
#
#
# Convention : Reuss Voigt Hill
#
# Bulk Modulus (GPa) = 69.95321 72.32068 71.13694
# Shear Modulus (GPa) = 27.31704 29.54136 28.42920
#
# Velocity S-wave (km/s) = 3.74096 3.89028 3.81635
# Velocity P-wave (km/s) = 7.38223 7.56503 7.47419
#
# Compressibility (1/GPa) = 0.01429527
#
# Stress axis : x y z
#
# Youngs Moduli (GPa) = 76.21153 60.57788 68.57771
#
# Poissons Ratio (x) = 0.39997 0.02837
# Poissons Ratio (y) = 0.50320 0.54461
# Poissons Ratio (z) = 0.03153 0.48108
#
# Static dielectric constant tensor:
#      x y z
#    x 1.735160 0.000000 0.000000 
#    y 0.000000 1.744290 0.000000 
#    z 0.000000 0.000000 1.704130 
# 
# From -- ./inp_files/19664.got.cif
#   From: 2010.05.17/outbox.cif.g08.bks.cpg/sg70_10_cif.got.tgz:19664.got - 2010.06.03 15:57:51.
