data_PCOD9516004
_publ_section_title
;
Structure prediction by ZEFSAII (Michael W. Deem and Ramdas Pophale) SiO2 
 PCOD9516004
Probable space group: F D D D
;
_chemical_formula_sum "Si O2"
_cell_formula_units_Z 120
_cell_length_a 15.141610
_cell_length_b 24.492827
_cell_length_c 13.297322
_cell_angle_alpha 90.000000
_cell_angle_beta 90.000000
_cell_angle_gamma 90.000000
_cell_volume 4931.455930
_symmetry_space_group_name_H-M "F D D D"
_symmetry_group_IT_number 70
_space_group.IT_coordinate_system_code '2'
_symmetry_cell_setting 'orthorhombic'
loop_
_space_group_symop_operation_xyz
x,y,z
1/4-x,1/4-y,z
x,1/4-y,1/4-z
1/4-x,y,1/4-z
-x,-y,-z
3/4+x,3/4+y,-z
-x,3/4+y,3/4+z
3/4+x,-y,3/4+z
x,1/2+y,1/2+z
1/4-x,3/4-y,1/2+z
x,3/4-y,3/4-z
1/4-x,1/2+y,3/4-z
-x,1/2-y,1/2-z
3/4+x,1/4+y,1/2-z
-x,1/4+y,1/4+z
3/4+x,1/2-y,1/4+z
1/2+x,y,1/2+z
3/4-x,1/4-y,1/2+z
1/2+x,1/4-y,3/4-z
3/4-x,y,3/4-z
1/2-x,-y,1/2-z
1/4+x,3/4+y,1/2-z
1/2-x,3/4+y,1/4+z
1/4+x,-y,1/4+z
1/2+x,1/2+y,z
3/4-x,3/4-y,z
1/2+x,3/4-y,1/4-z
3/4-x,1/2+y,1/4-z
1/2-x,1/2-y,-z
1/4+x,1/4+y,-z
1/2-x,1/4+y,3/4+z
1/4+x,1/2-y,3/4+z
loop_
_atom_site_type_symbol
_atom_site_label
_atom_site_fract_x
_atom_site_fract_y
_atom_site_fract_z
Si Si1 0.210506 0.161583 0.985698
Si Si2 0.683937 0.477599 0.397084
Si Si3 0.625000 0.625000 0.625000
Si Si4 0.982975 0.042929 0.698931
Si Si5 0.125000 0.403567 0.625000
O O1 0.125000 0.125000 0.998512
O O2 0.188369 0.215418 0.917399
O O3 0.288052 0.129040 0.926063
O O4 0.252805 0.185589 0.088149
O O5 0.720479 0.489929 0.507047
O O6 0.581164 0.460640 0.396555
O O7 0.559453 0.587031 0.687672
O O8 0.913727 0.059775 0.785300
#
# Coordination Sequence:
#
# PCOD9516004 Si02
#       5
#    32  32   8  32  16
#     4   9  17  34  65 104 137 180 221 283 348 404
#     4   9  20  40  66  96 140 172 224 288 337 399
#     4  12  28  44  70  92 138 190 224 274 360 428
#     4  10  22  45  66  97 134 178 222 285 343 414
#     4   8  18  36  67  92 135 170 222 276 330 406
#
# _framework density 24.333586
#
# number of rings (size 3 to 8) (size 9 to 14) (size 15 to 20)
#    0.000    2.667    0.000    1.600    7.467    1.067 
#    9.600    2.667    0.000    0.000    0.000    0.000 
#    0.000    0.000    0.000    0.000    0.000    0.000 
#
# Total GULP energy -167627.374357 kJ/mol
# GULP energy per Si atom -5587.579145 kJ/mol
# Density = 2.427820 g / cm^3
# Si number density = 24.333586 Si / 1000 Ang^3
#
#
#
# Elastic Constant Matrix: (Units=GPa)
#
#
# Indices 1 2 3 4 5 6 
#
# 1 217.9232 73.5698 41.2546 0.0000 0.0000 0.0000
# 2 73.5698 121.2685 23.1746 0.0000 0.0000 0.0000
# 3 41.2546 23.1746 29.4127 0.0000 0.0000 0.0000
# 4 0.0000 0.0000 0.0000 30.5681 0.0000 0.0000
# 5 0.0000 0.0000 0.0000 0.0000 16.3253 0.0000
# 6 0.0000 0.0000 0.0000 0.0000 0.0000 86.3225
#
#
#
# Elastic Compliance Matrix: (Units=1/GPa)
#
#
# Indices 1 2 3 4 5 6 
#
# 1 0.006960 -0.002774 -0.007576 0.000000 0.000000 0.000000
# 2 -0.002774 0.010814 -0.004629 0.000000 0.000000 0.000000
# 3 -0.007576 -0.004629 0.048272 0.000000 0.000000 0.000000
# 4 0.000000 0.000000 0.000000 0.032714 0.000000 0.000000
# 5 0.000000 0.000000 0.000000 0.000000 0.061255 0.000000
# 6 0.000000 0.000000 0.000000 0.000000 0.000000 0.011584
#
#
# Mechanical properties :
#
#
# Convention : Reuss Voigt Hill
#
# Bulk Modulus (GPa) = 27.71056 71.62251 49.66654
# Shear Modulus (GPa) = 23.40986 42.01685 32.71336
#
# Velocity S-wave (km/s) = 3.10504 4.15987 3.67054
# Velocity P-wave (km/s) = 4.92621 7.25053 6.19829
#
# Compressibility (1/GPa) = 0.03608732
#
# Stress axis : x y z
#
# Youngs Moduli (GPa) = 143.68829 92.47331 20.71606
#
# Poissons Ratio (x) = 0.25656 0.15693
# Poissons Ratio (y) = 0.39865 0.09589
# Poissons Ratio (z) = 1.08851 0.42806
#
# Static dielectric constant tensor:
#      x y z
#    x 1.959690 0.000000 0.000000 
#    y 0.000000 1.986660 0.000000 
#    z 0.000000 0.000000 1.958400 
# 
# From -- ./inp_files/20260.got.cif
#   From: 2010.05.17/outbox.cif.g08.bks.cpg/sg70_11_cif.got.tgz:20260.got - 2010.06.03 15:57:51.
