data_PCOD9516617
_publ_section_title
;
Structure prediction by ZEFSAII (Michael W. Deem and Ramdas Pophale) SiO2 
 PCOD9516617
Probable space group: F D D D
;
_chemical_formula_sum "Si O2"
_cell_formula_units_Z 136
_cell_length_a 7.253369
_cell_length_b 27.573666
_cell_length_c 23.650828
_cell_angle_alpha 90.000000
_cell_angle_beta 90.000000
_cell_angle_gamma 90.000000
_cell_volume 4730.212291
_symmetry_space_group_name_H-M "F D D D"
_symmetry_group_IT_number 70
_space_group.IT_coordinate_system_code '2'
_symmetry_cell_setting 'orthorhombic'
loop_
_space_group_symop_operation_xyz
x,y,z
1/4-x,1/4-y,z
x,1/4-y,1/4-z
1/4-x,y,1/4-z
-x,-y,-z
3/4+x,3/4+y,-z
-x,3/4+y,3/4+z
3/4+x,-y,3/4+z
x,1/2+y,1/2+z
1/4-x,3/4-y,1/2+z
x,3/4-y,3/4-z
1/4-x,1/2+y,3/4-z
-x,1/2-y,1/2-z
3/4+x,1/4+y,1/2-z
-x,1/4+y,1/4+z
3/4+x,1/2-y,1/4+z
1/2+x,y,1/2+z
3/4-x,1/4-y,1/2+z
1/2+x,1/4-y,3/4-z
3/4-x,y,3/4-z
1/2-x,-y,1/2-z
1/4+x,3/4+y,1/2-z
1/2-x,3/4+y,1/4+z
1/4+x,-y,1/4+z
1/2+x,1/2+y,z
3/4-x,3/4-y,z
1/2+x,3/4-y,1/4-z
3/4-x,1/2+y,1/4-z
1/2-x,1/2-y,-z
1/4+x,1/4+y,-z
1/2-x,1/4+y,3/4+z
1/4+x,1/2-y,3/4+z
loop_
_atom_site_type_symbol
_atom_site_label
_atom_site_fract_x
_atom_site_fract_y
_atom_site_fract_z
Si Si1 0.078477 0.708549 0.396148
Si Si2 0.694720 0.693814 0.776611
Si Si3 0.193518 0.939283 0.486065
Si Si4 0.702071 0.813184 0.930612
Si Si5 0.125000 0.625000 0.125000
O O1 0.875000 0.725026 0.375000
O O2 0.028088 0.679392 0.452315
O O3 0.172908 0.682851 0.342733
O O4 0.189533 0.756633 0.413647
O O5 0.518021 0.673519 0.741963
O O6 0.684473 0.752407 0.771556
O O7 0.881121 0.680802 0.745441
O O8 0.330625 0.923355 0.435861
O O9 0.531462 0.838488 0.899934
#
# Coordination Sequence:
#
# PCOD9516617 Si02
#       5
#    32  32  32  32   8
#     4   9  16  32  59  93 117 139 189 273 338 367
#     4   9  18  35  60  92 120 144 190 281 328 381
#     4   9  19  31  57  91 119 148 197 257 328 379
#     4  11  22  39  54  83 125 172 210 246 316 387
#     4  12  28  44  54  76 136 190 220 256 286 414
#
# _framework density 28.751353000000002
#
# number of rings (size 3 to 8) (size 9 to 14) (size 15 to 20)
#    0.000    2.353    1.176    4.235    0.000    3.765 
#    0.000    2.353    0.000    0.000   18.353    0.000 
#    0.000    0.000    0.000    0.000    0.000    0.000 
#
# Total GULP energy -190255.436419 kJ/mol
# GULP energy per Si atom -5595.748130 kJ/mol
# Density = 2.868591 g / cm^3
# Si number density = 28.751353 Si / 1000 Ang^3
#
#
#
# Elastic Constant Matrix: (Units=GPa)
#
#
# Indices 1 2 3 4 5 6 
#
# 1 244.2911 12.2512 72.2360 0.0000 0.0000 0.0000
# 2 12.2512 90.1911 -9.4329 0.0000 0.0000 0.0000
# 3 72.2360 -9.4329 102.3912 0.0000 0.0000 0.0000
# 4 0.0000 0.0000 0.0000 0.0103 0.0000 0.0000
# 5 0.0000 0.0000 0.0000 0.0000 56.7391 0.0000
# 6 0.0000 0.0000 0.0000 0.0000 0.0000 13.8589
#
#
#
# Elastic Compliance Matrix: (Units=1/GPa)
#
#
# Indices 1 2 3 4 5 6 
#
# 1 0.005282 -0.001118 -0.003829 0.000000 0.000000 0.000000
# 2 -0.001118 0.011432 0.001842 0.000000 0.000000 0.000000
# 3 -0.003829 0.001842 0.012638 0.000000 0.000000 0.000000
# 4 0.000000 0.000000 0.000000 96.799117 0.000000 0.000000
# 5 0.000000 0.000000 0.000000 0.000000 0.017625 0.000000
# 6 0.000000 0.000000 0.000000 0.000000 0.000000 0.072156
#
#
# Mechanical properties :
#
#
# Convention : Reuss Voigt Hill
#
# Bulk Modulus (GPa) = 43.21351 65.22021 54.21686
# Shear Modulus (GPa) = 0.05158 38.24295 19.14726
#
# Velocity S-wave (km/s) = 0.13409 3.65105 2.58342
# Velocity P-wave (km/s) = 3.88416 6.36451 5.27227
#
# Compressibility (1/GPa) = 0.02314091
#
# Stress axis : x y z
#
# Youngs Moduli (GPa) = 189.32771 87.47322 79.12850
#
# Poissons Ratio (x) = 0.09779 0.30301
# Poissons Ratio (y) = 0.21166 -0.14575
# Poissons Ratio (z) = 0.72499 -0.16112
#
# Static dielectric constant tensor:
#      x y z
#    x 2.052520 0.000000 0.000000 
#    y 0.000000 2.235650 0.000000 
#    z 0.000000 0.000000 2.333470 
# 
# From -- ./inp_files/29744.got.cif
#   From: 2010.05.17/outbox.cif.g08.bks.cpg/sg70_15_cif.got.tgz:29744.got - 2010.06.03 15:57:51.
