data_PCOD9516537
_publ_section_title
;
Structure prediction by ZEFSAII (Michael W. Deem and Ramdas Pophale) SiO2 
 PCOD9516537
Probable space group: F D D D
;
_chemical_formula_sum "Si O2"
_cell_formula_units_Z 136
_cell_length_a 10.552789
_cell_length_b 25.105307
_cell_length_c 18.612371
_cell_angle_alpha 90.000000
_cell_angle_beta 90.000000
_cell_angle_gamma 90.000000
_cell_volume 4930.994202
_symmetry_space_group_name_H-M "F D D D"
_symmetry_group_IT_number 70
_space_group.IT_coordinate_system_code '2'
_symmetry_cell_setting 'orthorhombic'
loop_
_space_group_symop_operation_xyz
x,y,z
1/4-x,1/4-y,z
x,1/4-y,1/4-z
1/4-x,y,1/4-z
-x,-y,-z
3/4+x,3/4+y,-z
-x,3/4+y,3/4+z
3/4+x,-y,3/4+z
x,1/2+y,1/2+z
1/4-x,3/4-y,1/2+z
x,3/4-y,3/4-z
1/4-x,1/2+y,3/4-z
-x,1/2-y,1/2-z
3/4+x,1/4+y,1/2-z
-x,1/4+y,1/4+z
3/4+x,1/2-y,1/4+z
1/2+x,y,1/2+z
3/4-x,1/4-y,1/2+z
1/2+x,1/4-y,3/4-z
3/4-x,y,3/4-z
1/2-x,-y,1/2-z
1/4+x,3/4+y,1/2-z
1/2-x,3/4+y,1/4+z
1/4+x,-y,1/4+z
1/2+x,1/2+y,z
3/4-x,3/4-y,z
1/2+x,3/4-y,1/4-z
3/4-x,1/2+y,1/4-z
1/2-x,1/2-y,-z
1/4+x,1/4+y,-z
1/2-x,1/4+y,3/4+z
1/4+x,1/2-y,3/4+z
loop_
_atom_site_type_symbol
_atom_site_label
_atom_site_fract_x
_atom_site_fract_y
_atom_site_fract_z
Si Si1 0.837001 0.315142 0.148430
Si Si2 0.375000 0.375000 0.875000
Si Si3 0.503236 0.654641 0.737381
Si Si4 0.531900 0.789148 0.465220
Si Si5 0.102270 0.311274 0.200689
O O1 0.875000 0.375000 0.169793
O O2 0.804768 0.321461 0.064125
O O3 0.723803 0.296353 0.198636
O O4 0.961442 0.287301 0.187391
O O5 0.454512 0.415306 0.825895
O O6 0.625000 0.625000 0.706014
O O7 0.428618 0.700950 0.695254
O O8 0.398512 0.606623 0.744904
O O9 0.456687 0.735040 0.451851
O O10 0.125000 0.340844 0.125000
#
# Coordination Sequence:
#
# PCOD9516537 Si02
#       5
#    32   8  32  32  32
#     4  11  20  39  71  93 129 173 240 296 349 389
#     4  12  24  40  62  96 148 188 216 292 376 412
#     4  11  23  42  70  96 137 186 234 298 353 404
#     4  12  24  40  64  99 139 180 234 295 352 427
#     4  12  21  39  64 102 129 177 238 292 348 424
#
# _framework density 27.580645000000001
#
# number of rings (size 3 to 8) (size 9 to 14) (size 15 to 20)
#    0.000    0.471    9.412    1.412    0.000    0.941 
#    0.000    0.588    0.000    0.000    0.000    0.000 
#    0.000    0.000    0.000    0.000    0.000    0.000 
#
# Total GULP energy -189670.501844 kJ/mol
# GULP energy per Si atom -5578.544172 kJ/mol
# Density = 2.751787 g / cm^3
# Si number density = 27.580645 Si / 1000 Ang^3
#
#
#
# Elastic Constant Matrix: (Units=GPa)
#
#
# Indices 1 2 3 4 5 6 
#
# 1 198.9649 48.7395 21.2065 0.0000 0.0000 0.0000
# 2 48.7395 140.6112 17.6138 0.0000 0.0000 0.0000
# 3 21.2065 17.6138 82.5368 0.0000 0.0000 0.0000
# 4 0.0000 0.0000 0.0000 17.4501 0.0000 0.0000
# 5 0.0000 0.0000 0.0000 0.0000 34.2481 0.0000
# 6 0.0000 0.0000 0.0000 0.0000 0.0000 59.8696
#
#
#
# Elastic Compliance Matrix: (Units=1/GPa)
#
#
# Indices 1 2 3 4 5 6 
#
# 1 0.005579 -0.001803 -0.001049 0.000000 0.000000 0.000000
# 2 -0.001803 0.007890 -0.001221 0.000000 0.000000 0.000000
# 3 -0.001049 -0.001221 0.012646 0.000000 0.000000 0.000000
# 4 0.000000 0.000000 0.000000 0.057306 0.000000 0.000000
# 5 0.000000 0.000000 0.000000 0.000000 0.029199 0.000000
# 6 0.000000 0.000000 0.000000 0.000000 0.000000 0.016703
#
#
# Mechanical properties :
#
#
# Convention : Reuss Voigt Hill
#
# Bulk Modulus (GPa) = 55.64598 66.35918 61.00258
# Shear Modulus (GPa) = 34.85373 44.61711 39.73542
#
# Velocity S-wave (km/s) = 3.55872 4.02642 3.79977
# Velocity P-wave (km/s) = 6.09143 6.76228 6.43560
#
# Compressibility (1/GPa) = 0.01797075
#
# Stress axis : x y z
#
# Youngs Moduli (GPa) = 179.23176 126.75051 79.07790
#
# Poissons Ratio (x) = 0.22848 0.08294
# Poissons Ratio (y) = 0.32308 0.09652
# Poissons Ratio (z) = 0.18799 0.15470
#
# Static dielectric constant tensor:
#      x y z
#    x 2.479670 0.000000 0.000000 
#    y 0.000000 2.156550 0.000000 
#    z 0.000000 0.000000 2.178890 
# 
# From -- ./inp_files/18958.got.cif
#   From: 2010.05.17/outbox.cif.g08.bks.cpg/sg70_10_cif.got.tgz:18958.got - 2010.06.03 15:57:51.
