data_PCOD9516570
_publ_section_title
;
Structure prediction by ZEFSAII (Michael W. Deem and Ramdas Pophale) SiO2 
 PCOD9516570
Probable space group: F D D D
;
_chemical_formula_sum "Si O2"
_cell_formula_units_Z 216
_cell_length_a 12.457326
_cell_length_b 29.617149
_cell_length_c 28.110669
_cell_angle_alpha 90.000000
_cell_angle_beta 90.000000
_cell_angle_gamma 90.000000
_cell_volume 10371.444829
_symmetry_space_group_name_H-M "F D D D"
_symmetry_group_IT_number 70
_space_group.IT_coordinate_system_code '2'
_symmetry_cell_setting 'orthorhombic'
loop_
_space_group_symop_operation_xyz
x,y,z
1/4-x,1/4-y,z
x,1/4-y,1/4-z
1/4-x,y,1/4-z
-x,-y,-z
3/4+x,3/4+y,-z
-x,3/4+y,3/4+z
3/4+x,-y,3/4+z
x,1/2+y,1/2+z
1/4-x,3/4-y,1/2+z
x,3/4-y,3/4-z
1/4-x,1/2+y,3/4-z
-x,1/2-y,1/2-z
3/4+x,1/4+y,1/2-z
-x,1/4+y,1/4+z
3/4+x,1/2-y,1/4+z
1/2+x,y,1/2+z
3/4-x,1/4-y,1/2+z
1/2+x,1/4-y,3/4-z
3/4-x,y,3/4-z
1/2-x,-y,1/2-z
1/4+x,3/4+y,1/2-z
1/2-x,3/4+y,1/4+z
1/4+x,-y,1/4+z
1/2+x,1/2+y,z
3/4-x,3/4-y,z
1/2+x,3/4-y,1/4-z
3/4-x,1/2+y,1/4-z
1/2-x,1/2-y,-z
1/4+x,1/4+y,-z
1/2-x,1/4+y,3/4+z
1/4+x,1/2-y,3/4+z
loop_
_atom_site_type_symbol
_atom_site_label
_atom_site_fract_x
_atom_site_fract_y
_atom_site_fract_z
Si Si1 0.482593 0.849405 0.520373
Si Si2 0.509852 0.543590 0.536700
Si Si3 0.270826 0.050233 0.405374
Si Si4 0.625000 0.237625 0.125000
Si Si5 0.533621 0.569048 0.375748
Si Si6 0.033803 0.377246 0.029200
Si Si7 0.625000 0.125000 0.625000
Si Si8 0.265137 0.550472 0.567136
O O1 0.375000 0.875000 0.508143
O O2 0.487781 0.842514 0.576191
O O3 0.594810 0.873395 0.509602
O O4 0.483854 0.804712 0.488537
O O5 0.500000 0.500000 0.500000
O O6 0.602816 0.537916 0.575791
O O7 0.526402 0.589396 0.506759
O O8 0.395478 0.549164 0.564500
O O9 0.375000 0.064410 0.375000
O O10 0.160403 0.063363 0.380088
O O11 0.260781 0.076254 0.455676
O O12 0.273270 0.996812 0.412234
O O13 0.523503 0.270964 0.122802
O O14 0.485203 0.596156 0.420482
O O15 0.704516 0.091816 0.594280
#
# Coordination Sequence:
#
# PCOD9516570 Si02
#       8
#    32  32  32  16  32  32   8  32
#     4  11  21  38  64 101 131 181 235 292 358 437
#     4  11  22  43  74 105 145 193 242 298 373 442
#     4  12  24  40  66 103 136 186 236 305 366 435
#     4  12  20  38  73 103 138 194 233 283 356 444
#     4  12  21  38  67 101 142 182 228 295 371 435
#     4  11  22  39  65 100 145 183 229 299 374 432
#     4  12  24  52  74  90 144 212 246 280 366 450
#     4  11  24  44  72  96 138 194 240 292 365 439
#
# _framework density 20.826415000000001
#
# number of rings (size 3 to 8) (size 9 to 14) (size 15 to 20)
#    0.000    0.593    5.926    4.000    0.000    0.000 
#    0.000    5.926   16.296    0.000    3.852    0.000 
#    0.000    0.000    0.000    0.000    0.000    0.000 
#
# Total GULP energy -301265.085454 kJ/mol
# GULP energy per Si atom -5578.983064 kJ/mol
# Density = 2.077901 g / cm^3
# Si number density = 20.826415 Si / 1000 Ang^3
#
#
#
# Elastic Constant Matrix: (Units=GPa)
#
#
# Indices 1 2 3 4 5 6 
#
# 1 118.1166 17.4837 17.6961 0.0000 0.0000 0.0000
# 2 17.4837 98.7310 29.0328 0.0000 0.0000 0.0000
# 3 17.6961 29.0328 75.8535 0.0000 0.0000 0.0000
# 4 0.0000 0.0000 0.0000 36.0286 0.0000 0.0000
# 5 0.0000 0.0000 0.0000 0.0000 27.6924 0.0000
# 6 0.0000 0.0000 0.0000 0.0000 0.0000 23.8444
#
#
#
# Elastic Compliance Matrix: (Units=1/GPa)
#
#
# Indices 1 2 3 4 5 6 
#
# 1 0.008875 -0.001085 -0.001655 0.000000 0.000000 0.000000
# 2 -0.001085 0.011546 -0.004166 0.000000 0.000000 0.000000
# 3 -0.001655 -0.004166 0.015164 0.000000 0.000000 0.000000
# 4 0.000000 0.000000 0.000000 0.027756 0.000000 0.000000
# 5 0.000000 0.000000 0.000000 0.000000 0.036111 0.000000
# 6 0.000000 0.000000 0.000000 0.000000 0.000000 0.041939
#
#
# Mechanical properties :
#
#
# Convention : Reuss Voigt Hill
#
# Bulk Modulus (GPa) = 45.92985 46.79182 46.36084
# Shear Modulus (GPa) = 30.77694 32.74564 31.76129
#
# Velocity S-wave (km/s) = 3.84837 3.96954 3.90942
# Velocity P-wave (km/s) = 6.46901 6.59742 6.53353
#
# Compressibility (1/GPa) = 0.02177233
#
# Stress axis : x y z
#
# Youngs Moduli (GPa) = 112.67894 86.61243 65.94580
#
# Poissons Ratio (x) = 0.09396 0.10915
# Poissons Ratio (y) = 0.12224 0.27473
# Poissons Ratio (z) = 0.18651 0.36083
#
# Static dielectric constant tensor:
#      x y z
#    x 1.829410 0.000000 0.000000 
#    y 0.000000 1.785210 0.000000 
#    z 0.000000 0.000000 1.830240 
# 
# From -- ./inp_files/65162.got.cif
#   From: 2010.05.17/outbox.cif.g08.bks.cpg/sg70_33_cif.got.tgz:65162.got - 2010.06.03 15:57:51.
