data_PCOD9516117
_publ_section_title
;
Structure prediction by ZEFSAII (Michael W. Deem and Ramdas Pophale) SiO2 
 PCOD9516117
Probable space group: F D D D
;
_chemical_formula_sum "Si O2"
_cell_formula_units_Z 176
_cell_length_a 30.420892
_cell_length_b 20.757882
_cell_length_c 11.388375
_cell_angle_alpha 90.000000
_cell_angle_beta 90.000000
_cell_angle_gamma 90.000000
_cell_volume 7191.454589
_symmetry_space_group_name_H-M "F D D D"
_symmetry_group_IT_number 70
_space_group.IT_coordinate_system_code '2'
_symmetry_cell_setting 'orthorhombic'
loop_
_space_group_symop_operation_xyz
x,y,z
1/4-x,1/4-y,z
x,1/4-y,1/4-z
1/4-x,y,1/4-z
-x,-y,-z
3/4+x,3/4+y,-z
-x,3/4+y,3/4+z
3/4+x,-y,3/4+z
x,1/2+y,1/2+z
1/4-x,3/4-y,1/2+z
x,3/4-y,3/4-z
1/4-x,1/2+y,3/4-z
-x,1/2-y,1/2-z
3/4+x,1/4+y,1/2-z
-x,1/4+y,1/4+z
3/4+x,1/2-y,1/4+z
1/2+x,y,1/2+z
3/4-x,1/4-y,1/2+z
1/2+x,1/4-y,3/4-z
3/4-x,y,3/4-z
1/2-x,-y,1/2-z
1/4+x,3/4+y,1/2-z
1/2-x,3/4+y,1/4+z
1/4+x,-y,1/4+z
1/2+x,1/2+y,z
3/4-x,3/4-y,z
1/2+x,3/4-y,1/4-z
3/4-x,1/2+y,1/4-z
1/2-x,1/2-y,-z
1/4+x,1/4+y,-z
1/2-x,1/4+y,3/4+z
1/4+x,1/2-y,3/4+z
loop_
_atom_site_type_symbol
_atom_site_label
_atom_site_fract_x
_atom_site_fract_y
_atom_site_fract_z
Si Si1 0.375000 0.090251 0.875000
Si Si2 0.110565 0.504125 0.498355
Si Si3 0.023789 0.049521 0.906911
Si Si4 0.699284 0.873788 0.009338
Si Si5 0.318829 0.039285 0.693699
Si Si6 0.718926 0.197564 0.136047
O O1 0.415076 0.070090 0.787557
O O2 0.340463 0.099938 0.763515
O O3 0.125000 0.528419 0.625000
O O4 0.073975 0.551759 0.446919
O O5 0.084613 0.436483 0.528386
O O6 0.149668 0.487989 0.408544
O O7 0.025774 0.030127 0.771462
O O8 0.993339 0.112922 0.917634
O O9 0.000000 0.000000 0.000000
O O10 0.712451 0.875000 0.875000
O O11 0.269675 0.052569 0.654273
O O12 0.311490 0.986218 0.795343
O O13 0.702364 0.125000 0.125000
#
# Coordination Sequence:
#
# PCOD9516117 Si02
#       6
#    16  32  32  32  32  32
#     4  12  22  38  67 104 130 162 237 288 350 424
#     4  11  22  42  66  94 134 179 225 284 352 422
#     4  10  23  42  63  97 136 176 221 281 353 407
#     4  11  22  36  65 100 133 169 216 291 348 412
#     4  11  24  40  69 100 131 177 231 282 346 414
#     4  11  25  45  67  97 139 182 228 286 349 425
#
# _framework density 24.473490999999999
#
# number of rings (size 3 to 8) (size 9 to 14) (size 15 to 20)
#    0.000    1.091    2.727    4.364    5.091    0.000 
#    3.273    4.091    0.000    0.000    0.000    0.000 
#    0.000    0.000    0.000    0.000    0.000    0.000 
#
# Total GULP energy -244981.913841 kJ/mol
# GULP energy per Si atom -5567.770769 kJ/mol
# Density = 2.441779 g / cm^3
# Si number density = 24.473491 Si / 1000 Ang^3
#
#
#
# Elastic Constant Matrix: (Units=GPa)
#
#
# Indices 1 2 3 4 5 6 
#
# 1 127.2046 34.5860 58.9594 0.0000 0.0000 0.0000
# 2 34.5860 48.0281 22.3949 0.0000 0.0000 0.0000
# 3 58.9594 22.3949 173.9008 0.0000 0.0000 0.0000
# 4 0.0000 0.0000 0.0000 18.4825 0.0000 0.0000
# 5 0.0000 0.0000 0.0000 0.0000 54.8866 0.0000
# 6 0.0000 0.0000 0.0000 0.0000 0.0000 25.5024
#
#
#
# Elastic Compliance Matrix: (Units=1/GPa)
#
#
# Indices 1 2 3 4 5 6 
#
# 1 0.010980 -0.006565 -0.002877 0.000000 0.000000 0.000000
# 2 -0.006565 0.026077 -0.001132 0.000000 0.000000 0.000000
# 3 -0.002877 -0.001132 0.006872 0.000000 0.000000 0.000000
# 4 0.000000 0.000000 0.000000 0.054105 0.000000 0.000000
# 5 0.000000 0.000000 0.000000 0.000000 0.018219 0.000000
# 6 0.000000 0.000000 0.000000 0.000000 0.000000 0.039212
#
#
# Mechanical properties :
#
#
# Convention : Reuss Voigt Hill
#
# Bulk Modulus (GPa) = 43.89992 64.55712 54.22852
# Shear Modulus (GPa) = 27.14323 35.32049 31.23186
#
# Velocity S-wave (km/s) = 3.33391 3.80309 3.57620
# Velocity P-wave (km/s) = 5.72683 6.76168 6.26566
#
# Compressibility (1/GPa) = 0.02277909
#
# Stress axis : x y z
#
# Youngs Moduli (GPa) = 91.07480 38.34805 145.52436
#
# Poissons Ratio (x) = 0.25177 0.41870
# Poissons Ratio (y) = 0.59793 0.16477
# Poissons Ratio (z) = 0.26204 0.04342
#
# Static dielectric constant tensor:
#      x y z
#    x 1.969240 0.000000 0.000000 
#    y 0.000000 2.419210 0.000000 
#    z 0.000000 0.000000 1.973640 
# 
# From -- ./inp_files/22313.got.cif
#   From: 2010.05.17/outbox.cif.g08.bks.cpg/sg70_12_cif.got.tgz:22313.got - 2010.06.03 15:57:51.
