data_PCOD9516110
_publ_section_title
;
Structure prediction by ZEFSAII (Michael W. Deem and Ramdas Pophale) SiO2 
 PCOD9516110
Probable space group: F D D D
;
_chemical_formula_sum "Si O2"
_cell_formula_units_Z 168
_cell_length_a 19.047137
_cell_length_b 14.861743
_cell_length_c 25.069746
_cell_angle_alpha 90.000000
_cell_angle_beta 90.000000
_cell_angle_gamma 90.000000
_cell_volume 7096.584630
_symmetry_space_group_name_H-M "F D D D"
_symmetry_group_IT_number 70
_space_group.IT_coordinate_system_code '2'
_symmetry_cell_setting 'orthorhombic'
loop_
_space_group_symop_operation_xyz
x,y,z
1/4-x,1/4-y,z
x,1/4-y,1/4-z
1/4-x,y,1/4-z
-x,-y,-z
3/4+x,3/4+y,-z
-x,3/4+y,3/4+z
3/4+x,-y,3/4+z
x,1/2+y,1/2+z
1/4-x,3/4-y,1/2+z
x,3/4-y,3/4-z
1/4-x,1/2+y,3/4-z
-x,1/2-y,1/2-z
3/4+x,1/4+y,1/2-z
-x,1/4+y,1/4+z
3/4+x,1/2-y,1/4+z
1/2+x,y,1/2+z
3/4-x,1/4-y,1/2+z
1/2+x,1/4-y,3/4-z
3/4-x,y,3/4-z
1/2-x,-y,1/2-z
1/4+x,3/4+y,1/2-z
1/2-x,3/4+y,1/4+z
1/4+x,-y,1/4+z
1/2+x,1/2+y,z
3/4-x,3/4-y,z
1/2+x,3/4-y,1/4-z
3/4-x,1/2+y,1/4-z
1/2-x,1/2-y,-z
1/4+x,1/4+y,-z
1/2-x,1/4+y,3/4+z
1/4+x,1/2-y,3/4+z
loop_
_atom_site_type_symbol
_atom_site_label
_atom_site_fract_x
_atom_site_fract_y
_atom_site_fract_z
Si Si1 0.566847 0.548805 0.256813
Si Si2 0.875000 0.375000 0.875000
Si Si3 0.125000 0.868395 0.625000
Si Si4 0.606756 0.476952 0.367470
Si Si5 0.375000 0.375000 0.555704
Si Si6 0.582229 0.991828 0.209974
Si Si7 0.727830 0.523958 0.109556
O O1 0.625000 0.625000 0.248261
O O2 0.599091 0.492184 0.304774
O O3 0.487470 0.565493 0.278017
O O4 0.549497 0.506875 0.200011
O O5 0.925118 0.432136 0.835832
O O6 0.137524 0.929492 0.677810
O O7 0.061774 0.802987 0.641025
O O8 0.581597 0.375000 0.375000
O O9 0.578837 0.561910 0.403089
O O10 0.689239 0.480629 0.382579
O O11 0.399122 0.297397 0.513300
O O12 0.707139 0.625000 0.125000
#
# Coordination Sequence:
#
# PCOD9516110 Si02
#       7
#    32   8  16  32  16  32  32
#     4  12  24  42  72 106 141 197 247 311 376 446
#     4   8  20  44  62 100 146 192 244 310 386 462
#     4  11  23  41  67 102 134 196 239 300 386 451
#     4  11  26  46  72 106 147 194 253 312 378 454
#     4  11  22  51  70 104 153 190 249 314 376 456
#     4  10  23  41  70 102 146 189 243 313 383 452
#     4  11  25  47  67 102 147 191 252 314 368 452
#
# _framework density 23.673359999999999
#
# number of rings (size 3 to 8) (size 9 to 14) (size 15 to 20)
#    0.000    1.143    2.857    2.571    4.000    0.000 
#    0.000    6.667    0.000    0.000    0.000    0.000 
#    0.000    0.000    0.000    0.000    0.000    0.000 
#
# Total GULP energy -233834.658916 kJ/mol
# GULP energy per Si atom -5567.491879 kJ/mol
# Density = 2.361948 g / cm^3
# Si number density = 23.673360 Si / 1000 Ang^3
#
#
#
# Elastic Constant Matrix: (Units=GPa)
#
#
# Indices 1 2 3 4 5 6 
#
# 1 77.2325 16.7738 13.6040 0.0000 0.0000 0.0000
# 2 16.7738 113.2175 41.9923 0.0000 0.0000 0.0000
# 3 13.6040 41.9923 152.5683 0.0000 0.0000 0.0000
# 4 0.0000 0.0000 0.0000 22.0647 0.0000 0.0000
# 5 0.0000 0.0000 0.0000 0.0000 36.8322 0.0000
# 6 0.0000 0.0000 0.0000 0.0000 0.0000 17.7751
#
#
#
# Elastic Compliance Matrix: (Units=1/GPa)
#
#
# Indices 1 2 3 4 5 6 
#
# 1 0.013450 -0.001724 -0.000725 0.000000 0.000000 0.000000
# 2 -0.001724 0.010058 -0.002615 0.000000 0.000000 0.000000
# 3 -0.000725 -0.002615 0.007339 0.000000 0.000000 0.000000
# 4 0.000000 0.000000 0.000000 0.045321 0.000000 0.000000
# 5 0.000000 0.000000 0.000000 0.000000 0.027150 0.000000
# 6 0.000000 0.000000 0.000000 0.000000 0.000000 0.056258
#
#
# Mechanical properties :
#
#
# Convention : Reuss Voigt Hill
#
# Bulk Modulus (GPa) = 48.26265 54.19537 51.22901
# Shear Modulus (GPa) = 28.31110 33.37763 30.84437
#
# Velocity S-wave (km/s) = 3.46194 3.75897 3.61351
# Velocity P-wave (km/s) = 6.03417 6.46394 6.25275
#
# Compressibility (1/GPa) = 0.02071995
#
# Stress axis : x y z
#
# Youngs Moduli (GPa) = 74.34950 99.42649 136.26422
#
# Poissons Ratio (x) = 0.17140 0.09877
# Poissons Ratio (y) = 0.12817 0.35627
# Poissons Ratio (z) = 0.05389 0.25995
#
# Static dielectric constant tensor:
#      x y z
#    x 1.955310 0.000000 0.000000 
#    y 0.000000 1.887960 0.000000 
#    z 0.000000 0.000000 1.948910 
# 
# From -- ./inp_files/60314.got.cif
#   From: 2010.05.17/outbox.cif.g08.bks.cpg/sg70_31_cif.got.tgz:60314.got - 2010.06.03 15:57:51.
