data_PCOD9516718
_publ_section_title
;
Structure prediction by ZEFSAII (Michael W. Deem and Ramdas Pophale) SiO2 
 PCOD9516718
Probable space group: F D D D
;
_chemical_formula_sum "Si O2"
_cell_formula_units_Z 136
_cell_length_a 21.170038
_cell_length_b 11.598700
_cell_length_c 27.337235
_cell_angle_alpha 90.000000
_cell_angle_beta 90.000000
_cell_angle_gamma 90.000000
_cell_volume 6712.519174
_symmetry_space_group_name_H-M "F D D D"
_symmetry_group_IT_number 70
_space_group.IT_coordinate_system_code '2'
_symmetry_cell_setting 'orthorhombic'
loop_
_space_group_symop_operation_xyz
x,y,z
1/4-x,1/4-y,z
x,1/4-y,1/4-z
1/4-x,y,1/4-z
-x,-y,-z
3/4+x,3/4+y,-z
-x,3/4+y,3/4+z
3/4+x,-y,3/4+z
x,1/2+y,1/2+z
1/4-x,3/4-y,1/2+z
x,3/4-y,3/4-z
1/4-x,1/2+y,3/4-z
-x,1/2-y,1/2-z
3/4+x,1/4+y,1/2-z
-x,1/4+y,1/4+z
3/4+x,1/2-y,1/4+z
1/2+x,y,1/2+z
3/4-x,1/4-y,1/2+z
1/2+x,1/4-y,3/4-z
3/4-x,y,3/4-z
1/2-x,-y,1/2-z
1/4+x,3/4+y,1/2-z
1/2-x,3/4+y,1/4+z
1/4+x,-y,1/4+z
1/2+x,1/2+y,z
3/4-x,3/4-y,z
1/2+x,3/4-y,1/4-z
3/4-x,1/2+y,1/4-z
1/2-x,1/2-y,-z
1/4+x,1/4+y,-z
1/2-x,1/4+y,3/4+z
1/4+x,1/2-y,3/4+z
loop_
_atom_site_type_symbol
_atom_site_label
_atom_site_fract_x
_atom_site_fract_y
_atom_site_fract_z
Si Si1 0.054630 0.585684 0.938465
Si Si2 0.520477 0.309958 0.088771
Si Si3 0.540692 0.912573 0.762699
Si Si4 0.612141 0.989420 0.567774
Si Si5 0.625000 0.625000 0.625000
O O1 0.125000 0.625000 0.926479
O O2 0.052531 0.457455 0.960256
O O3 0.009141 0.587001 0.891531
O O4 0.024465 0.661191 0.981910
O O5 0.466790 0.256232 0.054641
O O6 0.545081 0.426692 0.063273
O O7 0.576964 0.212871 0.096015
O O8 0.593310 0.931239 0.721981
O O9 0.625000 0.962772 0.625000
O O10 0.625000 0.125000 0.562201
#
# Coordination Sequence:
#
# PCOD9516718 Si02
#       5
#    32  32  32  32   8
#     4  11  23  40  64 102 141 168 224 297 355 411
#     4  12  23  42  70 101 135 182 232 292 351 416
#     4  11  23  41  67 102 129 181 236 280 350 415
#     4  11  24  44  66  93 137 186 228 275 343 429
#     4  12  20  40  70 104 136 176 228 296 348 416
#
# _framework density 20.260649000000001
#
# number of rings (size 3 to 8) (size 9 to 14) (size 15 to 20)
#    0.000    0.706    5.882    1.412    4.941    1.882 
#    0.000    4.706    0.000    0.000    0.000    0.000 
#    0.000    0.000    0.000    0.000    0.000    0.000 
#
# Total GULP energy -189701.813818 kJ/mol
# GULP energy per Si atom -5579.465112 kJ/mol
# Density = 2.021453 g / cm^3
# Si number density = 20.260649 Si / 1000 Ang^3
#
#
#
# Elastic Constant Matrix: (Units=GPa)
#
#
# Indices 1 2 3 4 5 6 
#
# 1 86.2903 21.1598 35.8043 0.0000 0.0000 0.0000
# 2 21.1598 66.2319 24.3453 0.0000 0.0000 0.0000
# 3 35.8043 24.3453 78.9124 0.0000 0.0000 0.0000
# 4 0.0000 0.0000 0.0000 437.6591 0.0000 0.0000
# 5 0.0000 0.0000 0.0000 0.0000 45.2823 0.0000
# 6 0.0000 0.0000 0.0000 0.0000 0.0000 18.3738
#
#
#
# Elastic Compliance Matrix: (Units=1/GPa)
#
#
# Indices 1 2 3 4 5 6 
#
# 1 0.014641 -0.002522 -0.005865 0.000000 0.000000 0.000000
# 2 -0.002522 0.017464 -0.004244 0.000000 0.000000 0.000000
# 3 -0.005865 -0.004244 0.016643 0.000000 0.000000 0.000000
# 4 0.000000 0.000000 0.000000 0.002285 0.000000 0.000000
# 5 0.000000 0.000000 0.000000 0.000000 0.022084 0.000000
# 6 0.000000 0.000000 0.000000 0.000000 0.000000 0.054425
#
#
# Mechanical properties :
#
#
# Convention : Reuss Voigt Hill
#
# Bulk Modulus (GPa) = 42.57714 43.78373 43.18043
# Shear Modulus (GPa) = 31.12738 110.27139 70.69939
#
# Velocity S-wave (km/s) = 3.92388 7.38543 5.91360
# Velocity P-wave (km/s) = 6.44899 9.71510 8.24538
#
# Compressibility (1/GPa) = 0.02348678
#
# Stress axis : x y z
#
# Youngs Moduli (GPa) = 68.30310 57.26080 60.08705
#
# Poissons Ratio (x) = 0.14439 0.35240
# Poissons Ratio (y) = 0.17223 0.25499
# Poissons Ratio (z) = 0.40059 0.24300
#
# Static dielectric constant tensor:
#      x y z
#    x 1.727490 0.000000 0.000000 
#    y 0.000000 1.729910 0.000000 
#    z 0.000000 0.000000 1.674730 
# 
# From -- ./inp_files/17661.got.cif
#   From: 2010.05.17/outbox.cif.g08.bks.cpg/sg70_9_cif.got.tgz:17661.got - 2010.06.03 15:57:51.
