data_PCOD9516329
_publ_section_title
;
Structure prediction by ZEFSAII (Michael W. Deem and Ramdas Pophale) SiO2 
 PCOD9516329
Probable space group: F D D D
;
_chemical_formula_sum "Si O2"
_cell_formula_units_Z 112
_cell_length_a 5.213188
_cell_length_b 26.981713
_cell_length_c 30.236248
_cell_angle_alpha 90.000000
_cell_angle_beta 90.000000
_cell_angle_gamma 90.000000
_cell_volume 4253.053092
_symmetry_space_group_name_H-M "F D D D"
_symmetry_group_IT_number 70
_space_group.IT_coordinate_system_code '2'
_symmetry_cell_setting 'orthorhombic'
loop_
_space_group_symop_operation_xyz
x,y,z
1/4-x,1/4-y,z
x,1/4-y,1/4-z
1/4-x,y,1/4-z
-x,-y,-z
3/4+x,3/4+y,-z
-x,3/4+y,3/4+z
3/4+x,-y,3/4+z
x,1/2+y,1/2+z
1/4-x,3/4-y,1/2+z
x,3/4-y,3/4-z
1/4-x,1/2+y,3/4-z
-x,1/2-y,1/2-z
3/4+x,1/4+y,1/2-z
-x,1/4+y,1/4+z
3/4+x,1/2-y,1/4+z
1/2+x,y,1/2+z
3/4-x,1/4-y,1/2+z
1/2+x,1/4-y,3/4-z
3/4-x,y,3/4-z
1/2-x,-y,1/2-z
1/4+x,3/4+y,1/2-z
1/2-x,3/4+y,1/4+z
1/4+x,-y,1/4+z
1/2+x,1/2+y,z
3/4-x,3/4-y,z
1/2+x,3/4-y,1/4-z
3/4-x,1/2+y,1/4-z
1/2-x,1/2-y,-z
1/4+x,1/4+y,-z
1/2-x,1/4+y,3/4+z
1/4+x,1/2-y,3/4+z
loop_
_atom_site_type_symbol
_atom_site_label
_atom_site_fract_x
_atom_site_fract_y
_atom_site_fract_z
Si Si1 0.627706 0.684309 0.768874
Si Si2 0.878826 0.316261 0.576447
Si Si3 0.263599 0.931050 0.922250
Si Si4 0.125000 0.735776 0.625000
O O1 0.625000 0.625000 0.764803
O O2 0.377689 0.693681 0.797503
O O3 0.642022 0.703400 0.718589
O O4 0.886252 0.696035 0.795108
O O5 0.875000 0.375000 0.589054
O O6 0.842263 0.278630 0.616761
O O7 0.375000 0.946986 0.875000
O O8 0.375000 0.875000 0.924229
O O9 0.963064 0.946564 0.914015
#
# Coordination Sequence:
#
# PCOD9516329 Si02
#       4
#    32  32  32  16
#     4   9  21  45  73 103 147 200 254 313 384 447
#     4  10  24  45  73 109 154 200 252 318 383 462
#     4  10  25  47  71 105 151 201 260 318 378 450
#     4  12  28  43  76 116 152 202 259 310 398 464
#
# _framework density 26.334025
#
# number of rings (size 3 to 8) (size 9 to 14) (size 15 to 20)
#    0.000    2.000    0.000    0.000    8.000    8.000 
#    5.143    0.000    0.000    0.000    0.000    0.000 
#    0.000    0.000    0.000    0.000    0.000    0.000 
#
# Total GULP energy -155893.903361 kJ/mol
# GULP energy per Si atom -5567.639406 kJ/mol
# Density = 2.627409 g / cm^3
# Si number density = 26.334025 Si / 1000 Ang^3
#
#
#
# Elastic Constant Matrix: (Units=GPa)
#
#
# Indices 1 2 3 4 5 6 
#
# 1 204.5633 47.9867 110.8209 0.0000 0.0000 0.0000
# 2 47.9867 232.6638 33.6791 0.0000 0.0000 0.0000
# 3 110.8209 33.6791 188.6203 0.0000 0.0000 0.0000
# 4 0.0000 0.0000 0.0000 -55.4763 0.0000 0.0000
# 5 0.0000 0.0000 0.0000 0.0000 -565.1124 0.0000
# 6 0.0000 0.0000 0.0000 0.0000 0.0000 58.4826
#
#
#
# Elastic Compliance Matrix: (Units=1/GPa)
#
#
# Indices 1 2 3 4 5 6 
#
# 1 0.007356 -0.000915 -0.004158 0.000000 0.000000 0.000000
# 2 -0.000915 0.004526 -0.000270 0.000000 0.000000 0.000000
# 3 -0.004158 -0.000270 0.007793 0.000000 0.000000 0.000000
# 4 0.000000 0.000000 0.000000 -0.018026 0.000000 0.000000
# 5 0.000000 0.000000 0.000000 0.000000 -0.001770 0.000000
# 6 0.000000 0.000000 0.000000 0.000000 0.000000 0.017099
#
#
# Mechanical properties :
#
#
# Convention : Reuss Voigt Hill
#
# Bulk Modulus (GPa) = 111.27280 112.31343 111.79311
# Shear Modulus (GPa) = 163.06407 -83.53051 39.76678
#
# Velocity S-wave (km/s) = 7.87755 -5.63813 3.89021
# Velocity P-wave (km/s) = 11.18424 0.59792 7.91975
#
# Compressibility (1/GPa) = 0.00898692
#
# Stress axis : x y z
#
# Youngs Moduli (GPa) = 135.94377 220.94801 128.31718
#
# Poissons Ratio (x) = 0.20221 0.53360
# Poissons Ratio (y) = 0.12442 0.03470
# Poissons Ratio (z) = 0.56532 0.05975
#
# Static dielectric constant tensor:
#      x y z
#    x 0.356080 0.000000 0.000000 
#    y 0.000000 2.121450 0.000000 
#    z 0.000000 0.000000 2.065090 
# 
# From -- ./inp_files/62919.got.cif
#   From: 2010.05.17/outbox.cif.g08.bks.cpg/sg70_32_cif.got.tgz:62919.got - 2010.06.03 15:57:51.
