data_PCOD9516206
_publ_section_title
;
Structure prediction by ZEFSAII (Michael W. Deem and Ramdas Pophale) SiO2 
 PCOD9516206
Probable space group: F D D D
;
_chemical_formula_sum "Si O2"
_cell_formula_units_Z 160
_cell_length_a 25.491109
_cell_length_b 17.020503
_cell_length_c 13.288191
_cell_angle_alpha 90.000000
_cell_angle_beta 90.000000
_cell_angle_gamma 90.000000
_cell_volume 5765.367324
_symmetry_space_group_name_H-M "F D D D"
_symmetry_group_IT_number 70
_space_group.IT_coordinate_system_code '2'
_symmetry_cell_setting 'orthorhombic'
loop_
_space_group_symop_operation_xyz
x,y,z
1/4-x,1/4-y,z
x,1/4-y,1/4-z
1/4-x,y,1/4-z
-x,-y,-z
3/4+x,3/4+y,-z
-x,3/4+y,3/4+z
3/4+x,-y,3/4+z
x,1/2+y,1/2+z
1/4-x,3/4-y,1/2+z
x,3/4-y,3/4-z
1/4-x,1/2+y,3/4-z
-x,1/2-y,1/2-z
3/4+x,1/4+y,1/2-z
-x,1/4+y,1/4+z
3/4+x,1/2-y,1/4+z
1/2+x,y,1/2+z
3/4-x,1/4-y,1/2+z
1/2+x,1/4-y,3/4-z
3/4-x,y,3/4-z
1/2-x,-y,1/2-z
1/4+x,3/4+y,1/2-z
1/2-x,3/4+y,1/4+z
1/4+x,-y,1/4+z
1/2+x,1/2+y,z
3/4-x,3/4-y,z
1/2+x,3/4-y,1/4-z
3/4-x,1/2+y,1/4-z
1/2-x,1/2-y,-z
1/4+x,1/4+y,-z
1/2-x,1/4+y,3/4+z
1/4+x,1/2-y,3/4+z
loop_
_atom_site_type_symbol
_atom_site_label
_atom_site_fract_x
_atom_site_fract_y
_atom_site_fract_z
Si Si1 0.368620 0.513085 0.040576
Si Si2 0.198555 0.625851 0.797272
Si Si3 0.681142 0.839360 0.706543
Si Si4 0.951833 0.339257 0.981137
Si Si5 0.047940 0.437999 0.981203
O O1 0.339465 0.538405 0.145506
O O2 0.418006 0.454062 0.028125
O O3 0.324961 0.453273 0.993980
O O4 0.392591 0.593353 0.997032
O O5 0.260253 0.624325 0.781650
O O6 0.313152 0.749148 0.749855
O O7 0.574355 0.817206 0.660598
O O8 0.931762 0.375000 0.875000
O O9 0.936139 0.383854 0.082408
O O10 0.014568 0.356228 0.972284
O O11 0.000000 0.500000 0.000000
#
# Coordination Sequence:
#
# PCOD9516206 Si02
#       5
#    32  32  32  32  32
#     4  11  22  45  79 123 170 231 302 361 455 563
#     4  10  23  45  74 120 177 219 292 380 443 544
#     4  11  23  44  81 127 167 231 291 377 465 530
#     4  11  20  42  79 114 166 221 284 383 459 501
#     4  11  21  47  79 119 170 229 296 378 453 530
#
# _framework density 27.751916999999999
#
# number of rings (size 3 to 8) (size 9 to 14) (size 15 to 20)
#    0.000    1.200    6.000    0.600    0.000    0.800 
#   14.400    7.000   13.200    1.200   41.600    0.000 
#    0.000    0.000    0.000    0.000    0.000    0.000 
#
# Total GULP energy -223336.197719 kJ/mol
# GULP energy per Si atom -5583.404943 kJ/mol
# Density = 2.768875 g / cm^3
# Si number density = 27.751917 Si / 1000 Ang^3
#
#
#
# Elastic Constant Matrix: (Units=GPa)
#
#
# Indices 1 2 3 4 5 6 
#
# 1 162.5957 100.8087 66.0335 0.0000 0.0000 0.0000
# 2 100.8087 269.1491 54.3367 0.0000 0.0000 0.0000
# 3 66.0335 54.3367 69.7515 0.0000 0.0000 0.0000
# 4 0.0000 0.0000 0.0000 23.4112 0.0000 0.0000
# 5 0.0000 0.0000 0.0000 0.0000 33.8425 0.0000
# 6 0.0000 0.0000 0.0000 0.0000 0.0000 77.3617
#
#
#
# Elastic Compliance Matrix: (Units=1/GPa)
#
#
# Indices 1 2 3 4 5 6 
#
# 1 0.011194 -0.002436 -0.008699 0.000000 0.000000 0.000000
# 2 -0.002436 0.004939 -0.001541 0.000000 0.000000 0.000000
# 3 -0.008699 -0.001541 0.023772 0.000000 0.000000 0.000000
# 4 0.000000 0.000000 0.000000 0.042715 0.000000 0.000000
# 5 0.000000 0.000000 0.000000 0.000000 0.029549 0.000000
# 6 0.000000 0.000000 0.000000 0.000000 0.000000 0.012926
#
#
# Mechanical properties :
#
#
# Convention : Reuss Voigt Hill
#
# Bulk Modulus (GPa) = 68.71798 104.87269 86.79533
# Shear Modulus (GPa) = 32.19612 45.61090 38.90351
#
# Velocity S-wave (km/s) = 3.40978 4.05844 3.74817
# Velocity P-wave (km/s) = 6.34960 7.73515 7.07637
#
# Compressibility (1/GPa) = 0.01455223
#
# Stress axis : x y z
#
# Youngs Moduli (GPa) = 89.33686 202.46828 42.06551
#
# Poissons Ratio (x) = 0.49328 0.36593
# Poissons Ratio (y) = 0.21765 0.06483
# Poissons Ratio (z) = 0.77714 0.31202
#
# Static dielectric constant tensor:
#      x y z
#    x 2.257590 0.000000 0.000000 
#    y 0.000000 2.228450 0.000000 
#    z 0.000000 0.000000 2.393490 
# 
# From -- ./inp_files/67257.got.cif
#   From: 2010.05.17/outbox.cif.g08.bks.cpg/sg70_34_cif.got.tgz:67257.got - 2010.06.03 15:57:51.
