data_PCOD9516763
_publ_section_title
;
Structure prediction by ZEFSAII (Michael W. Deem and Ramdas Pophale) SiO2 
 PCOD9516763
Probable space group: F D D D
;
_chemical_formula_sum "Si O2"
_cell_formula_units_Z 176
_cell_length_a 10.872805
_cell_length_b 28.343214
_cell_length_c 26.132229
_cell_angle_alpha 90.000000
_cell_angle_beta 90.000000
_cell_angle_gamma 90.000000
_cell_volume 8053.175254
_symmetry_space_group_name_H-M "F D D D"
_symmetry_group_IT_number 70
_space_group.IT_coordinate_system_code '2'
_symmetry_cell_setting 'orthorhombic'
loop_
_space_group_symop_operation_xyz
x,y,z
1/4-x,1/4-y,z
x,1/4-y,1/4-z
1/4-x,y,1/4-z
-x,-y,-z
3/4+x,3/4+y,-z
-x,3/4+y,3/4+z
3/4+x,-y,3/4+z
x,1/2+y,1/2+z
1/4-x,3/4-y,1/2+z
x,3/4-y,3/4-z
1/4-x,1/2+y,3/4-z
-x,1/2-y,1/2-z
3/4+x,1/4+y,1/2-z
-x,1/4+y,1/4+z
3/4+x,1/2-y,1/4+z
1/2+x,y,1/2+z
3/4-x,1/4-y,1/2+z
1/2+x,1/4-y,3/4-z
3/4-x,y,3/4-z
1/2-x,-y,1/2-z
1/4+x,3/4+y,1/2-z
1/2-x,3/4+y,1/4+z
1/4+x,-y,1/4+z
1/2+x,1/2+y,z
3/4-x,3/4-y,z
1/2+x,3/4-y,1/4-z
3/4-x,1/2+y,1/4-z
1/2-x,1/2-y,-z
1/4+x,1/4+y,-z
1/2-x,1/4+y,3/4+z
1/4+x,1/2-y,3/4+z
loop_
_atom_site_type_symbol
_atom_site_label
_atom_site_fract_x
_atom_site_fract_y
_atom_site_fract_z
Si Si1 0.192905 0.869209 0.078633
Si Si2 0.233695 0.388666 0.990521
Si Si3 0.247661 0.471378 0.404168
Si Si4 0.111183 0.875000 0.875000
Si Si5 0.144118 0.201655 0.848785
Si Si6 0.100953 0.995313 0.753407
O O1 0.125000 0.843177 0.125000
O O2 0.254033 0.912925 0.109049
O O3 0.297184 0.830628 0.066436
O O4 0.112499 0.885480 0.030400
O O5 0.375000 0.375000 0.001850
O O6 0.208877 0.380111 0.929848
O O7 0.198606 0.442635 0.003965
O O8 0.375000 0.479595 0.375000
O O9 0.189576 0.422982 0.383222
O O10 0.162927 0.517158 0.393596
O O11 0.286700 0.470383 0.462956
O O12 0.190769 0.240247 0.809486
O O13 0.250000 0.000000 0.750000
#
# Coordination Sequence:
#
# PCOD9516763 Si02
#       6
#    32  32  32  16  32  32
#     4  11  25  43  71 106 138 182 235 301 365 427
#     4  12  26  47  73 103 149 191 240 302 370 435
#     4  12  23  41  72 102 138 187 235 299 359 425
#     4  12  26  48  68 104 146 195 245 290 362 446
#     4  11  23  44  69 101 142 176 237 299 357 429
#     4  12  22  43  70 103 140 182 241 300 360 428
#
# _framework density 21.854733
#
# number of rings (size 3 to 8) (size 9 to 14) (size 15 to 20)
#    0.000    0.364    5.455    3.273    5.091    0.000 
#    3.273    1.818    0.000    0.000    0.000    0.000 
#    0.000    0.000    0.000    0.000    0.000    0.000 
#
# Total GULP energy -245309.179074 kJ/mol
# GULP energy per Si atom -5575.208615 kJ/mol
# Density = 2.180499 g / cm^3
# Si number density = 21.854733 Si / 1000 Ang^3
#
#
#
# Elastic Constant Matrix: (Units=GPa)
#
#
# Indices 1 2 3 4 5 6 
#
# 1 100.9170 47.8647 27.2155 0.0000 0.0000 0.0000
# 2 47.8647 114.4886 -6.2098 0.0000 0.0000 0.0000
# 3 27.2155 -6.2098 99.1267 0.0000 0.0000 0.0000
# 4 0.0000 0.0000 0.0000 34.3358 0.0000 0.0000
# 5 0.0000 0.0000 0.0000 0.0000 36.2546 0.0000
# 6 0.0000 0.0000 0.0000 0.0000 0.0000 29.6553
#
#
#
# Elastic Compliance Matrix: (Units=1/GPa)
#
#
# Indices 1 2 3 4 5 6 
#
# 1 0.013906 -0.006041 -0.004196 0.000000 0.000000 0.000000
# 2 -0.006041 0.011389 0.002372 0.000000 0.000000 0.000000
# 3 -0.004196 0.002372 0.011389 0.000000 0.000000 0.000000
# 4 0.000000 0.000000 0.000000 0.029124 0.000000 0.000000
# 5 0.000000 0.000000 0.000000 0.000000 0.027583 0.000000
# 6 0.000000 0.000000 0.000000 0.000000 0.000000 0.033721
#
#
# Mechanical properties :
#
#
# Convention : Reuss Voigt Hill
#
# Bulk Modulus (GPa) = 47.72696 50.25257 48.98976
# Shear Modulus (GPa) = 33.37171 36.42660 34.89916
#
# Velocity S-wave (km/s) = 3.91190 4.08703 4.00042
# Velocity P-wave (km/s) = 6.50305 6.73168 6.61835
#
# Compressibility (1/GPa) = 0.02095252
#
# Stress axis : x y z
#
# Youngs Moduli (GPa) = 71.90981 87.80445 87.80510
#
# Poissons Ratio (x) = 0.53047 0.36847
# Poissons Ratio (y) = 0.43444 -0.20829
# Poissons Ratio (z) = 0.30177 -0.20829
#
# Static dielectric constant tensor:
#      x y z
#    x 1.760320 0.000000 0.000000 
#    y 0.000000 1.906980 0.000000 
#    z 0.000000 0.000000 1.869350 
# 
# From -- ./inp_files/57615.got.cif
#   From: 2010.05.17/outbox.cif.g08.bks.cpg/sg70_29_cif.got.tgz:57615.got - 2010.06.03 15:57:51.
