data_PCOD9516225
_publ_section_title
;
Structure prediction by ZEFSAII (Michael W. Deem and Ramdas Pophale) SiO2 
 PCOD9516225
Probable space group: F D D D
;
_chemical_formula_sum "Si O2"
_cell_formula_units_Z 120
_cell_length_a 16.288787
_cell_length_b 13.673685
_cell_length_c 22.850871
_cell_angle_alpha 90.000000
_cell_angle_beta 90.000000
_cell_angle_gamma 90.000000
_cell_volume 5089.522911
_symmetry_space_group_name_H-M "F D D D"
_symmetry_group_IT_number 70
_space_group.IT_coordinate_system_code '2'
_symmetry_cell_setting 'orthorhombic'
loop_
_space_group_symop_operation_xyz
x,y,z
1/4-x,1/4-y,z
x,1/4-y,1/4-z
1/4-x,y,1/4-z
-x,-y,-z
3/4+x,3/4+y,-z
-x,3/4+y,3/4+z
3/4+x,-y,3/4+z
x,1/2+y,1/2+z
1/4-x,3/4-y,1/2+z
x,3/4-y,3/4-z
1/4-x,1/2+y,3/4-z
-x,1/2-y,1/2-z
3/4+x,1/4+y,1/2-z
-x,1/4+y,1/4+z
3/4+x,1/2-y,1/4+z
1/2+x,y,1/2+z
3/4-x,1/4-y,1/2+z
1/2+x,1/4-y,3/4-z
3/4-x,y,3/4-z
1/2-x,-y,1/2-z
1/4+x,3/4+y,1/2-z
1/2-x,3/4+y,1/4+z
1/4+x,-y,1/4+z
1/2+x,1/2+y,z
3/4-x,3/4-y,z
1/2+x,3/4-y,1/4-z
3/4-x,1/2+y,1/4-z
1/2-x,1/2-y,-z
1/4+x,1/4+y,-z
1/2-x,1/4+y,3/4+z
1/4+x,1/2-y,3/4+z
loop_
_atom_site_type_symbol
_atom_site_label
_atom_site_fract_x
_atom_site_fract_y
_atom_site_fract_z
Si Si1 0.625000 0.625000 0.125000
Si Si2 0.993811 0.132328 0.751959
Si Si3 0.995957 0.625000 0.125000
Si Si4 0.457394 0.341037 0.122291
Si Si5 0.679973 0.955685 0.709491
O O1 0.667000 0.548200 0.167720
O O2 0.033910 0.104445 0.689475
O O3 0.901859 0.085798 0.758161
O O4 0.000000 0.250000 0.750000
O O5 0.033850 0.105731 0.814576
O O6 0.948743 0.726058 0.133626
O O7 0.375000 0.375000 0.091271
O O8 0.534006 0.369930 0.082123
O O9 0.750000 0.000000 0.750000
#
# Coordination Sequence:
#
# PCOD9516225 Si02
#       5
#     8  32  16  32  32
#     4  12  28  50  76 114 150 208 262 322 408 480
#     4  10  23  47  69 104 145 191 253 313 382 462
#     4  10  24  41  67 100 140 186 248 302 384 447
#     4  11  24  45  71 106 146 190 253 311 388 468
#     4  12  27  47  79 109 159 201 261 325 399 480
#
# _framework density 23.577847999999999
#
# number of rings (size 3 to 8) (size 9 to 14) (size 15 to 20)
#    0.000    1.067    2.667    1.600    5.600   10.667 
#    0.000   12.667    0.000    0.000    0.000    0.000 
#    0.000    0.000    0.000    0.000    0.000    0.000 
#
# Total GULP energy -167072.496171 kJ/mol
# GULP energy per Si atom -5569.083206 kJ/mol
# Density = 2.352418 g / cm^3
# Si number density = 23.577848 Si / 1000 Ang^3
#
#
#
# Elastic Constant Matrix: (Units=GPa)
#
#
# Indices 1 2 3 4 5 6 
#
# 1 128.9272 44.4741 48.2601 0.0000 0.0000 0.0000
# 2 44.4741 153.9386 24.6248 0.0000 0.0000 0.0000
# 3 48.2601 24.6248 172.2269 0.0000 0.0000 0.0000
# 4 0.0000 0.0000 0.0000 17.6866 0.0000 0.0000
# 5 0.0000 0.0000 0.0000 0.0000 29.4136 0.0000
# 6 0.0000 0.0000 0.0000 0.0000 0.0000 26.2421
#
#
#
# Elastic Compliance Matrix: (Units=1/GPa)
#
#
# Indices 1 2 3 4 5 6 
#
# 1 0.009432 -0.002356 -0.002306 0.000000 0.000000 0.000000
# 2 -0.002356 0.007237 -0.000374 0.000000 0.000000 0.000000
# 3 -0.002306 -0.000374 0.006506 0.000000 0.000000 0.000000
# 4 0.000000 0.000000 0.000000 0.056540 0.000000 0.000000
# 5 0.000000 0.000000 0.000000 0.000000 0.033998 0.000000
# 6 0.000000 0.000000 0.000000 0.000000 0.000000 0.038107
#
#
# Mechanical properties :
#
#
# Convention : Reuss Voigt Hill
#
# Bulk Modulus (GPa) = 76.32729 76.64565 76.48647
# Shear Modulus (GPa) = 30.07330 37.18405 33.62867
#
# Velocity S-wave (km/s) = 3.57527 3.97555 3.78071
# Velocity P-wave (km/s) = 7.03464 7.32471 7.18114
#
# Compressibility (1/GPa) = 0.01310147
#
# Stress axis : x y z
#
# Youngs Moduli (GPa) = 106.01831 138.18426 153.70302
#
# Poissons Ratio (x) = 0.32559 0.35447
# Poissons Ratio (y) = 0.24980 0.05756
# Poissons Ratio (z) = 0.24450 0.05175
#
# Static dielectric constant tensor:
#      x y z
#    x 2.002290 0.000000 0.000000 
#    y 0.000000 1.797560 0.000000 
#    z 0.000000 0.000000 1.907260 
# 
# From -- ./inp_files/59236.got.cif
#   From: 2010.05.17/outbox.cif.g08.bks.cpg/sg70_30_cif.got.tgz:59236.got - 2010.06.03 15:57:51.
