data_PCOD9516690
_publ_section_title
;
Structure prediction by ZEFSAII (Michael W. Deem and Ramdas Pophale) SiO2 
 PCOD9516690
Probable space group: F D D D
;
_chemical_formula_sum "Si O2"
_cell_formula_units_Z 168
_cell_length_a 21.793300
_cell_length_b 14.199883
_cell_length_c 26.590794
_cell_angle_alpha 90.000000
_cell_angle_beta 90.000000
_cell_angle_gamma 90.000000
_cell_volume 8228.848541
_symmetry_space_group_name_H-M "F D D D"
_symmetry_group_IT_number 70
_space_group.IT_coordinate_system_code '2'
_symmetry_cell_setting 'orthorhombic'
loop_
_space_group_symop_operation_xyz
x,y,z
1/4-x,1/4-y,z
x,1/4-y,1/4-z
1/4-x,y,1/4-z
-x,-y,-z
3/4+x,3/4+y,-z
-x,3/4+y,3/4+z
3/4+x,-y,3/4+z
x,1/2+y,1/2+z
1/4-x,3/4-y,1/2+z
x,3/4-y,3/4-z
1/4-x,1/2+y,3/4-z
-x,1/2-y,1/2-z
3/4+x,1/4+y,1/2-z
-x,1/4+y,1/4+z
3/4+x,1/2-y,1/4+z
1/2+x,y,1/2+z
3/4-x,1/4-y,1/2+z
1/2+x,1/4-y,3/4-z
3/4-x,y,3/4-z
1/2-x,-y,1/2-z
1/4+x,3/4+y,1/2-z
1/2-x,3/4+y,1/4+z
1/4+x,-y,1/4+z
1/2+x,1/2+y,z
3/4-x,3/4-y,z
1/2+x,3/4-y,1/4-z
3/4-x,1/2+y,1/4-z
1/2-x,1/2-y,-z
1/4+x,1/4+y,-z
1/2-x,1/4+y,3/4+z
1/4+x,1/2-y,3/4+z
loop_
_atom_site_type_symbol
_atom_site_label
_atom_site_fract_x
_atom_site_fract_y
_atom_site_fract_z
Si Si1 0.198009 0.640616 0.885238
Si Si2 0.448523 0.073502 0.178394
Si Si3 0.070852 0.377899 0.482719
Si Si4 0.625000 0.625000 0.125000
Si Si5 0.693369 0.154818 0.255391
Si Si6 0.721787 0.994011 0.675560
O O1 0.125000 0.625000 0.883666
O O2 0.208474 0.717648 0.841797
O O3 0.210412 0.655847 0.944639
O O4 0.239957 0.553703 0.868969
O O5 0.441857 0.125000 0.125000
O O6 0.386994 0.091676 0.210666
O O7 0.506207 0.104123 0.212036
O O8 0.061300 0.265665 0.479287
O O9 0.058451 0.414539 0.539053
O O10 0.020008 0.437507 0.452834
O O11 0.667361 0.559025 0.157854
O O12 0.625000 0.125000 0.238990
#
# Coordination Sequence:
#
# PCOD9516690 Si02
#       6
#    32  32  32   8  32  32
#     4  11  22  45  74 102 139 185 238 288 358 425
#     4  12  26  45  71 102 137 190 239 295 360 422
#     4  11  25  44  71 101 138 183 235 295 352 429
#     4  12  28  40  68 112 142 184 214 300 368 428
#     4  11  26  46  69 102 139 187 240 293 350 431
#     4  11  25  43  70 107 142 180 230 293 361 424
#
# _framework density 20.415979
#
# number of rings (size 3 to 8) (size 9 to 14) (size 15 to 20)
#    0.000    0.762    3.810    3.429    6.667    3.429 
#    0.000    0.000    0.000    0.000    0.000    0.000 
#    0.000    0.000    0.000    0.000    0.000    0.000 
#
# Total GULP energy -234574.567009 kJ/mol
# GULP energy per Si atom -5585.108738 kJ/mol
# Density = 2.036951 g / cm^3
# Si number density = 20.415979 Si / 1000 Ang^3
#
#
#
# Elastic Constant Matrix: (Units=GPa)
#
#
# Indices 1 2 3 4 5 6 
#
# 1 146.1929 30.6402 79.1014 0.0000 0.0000 0.0000
# 2 30.6402 56.2840 7.8207 0.0000 0.0000 0.0000
# 3 79.1014 7.8207 106.4599 0.0000 0.0000 0.0000
# 4 0.0000 0.0000 0.0000 26.3330 0.0000 0.0000
# 5 0.0000 0.0000 0.0000 0.0000 34.1314 0.0000
# 6 0.0000 0.0000 0.0000 0.0000 0.0000 69.5069
#
#
#
# Elastic Compliance Matrix: (Units=1/GPa)
#
#
# Indices 1 2 3 4 5 6 
#
# 1 0.013097 -0.005837 -0.009303 0.000000 0.000000 0.000000
# 2 -0.005837 0.020552 0.002827 0.000000 0.000000 0.000000
# 3 -0.009303 0.002827 0.016097 0.000000 0.000000 0.000000
# 4 0.000000 0.000000 0.000000 0.037975 0.000000 0.000000
# 5 0.000000 0.000000 0.000000 0.000000 0.029299 0.000000
# 6 0.000000 0.000000 0.000000 0.000000 0.000000 0.014387
#
#
# Mechanical properties :
#
#
# Convention : Reuss Voigt Hill
#
# Bulk Modulus (GPa) = 39.80632 60.45128 50.12880
# Shear Modulus (GPa) = 30.41257 38.75255 34.58256
#
# Velocity S-wave (km/s) = 3.86378 4.36150 4.12016
# Velocity P-wave (km/s) = 6.28053 7.41874 6.87323
#
# Compressibility (1/GPa) = 0.02512164
#
# Stress axis : x y z
#
# Youngs Moduli (GPa) = 76.35306 48.65729 62.12179
#
# Poissons Ratio (x) = 0.28403 0.57789
# Poissons Ratio (y) = 0.44569 -0.17564
# Poissons Ratio (z) = 0.71027 -0.13757
#
# Static dielectric constant tensor:
#      x y z
#    x 1.654180 0.000000 0.000000 
#    y 0.000000 1.880300 0.000000 
#    z 0.000000 0.000000 1.730100 
# 
# From -- ./inp_files/29846.got.cif
#   From: 2010.05.17/outbox.cif.g08.bks.cpg/sg70_15_cif.got.tgz:29846.got - 2010.06.03 15:57:51.
