data_PCOD9516926
_publ_section_title
;
Structure prediction by ZEFSAII (Michael W. Deem and Ramdas Pophale) SiO2 
 PCOD9516926
Probable space group: F D D D
;
_chemical_formula_sum "Si O2"
_cell_formula_units_Z 152
_cell_length_a 28.307216
_cell_length_b 25.979029
_cell_length_c 9.316490
_cell_angle_alpha 90.000000
_cell_angle_beta 90.000000
_cell_angle_gamma 90.000000
_cell_volume 6851.290711
_symmetry_space_group_name_H-M "F D D D"
_symmetry_group_IT_number 70
_space_group.IT_coordinate_system_code '2'
_symmetry_cell_setting 'orthorhombic'
loop_
_space_group_symop_operation_xyz
x,y,z
1/4-x,1/4-y,z
x,1/4-y,1/4-z
1/4-x,y,1/4-z
-x,-y,-z
3/4+x,3/4+y,-z
-x,3/4+y,3/4+z
3/4+x,-y,3/4+z
x,1/2+y,1/2+z
1/4-x,3/4-y,1/2+z
x,3/4-y,3/4-z
1/4-x,1/2+y,3/4-z
-x,1/2-y,1/2-z
3/4+x,1/4+y,1/2-z
-x,1/4+y,1/4+z
3/4+x,1/2-y,1/4+z
1/2+x,y,1/2+z
3/4-x,1/4-y,1/2+z
1/2+x,1/4-y,3/4-z
3/4-x,y,3/4-z
1/2-x,-y,1/2-z
1/4+x,3/4+y,1/2-z
1/2-x,3/4+y,1/4+z
1/4+x,-y,1/4+z
1/2+x,1/2+y,z
3/4-x,3/4-y,z
1/2+x,3/4-y,1/4-z
3/4-x,1/2+y,1/4-z
1/2-x,1/2-y,-z
1/4+x,1/4+y,-z
1/2-x,1/4+y,3/4+z
1/4+x,1/2-y,3/4+z
loop_
_atom_site_type_symbol
_atom_site_label
_atom_site_fract_x
_atom_site_fract_y
_atom_site_fract_z
Si Si1 0.304283 0.681010 0.576616
Si Si2 0.957452 0.851108 0.674266
Si Si3 0.944302 0.971254 0.630203
Si Si4 0.125000 0.625000 0.625000
Si Si5 0.875000 0.239644 0.375000
Si Si6 0.956053 0.768089 0.437534
O O1 0.321071 0.625000 0.625000
O O2 0.251617 0.672447 0.511636
O O3 0.336402 0.704933 0.454520
O O4 0.305973 0.720404 0.709160
O O5 0.962120 0.912196 0.647268
O O6 0.911249 0.845434 0.772036
O O7 0.950527 0.819841 0.528814
O O8 0.929595 0.979324 0.464641
O O9 0.904708 0.982516 0.748232
O O10 0.988310 0.009370 0.655341
#
# Coordination Sequence:
#
# PCOD9516926 Si02
#       6
#    32  32  32   8  16  32
#     4  12  26  49  75 107 155 204 252 313 384 455
#     4  12  24  46  76 112 153 201 252 320 377 464
#     4  11  25  47  76 110 147 203 253 311 383 457
#     4  12  26  40  82 112 148 194 264 292 394 456
#     4  12  29  48  79 112 150 206 257 310 385 474
#     4  11  25  46  75 107 156 195 251 319 379 445
#
# _framework density 22.185601999999999
#
# number of rings (size 3 to 8) (size 9 to 14) (size 15 to 20)
#    0.000    0.421    5.263    1.895    5.895    2.526 
#    0.000    1.053    0.000    0.000    0.000    0.000 
#    0.000    0.000    0.000    0.000    0.000    0.000 
#
# Total GULP energy -212779.720621 kJ/mol
# GULP energy per Si atom -5599.466332 kJ/mol
# Density = 2.213511 g / cm^3
# Si number density = 22.185602 Si / 1000 Ang^3
#
#
#
# Elastic Constant Matrix: (Units=GPa)
#
#
# Indices 1 2 3 4 5 6 
#
# 1 112.8602 56.7722 80.2116 -0.0022 0.0008 0.0002
# 2 56.7722 114.6380 85.4394 0.0023 -0.0010 -0.0002
# 3 80.2116 85.4394 222.4889 0.0004 -0.0003 -0.0009
# 4 -0.0022 0.0023 0.0004 24.5902 0.0008 0.0000
# 5 0.0008 -0.0010 -0.0003 0.0008 37.3180 0.0004
# 6 0.0002 -0.0002 -0.0009 0.0000 0.0004 35.5291
#
#
#
# Elastic Compliance Matrix: (Units=1/GPa)
#
#
# Indices 1 2 3 4 5 6 
#
# 1 0.013210 -0.004192 -0.003152 0.000002 0.000000 0.000000
# 2 -0.004192 0.013551 -0.003692 -0.000002 0.000000 0.000000
# 3 -0.003152 -0.003692 0.007049 0.000000 0.000000 0.000000
# 4 0.000002 -0.000002 0.000000 0.040667 -0.000001 0.000000
# 5 0.000000 0.000000 0.000000 -0.000001 0.026797 0.000000
# 6 0.000000 0.000000 0.000000 0.000000 0.000000 0.028146
#
#
# Mechanical properties :
#
#
# Convention : Reuss Voigt Hill
#
# Bulk Modulus (GPa) = 85.21076 99.42595 92.31836
# Shear Modulus (GPa) = 32.17372 34.65840 33.41606
#
# Velocity S-wave (km/s) = 3.81229 3.95676 3.88520
# Velocity P-wave (km/s) = 7.60721 8.11094 7.86311
#
# Compressibility (1/GPa) = 0.01173561
#
# Stress axis : x y z
#
# Youngs Moduli (GPa) = 75.70043 73.79356 141.86187
#
# Poissons Ratio (x) = 0.30937 0.44722
# Poissons Ratio (y) = 0.31737 0.52382
# Poissons Ratio (z) = 0.23864 0.27248
#
# Static dielectric constant tensor:
#      x y z
#    x 1.809800 0.000000 0.000000 
#    y 0.000000 1.879820 0.000000 
#    z 0.000000 0.000000 1.817390 
# 
# From -- ./inp_files/27634.got.cif
#   From: 2010.05.17/outbox.cif.g08.bks.cpg/sg70_14_cif.got.tgz:27634.got - 2010.06.03 15:57:51.
