data_PCOD9516230
_publ_section_title
;
Structure prediction by ZEFSAII (Michael W. Deem and Ramdas Pophale) SiO2 
 PCOD9516230
Probable space group: F D D D
;
_chemical_formula_sum "Si O2"
_cell_formula_units_Z 136
_cell_length_a 10.880635
_cell_length_b 22.638015
_cell_length_c 18.760196
_cell_angle_alpha 90.000000
_cell_angle_beta 90.000000
_cell_angle_gamma 90.000000
_cell_volume 4620.936032
_symmetry_space_group_name_H-M "F D D D"
_symmetry_group_IT_number 70
_space_group.IT_coordinate_system_code '2'
_symmetry_cell_setting 'orthorhombic'
loop_
_space_group_symop_operation_xyz
x,y,z
1/4-x,1/4-y,z
x,1/4-y,1/4-z
1/4-x,y,1/4-z
-x,-y,-z
3/4+x,3/4+y,-z
-x,3/4+y,3/4+z
3/4+x,-y,3/4+z
x,1/2+y,1/2+z
1/4-x,3/4-y,1/2+z
x,3/4-y,3/4-z
1/4-x,1/2+y,3/4-z
-x,1/2-y,1/2-z
3/4+x,1/4+y,1/2-z
-x,1/4+y,1/4+z
3/4+x,1/2-y,1/4+z
1/2+x,y,1/2+z
3/4-x,1/4-y,1/2+z
1/2+x,1/4-y,3/4-z
3/4-x,y,3/4-z
1/2-x,-y,1/2-z
1/4+x,3/4+y,1/2-z
1/2-x,3/4+y,1/4+z
1/4+x,-y,1/4+z
1/2+x,1/2+y,z
3/4-x,3/4-y,z
1/2+x,3/4-y,1/4-z
3/4-x,1/2+y,1/4-z
1/2-x,1/2-y,-z
1/4+x,1/4+y,-z
1/2-x,1/4+y,3/4+z
1/4+x,1/2-y,3/4+z
loop_
_atom_site_type_symbol
_atom_site_label
_atom_site_fract_x
_atom_site_fract_y
_atom_site_fract_z
Si Si1 0.147685 0.422553 0.243903
Si Si2 0.817925 0.451310 0.999789
Si Si3 0.125000 0.625000 0.625000
Si Si4 0.518901 0.671786 0.342494
Si Si5 0.909624 0.049501 0.089870
O O1 0.296267 0.423700 0.238807
O O2 0.077541 0.371412 0.199019
O O3 0.112386 0.436676 0.326513
O O4 0.100873 0.485758 0.213696
O O5 0.713800 0.426136 0.947169
O O6 0.751708 0.450775 0.077577
O O7 0.212165 0.666303 0.577884
O O8 0.625000 0.625000 0.351325
O O9 0.570711 0.733242 0.311064
#
# Coordination Sequence:
#
# PCOD9516230 Si02
#       5
#    32  32   8  32  32
#     4  10  23  47  85 137 190 243 319 405 494 591
#     4  10  23  47  84 135 191 250 310 401 502 586
#     4  12  32  52  78 124 184 260 318 380 472 584
#     4  11  24  46  86 145 188 241 323 410 489 594
#     4  11  26  53  83 128 195 263 318 401 491 583
#
# _framework density 29.431265
#
# number of rings (size 3 to 8) (size 9 to 14) (size 15 to 20)
#    0.000    1.412    2.353    0.706    1.647    4.706 
#    4.235    7.059    0.000    4.235   12.235    0.000 
#    0.000    0.000    0.000    0.000    0.000    0.000 
#
# Total GULP energy -189879.610398 kJ/mol
# GULP energy per Si atom -5584.694423 kJ/mol
# Density = 2.936428 g / cm^3
# Si number density = 29.431265 Si / 1000 Ang^3
#
#
#
# Elastic Constant Matrix: (Units=GPa)
#
#
# Indices 1 2 3 4 5 6 
#
# 1 213.4088 115.0884 84.3457 0.0000 0.0000 0.0000
# 2 115.0884 221.7453 59.5085 0.0000 0.0000 0.0000
# 3 84.3457 59.5085 163.5938 0.0000 0.0000 0.0000
# 4 0.0000 0.0000 0.0000 49.7789 0.0000 0.0000
# 5 0.0000 0.0000 0.0000 0.0000 53.6293 0.0000
# 6 0.0000 0.0000 0.0000 0.0000 0.0000 36.2105
#
#
#
# Elastic Compliance Matrix: (Units=1/GPa)
#
#
# Indices 1 2 3 4 5 6 
#
# 1 0.007445 -0.003141 -0.002696 0.000000 0.000000 0.000000
# 2 -0.003141 0.006322 -0.000681 0.000000 0.000000 0.000000
# 3 -0.002696 -0.000681 0.007750 0.000000 0.000000 0.000000
# 4 0.000000 0.000000 0.000000 0.020089 0.000000 0.000000
# 5 0.000000 0.000000 0.000000 0.000000 0.018647 0.000000
# 6 0.000000 0.000000 0.000000 0.000000 0.000000 0.027616
#
#
# Mechanical properties :
#
#
# Convention : Reuss Voigt Hill
#
# Bulk Modulus (GPa) = 117.88007 124.07033 120.97520
# Shear Modulus (GPa) = 48.20128 50.57742 49.38935
#
# Velocity S-wave (km/s) = 4.05131 4.14997 4.10094
# Velocity P-wave (km/s) = 7.87552 8.07530 7.97603
#
# Compressibility (1/GPa) = 0.00848320
#
# Stress axis : x y z
#
# Youngs Moduli (GPa) = 134.31671 158.17024 129.02650
#
# Poissons Ratio (x) = 0.49674 0.34787
# Poissons Ratio (y) = 0.42183 0.08781
# Poissons Ratio (z) = 0.36214 0.10765
#
# Static dielectric constant tensor:
#      x y z
#    x 2.334060 0.000000 0.000000 
#    y 0.000000 2.547890 0.000000 
#    z 0.000000 0.000000 2.508410 
# 
# From -- ./inp_files/50256.got.cif
#   From: 2010.05.17/outbox.cif.g08.bks.cpg/sg70_26_cif.got.tgz:50256.got - 2010.06.03 15:57:51.
