data_PCOD9516860
_publ_section_title
;
Structure prediction by ZEFSAII (Michael W. Deem and Ramdas Pophale) SiO2 
 PCOD9516860
Probable space group: F D D D
;
_chemical_formula_sum "Si O2"
_cell_formula_units_Z 112
_cell_length_a 25.926317
_cell_length_b 10.916724
_cell_length_c 18.059239
_cell_angle_alpha 90.000000
_cell_angle_beta 90.000000
_cell_angle_gamma 90.000000
_cell_volume 5111.314487
_symmetry_space_group_name_H-M "F D D D"
_symmetry_group_IT_number 70
_space_group.IT_coordinate_system_code '2'
_symmetry_cell_setting 'orthorhombic'
loop_
_space_group_symop_operation_xyz
x,y,z
1/4-x,1/4-y,z
x,1/4-y,1/4-z
1/4-x,y,1/4-z
-x,-y,-z
3/4+x,3/4+y,-z
-x,3/4+y,3/4+z
3/4+x,-y,3/4+z
x,1/2+y,1/2+z
1/4-x,3/4-y,1/2+z
x,3/4-y,3/4-z
1/4-x,1/2+y,3/4-z
-x,1/2-y,1/2-z
3/4+x,1/4+y,1/2-z
-x,1/4+y,1/4+z
3/4+x,1/2-y,1/4+z
1/2+x,y,1/2+z
3/4-x,1/4-y,1/2+z
1/2+x,1/4-y,3/4-z
3/4-x,y,3/4-z
1/2-x,-y,1/2-z
1/4+x,3/4+y,1/2-z
1/2-x,3/4+y,1/4+z
1/4+x,-y,1/4+z
1/2+x,1/2+y,z
3/4-x,3/4-y,z
1/2+x,3/4-y,1/4-z
3/4-x,1/2+y,1/4-z
1/2-x,1/2-y,-z
1/4+x,1/4+y,-z
1/2-x,1/4+y,3/4+z
1/4+x,1/2-y,3/4+z
loop_
_atom_site_type_symbol
_atom_site_label
_atom_site_fract_x
_atom_site_fract_y
_atom_site_fract_z
Si Si1 0.794792 0.079420 0.042720
Si Si2 0.791717 0.030791 0.563400
Si Si3 0.627234 0.772411 0.541076
Si Si4 0.125000 0.125000 0.343312
O O1 0.777822 0.125000 0.125000
O O2 0.839421 0.975631 0.052131
O O3 0.821491 0.192438 0.001960
O O4 0.751355 0.031884 0.986927
O O5 0.771230 0.125000 0.625000
O O6 0.830180 0.085938 0.502124
O O7 0.831873 0.944732 0.607830
O O8 0.625000 0.625000 0.541884
O O9 0.625000 0.815286 0.625000
#
# Coordination Sequence:
#
# PCOD9516860 Si02
#       4
#    32  32  32  16
#     4  12  27  46  78 110 149 202 251 314 386 453
#     4  12  26  47  74 110 153 198 247 317 387 453
#     4  11  24  45  71 107 146 186 251 313 367 456
#     4  12  24  50  76 102 154 190 252 310 374 456
#
# _framework density 21.912171000000001
#
# number of rings (size 3 to 8) (size 9 to 14) (size 15 to 20)
#    0.000    0.286    7.143    0.000    8.000    5.714 
#    0.000    0.000    0.000    0.000    0.000    0.000 
#    0.000    0.000    0.000    0.000    0.000    0.000 
#
# Total GULP energy -156398.462797 kJ/mol
# GULP energy per Si atom -5585.659386 kJ/mol
# Density = 2.186230 g / cm^3
# Si number density = 21.912171 Si / 1000 Ang^3
#
#
#
# Elastic Constant Matrix: (Units=GPa)
#
#
# Indices 1 2 3 4 5 6 
#
# 1 150.7694 57.2521 78.3534 0.0000 0.0000 0.0000
# 2 57.2521 76.4064 59.9190 0.0000 0.0000 0.0000
# 3 78.3534 59.9190 176.2279 0.0000 0.0000 0.0000
# 4 0.0000 0.0000 0.0000 14.2078 0.0000 0.0000
# 5 0.0000 0.0000 0.0000 0.0000 52.8686 0.0000
# 6 0.0000 0.0000 0.0000 0.0000 0.0000 27.3054
#
#
#
# Elastic Compliance Matrix: (Units=1/GPa)
#
#
# Indices 1 2 3 4 5 6 
#
# 1 0.010080 -0.005507 -0.002609 0.000000 0.000000 0.000000
# 2 -0.005507 0.020855 -0.004642 0.000000 0.000000 0.000000
# 3 -0.002609 -0.004642 0.008413 0.000000 0.000000 0.000000
# 4 0.000000 0.000000 0.000000 0.070384 0.000000 0.000000
# 5 0.000000 0.000000 0.000000 0.000000 0.018915 0.000000
# 6 0.000000 0.000000 0.000000 0.000000 0.000000 0.036623
#
#
# Mechanical properties :
#
#
# Convention : Reuss Voigt Hill
#
# Bulk Modulus (GPa) = 72.30231 88.27253 80.28742
# Shear Modulus (GPa) = 25.58908 32.73498 29.16203
#
# Velocity S-wave (km/s) = 3.42102 3.86932 3.65205
# Velocity P-wave (km/s) = 6.97657 7.76752 7.38264
#
# Compressibility (1/GPa) = 0.01383082
#
# Stress axis : x y z
#
# Youngs Moduli (GPa) = 99.20922 47.95063 118.86238
#
# Poissons Ratio (x) = 0.26404 0.31015
# Poissons Ratio (y) = 0.54630 0.55182
# Poissons Ratio (z) = 0.25887 0.22261
#
# Static dielectric constant tensor:
#      x y z
#    x 1.867220 0.000000 0.000000 
#    y 0.000000 1.915750 0.000000 
#    z 0.000000 0.000000 1.838570 
# 
# From -- ./inp_files/16509.got.cif
#   From: 2010.05.17/outbox.cif.g08.bks.cpg/sg70_9_cif.got.tgz:16509.got - 2010.06.03 15:57:51.
