data_PCOD9516682
_publ_section_title
;
Structure prediction by ZEFSAII (Michael W. Deem and Ramdas Pophale) SiO2 
 PCOD9516682
Probable space group: F D D D
;
_chemical_formula_sum "Si O2"
_cell_formula_units_Z 160
_cell_length_a 21.751084
_cell_length_b 25.647858
_cell_length_c 13.379326
_cell_angle_alpha 90.000000
_cell_angle_beta 90.000000
_cell_angle_gamma 90.000000
_cell_volume 7463.907387
_symmetry_space_group_name_H-M "F D D D"
_symmetry_group_IT_number 70
_space_group.IT_coordinate_system_code '2'
_symmetry_cell_setting 'orthorhombic'
loop_
_space_group_symop_operation_xyz
x,y,z
1/4-x,1/4-y,z
x,1/4-y,1/4-z
1/4-x,y,1/4-z
-x,-y,-z
3/4+x,3/4+y,-z
-x,3/4+y,3/4+z
3/4+x,-y,3/4+z
x,1/2+y,1/2+z
1/4-x,3/4-y,1/2+z
x,3/4-y,3/4-z
1/4-x,1/2+y,3/4-z
-x,1/2-y,1/2-z
3/4+x,1/4+y,1/2-z
-x,1/4+y,1/4+z
3/4+x,1/2-y,1/4+z
1/2+x,y,1/2+z
3/4-x,1/4-y,1/2+z
1/2+x,1/4-y,3/4-z
3/4-x,y,3/4-z
1/2-x,-y,1/2-z
1/4+x,3/4+y,1/2-z
1/2-x,3/4+y,1/4+z
1/4+x,-y,1/4+z
1/2+x,1/2+y,z
3/4-x,3/4-y,z
1/2+x,3/4-y,1/4-z
3/4-x,1/2+y,1/4-z
1/2-x,1/2-y,-z
1/4+x,1/4+y,-z
1/2-x,1/4+y,3/4+z
1/4+x,1/2-y,3/4+z
loop_
_atom_site_type_symbol
_atom_site_label
_atom_site_fract_x
_atom_site_fract_y
_atom_site_fract_z
Si Si1 0.302270 0.652588 0.861288
Si Si2 0.726777 0.572005 0.684845
Si Si3 0.876982 0.437331 0.676291
Si Si4 0.218495 0.013018 0.964530
Si Si5 0.258989 0.713185 0.404644
O O1 0.375000 0.656707 0.875000
O O2 0.274235 0.695424 0.786386
O O3 0.283951 0.594661 0.824812
O O4 0.267858 0.663817 0.967645
O O5 0.713337 0.625000 0.625000
O O6 0.663666 0.547044 0.727351
O O7 0.761952 0.532804 0.611988
O O8 0.875000 0.375000 0.678235
O O9 0.838764 0.457451 0.582728
O O10 0.945632 0.455991 0.658701
O O11 0.200143 0.991284 0.071546
O O12 0.250000 0.750000 0.500000
#
# Coordination Sequence:
#
# PCOD9516682 Si02
#       5
#    32  32  32  32  32
#     4  11  25  46  65 103 140 174 223 276 348 421
#     4  11  22  44  76 108 133 167 222 302 361 396
#     4  11  22  45  69  99 135 170 231 283 337 413
#     4  11  25  44  72 101 133 176 223 288 351 400
#     4  12  28  45  65  97 137 190 230 272 337 408
#
# _framework density 21.436492999999999
#
# number of rings (size 3 to 8) (size 9 to 14) (size 15 to 20)
#    0.000    0.800    6.000    2.400    8.400    2.800 
#    0.000    1.000    0.000    0.000    0.000    0.000 
#    0.000    0.000    0.000    0.000    0.000    0.000 
#
# Total GULP energy -223727.865389 kJ/mol
# GULP energy per Si atom -5593.196635 kJ/mol
# Density = 2.138770 g / cm^3
# Si number density = 21.436493 Si / 1000 Ang^3
#
#
#
# Elastic Constant Matrix: (Units=GPa)
#
#
# Indices 1 2 3 4 5 6 
#
# 1 75.7747 -6.6526 -12.9136 0.0000 0.0000 0.0000
# 2 -6.6526 111.4728 35.5826 0.0000 0.0000 0.0000
# 3 -12.9136 35.5826 82.6576 0.0000 0.0000 0.0000
# 4 0.0000 0.0000 0.0000 17.4342 0.0000 0.0000
# 5 0.0000 0.0000 0.0000 0.0000 13.3149 0.0000
# 6 0.0000 0.0000 0.0000 0.0000 0.0000 13.9297
#
#
#
# Elastic Compliance Matrix: (Units=1/GPa)
#
#
# Indices 1 2 3 4 5 6 
#
# 1 0.013560 0.000154 0.002052 0.000000 0.000000 0.000000
# 2 0.000154 0.010402 -0.004454 0.000000 0.000000 0.000000
# 3 0.002052 -0.004454 0.014336 0.000000 0.000000 0.000000
# 4 0.000000 0.000000 0.000000 0.057358 0.000000 0.000000
# 5 0.000000 0.000000 0.000000 0.000000 0.075104 0.000000
# 6 0.000000 0.000000 0.000000 0.000000 0.000000 0.071789
#
#
# Mechanical properties :
#
#
# Convention : Reuss Voigt Hill
#
# Bulk Modulus (GPa) = 29.58294 33.54867 31.56580
# Shear Modulus (GPa) = 19.35646 25.86168 22.60907
#
# Velocity S-wave (km/s) = 3.00820 3.47714 3.25114
# Velocity P-wave (km/s) = 5.08881 5.63958 5.37126
#
# Compressibility (1/GPa) = 0.03380327
#
# Stress axis : x y z
#
# Youngs Moduli (GPa) = 73.74481 96.13890 69.75494
#
# Poissons Ratio (x) = -0.01483 -0.14315
# Poissons Ratio (y) = -0.01137 0.31066
# Poissons Ratio (z) = -0.15133 0.42817
#
# Static dielectric constant tensor:
#      x y z
#    x 1.816640 0.000000 0.000000 
#    y 0.000000 1.831780 0.000000 
#    z 0.000000 0.000000 1.771000 
# 
# From -- ./inp_files/28657.got.cif
#   From: 2010.05.17/outbox.cif.g08.bks.cpg/sg70_15_cif.got.tgz:28657.got - 2010.06.03 15:57:51.
