data_PCOD9516014
_publ_section_title
;
Structure prediction by ZEFSAII (Michael W. Deem and Ramdas Pophale) SiO2 
 PCOD9516014
Probable space group: F D D D
;
_chemical_formula_sum "Si O2"
_cell_formula_units_Z 176
_cell_length_a 13.829846
_cell_length_b 28.661660
_cell_length_c 22.033640
_cell_angle_alpha 90.000000
_cell_angle_beta 90.000000
_cell_angle_gamma 90.000000
_cell_volume 8733.834003
_symmetry_space_group_name_H-M "F D D D"
_symmetry_group_IT_number 70
_space_group.IT_coordinate_system_code '2'
_symmetry_cell_setting 'orthorhombic'
loop_
_space_group_symop_operation_xyz
x,y,z
1/4-x,1/4-y,z
x,1/4-y,1/4-z
1/4-x,y,1/4-z
-x,-y,-z
3/4+x,3/4+y,-z
-x,3/4+y,3/4+z
3/4+x,-y,3/4+z
x,1/2+y,1/2+z
1/4-x,3/4-y,1/2+z
x,3/4-y,3/4-z
1/4-x,1/2+y,3/4-z
-x,1/2-y,1/2-z
3/4+x,1/4+y,1/2-z
-x,1/4+y,1/4+z
3/4+x,1/2-y,1/4+z
1/2+x,y,1/2+z
3/4-x,1/4-y,1/2+z
1/2+x,1/4-y,3/4-z
3/4-x,y,3/4-z
1/2-x,-y,1/2-z
1/4+x,3/4+y,1/2-z
1/2-x,3/4+y,1/4+z
1/4+x,-y,1/4+z
1/2+x,1/2+y,z
3/4-x,3/4-y,z
1/2+x,3/4-y,1/4-z
3/4-x,1/2+y,1/4-z
1/2-x,1/2-y,-z
1/4+x,1/4+y,-z
1/2-x,1/4+y,3/4+z
1/4+x,1/2-y,3/4+z
loop_
_atom_site_type_symbol
_atom_site_label
_atom_site_fract_x
_atom_site_fract_y
_atom_site_fract_z
Si Si1 0.625000 0.523592 0.125000
Si Si2 0.299445 0.290711 0.150998
Si Si3 0.875000 0.875000 0.077912
Si Si4 0.367955 0.125000 0.125000
Si Si5 0.252867 0.920901 0.473871
Si Si6 0.157212 0.011970 0.523375
Si Si7 0.479471 0.721262 0.645826
O O1 0.533481 0.489036 0.117283
O O2 0.665124 0.555135 0.069478
O O3 0.316146 0.339277 0.119103
O O4 0.288192 0.294519 0.223847
O O5 0.397069 0.260283 0.149851
O O6 0.946905 0.847871 0.033517
O O7 0.298408 0.119060 0.066340
O O8 0.432830 0.171122 0.130707
O O9 0.175270 0.960193 0.495149
O O10 0.212545 0.014232 0.586369
O O11 0.050346 0.027630 0.545550
#
# Coordination Sequence:
#
# PCOD9516014 Si02
#       7
#    16  32  16  16  32  32  32
#     4  10  22  45  70  92 138 178 224 271 342 406
#     4  11  24  44  64 102 134 175 219 281 340 402
#     4  12  26  41  68 101 134 174 226 278 346 402
#     4  12  24  40  72 102 128 178 242 272 326 400
#     4  11  23  42  66 102 133 179 222 282 336 411
#     4  10  23  45  68  91 137 179 221 278 341 391
#     4  11  23  44  70  96 129 183 223 276 336 398
#
# _framework density 20.151516999999998
#
# number of rings (size 3 to 8) (size 9 to 14) (size 15 to 20)
#    0.000    1.091    5.455    1.636    0.000    6.545 
#    3.273    0.000    0.000    0.000    0.000    0.000 
#    0.000    0.000    0.000    0.000    0.000    0.000 
#
# Total GULP energy -245246.000826 kJ/mol
# GULP energy per Si atom -5573.772746 kJ/mol
# Density = 2.010565 g / cm^3
# Si number density = 20.151517 Si / 1000 Ang^3
#
#
#
# Elastic Constant Matrix: (Units=GPa)
#
#
# Indices 1 2 3 4 5 6 
#
# 1 81.3365 15.2635 19.3449 0.0000 0.0000 0.0000
# 2 15.2635 81.5987 38.8383 0.0000 0.0000 0.0000
# 3 19.3449 38.8383 102.4595 0.0000 0.0000 0.0000
# 4 0.0000 0.0000 0.0000 26.6956 0.0000 0.0000
# 5 0.0000 0.0000 0.0000 0.0000 14.7161 0.0000
# 6 0.0000 0.0000 0.0000 0.0000 0.0000 39.7070
#
#
#
# Elastic Compliance Matrix: (Units=1/GPa)
#
#
# Indices 1 2 3 4 5 6 
#
# 1 0.013030 -0.001545 -0.001874 0.000000 0.000000 0.000000
# 2 -0.001545 0.015136 -0.005446 0.000000 0.000000 0.000000
# 3 -0.001874 -0.005446 0.012178 0.000000 0.000000 0.000000
# 4 0.000000 0.000000 0.000000 0.037459 0.000000 0.000000
# 5 0.000000 0.000000 0.000000 0.000000 0.067953 0.000000
# 6 0.000000 0.000000 0.000000 0.000000 0.000000 0.025184
#
#
# Mechanical properties :
#
#
# Convention : Reuss Voigt Hill
#
# Bulk Modulus (GPa) = 44.22087 45.80979 45.01533
# Shear Modulus (GPa) = 25.48289 29.02027 27.25158
#
# Velocity S-wave (km/s) = 3.55993 3.79899 3.68140
# Velocity P-wave (km/s) = 6.23613 6.48268 6.36060
#
# Compressibility (1/GPa) = 0.02261376
#
# Stress axis : x y z
#
# Youngs Moduli (GPa) = 76.74357 66.06707 82.11438
#
# Poissons Ratio (x) = 0.10209 0.15392
# Poissons Ratio (y) = 0.11859 0.44717
# Poissons Ratio (z) = 0.14385 0.35979
#
# Static dielectric constant tensor:
#      x y z
#    x 1.772940 0.000000 0.000000 
#    y 0.000000 1.703220 0.000000 
#    z 0.000000 0.000000 1.797600 
# 
# From -- ./inp_files/51384.got.cif
#   From: 2010.05.17/outbox.cif.g08.bks.cpg/sg70_26_cif.got.tgz:51384.got - 2010.06.03 15:57:51.
