data_PCOD9516012
_publ_section_title
;
Structure prediction by ZEFSAII (Michael W. Deem and Ramdas Pophale) SiO2 
 PCOD9516012
Probable space group: F D D D
;
_chemical_formula_sum "Si O2"
_cell_formula_units_Z 112
_cell_length_a 13.076963
_cell_length_b 11.761486
_cell_length_c 34.097021
_cell_angle_alpha 90.000000
_cell_angle_beta 90.000000
_cell_angle_gamma 90.000000
_cell_volume 5244.275854
_symmetry_space_group_name_H-M "F D D D"
_symmetry_group_IT_number 70
_space_group.IT_coordinate_system_code '2'
_symmetry_cell_setting 'orthorhombic'
loop_
_space_group_symop_operation_xyz
x,y,z
1/4-x,1/4-y,z
x,1/4-y,1/4-z
1/4-x,y,1/4-z
-x,-y,-z
3/4+x,3/4+y,-z
-x,3/4+y,3/4+z
3/4+x,-y,3/4+z
x,1/2+y,1/2+z
1/4-x,3/4-y,1/2+z
x,3/4-y,3/4-z
1/4-x,1/2+y,3/4-z
-x,1/2-y,1/2-z
3/4+x,1/4+y,1/2-z
-x,1/4+y,1/4+z
3/4+x,1/2-y,1/4+z
1/2+x,y,1/2+z
3/4-x,1/4-y,1/2+z
1/2+x,1/4-y,3/4-z
3/4-x,y,3/4-z
1/2-x,-y,1/2-z
1/4+x,3/4+y,1/2-z
1/2-x,3/4+y,1/4+z
1/4+x,-y,1/4+z
1/2+x,1/2+y,z
3/4-x,3/4-y,z
1/2+x,3/4-y,1/4-z
3/4-x,1/2+y,1/4-z
1/2-x,1/2-y,-z
1/4+x,1/4+y,-z
1/2-x,1/4+y,3/4+z
1/4+x,1/2-y,3/4+z
loop_
_atom_site_type_symbol
_atom_site_label
_atom_site_fract_x
_atom_site_fract_y
_atom_site_fract_z
Si Si1 0.527525 0.479939 0.599641
Si Si2 0.868732 0.141092 0.200318
Si Si3 0.125000 0.625000 0.839941
Si Si4 0.760261 0.426916 0.029050
O O1 0.625000 0.512890 0.625000
O O2 0.456574 0.579565 0.581292
O O3 0.464400 0.407604 0.630724
O O4 0.545935 0.396535 0.562600
O O5 0.900975 0.264003 0.185061
O O6 0.802233 0.160776 0.239407
O O7 0.963014 0.055887 0.208662
O O8 0.875000 0.375000 0.024283
#
# Coordination Sequence:
#
# PCOD9516012 Si02
#       4
#    32  32  16  32
#     4  11  24  45  72 102 131 178 229 281 342 400
#     4  11  25  45  68  95 143 176 228 278 339 409
#     4  12  26  42  68 102 139 176 223 288 344 400
#     4  10  22  45  69  99 135 176 228 282 329 407
#
# _framework density 21.356619999999999
#
# number of rings (size 3 to 8) (size 9 to 14) (size 15 to 20)
#    0.000    1.143    4.286    4.286    8.000    2.286 
#    0.000    1.429    0.000    0.000    0.000    0.000 
#    0.000    0.000    0.000    0.000    0.000    0.000 
#
# Total GULP energy -156540.565717 kJ/mol
# GULP energy per Si atom -5590.734490 kJ/mol
# Density = 2.130801 g / cm^3
# Si number density = 21.356620 Si / 1000 Ang^3
#
#
#
# Elastic Constant Matrix: (Units=GPa)
#
#
# Indices 1 2 3 4 5 6 
#
# 1 62.5324 34.2876 42.6660 0.0000 0.0000 0.0000
# 2 34.2876 189.0142 86.8870 0.0000 0.0000 0.0000
# 3 42.6660 86.8870 138.7342 0.0000 0.0000 0.0000
# 4 0.0000 0.0000 0.0000 35.1938 0.0000 0.0000
# 5 0.0000 0.0000 0.0000 0.0000 30.5252 0.0000
# 6 0.0000 0.0000 0.0000 0.0000 0.0000 -4.6068
#
#
#
# Elastic Compliance Matrix: (Units=1/GPa)
#
#
# Indices 1 2 3 4 5 6 
#
# 1 0.020414 -0.001148 -0.005559 0.000000 0.000000 0.000000
# 2 -0.001148 0.007494 -0.004340 0.000000 0.000000 0.000000
# 3 -0.005559 -0.004340 0.011636 0.000000 0.000000 0.000000
# 4 0.000000 0.000000 0.000000 0.028414 0.000000 0.000000
# 5 0.000000 0.000000 0.000000 0.000000 0.032760 0.000000
# 6 0.000000 0.000000 0.000000 0.000000 0.000000 -0.217072
#
#
# Mechanical properties :
#
#
# Convention : Reuss Voigt Hill
#
# Bulk Modulus (GPa) = 57.30862 79.77354 68.54108
# Shear Modulus (GPa) = -56.53412 27.31846 -14.60783
#
# Velocity S-wave (km/s) = -5.15063 3.58041 -2.61817
# Velocity P-wave (km/s) = 2.91196 7.38421 4.79828
#
# Compressibility (1/GPa) = 0.01744938
#
# Stress axis : x y z
#
# Youngs Moduli (GPa) = 48.98561 133.43955 85.93931
#
# Poissons Ratio (x) = 0.15314 0.47777
# Poissons Ratio (y) = 0.05622 0.37302
# Poissons Ratio (z) = 0.27233 0.57919
#
# Static dielectric constant tensor:
#      x y z
#    x 1.702130 0.000000 0.000000 
#    y 0.000000 2.067330 0.000000 
#    z 0.000000 0.000000 1.773140 
# 
# From -- ./inp_files/15043.got.cif
#   From: 2010.05.17/outbox.cif.g08.bks.cpg/sg70_8_cif.got.tgz:15043.got - 2010.06.03 15:57:51.
