data_PCOD9516795
_publ_section_title
;
Structure prediction by ZEFSAII (Michael W. Deem and Ramdas Pophale) SiO2 
 PCOD9516795
Probable space group: F D D D
;
_chemical_formula_sum "Si O2"
_cell_formula_units_Z 104
_cell_length_a 26.497330
_cell_length_b 14.165118
_cell_length_c 12.408436
_cell_angle_alpha 90.000000
_cell_angle_beta 90.000000
_cell_angle_gamma 90.000000
_cell_volume 4657.355146
_symmetry_space_group_name_H-M "F D D D"
_symmetry_group_IT_number 70
_space_group.IT_coordinate_system_code '2'
_symmetry_cell_setting 'orthorhombic'
loop_
_space_group_symop_operation_xyz
x,y,z
1/4-x,1/4-y,z
x,1/4-y,1/4-z
1/4-x,y,1/4-z
-x,-y,-z
3/4+x,3/4+y,-z
-x,3/4+y,3/4+z
3/4+x,-y,3/4+z
x,1/2+y,1/2+z
1/4-x,3/4-y,1/2+z
x,3/4-y,3/4-z
1/4-x,1/2+y,3/4-z
-x,1/2-y,1/2-z
3/4+x,1/4+y,1/2-z
-x,1/4+y,1/4+z
3/4+x,1/2-y,1/4+z
1/2+x,y,1/2+z
3/4-x,1/4-y,1/2+z
1/2+x,1/4-y,3/4-z
3/4-x,y,3/4-z
1/2-x,-y,1/2-z
1/4+x,3/4+y,1/2-z
1/2-x,3/4+y,1/4+z
1/4+x,-y,1/4+z
1/2+x,1/2+y,z
3/4-x,3/4-y,z
1/2+x,3/4-y,1/4-z
3/4-x,1/2+y,1/4-z
1/2-x,1/2-y,-z
1/4+x,1/4+y,-z
1/2-x,1/4+y,3/4+z
1/4+x,1/2-y,3/4+z
loop_
_atom_site_type_symbol
_atom_site_label
_atom_site_fract_x
_atom_site_fract_y
_atom_site_fract_z
Si Si1 0.052007 0.766494 0.503081
Si Si2 0.375000 0.375000 0.875000
Si Si3 0.801908 0.200748 0.844903
Si Si4 0.354950 0.269866 0.535536
O O1 0.087846 0.690544 0.558237
O O2 0.047926 0.854204 0.585862
O O3 0.079186 0.777177 0.387690
O O4 0.997313 0.725614 0.472603
O O5 0.849665 0.207363 0.764356
O O6 0.814134 0.276354 0.939091
O O7 0.375000 0.375000 0.559502
#
# Coordination Sequence:
#
# PCOD9516795 Si02
#       4
#    32   8  32  32
#     4  12  26  48  71 109 146 194 243 302 359 435
#     4  12  28  48  72 106 146 192 240 304 372 424
#     4  11  25  44  76 108 144 195 244 291 370 423
#     4  11  23  47  73 107 152 190 245 299 351 429
#
# _framework density 22.330271
#
# number of rings (size 3 to 8) (size 9 to 14) (size 15 to 20)
#    0.000    0.615    1.538    7.385    0.000    3.692 
#   11.077    0.000    0.000    0.000    0.000    0.000 
#    0.000    0.000    0.000    0.000    0.000    0.000 
#
# Total GULP energy -145431.392692 kJ/mol
# GULP energy per Si atom -5593.515104 kJ/mol
# Density = 2.227945 g / cm^3
# Si number density = 22.330271 Si / 1000 Ang^3
#
#
#
# Elastic Constant Matrix: (Units=GPa)
#
#
# Indices 1 2 3 4 5 6 
#
# 1 177.6964 54.7874 78.6608 0.0000 0.0000 0.0000
# 2 54.7874 97.5772 15.9236 0.0000 0.0000 0.0000
# 3 78.6608 15.9236 95.5357 0.0000 0.0000 0.0000
# 4 0.0000 0.0000 0.0000 -701.6517 0.0000 0.0000
# 5 0.0000 0.0000 0.0000 0.0000 18.3789 0.0000
# 6 0.0000 0.0000 0.0000 0.0000 0.0000 36.6232
#
#
#
# Elastic Compliance Matrix: (Units=1/GPa)
#
#
# Indices 1 2 3 4 5 6 
#
# 1 0.010567 -0.004640 -0.007927 0.000000 0.000000 0.000000
# 2 -0.004640 0.012572 0.001725 0.000000 0.000000 0.000000
# 3 -0.007927 0.001725 0.016707 0.000000 0.000000 0.000000
# 4 0.000000 0.000000 0.000000 -0.001425 0.000000 0.000000
# 5 0.000000 0.000000 0.000000 0.000000 0.054410 0.000000
# 6 0.000000 0.000000 0.000000 0.000000 0.000000 0.027305
#
#
# Mechanical properties :
#
#
# Convention : Reuss Voigt Hill
#
# Bulk Modulus (GPa) = 55.06182 74.39477 64.72829
# Shear Modulus (GPa) = 33.81236 -114.56743 -40.37754
#
# Velocity S-wave (km/s) = 3.89549 -7.17058 -4.25690
# Velocity P-wave (km/s) = 6.70407 5.93029 2.21090
#
# Compressibility (1/GPa) = 0.01816141
#
# Stress axis : x y z
#
# Youngs Moduli (GPa) = 94.63164 79.54250 59.85523
#
# Poissons Ratio (x) = 0.36905 0.47450
# Poissons Ratio (y) = 0.43906 -0.10323
# Poissons Ratio (z) = 0.75018 -0.13718
#
# Static dielectric constant tensor:
#      x y z
#    x 1.827910 0.000000 0.000000 
#    y 0.000000 1.860190 0.000000 
#    z 0.000000 0.000000 1.868440 
# 
# From -- ./inp_files/20186.got.cif
#   From: 2010.05.17/outbox.cif.g08.bks.cpg/sg70_11_cif.got.tgz:20186.got - 2010.06.03 15:57:51.
