data_PCOD9516904
_publ_section_title
;
Structure prediction by ZEFSAII (Michael W. Deem and Ramdas Pophale) SiO2 
 PCOD9516904
Probable space group: F D D D
;
_chemical_formula_sum "Si O2"
_cell_formula_units_Z 104
_cell_length_a 11.947256
_cell_length_b 22.115725
_cell_length_c 18.485502
_cell_angle_alpha 90.000000
_cell_angle_beta 90.000000
_cell_angle_gamma 90.000000
_cell_volume 4884.280528
_symmetry_space_group_name_H-M "F D D D"
_symmetry_group_IT_number 70
_space_group.IT_coordinate_system_code '2'
_symmetry_cell_setting 'orthorhombic'
loop_
_space_group_symop_operation_xyz
x,y,z
1/4-x,1/4-y,z
x,1/4-y,1/4-z
1/4-x,y,1/4-z
-x,-y,-z
3/4+x,3/4+y,-z
-x,3/4+y,3/4+z
3/4+x,-y,3/4+z
x,1/2+y,1/2+z
1/4-x,3/4-y,1/2+z
x,3/4-y,3/4-z
1/4-x,1/2+y,3/4-z
-x,1/2-y,1/2-z
3/4+x,1/4+y,1/2-z
-x,1/4+y,1/4+z
3/4+x,1/2-y,1/4+z
1/2+x,y,1/2+z
3/4-x,1/4-y,1/2+z
1/2+x,1/4-y,3/4-z
3/4-x,y,3/4-z
1/2-x,-y,1/2-z
1/4+x,3/4+y,1/2-z
1/2-x,3/4+y,1/4+z
1/4+x,-y,1/4+z
1/2+x,1/2+y,z
3/4-x,3/4-y,z
1/2+x,3/4-y,1/4-z
3/4-x,1/2+y,1/4-z
1/2-x,1/2-y,-z
1/4+x,1/4+y,-z
1/2-x,1/4+y,3/4+z
1/4+x,1/2-y,3/4+z
loop_
_atom_site_type_symbol
_atom_site_label
_atom_site_fract_x
_atom_site_fract_y
_atom_site_fract_z
Si Si1 0.955506 0.096958 0.812817
Si Si2 0.875000 0.875000 0.875000
Si Si3 0.813276 0.203879 0.554015
Si Si4 0.818225 0.277494 0.068493
O O1 0.875000 0.071301 0.875000
O O2 0.884255 0.095681 0.740282
O O3 0.061219 0.054582 0.796523
O O4 0.998082 0.162329 0.839219
O O5 0.790763 0.831260 0.914771
O O6 0.750000 0.250000 0.500000
O O7 0.895810 0.235254 0.613432
O O8 0.750000 0.250000 0.000000
#
# Coordination Sequence:
#
# PCOD9516904 Si02
#       4
#    32   8  32  32
#     4  11  25  44  70 107 145 194 251 302 367 449
#     4  12  28  44  72 114 140 188 254 300 354 454
#     4  12  25  45  74 106 150 193 247 306 370 437
#     4  11  26  46  71 108 149 196 244 307 376 436
#
# _framework density 21.292798999999999
#
# number of rings (size 3 to 8) (size 9 to 14) (size 15 to 20)
#    0.000    0.615    3.077    3.692    8.615    0.000 
#    0.000    3.077    0.000    0.000    0.000    0.000 
#    0.000    0.000    0.000    0.000    0.000    0.000 
#
# Total GULP energy -145004.490324 kJ/mol
# GULP energy per Si atom -5577.095782 kJ/mol
# Density = 2.124434 g / cm^3
# Si number density = 21.292799 Si / 1000 Ang^3
#
#
#
# Elastic Constant Matrix: (Units=GPa)
#
#
# Indices 1 2 3 4 5 6 
#
# 1 174.4050 55.2238 84.8438 0.0000 0.0000 0.0000
# 2 55.2238 98.6504 65.5294 0.0000 0.0000 0.0000
# 3 84.8438 65.5294 128.1549 0.0000 0.0000 0.0000
# 4 0.0000 0.0000 0.0000 51.9355 0.0000 0.0000
# 5 0.0000 0.0000 0.0000 0.0000 268.2761 0.0000
# 6 0.0000 0.0000 0.0000 0.0000 0.0000 25.3996
#
#
#
# Elastic Compliance Matrix: (Units=1/GPa)
#
#
# Indices 1 2 3 4 5 6 
#
# 1 0.008615 -0.001566 -0.004903 0.000000 0.000000 0.000000
# 2 -0.001566 0.015635 -0.006958 0.000000 0.000000 0.000000
# 3 -0.004903 -0.006958 0.014607 0.000000 0.000000 0.000000
# 4 0.000000 0.000000 0.000000 0.019255 0.000000 0.000000
# 5 0.000000 0.000000 0.000000 0.000000 0.003728 0.000000
# 6 0.000000 0.000000 0.000000 0.000000 0.000000 0.039371
#
#
# Mechanical properties :
#
#
# Convention : Reuss Voigt Hill
#
# Bulk Modulus (GPa) = 83.30904 90.26714 86.78809
# Shear Modulus (GPa) = 37.86050 82.16312 60.01181
#
# Velocity S-wave (km/s) = 4.22131 6.21861 5.31463
# Velocity P-wave (km/s) = 7.93535 9.69777 8.86049
#
# Compressibility (1/GPa) = 0.01200350
#
# Stress axis : x y z
#
# Youngs Moduli (GPa) = 116.08274 63.95750 68.46192
#
# Poissons Ratio (x) = 0.10015 0.33564
# Poissons Ratio (y) = 0.18176 0.47637
# Poissons Ratio (z) = 0.56910 0.44503
#
# Static dielectric constant tensor:
#      x y z
#    x 1.734700 0.000000 0.000000 
#    y 0.000000 1.755060 0.000000 
#    z 0.000000 0.000000 1.820890 
# 
# From -- ./inp_files/16147.got.cif
#   From: 2010.05.17/outbox.cif.g08.bks.cpg/sg70_9_cif.got.tgz:16147.got - 2010.06.03 15:57:51.
