data_PCOD9516434
_publ_section_title
;
Structure prediction by ZEFSAII (Michael W. Deem and Ramdas Pophale) SiO2 
 PCOD9516434
Probable space group: F D D D
;
_chemical_formula_sum "Si O2"
_cell_formula_units_Z 96
_cell_length_a 27.075962
_cell_length_b 14.568669
_cell_length_c 9.858588
_cell_angle_alpha 90.000000
_cell_angle_beta 90.000000
_cell_angle_gamma 90.000000
_cell_volume 3888.825802
_symmetry_space_group_name_H-M "F D D D"
_symmetry_group_IT_number 70
_space_group.IT_coordinate_system_code '2'
_symmetry_cell_setting 'orthorhombic'
loop_
_space_group_symop_operation_xyz
x,y,z
1/4-x,1/4-y,z
x,1/4-y,1/4-z
1/4-x,y,1/4-z
-x,-y,-z
3/4+x,3/4+y,-z
-x,3/4+y,3/4+z
3/4+x,-y,3/4+z
x,1/2+y,1/2+z
1/4-x,3/4-y,1/2+z
x,3/4-y,3/4-z
1/4-x,1/2+y,3/4-z
-x,1/2-y,1/2-z
3/4+x,1/4+y,1/2-z
-x,1/4+y,1/4+z
3/4+x,1/2-y,1/4+z
1/2+x,y,1/2+z
3/4-x,1/4-y,1/2+z
1/2+x,1/4-y,3/4-z
3/4-x,y,3/4-z
1/2-x,-y,1/2-z
1/4+x,3/4+y,1/2-z
1/2-x,3/4+y,1/4+z
1/4+x,-y,1/4+z
1/2+x,1/2+y,z
3/4-x,3/4-y,z
1/2+x,3/4-y,1/4-z
3/4-x,1/2+y,1/4-z
1/2-x,1/2-y,-z
1/4+x,1/4+y,-z
1/2-x,1/4+y,3/4+z
1/4+x,1/2-y,3/4+z
loop_
_atom_site_type_symbol
_atom_site_label
_atom_site_fract_x
_atom_site_fract_y
_atom_site_fract_z
Si Si1 0.834147 0.670861 0.986877
Si Si2 0.756774 0.233894 0.839639
Si Si3 0.431019 0.894801 0.631859
O O1 0.853876 0.625000 0.125000
O O2 0.818999 0.773212 0.024165
O O3 0.875000 0.667254 0.875000
O O4 0.789524 0.606019 0.940437
O O5 0.784180 0.312925 0.753085
O O6 0.701721 0.197079 0.809579
O O7 0.750000 0.250000 0.000000
O O8 0.375000 0.875000 0.680196
#
# Coordination Sequence:
#
# PCOD9516434 Si02
#       3
#    32  32  32
#     4  10  25  48  79 113 158 206 268 325 405 469
#     4  11  26  46  78 112 160 200 269 328 400 475
#     4  11  27  50  78 115 161 212 270 330 403 479
#
# _framework density 24.686114
#
# number of rings (size 3 to 8) (size 9 to 14) (size 15 to 20)
#    0.000    1.333    0.000    2.000   14.000    2.000 
#    0.000    0.000    0.000    0.000    0.000    0.000 
#    0.000    0.000    0.000    0.000    0.000    0.000 
#
# Total GULP energy -134170.121118 kJ/mol
# GULP energy per Si atom -5590.421713 kJ/mol
# Density = 2.462993 g / cm^3
# Si number density = 24.686114 Si / 1000 Ang^3
#
#
#
# Elastic Constant Matrix: (Units=GPa)
#
#
# Indices 1 2 3 4 5 6 
#
# 1 136.5646 55.2572 70.4565 0.0000 0.0000 0.0000
# 2 55.2572 103.6053 30.0583 0.0000 0.0000 0.0000
# 3 70.4565 30.0583 170.8500 0.0000 0.0000 0.0000
# 4 0.0000 0.0000 0.0000 26.7612 0.0000 0.0000
# 5 0.0000 0.0000 0.0000 0.0000 50.5342 0.0000
# 6 0.0000 0.0000 0.0000 0.0000 0.0000 13.2103
#
#
#
# Elastic Compliance Matrix: (Units=1/GPa)
#
#
# Indices 1 2 3 4 5 6 
#
# 1 0.011258 -0.004908 -0.003779 0.000000 0.000000 0.000000
# 2 -0.004908 0.012311 -0.000142 0.000000 0.000000 0.000000
# 3 -0.003779 -0.000142 0.007437 0.000000 0.000000 0.000000
# 4 0.000000 0.000000 0.000000 0.037368 0.000000 0.000000
# 5 0.000000 0.000000 0.000000 0.000000 0.019789 0.000000
# 6 0.000000 0.000000 0.000000 0.000000 0.000000 0.075699
#
#
# Mechanical properties :
#
#
# Convention : Reuss Voigt Hill
#
# Bulk Modulus (GPa) = 74.92168 80.28488 77.60328
# Shear Modulus (GPa) = 26.88636 35.11766 31.00201
#
# Velocity S-wave (km/s) = 3.30378 3.77579 3.54764
# Velocity P-wave (km/s) = 6.70588 7.18343 6.94876
#
# Compressibility (1/GPa) = 0.01334727
#
# Stress axis : x y z
#
# Youngs Moduli (GPa) = 88.82358 81.22910 134.47043
#
# Poissons Ratio (x) = 0.39868 0.50820
# Poissons Ratio (y) = 0.43595 0.01908
# Poissons Ratio (z) = 0.33569 0.01152
#
# Static dielectric constant tensor:
#      x y z
#    x 0.000000 0.000000 0.000000 
#    y 0.000000 0.000000 0.000000 
#    z 0.000000 0.000000 0.000000 
# 
# From -- ./inp_files/18387.got.cif
#   From: 2010.05.17/outbox.cif.g08.bks.cpg/sg70_10_cif.got.tgz:18387.got - 2010.06.03 15:57:51.
