data_PCOD9516157
_publ_section_title
;
Structure prediction by ZEFSAII (Michael W. Deem and Ramdas Pophale) SiO2 
 PCOD9516157
Probable space group: F D D D
;
_chemical_formula_sum "Si O2"
_cell_formula_units_Z 176
_cell_length_a 18.922673
_cell_length_b 27.249575
_cell_length_c 14.517294
_cell_angle_alpha 90.000000
_cell_angle_beta 90.000000
_cell_angle_gamma 90.000000
_cell_volume 7485.621946
_symmetry_space_group_name_H-M "F D D D"
_symmetry_group_IT_number 70
_space_group.IT_coordinate_system_code '2'
_symmetry_cell_setting 'orthorhombic'
loop_
_space_group_symop_operation_xyz
x,y,z
1/4-x,1/4-y,z
x,1/4-y,1/4-z
1/4-x,y,1/4-z
-x,-y,-z
3/4+x,3/4+y,-z
-x,3/4+y,3/4+z
3/4+x,-y,3/4+z
x,1/2+y,1/2+z
1/4-x,3/4-y,1/2+z
x,3/4-y,3/4-z
1/4-x,1/2+y,3/4-z
-x,1/2-y,1/2-z
3/4+x,1/4+y,1/2-z
-x,1/4+y,1/4+z
3/4+x,1/2-y,1/4+z
1/2+x,y,1/2+z
3/4-x,1/4-y,1/2+z
1/2+x,1/4-y,3/4-z
3/4-x,y,3/4-z
1/2-x,-y,1/2-z
1/4+x,3/4+y,1/2-z
1/2-x,3/4+y,1/4+z
1/4+x,-y,1/4+z
1/2+x,1/2+y,z
3/4-x,3/4-y,z
1/2+x,3/4-y,1/4-z
3/4-x,1/2+y,1/4-z
1/2-x,1/2-y,-z
1/4+x,1/4+y,-z
1/2-x,1/4+y,3/4+z
1/4+x,1/2-y,3/4+z
loop_
_atom_site_type_symbol
_atom_site_label
_atom_site_fract_x
_atom_site_fract_y
_atom_site_fract_z
Si Si1 0.080045 0.484522 0.976635
Si Si2 0.875000 0.968902 0.875000
Si Si3 0.946629 0.404639 0.525958
Si Si4 0.326869 0.826356 0.733141
Si Si5 0.093694 0.884293 0.765144
Si Si6 0.569594 0.456992 0.268105
O O1 0.128140 0.529129 0.009575
O O2 0.111036 0.432206 0.011022
O O3 0.088652 0.480166 0.866296
O O4 0.000000 0.500000 0.000000
O O5 0.931472 0.939588 0.938899
O O6 0.924096 0.999994 0.805891
O O7 0.875000 0.375000 0.529067
O O8 0.949143 0.428634 0.626691
O O9 0.012354 0.367990 0.514219
O O10 0.375000 0.875000 0.744238
O O11 0.253341 0.822183 0.786249
O O12 0.096198 0.875000 0.875000
O O13 0.127677 0.834135 0.730399
#
# Coordination Sequence:
#
# PCOD9516157 Si02
#       6
#    32  16  32  32  32  32
#     4  11  25  48  74  98 136 189 245 298 358 427
#     4  12  23  40  72 106 148 182 235 276 368 422
#     4  11  24  41  68 106 146 188 227 283 355 431
#     4  11  25  44  69 102 142 177 238 299 354 420
#     4  10  23  43  68  98 141 184 233 285 353 428
#     4  11  25  42  68 106 134 187 234 290 358 421
#
# _framework density 23.511741000000001
#
# number of rings (size 3 to 8) (size 9 to 14) (size 15 to 20)
#    0.000    1.091    1.818    3.545    7.636    2.182 
#    0.000    4.545    0.000    0.000    0.000    0.000 
#    0.000    0.000    0.000    0.000    0.000    0.000 
#
# Total GULP energy -245963.238072 kJ/mol
# GULP energy per Si atom -5590.073593 kJ/mol
# Density = 2.345823 g / cm^3
# Si number density = 23.511741 Si / 1000 Ang^3
#
#
#
# Elastic Constant Matrix: (Units=GPa)
#
#
# Indices 1 2 3 4 5 6 
#
# 1 116.2710 23.6170 -11.9315 0.0000 0.0000 0.0000
# 2 23.6170 85.4515 11.0988 0.0000 0.0000 0.0000
# 3 -11.9315 11.0988 44.6321 0.0000 0.0000 0.0000
# 4 0.0000 0.0000 0.0000 11.6175 0.0000 0.0000
# 5 0.0000 0.0000 0.0000 0.0000 6.0616 0.0000
# 6 0.0000 0.0000 0.0000 0.0000 0.0000 50.3423
#
#
#
# Elastic Compliance Matrix: (Units=1/GPa)
#
#
# Indices 1 2 3 4 5 6 
#
# 1 0.009566 -0.003075 0.003322 0.000000 0.000000 0.000000
# 2 -0.003075 0.013082 -0.004075 0.000000 0.000000 0.000000
# 3 0.003322 -0.004075 0.024307 0.000000 0.000000 0.000000
# 4 0.000000 0.000000 0.000000 0.086077 0.000000 0.000000
# 5 0.000000 0.000000 0.000000 0.000000 0.164973 0.000000
# 6 0.000000 0.000000 0.000000 0.000000 0.000000 0.019864
#
#
# Mechanical properties :
#
#
# Convention : Reuss Voigt Hill
#
# Bulk Modulus (GPa) = 25.44669 32.43591 28.94130
# Shear Modulus (GPa) = 14.76559 28.50897 21.63728
#
# Velocity S-wave (km/s) = 2.50873 3.48593 3.03690
# Velocity P-wave (km/s) = 4.38613 5.47977 4.96316
#
# Compressibility (1/GPa) = 0.03929785
#
# Stress axis : x y z
#
# Youngs Moduli (GPa) = 104.53501 76.44191 41.14058
#
# Poissons Ratio (x) = 0.23509 -0.13667
# Poissons Ratio (y) = 0.32148 0.16766
# Poissons Ratio (z) = -0.34727 0.31152
#
# Static dielectric constant tensor:
#      x y z
#    x 1.884550 0.000000 0.000000 
#    y 0.000000 1.858910 0.000000 
#    z 0.000000 0.000000 2.142290 
# 
# From -- ./inp_files/35251.got.cif
#   From: 2010.05.17/outbox.cif.g08.bks.cpg/sg70_18_cif.got.tgz:35251.got - 2010.06.03 15:57:51.
