data_PCOD9516169
_publ_section_title
;
Structure prediction by ZEFSAII (Michael W. Deem and Ramdas Pophale) SiO2 
 PCOD9516169
Probable space group: F D D D
;
_chemical_formula_sum "Si O2"
_cell_formula_units_Z 160
_cell_length_a 23.318400
_cell_length_b 14.575286
_cell_length_c 22.708308
_cell_angle_alpha 90.000000
_cell_angle_beta 90.000000
_cell_angle_gamma 90.000000
_cell_volume 7717.925983
_symmetry_space_group_name_H-M "F D D D"
_symmetry_group_IT_number 70
_space_group.IT_coordinate_system_code '2'
_symmetry_cell_setting 'orthorhombic'
loop_
_space_group_symop_operation_xyz
x,y,z
1/4-x,1/4-y,z
x,1/4-y,1/4-z
1/4-x,y,1/4-z
-x,-y,-z
3/4+x,3/4+y,-z
-x,3/4+y,3/4+z
3/4+x,-y,3/4+z
x,1/2+y,1/2+z
1/4-x,3/4-y,1/2+z
x,3/4-y,3/4-z
1/4-x,1/2+y,3/4-z
-x,1/2-y,1/2-z
3/4+x,1/4+y,1/2-z
-x,1/4+y,1/4+z
3/4+x,1/2-y,1/4+z
1/2+x,y,1/2+z
3/4-x,1/4-y,1/2+z
1/2+x,1/4-y,3/4-z
3/4-x,y,3/4-z
1/2-x,-y,1/2-z
1/4+x,3/4+y,1/2-z
1/2-x,3/4+y,1/4+z
1/4+x,-y,1/4+z
1/2+x,1/2+y,z
3/4-x,3/4-y,z
1/2+x,3/4-y,1/4-z
3/4-x,1/2+y,1/4-z
1/2-x,1/2-y,-z
1/4+x,1/4+y,-z
1/2-x,1/4+y,3/4+z
1/4+x,1/2-y,3/4+z
loop_
_atom_site_type_symbol
_atom_site_label
_atom_site_fract_x
_atom_site_fract_y
_atom_site_fract_z
Si Si1 0.202623 0.093133 0.916509
Si Si2 0.347774 0.016927 0.113984
Si Si3 0.685636 0.405287 0.655823
Si Si4 0.755036 0.511900 0.477923
Si Si5 0.061642 0.151128 0.694308
O O1 0.185491 0.199787 0.909977
O O2 0.265730 0.079518 0.892054
O O3 0.160180 0.033373 0.873238
O O4 0.209628 0.060837 0.983440
O O5 0.355421 0.125000 0.125000
O O6 0.303967 0.013108 0.057471
O O7 0.625000 0.411470 0.625000
O O8 0.700021 0.308522 0.684108
O O9 0.692284 0.489919 0.700399
O O10 0.734807 0.592514 0.521774
O O11 0.125000 0.125000 0.716128
O O12 0.059194 0.125000 0.625000
#
# Coordination Sequence:
#
# PCOD9516169 Si02
#       5
#    32  32  32  32  32
#     4  10  23  44  66 102 135 164 235 271 328 418
#     4  10  25  45  69  98 132 177 231 284 327 403
#     4  11  22  40  59 100 139 170 219 276 334 414
#     4  11  24  40  69  93 129 183 216 275 348 383
#     4  11  20  35  57  92 135 167 210 266 326 409
#
# _framework density 20.730957
#
# number of rings (size 3 to 8) (size 9 to 14) (size 15 to 20)
#    0.000    1.400    4.000    0.600    8.400    4.000 
#    0.000    6.000    0.000    5.400    0.000    0.000 
#    0.000    0.000    0.000    0.000    0.000    0.000 
#
# Total GULP energy -222802.259970 kJ/mol
# GULP energy per Si atom -5570.056499 kJ/mol
# Density = 2.068377 g / cm^3
# Si number density = 20.730957 Si / 1000 Ang^3
#
#
#
# Elastic Constant Matrix: (Units=GPa)
#
#
# Indices 1 2 3 4 5 6 
#
# 1 103.1364 25.2434 23.5402 0.0000 0.0000 0.0000
# 2 25.2434 110.3267 34.0396 0.0000 0.0000 0.0000
# 3 23.5402 34.0396 47.8417 0.0000 0.0000 0.0000
# 4 0.0000 0.0000 0.0000 20.1399 0.0000 0.0000
# 5 0.0000 0.0000 0.0000 0.0000 2.9839 0.0000
# 6 0.0000 0.0000 0.0000 0.0000 0.0000 9.9477
#
#
#
# Elastic Compliance Matrix: (Units=1/GPa)
#
#
# Indices 1 2 3 4 5 6 
#
# 1 0.011023 -0.001087 -0.004650 0.000000 0.000000 0.000000
# 2 -0.001087 0.011721 -0.007804 0.000000 0.000000 0.000000
# 3 -0.004650 -0.007804 0.028743 0.000000 0.000000 0.000000
# 4 0.000000 0.000000 0.000000 0.049653 0.000000 0.000000
# 5 0.000000 0.000000 0.000000 0.000000 0.335129 0.000000
# 6 0.000000 0.000000 0.000000 0.000000 0.000000 0.100526
#
#
# Mechanical properties :
#
#
# Convention : Reuss Voigt Hill
#
# Bulk Modulus (GPa) = 40.97801 47.43900 44.20851
# Shear Modulus (GPa) = 8.74106 18.51308 13.62707
#
# Velocity S-wave (km/s) = 2.05562 2.99158 2.56662
# Velocity P-wave (km/s) = 5.04416 5.90471 5.49132
#
# Compressibility (1/GPa) = 0.02440333
#
# Stress axis : x y z
#
# Youngs Moduli (GPa) = 90.71557 85.31931 34.79089
#
# Poissons Ratio (x) = 0.09278 0.16179
# Poissons Ratio (y) = 0.09865 0.27152
# Poissons Ratio (z) = 0.42185 0.66585
#
# Static dielectric constant tensor:
#      x y z
#    x 1.760320 0.000000 0.000000 
#    y 0.000000 1.791330 0.000000 
#    z 0.000000 0.000000 1.807170 
# 
# From -- ./inp_files/53556.got.cif
#   From: 2010.05.17/outbox.cif.g08.bks.cpg/sg70_27_cif.got.tgz:53556.got - 2010.06.03 15:57:51.
