data_PCOD9516569
_publ_section_title
;
Structure prediction by ZEFSAII (Michael W. Deem and Ramdas Pophale) SiO2 
 PCOD9516569
Probable space group: F D D D
;
_chemical_formula_sum "Si O2"
_cell_formula_units_Z 96
_cell_length_a 13.193014
_cell_length_b 24.422575
_cell_length_c 15.764569
_cell_angle_alpha 90.000000
_cell_angle_beta 90.000000
_cell_angle_gamma 90.000000
_cell_volume 5079.460378
_symmetry_space_group_name_H-M "F D D D"
_symmetry_group_IT_number 70
_space_group.IT_coordinate_system_code '2'
_symmetry_cell_setting 'orthorhombic'
loop_
_space_group_symop_operation_xyz
x,y,z
1/4-x,1/4-y,z
x,1/4-y,1/4-z
1/4-x,y,1/4-z
-x,-y,-z
3/4+x,3/4+y,-z
-x,3/4+y,3/4+z
3/4+x,-y,3/4+z
x,1/2+y,1/2+z
1/4-x,3/4-y,1/2+z
x,3/4-y,3/4-z
1/4-x,1/2+y,3/4-z
-x,1/2-y,1/2-z
3/4+x,1/4+y,1/2-z
-x,1/4+y,1/4+z
3/4+x,1/2-y,1/4+z
1/2+x,y,1/2+z
3/4-x,1/4-y,1/2+z
1/2+x,1/4-y,3/4-z
3/4-x,y,3/4-z
1/2-x,-y,1/2-z
1/4+x,3/4+y,1/2-z
1/2-x,3/4+y,1/4+z
1/4+x,-y,1/4+z
1/2+x,1/2+y,z
3/4-x,3/4-y,z
1/2+x,3/4-y,1/4-z
3/4-x,1/2+y,1/4-z
1/2-x,1/2-y,-z
1/4+x,1/4+y,-z
1/2-x,1/4+y,3/4+z
1/4+x,1/2-y,3/4+z
loop_
_atom_site_type_symbol
_atom_site_label
_atom_site_fract_x
_atom_site_fract_y
_atom_site_fract_z
Si Si1 0.241020 0.947753 0.635819
Si Si2 0.532786 0.375000 0.875000
Si Si3 0.875000 0.875000 0.736073
Si Si4 0.019436 0.319780 0.830523
O O1 0.125000 0.928416 0.625000
O O2 0.318884 0.918585 0.573316
O O3 0.266806 0.935543 0.734046
O O4 0.243776 0.013252 0.623594
O O5 0.461460 0.352721 0.800114
O O6 0.608461 0.329449 0.913808
O O7 0.981739 0.375000 0.875000
#
# Coordination Sequence:
#
# PCOD9516569 Si02
#       4
#    32  16  16  32
#     4  11  21  38  63  93 123 161 205 254 306 366
#     4   9  20  44  59  86 120 165 202 248 305 354
#     4  11  22  38  65  88 126 160 205 256 294 367
#     4   9  21  40  61  88 125 160 204 251 305 365
#
# _framework density 18.899646000000001
#
# number of rings (size 3 to 8) (size 9 to 14) (size 15 to 20)
#    1.000    1.000    3.333    0.000    0.000    7.333 
#    0.000    0.000    0.000    0.000    0.000    0.000 
#    0.000    0.000    0.000    0.000    0.000    0.000 
#
# Total GULP energy -133661.683660 kJ/mol
# GULP energy per Si atom -5569.236819 kJ/mol
# Density = 1.885663 g / cm^3
# Si number density = 18.899646 Si / 1000 Ang^3
#
#
#
# Elastic Constant Matrix: (Units=GPa)
#
#
# Indices 1 2 3 4 5 6 
#
# 1 118.5142 30.7533 40.3654 0.0000 0.0000 0.0000
# 2 30.7533 109.5896 56.1522 0.0000 0.0000 0.0000
# 3 40.3654 56.1522 102.2943 0.0000 0.0000 0.0000
# 4 0.0000 0.0000 0.0000 20.8239 0.0000 0.0000
# 5 0.0000 0.0000 0.0000 0.0000 -29.7361 0.0000
# 6 0.0000 0.0000 0.0000 0.0000 0.0000 11.6330
#
#
#
# Elastic Compliance Matrix: (Units=1/GPa)
#
#
# Indices 1 2 3 4 5 6 
#
# 1 0.009838 -0.001074 -0.003293 0.000000 0.000000 0.000000
# 2 -0.001074 0.012813 -0.006610 0.000000 0.000000 0.000000
# 3 -0.003293 -0.006610 0.014703 0.000000 0.000000 0.000000
# 4 0.000000 0.000000 0.000000 0.048022 0.000000 0.000000
# 5 0.000000 0.000000 0.000000 0.000000 -0.033629 0.000000
# 6 0.000000 0.000000 0.000000 0.000000 0.000000 0.085962
#
#
# Mechanical properties :
#
#
# Convention : Reuss Voigt Hill
#
# Bulk Modulus (GPa) = 64.92648 64.99332 64.95990
# Shear Modulus (GPa) = 30.34073 14.08599 22.21336
#
# Velocity S-wave (km/s) = 4.01104 2.73299 3.43203
# Velocity P-wave (km/s) = 7.47523 6.66500 7.08172
#
# Compressibility (1/GPa) = 0.01540204
#
# Stress axis : x y z
#
# Youngs Moduli (GPa) = 101.64799 78.04585 68.01189
#
# Poissons Ratio (x) = 0.08379 0.22394
# Poissons Ratio (y) = 0.10913 0.44954
# Poissons Ratio (z) = 0.33470 0.51586
#
# Static dielectric constant tensor:
#      x y z
#    x 1.720790 0.000000 0.000000 
#    y 0.000000 1.621250 0.000000 
#    z 0.000000 0.000000 1.663780 
# 
# From -- ./inp_files/25283.got.cif
#   From: 2010.05.17/outbox.cif.g08.bks.cpg/sg70_13_cif.got.tgz:25283.got - 2010.06.03 15:57:51.
