data_PCOD9516228
_publ_section_title
;
Structure prediction by ZEFSAII (Michael W. Deem and Ramdas Pophale) SiO2 
 PCOD9516228
Probable space group: F D D D
;
_chemical_formula_sum "Si O2"
_cell_formula_units_Z 104
_cell_length_a 32.172944
_cell_length_b 7.117260
_cell_length_c 19.671222
_cell_angle_alpha 90.000000
_cell_angle_beta 90.000000
_cell_angle_gamma 90.000000
_cell_volume 4504.379507
_symmetry_space_group_name_H-M "F D D D"
_symmetry_group_IT_number 70
_space_group.IT_coordinate_system_code '2'
_symmetry_cell_setting 'orthorhombic'
loop_
_space_group_symop_operation_xyz
x,y,z
1/4-x,1/4-y,z
x,1/4-y,1/4-z
1/4-x,y,1/4-z
-x,-y,-z
3/4+x,3/4+y,-z
-x,3/4+y,3/4+z
3/4+x,-y,3/4+z
x,1/2+y,1/2+z
1/4-x,3/4-y,1/2+z
x,3/4-y,3/4-z
1/4-x,1/2+y,3/4-z
-x,1/2-y,1/2-z
3/4+x,1/4+y,1/2-z
-x,1/4+y,1/4+z
3/4+x,1/2-y,1/4+z
1/2+x,y,1/2+z
3/4-x,1/4-y,1/2+z
1/2+x,1/4-y,3/4-z
3/4-x,y,3/4-z
1/2-x,-y,1/2-z
1/4+x,3/4+y,1/2-z
1/2-x,3/4+y,1/4+z
1/4+x,-y,1/4+z
1/2+x,1/2+y,z
3/4-x,3/4-y,z
1/2+x,3/4-y,1/4-z
3/4-x,1/2+y,1/4-z
1/2-x,1/2-y,-z
1/4+x,1/4+y,-z
1/2-x,1/4+y,3/4+z
1/4+x,1/2-y,3/4+z
loop_
_atom_site_type_symbol
_atom_site_label
_atom_site_fract_x
_atom_site_fract_y
_atom_site_fract_z
Si Si1 0.528070 0.125000 0.125000
Si Si2 0.375000 0.375000 0.581644
Si Si3 0.924156 0.132446 0.977137
Si Si4 0.875000 0.875000 0.875000
Si Si5 0.791208 0.328587 0.593885
O O1 0.555404 0.182744 0.058832
O O2 0.496223 0.298925 0.123026
O O3 0.358941 0.541401 0.532378
O O4 0.415263 0.411037 0.628193
O O5 0.902461 0.013345 0.919578
O O6 0.953432 0.978846 0.015064
O O7 0.785591 0.125000 0.625000
#
# Coordination Sequence:
#
# PCOD9516228 Si02
#       5
#    16  16  32   8  32
#     4  12  26  45  74 107 158 184 242 315 382 415
#     4  10  23  47  74  99 143 196 250 294 374 436
#     4  11  25  46  69 110 143 199 246 305 370 446
#     4  12  26  42  76  98 152 184 260 294 368 448
#     4  10  25  44  74 105 142 192 248 300 367 446
#
# _framework density 23.088639000000001
#
# number of rings (size 3 to 8) (size 9 to 14) (size 15 to 20)
#    0.000    1.231    0.000    3.692   12.923    4.923 
#    0.000    0.000    0.000    0.000    0.000    0.000 
#    0.000    0.000    0.000    0.000    0.000    0.000 
#
# Total GULP energy -145065.256530 kJ/mol
# GULP energy per Si atom -5579.432943 kJ/mol
# Density = 2.303609 g / cm^3
# Si number density = 23.088639 Si / 1000 Ang^3
#
#
#
# Elastic Constant Matrix: (Units=GPa)
#
#
# Indices 1 2 3 4 5 6 
#
# 1 108.3924 52.2846 62.2399 0.0001 0.0000 0.0000
# 2 52.2846 134.4359 51.8807 0.0004 0.0000 0.0000
# 3 62.2399 51.8807 132.6206 0.0000 0.0000 0.0000
# 4 0.0001 0.0004 0.0000 -77.9170 0.0000 0.0000
# 5 0.0000 0.0000 0.0000 0.0000 24.2200 0.0000
# 6 0.0000 0.0000 0.0000 0.0000 0.0000 12.7285
#
#
#
# Elastic Compliance Matrix: (Units=1/GPa)
#
#
# Indices 1 2 3 4 5 6 
#
# 1 0.013823 -0.003383 -0.005164 0.000000 0.000000 0.000000
# 2 -0.003383 0.009589 -0.002164 0.000000 0.000000 0.000000
# 3 -0.005164 -0.002164 0.010810 0.000000 0.000000 0.000000
# 4 0.000000 0.000000 0.000000 -0.012834 0.000000 0.000000
# 5 0.000000 0.000000 0.000000 0.000000 0.041288 0.000000
# 6 0.000000 0.000000 0.000000 0.000000 0.000000 0.078564
#
#
# Mechanical properties :
#
#
# Convention : Reuss Voigt Hill
#
# Bulk Modulus (GPa) = 78.11726 78.69547 78.40637
# Shear Modulus (GPa) = 29.95313 5.74253 17.84783
#
# Velocity S-wave (km/s) = 3.60573 1.57879 2.78333
# Velocity P-wave (km/s) = 7.15836 6.12221 6.66046
#
# Compressibility (1/GPa) = 0.01280127
#
# Stress axis : x y z
#
# Youngs Moduli (GPa) = 72.34514 104.28395 92.50717
#
# Poissons Ratio (x) = 0.35281 0.47767
# Poissons Ratio (y) = 0.24476 0.20014
# Poissons Ratio (z) = 0.37356 0.22562
#
# Static dielectric constant tensor:
#      x y z
#    x 1.935480 0.000000 0.000000 
#    y 0.000000 2.042810 0.000000 
#    z 0.000000 0.000000 1.503750 
# 
# From -- ./inp_files/47407.got.cif
#   From: 2010.05.17/outbox.cif.g08.bks.cpg/sg70_24_cif.got.tgz:47407.got - 2010.06.03 15:57:51.
