data_PCOD9516223
_publ_section_title
;
Structure prediction by ZEFSAII (Michael W. Deem and Ramdas Pophale) SiO2 
 PCOD9516223
Probable space group: F D D D
;
_chemical_formula_sum "Si O2"
_cell_formula_units_Z 112
_cell_length_a 15.166873
_cell_length_b 38.086093
_cell_length_c 8.916248
_cell_angle_alpha 90.000000
_cell_angle_beta 90.000000
_cell_angle_gamma 90.000000
_cell_volume 5150.443334
_symmetry_space_group_name_H-M "F D D D"
_symmetry_group_IT_number 70
_space_group.IT_coordinate_system_code '2'
_symmetry_cell_setting 'orthorhombic'
loop_
_space_group_symop_operation_xyz
x,y,z
1/4-x,1/4-y,z
x,1/4-y,1/4-z
1/4-x,y,1/4-z
-x,-y,-z
3/4+x,3/4+y,-z
-x,3/4+y,3/4+z
3/4+x,-y,3/4+z
x,1/2+y,1/2+z
1/4-x,3/4-y,1/2+z
x,3/4-y,3/4-z
1/4-x,1/2+y,3/4-z
-x,1/2-y,1/2-z
3/4+x,1/4+y,1/2-z
-x,1/4+y,1/4+z
3/4+x,1/2-y,1/4+z
1/2+x,y,1/2+z
3/4-x,1/4-y,1/2+z
1/2+x,1/4-y,3/4-z
3/4-x,y,3/4-z
1/2-x,-y,1/2-z
1/4+x,3/4+y,1/2-z
1/2-x,3/4+y,1/4+z
1/4+x,-y,1/4+z
1/2+x,1/2+y,z
3/4-x,3/4-y,z
1/2+x,3/4-y,1/4-z
3/4-x,1/2+y,1/4-z
1/2-x,1/2-y,-z
1/4+x,1/4+y,-z
1/2-x,1/4+y,3/4+z
1/4+x,1/2-y,3/4+z
loop_
_atom_site_type_symbol
_atom_site_label
_atom_site_fract_x
_atom_site_fract_y
_atom_site_fract_z
Si Si1 0.125000 0.843696 0.125000
Si Si2 0.711797 0.610643 0.457920
Si Si3 0.519072 0.788044 0.451889
Si Si4 0.085300 0.712850 0.864063
O O1 0.205039 0.870659 0.110902
O O2 0.157736 0.817194 0.256849
O O3 0.625000 0.625000 0.374839
O O4 0.712047 0.625000 0.625000
O O5 0.700863 0.569148 0.461734
O O6 0.563676 0.749834 0.440775
O O7 0.470239 0.791571 0.291141
O O8 0.438921 0.789562 0.572422
#
# Coordination Sequence:
#
# PCOD9516223 Si02
#       4
#    16  32  32  32
#     4  12  26  42  70 108 129 194 230 283 348 416
#     4  11  26  45  65  98 143 179 227 293 346 408
#     4  10  24  43  72 100 136 181 234 286 351 417
#     4  10  23  47  68 100 138 180 229 293 346 416
#
# _framework density 21.745699999999999
#
# number of rings (size 3 to 8) (size 9 to 14) (size 15 to 20)
#    0.000    1.429    2.857    0.000    8.000    5.714 
#    0.000    0.000    0.000    0.000    0.000    0.000 
#    0.000    0.000    0.000    0.000    0.000    0.000 
#
# Total GULP energy -156293.497635 kJ/mol
# GULP energy per Si atom -5581.910630 kJ/mol
# Density = 2.169621 g / cm^3
# Si number density = 21.745700 Si / 1000 Ang^3
#
#
#
# Elastic Constant Matrix: (Units=GPa)
#
#
# Indices 1 2 3 4 5 6 
#
# 1 132.7425 34.8404 7.4671 0.0000 0.0000 0.0000
# 2 34.8404 67.6929 16.5476 0.0000 0.0000 0.0000
# 3 7.4671 16.5476 30.4121 0.0000 0.0000 0.0000
# 4 0.0000 0.0000 0.0000 22.6818 0.0000 0.0000
# 5 0.0000 0.0000 0.0000 0.0000 10.0374 0.0000
# 6 0.0000 0.0000 0.0000 0.0000 0.0000 141.7038
#
#
#
# Elastic Compliance Matrix: (Units=1/GPa)
#
#
# Indices 1 2 3 4 5 6 
#
# 1 0.008713 -0.004569 0.000347 0.000000 0.000000 0.000000
# 2 -0.004569 0.019435 -0.009453 0.000000 0.000000 0.000000
# 3 0.000347 -0.009453 0.037940 0.000000 0.000000 0.000000
# 4 0.000000 0.000000 0.000000 0.044088 0.000000 0.000000
# 5 0.000000 0.000000 0.000000 0.000000 0.099628 0.000000
# 6 0.000000 0.000000 0.000000 0.000000 0.000000 0.007057
#
#
# Mechanical properties :
#
#
# Convention : Reuss Voigt Hill
#
# Bulk Modulus (GPa) = 25.81483 38.72864 32.27174
# Shear Modulus (GPa) = 19.44584 46.35076 32.89830
#
# Velocity S-wave (km/s) = 2.99363 4.62182 3.89378
# Velocity P-wave (km/s) = 4.88324 6.80662 5.92352
#
# Compressibility (1/GPa) = 0.03873742
#
# Stress axis : x y z
#
# Youngs Moduli (GPa) = 114.76901 51.45321 26.35738
#
# Poissons Ratio (x) = 0.23511 -0.00914
# Poissons Ratio (y) = 0.52441 0.24916
# Poissons Ratio (z) = -0.03981 0.48639
#
# Static dielectric constant tensor:
#      x y z
#    x 1.633790 0.000000 0.000000 
#    y 0.000000 1.849860 0.000000 
#    z 0.000000 0.000000 1.806950 
# 
# From -- ./inp_files/15054.got.cif
#   From: 2010.05.17/outbox.cif.g08.bks.cpg/sg70_8_cif.got.tgz:15054.got - 2010.06.03 15:57:51.
