data_PCOD9516186
_publ_section_title
;
Structure prediction by ZEFSAII (Michael W. Deem and Ramdas Pophale) SiO2 
 PCOD9516186
Probable space group: F D D D
;
_chemical_formula_sum "Si O2"
_cell_formula_units_Z 120
_cell_length_a 16.779166
_cell_length_b 24.308247
_cell_length_c 12.027747
_cell_angle_alpha 90.000000
_cell_angle_beta 90.000000
_cell_angle_gamma 90.000000
_cell_volume 4905.782566
_symmetry_space_group_name_H-M "F D D D"
_symmetry_group_IT_number 70
_space_group.IT_coordinate_system_code '2'
_symmetry_cell_setting 'orthorhombic'
loop_
_space_group_symop_operation_xyz
x,y,z
1/4-x,1/4-y,z
x,1/4-y,1/4-z
1/4-x,y,1/4-z
-x,-y,-z
3/4+x,3/4+y,-z
-x,3/4+y,3/4+z
3/4+x,-y,3/4+z
x,1/2+y,1/2+z
1/4-x,3/4-y,1/2+z
x,3/4-y,3/4-z
1/4-x,1/2+y,3/4-z
-x,1/2-y,1/2-z
3/4+x,1/4+y,1/2-z
-x,1/4+y,1/4+z
3/4+x,1/2-y,1/4+z
1/2+x,y,1/2+z
3/4-x,1/4-y,1/2+z
1/2+x,1/4-y,3/4-z
3/4-x,y,3/4-z
1/2-x,-y,1/2-z
1/4+x,3/4+y,1/2-z
1/2-x,3/4+y,1/4+z
1/4+x,-y,1/4+z
1/2+x,1/2+y,z
3/4-x,3/4-y,z
1/2+x,3/4-y,1/4-z
3/4-x,1/2+y,1/4-z
1/2-x,1/2-y,-z
1/4+x,1/4+y,-z
1/2-x,1/4+y,3/4+z
1/4+x,1/2-y,3/4+z
loop_
_atom_site_type_symbol
_atom_site_label
_atom_site_fract_x
_atom_site_fract_y
_atom_site_fract_z
Si Si1 0.759414 0.375000 0.375000
Si Si2 0.045132 0.321739 0.171820
Si Si3 0.375000 0.875000 0.875000
Si Si4 0.841634 0.279723 0.714090
Si Si5 0.756858 0.438219 0.581661
O O1 0.704721 0.334641 0.448152
O O2 0.800413 0.411553 0.471281
O O3 0.125000 0.296255 0.125000
O O4 0.968378 0.287864 0.137941
O O5 0.033019 0.383139 0.119163
O O6 0.419509 0.917237 0.793843
O O7 0.810312 0.228644 0.785041
O O8 0.930559 0.283181 0.663910
#
# Coordination Sequence:
#
# PCOD9516186 Si02
#       5
#    16  32   8  32  32
#     4   8  22  44  68  93 151 184 232 310 361 431
#     4  10  23  45  65 104 141 184 245 299 366 439
#     4  12  24  46  76 100 140 200 230 328 344 458
#     4  12  26  45  72 107 143 193 254 299 380 439
#     4  10  25  45  70 108 141 198 241 313 365 449
#
# _framework density 24.460930000000001
#
# number of rings (size 3 to 8) (size 9 to 14) (size 15 to 20)
#    1.600    0.000    2.667    0.000    5.600    7.467 
#    0.000    0.000    0.000    0.000    0.000    0.000 
#    0.000    0.000    0.000    0.000    0.000    0.000 
#
# Total GULP energy -167357.044907 kJ/mol
# GULP energy per Si atom -5578.568164 kJ/mol
# Density = 2.440526 g / cm^3
# Si number density = 24.460930 Si / 1000 Ang^3
#
#
#
# Elastic Constant Matrix: (Units=GPa)
#
#
# Indices 1 2 3 4 5 6 
#
# 1 88.6876 13.7401 34.7039 0.0000 0.0000 0.0000
# 2 13.7401 116.2872 9.9395 0.0000 0.0000 0.0000
# 3 34.7039 9.9395 108.7629 0.0000 0.0000 0.0000
# 4 0.0000 0.0000 0.0000 31.3414 0.0000 0.0000
# 5 0.0000 0.0000 0.0000 0.0000 -48.9525 0.0000
# 6 0.0000 0.0000 0.0000 0.0000 0.0000 29.7467
#
#
#
# Elastic Compliance Matrix: (Units=1/GPa)
#
#
# Indices 1 2 3 4 5 6 
#
# 1 0.013047 -0.001195 -0.004054 0.000000 0.000000 0.000000
# 2 -0.001195 0.008777 -0.000421 0.000000 0.000000 0.000000
# 3 -0.004054 -0.000421 0.010526 0.000000 0.000000 0.000000
# 4 0.000000 0.000000 0.000000 0.031907 0.000000 0.000000
# 5 0.000000 0.000000 0.000000 0.000000 -0.020428 0.000000
# 6 0.000000 0.000000 0.000000 0.000000 0.000000 0.033617
#
#
# Mechanical properties :
#
#
# Convention : Reuss Voigt Hill
#
# Bulk Modulus (GPa) = 47.59518 47.83386 47.71452
# Shear Modulus (GPa) = 52.19843 19.45074 35.82458
#
# Velocity S-wave (km/s) = 4.62448 2.82295 3.83111
# Velocity P-wave (km/s) = 6.92924 5.49755 6.25449
#
# Compressibility (1/GPa) = 0.02101053
#
# Stress axis : x y z
#
# Youngs Moduli (GPa) = 76.64632 113.93975 95.00071
#
# Poissons Ratio (x) = 0.13617 0.38511
# Poissons Ratio (y) = 0.09160 0.03997
# Poissons Ratio (z) = 0.31071 0.04794
#
# Static dielectric constant tensor:
#      x y z
#    x 1.882260 0.000000 0.000000 
#    y 0.000000 2.007820 0.000000 
#    z 0.000000 0.000000 2.017850 
# 
# From -- ./inp_files/17815.got.cif
#   From: 2010.05.17/outbox.cif.g08.bks.cpg/sg70_9_cif.got.tgz:17815.got - 2010.06.03 15:57:51.
