data_PCOD9516378
_publ_section_title
;
Structure prediction by ZEFSAII (Michael W. Deem and Ramdas Pophale) SiO2 
 PCOD9516378
Probable space group: F D D D
;
_chemical_formula_sum "Si O2"
_cell_formula_units_Z 160
_cell_length_a 29.799275
_cell_length_b 14.830630
_cell_length_c 14.711034
_cell_angle_alpha 90.000000
_cell_angle_beta 90.000000
_cell_angle_gamma 90.000000
_cell_volume 6501.424109
_symmetry_space_group_name_H-M "F D D D"
_symmetry_group_IT_number 70
_space_group.IT_coordinate_system_code '2'
_symmetry_cell_setting 'orthorhombic'
loop_
_space_group_symop_operation_xyz
x,y,z
1/4-x,1/4-y,z
x,1/4-y,1/4-z
1/4-x,y,1/4-z
-x,-y,-z
3/4+x,3/4+y,-z
-x,3/4+y,3/4+z
3/4+x,-y,3/4+z
x,1/2+y,1/2+z
1/4-x,3/4-y,1/2+z
x,3/4-y,3/4-z
1/4-x,1/2+y,3/4-z
-x,1/2-y,1/2-z
3/4+x,1/4+y,1/2-z
-x,1/4+y,1/4+z
3/4+x,1/2-y,1/4+z
1/2+x,y,1/2+z
3/4-x,1/4-y,1/2+z
1/2+x,1/4-y,3/4-z
3/4-x,y,3/4-z
1/2-x,-y,1/2-z
1/4+x,3/4+y,1/2-z
1/2-x,3/4+y,1/4+z
1/4+x,-y,1/4+z
1/2+x,1/2+y,z
3/4-x,3/4-y,z
1/2+x,3/4-y,1/4-z
3/4-x,1/2+y,1/4-z
1/2-x,1/2-y,-z
1/4+x,1/4+y,-z
1/2-x,1/4+y,3/4+z
1/4+x,1/2-y,3/4+z
loop_
_atom_site_type_symbol
_atom_site_label
_atom_site_fract_x
_atom_site_fract_y
_atom_site_fract_z
Si Si1 0.448629 0.390739 0.716684
Si Si2 0.375000 0.875000 0.083837
Si Si3 0.343342 0.085164 0.521009
Si Si4 0.582688 0.466645 0.748147
Si Si5 0.009821 0.875000 0.875000
Si Si6 0.775980 0.042767 0.334490
O O1 0.414192 0.342708 0.650781
O O2 0.419296 0.480414 0.739120
O O3 0.474083 0.341775 0.798569
O O4 0.487540 0.421146 0.649425
O O5 0.376514 0.785731 0.022332
O O6 0.339494 0.125000 0.625000
O O7 0.391821 0.120537 0.487846
O O8 0.305905 0.131353 0.460380
O O9 0.542835 0.443282 0.820866
O O10 0.558770 0.504983 0.657761
O O11 0.750000 0.000000 0.250000
#
# Coordination Sequence:
#
# PCOD9516378 Si02
#       6
#    32  16  32  32  16  32
#     4  11  26  44  71 104 143 191 252 303 368 445
#     4  12  24  45  75 110 140 188 246 311 373 444
#     4  12  22  47  70 101 146 191 239 301 375 450
#     4  11  24  47  73 104 149 190 242 302 388 447
#     4  10  24  49  70 102 142 198 236 305 366 444
#     4  11  24  43  70 105 141 188 236 298 370 437
#
# _framework density 24.609992999999999
#
# number of rings (size 3 to 8) (size 9 to 14) (size 15 to 20)
#    0.000    0.800    5.000    0.600    5.600    1.200 
#   14.400    4.000    0.000    0.000    0.000    0.000 
#    0.000    0.000    0.000    0.000    0.000    0.000 
#
# Total GULP energy -222897.671585 kJ/mol
# GULP energy per Si atom -5572.441790 kJ/mol
# Density = 2.455398 g / cm^3
# Si number density = 24.609993 Si / 1000 Ang^3
#
#
#
# Elastic Constant Matrix: (Units=GPa)
#
#
# Indices 1 2 3 4 5 6 
#
# 1 123.9705 20.9237 35.8992 0.0000 0.0000 0.0000
# 2 20.9237 47.3415 32.9589 0.0000 0.0000 0.0000
# 3 35.8992 32.9589 111.8098 0.0000 0.0000 0.0000
# 4 0.0000 0.0000 0.0000 21.4198 0.0000 0.0000
# 5 0.0000 0.0000 0.0000 0.0000 119.9118 0.0000
# 6 0.0000 0.0000 0.0000 0.0000 0.0000 12.9258
#
#
#
# Elastic Compliance Matrix: (Units=1/GPa)
#
#
# Indices 1 2 3 4 5 6 
#
# 1 0.009124 -0.002508 -0.002190 0.000000 0.000000 0.000000
# 2 -0.002508 0.027267 -0.007232 0.000000 0.000000 0.000000
# 3 -0.002190 -0.007232 0.011779 0.000000 0.000000 0.000000
# 4 0.000000 0.000000 0.000000 0.046686 0.000000 0.000000
# 5 0.000000 0.000000 0.000000 0.000000 0.008339 0.000000
# 6 0.000000 0.000000 0.000000 0.000000 0.000000 0.077364
#
#
# Mechanical properties :
#
#
# Convention : Reuss Voigt Hill
#
# Bulk Modulus (GPa) = 41.13742 51.40950 46.27346
# Shear Modulus (GPa) = 23.52688 43.74081 33.63385
#
# Velocity S-wave (km/s) = 3.09526 4.22045 3.70087
# Velocity P-wave (km/s) = 5.43380 6.68466 6.09142
#
# Compressibility (1/GPa) = 0.02430877
#
# Stress axis : x y z
#
# Youngs Moduli (GPa) = 109.60186 36.67493 84.89733
#
# Poissons Ratio (x) = 0.09197 0.18595
# Poissons Ratio (y) = 0.27485 0.61401
# Poissons Ratio (z) = 0.24006 0.26525
#
# Static dielectric constant tensor:
#      x y z
#    x 2.070020 0.000000 0.000000 
#    y 0.000000 1.964880 0.000000 
#    z 0.000000 0.000000 2.075190 
# 
# From -- ./inp_files/30930.got.cif
#   From: 2010.05.17/outbox.cif.g08.bks.cpg/sg70_16_cif.got.tgz:30930.got - 2010.06.03 15:57:51.
