data_PCOD9516323
_publ_section_title
;
Structure prediction by ZEFSAII (Michael W. Deem and Ramdas Pophale) SiO2 
 PCOD9516323
Probable space group: F D D D
;
_chemical_formula_sum "Si O2"
_cell_formula_units_Z 176
_cell_length_a 21.702442
_cell_length_b 14.482273
_cell_length_c 24.152932
_cell_angle_alpha 90.000000
_cell_angle_beta 90.000000
_cell_angle_gamma 90.000000
_cell_volume 7591.283189
_symmetry_space_group_name_H-M "F D D D"
_symmetry_group_IT_number 70
_space_group.IT_coordinate_system_code '2'
_symmetry_cell_setting 'orthorhombic'
loop_
_space_group_symop_operation_xyz
x,y,z
1/4-x,1/4-y,z
x,1/4-y,1/4-z
1/4-x,y,1/4-z
-x,-y,-z
3/4+x,3/4+y,-z
-x,3/4+y,3/4+z
3/4+x,-y,3/4+z
x,1/2+y,1/2+z
1/4-x,3/4-y,1/2+z
x,3/4-y,3/4-z
1/4-x,1/2+y,3/4-z
-x,1/2-y,1/2-z
3/4+x,1/4+y,1/2-z
-x,1/4+y,1/4+z
3/4+x,1/2-y,1/4+z
1/2+x,y,1/2+z
3/4-x,1/4-y,1/2+z
1/2+x,1/4-y,3/4-z
3/4-x,y,3/4-z
1/2-x,-y,1/2-z
1/4+x,3/4+y,1/2-z
1/2-x,3/4+y,1/4+z
1/4+x,-y,1/4+z
1/2+x,1/2+y,z
3/4-x,3/4-y,z
1/2+x,3/4-y,1/4-z
3/4-x,1/2+y,1/4-z
1/2-x,1/2-y,-z
1/4+x,1/4+y,-z
1/2-x,1/4+y,3/4+z
1/4+x,1/2-y,3/4+z
loop_
_atom_site_type_symbol
_atom_site_label
_atom_site_fract_x
_atom_site_fract_y
_atom_site_fract_z
Si Si1 0.767308 0.721499 0.654631
Si Si2 0.896334 0.477398 0.553925
Si Si3 0.640292 0.759371 0.687725
Si Si4 0.625000 0.625000 0.773097
Si Si5 0.640323 0.775674 0.185554
Si Si6 0.021372 0.177374 0.396211
O O1 0.754912 0.625000 0.625000
O O2 0.837042 0.713396 0.677364
O O3 0.711877 0.734973 0.698081
O O4 0.761056 0.818262 0.619814
O O5 0.875000 0.375000 0.569016
O O6 0.894533 0.481235 0.487490
O O7 0.958513 0.484404 0.590541
O O8 0.625000 0.730991 0.625000
O O9 0.599816 0.703489 0.731586
O O10 0.631387 0.868044 0.689686
O O11 0.578913 0.573107 0.813312
O O12 0.625000 0.737308 0.125000
O O13 0.714095 0.782393 0.180325
#
# Coordination Sequence:
#
# PCOD9516323 Si02
#       6
#    32  32  32  16  32  32
#     4  11  21  41  68  97 137 176 215 277 350 405
#     4  10  24  45  68  93 137 179 235 295 330 394
#     4  11  23  39  62 102 139 171 218 268 348 421
#     4  12  23  38  68  94 141 176 212 278 348 420
#     4  11  24  43  69  96 136 181 232 280 346 408
#     4  11  23  44  65 102 136 177 234 283 335 421
#
# _framework density 23.184487000000001
#
# number of rings (size 3 to 8) (size 9 to 14) (size 15 to 20)
#    0.000    1.091    6.364    2.455    2.545    1.818 
#    0.000    0.000    4.000    0.000    0.000    0.000 
#    0.000    0.000    0.000    0.000    0.000    0.000 
#
# Total GULP energy -245333.854777 kJ/mol
# GULP energy per Si atom -5575.769427 kJ/mol
# Density = 2.313172 g / cm^3
# Si number density = 23.184487 Si / 1000 Ang^3
#
#
#
# Elastic Constant Matrix: (Units=GPa)
#
#
# Indices 1 2 3 4 5 6 
#
# 1 87.9351 14.2995 30.0944 0.0000 0.0000 0.0000
# 2 14.2995 37.4188 22.6133 0.0000 0.0000 0.0000
# 3 30.0944 22.6133 147.8218 0.0000 0.0000 0.0000
# 4 0.0000 0.0000 0.0000 13.9058 0.0000 0.0000
# 5 0.0000 0.0000 0.0000 0.0000 -114.8533 0.0000
# 6 0.0000 0.0000 0.0000 0.0000 0.0000 21.4040
#
#
#
# Elastic Compliance Matrix: (Units=1/GPa)
#
#
# Indices 1 2 3 4 5 6 
#
# 1 0.012652 -0.003612 -0.002023 0.000000 0.000000 0.000000
# 2 -0.003612 0.030478 -0.003927 0.000000 0.000000 0.000000
# 3 -0.002023 -0.003927 0.007778 0.000000 0.000000 0.000000
# 4 0.000000 0.000000 0.000000 0.071913 0.000000 0.000000
# 5 0.000000 0.000000 0.000000 0.000000 -0.008707 0.000000
# 6 0.000000 0.000000 0.000000 0.000000 0.000000 0.046720
#
#
# Mechanical properties :
#
#
# Convention : Reuss Voigt Hill
#
# Bulk Modulus (GPa) = 31.46369 45.24335 38.35352
# Shear Modulus (GPa) = 26.23947 -2.16416 12.03766
#
# Velocity S-wave (km/s) = 3.36783 -0.96720 2.28109
# Velocity P-wave (km/s) = 5.35943 4.27897 4.84938
#
# Compressibility (1/GPa) = 0.03178267
#
# Stress axis : x y z
#
# Youngs Moduli (GPa) = 79.04003 32.81038 128.57542
#
# Poissons Ratio (x) = 0.11852 0.26013
# Poissons Ratio (y) = 0.28551 0.50492
# Poissons Ratio (z) = 0.15991 0.12885
#
# Static dielectric constant tensor:
#      x y z
#    x 2.018620 0.000000 0.000000 
#    y 0.000000 1.877650 0.000000 
#    z 0.000000 0.000000 1.930510 
# 
# From -- ./inp_files/53640.got.cif
#   From: 2010.05.17/outbox.cif.g08.bks.cpg/sg70_27_cif.got.tgz:53640.got - 2010.06.03 15:57:51.
