data_PCOD9516787
_publ_section_title
;
Structure prediction by ZEFSAII (Michael W. Deem and Ramdas Pophale) SiO2 
 PCOD9516787
Probable space group: F D D D
;
_chemical_formula_sum "Si O2"
_cell_formula_units_Z 160
_cell_length_a 18.482707
_cell_length_b 19.978101
_cell_length_c 19.127354
_cell_angle_alpha 90.000000
_cell_angle_beta 90.000000
_cell_angle_gamma 90.000000
_cell_volume 7062.763743
_symmetry_space_group_name_H-M "F D D D"
_symmetry_group_IT_number 70
_space_group.IT_coordinate_system_code '2'
_symmetry_cell_setting 'orthorhombic'
loop_
_space_group_symop_operation_xyz
x,y,z
1/4-x,1/4-y,z
x,1/4-y,1/4-z
1/4-x,y,1/4-z
-x,-y,-z
3/4+x,3/4+y,-z
-x,3/4+y,3/4+z
3/4+x,-y,3/4+z
x,1/2+y,1/2+z
1/4-x,3/4-y,1/2+z
x,3/4-y,3/4-z
1/4-x,1/2+y,3/4-z
-x,1/2-y,1/2-z
3/4+x,1/4+y,1/2-z
-x,1/4+y,1/4+z
3/4+x,1/2-y,1/4+z
1/2+x,y,1/2+z
3/4-x,1/4-y,1/2+z
1/2+x,1/4-y,3/4-z
3/4-x,y,3/4-z
1/2-x,-y,1/2-z
1/4+x,3/4+y,1/2-z
1/2-x,3/4+y,1/4+z
1/4+x,-y,1/4+z
1/2+x,1/2+y,z
3/4-x,3/4-y,z
1/2+x,3/4-y,1/4-z
3/4-x,1/2+y,1/4-z
1/2-x,1/2-y,-z
1/4+x,1/4+y,-z
1/2-x,1/4+y,3/4+z
1/4+x,1/2-y,3/4+z
loop_
_atom_site_type_symbol
_atom_site_label
_atom_site_fract_x
_atom_site_fract_y
_atom_site_fract_z
Si Si1 0.451623 0.908839 0.654896
Si Si2 0.796624 0.743444 0.283108
Si Si3 0.063992 0.265837 0.182913
Si Si4 0.287748 0.722712 0.931303
Si Si5 0.981166 0.639705 0.704918
O O1 0.375000 0.875000 0.636414
O O2 0.487465 0.959773 0.600429
O O3 0.509272 0.850297 0.663524
O O4 0.446762 0.947069 0.728359
O O5 0.878017 0.721064 0.301097
O O6 0.768116 0.762779 0.360014
O O7 0.758034 0.680321 0.245691
O O8 0.125000 0.273542 0.125000
O O9 0.074029 0.314901 0.248978
O O10 0.051251 0.188096 0.200583
O O11 0.250000 0.750000 0.000000
O O12 0.958456 0.625000 0.625000
#
# Coordination Sequence:
#
# PCOD9516787 Si02
#       5
#    32  32  32  32  32
#     4  12  24  46  73 105 138 186 241 297 360 427
#     4  11  24  47  71 102 149 178 243 297 355 435
#     4  11  25  49  74 101 151 194 237 300 373 432
#     4  11  24  47  71  98 140 193 230 300 362 415
#     4  11  23  46  71 106 143 189 241 294 353 444
#
# _framework density 22.654022000000001
#
# number of rings (size 3 to 8) (size 9 to 14) (size 15 to 20)
#    0.000    0.800    6.000    1.200    0.000    1.200 
#   25.200    0.000    0.000    0.000    0.000    0.000 
#    0.000    0.000    0.000    0.000    0.000    0.000 
#
# Total GULP energy -223546.248338 kJ/mol
# GULP energy per Si atom -5588.656208 kJ/mol
# Density = 2.260246 g / cm^3
# Si number density = 22.654022 Si / 1000 Ang^3
#
#
#
# Elastic Constant Matrix: (Units=GPa)
#
#
# Indices 1 2 3 4 5 6 
#
# 1 45.1183 7.2900 45.2524 0.0000 0.0000 0.0000
# 2 7.2900 26.0628 21.0074 0.0000 0.0000 0.0000
# 3 45.2524 21.0074 182.6104 0.0000 0.0000 0.0000
# 4 0.0000 0.0000 0.0000 26.6402 0.0000 0.0000
# 5 0.0000 0.0000 0.0000 0.0000 31.2656 0.0000
# 6 0.0000 0.0000 0.0000 0.0000 0.0000 25.9915
#
#
#
# Elastic Compliance Matrix: (Units=1/GPa)
#
#
# Indices 1 2 3 4 5 6 
#
# 1 0.029655 -0.002614 -0.007048 0.000000 0.000000 0.000000
# 2 -0.002614 0.042521 -0.004244 0.000000 0.000000 0.000000
# 3 -0.007048 -0.004244 0.007711 0.000000 0.000000 0.000000
# 4 0.000000 0.000000 0.000000 0.037537 0.000000 0.000000
# 5 0.000000 0.000000 0.000000 0.000000 0.031984 0.000000
# 6 0.000000 0.000000 0.000000 0.000000 0.000000 0.038474
#
#
# Mechanical properties :
#
#
# Convention : Reuss Voigt Hill
#
# Bulk Modulus (GPa) = 19.20294 44.54345 31.87320
# Shear Modulus (GPa) = 21.45441 28.79559 25.12500
#
# Velocity S-wave (km/s) = 3.08075 3.56912 3.33389
# Velocity P-wave (km/s) = 4.59888 6.05723 5.37772
#
# Compressibility (1/GPa) = 0.05207536
#
# Stress axis : x y z
#
# Youngs Moduli (GPa) = 33.72069 23.51802 129.68583
#
# Poissons Ratio (x) = 0.06147 0.91405
# Poissons Ratio (y) = 0.08814 0.55036
# Poissons Ratio (z) = 0.23767 0.09981
#
# Static dielectric constant tensor:
#      x y z
#    x 1.850330 0.000000 0.000000 
#    y 0.000000 1.804640 0.000000 
#    z 0.000000 0.000000 1.964610 
# 
# From -- ./inp_files/36307.got.cif
#   From: 2010.05.17/outbox.cif.g08.bks.cpg/sg70_19_cif.got.tgz:36307.got - 2010.06.03 15:57:51.
