data_PCOD9516090
_publ_section_title
;
Structure prediction by ZEFSAII (Michael W. Deem and Ramdas Pophale) SiO2 
 PCOD9516090
Probable space group: F D D D
;
_chemical_formula_sum "Si O2"
_cell_formula_units_Z 192
_cell_length_a 20.708550
_cell_length_b 22.214707
_cell_length_c 16.414770
_cell_angle_alpha 90.000000
_cell_angle_beta 90.000000
_cell_angle_gamma 90.000000
_cell_volume 7551.358386
_symmetry_space_group_name_H-M "F D D D"
_symmetry_group_IT_number 70
_space_group.IT_coordinate_system_code '2'
_symmetry_cell_setting 'orthorhombic'
loop_
_space_group_symop_operation_xyz
x,y,z
1/4-x,1/4-y,z
x,1/4-y,1/4-z
1/4-x,y,1/4-z
-x,-y,-z
3/4+x,3/4+y,-z
-x,3/4+y,3/4+z
3/4+x,-y,3/4+z
x,1/2+y,1/2+z
1/4-x,3/4-y,1/2+z
x,3/4-y,3/4-z
1/4-x,1/2+y,3/4-z
-x,1/2-y,1/2-z
3/4+x,1/4+y,1/2-z
-x,1/4+y,1/4+z
3/4+x,1/2-y,1/4+z
1/2+x,y,1/2+z
3/4-x,1/4-y,1/2+z
1/2+x,1/4-y,3/4-z
3/4-x,y,3/4-z
1/2-x,-y,1/2-z
1/4+x,3/4+y,1/2-z
1/2-x,3/4+y,1/4+z
1/4+x,-y,1/4+z
1/2+x,1/2+y,z
3/4-x,3/4-y,z
1/2+x,3/4-y,1/4-z
3/4-x,1/2+y,1/4-z
1/2-x,1/2-y,-z
1/4+x,1/4+y,-z
1/2-x,1/4+y,3/4+z
1/4+x,1/2-y,3/4+z
loop_
_atom_site_type_symbol
_atom_site_label
_atom_site_fract_x
_atom_site_fract_y
_atom_site_fract_z
Si Si1 0.201819 0.303946 0.478690
Si Si2 0.975439 0.497599 0.191451
Si Si3 0.777560 0.042920 0.667034
Si Si4 0.851289 0.443916 0.248065
Si Si5 0.313066 0.656412 0.759459
Si Si6 0.807678 0.895671 0.469601
O O1 0.250000 0.250000 0.500000
O O2 0.194748 0.462898 0.367615
O O3 0.134357 0.316793 0.521620
O O4 0.244546 0.361606 0.497296
O O5 0.916392 0.483034 0.250206
O O6 0.010563 0.432930 0.177366
O O7 0.037177 0.535708 0.221230
O O8 0.700700 0.050120 0.680140
O O9 0.808584 0.085382 0.738978
O O10 0.793177 0.067986 0.579115
O O11 0.808179 0.976561 0.677354
O O12 0.875000 0.375000 0.236936
O O13 0.812483 0.875000 0.375000
O O14 0.875000 0.875000 0.508803
#
# Coordination Sequence:
#
# PCOD9516090 Si02
#       6
#    32  32  32  32  32  32
#     4  11  23  40  64  97 129 170 216 275 339 406
#     4  11  22  40  64  93 131 171 217 276 331 393
#     4  10  23  40  68  96 132 176 233 270 335 406
#     4  11  21  42  65  97 132 176 220 283 332 388
#     4  11  22  41  66  97 128 184 221 274 338 407
#     4   9  19  37  62  89 120 165 215 265 324 397
#
# _framework density 25.425888
#
# number of rings (size 3 to 8) (size 9 to 14) (size 15 to 20)
#    0.000    1.500    3.333    2.000    4.667    2.667 
#    3.000    0.000    0.000    4.000    0.000    0.000 
#    0.000    0.000    0.000    0.000    0.000    0.000 
#
# Total GULP energy -267787.884063 kJ/mol
# GULP energy per Si atom -5578.914251 kJ/mol
# Density = 2.536802 g / cm^3
# Si number density = 25.425888 Si / 1000 Ang^3
#
#
#
# Elastic Constant Matrix: (Units=GPa)
#
#
# Indices 1 2 3 4 5 6 
#
# 1 212.5869 39.9472 14.9525 0.0000 0.0000 0.0000
# 2 39.9472 112.5337 18.3230 0.0000 0.0000 0.0000
# 3 14.9525 18.3230 46.5768 0.0000 0.0000 0.0000
# 4 0.0000 0.0000 0.0000 22.2675 0.0000 0.0000
# 5 0.0000 0.0000 0.0000 0.0000 20.4467 0.0000
# 6 0.0000 0.0000 0.0000 0.0000 0.0000 10.3868
#
#
#
# Elastic Compliance Matrix: (Units=1/GPa)
#
#
# Indices 1 2 3 4 5 6 
#
# 1 0.005082 -0.001644 -0.000985 0.000000 0.000000 0.000000
# 2 -0.001644 0.010026 -0.003416 0.000000 0.000000 0.000000
# 3 -0.000985 -0.003416 0.023130 0.000000 0.000000 0.000000
# 4 0.000000 0.000000 0.000000 0.044908 0.000000 0.000000
# 5 0.000000 0.000000 0.000000 0.000000 0.048908 0.000000
# 6 0.000000 0.000000 0.000000 0.000000 0.000000 0.096276
#
#
# Mechanical properties :
#
#
# Convention : Reuss Voigt Hill
#
# Bulk Modulus (GPa) = 38.24370 57.57144 47.90757
# Shear Modulus (GPa) = 20.06930 30.51852 25.29391
#
# Velocity S-wave (km/s) = 2.81254 3.46828 3.15748
# Velocity P-wave (km/s) = 5.06173 6.22340 5.67238
#
# Compressibility (1/GPa) = 0.02614810
#
# Stress axis : x y z
#
# Youngs Moduli (GPa) = 196.76927 99.74087 43.23362
#
# Poissons Ratio (x) = 0.16394 0.04258
# Poissons Ratio (y) = 0.32343 0.14771
# Poissons Ratio (z) = 0.19379 0.34076
#
# Static dielectric constant tensor:
#      x y z
#    x 1.978620 0.000000 0.000000 
#    y 0.000000 1.931430 0.000000 
#    z 0.000000 0.000000 2.087400 
# 
# From -- ./inp_files/60476.got.cif
#   From: 2010.05.17/outbox.cif.g08.bks.cpg/sg70_31_cif.got.tgz:60476.got - 2010.06.03 15:57:51.
