data_PCOD9516431
_publ_section_title
;
Structure prediction by ZEFSAII (Michael W. Deem and Ramdas Pophale) SiO2 
 PCOD9516431
Probable space group: F D D D
;
_chemical_formula_sum "Si O2"
_cell_formula_units_Z 112
_cell_length_a 13.150187
_cell_length_b 23.356260
_cell_length_c 14.893528
_cell_angle_alpha 90.000000
_cell_angle_beta 90.000000
_cell_angle_gamma 90.000000
_cell_volume 4574.386076
_symmetry_space_group_name_H-M "F D D D"
_symmetry_group_IT_number 70
_space_group.IT_coordinate_system_code '2'
_symmetry_cell_setting 'orthorhombic'
loop_
_space_group_symop_operation_xyz
x,y,z
1/4-x,1/4-y,z
x,1/4-y,1/4-z
1/4-x,y,1/4-z
-x,-y,-z
3/4+x,3/4+y,-z
-x,3/4+y,3/4+z
3/4+x,-y,3/4+z
x,1/2+y,1/2+z
1/4-x,3/4-y,1/2+z
x,3/4-y,3/4-z
1/4-x,1/2+y,3/4-z
-x,1/2-y,1/2-z
3/4+x,1/4+y,1/2-z
-x,1/4+y,1/4+z
3/4+x,1/2-y,1/4+z
1/2+x,y,1/2+z
3/4-x,1/4-y,1/2+z
1/2+x,1/4-y,3/4-z
3/4-x,y,3/4-z
1/2-x,-y,1/2-z
1/4+x,3/4+y,1/2-z
1/2-x,3/4+y,1/4+z
1/4+x,-y,1/4+z
1/2+x,1/2+y,z
3/4-x,3/4-y,z
1/2+x,3/4-y,1/4-z
3/4-x,1/2+y,1/4-z
1/2-x,1/2-y,-z
1/4+x,1/4+y,-z
1/2-x,1/4+y,3/4+z
1/4+x,1/2-y,3/4+z
loop_
_atom_site_type_symbol
_atom_site_label
_atom_site_fract_x
_atom_site_fract_y
_atom_site_fract_z
Si Si1 0.649539 0.375000 0.875000
Si Si2 0.984862 0.022103 0.899105
Si Si3 0.739677 0.141757 0.785766
Si Si4 0.703093 0.995970 0.348325
O O1 0.574206 0.384239 0.790597
O O2 0.716360 0.317904 0.862856
O O3 0.875000 0.999229 0.875000
O O4 0.986895 0.090604 0.894862
O O5 0.080885 0.002026 0.843461
O O6 0.000000 0.000000 0.000000
O O7 0.625000 0.125000 0.753032
O O8 0.738203 0.202433 0.836746
O O9 0.750000 0.000000 0.250000
#
# Coordination Sequence:
#
# PCOD9516431 Si02
#       4
#    16  32  32  32
#     4  12  25  46  84 113 160 220 274 337 431 496
#     4  11  25  48  80 116 157 214 278 338 410 498
#     4  10  25  47  77 114 158 208 278 342 407 503
#     4  11  28  48  76 123 167 214 272 354 427 500
#
# _framework density 24.484159999999999
#
# number of rings (size 3 to 8) (size 9 to 14) (size 15 to 20)
#    0.000    1.143    2.857    0.429   12.000    0.000 
#   10.286    0.000    0.000    1.714    0.000    0.000 
#    0.000    0.000    0.000    0.000    0.000    0.000 
#
# Total GULP energy -156840.945362 kJ/mol
# GULP energy per Si atom -5601.462334 kJ/mol
# Density = 2.442843 g / cm^3
# Si number density = 24.484160 Si / 1000 Ang^3
#
#
#
# Elastic Constant Matrix: (Units=GPa)
#
#
# Indices 1 2 3 4 5 6 
#
# 1 115.8744 18.2308 70.0767 0.0000 0.0000 0.0000
# 2 18.2308 244.9299 71.7072 0.0000 0.0000 0.0000
# 3 70.0767 71.7072 136.3574 0.0000 0.0000 0.0000
# 4 0.0000 0.0000 0.0000 39.2827 0.0000 0.0000
# 5 0.0000 0.0000 0.0000 0.0000 65.0672 0.0000
# 6 0.0000 0.0000 0.0000 0.0000 0.0000 30.6613
#
#
#
# Elastic Compliance Matrix: (Units=1/GPa)
#
#
# Indices 1 2 3 4 5 6 
#
# 1 0.012790 0.001149 -0.007177 0.000000 0.000000 0.000000
# 2 0.001149 0.004929 -0.003183 0.000000 0.000000 0.000000
# 3 -0.007177 -0.003183 0.012696 0.000000 0.000000 0.000000
# 4 0.000000 0.000000 0.000000 0.025456 0.000000 0.000000
# 5 0.000000 0.000000 0.000000 0.000000 0.015369 0.000000
# 6 0.000000 0.000000 0.000000 0.000000 0.000000 0.032614
#
#
# Mechanical properties :
#
#
# Convention : Reuss Voigt Hill
#
# Bulk Modulus (GPa) = 83.37974 90.79901 87.08938
# Shear Modulus (GPa) = 39.59654 49.47871 44.53763
#
# Velocity S-wave (km/s) = 4.02584 4.50026 4.26965
# Velocity P-wave (km/s) = 7.46581 8.01052 7.74296
#
# Compressibility (1/GPa) = 0.01199332
#
# Stress axis : x y z
#
# Youngs Moduli (GPa) = 78.18739 202.87888 78.76528
#
# Poissons Ratio (x) = -0.23317 0.56532
# Poissons Ratio (y) = -0.08986 0.25069
# Poissons Ratio (z) = 0.56118 0.64571
#
# Static dielectric constant tensor:
#      x y z
#    x 1.938850 0.000000 0.000000 
#    y 0.000000 2.155700 0.000000 
#    z 0.000000 0.000000 1.896190 
# 
# From -- ./inp_files/25223.got.cif
#   From: 2010.05.17/outbox.cif.g08.bks.cpg/sg70_13_cif.got.tgz:25223.got - 2010.06.03 15:57:51.
