data_PCOD9516571
_publ_section_title
;
Structure prediction by ZEFSAII (Michael W. Deem and Ramdas Pophale) SiO2 
 PCOD9516571
Probable space group: F D D D
;
_chemical_formula_sum "Si O2"
_cell_formula_units_Z 152
_cell_length_a 23.094764
_cell_length_b 25.824658
_cell_length_c 13.244915
_cell_angle_alpha 90.000000
_cell_angle_beta 90.000000
_cell_angle_gamma 90.000000
_cell_volume 7899.457793
_symmetry_space_group_name_H-M "F D D D"
_symmetry_group_IT_number 70
_space_group.IT_coordinate_system_code '2'
_symmetry_cell_setting 'orthorhombic'
loop_
_space_group_symop_operation_xyz
x,y,z
1/4-x,1/4-y,z
x,1/4-y,1/4-z
1/4-x,y,1/4-z
-x,-y,-z
3/4+x,3/4+y,-z
-x,3/4+y,3/4+z
3/4+x,-y,3/4+z
x,1/2+y,1/2+z
1/4-x,3/4-y,1/2+z
x,3/4-y,3/4-z
1/4-x,1/2+y,3/4-z
-x,1/2-y,1/2-z
3/4+x,1/4+y,1/2-z
-x,1/4+y,1/4+z
3/4+x,1/2-y,1/4+z
1/2+x,y,1/2+z
3/4-x,1/4-y,1/2+z
1/2+x,1/4-y,3/4-z
3/4-x,y,3/4-z
1/2-x,-y,1/2-z
1/4+x,3/4+y,1/2-z
1/2-x,3/4+y,1/4+z
1/4+x,-y,1/4+z
1/2+x,1/2+y,z
3/4-x,3/4-y,z
1/2+x,3/4-y,1/4-z
3/4-x,1/2+y,1/4-z
1/2-x,1/2-y,-z
1/4+x,1/4+y,-z
1/2-x,1/4+y,3/4+z
1/4+x,1/2-y,3/4+z
loop_
_atom_site_type_symbol
_atom_site_label
_atom_site_fract_x
_atom_site_fract_y
_atom_site_fract_z
Si Si1 0.702935 0.988235 0.336644
Si Si2 0.224036 0.179338 0.750305
Si Si3 0.125000 0.125000 0.625000
Si Si4 0.487414 0.842171 0.585943
Si Si5 0.676046 0.287375 0.295600
Si Si6 0.255603 0.625000 0.625000
O O1 0.642226 0.968022 0.296341
O O2 0.695049 0.044978 0.386867
O O3 0.729447 0.947622 0.416764
O O4 0.750000 0.000000 0.250000
O O5 0.167065 0.159783 0.692209
O O6 0.242602 0.133602 0.825358
O O7 0.205663 0.231643 0.806850
O O8 0.547826 0.813451 0.556328
O O9 0.471162 0.868340 0.478966
O O10 0.701917 0.325499 0.380193
#
# Coordination Sequence:
#
# PCOD9516571 Si02
#       6
#    32  32   8  32  32  16
#     4  11  22  38  59  93 129 167 215 270 325 386
#     4  11  21  38  65  90 126 171 215 261 336 385
#     4  12  24  38  60 102 124 164 214 280 308 394
#     4   9  21  40  63  89 123 171 212 265 326 386
#     4   9  21  40  59  89 127 164 210 267 320 379
#     4   8  20  43  60  89 126 167 207 272 314 380
#
# _framework density 19.241827000000001
#
# number of rings (size 3 to 8) (size 9 to 14) (size 15 to 20)
#    1.263    0.842    0.000    3.789    0.000    5.895 
#    3.789    0.000    0.000    4.421    0.000    0.000 
#    0.000    0.000    0.000    0.000    0.000    0.000 
#
# Total GULP energy -211721.605009 kJ/mol
# GULP energy per Si atom -5571.621184 kJ/mol
# Density = 1.919803 g / cm^3
# Si number density = 19.241827 Si / 1000 Ang^3
#
#
#
# Elastic Constant Matrix: (Units=GPa)
#
#
# Indices 1 2 3 4 5 6 
#
# 1 63.8712 32.6164 20.4573 0.0000 0.0000 0.0000
# 2 32.6164 137.3683 48.9402 0.0000 0.0000 0.0000
# 3 20.4573 48.9402 91.2387 0.0000 0.0000 0.0000
# 4 0.0000 0.0000 0.0000 41.9441 0.0000 0.0000
# 5 0.0000 0.0000 0.0000 0.0000 27.3247 0.0000
# 6 0.0000 0.0000 0.0000 0.0000 0.0000 17.1809
#
#
#
# Elastic Compliance Matrix: (Units=1/GPa)
#
#
# Indices 1 2 3 4 5 6 
#
# 1 0.018159 -0.003537 -0.002174 0.000000 0.000000 0.000000
# 2 -0.003537 0.009688 -0.004404 0.000000 0.000000 0.000000
# 3 -0.002174 -0.004404 0.013810 0.000000 0.000000 0.000000
# 4 0.000000 0.000000 0.000000 0.023841 0.000000 0.000000
# 5 0.000000 0.000000 0.000000 0.000000 0.036597 0.000000
# 6 0.000000 0.000000 0.000000 0.000000 0.000000 0.058204
#
#
# Mechanical properties :
#
#
# Convention : Reuss Voigt Hill
#
# Bulk Modulus (GPa) = 46.66954 55.16733 50.91844
# Shear Modulus (GPa) = 26.64212 29.98756 28.31484
#
# Velocity S-wave (km/s) = 3.72505 3.95201 3.84021
# Velocity P-wave (km/s) = 6.54280 7.03969 6.79579
#
# Compressibility (1/GPa) = 0.02142725
#
# Stress axis : x y z
#
# Youngs Moduli (GPa) = 55.06868 103.21560 72.41135
#
# Poissons Ratio (x) = 0.36507 0.15745
# Poissons Ratio (y) = 0.19478 0.31889
# Poissons Ratio (z) = 0.11974 0.45454
#
# Static dielectric constant tensor:
#      x y z
#    x 1.653180 0.000000 0.000000 
#    y 0.000000 1.775170 0.000000 
#    z 0.000000 0.000000 1.728680 
# 
# From -- ./inp_files/19566.got.cif
#   From: 2010.05.17/outbox.cif.g08.bks.cpg/sg70_10_cif.got.tgz:19566.got - 2010.06.03 15:57:51.
