data_PCOD9516632
_publ_section_title
;
Structure prediction by ZEFSAII (Michael W. Deem and Ramdas Pophale) SiO2 
 PCOD9516632
Probable space group: F D D D
;
_chemical_formula_sum "Si O2"
_cell_formula_units_Z 168
_cell_length_a 20.656869
_cell_length_b 25.070733
_cell_length_c 14.595994
_cell_angle_alpha 90.000000
_cell_angle_beta 90.000000
_cell_angle_gamma 90.000000
_cell_volume 7559.014932
_symmetry_space_group_name_H-M "F D D D"
_symmetry_group_IT_number 70
_space_group.IT_coordinate_system_code '2'
_symmetry_cell_setting 'orthorhombic'
loop_
_space_group_symop_operation_xyz
x,y,z
1/4-x,1/4-y,z
x,1/4-y,1/4-z
1/4-x,y,1/4-z
-x,-y,-z
3/4+x,3/4+y,-z
-x,3/4+y,3/4+z
3/4+x,-y,3/4+z
x,1/2+y,1/2+z
1/4-x,3/4-y,1/2+z
x,3/4-y,3/4-z
1/4-x,1/2+y,3/4-z
-x,1/2-y,1/2-z
3/4+x,1/4+y,1/2-z
-x,1/4+y,1/4+z
3/4+x,1/2-y,1/4+z
1/2+x,y,1/2+z
3/4-x,1/4-y,1/2+z
1/2+x,1/4-y,3/4-z
3/4-x,y,3/4-z
1/2-x,-y,1/2-z
1/4+x,3/4+y,1/2-z
1/2-x,3/4+y,1/4+z
1/4+x,-y,1/4+z
1/2+x,1/2+y,z
3/4-x,3/4-y,z
1/2+x,3/4-y,1/4-z
3/4-x,1/2+y,1/4-z
1/2-x,1/2-y,-z
1/4+x,1/4+y,-z
1/2-x,1/4+y,3/4+z
1/4+x,1/2-y,3/4+z
loop_
_atom_site_type_symbol
_atom_site_label
_atom_site_fract_x
_atom_site_fract_y
_atom_site_fract_z
Si Si1 0.366085 0.558585 0.267095
Si Si2 0.875000 0.375000 0.375000
Si Si3 0.009344 0.163950 0.004925
Si Si4 0.826223 0.176234 0.288749
Si Si5 0.337985 0.763208 0.136980
Si Si6 0.771668 0.296669 0.569184
O O1 0.375000 0.548693 0.375000
O O2 0.437078 0.567856 0.218959
O O3 0.326674 0.614214 0.261617
O O4 0.334732 0.509392 0.214646
O O5 0.927226 0.337281 0.428488
O O6 0.029499 0.199993 0.919088
O O7 0.002809 0.102427 0.977053
O O8 0.875000 0.180694 0.375000
O O9 0.843556 0.211666 0.202452
O O10 0.987203 0.202721 0.417402
O O11 0.402890 0.795534 0.159351
O O12 0.750000 0.250000 0.500000
#
# Coordination Sequence:
#
# PCOD9516632 Si02
#       6
#    32   8  32  32  32  32
#     4  11  25  48  68  92 137 192 248 288 340 430
#     4  12  28  40  68 112 158 172 212 310 392 436
#     4  12  26  42  65 107 143 180 233 291 367 441
#     4  11  22  40  66  98 134 181 230 282 354 437
#     4  12  25  39  68 100 135 180 232 294 359 414
#     4  12  23  41  67  99 144 178 225 287 365 444
#
# _framework density 22.225117999999998
#
# number of rings (size 3 to 8) (size 9 to 14) (size 15 to 20)
#    0.000    0.381    7.619    1.714    9.333    0.762 
#    0.000    0.000    0.000    1.143    0.000    0.000 
#    0.000    0.000    0.000    0.000    0.000    0.000 
#
# Total GULP energy -234816.104539 kJ/mol
# GULP energy per Si atom -5590.859632 kJ/mol
# Density = 2.217453 g / cm^3
# Si number density = 22.225118 Si / 1000 Ang^3
#
#
#
# Elastic Constant Matrix: (Units=GPa)
#
#
# Indices 1 2 3 4 5 6 
#
# 1 79.8772 12.1728 19.2710 0.0000 0.0000 0.0000
# 2 12.1728 101.0639 25.3634 0.0000 0.0000 0.0000
# 3 19.2710 25.3634 66.6359 0.0000 0.0000 0.0000
# 4 0.0000 0.0000 0.0000 36.9690 0.0000 0.0000
# 5 0.0000 0.0000 0.0000 0.0000 28.1092 0.0000
# 6 0.0000 0.0000 0.0000 0.0000 0.0000 22.4048
#
#
#
# Elastic Compliance Matrix: (Units=1/GPa)
#
#
# Indices 1 2 3 4 5 6 
#
# 1 0.013505 -0.000715 -0.003634 0.000000 0.000000 0.000000
# 2 -0.000715 0.010978 -0.003972 0.000000 0.000000 0.000000
# 3 -0.003634 -0.003972 0.017569 0.000000 0.000000 0.000000
# 4 0.000000 0.000000 0.000000 0.027050 0.000000 0.000000
# 5 0.000000 0.000000 0.000000 0.000000 0.035576 0.000000
# 6 0.000000 0.000000 0.000000 0.000000 0.000000 0.044633
#
#
# Mechanical properties :
#
#
# Convention : Reuss Voigt Hill
#
# Bulk Modulus (GPa) = 39.35153 40.13240 39.74196
# Shear Modulus (GPa) = 28.66630 30.21457 29.44044
#
# Velocity S-wave (km/s) = 3.59530 3.69111 3.64352
# Velocity P-wave (km/s) = 5.91432 6.02181 5.96831
#
# Compressibility (1/GPa) = 0.02541197
#
# Stress axis : x y z
#
# Youngs Moduli (GPa) = 74.04801 91.09495 56.91701
#
# Poissons Ratio (x) = 0.06511 0.20681
# Poissons Ratio (y) = 0.05292 0.22606
# Poissons Ratio (z) = 0.26905 0.36180
#
# Static dielectric constant tensor:
#      x y z
#    x 1.934170 0.000000 0.000000 
#    y 0.000000 1.797880 0.000000 
#    z 0.000000 0.000000 1.862670 
# 
# From -- ./inp_files/29881.got.cif
#   From: 2010.05.17/outbox.cif.g08.bks.cpg/sg70_15_cif.got.tgz:29881.got - 2010.06.03 15:57:51.
