data_PCOD9516725
_publ_section_title
;
Structure prediction by ZEFSAII (Michael W. Deem and Ramdas Pophale) SiO2 
 PCOD9516725
Probable space group: F D D D
;
_chemical_formula_sum "Si O2"
_cell_formula_units_Z 104
_cell_length_a 13.956643
_cell_length_b 24.765766
_cell_length_c 12.634907
_cell_angle_alpha 90.000000
_cell_angle_beta 90.000000
_cell_angle_gamma 90.000000
_cell_volume 4367.217127
_symmetry_space_group_name_H-M "F D D D"
_symmetry_group_IT_number 70
_space_group.IT_coordinate_system_code '2'
_symmetry_cell_setting 'orthorhombic'
loop_
_space_group_symop_operation_xyz
x,y,z
1/4-x,1/4-y,z
x,1/4-y,1/4-z
1/4-x,y,1/4-z
-x,-y,-z
3/4+x,3/4+y,-z
-x,3/4+y,3/4+z
3/4+x,-y,3/4+z
x,1/2+y,1/2+z
1/4-x,3/4-y,1/2+z
x,3/4-y,3/4-z
1/4-x,1/2+y,3/4-z
-x,1/2-y,1/2-z
3/4+x,1/4+y,1/2-z
-x,1/4+y,1/4+z
3/4+x,1/2-y,1/4+z
1/2+x,y,1/2+z
3/4-x,1/4-y,1/2+z
1/2+x,1/4-y,3/4-z
3/4-x,y,3/4-z
1/2-x,-y,1/2-z
1/4+x,3/4+y,1/2-z
1/2-x,3/4+y,1/4+z
1/4+x,-y,1/4+z
1/2+x,1/2+y,z
3/4-x,3/4-y,z
1/2+x,3/4-y,1/4-z
3/4-x,1/2+y,1/4-z
1/2-x,1/2-y,-z
1/4+x,1/4+y,-z
1/2-x,1/4+y,3/4+z
1/4+x,1/2-y,3/4+z
loop_
_atom_site_type_symbol
_atom_site_label
_atom_site_fract_x
_atom_site_fract_y
_atom_site_fract_z
Si Si1 0.564481 0.359361 0.263248
Si Si2 0.375000 0.875000 0.375000
Si Si3 0.252835 0.313816 0.700231
Si Si4 0.106354 0.976995 0.003752
O O1 0.514535 0.375000 0.375000
O O2 0.644033 0.311596 0.246628
O O3 0.561999 0.508266 0.313318
O O4 0.631184 0.412928 0.257228
O O5 0.310060 0.908004 0.455661
O O6 0.249978 0.348026 0.590387
O O7 0.125000 0.987069 0.125000
O O8 0.000000 0.000000 0.000000
#
# Coordination Sequence:
#
# PCOD9516725 Si02
#       4
#    32   8  32  32
#     4  11  24  46  67 110 158 189 248 326 384 453
#     4  12  20  40  70 104 128 194 256 294 364 452
#     4  11  23  40  75 105 145 196 256 315 369 454
#     4  12  24  43  75 108 144 201 261 313 379 455
#
# _framework density 23.813791999999999
#
# number of rings (size 3 to 8) (size 9 to 14) (size 15 to 20)
#    0.000    0.615    6.154    3.692    0.000    1.231 
#    0.000    0.769    0.000    0.000    0.000    0.000 
#    0.000    0.000    0.000    0.000    0.000    0.000 
#
# Total GULP energy -144821.195455 kJ/mol
# GULP energy per Si atom -5570.045979 kJ/mol
# Density = 2.375959 g / cm^3
# Si number density = 23.813792 Si / 1000 Ang^3
#
#
#
# Elastic Constant Matrix: (Units=GPa)
#
#
# Indices 1 2 3 4 5 6 
#
# 1 56.0149 19.5344 1.1348 0.0000 0.0000 0.0000
# 2 19.5344 83.6656 -13.7233 0.0000 0.0000 0.0000
# 3 1.1348 -13.7233 128.2268 0.0000 0.0000 0.0000
# 4 0.0000 0.0000 0.0000 30.1666 0.0000 0.0000
# 5 0.0000 0.0000 0.0000 0.0000 53.1892 0.0000
# 6 0.0000 0.0000 0.0000 0.0000 0.0000 28.7181
#
#
#
# Elastic Compliance Matrix: (Units=1/GPa)
#
#
# Indices 1 2 3 4 5 6 
#
# 1 0.019491 -0.004661 -0.000671 0.000000 0.000000 0.000000
# 2 -0.004661 0.013281 0.001463 0.000000 0.000000 0.000000
# 3 -0.000671 0.001463 0.007961 0.000000 0.000000 0.000000
# 4 0.000000 0.000000 0.000000 0.033149 0.000000 0.000000
# 5 0.000000 0.000000 0.000000 0.000000 0.018801 0.000000
# 6 0.000000 0.000000 0.000000 0.000000 0.000000 0.034821
#
#
# Mechanical properties :
#
#
# Convention : Reuss Voigt Hill
#
# Bulk Modulus (GPa) = 30.30893 31.31100 30.80997
# Shear Modulus (GPa) = 34.18994 39.81220 37.00107
#
# Velocity S-wave (km/s) = 3.79320 4.09322 3.94606
# Velocity P-wave (km/s) = 5.65151 5.95953 5.80757
#
# Compressibility (1/GPa) = 0.03299358
#
# Stress axis : x y z
#
# Youngs Moduli (GPa) = 51.30454 75.29836 125.60992
#
# Poissons Ratio (x) = 0.35097 0.08433
# Poissons Ratio (y) = 0.23913 -0.18371
# Poissons Ratio (z) = 0.03444 -0.11013
#
# Static dielectric constant tensor:
#      x y z
#    x 1.913710 0.000000 0.000000 
#    y 0.000000 2.273480 0.000000 
#    z 0.000000 0.000000 1.992910 
# 
# From -- ./inp_files/33638.got.cif
#   From: 2010.05.17/outbox.cif.g08.bks.cpg/sg70_17_cif.got.tgz:33638.got - 2010.06.03 15:57:51.
