data_PCOD9516943
_publ_section_title
;
Structure prediction by ZEFSAII (Michael W. Deem and Ramdas Pophale) SiO2 
 PCOD9516943
Probable space group: F D D D
;
_chemical_formula_sum "Si O2"
_cell_formula_units_Z 136
_cell_length_a 10.996984
_cell_length_b 24.387091
_cell_length_c 21.554765
_cell_angle_alpha 90.000000
_cell_angle_beta 90.000000
_cell_angle_gamma 90.000000
_cell_volume 5780.652786
_symmetry_space_group_name_H-M "F D D D"
_symmetry_group_IT_number 70
_space_group.IT_coordinate_system_code '2'
_symmetry_cell_setting 'orthorhombic'
loop_
_space_group_symop_operation_xyz
x,y,z
1/4-x,1/4-y,z
x,1/4-y,1/4-z
1/4-x,y,1/4-z
-x,-y,-z
3/4+x,3/4+y,-z
-x,3/4+y,3/4+z
3/4+x,-y,3/4+z
x,1/2+y,1/2+z
1/4-x,3/4-y,1/2+z
x,3/4-y,3/4-z
1/4-x,1/2+y,3/4-z
-x,1/2-y,1/2-z
3/4+x,1/4+y,1/2-z
-x,1/4+y,1/4+z
3/4+x,1/2-y,1/4+z
1/2+x,y,1/2+z
3/4-x,1/4-y,1/2+z
1/2+x,1/4-y,3/4-z
3/4-x,y,3/4-z
1/2-x,-y,1/2-z
1/4+x,3/4+y,1/2-z
1/2-x,3/4+y,1/4+z
1/4+x,-y,1/4+z
1/2+x,1/2+y,z
3/4-x,3/4-y,z
1/2+x,3/4-y,1/4-z
3/4-x,1/2+y,1/4-z
1/2-x,1/2-y,-z
1/4+x,1/4+y,-z
1/2-x,1/4+y,3/4+z
1/4+x,1/2-y,3/4+z
loop_
_atom_site_type_symbol
_atom_site_label
_atom_site_fract_x
_atom_site_fract_y
_atom_site_fract_z
Si Si1 0.125000 0.625000 0.125000
Si Si2 0.628708 0.279572 0.263672
Si Si3 0.763496 0.253288 0.605808
Si Si4 0.341674 0.612663 0.809337
Si Si5 0.794259 0.196308 0.213182
O O1 0.215418 0.659052 0.168423
O O2 0.500000 0.250000 0.250000
O O3 0.656472 0.263233 0.334376
O O4 0.653290 0.343232 0.246598
O O5 0.724129 0.252754 0.216870
O O6 0.625000 0.241181 0.625000
O O7 0.759157 0.316044 0.578011
O O8 0.818640 0.211097 0.555624
O O9 0.375000 0.639850 0.875000
O O10 0.452777 0.575792 0.783393
#
# Coordination Sequence:
#
# PCOD9516943 Si02
#       5
#     8  32  32  32  32
#     4  12  28  48  78 116 152 216 268 340 412 486
#     4  12  27  46  76 115 152 208 274 332 406 498
#     4  11  25  51  73 112 159 204 266 337 403 497
#     4  11  25  48  75 113 154 212 261 335 415 486
#     4  12  24  50  75 106 162 199 266 339 400 495
#
# _framework density 23.526755000000001
#
# number of rings (size 3 to 8) (size 9 to 14) (size 15 to 20)
#    0.000    0.471    4.706    4.941    4.941    0.941 
#    4.235    4.118    0.000    0.000    0.000    0.000 
#    0.000    0.000    0.000    0.000    0.000    0.000 
#
# Total GULP energy -189299.926024 kJ/mol
# GULP energy per Si atom -5567.644883 kJ/mol
# Density = 2.347321 g / cm^3
# Si number density = 23.526755 Si / 1000 Ang^3
#
#
#
# Elastic Constant Matrix: (Units=GPa)
#
#
# Indices 1 2 3 4 5 6 
#
# 1 90.6372 21.5991 29.2315 0.0000 0.0000 0.0000
# 2 21.5991 117.4722 42.4314 0.0000 0.0000 0.0000
# 3 29.2315 42.4314 131.4286 0.0000 0.0000 0.0000
# 4 0.0000 0.0000 0.0000 44.2318 0.0000 0.0000
# 5 0.0000 0.0000 0.0000 0.0000 43.1350 0.0000
# 6 0.0000 0.0000 0.0000 0.0000 0.0000 39.2678
#
#
#
# Elastic Compliance Matrix: (Units=1/GPa)
#
#
# Indices 1 2 3 4 5 6 
#
# 1 0.012090 -0.001417 -0.002232 0.000000 0.000000 0.000000
# 2 -0.001417 0.009802 -0.002850 0.000000 0.000000 0.000000
# 3 -0.002232 -0.002850 0.009025 0.000000 0.000000 0.000000
# 4 0.000000 0.000000 0.000000 0.022608 0.000000 0.000000
# 5 0.000000 0.000000 0.000000 0.000000 0.023183 0.000000
# 6 0.000000 0.000000 0.000000 0.000000 0.000000 0.025466
#
#
# Mechanical properties :
#
#
# Convention : Reuss Voigt Hill
#
# Bulk Modulus (GPa) = 55.79851 58.45135 57.12493
# Shear Modulus (GPa) = 41.27277 41.74532 41.50904
#
# Velocity S-wave (km/s) = 4.19297 4.21690 4.20495
# Velocity P-wave (km/s) = 6.87094 6.97196 6.92164
#
# Compressibility (1/GPa) = 0.01792163
#
# Stress axis : x y z
#
# Youngs Moduli (GPa) = 82.71045 102.01529 110.80327
#
# Poissons Ratio (x) = 0.14455 0.24727
# Poissons Ratio (y) = 0.11720 0.31574
# Poissons Ratio (z) = 0.18458 0.29070
#
# Static dielectric constant tensor:
#      x y z
#    x 1.580440 0.000000 0.000000 
#    y 0.000000 2.466120 0.000000 
#    z 0.000000 0.000000 1.944450 
# 
# From -- ./inp_files/17643.got.cif
#   From: 2010.05.17/outbox.cif.g08.bks.cpg/sg70_9_cif.got.tgz:17643.got - 2010.06.03 15:57:51.
