data_PCOD9516644
_publ_section_title
;
Structure prediction by ZEFSAII (Michael W. Deem and Ramdas Pophale) SiO2 
 PCOD9516644
Probable space group: F D D D
;
_chemical_formula_sum "Si O2"
_cell_formula_units_Z 160
_cell_length_a 20.963697
_cell_length_b 15.532007
_cell_length_c 23.155568
_cell_angle_alpha 90.000000
_cell_angle_beta 90.000000
_cell_angle_gamma 90.000000
_cell_volume 7539.644867
_symmetry_space_group_name_H-M "F D D D"
_symmetry_group_IT_number 70
_space_group.IT_coordinate_system_code '2'
_symmetry_cell_setting 'orthorhombic'
loop_
_space_group_symop_operation_xyz
x,y,z
1/4-x,1/4-y,z
x,1/4-y,1/4-z
1/4-x,y,1/4-z
-x,-y,-z
3/4+x,3/4+y,-z
-x,3/4+y,3/4+z
3/4+x,-y,3/4+z
x,1/2+y,1/2+z
1/4-x,3/4-y,1/2+z
x,3/4-y,3/4-z
1/4-x,1/2+y,3/4-z
-x,1/2-y,1/2-z
3/4+x,1/4+y,1/2-z
-x,1/4+y,1/4+z
3/4+x,1/2-y,1/4+z
1/2+x,y,1/2+z
3/4-x,1/4-y,1/2+z
1/2+x,1/4-y,3/4-z
3/4-x,y,3/4-z
1/2-x,-y,1/2-z
1/4+x,3/4+y,1/2-z
1/2-x,3/4+y,1/4+z
1/4+x,-y,1/4+z
1/2+x,1/2+y,z
3/4-x,3/4-y,z
1/2+x,3/4-y,1/4-z
3/4-x,1/2+y,1/4-z
1/2-x,1/2-y,-z
1/4+x,1/4+y,-z
1/2-x,1/4+y,3/4+z
1/4+x,1/2-y,3/4+z
loop_
_atom_site_type_symbol
_atom_site_label
_atom_site_fract_x
_atom_site_fract_y
_atom_site_fract_z
Si Si1 0.375000 0.875000 0.776460
Si Si2 0.044990 0.390434 0.559726
Si Si3 0.157505 0.211749 0.908943
Si Si4 0.854483 0.775936 0.780898
Si Si5 0.375000 0.240971 0.375000
Si Si6 0.793047 0.509856 0.042976
O O1 0.396522 0.800150 0.821176
O O2 0.427870 0.924558 0.738105
O O3 0.095220 0.466499 0.562461
O O4 0.065884 0.318773 0.606014
O O5 0.052158 0.341007 0.498948
O O6 0.975177 0.430194 0.565322
O O7 0.125000 0.125000 0.885732
O O8 0.172706 0.270473 0.854384
O O9 0.113837 0.242051 0.962027
O O10 0.875000 0.875000 0.789427
O O11 0.783122 0.754537 0.799960
#
# Coordination Sequence:
#
# PCOD9516644 Si02
#       6
#    16  32  32  32  16  32
#     4   9  20  40  64  96 134 174 222 285 340 404
#     4  11  22  43  64  94 136 175 229 280 338 412
#     4  11  22  42  65  95 137 177 219 282 334 401
#     4  11  24  44  66  97 138 180 223 285 342 403
#     4   9  20  40  63  92 126 176 221 276 340 397
#     4  11  22  41  69  98 134 178 227 277 347 411
#
# _framework density 21.221159
#
# number of rings (size 3 to 8) (size 9 to 14) (size 15 to 20)
#    0.000    1.400    5.000    1.800    0.000    0.800 
#    3.600    8.500    0.000    0.000    0.000    0.000 
#    0.000    0.000    0.000    0.000    0.000    0.000 
#
# Total GULP energy -223455.896934 kJ/mol
# GULP energy per Si atom -5586.397423 kJ/mol
# Density = 2.117286 g / cm^3
# Si number density = 21.221159 Si / 1000 Ang^3
#
#
#
# Elastic Constant Matrix: (Units=GPa)
#
#
# Indices 1 2 3 4 5 6 
#
# 1 73.6921 23.8397 -7.5897 0.0000 0.0000 0.0000
# 2 23.8397 79.6461 21.1745 0.0000 0.0000 0.0000
# 3 -7.5897 21.1745 75.6000 0.0000 0.0000 0.0000
# 4 0.0000 0.0000 0.0000 -5.2738 0.0000 0.0000
# 5 0.0000 0.0000 0.0000 0.0000 23.6291 0.0000
# 6 0.0000 0.0000 0.0000 0.0000 0.0000 15.8893
#
#
#
# Elastic Compliance Matrix: (Units=1/GPa)
#
#
# Indices 1 2 3 4 5 6 
#
# 1 0.015678 -0.005522 0.003121 0.000000 0.000000 0.000000
# 2 -0.005522 0.015511 -0.004899 0.000000 0.000000 0.000000
# 3 0.003121 -0.004899 0.014913 0.000000 0.000000 0.000000
# 4 0.000000 0.000000 0.000000 -0.189616 0.000000 0.000000
# 5 0.000000 0.000000 0.000000 0.000000 0.042321 0.000000
# 6 0.000000 0.000000 0.000000 0.000000 0.000000 0.062936
#
#
# Mechanical properties :
#
#
# Convention : Reuss Voigt Hill
#
# Bulk Modulus (GPa) = 31.74531 33.75414 32.74973
# Shear Modulus (GPa) = -380.02916 19.61648 -180.20634
#
# Velocity S-wave (km/s) = -13.39661 3.04367 -9.22511
# Velocity P-wave (km/s) = 14.97666 5.31905 9.89970
#
# Compressibility (1/GPa) = 0.03150071
#
# Stress axis : x y z
#
# Youngs Moduli (GPa) = 63.78411 64.47087 67.05608
#
# Poissons Ratio (x) = 0.35603 -0.20926
# Poissons Ratio (y) = 0.35224 0.32849
# Poissons Ratio (z) = -0.19905 0.31583
#
# Static dielectric constant tensor:
#      x y z
#    x 1.721510 0.000000 0.000000 
#    y 0.000000 1.768120 0.000000 
#    z 0.000000 0.000000 1.827550 
# 
# From -- ./inp_files/37479.got.cif
#   From: 2010.05.17/outbox.cif.g08.bks.cpg/sg70_19_cif.got.tgz:37479.got - 2010.06.03 15:57:51.
