data_PCOD9516015
_publ_section_title
;
Structure prediction by ZEFSAII (Michael W. Deem and Ramdas Pophale) SiO2 
 PCOD9516015
Probable space group: F D D D
;
_chemical_formula_sum "Si O2"
_cell_formula_units_Z 160
_cell_length_a 15.947105
_cell_length_b 30.367576
_cell_length_c 16.774959
_cell_angle_alpha 90.000000
_cell_angle_beta 90.000000
_cell_angle_gamma 90.000000
_cell_volume 8123.691979
_symmetry_space_group_name_H-M "F D D D"
_symmetry_group_IT_number 70
_space_group.IT_coordinate_system_code '2'
_symmetry_cell_setting 'orthorhombic'
loop_
_space_group_symop_operation_xyz
x,y,z
1/4-x,1/4-y,z
x,1/4-y,1/4-z
1/4-x,y,1/4-z
-x,-y,-z
3/4+x,3/4+y,-z
-x,3/4+y,3/4+z
3/4+x,-y,3/4+z
x,1/2+y,1/2+z
1/4-x,3/4-y,1/2+z
x,3/4-y,3/4-z
1/4-x,1/2+y,3/4-z
-x,1/2-y,1/2-z
3/4+x,1/4+y,1/2-z
-x,1/4+y,1/4+z
3/4+x,1/2-y,1/4+z
1/2+x,y,1/2+z
3/4-x,1/4-y,1/2+z
1/2+x,1/4-y,3/4-z
3/4-x,y,3/4-z
1/2-x,-y,1/2-z
1/4+x,3/4+y,1/2-z
1/2-x,3/4+y,1/4+z
1/4+x,-y,1/4+z
1/2+x,1/2+y,z
3/4-x,3/4-y,z
1/2+x,3/4-y,1/4-z
3/4-x,1/2+y,1/4-z
1/2-x,1/2-y,-z
1/4+x,1/4+y,-z
1/2-x,1/4+y,3/4+z
1/4+x,1/2-y,3/4+z
loop_
_atom_site_type_symbol
_atom_site_label
_atom_site_fract_x
_atom_site_fract_y
_atom_site_fract_z
Si Si1 0.486542 0.625000 0.125000
Si Si2 0.125000 0.125000 0.988525
Si Si3 0.843249 0.056388 0.110912
Si Si4 0.949650 0.408471 0.978920
Si Si5 0.550260 0.835810 0.065586
Si Si6 0.363866 0.455552 0.616828
O O1 0.545788 0.631474 0.202206
O O2 0.424388 0.583850 0.139437
O O3 0.136909 0.082091 0.932026
O O4 0.762088 0.072991 0.161601
O O5 0.859355 0.004610 0.113226
O O6 0.830181 0.068720 0.019364
O O7 0.875000 0.375000 0.954663
O O8 0.904929 0.445706 0.030707
O O9 0.002655 0.380559 0.043071
O O10 0.625000 0.844226 0.125000
O O11 0.485197 0.801685 0.104309
#
# Coordination Sequence:
#
# PCOD9516015 Si02
#       6
#    16  16  32  32  32  32
#     4  11  26  42  71  96 136 180 227 274 342 411
#     4  11  24  48  66  95 140 182 218 285 342 412
#     4  12  25  43  69 103 134 175 234 283 338 415
#     4  10  22  45  70  96 137 181 225 283 347 399
#     4  11  23  42  68  96 133 180 220 281 344 407
#     4  11  25  43  69  99 134 176 230 279 349 405
#
# _framework density 19.695478999999999
#
# number of rings (size 3 to 8) (size 9 to 14) (size 15 to 20)
#    0.000    1.000    5.000    1.800    2.800    8.800 
#    0.000    0.000    0.000    0.000    0.000    0.000 
#    0.000    0.000    0.000    0.000    0.000    0.000 
#
# Total GULP energy -223427.943998 kJ/mol
# GULP energy per Si atom -5585.698600 kJ/mol
# Density = 1.965065 g / cm^3
# Si number density = 19.695479 Si / 1000 Ang^3
#
#
#
# Elastic Constant Matrix: (Units=GPa)
#
#
# Indices 1 2 3 4 5 6 
#
# 1 125.4417 41.9459 63.2840 0.0000 0.0000 0.0000
# 2 41.9459 114.3236 23.3103 0.0000 0.0000 0.0000
# 3 63.2840 23.3103 107.7743 0.0000 0.0000 0.0000
# 4 0.0000 0.0000 0.0000 -12.8308 0.0000 0.0000
# 5 0.0000 0.0000 0.0000 0.0000 45.0385 0.0000
# 6 0.0000 0.0000 0.0000 0.0000 0.0000 15.8683
#
#
#
# Elastic Compliance Matrix: (Units=1/GPa)
#
#
# Indices 1 2 3 4 5 6 
#
# 1 0.012350 -0.003193 -0.006561 0.000000 0.000000 0.000000
# 2 -0.003193 0.009976 -0.000283 0.000000 0.000000 0.000000
# 3 -0.006561 -0.000283 0.013192 0.000000 0.000000 0.000000
# 4 0.000000 0.000000 0.000000 -0.077938 0.000000 0.000000
# 5 0.000000 0.000000 0.000000 0.000000 0.022203 0.000000
# 6 0.000000 0.000000 0.000000 0.000000 0.000000 0.063019
#
#
# Mechanical properties :
#
#
# Convention : Reuss Voigt Hill
#
# Bulk Modulus (GPa) = 64.74821 67.18001 65.96411
# Shear Modulus (GPa) = 73.50286 24.21515 48.85900
#
# Velocity S-wave (km/s) = 6.11561 3.51019 4.98609
# Velocity P-wave (km/s) = 9.10020 7.11421 8.16779
#
# Compressibility (1/GPa) = 0.01544444
#
# Stress axis : x y z
#
# Youngs Moduli (GPa) = 80.97480 100.23657 75.80214
#
# Poissons Ratio (x) = 0.32009 0.49733
# Poissons Ratio (y) = 0.25858 0.02143
# Poissons Ratio (z) = 0.53126 0.02833
#
# Static dielectric constant tensor:
#      x y z
#    x 1.808200 0.000000 0.000000 
#    y 0.000000 1.666990 0.000000 
#    z 0.000000 0.000000 1.696310 
# 
# From -- ./inp_files/34017.got.cif
#   From: 2010.05.17/outbox.cif.g08.bks.cpg/sg70_18_cif.got.tgz:34017.got - 2010.06.03 15:57:51.
