data_PCOD9516613
_publ_section_title
;
Structure prediction by ZEFSAII (Michael W. Deem and Ramdas Pophale) SiO2 
 PCOD9516613
Probable space group: F D D D
;
_chemical_formula_sum "Si O2"
_cell_formula_units_Z 168
_cell_length_a 27.411767
_cell_length_b 13.125886
_cell_length_c 24.395212
_cell_angle_alpha 90.000000
_cell_angle_beta 90.000000
_cell_angle_gamma 90.000000
_cell_volume 8777.488240
_symmetry_space_group_name_H-M "F D D D"
_symmetry_group_IT_number 70
_space_group.IT_coordinate_system_code '2'
_symmetry_cell_setting 'orthorhombic'
loop_
_space_group_symop_operation_xyz
x,y,z
1/4-x,1/4-y,z
x,1/4-y,1/4-z
1/4-x,y,1/4-z
-x,-y,-z
3/4+x,3/4+y,-z
-x,3/4+y,3/4+z
3/4+x,-y,3/4+z
x,1/2+y,1/2+z
1/4-x,3/4-y,1/2+z
x,3/4-y,3/4-z
1/4-x,1/2+y,3/4-z
-x,1/2-y,1/2-z
3/4+x,1/4+y,1/2-z
-x,1/4+y,1/4+z
3/4+x,1/2-y,1/4+z
1/2+x,y,1/2+z
3/4-x,1/4-y,1/2+z
1/2+x,1/4-y,3/4-z
3/4-x,y,3/4-z
1/2-x,-y,1/2-z
1/4+x,3/4+y,1/2-z
1/2-x,3/4+y,1/4+z
1/4+x,-y,1/4+z
1/2+x,1/2+y,z
3/4-x,3/4-y,z
1/2+x,3/4-y,1/4-z
3/4-x,1/2+y,1/4-z
1/2-x,1/2-y,-z
1/4+x,1/4+y,-z
1/2-x,1/4+y,3/4+z
1/4+x,1/2-y,3/4+z
loop_
_atom_site_type_symbol
_atom_site_label
_atom_site_fract_x
_atom_site_fract_y
_atom_site_fract_z
Si Si1 0.558791 0.464932 0.184229
Si Si2 0.995766 0.677424 0.833112
Si Si3 0.875000 0.875000 0.875000
Si Si4 0.355856 0.130470 0.540648
Si Si5 0.779438 0.608967 0.039008
Si Si6 0.333975 0.293548 0.622558
O O1 0.547622 0.412457 0.126284
O O2 0.592855 0.557937 0.166036
O O3 0.584276 0.399257 0.231474
O O4 0.506651 0.513730 0.201767
O O5 0.013690 0.795268 0.827625
O O6 0.038718 0.606415 0.854770
O O7 0.979775 0.646051 0.772803
O O8 0.412910 0.161444 0.543305
O O9 0.325675 0.219425 0.570940
O O10 0.351792 0.029808 0.578342
O O11 0.375000 0.375000 0.608194
#
# Coordination Sequence:
#
# PCOD9516613 Si02
#       6
#    32  32   8  32  32  32
#     4  12  24  40  62  98 131 169 214 264 329 396
#     4  11  22  38  61  87 127 169 206 260 324 386
#     4  12  24  36  64 104 138 164 204 268 344 382
#     4  11  25  39  64  96 127 168 220 268 325 386
#     4  11  22  39  60  94 128 165 207 268 326 383
#     4  11  22  40  64  90 125 171 220 269 315 384
#
# _framework density 19.139870999999999
#
# number of rings (size 3 to 8) (size 9 to 14) (size 15 to 20)
#    0.000    0.762    5.714    2.286    6.667    0.762 
#    0.000    0.000    0.000    0.000    0.000    1.333 
#    0.000    0.000    0.000    0.000    0.000    0.000 
#
# Total GULP energy -234603.723799 kJ/mol
# GULP energy per Si atom -5585.802948 kJ/mol
# Density = 1.909631 g / cm^3
# Si number density = 19.139871 Si / 1000 Ang^3
#
#
#
# Elastic Constant Matrix: (Units=GPa)
#
#
# Indices 1 2 3 4 5 6 
#
# 1 78.8292 14.0088 22.0158 0.0000 0.0000 0.0000
# 2 14.0088 62.4317 28.4713 0.0000 0.0000 0.0000
# 3 22.0158 28.4713 122.4495 0.0000 0.0000 0.0000
# 4 0.0000 0.0000 0.0000 16.8547 0.0000 0.0000
# 5 0.0000 0.0000 0.0000 0.0000 32.2510 0.0000
# 6 0.0000 0.0000 0.0000 0.0000 0.0000 3.8410
#
#
#
# Elastic Compliance Matrix: (Units=1/GPa)
#
#
# Indices 1 2 3 4 5 6 
#
# 1 0.013614 -0.002168 -0.001943 0.000000 0.000000 0.000000
# 2 -0.002168 0.018263 -0.003856 0.000000 0.000000 0.000000
# 3 -0.001943 -0.003856 0.009413 0.000000 0.000000 0.000000
# 4 0.000000 0.000000 0.000000 0.059330 0.000000 0.000000
# 5 0.000000 0.000000 0.000000 0.000000 0.031007 0.000000
# 6 0.000000 0.000000 0.000000 0.000000 0.000000 0.260351
#
#
# Mechanical properties :
#
#
# Convention : Reuss Voigt Hill
#
# Bulk Modulus (GPa) = 39.44387 43.63359 41.53873
# Shear Modulus (GPa) = 12.00869 23.87032 17.93950
#
# Velocity S-wave (km/s) = 2.50755 3.53533 3.06483
# Velocity P-wave (km/s) = 5.38857 6.28582 5.85441
#
# Compressibility (1/GPa) = 0.02535248
#
# Stress axis : x y z
#
# Youngs Moduli (GPa) = 73.45492 54.75620 106.23886
#
# Poissons Ratio (x) = 0.11873 0.20647
# Poissons Ratio (y) = 0.15928 0.40971
# Poissons Ratio (z) = 0.14276 0.21117
#
# Static dielectric constant tensor:
#      x y z
#    x 1.786320 0.000000 0.000000 
#    y 0.000000 1.685480 0.000000 
#    z 0.000000 0.000000 1.675070 
# 
# From -- ./inp_files/46790.got.cif
#   From: 2010.05.17/outbox.cif.g08.bks.cpg/sg70_24_cif.got.tgz:46790.got - 2010.06.03 15:57:51.
