data_PCOD9516055
_publ_section_title
;
Structure prediction by ZEFSAII (Michael W. Deem and Ramdas Pophale) SiO2 
 PCOD9516055
Probable space group: F D D D
;
_chemical_formula_sum "Si O2"
_cell_formula_units_Z 216
_cell_length_a 28.416863
_cell_length_b 15.035736
_cell_length_c 23.100947
_cell_angle_alpha 90.000000
_cell_angle_beta 90.000000
_cell_angle_gamma 90.000000
_cell_volume 9870.305819
_symmetry_space_group_name_H-M "F D D D"
_symmetry_group_IT_number 70
_space_group.IT_coordinate_system_code '2'
_symmetry_cell_setting 'orthorhombic'
loop_
_space_group_symop_operation_xyz
x,y,z
1/4-x,1/4-y,z
x,1/4-y,1/4-z
1/4-x,y,1/4-z
-x,-y,-z
3/4+x,3/4+y,-z
-x,3/4+y,3/4+z
3/4+x,-y,3/4+z
x,1/2+y,1/2+z
1/4-x,3/4-y,1/2+z
x,3/4-y,3/4-z
1/4-x,1/2+y,3/4-z
-x,1/2-y,1/2-z
3/4+x,1/4+y,1/2-z
-x,1/4+y,1/4+z
3/4+x,1/2-y,1/4+z
1/2+x,y,1/2+z
3/4-x,1/4-y,1/2+z
1/2+x,1/4-y,3/4-z
3/4-x,y,3/4-z
1/2-x,-y,1/2-z
1/4+x,3/4+y,1/2-z
1/2-x,3/4+y,1/4+z
1/4+x,-y,1/4+z
1/2+x,1/2+y,z
3/4-x,3/4-y,z
1/2+x,3/4-y,1/4-z
3/4-x,1/2+y,1/4-z
1/2-x,1/2-y,-z
1/4+x,1/4+y,-z
1/2-x,1/4+y,3/4+z
1/4+x,1/2-y,3/4+z
loop_
_atom_site_type_symbol
_atom_site_label
_atom_site_fract_x
_atom_site_fract_y
_atom_site_fract_z
Si Si1 0.433357 0.232490 0.303180
Si Si2 0.451446 0.768314 0.548829
Si Si3 0.957305 0.306652 0.681690
Si Si4 0.171351 0.674816 0.536487
Si Si5 0.754691 0.875000 0.875000
Si Si6 0.625352 0.356263 0.506132
Si Si7 0.125000 0.125000 0.625000
Si Si8 0.456030 0.007251 0.722218
O O1 0.434509 0.251385 0.234054
O O2 0.487019 0.214730 0.318650
O O3 0.403061 0.143453 0.311296
O O4 0.408652 0.312900 0.336268
O O5 0.443609 0.784411 0.616493
O O6 0.437132 0.858241 0.514665
O O7 0.416536 0.687615 0.532116
O O8 0.504476 0.750768 0.523824
O O9 0.947409 0.408085 0.699630
O O10 0.125000 0.625000 0.560053
O O11 0.211573 0.681763 0.583849
O O12 0.158560 0.772192 0.515819
O O13 0.726474 0.812240 0.831969
O O14 0.659881 0.437683 0.489941
#
# Coordination Sequence:
#
# PCOD9516055 Si02
#       8
#    32  32  32  32  16  32   8  32
#     4  11  27  47  73 103 136 186 249 297 375 439
#     4  10  24  47  70 103 149 189 243 307 375 446
#     4  11  26  48  72  99 142 195 236 308 374 443
#     4   9  21  43  66 100 143 187 230 300 365 436
#     4  10  23  38  64 105 138 178 233 284 361 454
#     4  11  24  47  70 105 141 192 244 296 368 447
#     4  12  28  48  72 114 146 180 242 326 360 448
#     4  11  25  42  70 108 141 187 247 299 371 444
#
# _framework density 21.88382
#
# number of rings (size 3 to 8) (size 9 to 14) (size 15 to 20)
#    0.000    1.481    1.481    1.111    8.296    2.963 
#    9.333    0.000    0.000    0.000    0.000    0.000 
#    0.000    0.000    0.000    0.000    0.000    0.000 
#
# Total GULP energy -301626.005266 kJ/mol
# GULP energy per Si atom -5585.666764 kJ/mol
# Density = 2.183401 g / cm^3
# Si number density = 21.883820 Si / 1000 Ang^3
#
#
#
# Elastic Constant Matrix: (Units=GPa)
#
#
# Indices 1 2 3 4 5 6 
#
# 1 115.4047 50.9291 23.0227 0.0000 0.0000 0.0000
# 2 50.9291 129.3537 21.8743 0.0000 0.0000 0.0000
# 3 23.0227 21.8743 92.7416 0.0000 0.0000 0.0000
# 4 0.0000 0.0000 0.0000 17.1105 0.0000 0.0000
# 5 0.0000 0.0000 0.0000 0.0000 9.7252 0.0000
# 6 0.0000 0.0000 0.0000 0.0000 0.0000 6.4234
#
#
#
# Elastic Compliance Matrix: (Units=1/GPa)
#
#
# Indices 1 2 3 4 5 6 
#
# 1 0.010750 -0.003938 -0.001740 0.000000 0.000000 0.000000
# 2 -0.003938 0.009495 -0.001262 0.000000 0.000000 0.000000
# 3 -0.001740 -0.001262 0.011512 0.000000 0.000000 0.000000
# 4 0.000000 0.000000 0.000000 0.058444 0.000000 0.000000
# 5 0.000000 0.000000 0.000000 0.000000 0.102826 0.000000
# 6 0.000000 0.000000 0.000000 0.000000 0.000000 0.155682
#
#
# Mechanical properties :
#
#
# Convention : Reuss Voigt Hill
#
# Bulk Modulus (GPa) = 55.93695 58.79468 57.36581
# Shear Modulus (GPa) = 13.56678 22.76341 18.16510
#
# Velocity S-wave (km/s) = 2.49257 3.22870 2.88422
# Velocity P-wave (km/s) = 5.82239 6.38940 6.11247
#
# Compressibility (1/GPa) = 0.01787727
#
# Stress axis : x y z
#
# Youngs Moduli (GPa) = 93.02083 105.32157 86.86479
#
# Poissons Ratio (x) = 0.41480 0.15113
# Poissons Ratio (y) = 0.36635 0.10960
# Poissons Ratio (z) = 0.16184 0.13289
#
# Static dielectric constant tensor:
#      x y z
#    x 1.814020 0.000000 0.000000 
#    y 0.000000 1.794890 0.000000 
#    z 0.000000 0.000000 1.776790 
# 
# From -- ./inp_files/55151.got.cif
#   From: 2010.05.17/outbox.cif.g08.bks.cpg/sg70_28_cif.got.tgz:55151.got - 2010.06.03 15:57:51.
