data_PCOD9516491
_publ_section_title
;
Structure prediction by ZEFSAII (Michael W. Deem and Ramdas Pophale) SiO2 
 PCOD9516491
Probable space group: F D D D
;
_chemical_formula_sum "Si O2"
_cell_formula_units_Z 192
_cell_length_a 21.691311
_cell_length_b 17.697708
_cell_length_c 20.462661
_cell_angle_alpha 90.000000
_cell_angle_beta 90.000000
_cell_angle_gamma 90.000000
_cell_volume 7855.339071
_symmetry_space_group_name_H-M "F D D D"
_symmetry_group_IT_number 70
_space_group.IT_coordinate_system_code '2'
_symmetry_cell_setting 'orthorhombic'
loop_
_space_group_symop_operation_xyz
x,y,z
1/4-x,1/4-y,z
x,1/4-y,1/4-z
1/4-x,y,1/4-z
-x,-y,-z
3/4+x,3/4+y,-z
-x,3/4+y,3/4+z
3/4+x,-y,3/4+z
x,1/2+y,1/2+z
1/4-x,3/4-y,1/2+z
x,3/4-y,3/4-z
1/4-x,1/2+y,3/4-z
-x,1/2-y,1/2-z
3/4+x,1/4+y,1/2-z
-x,1/4+y,1/4+z
3/4+x,1/2-y,1/4+z
1/2+x,y,1/2+z
3/4-x,1/4-y,1/2+z
1/2+x,1/4-y,3/4-z
3/4-x,y,3/4-z
1/2-x,-y,1/2-z
1/4+x,3/4+y,1/2-z
1/2-x,3/4+y,1/4+z
1/4+x,-y,1/4+z
1/2+x,1/2+y,z
3/4-x,3/4-y,z
1/2+x,3/4-y,1/4-z
3/4-x,1/2+y,1/4-z
1/2-x,1/2-y,-z
1/4+x,1/4+y,-z
1/2-x,1/4+y,3/4+z
1/4+x,1/2-y,3/4+z
loop_
_atom_site_type_symbol
_atom_site_label
_atom_site_fract_x
_atom_site_fract_y
_atom_site_fract_z
Si Si1 0.259654 0.828393 0.809195
Si Si2 0.528228 0.793700 0.364049
Si Si3 0.657778 0.314122 0.190544
Si Si4 0.812762 0.460497 0.729167
Si Si5 0.266093 0.358892 0.765047
Si Si6 0.097792 0.229916 0.921670
O O1 0.263427 0.875000 0.875000
O O2 0.292692 0.750286 0.827117
O O3 0.299686 0.875348 0.756062
O O4 0.187728 0.805525 0.801240
O O5 0.563149 0.875000 0.375000
O O6 0.476219 0.819722 0.312681
O O7 0.499053 0.786916 0.435874
O O8 0.578875 0.738645 0.336305
O O9 0.625000 0.341814 0.125000
O O10 0.612320 0.265803 0.236408
O O11 0.702137 0.373325 0.226341
O O12 0.750000 0.500000 0.750000
O O13 0.825734 0.462529 0.652360
O O14 0.320253 0.333061 0.719211
#
# Coordination Sequence:
#
# PCOD9516491 Si02
#       6
#    32  32  32  32  32  32
#     4  11  21  31  45  70 106 149 183 220 279 337
#     4   8  17  34  55  73 116 150 188 228 294 349
#     4  11  19  31  44  68 111 146 182 237 274 349
#     4  12  21  28  47  71 105 154 192 216 282 353
#     4   8  19  32  49  79 104 153 196 225 290 358
#     4  11  19  34  52  75 114 150 192 240 283 345
#
# _framework density 24.441974999999999
#
# number of rings (size 3 to 8) (size 9 to 14) (size 15 to 20)
#    1.000    0.667    5.000    2.000    2.333    0.000 
#    0.000    0.000    0.000    0.000    0.000   18.667 
#   20.000    0.000    0.000    0.000    0.000    0.000 
#
# Total GULP energy -267614.703457 kJ/mol
# GULP energy per Si atom -5575.306322 kJ/mol
# Density = 2.438634 g / cm^3
# Si number density = 24.441975 Si / 1000 Ang^3
#
#
#
# Elastic Constant Matrix: (Units=GPa)
#
#
# Indices 1 2 3 4 5 6 
#
# 1 73.0734 -1.4890 43.3158 0.0000 0.0000 0.0000
# 2 -1.4890 42.8655 17.8303 0.0000 0.0000 0.0000
# 3 43.3158 17.8303 159.3881 0.0000 0.0000 0.0000
# 4 0.0000 0.0000 0.0000 25.8487 0.0000 0.0000
# 5 0.0000 0.0000 0.0000 0.0000 33.4092 0.0000
# 6 0.0000 0.0000 0.0000 0.0000 0.0000 27.3975
#
#
#
# Elastic Compliance Matrix: (Units=1/GPa)
#
#
# Indices 1 2 3 4 5 6 
#
# 1 0.016578 0.002569 -0.004793 0.000000 0.000000 0.000000
# 2 0.002569 0.024866 -0.003480 0.000000 0.000000 0.000000
# 3 -0.004793 -0.003480 0.007966 0.000000 0.000000 0.000000
# 4 0.000000 0.000000 0.000000 0.038687 0.000000 0.000000
# 5 0.000000 0.000000 0.000000 0.000000 0.029932 0.000000
# 6 0.000000 0.000000 0.000000 0.000000 0.000000 0.036500
#
#
# Mechanical properties :
#
#
# Convention : Reuss Voigt Hill
#
# Bulk Modulus (GPa) = 26.31366 43.84902 35.08134
# Shear Modulus (GPa) = 27.99522 31.70908 29.85215
#
# Velocity S-wave (km/s) = 3.38801 3.60574 3.49857
# Velocity P-wave (km/s) = 5.10822 5.94257 5.54112
#
# Compressibility (1/GPa) = 0.03800307
#
# Stress axis : x y z
#
# Youngs Moduli (GPa) = 60.31999 40.21635 125.53692
#
# Poissons Ratio (x) = -0.10333 0.60167
# Poissons Ratio (y) = -0.15499 0.43686
# Poissons Ratio (z) = 0.28910 0.13995
#
# Static dielectric constant tensor:
#      x y z
#    x 1.998460 0.000000 0.000000 
#    y 0.000000 2.063650 0.000000 
#    z 0.000000 0.000000 2.010620 
# 
# From -- ./inp_files/47014.got.cif
#   From: 2010.05.17/outbox.cif.g08.bks.cpg/sg70_24_cif.got.tgz:47014.got - 2010.06.03 15:57:51.
