data_PCOD9516317
_publ_section_title
;
Structure prediction by ZEFSAII (Michael W. Deem and Ramdas Pophale) SiO2 
 PCOD9516317
Probable space group: F D D D
;
_chemical_formula_sum "Si O2"
_cell_formula_units_Z 88
_cell_length_a 13.774544
_cell_length_b 15.902090
_cell_length_c 14.392063
_cell_angle_alpha 90.000000
_cell_angle_beta 90.000000
_cell_angle_gamma 90.000000
_cell_volume 3152.495600
_symmetry_space_group_name_H-M "F D D D"
_symmetry_group_IT_number 70
_space_group.IT_coordinate_system_code '2'
_symmetry_cell_setting 'orthorhombic'
loop_
_space_group_symop_operation_xyz
x,y,z
1/4-x,1/4-y,z
x,1/4-y,1/4-z
1/4-x,y,1/4-z
-x,-y,-z
3/4+x,3/4+y,-z
-x,3/4+y,3/4+z
3/4+x,-y,3/4+z
x,1/2+y,1/2+z
1/4-x,3/4-y,1/2+z
x,3/4-y,3/4-z
1/4-x,1/2+y,3/4-z
-x,1/2-y,1/2-z
3/4+x,1/4+y,1/2-z
-x,1/4+y,1/4+z
3/4+x,1/2-y,1/4+z
1/2+x,y,1/2+z
3/4-x,1/4-y,1/2+z
1/2+x,1/4-y,3/4-z
3/4-x,y,3/4-z
1/2-x,-y,1/2-z
1/4+x,3/4+y,1/2-z
1/2-x,3/4+y,1/4+z
1/4+x,-y,1/4+z
1/2+x,1/2+y,z
3/4-x,3/4-y,z
1/2+x,3/4-y,1/4-z
3/4-x,1/2+y,1/4-z
1/2-x,1/2-y,-z
1/4+x,1/4+y,-z
1/2-x,1/4+y,3/4+z
1/4+x,1/2-y,3/4+z
loop_
_atom_site_type_symbol
_atom_site_label
_atom_site_fract_x
_atom_site_fract_y
_atom_site_fract_z
Si Si1 0.125000 0.625000 0.625000
Si Si2 0.375000 0.582593 0.375000
Si Si3 0.109570 0.224959 0.778826
Si Si4 0.867442 0.015001 0.740741
O O1 0.082781 0.690458 0.550375
O O2 0.422970 0.514648 0.304520
O O3 0.349345 0.651221 0.294692
O O4 0.125000 0.125000 0.784575
O O5 0.122351 0.262144 0.880905
O O6 0.000000 0.250000 0.750000
O O7 0.750000 0.000000 0.750000
#
# Coordination Sequence:
#
# PCOD9516317 Si02
#       4
#     8  16  32  32
#     4  10  24  44  78 106 154 216 280 356 416 536
#     4  11  27  41  75 112 156 212 279 353 423 515
#     4  12  27  50  78 117 166 220 279 352 440 522
#     4  11  25  47  75 112 160 217 283 347 436 514
#
# _framework density 27.914391999999999
#
# number of rings (size 3 to 8) (size 9 to 14) (size 15 to 20)
#    0.000    0.727    1.818    3.818    5.091    8.727 
#    0.000    0.000    0.000    0.000    0.000    0.000 
#    0.000    0.000    0.000    0.000    0.000    0.000 
#
# Total GULP energy -122693.941038 kJ/mol
# GULP energy per Si atom -5576.997320 kJ/mol
# Density = 2.785086 g / cm^3
# Si number density = 27.914392 Si / 1000 Ang^3
#
#
#
# Elastic Constant Matrix: (Units=GPa)
#
#
# Indices 1 2 3 4 5 6 
#
# 1 151.3395 -10.4983 63.4153 0.0000 0.0000 0.0000
# 2 -10.4983 198.5572 120.4907 0.0000 0.0000 0.0000
# 3 63.4153 120.4907 383.5074 0.0000 0.0000 0.0000
# 4 0.0000 0.0000 0.0000 54.8315 0.0000 0.0000
# 5 0.0000 0.0000 0.0000 0.0000 49.1789 0.0000
# 6 0.0000 0.0000 0.0000 0.0000 0.0000 3.3629
#
#
#
# Elastic Compliance Matrix: (Units=1/GPa)
#
#
# Indices 1 2 3 4 5 6 
#
# 1 0.007402 0.001401 -0.001664 0.000000 0.000000 0.000000
# 2 0.001401 0.006488 -0.002270 0.000000 0.000000 0.000000
# 3 -0.001664 -0.002270 0.003596 0.000000 0.000000 0.000000
# 4 0.000000 0.000000 0.000000 0.018238 0.000000 0.000000
# 5 0.000000 0.000000 0.000000 0.000000 0.020334 0.000000
# 6 0.000000 0.000000 0.000000 0.000000 0.000000 0.297363
#
#
# Mechanical properties :
#
#
# Convention : Reuss Voigt Hill
#
# Bulk Modulus (GPa) = 80.51519 120.02438 100.26978
# Shear Modulus (GPa) = 13.78826 58.80776 36.29801
#
# Velocity S-wave (km/s) = 2.22491 4.59488 3.60993
# Velocity P-wave (km/s) = 5.95873 8.44045 7.30574
#
# Compressibility (1/GPa) = 0.01242002
#
# Stress axis : x y z
#
# Youngs Moduli (GPa) = 135.09423 154.13064 278.09156
#
# Poissons Ratio (x) = -0.21598 0.46282
# Poissons Ratio (y) = -0.18931 0.63130
# Poissons Ratio (z) = 0.22483 0.34990
#
# Static dielectric constant tensor:
#      x y z
#    x 2.709830 0.000000 0.000000 
#    y 0.000000 2.140770 0.000000 
#    z 0.000000 0.000000 2.177090 
# 
# From -- ./inp_files/25097.got.cif
#   From: 2010.05.17/outbox.cif.g08.bks.cpg/sg70_13_cif.got.tgz:25097.got - 2010.06.03 15:57:51.
