data_PCOD9516844
_publ_section_title
;
Structure prediction by ZEFSAII (Michael W. Deem and Ramdas Pophale) SiO2 
 PCOD9516844
Probable space group: F D D D
;
_chemical_formula_sum "Si O2"
_cell_formula_units_Z 176
_cell_length_a 11.435854
_cell_length_b 21.080773
_cell_length_c 29.447900
_cell_angle_alpha 90.000000
_cell_angle_beta 90.000000
_cell_angle_gamma 90.000000
_cell_volume 7099.200853
_symmetry_space_group_name_H-M "F D D D"
_symmetry_group_IT_number 70
_space_group.IT_coordinate_system_code '2'
_symmetry_cell_setting 'orthorhombic'
loop_
_space_group_symop_operation_xyz
x,y,z
1/4-x,1/4-y,z
x,1/4-y,1/4-z
1/4-x,y,1/4-z
-x,-y,-z
3/4+x,3/4+y,-z
-x,3/4+y,3/4+z
3/4+x,-y,3/4+z
x,1/2+y,1/2+z
1/4-x,3/4-y,1/2+z
x,3/4-y,3/4-z
1/4-x,1/2+y,3/4-z
-x,1/2-y,1/2-z
3/4+x,1/4+y,1/2-z
-x,1/4+y,1/4+z
3/4+x,1/2-y,1/4+z
1/2+x,y,1/2+z
3/4-x,1/4-y,1/2+z
1/2+x,1/4-y,3/4-z
3/4-x,y,3/4-z
1/2-x,-y,1/2-z
1/4+x,3/4+y,1/2-z
1/2-x,3/4+y,1/4+z
1/4+x,-y,1/4+z
1/2+x,1/2+y,z
3/4-x,3/4-y,z
1/2+x,3/4-y,1/4-z
3/4-x,1/2+y,1/4-z
1/2-x,1/2-y,-z
1/4+x,1/4+y,-z
1/2-x,1/4+y,3/4+z
1/4+x,1/2-y,3/4+z
loop_
_atom_site_type_symbol
_atom_site_label
_atom_site_fract_x
_atom_site_fract_y
_atom_site_fract_z
Si Si1 0.135383 0.740512 0.762420
Si Si2 0.625000 0.831657 0.125000
Si Si3 0.890868 0.439387 0.773161
Si Si4 0.631471 0.736091 0.881392
Si Si5 0.625000 0.625000 0.200030
Si Si6 0.067220 0.875000 0.875000
Si Si7 0.959312 0.567637 0.939632
O O1 0.228004 0.797183 0.755068
O O2 0.138525 0.727323 0.815619
O O3 0.171069 0.681459 0.731383
O O4 0.000000 0.750000 0.750000
O O5 0.512744 0.786685 0.121974
O O6 0.629282 0.875356 0.170626
O O7 0.875000 0.375000 0.801485
O O8 0.796239 0.428076 0.732893
O O9 0.860294 0.503310 0.799783
O O10 0.615584 0.809641 0.866944
O O11 0.544542 0.693877 0.852645
O O12 0.732497 0.607869 0.167206
#
# Coordination Sequence:
#
# PCOD9516844 Si02
#       7
#    32  16  32  32  16  16  32
#     4  12  28  45  74 115 150 202 257 320 387 462
#     4  12  26  49  75 112 146 202 260 316 384 466
#     4  11  27  48  76 109 156 207 255 324 396 476
#     4  12  27  46  77 110 155 201 257 327 387 475
#     4  11  24  44  70 106 154 190 256 314 386 455
#     4  11  24  46  72 109 148 200 253 316 393 452
#     4  11  27  48  77 108 155 201 261 317 399 471
#
# _framework density 24.791523000000002
#
# number of rings (size 3 to 8) (size 9 to 14) (size 15 to 20)
#    0.000    0.545    1.818    4.909   12.727    1.455 
#    0.000    0.909    0.000    0.000    0.000    0.000 
#    0.000    0.000    0.000    0.000    0.000    0.000 
#
# Total GULP energy -246469.726706 kJ/mol
# GULP energy per Si atom -5601.584698 kJ/mol
# Density = 2.473510 g / cm^3
# Si number density = 24.791523 Si / 1000 Ang^3
#
#
#
# Elastic Constant Matrix: (Units=GPa)
#
#
# Indices 1 2 3 4 5 6 
#
# 1 112.1006 31.2729 0.2087 0.0000 0.0000 0.0000
# 2 31.2729 125.4740 13.7000 0.0000 0.0000 0.0000
# 3 0.2087 13.7000 95.3424 0.0000 0.0000 0.0000
# 4 0.0000 0.0000 0.0000 30.3242 0.0000 0.0000
# 5 0.0000 0.0000 0.0000 0.0000 17.8627 0.0000
# 6 0.0000 0.0000 0.0000 0.0000 0.0000 31.7164
#
#
#
# Elastic Compliance Matrix: (Units=1/GPa)
#
#
# Indices 1 2 3 4 5 6 
#
# 1 0.009597 -0.002428 0.000328 0.000000 0.000000 0.000000
# 2 -0.002428 0.008711 -0.001246 0.000000 0.000000 0.000000
# 3 0.000328 -0.001246 0.010667 0.000000 0.000000 0.000000
# 4 0.000000 0.000000 0.000000 0.032977 0.000000 0.000000
# 5 0.000000 0.000000 0.000000 0.000000 0.055983 0.000000
# 6 0.000000 0.000000 0.000000 0.000000 0.000000 0.031529
#
#
# Mechanical properties :
#
#
# Convention : Reuss Voigt Hill
#
# Bulk Modulus (GPa) = 44.87843 47.03115 45.95479
# Shear Modulus (GPa) = 30.56530 35.16302 32.86416
#
# Velocity S-wave (km/s) = 3.51507 3.77018 3.64486
# Velocity P-wave (km/s) = 5.88353 6.16151 6.02412
#
# Compressibility (1/GPa) = 0.02228242
#
# Stress axis : x y z
#
# Youngs Moduli (GPa) = 104.19666 114.79782 93.74801
#
# Poissons Ratio (x) = 0.27871 -0.03073
# Poissons Ratio (y) = 0.25297 0.11685
# Poissons Ratio (z) = -0.03416 0.14308
#
# Static dielectric constant tensor:
#      x y z
#    x 1.980030 0.000000 0.000000 
#    y 0.000000 2.067910 0.000000 
#    z 0.000000 0.000000 1.950860 
# 
# From -- ./inp_files/64787.got.cif
#   From: 2010.05.17/outbox.cif.g08.bks.cpg/sg70_33_cif.got.tgz:64787.got - 2010.06.03 15:57:51.
