data_PCOD9516212
_publ_section_title
;
Structure prediction by ZEFSAII (Michael W. Deem and Ramdas Pophale) SiO2 
 PCOD9516212
Probable space group: F D D D
;
_chemical_formula_sum "Si O2"
_cell_formula_units_Z 104
_cell_length_a 25.549303
_cell_length_b 18.683871
_cell_length_c 8.170248
_cell_angle_alpha 90.000000
_cell_angle_beta 90.000000
_cell_angle_gamma 90.000000
_cell_volume 3900.148616
_symmetry_space_group_name_H-M "F D D D"
_symmetry_group_IT_number 70
_space_group.IT_coordinate_system_code '2'
_symmetry_cell_setting 'orthorhombic'
loop_
_space_group_symop_operation_xyz
x,y,z
1/4-x,1/4-y,z
x,1/4-y,1/4-z
1/4-x,y,1/4-z
-x,-y,-z
3/4+x,3/4+y,-z
-x,3/4+y,3/4+z
3/4+x,-y,3/4+z
x,1/2+y,1/2+z
1/4-x,3/4-y,1/2+z
x,3/4-y,3/4-z
1/4-x,1/2+y,3/4-z
-x,1/2-y,1/2-z
3/4+x,1/4+y,1/2-z
-x,1/4+y,1/4+z
3/4+x,1/2-y,1/4+z
1/2+x,y,1/2+z
3/4-x,1/4-y,1/2+z
1/2+x,1/4-y,3/4-z
3/4-x,y,3/4-z
1/2-x,-y,1/2-z
1/4+x,3/4+y,1/2-z
1/2-x,3/4+y,1/4+z
1/4+x,-y,1/4+z
1/2+x,1/2+y,z
3/4-x,3/4-y,z
1/2+x,3/4-y,1/4-z
3/4-x,1/2+y,1/4-z
1/2-x,1/2-y,-z
1/4+x,1/4+y,-z
1/2-x,1/4+y,3/4+z
1/4+x,1/2-y,3/4+z
loop_
_atom_site_type_symbol
_atom_site_label
_atom_site_fract_x
_atom_site_fract_y
_atom_site_fract_z
Si Si1 0.300332 0.341094 0.129030
Si Si2 0.810091 0.260760 0.961146
Si Si3 0.875000 0.375000 0.375000
Si Si4 0.322631 0.110596 0.321605
O O1 0.320845 0.421612 0.172552
O O2 0.316724 0.291593 0.278917
O O3 0.237492 0.335735 0.107563
O O4 0.333206 0.325089 0.969950
O O5 0.828746 0.179687 0.945032
O O6 0.750000 0.250000 0.000000
O O7 0.375000 0.068634 0.375000
O O8 0.322484 0.125000 0.125000
#
# Coordination Sequence:
#
# PCOD9516212 Si02
#       4
#    32  32   8  32
#     4  10  23  46  68 101 136 177 241 289 353 421
#     4   9  22  44  72  93 134 184 229 289 352 426
#     4  12  24  42  68 100 140 178 232 306 340 420
#     4  11  25  44  65 100 136 178 227 283 357 418
#
# _framework density 26.665649999999999
#
# number of rings (size 3 to 8) (size 9 to 14) (size 15 to 20)
#    0.000    1.846    1.538    0.000   12.923    2.462 
#    2.769    0.000    0.000    0.000    0.000    0.000 
#    0.000    0.000    0.000    0.000    0.000    0.000 
#
# Total GULP energy -145048.419301 kJ/mol
# GULP energy per Si atom -5578.785358 kJ/mol
# Density = 2.660496 g / cm^3
# Si number density = 26.665650 Si / 1000 Ang^3
#
#
#
# Elastic Constant Matrix: (Units=GPa)
#
#
# Indices 1 2 3 4 5 6 
#
# 1 191.3260 22.6627 18.5610 0.0000 0.0000 0.0000
# 2 22.6627 114.5092 12.9627 0.0000 0.0000 0.0000
# 3 18.5610 12.9627 89.9962 -0.0001 0.0000 0.0001
# 4 0.0000 0.0000 -0.0001 -2.1231 0.0000 0.0000
# 5 0.0000 0.0000 0.0000 0.0000 73.5475 0.0000
# 6 0.0000 0.0000 0.0001 0.0000 0.0000 -7.3779
#
#
#
# Elastic Compliance Matrix: (Units=1/GPa)
#
#
# Indices 1 2 3 4 5 6 
#
# 1 0.005436 -0.000965 -0.000982 0.000000 0.000000 0.000000
# 2 -0.000965 0.009049 -0.001104 0.000000 0.000000 0.000000
# 3 -0.000982 -0.001104 0.011473 0.000000 0.000000 0.000000
# 4 0.000000 0.000000 0.000000 -0.470999 0.000000 -0.000002
# 5 0.000000 0.000000 0.000000 0.000000 0.013597 0.000000
# 6 0.000000 0.000000 0.000000 -0.000002 0.000000 -0.135539
#
#
# Mechanical properties :
#
#
# Convention : Reuss Voigt Hill
#
# Bulk Modulus (GPa) = 50.36344 56.02269 53.19306
# Shear Modulus (GPa) = -9.02100 35.58562 13.28231
#
# Velocity S-wave (km/s) = -1.84129 3.65706 2.23425
# Velocity P-wave (km/s) = 3.79573 6.23595 5.16210
#
# Compressibility (1/GPa) = 0.01985567
#
# Stress axis : x y z
#
# Youngs Moduli (GPa) = 183.95068 110.51100 87.15939
#
# Poissons Ratio (x) = 0.10661 0.08561
# Poissons Ratio (y) = 0.17746 0.09626
# Poissons Ratio (z) = 0.18068 0.12205
#
# Static dielectric constant tensor:
#      x y z
#    x 4.025040 0.000000 0.000000 
#    y 0.000000 2.177050 0.000000 
#    z 0.000000 0.000000 2.182300 
# 
# From -- ./inp_files/10593.got.cif
#   From: 2010.05.17/outbox.cif.g08.bks.cpg/sg70_6_cif.got.tgz:10593.got - 2010.06.03 15:57:51.
