data_PCOD9516080
_publ_section_title
;
Structure prediction by ZEFSAII (Michael W. Deem and Ramdas Pophale) SiO2 
 PCOD9516080
Probable space group: F D D D
;
_chemical_formula_sum "Si O2"
_cell_formula_units_Z 136
_cell_length_a 25.745559
_cell_length_b 19.508429
_cell_length_c 13.632768
_cell_angle_alpha 90.000000
_cell_angle_beta 90.000000
_cell_angle_gamma 90.000000
_cell_volume 6847.131479
_symmetry_space_group_name_H-M "F D D D"
_symmetry_group_IT_number 70
_space_group.IT_coordinate_system_code '2'
_symmetry_cell_setting 'orthorhombic'
loop_
_space_group_symop_operation_xyz
x,y,z
1/4-x,1/4-y,z
x,1/4-y,1/4-z
1/4-x,y,1/4-z
-x,-y,-z
3/4+x,3/4+y,-z
-x,3/4+y,3/4+z
3/4+x,-y,3/4+z
x,1/2+y,1/2+z
1/4-x,3/4-y,1/2+z
x,3/4-y,3/4-z
1/4-x,1/2+y,3/4-z
-x,1/2-y,1/2-z
3/4+x,1/4+y,1/2-z
-x,1/4+y,1/4+z
3/4+x,1/2-y,1/4+z
1/2+x,y,1/2+z
3/4-x,1/4-y,1/2+z
1/2+x,1/4-y,3/4-z
3/4-x,y,3/4-z
1/2-x,-y,1/2-z
1/4+x,3/4+y,1/2-z
1/2-x,3/4+y,1/4+z
1/4+x,-y,1/4+z
1/2+x,1/2+y,z
3/4-x,3/4-y,z
1/2+x,3/4-y,1/4-z
3/4-x,1/2+y,1/4-z
1/2-x,1/2-y,-z
1/4+x,1/4+y,-z
1/2-x,1/4+y,3/4+z
1/4+x,1/2-y,3/4+z
loop_
_atom_site_type_symbol
_atom_site_label
_atom_site_fract_x
_atom_site_fract_y
_atom_site_fract_z
Si Si1 0.318709 0.056609 0.566911
Si Si2 0.006704 0.059672 0.858762
Si Si3 0.299425 0.450914 0.224410
Si Si4 0.185505 0.814716 0.450790
Si Si5 0.375000 0.875000 0.875000
O O1 0.300621 0.125000 0.625000
O O2 0.276835 0.035868 0.485580
O O3 0.375014 0.071585 0.522155
O O4 0.328619 0.997576 0.645729
O O5 0.029993 0.132111 0.827622
O O6 0.968793 0.068981 0.950968
O O7 0.049173 0.005177 0.894597
O O8 0.250000 0.500000 0.250000
O O9 0.337134 0.424299 0.310828
O O10 0.198368 0.875000 0.375000
#
# Coordination Sequence:
#
# PCOD9516080 Si02
#       5
#    32  32  32  32   8
#     4  11  22  40  61  94 126 168 219 265 336 407
#     4  11  22  42  64  93 129 173 222 274 341 400
#     4  12  24  42  66  96 138 176 226 291 348 428
#     4  10  23  40  64  91 126 171 217 275 323 406
#     4  12  28  44  68 104 138 192 230 292 376 402
#
# _framework density 19.862331999999999
#
# number of rings (size 3 to 8) (size 9 to 14) (size 15 to 20)
#    0.000    0.941    2.353    4.941    0.000    3.765 
#    0.000    0.000    0.000    4.235    0.000    0.000 
#    0.000    0.000    0.000    0.000    0.000    0.000 
#
# Total GULP energy -189916.424818 kJ/mol
# GULP energy per Si atom -5585.777201 kJ/mol
# Density = 1.981712 g / cm^3
# Si number density = 19.862332 Si / 1000 Ang^3
#
#
#
# Elastic Constant Matrix: (Units=GPa)
#
#
# Indices 1 2 3 4 5 6 
#
# 1 70.7916 20.1668 40.7282 0.0000 0.0000 0.0000
# 2 20.1668 111.7044 43.9369 0.0000 0.0000 0.0000
# 3 40.7282 43.9369 96.4998 0.0000 0.0000 0.0000
# 4 0.0000 0.0000 0.0000 39.0305 0.0000 0.0000
# 5 0.0000 0.0000 0.0000 0.0000 29.3544 0.0000
# 6 0.0000 0.0000 0.0000 0.0000 0.0000 28.4675
#
#
#
# Elastic Compliance Matrix: (Units=1/GPa)
#
#
# Indices 1 2 3 4 5 6 
#
# 1 0.018666 -0.000330 -0.007728 0.000000 0.000000 0.000000
# 2 -0.000330 0.010911 -0.004828 0.000000 0.000000 0.000000
# 3 -0.007728 -0.004828 0.015823 0.000000 0.000000 0.000000
# 4 0.000000 0.000000 0.000000 0.025621 0.000000 0.000000
# 5 0.000000 0.000000 0.000000 0.000000 0.034066 0.000000
# 6 0.000000 0.000000 0.000000 0.000000 0.000000 0.035128
#
#
# Mechanical properties :
#
#
# Convention : Reuss Voigt Hill
#
# Bulk Modulus (GPa) = 50.95090 54.29553 52.62321
# Shear Modulus (GPa) = 28.98048 30.98141 29.98094
#
# Velocity S-wave (km/s) = 3.82392 3.95372 3.88936
# Velocity P-wave (km/s) = 6.72340 6.94535 6.83528
#
# Compressibility (1/GPa) = 0.01962674
#
# Stress axis : x y z
#
# Youngs Moduli (GPa) = 53.57335 91.65058 63.20068
#
# Poissons Ratio (x) = 0.03028 0.48839
# Poissons Ratio (y) = 0.01770 0.30516
# Poissons Ratio (z) = 0.41400 0.44253
#
# Static dielectric constant tensor:
#      x y z
#    x 1.748930 0.000000 0.000000 
#    y 0.000000 1.687950 0.000000 
#    z 0.000000 0.000000 1.702890 
# 
# From -- ./inp_files/17642.got.cif
#   From: 2010.05.17/outbox.cif.g08.bks.cpg/sg70_9_cif.got.tgz:17642.got - 2010.06.03 15:57:51.
