data_PCOD9516171
_publ_section_title
;
Structure prediction by ZEFSAII (Michael W. Deem and Ramdas Pophale) SiO2 
 PCOD9516171
Probable space group: F D D D
;
_chemical_formula_sum "Si O2"
_cell_formula_units_Z 80
_cell_length_a 16.099376
_cell_length_b 22.578793
_cell_length_c 10.422175
_cell_angle_alpha 90.000000
_cell_angle_beta 90.000000
_cell_angle_gamma 90.000000
_cell_volume 3788.507284
_symmetry_space_group_name_H-M "F D D D"
_symmetry_group_IT_number 70
_space_group.IT_coordinate_system_code '2'
_symmetry_cell_setting 'orthorhombic'
loop_
_space_group_symop_operation_xyz
x,y,z
1/4-x,1/4-y,z
x,1/4-y,1/4-z
1/4-x,y,1/4-z
-x,-y,-z
3/4+x,3/4+y,-z
-x,3/4+y,3/4+z
3/4+x,-y,3/4+z
x,1/2+y,1/2+z
1/4-x,3/4-y,1/2+z
x,3/4-y,3/4-z
1/4-x,1/2+y,3/4-z
-x,1/2-y,1/2-z
3/4+x,1/4+y,1/2-z
-x,1/4+y,1/4+z
3/4+x,1/2-y,1/4+z
1/2+x,y,1/2+z
3/4-x,1/4-y,1/2+z
1/2+x,1/4-y,3/4-z
3/4-x,y,3/4-z
1/2-x,-y,1/2-z
1/4+x,3/4+y,1/2-z
1/2-x,3/4+y,1/4+z
1/4+x,-y,1/4+z
1/2+x,1/2+y,z
3/4-x,3/4-y,z
1/2+x,3/4-y,1/4-z
3/4-x,1/2+y,1/4-z
1/2-x,1/2-y,-z
1/4+x,1/4+y,-z
1/2-x,1/4+y,3/4+z
1/4+x,1/2-y,3/4+z
loop_
_atom_site_type_symbol
_atom_site_label
_atom_site_fract_x
_atom_site_fract_y
_atom_site_fract_z
Si Si1 0.347153 0.512079 0.735498
Si Si2 0.676914 0.875000 0.375000
Si Si3 0.080652 0.687461 0.252543
O O1 0.250000 0.500000 0.750000
O O2 0.371193 0.580416 0.707869
O O3 0.396180 0.476121 0.625156
O O4 0.375000 0.493347 0.875000
O O5 0.737956 0.916718 0.287636
O O6 0.125000 0.625000 0.274984
O O7 0.125000 0.714147 0.125000
#
# Coordination Sequence:
#
# PCOD9516171 Si02
#       3
#    32  16  32
#     4  12  26  42  66 103 132 164 218 280 331 375
#     4  10  23  44  67  90 130 186 218 246 325 418
#     4   9  20  43  69  93 126 175 220 258 320 403
#
# _framework density 21.116496000000001
#
# number of rings (size 3 to 8) (size 9 to 14) (size 15 to 20)
#    0.000    2.000    0.000    6.000    0.000    8.800 
#    0.000    0.000    0.000    0.000    0.000    0.000 
#    0.000    0.000    0.000    0.000    0.000    0.000 
#
# Total GULP energy -111504.858144 kJ/mol
# GULP energy per Si atom -5575.242907 kJ/mol
# Density = 2.106843 g / cm^3
# Si number density = 21.116496 Si / 1000 Ang^3
#
#
#
# Elastic Constant Matrix: (Units=GPa)
#
#
# Indices 1 2 3 4 5 6 
#
# 1 180.5009 63.7853 62.4096 0.0000 0.0000 0.0000
# 2 63.7853 66.1824 78.5573 0.0000 0.0000 0.0000
# 3 62.4096 78.5573 194.1243 0.0000 0.0000 0.0000
# 4 0.0000 0.0000 0.0000 36.3472 0.0000 0.0000
# 5 0.0000 0.0000 0.0000 0.0000 14.7169 0.0000
# 6 0.0000 0.0000 0.0000 0.0000 0.0000 -4.8528
#
#
#
# Elastic Compliance Matrix: (Units=1/GPa)
#
#
# Indices 1 2 3 4 5 6 
#
# 1 0.008527 -0.009553 0.001124 0.000000 0.000000 0.000000
# 2 -0.009553 0.039779 -0.013026 0.000000 0.000000 0.000000
# 3 0.001124 -0.013026 0.010061 0.000000 0.000000 0.000000
# 4 0.000000 0.000000 0.000000 0.027512 0.000000 0.000000
# 5 0.000000 0.000000 0.000000 0.000000 0.067949 0.000000
# 6 0.000000 0.000000 0.000000 0.000000 0.000000 -0.206069
#
#
# Mechanical properties :
#
#
# Convention : Reuss Voigt Hill
#
# Bulk Modulus (GPa) = 64.69364 94.47911 79.58637
# Shear Modulus (GPa) = -1196.84004 24.97928 -585.93038
#
# Velocity S-wave (km/s) = -23.83296 3.44310 -16.67566
# Velocity P-wave (km/s) = 26.95633 7.78753 18.24826
#
# Compressibility (1/GPa) = 0.01545747
#
# Stress axis : x y z
#
# Youngs Moduli (GPa) = 117.27165 25.13911 99.39155
#
# Poissons Ratio (x) = 0.24016 -0.11176
# Poissons Ratio (y) = 1.12030 1.29469
# Poissons Ratio (z) = -0.13187 0.32747
#
# Static dielectric constant tensor:
#      x y z
#    x 1.748480 0.000000 0.000000 
#    y 0.000000 1.766380 0.000000 
#    z 0.000000 0.000000 1.750900 
# 
# From -- ./inp_files/10140.got.cif
#   From: 2010.05.17/outbox.cif.g08.bks.cpg/sg70_6_cif.got.tgz:10140.got - 2010.06.03 15:57:51.
