data_PCOD9516363
_publ_section_title
;
Structure prediction by ZEFSAII (Michael W. Deem and Ramdas Pophale) SiO2 
 PCOD9516363
Probable space group: F D D D
;
_chemical_formula_sum "Si O2"
_cell_formula_units_Z 216
_cell_length_a 32.497117
_cell_length_b 12.919522
_cell_length_c 22.230656
_cell_angle_alpha 90.000000
_cell_angle_beta 90.000000
_cell_angle_gamma 90.000000
_cell_volume 9333.479076
_symmetry_space_group_name_H-M "F D D D"
_symmetry_group_IT_number 70
_space_group.IT_coordinate_system_code '2'
_symmetry_cell_setting 'orthorhombic'
loop_
_space_group_symop_operation_xyz
x,y,z
1/4-x,1/4-y,z
x,1/4-y,1/4-z
1/4-x,y,1/4-z
-x,-y,-z
3/4+x,3/4+y,-z
-x,3/4+y,3/4+z
3/4+x,-y,3/4+z
x,1/2+y,1/2+z
1/4-x,3/4-y,1/2+z
x,3/4-y,3/4-z
1/4-x,1/2+y,3/4-z
-x,1/2-y,1/2-z
3/4+x,1/4+y,1/2-z
-x,1/4+y,1/4+z
3/4+x,1/2-y,1/4+z
1/2+x,y,1/2+z
3/4-x,1/4-y,1/2+z
1/2+x,1/4-y,3/4-z
3/4-x,y,3/4-z
1/2-x,-y,1/2-z
1/4+x,3/4+y,1/2-z
1/2-x,3/4+y,1/4+z
1/4+x,-y,1/4+z
1/2+x,1/2+y,z
3/4-x,3/4-y,z
1/2+x,3/4-y,1/4-z
3/4-x,1/2+y,1/4-z
1/2-x,1/2-y,-z
1/4+x,1/4+y,-z
1/2-x,1/4+y,3/4+z
1/4+x,1/2-y,3/4+z
loop_
_atom_site_type_symbol
_atom_site_label
_atom_site_fract_x
_atom_site_fract_y
_atom_site_fract_z
Si Si1 0.209554 0.684267 0.481880
Si Si2 0.054658 0.250083 0.062422
Si Si3 0.602544 0.786706 0.688048
Si Si4 0.956522 0.465648 0.027539
Si Si5 0.584828 0.375000 0.375000
Si Si6 0.625000 0.625000 0.125000
Si Si7 0.845486 0.650574 0.032916
Si Si8 0.966133 0.493741 0.652497
O O1 0.250000 0.750000 0.500000
O O2 0.208603 0.565954 0.503142
O O3 0.171604 0.753011 0.505174
O O4 0.201725 0.700107 0.411309
O O5 0.068897 0.368823 0.061568
O O6 0.094615 0.194599 0.086659
O O7 0.014656 0.234674 0.103622
O O8 0.625000 0.767256 0.625000
O O9 0.576354 0.702016 0.723464
O O10 0.636982 0.821754 0.734720
O O11 0.940367 0.545967 0.080683
O O12 0.962729 0.353243 0.054293
O O13 0.000000 0.500000 0.000000
O O14 0.617181 0.320821 0.421621
O O15 0.809526 0.587806 0.068353
#
# Coordination Sequence:
#
# PCOD9516363 Si02
#       8
#    32  32  32  32  16   8  32  32
#     4  12  25  41  71 106 147 193 236 293 376 442
#     4  12  25  43  72 107 144 192 241 294 377 436
#     4  11  26  49  72 105 148 189 245 317 373 437
#     4  11  26  49  76 106 142 199 253 298 373 444
#     4  10  24  47  76 100 145 183 246 306 367 434
#     4  12  24  42  68 108 148 182 236 296 376 444
#     4  11  24  49  71 107 147 187 242 308 373 441
#     4  12  26  46  75 104 148 191 247 310 358 456
#
# _framework density 23.142496000000001
#
# number of rings (size 3 to 8) (size 9 to 14) (size 15 to 20)
#    0.000    0.593    5.185    1.778    6.222    2.370 
#    2.667    0.741    0.000    0.000    0.000    0.000 
#    0.000    0.000    0.000    0.000    0.000    0.000 
#
# Total GULP energy -301528.268516 kJ/mol
# GULP energy per Si atom -5583.856824 kJ/mol
# Density = 2.308982 g / cm^3
# Si number density = 23.142496 Si / 1000 Ang^3
#
#
#
# Elastic Constant Matrix: (Units=GPa)
#
#
# Indices 1 2 3 4 5 6 
#
# 1 126.1032 12.3911 32.9147 0.0000 0.0000 0.0000
# 2 12.3911 76.8952 9.9445 0.0000 0.0000 0.0000
# 3 32.9147 9.9445 96.4318 0.0000 0.0000 0.0000
# 4 0.0000 0.0000 0.0000 33.1869 0.0000 0.0000
# 5 0.0000 0.0000 0.0000 0.0000 36.4742 0.0000
# 6 0.0000 0.0000 0.0000 0.0000 0.0000 4.2890
#
#
#
# Elastic Compliance Matrix: (Units=1/GPa)
#
#
# Indices 1 2 3 4 5 6 
#
# 1 0.008787 -0.001042 -0.002892 0.000000 0.000000 0.000000
# 2 -0.001042 0.013304 -0.001016 0.000000 0.000000 0.000000
# 3 -0.002892 -0.001016 0.011462 0.000000 0.000000 0.000000
# 4 0.000000 0.000000 0.000000 0.030132 0.000000 0.000000
# 5 0.000000 0.000000 0.000000 0.000000 0.027417 0.000000
# 6 0.000000 0.000000 0.000000 0.000000 0.000000 0.233154
#
#
# Mechanical properties :
#
#
# Convention : Reuss Voigt Hill
#
# Bulk Modulus (GPa) = 42.27824 45.54786 43.91305
# Shear Modulus (GPa) = 14.61815 31.06869 22.84342
#
# Velocity S-wave (km/s) = 2.51601 3.66798 3.14519
# Velocity P-wave (km/s) = 5.17192 6.13702 5.67502
#
# Compressibility (1/GPa) = 0.02365283
#
# Stress axis : x y z
#
# Youngs Moduli (GPa) = 113.80170 75.16507 87.24565
#
# Poissons Ratio (x) = 0.07832 0.25230
# Poissons Ratio (y) = 0.11858 0.08867
# Poissons Ratio (z) = 0.32910 0.07639
#
# Static dielectric constant tensor:
#      x y z
#    x 1.911020 0.000000 0.000000 
#    y 0.000000 2.015820 0.000000 
#    z 0.000000 0.000000 1.959250 
# 
# From -- ./inp_files/55154.got.cif
#   From: 2010.05.17/outbox.cif.g08.bks.cpg/sg70_28_cif.got.tgz:55154.got - 2010.06.03 15:57:51.
