data_PCOD9516853
_publ_section_title
;
Structure prediction by ZEFSAII (Michael W. Deem and Ramdas Pophale) SiO2 
 PCOD9516853
Probable space group: F D D D
;
_chemical_formula_sum "Si O2"
_cell_formula_units_Z 168
_cell_length_a 18.335327
_cell_length_b 18.513559
_cell_length_c 23.160795
_cell_angle_alpha 90.000000
_cell_angle_beta 90.000000
_cell_angle_gamma 90.000000
_cell_volume 7861.981848
_symmetry_space_group_name_H-M "F D D D"
_symmetry_group_IT_number 70
_space_group.IT_coordinate_system_code '2'
_symmetry_cell_setting 'orthorhombic'
loop_
_space_group_symop_operation_xyz
x,y,z
1/4-x,1/4-y,z
x,1/4-y,1/4-z
1/4-x,y,1/4-z
-x,-y,-z
3/4+x,3/4+y,-z
-x,3/4+y,3/4+z
3/4+x,-y,3/4+z
x,1/2+y,1/2+z
1/4-x,3/4-y,1/2+z
x,3/4-y,3/4-z
1/4-x,1/2+y,3/4-z
-x,1/2-y,1/2-z
3/4+x,1/4+y,1/2-z
-x,1/4+y,1/4+z
3/4+x,1/2-y,1/4+z
1/2+x,y,1/2+z
3/4-x,1/4-y,1/2+z
1/2+x,1/4-y,3/4-z
3/4-x,y,3/4-z
1/2-x,-y,1/2-z
1/4+x,3/4+y,1/2-z
1/2-x,3/4+y,1/4+z
1/4+x,-y,1/4+z
1/2+x,1/2+y,z
3/4-x,3/4-y,z
1/2+x,3/4-y,1/4-z
3/4-x,1/2+y,1/4-z
1/2-x,1/2-y,-z
1/4+x,1/4+y,-z
1/2-x,1/4+y,3/4+z
1/4+x,1/2-y,3/4+z
loop_
_atom_site_type_symbol
_atom_site_label
_atom_site_fract_x
_atom_site_fract_y
_atom_site_fract_z
Si Si1 0.125000 0.125000 0.125000
Si Si2 0.375000 0.255784 0.375000
Si Si3 0.497310 0.875000 0.875000
Si Si4 0.685142 0.186232 0.395890
Si Si5 0.571222 0.864567 0.538594
Si Si6 0.837729 0.543805 0.530453
Si Si7 0.752462 0.791833 0.803448
O O1 0.179391 0.172822 0.163889
O O2 0.443603 0.307792 0.361335
O O3 0.395307 0.203157 0.427797
O O4 0.548479 0.850360 0.927586
O O5 0.625000 0.125000 0.381729
O O6 0.753399 0.148698 0.427477
O O7 0.647409 0.244711 0.437840
O O8 0.713413 0.231622 0.341420
O O9 0.633955 0.923990 0.530016
O O10 0.552615 0.852413 0.470388
O O11 0.776375 0.488732 0.508418
#
# Coordination Sequence:
#
# PCOD9516853 Si02
#       7
#     8  16  16  32  32  32  32
#     4  12  24  44  64 104 144 160 252 292 332 430
#     4  11  24  45  68  97 143 178 226 290 333 410
#     4  11  24  45  68  97 143 178 226 290 333 410
#     4  12  24  44  66 100 144 173 234 291 338 426
#     4  12  24  43  68  98 135 182 233 284 345 404
#     4  12  24  43  68  98 135 182 233 284 345 404
#     4  12  24  41  68  98 128 189 217 280 365 389
#
# _framework density 21.368658
#
# number of rings (size 3 to 8) (size 9 to 14) (size 15 to 20)
#    0.000    0.190    3.810    6.286    0.000    2.286 
#    0.000    0.000    0.000    0.000    0.000    0.000 
#    0.000    0.000    0.000    0.000    0.000    0.000 
#
# Total GULP energy -234748.405059 kJ/mol
# GULP energy per Si atom -5589.247740 kJ/mol
# Density = 2.132002 g / cm^3
# Si number density = 21.368658 Si / 1000 Ang^3
#
#
#
# Elastic Constant Matrix: (Units=GPa)
#
#
# Indices 1 2 3 4 5 6 
#
# 1 87.6163 26.9334 25.9776 0.0000 0.0000 0.0000
# 2 26.9334 96.0601 31.8085 0.0000 0.0000 0.0000
# 3 25.9776 31.8085 80.7372 0.0000 0.0000 0.0000
# 4 0.0000 0.0000 0.0000 47.6219 0.0000 0.0000
# 5 0.0000 0.0000 0.0000 0.0000 30.7420 0.0000
# 6 0.0000 0.0000 0.0000 0.0000 0.0000 36.5416
#
#
#
# Elastic Compliance Matrix: (Units=1/GPa)
#
#
# Indices 1 2 3 4 5 6 
#
# 1 0.013172 -0.002633 -0.003201 0.000000 0.000000 0.000000
# 2 -0.002633 0.012498 -0.004077 0.000000 0.000000 0.000000
# 3 -0.003201 -0.004077 0.015022 0.000000 0.000000 0.000000
# 4 0.000000 0.000000 0.000000 0.020999 0.000000 0.000000
# 5 0.000000 0.000000 0.000000 0.000000 0.032529 0.000000
# 6 0.000000 0.000000 0.000000 0.000000 0.000000 0.027366
#
#
# Mechanical properties :
#
#
# Convention : Reuss Voigt Hill
#
# Bulk Modulus (GPa) = 47.91421 48.20583 48.06002
# Shear Modulus (GPa) = 33.70087 34.96071 34.33079
#
# Velocity S-wave (km/s) = 3.97560 4.04923 4.01258
# Velocity P-wave (km/s) = 6.59888 6.66857 6.63381
#
# Compressibility (1/GPa) = 0.02087064
#
# Stress axis : x y z
#
# Youngs Moduli (GPa) = 75.91951 80.01005 66.56969
#
# Poissons Ratio (x) = 0.21069 0.21307
# Poissons Ratio (y) = 0.19992 0.27139
# Poissons Ratio (z) = 0.24299 0.32618
#
# Static dielectric constant tensor:
#      x y z
#    x 1.735820 0.000000 0.000000 
#    y 0.000000 1.740330 0.000000 
#    z 0.000000 0.000000 1.739870 
# 
# From -- ./inp_files/52189.got.cif
#   From: 2010.05.17/outbox.cif.g08.bks.cpg/sg70_27_cif.got.tgz:52189.got - 2010.06.03 15:57:51.
