data_PCOD9516550
_publ_section_title
;
Structure prediction by ZEFSAII (Michael W. Deem and Ramdas Pophale) SiO2 
 PCOD9516550
Probable space group: F D D D
;
_chemical_formula_sum "Si O2"
_cell_formula_units_Z 144
_cell_length_a 21.208826
_cell_length_b 21.765336
_cell_length_c 11.373698
_cell_angle_alpha 90.000000
_cell_angle_beta 90.000000
_cell_angle_gamma 90.000000
_cell_volume 5250.294898
_symmetry_space_group_name_H-M "F D D D"
_symmetry_group_IT_number 70
_space_group.IT_coordinate_system_code '2'
_symmetry_cell_setting 'orthorhombic'
loop_
_space_group_symop_operation_xyz
x,y,z
1/4-x,1/4-y,z
x,1/4-y,1/4-z
1/4-x,y,1/4-z
-x,-y,-z
3/4+x,3/4+y,-z
-x,3/4+y,3/4+z
3/4+x,-y,3/4+z
x,1/2+y,1/2+z
1/4-x,3/4-y,1/2+z
x,3/4-y,3/4-z
1/4-x,1/2+y,3/4-z
-x,1/2-y,1/2-z
3/4+x,1/4+y,1/2-z
-x,1/4+y,1/4+z
3/4+x,1/2-y,1/4+z
1/2+x,y,1/2+z
3/4-x,1/4-y,1/2+z
1/2+x,1/4-y,3/4-z
3/4-x,y,3/4-z
1/2-x,-y,1/2-z
1/4+x,3/4+y,1/2-z
1/2-x,3/4+y,1/4+z
1/4+x,-y,1/4+z
1/2+x,1/2+y,z
3/4-x,3/4-y,z
1/2+x,3/4-y,1/4-z
3/4-x,1/2+y,1/4-z
1/2-x,1/2-y,-z
1/4+x,1/4+y,-z
1/2-x,1/4+y,3/4+z
1/4+x,1/2-y,3/4+z
loop_
_atom_site_type_symbol
_atom_site_label
_atom_site_fract_x
_atom_site_fract_y
_atom_site_fract_z
Si Si1 0.000000 0.000000 0.000000
Si Si2 0.566201 0.797375 0.687999
Si Si3 0.601139 0.753426 0.951912
Si Si4 0.479614 0.432403 0.292457
Si Si5 0.703134 0.625482 0.923985
O O1 0.980579 0.926187 0.989560
O O2 0.923070 0.016839 0.019435
O O3 0.625000 0.827859 0.625000
O O4 0.583959 0.779689 0.821124
O O5 0.551663 0.733210 0.624174
O O6 0.507972 0.838702 0.647680
O O7 0.541390 0.786382 0.018650
O O8 0.588193 0.680634 0.970625
O O9 0.494403 0.375000 0.375000
O O10 0.431275 0.415826 0.189601
#
# Coordination Sequence:
#
# PCOD9516550 Si02
#       5
#    16  32  32  32  32
#     4  12  28  42  72 110 162 224 238 318 416 498
#     4  11  23  40  72 116 148 188 257 328 395 460
#     4  11  24  46  70 112 158 200 267 324 395 485
#     4  11  20  42  79 110 147 195 251 335 400 447
#     4  11  24  47  71 109 158 203 265 328 391 482
#
# _framework density 27.427029000000001
#
# number of rings (size 3 to 8) (size 9 to 14) (size 15 to 20)
#    0.000    0.889    4.444    3.333    3.111    0.444 
#    0.000    8.889    0.000   10.667    0.000    0.000 
#    0.000    0.000    0.000    0.000    0.000    0.000 
#
# Total GULP energy -200420.068507 kJ/mol
# GULP energy per Si atom -5567.224125 kJ/mol
# Density = 2.736460 g / cm^3
# Si number density = 27.427029 Si / 1000 Ang^3
#
#
#
# Elastic Constant Matrix: (Units=GPa)
#
#
# Indices 1 2 3 4 5 6 
#
# 1 204.0624 32.8761 19.3552 0.0000 0.0000 0.0000
# 2 32.8761 167.4103 26.5326 0.0000 0.0000 0.0000
# 3 19.3552 26.5326 57.9301 0.0000 0.0000 0.0000
# 4 0.0000 0.0000 0.0000 32.7047 0.0000 0.0000
# 5 0.0000 0.0000 0.0000 0.0000 38.7040 0.0000
# 6 0.0000 0.0000 0.0000 0.0000 0.0000 41.6596
#
#
#
# Elastic Compliance Matrix: (Units=1/GPa)
#
#
# Indices 1 2 3 4 5 6 
#
# 1 0.005158 -0.000798 -0.001358 0.000000 0.000000 0.000000
# 2 -0.000798 0.006564 -0.002740 0.000000 0.000000 0.000000
# 3 -0.001358 -0.002740 0.018971 0.000000 0.000000 0.000000
# 4 0.000000 0.000000 0.000000 0.030577 0.000000 0.000000
# 5 0.000000 0.000000 0.000000 0.000000 0.025837 0.000000
# 6 0.000000 0.000000 0.000000 0.000000 0.000000 0.024004
#
#
# Mechanical properties :
#
#
# Convention : Reuss Voigt Hill
#
# Bulk Modulus (GPa) = 47.84306 65.21452 56.52879
# Shear Modulus (GPa) = 39.10249 45.98958 42.54603
#
# Velocity S-wave (km/s) = 3.77993 4.09931 3.94286
# Velocity P-wave (km/s) = 6.04418 6.79963 6.43300
#
# Compressibility (1/GPa) = 0.02090167
#
# Stress axis : x y z
#
# Youngs Moduli (GPa) = 193.88211 152.34032 52.71248
#
# Poissons Ratio (x) = 0.12152 0.07158
# Poissons Ratio (y) = 0.15465 0.14443
# Poissons Ratio (z) = 0.26328 0.41741
#
# Static dielectric constant tensor:
#      x y z
#    x 2.396640 0.000000 0.000000 
#    y 0.000000 2.993400 0.000000 
#    z 0.000000 0.000000 2.403550 
# 
# From -- ./inp_files/36456.got.cif
#   From: 2010.05.17/outbox.cif.g08.bks.cpg/sg70_19_cif.got.tgz:36456.got - 2010.06.03 15:57:51.
