data_PCOD9516426
_publ_section_title
;
Structure prediction by ZEFSAII (Michael W. Deem and Ramdas Pophale) SiO2 
 PCOD9516426
Probable space group: F D D D
;
_chemical_formula_sum "Si O2"
_cell_formula_units_Z 144
_cell_length_a 13.701293
_cell_length_b 15.078588
_cell_length_c 30.446957
_cell_angle_alpha 90.000000
_cell_angle_beta 90.000000
_cell_angle_gamma 90.000000
_cell_volume 6290.224163
_symmetry_space_group_name_H-M "F D D D"
_symmetry_group_IT_number 70
_space_group.IT_coordinate_system_code '2'
_symmetry_cell_setting 'orthorhombic'
loop_
_space_group_symop_operation_xyz
x,y,z
1/4-x,1/4-y,z
x,1/4-y,1/4-z
1/4-x,y,1/4-z
-x,-y,-z
3/4+x,3/4+y,-z
-x,3/4+y,3/4+z
3/4+x,-y,3/4+z
x,1/2+y,1/2+z
1/4-x,3/4-y,1/2+z
x,3/4-y,3/4-z
1/4-x,1/2+y,3/4-z
-x,1/2-y,1/2-z
3/4+x,1/4+y,1/2-z
-x,1/4+y,1/4+z
3/4+x,1/2-y,1/4+z
1/2+x,y,1/2+z
3/4-x,1/4-y,1/2+z
1/2+x,1/4-y,3/4-z
3/4-x,y,3/4-z
1/2-x,-y,1/2-z
1/4+x,3/4+y,1/2-z
1/2-x,3/4+y,1/4+z
1/4+x,-y,1/4+z
1/2+x,1/2+y,z
3/4-x,3/4-y,z
1/2+x,3/4-y,1/4-z
3/4-x,1/2+y,1/4-z
1/2-x,1/2-y,-z
1/4+x,1/4+y,-z
1/2-x,1/4+y,3/4+z
1/4+x,1/2-y,3/4+z
loop_
_atom_site_type_symbol
_atom_site_label
_atom_site_fract_x
_atom_site_fract_y
_atom_site_fract_z
Si Si1 0.305528 0.095636 0.291510
Si Si2 0.231602 0.585304 0.281268
Si Si3 0.234001 0.108826 0.199782
Si Si4 0.122321 0.375000 0.375000
Si Si5 0.982380 0.227342 0.879612
O O1 0.421896 0.100700 0.280055
O O2 0.254263 0.139093 0.249236
O O3 0.283006 0.150104 0.335267
O O4 0.260857 0.998234 0.298594
O O5 0.125000 0.625000 0.270313
O O6 0.250000 0.500000 0.250000
O O7 0.232319 0.555511 0.332182
O O8 0.125000 0.125000 0.185252
O O9 0.304926 0.154238 0.165167
O O10 0.190234 0.299141 0.355430
O O11 0.875000 0.268732 0.875000
#
# Coordination Sequence:
#
# PCOD9516426 Si02
#       5
#    32  32  32  16  32
#     4  10  26  47  72 102 142 195 239 300 375 441
#     4  11  26  44  74 106 144 189 247 305 368 444
#     4  11  27  44  71 104 145 188 245 299 362 443
#     4  12  26  42  72 108 142 186 242 306 360 444
#     4  10  25  46  72 102 144 189 239 300 374 437
#
# _framework density 22.892665000000001
#
# number of rings (size 3 to 8) (size 9 to 14) (size 15 to 20)
#    0.000    1.333    0.000    2.000   15.556    8.889 
#    0.000    0.000    0.000    0.000    0.000    0.000 
#    0.000    0.000    0.000    0.000    0.000    0.000 
#
# Total GULP energy -201330.143498 kJ/mol
# GULP energy per Si atom -5592.503986 kJ/mol
# Density = 2.284056 g / cm^3
# Si number density = 22.892665 Si / 1000 Ang^3
#
#
#
# Elastic Constant Matrix: (Units=GPa)
#
#
# Indices 1 2 3 4 5 6 
#
# 1 140.8434 29.8900 33.5663 0.0000 0.0000 0.0000
# 2 29.8900 44.3714 30.9251 0.0000 0.0000 0.0000
# 3 33.5663 30.9251 126.8011 0.0000 0.0000 0.0000
# 4 0.0000 0.0000 0.0000 11.2515 0.0000 0.0000
# 5 0.0000 0.0000 0.0000 0.0000 39.1054 0.0000
# 6 0.0000 0.0000 0.0000 0.0000 0.0000 42.5518
#
#
#
# Elastic Compliance Matrix: (Units=1/GPa)
#
#
# Indices 1 2 3 4 5 6 
#
# 1 0.008392 -0.004945 -0.001015 0.000000 0.000000 0.000000
# 2 -0.004945 0.030067 -0.006024 0.000000 0.000000 0.000000
# 3 -0.001015 -0.006024 0.009624 0.000000 0.000000 0.000000
# 4 0.000000 0.000000 0.000000 0.088877 0.000000 0.000000
# 5 0.000000 0.000000 0.000000 0.000000 0.025572 0.000000
# 6 0.000000 0.000000 0.000000 0.000000 0.000000 0.023501
#
#
# Mechanical properties :
#
#
# Convention : Reuss Voigt Hill
#
# Bulk Modulus (GPa) = 41.46990 55.64206 48.55598
# Shear Modulus (GPa) = 22.93169 33.09070 28.01120
#
# Velocity S-wave (km/s) = 3.16841 3.80606 3.50178
# Velocity P-wave (km/s) = 5.61599 6.60857 6.13239
#
# Compressibility (1/GPa) = 0.02411388
#
# Stress axis : x y z
#
# Youngs Moduli (GPa) = 119.16778 33.25947 103.90411
#
# Poissons Ratio (x) = 0.16447 0.10549
# Poissons Ratio (y) = 0.58931 0.62590
# Poissons Ratio (z) = 0.12099 0.20035
#
# Static dielectric constant tensor:
#      x y z
#    x 1.873620 0.000000 0.000000 
#    y 0.000000 1.883080 0.000000 
#    z 0.000000 0.000000 1.850950 
# 
# From -- ./inp_files/65646.got.cif
#   From: 2010.05.17/outbox.cif.g08.bks.cpg/sg70_33_cif.got.tgz:65646.got - 2010.06.03 15:57:51.
