data_PCOD9516049
_publ_section_title
;
Structure prediction by ZEFSAII (Michael W. Deem and Ramdas Pophale) SiO2 
 PCOD9516049
Probable space group: F D D D
;
_chemical_formula_sum "Si O2"
_cell_formula_units_Z 176
_cell_length_a 24.699389
_cell_length_b 13.452471
_cell_length_c 22.572411
_cell_angle_alpha 90.000000
_cell_angle_beta 90.000000
_cell_angle_gamma 90.000000
_cell_volume 7500.085665
_symmetry_space_group_name_H-M "F D D D"
_symmetry_group_IT_number 70
_space_group.IT_coordinate_system_code '2'
_symmetry_cell_setting 'orthorhombic'
loop_
_space_group_symop_operation_xyz
x,y,z
1/4-x,1/4-y,z
x,1/4-y,1/4-z
1/4-x,y,1/4-z
-x,-y,-z
3/4+x,3/4+y,-z
-x,3/4+y,3/4+z
3/4+x,-y,3/4+z
x,1/2+y,1/2+z
1/4-x,3/4-y,1/2+z
x,3/4-y,3/4-z
1/4-x,1/2+y,3/4-z
-x,1/2-y,1/2-z
3/4+x,1/4+y,1/2-z
-x,1/4+y,1/4+z
3/4+x,1/2-y,1/4+z
1/2+x,y,1/2+z
3/4-x,1/4-y,1/2+z
1/2+x,1/4-y,3/4-z
3/4-x,y,3/4-z
1/2-x,-y,1/2-z
1/4+x,3/4+y,1/2-z
1/2-x,3/4+y,1/4+z
1/4+x,-y,1/4+z
1/2+x,1/2+y,z
3/4-x,3/4-y,z
1/2+x,3/4-y,1/4-z
3/4-x,1/2+y,1/4-z
1/2-x,1/2-y,-z
1/4+x,1/4+y,-z
1/2-x,1/4+y,3/4+z
1/4+x,1/2-y,3/4+z
loop_
_atom_site_type_symbol
_atom_site_label
_atom_site_fract_x
_atom_site_fract_y
_atom_site_fract_z
Si Si1 0.284963 0.350508 0.064892
Si Si2 0.417428 0.082484 0.960528
Si Si3 0.026479 0.582495 0.301280
Si Si4 0.193013 0.872971 0.475858
Si Si5 0.875000 0.232389 0.375000
Si Si6 0.625000 0.625000 0.715229
Si Si7 0.625000 0.625000 0.227786
O O1 0.288212 0.376510 0.133653
O O2 0.299870 0.234129 0.054649
O O3 0.226254 0.369442 0.037431
O O4 0.327376 0.407250 0.021787
O O5 0.478038 0.107080 0.980621
O O6 0.416656 0.161283 0.906911
O O7 0.400896 0.973780 0.936502
O O8 0.370187 0.108435 0.008050
O O9 0.026144 0.462080 0.308625
O O10 0.076833 0.591849 0.257822
O O11 0.897280 0.296404 0.320209
#
# Coordination Sequence:
#
# PCOD9516049 Si02
#       7
#    32  32  32  32  16  16  16
#     4  11  22  40  61 101 138 173 226 280 343 417
#     4  11  22  43  67  96 131 181 230 288 337 416
#     4  11  23  42  69  94 136 183 225 285 350 405
#     4  10  23  38  60 100 137 175 225 281 338 418
#     4  11  22  39  66 100 128 177 224 271 356 418
#     4  10  25  45  67  96 133 177 243 286 340 412
#     4  11  23  38  67  98 137 176 219 283 350 430
#
# _framework density 23.466398000000002
#
# number of rings (size 3 to 8) (size 9 to 14) (size 15 to 20)
#    0.000    1.273    1.818    3.818    2.545    0.364 
#    0.000    0.000    0.000    6.545    0.000    0.000 
#    0.000    0.000    0.000    0.000    0.000    0.000 
#
# Total GULP energy -245371.500927 kJ/mol
# GULP energy per Si atom -5576.625021 kJ/mol
# Density = 2.341299 g / cm^3
# Si number density = 23.466398 Si / 1000 Ang^3
#
#
#
# Elastic Constant Matrix: (Units=GPa)
#
#
# Indices 1 2 3 4 5 6 
#
# 1 130.2569 22.1968 22.7607 0.0000 0.0000 0.0000
# 2 22.1968 88.1212 14.0009 0.0000 0.0000 0.0000
# 3 22.7607 14.0009 94.4374 0.0000 0.0000 0.0000
# 4 0.0000 0.0000 0.0000 7.4499 0.0000 0.0000
# 5 0.0000 0.0000 0.0000 0.0000 22.2145 0.0000
# 6 0.0000 0.0000 0.0000 0.0000 0.0000 28.5430
#
#
#
# Elastic Compliance Matrix: (Units=1/GPa)
#
#
# Indices 1 2 3 4 5 6 
#
# 1 0.008288 -0.001813 -0.001729 0.000000 0.000000 0.000000
# 2 -0.001813 0.012018 -0.001345 0.000000 0.000000 0.000000
# 3 -0.001729 -0.001345 0.011205 0.000000 0.000000 0.000000
# 4 0.000000 0.000000 0.000000 0.134230 0.000000 0.000000
# 5 0.000000 0.000000 0.000000 0.000000 0.045016 0.000000
# 6 0.000000 0.000000 0.000000 0.000000 0.000000 0.035035
#
#
# Mechanical properties :
#
#
# Convention : Reuss Voigt Hill
#
# Bulk Modulus (GPa) = 46.00167 47.85914 46.93041
# Shear Modulus (GPa) = 19.02502 28.56528 23.79515
#
# Velocity S-wave (km/s) = 2.85043 3.49275 3.18781
# Velocity P-wave (km/s) = 5.52078 6.05844 5.79585
#
# Compressibility (1/GPa) = 0.02173834
#
# Stress axis : x y z
#
# Youngs Moduli (GPa) = 120.65388 83.20604 89.24535
#
# Poissons Ratio (x) = 0.15085 0.15429
# Poissons Ratio (y) = 0.21875 0.12002
# Poissons Ratio (z) = 0.20858 0.11190
#
# Static dielectric constant tensor:
#      x y z
#    x 1.170420 0.000000 0.000000 
#    y 0.000000 -6.251030 0.000000 
#    z 0.000000 0.000000 1.941980 
# 
# From -- ./inp_files/53661.got.cif
#   From: 2010.05.17/outbox.cif.g08.bks.cpg/sg70_27_cif.got.tgz:53661.got - 2010.06.03 15:57:51.
