data_PCOD9516307
_publ_section_title
;
Structure prediction by ZEFSAII (Michael W. Deem and Ramdas Pophale) SiO2 
 PCOD9516307
Probable space group: F D D D
;
_chemical_formula_sum "Si O2"
_cell_formula_units_Z 112
_cell_length_a 24.453490
_cell_length_b 9.630111
_cell_length_c 19.960790
_cell_angle_alpha 90.000000
_cell_angle_beta 90.000000
_cell_angle_gamma 90.000000
_cell_volume 4700.562905
_symmetry_space_group_name_H-M "F D D D"
_symmetry_group_IT_number 70
_space_group.IT_coordinate_system_code '2'
_symmetry_cell_setting 'orthorhombic'
loop_
_space_group_symop_operation_xyz
x,y,z
1/4-x,1/4-y,z
x,1/4-y,1/4-z
1/4-x,y,1/4-z
-x,-y,-z
3/4+x,3/4+y,-z
-x,3/4+y,3/4+z
3/4+x,-y,3/4+z
x,1/2+y,1/2+z
1/4-x,3/4-y,1/2+z
x,3/4-y,3/4-z
1/4-x,1/2+y,3/4-z
-x,1/2-y,1/2-z
3/4+x,1/4+y,1/2-z
-x,1/4+y,1/4+z
3/4+x,1/2-y,1/4+z
1/2+x,y,1/2+z
3/4-x,1/4-y,1/2+z
1/2+x,1/4-y,3/4-z
3/4-x,y,3/4-z
1/2-x,-y,1/2-z
1/4+x,3/4+y,1/2-z
1/2-x,3/4+y,1/4+z
1/4+x,-y,1/4+z
1/2+x,1/2+y,z
3/4-x,3/4-y,z
1/2+x,3/4-y,1/4-z
3/4-x,1/2+y,1/4-z
1/2-x,1/2-y,-z
1/4+x,1/4+y,-z
1/2-x,1/4+y,3/4+z
1/4+x,1/2-y,3/4+z
loop_
_atom_site_type_symbol
_atom_site_label
_atom_site_fract_x
_atom_site_fract_y
_atom_site_fract_z
Si Si1 0.597433 0.984548 0.819826
Si Si2 0.625000 0.944044 0.125000
Si Si3 0.463539 0.488667 0.814398
Si Si4 0.331807 0.758412 0.737364
O O1 0.573511 0.875000 0.875000
O O2 0.645459 0.889745 0.787227
O O3 0.625000 0.125000 0.844814
O O4 0.557313 0.041476 0.761432
O O5 0.580354 0.852504 0.086319
O O6 0.585841 0.011724 0.181585
O O7 0.462645 0.375000 0.875000
O O8 0.525095 0.535768 0.799752
O O9 0.375000 0.875000 0.721425
#
# Coordination Sequence:
#
# PCOD9516307 Si02
#       4
#    32  16  32  32
#     4  11  25  44  70 107 147 190 251 316 385 464
#     4  10  24  44  70 112 153 194 257 324 389 458
#     4  11  24  46  75 106 149 204 259 319 387 469
#     4  11  25  44  71 106 150 198 252 318 387 461
#
# _framework density 23.826933
#
# number of rings (size 3 to 8) (size 9 to 14) (size 15 to 20)
#    0.000    1.143    0.000    6.000    0.000   16.000 
#    0.000    0.000    0.000    0.000    0.000    0.000 
#    0.000    0.000    0.000    0.000    0.000    0.000 
#
# Total GULP energy -156027.855568 kJ/mol
# GULP energy per Si atom -5572.423413 kJ/mol
# Density = 2.377270 g / cm^3
# Si number density = 23.826933 Si / 1000 Ang^3
#
#
#
# Elastic Constant Matrix: (Units=GPa)
#
#
# Indices 1 2 3 4 5 6 
#
# 1 149.2947 35.4767 49.6117 0.0000 0.0000 0.0000
# 2 35.4767 121.6305 46.4777 0.0000 0.0000 0.0000
# 3 49.6117 46.4777 189.1527 0.0000 0.0000 0.0000
# 4 0.0000 0.0000 0.0000 -0.6162 0.0000 0.0000
# 5 0.0000 0.0000 0.0000 0.0000 39.9374 0.0000
# 6 0.0000 0.0000 0.0000 0.0000 0.0000 20.8969
#
#
#
# Elastic Compliance Matrix: (Units=1/GPa)
#
#
# Indices 1 2 3 4 5 6 
#
# 1 0.007613 -0.001608 -0.001601 0.000000 0.000000 0.000000
# 2 -0.001608 0.009413 -0.001891 0.000000 0.000000 0.000000
# 3 -0.001601 -0.001891 0.006171 0.000000 0.000000 0.000000
# 4 0.000000 0.000000 0.000000 -1.622777 0.000000 0.000000
# 5 0.000000 0.000000 0.000000 0.000000 0.025039 0.000000
# 6 0.000000 0.000000 0.000000 0.000000 0.000000 0.047854
#
#
# Mechanical properties :
#
#
# Convention : Reuss Voigt Hill
#
# Bulk Modulus (GPa) = 76.95062 80.35669 78.65365
# Shear Modulus (GPa) = -3.30654 33.94441 15.31893
#
# Velocity S-wave (km/s) = -1.17930 3.77851 2.53835
# Velocity P-wave (km/s) = 5.52371 7.26874 6.45546
#
# Compressibility (1/GPa) = 0.01299535
#
# Stress axis : x y z
#
# Youngs Moduli (GPa) = 131.36213 106.23127 162.03658
#
# Poissons Ratio (x) = 0.17087 0.25949
# Poissons Ratio (y) = 0.21129 0.30644
# Poissons Ratio (z) = 0.21037 0.20090
#
# Static dielectric constant tensor:
#      x y z
#    x 1.928190 0.000000 0.000000 
#    y 0.000000 1.578870 0.000000 
#    z 0.000000 0.000000 2.147130 
# 
# From -- ./inp_files/45582.got.cif
#   From: 2010.05.17/outbox.cif.g08.bks.cpg/sg70_23_cif.got.tgz:45582.got - 2010.06.03 15:57:51.
