data_PCOD9516651
_publ_section_title
;
Structure prediction by ZEFSAII (Michael W. Deem and Ramdas Pophale) SiO2 
 PCOD9516651
Probable space group: F D D D
;
_chemical_formula_sum "Si O2"
_cell_formula_units_Z 216
_cell_length_a 21.879360
_cell_length_b 16.611243
_cell_length_c 30.009161
_cell_angle_alpha 90.000000
_cell_angle_beta 90.000000
_cell_angle_gamma 90.000000
_cell_volume 10906.630474
_symmetry_space_group_name_H-M "F D D D"
_symmetry_group_IT_number 70
_space_group.IT_coordinate_system_code '2'
_symmetry_cell_setting 'orthorhombic'
loop_
_space_group_symop_operation_xyz
x,y,z
1/4-x,1/4-y,z
x,1/4-y,1/4-z
1/4-x,y,1/4-z
-x,-y,-z
3/4+x,3/4+y,-z
-x,3/4+y,3/4+z
3/4+x,-y,3/4+z
x,1/2+y,1/2+z
1/4-x,3/4-y,1/2+z
x,3/4-y,3/4-z
1/4-x,1/2+y,3/4-z
-x,1/2-y,1/2-z
3/4+x,1/4+y,1/2-z
-x,1/4+y,1/4+z
3/4+x,1/2-y,1/4+z
1/2+x,y,1/2+z
3/4-x,1/4-y,1/2+z
1/2+x,1/4-y,3/4-z
3/4-x,y,3/4-z
1/2-x,-y,1/2-z
1/4+x,3/4+y,1/2-z
1/2-x,3/4+y,1/4+z
1/4+x,-y,1/4+z
1/2+x,1/2+y,z
3/4-x,3/4-y,z
1/2+x,3/4-y,1/4-z
3/4-x,1/2+y,1/4-z
1/2-x,1/2-y,-z
1/4+x,1/4+y,-z
1/2-x,1/4+y,3/4+z
1/4+x,1/2-y,3/4+z
loop_
_atom_site_type_symbol
_atom_site_label
_atom_site_fract_x
_atom_site_fract_y
_atom_site_fract_z
Si Si1 0.875000 0.375000 0.875000
Si Si2 0.842978 0.541390 0.234552
Si Si3 0.166269 0.797105 0.846880
Si Si4 0.327598 0.560126 0.838156
Si Si5 0.245721 0.311564 0.772528
Si Si6 0.033299 0.778697 0.881089
Si Si7 0.625000 0.125000 0.496436
Si Si8 0.043426 0.990142 0.674751
O O1 0.917300 0.434248 0.844018
O O2 0.898356 0.572405 0.203786
O O3 0.846816 0.540803 0.287776
O O4 0.787684 0.601381 0.224552
O O5 0.841443 0.447580 0.220970
O O6 0.183266 0.875000 0.875000
O O7 0.103885 0.764581 0.868643
O O8 0.225074 0.741797 0.845299
O O9 0.375000 0.529842 0.875000
O O10 0.263281 0.520177 0.850642
O O11 0.323537 0.656516 0.839641
O O12 0.230192 0.263050 0.817046
O O13 0.317648 0.331670 0.769934
O O14 0.219245 0.268248 0.728177
O O15 0.023031 0.875000 0.875000
#
# Coordination Sequence:
#
# PCOD9516651 Si02
#       8
#     8  32  32  32  32  32  16  32
#     4  12  24  52  72  94 118 168 240 284 380 384
#     4  11  23  38  62  93 136 174 222 262 328 400
#     4  11  22  42  67  93 126 181 220 274 328 400
#     4  11  25  41  63  98 136 171 220 276 332 399
#     4  11  23  40  62  97 137 176 220 273 328 401
#     4  11  23  40  64  96 144 183 214 258 331 403
#     4  12  22  34  65  95 132 182 217 258 331 408
#     4  11  25  43  72  92 123 170 231 292 332 406
#
# _framework density 19.804466000000001
#
# number of rings (size 3 to 8) (size 9 to 14) (size 15 to 20)
#    0.000    0.889    5.926    2.222    4.148    0.889 
#    0.000    1.481    0.000    4.444    0.000    0.000 
#    0.000    0.000    0.000    0.000    0.000    0.000 
#
# Total GULP energy -301149.979538 kJ/mol
# GULP energy per Si atom -5576.851473 kJ/mol
# Density = 1.975939 g / cm^3
# Si number density = 19.804466 Si / 1000 Ang^3
#
#
#
# Elastic Constant Matrix: (Units=GPa)
#
#
# Indices 1 2 3 4 5 6 
#
# 1 96.0766 34.5339 33.9850 0.0000 0.0000 0.0000
# 2 34.5339 94.1222 32.1508 0.0000 0.0000 0.0000
# 3 33.9850 32.1508 144.3168 0.0000 0.0000 0.0000
# 4 0.0000 0.0000 0.0000 10.4547 0.0000 0.0000
# 5 0.0000 0.0000 0.0000 0.0000 -13.2427 0.0000
# 6 0.0000 0.0000 0.0000 0.0000 0.0000 15.8140
#
#
#
# Elastic Compliance Matrix: (Units=1/GPa)
#
#
# Indices 1 2 3 4 5 6 
#
# 1 0.012545 -0.003890 -0.002088 0.000000 0.000000 0.000000
# 2 -0.003890 0.012706 -0.001915 0.000000 0.000000 0.000000
# 3 -0.002088 -0.001915 0.007847 0.000000 0.000000 0.000000
# 4 0.000000 0.000000 0.000000 0.095651 0.000000 0.000000
# 5 0.000000 0.000000 0.000000 0.000000 -0.075514 0.000000
# 6 0.000000 0.000000 0.000000 0.000000 0.000000 0.063235
#
#
# Mechanical properties :
#
#
# Convention : Reuss Voigt Hill
#
# Bulk Modulus (GPa) = 57.75643 59.53944 58.64794
# Shear Modulus (GPa) = 36.22513 18.19493 27.21003
#
# Velocity S-wave (km/s) = 4.28148 3.03434 3.71068
# Velocity P-wave (km/s) = 7.32585 6.51193 6.93085
#
# Compressibility (1/GPa) = 0.01731409
#
# Stress axis : x y z
#
# Youngs Moduli (GPa) = 79.71339 78.70530 127.43163
#
# Poissons Ratio (x) = 0.30614 0.26603
# Poissons Ratio (y) = 0.31006 0.24398
# Poissons Ratio (z) = 0.16641 0.15069
#
# Static dielectric constant tensor:
#      x y z
#    x 1.725500 0.000000 0.000000 
#    y 0.000000 1.708270 0.000000 
#    z 0.000000 0.000000 1.752750 
# 
# From -- ./inp_files/67999.got.cif
#   From: 2010.05.17/outbox.cif.g08.bks.cpg/sg70_34_cif.got.tgz:67999.got - 2010.06.03 15:57:51.
