data_PCOD9516032
_publ_section_title
;
Structure prediction by ZEFSAII (Michael W. Deem and Ramdas Pophale) SiO2 
 PCOD9516032
Probable space group: F D D D
;
_chemical_formula_sum "Si O2"
_cell_formula_units_Z 176
_cell_length_a 11.055523
_cell_length_b 27.346979
_cell_length_c 24.763230
_cell_angle_alpha 90.000000
_cell_angle_beta 90.000000
_cell_angle_gamma 90.000000
_cell_volume 7486.794988
_symmetry_space_group_name_H-M "F D D D"
_symmetry_group_IT_number 70
_space_group.IT_coordinate_system_code '2'
_symmetry_cell_setting 'orthorhombic'
loop_
_space_group_symop_operation_xyz
x,y,z
1/4-x,1/4-y,z
x,1/4-y,1/4-z
1/4-x,y,1/4-z
-x,-y,-z
3/4+x,3/4+y,-z
-x,3/4+y,3/4+z
3/4+x,-y,3/4+z
x,1/2+y,1/2+z
1/4-x,3/4-y,1/2+z
x,3/4-y,3/4-z
1/4-x,1/2+y,3/4-z
-x,1/2-y,1/2-z
3/4+x,1/4+y,1/2-z
-x,1/4+y,1/4+z
3/4+x,1/2-y,1/4+z
1/2+x,y,1/2+z
3/4-x,1/4-y,1/2+z
1/2+x,1/4-y,3/4-z
3/4-x,y,3/4-z
1/2-x,-y,1/2-z
1/4+x,3/4+y,1/2-z
1/2-x,3/4+y,1/4+z
1/4+x,-y,1/4+z
1/2+x,1/2+y,z
3/4-x,3/4-y,z
1/2+x,3/4-y,1/4-z
3/4-x,1/2+y,1/4-z
1/2-x,1/2-y,-z
1/4+x,1/4+y,-z
1/2-x,1/4+y,3/4+z
1/4+x,1/2-y,3/4+z
loop_
_atom_site_type_symbol
_atom_site_label
_atom_site_fract_x
_atom_site_fract_y
_atom_site_fract_z
Si Si1 0.887136 0.816097 0.982503
Si Si2 0.623016 0.568958 0.843006
Si Si3 0.625000 0.767040 0.625000
Si Si4 0.625318 0.420508 0.836673
Si Si5 0.583045 0.206513 0.226584
Si Si6 0.811697 0.502752 0.169666
O O1 0.875000 0.875000 0.994098
O O2 0.785714 0.791041 0.943618
O O3 0.014974 0.814946 0.952081
O O4 0.874054 0.779814 0.033550
O O5 0.625000 0.625000 0.857257
O O6 0.758442 0.549817 0.858733
O O7 0.598387 0.562364 0.779113
O O8 0.524044 0.539523 0.877530
O O9 0.647468 0.732693 0.677059
O O10 0.599185 0.375000 0.875000
O O11 0.744421 0.416159 0.800025
O O12 0.639200 0.464165 0.878846
O O13 0.500000 0.250000 0.250000
#
# Coordination Sequence:
#
# PCOD9516032 Si02
#       6
#    32  32  16  32  32  32
#     4  11  25  45  73 104 149 191 239 307 366 430
#     4  11  25  48  72 108 142 185 243 299 368 444
#     4  10  22  46  75  90 142 190 217 302 360 420
#     4  12  24  45  74 104 138 189 245 298 360 436
#     4  10  23  44  70  98 134 187 231 283 363 424
#     4  11  24  45  70 108 144 192 240 289 373 438
#
# _framework density 23.508057000000001
#
# number of rings (size 3 to 8) (size 9 to 14) (size 15 to 20)
#    0.000    1.091    5.455    1.091    5.091    1.455 
#    6.545    0.000    0.000    0.000    0.000    0.000 
#    0.000    0.000    0.000    0.000    0.000    0.000 
#
# Total GULP energy -245496.568268 kJ/mol
# GULP energy per Si atom -5579.467461 kJ/mol
# Density = 2.345455 g / cm^3
# Si number density = 23.508057 Si / 1000 Ang^3
#
#
#
# Elastic Constant Matrix: (Units=GPa)
#
#
# Indices 1 2 3 4 5 6 
#
# 1 85.4976 37.4651 54.0003 0.0000 0.0000 0.0000
# 2 37.4651 156.1467 49.7830 0.0000 0.0000 0.0000
# 3 54.0003 49.7830 169.7948 0.0000 0.0000 0.0000
# 4 0.0000 0.0000 0.0000 30.2661 0.0000 0.0000
# 5 0.0000 0.0000 0.0000 0.0000 21.8754 0.0000
# 6 0.0000 0.0000 0.0000 0.0000 0.0000 39.2913
#
#
#
# Elastic Compliance Matrix: (Units=1/GPa)
#
#
# Indices 1 2 3 4 5 6 
#
# 1 0.015380 -0.002351 -0.004202 0.000000 0.000000 0.000000
# 2 -0.002351 0.007424 -0.001429 0.000000 0.000000 0.000000
# 3 -0.004202 -0.001429 0.007645 0.000000 0.000000 0.000000
# 4 0.000000 0.000000 0.000000 0.033040 0.000000 0.000000
# 5 0.000000 0.000000 0.000000 0.000000 0.045713 0.000000
# 6 0.000000 0.000000 0.000000 0.000000 0.000000 0.025451
#
#
# Mechanical properties :
#
#
# Convention : Reuss Voigt Hill
#
# Bulk Modulus (GPa) = 69.03531 77.10399 73.06965
# Shear Modulus (GPa) = 32.16550 36.29928 34.23239
#
# Velocity S-wave (km/s) = 3.70303 3.93379 3.82016
# Velocity P-wave (km/s) = 6.90751 7.31458 7.11396
#
# Compressibility (1/GPa) = 0.01448534
#
# Stress axis : x y z
#
# Youngs Moduli (GPa) = 65.01775 134.70132 130.80551
#
# Poissons Ratio (x) = 0.31662 0.54969
# Poissons Ratio (y) = 0.15283 0.18693
# Poissons Ratio (z) = 0.27323 0.19250
#
# Static dielectric constant tensor:
#      x y z
#    x 1.970050 0.000000 0.000000 
#    y 0.000000 1.935010 0.000000 
#    z 0.000000 0.000000 1.938950 
# 
# From -- ./inp_files/50386.got.cif
#   From: 2010.05.17/outbox.cif.g08.bks.cpg/sg70_26_cif.got.tgz:50386.got - 2010.06.03 15:57:51.
