data_PCOD9516121
_publ_section_title
;
Structure prediction by ZEFSAII (Michael W. Deem and Ramdas Pophale) SiO2 
 PCOD9516121
Probable space group: F D D D
;
_chemical_formula_sum "Si O2"
_cell_formula_units_Z 136
_cell_length_a 13.093323
_cell_length_b 17.333022
_cell_length_c 24.751042
_cell_angle_alpha 90.000000
_cell_angle_beta 90.000000
_cell_angle_gamma 90.000000
_cell_volume 5617.171155
_symmetry_space_group_name_H-M "F D D D"
_symmetry_group_IT_number 70
_space_group.IT_coordinate_system_code '2'
_symmetry_cell_setting 'orthorhombic'
loop_
_space_group_symop_operation_xyz
x,y,z
1/4-x,1/4-y,z
x,1/4-y,1/4-z
1/4-x,y,1/4-z
-x,-y,-z
3/4+x,3/4+y,-z
-x,3/4+y,3/4+z
3/4+x,-y,3/4+z
x,1/2+y,1/2+z
1/4-x,3/4-y,1/2+z
x,3/4-y,3/4-z
1/4-x,1/2+y,3/4-z
-x,1/2-y,1/2-z
3/4+x,1/4+y,1/2-z
-x,1/4+y,1/4+z
3/4+x,1/2-y,1/4+z
1/2+x,y,1/2+z
3/4-x,1/4-y,1/2+z
1/2+x,1/4-y,3/4-z
3/4-x,y,3/4-z
1/2-x,-y,1/2-z
1/4+x,3/4+y,1/2-z
1/2-x,3/4+y,1/4+z
1/4+x,-y,1/4+z
1/2+x,1/2+y,z
3/4-x,3/4-y,z
1/2+x,3/4-y,1/4-z
3/4-x,1/2+y,1/4-z
1/2-x,1/2-y,-z
1/4+x,1/4+y,-z
1/2-x,1/4+y,3/4+z
1/4+x,1/2-y,3/4+z
loop_
_atom_site_type_symbol
_atom_site_label
_atom_site_fract_x
_atom_site_fract_y
_atom_site_fract_z
Si Si1 0.317181 0.006118 0.454782
Si Si2 0.875000 0.875000 0.875000
Si Si3 0.832089 0.960477 0.072077
Si Si4 0.892251 0.169744 0.793624
Si Si5 0.849243 0.738316 0.565984
O O1 0.371986 0.082950 0.436203
O O2 0.198730 0.032760 0.456639
O O3 0.317730 0.933602 0.415021
O O4 0.365684 0.981097 0.511530
O O5 0.875000 0.875000 0.085790
O O6 0.709468 0.960557 0.064891
O O7 0.862898 0.018501 0.119747
O O8 0.901569 0.169149 0.727696
O O9 0.994209 0.214142 0.810873
#
# Coordination Sequence:
#
# PCOD9516121 Si02
#       5
#    32   8  32  32  32
#     4  11  25  44  66  98 143 181 237 293 357 426
#     4  12  28  44  64 108 142 184 234 296 354 444
#     4  11  23  40  65 103 136 183 235 288 355 423
#     4  10  23  43  68  98 139 186 233 293 354 421
#     4  10  23  42  66 100 132 182 240 283 348 421
#
# _framework density 24.211473999999999
#
# number of rings (size 3 to 8) (size 9 to 14) (size 15 to 20)
#    0.000    1.412    1.176    2.824    6.588    5.647 
#    0.000    0.000    0.000   11.294    0.000    0.000 
#    0.000    0.000    0.000    0.000    0.000    0.000 
#
# Total GULP energy -189717.367588 kJ/mol
# GULP energy per Si atom -5579.922576 kJ/mol
# Density = 2.415637 g / cm^3
# Si number density = 24.211474 Si / 1000 Ang^3
#
#
#
# Elastic Constant Matrix: (Units=GPa)
#
#
# Indices 1 2 3 4 5 6 
#
# 1 67.9044 6.5951 23.8849 0.0000 0.0000 0.0000
# 2 6.5951 81.0232 49.3638 0.0000 0.0000 0.0000
# 3 23.8849 49.3638 209.3278 0.0000 0.0000 0.0000
# 4 0.0000 0.0000 0.0000 15.2169 0.0000 0.0000
# 5 0.0000 0.0000 0.0000 0.0000 27.2294 0.0000
# 6 0.0000 0.0000 0.0000 0.0000 0.0000 16.8140
#
#
#
# Elastic Compliance Matrix: (Units=1/GPa)
#
#
# Indices 1 2 3 4 5 6 
#
# 1 0.015345 -0.000213 -0.001701 0.000000 0.000000 0.000000
# 2 -0.000213 0.014416 -0.003375 0.000000 0.000000 0.000000
# 3 -0.001701 -0.003375 0.005767 0.000000 0.000000 0.000000
# 4 0.000000 0.000000 0.000000 0.065716 0.000000 0.000000
# 5 0.000000 0.000000 0.000000 0.000000 0.036725 0.000000
# 6 0.000000 0.000000 0.000000 0.000000 0.000000 0.059474
#
#
# Mechanical properties :
#
#
# Convention : Reuss Voigt Hill
#
# Bulk Modulus (GPa) = 40.07896 57.54922 48.81409
# Shear Modulus (GPa) = 23.11191 30.41285 26.76238
#
# Velocity S-wave (km/s) = 3.09299 3.54804 3.32830
# Velocity P-wave (km/s) = 5.41711 6.37227 5.91400
#
# Compressibility (1/GPa) = 0.02495074
#
# Stress axis : x y z
#
# Youngs Moduli (GPa) = 65.16569 69.36798 173.39387
#
# Poissons Ratio (x) = 0.01477 0.29490
# Poissons Ratio (y) = 0.01387 0.58525
# Poissons Ratio (z) = 0.11083 0.23414
#
# Static dielectric constant tensor:
#      x y z
#    x 1.957610 0.000000 0.000000 
#    y 0.000000 1.906560 0.000000 
#    z 0.000000 0.000000 2.062820 
# 
# From -- ./inp_files/51010.got.cif
#   From: 2010.05.17/outbox.cif.g08.bks.cpg/sg70_26_cif.got.tgz:51010.got - 2010.06.03 15:57:51.
