data_PCOD9516275
_publ_section_title
;
Structure prediction by ZEFSAII (Michael W. Deem and Ramdas Pophale) SiO2 
 PCOD9516275
Probable space group: F D D D
;
_chemical_formula_sum "Si O2"
_cell_formula_units_Z 160
_cell_length_a 19.648937
_cell_length_b 22.122531
_cell_length_c 18.344956
_cell_angle_alpha 90.000000
_cell_angle_beta 90.000000
_cell_angle_gamma 90.000000
_cell_volume 7974.262851
_symmetry_space_group_name_H-M "F D D D"
_symmetry_group_IT_number 70
_space_group.IT_coordinate_system_code '2'
_symmetry_cell_setting 'orthorhombic'
loop_
_space_group_symop_operation_xyz
x,y,z
1/4-x,1/4-y,z
x,1/4-y,1/4-z
1/4-x,y,1/4-z
-x,-y,-z
3/4+x,3/4+y,-z
-x,3/4+y,3/4+z
3/4+x,-y,3/4+z
x,1/2+y,1/2+z
1/4-x,3/4-y,1/2+z
x,3/4-y,3/4-z
1/4-x,1/2+y,3/4-z
-x,1/2-y,1/2-z
3/4+x,1/4+y,1/2-z
-x,1/4+y,1/4+z
3/4+x,1/2-y,1/4+z
1/2+x,y,1/2+z
3/4-x,1/4-y,1/2+z
1/2+x,1/4-y,3/4-z
3/4-x,y,3/4-z
1/2-x,-y,1/2-z
1/4+x,3/4+y,1/2-z
1/2-x,3/4+y,1/4+z
1/4+x,-y,1/4+z
1/2+x,1/2+y,z
3/4-x,3/4-y,z
1/2+x,3/4-y,1/4-z
3/4-x,1/2+y,1/4-z
1/2-x,1/2-y,-z
1/4+x,1/4+y,-z
1/2-x,1/4+y,3/4+z
1/4+x,1/2-y,3/4+z
loop_
_atom_site_type_symbol
_atom_site_label
_atom_site_fract_x
_atom_site_fract_y
_atom_site_fract_z
Si Si1 0.806833 0.070013 0.575108
Si Si2 0.799893 0.120701 0.041690
Si Si3 0.201729 0.533562 0.806989
Si Si4 0.806103 0.977869 0.033909
Si Si5 0.204076 0.107114 0.841680
O O1 0.780530 0.125000 0.625000
O O2 0.878019 0.093877 0.541756
O O3 0.752251 0.049041 0.516619
O O4 0.817225 0.014208 0.629763
O O5 0.774174 0.125000 0.125000
O O6 0.810372 0.049686 0.025738
O O7 0.747674 0.143329 0.981185
O O8 0.250000 0.500000 0.750000
O O9 0.130761 0.549019 0.767600
O O10 0.229409 0.592059 0.849749
O O11 0.791468 0.956119 0.116170
O O12 0.125000 0.125000 0.827639
#
# Coordination Sequence:
#
# PCOD9516275 Si02
#       5
#    32  32  32  32  32
#     4  11  22  42  70 101 137 177 231 280 345 414
#     4  11  23  44  70  97 136 180 229 281 335 413
#     4  11  22  43  68  98 136 178 226 288 345 406
#     4  11  23  44  68  97 137 177 224 285 342 406
#     4  10  24  43  65  99 139 176 226 284 341 407
#
# _framework density 20.064551000000002
#
# number of rings (size 3 to 8) (size 9 to 14) (size 15 to 20)
#    0.000    1.200    6.000    1.200    0.000    2.800 
#    0.000    3.000    0.000    0.000    0.000    0.000 
#    0.000    0.000    0.000    0.000    0.000    0.000 
#
# Total GULP energy -223403.347172 kJ/mol
# GULP energy per Si atom -5585.083679 kJ/mol
# Density = 2.001888 g / cm^3
# Si number density = 20.064551 Si / 1000 Ang^3
#
#
#
# Elastic Constant Matrix: (Units=GPa)
#
#
# Indices 1 2 3 4 5 6 
#
# 1 128.3819 31.3788 101.9793 0.0000 0.0000 0.0000
# 2 31.3788 74.7830 16.4176 0.0000 0.0000 0.0000
# 3 101.9793 16.4176 111.2560 0.0000 0.0000 0.0000
# 4 0.0000 0.0000 0.0000 37.1885 0.0000 0.0000
# 5 0.0000 0.0000 0.0000 0.0000 16.7870 0.0000
# 6 0.0000 0.0000 0.0000 0.0000 0.0000 22.5599
#
#
#
# Elastic Compliance Matrix: (Units=1/GPa)
#
#
# Indices 1 2 3 4 5 6 
#
# 1 0.032030 -0.007228 -0.028293 0.000000 0.000000 0.000000
# 2 -0.007228 0.015451 0.004346 0.000000 0.000000 0.000000
# 3 -0.028293 0.004346 0.034281 0.000000 0.000000 0.000000
# 4 0.000000 0.000000 0.000000 0.026890 0.000000 0.000000
# 5 0.000000 0.000000 0.000000 0.000000 0.059570 0.000000
# 6 0.000000 0.000000 0.000000 0.000000 0.000000 0.044326
#
#
# Mechanical properties :
#
#
# Convention : Reuss Voigt Hill
#
# Bulk Modulus (GPa) = 51.51773 68.21914 59.86843
# Shear Modulus (GPa) = 17.77021 26.28343 22.02682
#
# Velocity S-wave (km/s) = 2.97922 3.62324 3.31690
# Velocity P-wave (km/s) = 6.12912 7.18175 6.67621
#
# Compressibility (1/GPa) = 0.01941079
#
# Stress axis : x y z
#
# Youngs Moduli (GPa) = 31.22048 64.72061 29.17091
#
# Poissons Ratio (x) = 0.46783 0.82533
# Poissons Ratio (y) = 0.22568 -0.12677
# Poissons Ratio (z) = 0.88332 -0.28126
#
# Static dielectric constant tensor:
#      x y z
#    x 1.726010 0.000000 0.000000 
#    y 0.000000 1.772170 0.000000 
#    z 0.000000 0.000000 1.701590 
# 
# From -- ./inp_files/36281.got.cif
#   From: 2010.05.17/outbox.cif.g08.bks.cpg/sg70_19_cif.got.tgz:36281.got - 2010.06.03 15:57:51.
