data_PCOD9516906
_publ_section_title
;
Structure prediction by ZEFSAII (Michael W. Deem and Ramdas Pophale) SiO2 
 PCOD9516906
Probable space group: F D D D
;
_chemical_formula_sum "Si O2"
_cell_formula_units_Z 144
_cell_length_a 23.338234
_cell_length_b 12.465172
_cell_length_c 22.133389
_cell_angle_alpha 90.000000
_cell_angle_beta 90.000000
_cell_angle_gamma 90.000000
_cell_volume 6438.937096
_symmetry_space_group_name_H-M "F D D D"
_symmetry_group_IT_number 70
_space_group.IT_coordinate_system_code '2'
_symmetry_cell_setting 'orthorhombic'
loop_
_space_group_symop_operation_xyz
x,y,z
1/4-x,1/4-y,z
x,1/4-y,1/4-z
1/4-x,y,1/4-z
-x,-y,-z
3/4+x,3/4+y,-z
-x,3/4+y,3/4+z
3/4+x,-y,3/4+z
x,1/2+y,1/2+z
1/4-x,3/4-y,1/2+z
x,3/4-y,3/4-z
1/4-x,1/2+y,3/4-z
-x,1/2-y,1/2-z
3/4+x,1/4+y,1/2-z
-x,1/4+y,1/4+z
3/4+x,1/2-y,1/4+z
1/2+x,y,1/2+z
3/4-x,1/4-y,1/2+z
1/2+x,1/4-y,3/4-z
3/4-x,y,3/4-z
1/2-x,-y,1/2-z
1/4+x,3/4+y,1/2-z
1/2-x,3/4+y,1/4+z
1/4+x,-y,1/4+z
1/2+x,1/2+y,z
3/4-x,3/4-y,z
1/2+x,3/4-y,1/4-z
3/4-x,1/2+y,1/4-z
1/2-x,1/2-y,-z
1/4+x,1/4+y,-z
1/2-x,1/4+y,3/4+z
1/4+x,1/2-y,3/4+z
loop_
_atom_site_type_symbol
_atom_site_label
_atom_site_fract_x
_atom_site_fract_y
_atom_site_fract_z
Si Si1 0.206789 0.473622 0.839146
Si Si2 0.027713 0.563109 0.066165
Si Si3 0.307837 0.378569 0.195619
Si Si4 0.081338 0.029499 0.040564
Si Si5 0.375000 0.661063 0.875000
O O1 0.179078 0.375000 0.875000
O O2 0.218154 0.562525 0.890442
O O3 0.170525 0.511221 0.781686
O O4 0.267670 0.437683 0.811580
O O5 0.011419 0.625000 0.125000
O O6 0.080235 0.485282 0.087165
O O7 0.971095 0.494774 0.051572
O O8 0.044978 0.650637 0.015202
O O9 0.375000 0.375000 0.185881
O O10 0.125000 0.125000 0.054603
O O11 0.096901 0.920431 0.076113
#
# Coordination Sequence:
#
# PCOD9516906 Si02
#       5
#    32  32  32  32  16
#     4  11  25  44  71 104 142 185 234 299 360 425
#     4  11  26  45  74 103 143 191 235 295 354 431
#     4  11  25  47  68 107 140 181 237 294 360 416
#     4  11  25  45  71 104 143 189 239 290 357 432
#     4  12  22  46  74 108 136 200 240 286 354 446
#
# _framework density 22.363939999999999
#
# number of rings (size 3 to 8) (size 9 to 14) (size 15 to 20)
#    0.000    0.889    2.222    4.000    6.222    0.889 
#    8.000    0.000    0.000    0.000    0.000    0.000 
#    0.000    0.000    0.000    0.000    0.000    0.000 
#
# Total GULP energy -201064.904693 kJ/mol
# GULP energy per Si atom -5585.136241 kJ/mol
# Density = 2.231304 g / cm^3
# Si number density = 22.363940 Si / 1000 Ang^3
#
#
#
# Elastic Constant Matrix: (Units=GPa)
#
#
# Indices 1 2 3 4 5 6 
#
# 1 87.7616 7.4084 12.5742 0.0000 0.0000 0.0000
# 2 7.4084 29.9057 27.2221 0.0000 0.0000 0.0000
# 3 12.5742 27.2221 161.9980 0.0000 0.0000 0.0000
# 4 0.0000 0.0000 0.0000 46.1041 0.0000 0.0000
# 5 0.0000 0.0000 0.0000 0.0000 -34.2460 0.0000
# 6 0.0000 0.0000 0.0000 0.0000 0.0000 -8.9974
#
#
#
# Elastic Compliance Matrix: (Units=1/GPa)
#
#
# Indices 1 2 3 4 5 6 
#
# 1 0.011672 -0.002440 -0.000496 0.000000 0.000000 0.000000
# 2 -0.002440 0.039987 -0.006530 0.000000 0.000000 0.000000
# 3 -0.000496 -0.006530 0.007309 0.000000 0.000000 0.000000
# 4 0.000000 0.000000 0.000000 0.021690 0.000000 0.000000
# 5 0.000000 0.000000 0.000000 0.000000 -0.029200 0.000000
# 6 0.000000 0.000000 0.000000 0.000000 0.000000 -0.111143
#
#
# Mechanical properties :
#
#
# Convention : Reuss Voigt Hill
#
# Bulk Modulus (GPa) = 24.97786 41.56383 33.27085
# Shear Modulus (GPa) = -182.41625 16.06951 -83.17337
#
# Velocity S-wave (km/s) = -9.04125 2.68348 -6.10505
# Velocity P-wave (km/s) = 9.88935 5.31290 5.89798
#
# Compressibility (1/GPa) = 0.04003546
#
# Stress axis : x y z
#
# Youngs Moduli (GPa) = 85.67862 25.00822 136.82308
#
# Poissons Ratio (x) = 0.06102 0.06786
# Poissons Ratio (y) = 0.20905 0.89345
# Poissons Ratio (z) = 0.04249 0.16330
#
# Static dielectric constant tensor:
#      x y z
#    x 1.560120 0.000000 0.000000 
#    y 0.000000 1.846250 0.000000 
#    z 0.000000 0.000000 2.010770 
# 
# From -- ./inp_files/54183.got.cif
#   From: 2010.05.17/outbox.cif.g08.bks.cpg/sg70_28_cif.got.tgz:54183.got - 2010.06.03 15:57:51.
