data_PCOD9516028
_publ_section_title
;
Structure prediction by ZEFSAII (Michael W. Deem and Ramdas Pophale) SiO2 
 PCOD9516028
Probable space group: F D D D
;
_chemical_formula_sum "Si O2"
_cell_formula_units_Z 208
_cell_length_a 17.516371
_cell_length_b 28.412061
_cell_length_c 21.002695
_cell_angle_alpha 90.000000
_cell_angle_beta 90.000000
_cell_angle_gamma 90.000000
_cell_volume 10452.541466
_symmetry_space_group_name_H-M "F D D D"
_symmetry_group_IT_number 70
_space_group.IT_coordinate_system_code '2'
_symmetry_cell_setting 'orthorhombic'
loop_
_space_group_symop_operation_xyz
x,y,z
1/4-x,1/4-y,z
x,1/4-y,1/4-z
1/4-x,y,1/4-z
-x,-y,-z
3/4+x,3/4+y,-z
-x,3/4+y,3/4+z
3/4+x,-y,3/4+z
x,1/2+y,1/2+z
1/4-x,3/4-y,1/2+z
x,3/4-y,3/4-z
1/4-x,1/2+y,3/4-z
-x,1/2-y,1/2-z
3/4+x,1/4+y,1/2-z
-x,1/4+y,1/4+z
3/4+x,1/2-y,1/4+z
1/2+x,y,1/2+z
3/4-x,1/4-y,1/2+z
1/2+x,1/4-y,3/4-z
3/4-x,y,3/4-z
1/2-x,-y,1/2-z
1/4+x,3/4+y,1/2-z
1/2-x,3/4+y,1/4+z
1/4+x,-y,1/4+z
1/2+x,1/2+y,z
3/4-x,3/4-y,z
1/2+x,3/4-y,1/4-z
3/4-x,1/2+y,1/4-z
1/2-x,1/2-y,-z
1/4+x,1/4+y,-z
1/2-x,1/4+y,3/4+z
1/4+x,1/2-y,3/4+z
loop_
_atom_site_type_symbol
_atom_site_label
_atom_site_fract_x
_atom_site_fract_y
_atom_site_fract_z
Si Si1 0.180628 0.523969 0.792351
Si Si2 0.691275 0.778507 0.838842
Si Si3 0.994116 0.875000 0.875000
Si Si4 0.125000 0.976414 0.625000
Si Si5 0.448088 0.204372 0.247163
Si Si6 0.215419 0.617963 0.051665
Si Si7 0.125000 0.625000 0.512411
Si Si8 0.740250 0.986344 0.462873
O O1 0.250000 0.500000 0.750000
O O2 0.205224 0.515915 0.865369
O O3 0.154140 0.577640 0.774489
O O4 0.100084 0.495324 0.792786
O O5 0.711858 0.825703 0.878011
O O6 0.606929 0.787080 0.812433
O O7 0.736150 0.768042 0.773424
O O8 0.943899 0.866535 0.938031
O O9 0.152786 0.949348 0.687011
O O10 0.200620 0.002963 0.596351
O O11 0.500000 0.250000 0.250000
O O12 0.498019 0.159086 0.238070
O O13 0.125000 0.625000 0.049990
O O14 0.239892 0.625000 0.125000
O O15 0.241873 0.568061 0.025685
#
# Coordination Sequence:
#
# PCOD9516028 Si02
#       8
#    32  32  16  16  32  32  16  32
#     4  12  25  44  70 103 142 185 240 301 362 446
#     4  11  24  42  70 101 135 178 236 292 358 430
#     4  11  22  44  74 100 127 188 240 289 358 434
#     4  10  22  46  69  90 136 176 222 281 358 414
#     4  11  23  41  67  97 133 179 223 283 346 428
#     4  11  22  39  67  98 130 174 223 278 343 420
#     4  11  24  46  72  92 142 189 238 298 370 425
#     4  11  24  44  67 102 135 177 232 296 354 427
#
# _framework density 19.899466
#
# number of rings (size 3 to 8) (size 9 to 14) (size 15 to 20)
#    0.000    0.923    3.077    5.538    3.231    0.615 
#    6.923    0.000    0.000    0.000    0.000    0.000 
#    0.000    0.000    0.000    0.000    0.000    0.000 
#
# Total GULP energy -289717.084785 kJ/mol
# GULP energy per Si atom -5571.482400 kJ/mol
# Density = 1.985417 g / cm^3
# Si number density = 19.899466 Si / 1000 Ang^3
#
#
#
# Elastic Constant Matrix: (Units=GPa)
#
#
# Indices 1 2 3 4 5 6 
#
# 1 108.1886 43.4262 37.7086 0.0000 0.0000 0.0000
# 2 43.4262 145.3567 46.5533 0.0000 0.0000 0.0000
# 3 37.7086 46.5533 104.5523 0.0000 0.0000 0.0000
# 4 0.0000 0.0000 0.0000 32.0251 0.0000 0.0000
# 5 0.0000 0.0000 0.0000 0.0000 -1.0375 0.0000
# 6 0.0000 0.0000 0.0000 0.0000 0.0000 35.5316
#
#
#
# Elastic Compliance Matrix: (Units=1/GPa)
#
#
# Indices 1 2 3 4 5 6 
#
# 1 0.011249 -0.002404 -0.002987 0.000000 0.000000 0.000000
# 2 -0.002404 0.008538 -0.002934 0.000000 0.000000 0.000000
# 3 -0.002987 -0.002934 0.011948 0.000000 0.000000 0.000000
# 4 0.000000 0.000000 0.000000 0.031225 0.000000 0.000000
# 5 0.000000 0.000000 0.000000 0.000000 -0.963833 0.000000
# 6 0.000000 0.000000 0.000000 0.000000 0.000000 0.028144
#
#
# Mechanical properties :
#
#
# Convention : Reuss Voigt Hill
#
# Bulk Modulus (GPa) = 66.29272 68.16375 67.22824
# Shear Modulus (GPa) = -5.87510 28.66448 11.39469
#
# Velocity S-wave (km/s) = -1.72012 3.79946 2.39553
# Velocity P-wave (km/s) = 5.42596 7.31958 6.44272
#
# Compressibility (1/GPa) = 0.01508461
#
# Stress axis : x y z
#
# Youngs Moduli (GPa) = 88.89561 117.12763 83.69339
#
# Poissons Ratio (x) = 0.28160 0.24997
# Poissons Ratio (y) = 0.21372 0.24559
# Poissons Ratio (z) = 0.26550 0.34370
#
# Static dielectric constant tensor:
#      x y z
#    x 1.768670 0.000000 0.000000 
#    y 0.000000 1.682640 0.000000 
#    z 0.000000 0.000000 1.631910 
# 
# From -- ./inp_files/43994.got.cif
#   From: 2010.05.17/outbox.cif.g08.bks.cpg/sg70_22_cif.got.tgz:43994.got - 2010.06.03 15:57:51.
