data_PCOD9516881
_publ_section_title
;
Structure prediction by ZEFSAII (Michael W. Deem and Ramdas Pophale) SiO2 
 PCOD9516881
Probable space group: F D D D
;
_chemical_formula_sum "Si O2"
_cell_formula_units_Z 160
_cell_length_a 14.072276
_cell_length_b 26.358714
_cell_length_c 18.849411
_cell_angle_alpha 90.000000
_cell_angle_beta 90.000000
_cell_angle_gamma 90.000000
_cell_volume 6991.757329
_symmetry_space_group_name_H-M "F D D D"
_symmetry_group_IT_number 70
_space_group.IT_coordinate_system_code '2'
_symmetry_cell_setting 'orthorhombic'
loop_
_space_group_symop_operation_xyz
x,y,z
1/4-x,1/4-y,z
x,1/4-y,1/4-z
1/4-x,y,1/4-z
-x,-y,-z
3/4+x,3/4+y,-z
-x,3/4+y,3/4+z
3/4+x,-y,3/4+z
x,1/2+y,1/2+z
1/4-x,3/4-y,1/2+z
x,3/4-y,3/4-z
1/4-x,1/2+y,3/4-z
-x,1/2-y,1/2-z
3/4+x,1/4+y,1/2-z
-x,1/4+y,1/4+z
3/4+x,1/2-y,1/4+z
1/2+x,y,1/2+z
3/4-x,1/4-y,1/2+z
1/2+x,1/4-y,3/4-z
3/4-x,y,3/4-z
1/2-x,-y,1/2-z
1/4+x,3/4+y,1/2-z
1/2-x,3/4+y,1/4+z
1/4+x,-y,1/4+z
1/2+x,1/2+y,z
3/4-x,3/4-y,z
1/2+x,3/4-y,1/4-z
3/4-x,1/2+y,1/4-z
1/2-x,1/2-y,-z
1/4+x,1/4+y,-z
1/2-x,1/4+y,3/4+z
1/4+x,1/2-y,3/4+z
loop_
_atom_site_type_symbol
_atom_site_label
_atom_site_fract_x
_atom_site_fract_y
_atom_site_fract_z
Si Si1 0.523960 0.487757 0.720272
Si Si2 0.400398 0.651356 0.053666
Si Si3 0.549900 0.589026 0.393474
Si Si4 0.838588 0.176237 0.304247
Si Si5 0.567230 0.692259 0.696253
O O1 0.532251 0.446504 0.781052
O O2 0.476709 0.460058 0.652601
O O3 0.468801 0.536625 0.750828
O O4 0.634236 0.502026 0.702561
O O5 0.427275 0.625000 0.125000
O O6 0.292162 0.674796 0.062955
O O7 0.406680 0.606577 0.995682
O O8 0.625000 0.625000 0.354337
O O9 0.468534 0.629149 0.411234
O O10 0.587527 0.574964 0.472462
O O11 0.875000 0.204509 0.375000
O O12 0.625000 0.675022 0.625000
#
# Coordination Sequence:
#
# PCOD9516881 Si02
#       5
#    32  32  32  32  32
#     4  12  26  45  74  99 140 198 244 299 373 438
#     4  11  26  44  67 107 150 181 240 309 364 450
#     4  11  25  47  69 103 146 187 242 303 364 449
#     4  11  24  47  71 103 145 188 242 307 368 437
#     4  11  26  38  70 107 139 183 233 294 376 442
#
# _framework density 22.88409
#
# number of rings (size 3 to 8) (size 9 to 14) (size 15 to 20)
#    0.000    0.800    4.000    1.800   14.000    0.000 
#    3.600    2.000    0.000    0.000    0.000    0.000 
#    0.000    0.000    0.000    0.000    0.000    0.000 
#
# Total GULP energy -222730.995045 kJ/mol
# GULP energy per Si atom -5568.274876 kJ/mol
# Density = 2.283200 g / cm^3
# Si number density = 22.884090 Si / 1000 Ang^3
#
#
#
# Elastic Constant Matrix: (Units=GPa)
#
#
# Indices 1 2 3 4 5 6 
#
# 1 22.3979 16.0697 30.8600 0.0000 0.0000 0.0000
# 2 16.0697 110.3512 56.0991 0.0000 0.0000 0.0000
# 3 30.8600 56.0991 147.9357 0.0000 0.0000 0.0000
# 4 0.0000 0.0000 0.0000 26.2520 0.0000 0.0000
# 5 0.0000 0.0000 0.0000 0.0000 32.3410 0.0000
# 6 0.0000 0.0000 0.0000 0.0000 0.0000 15.2711
#
#
#
# Elastic Compliance Matrix: (Units=1/GPa)
#
#
# Indices 1 2 3 4 5 6 
#
# 1 0.063507 -0.003114 -0.012067 0.000000 0.000000 0.000000
# 2 -0.003114 0.011379 -0.003665 0.000000 0.000000 0.000000
# 3 -0.012067 -0.003665 0.010667 0.000000 0.000000 0.000000
# 4 0.000000 0.000000 0.000000 0.038092 0.000000 0.000000
# 5 0.000000 0.000000 0.000000 0.000000 0.030920 0.000000
# 6 0.000000 0.000000 0.000000 0.000000 0.000000 0.065483
#
#
# Mechanical properties :
#
#
# Convention : Reuss Voigt Hill
#
# Bulk Modulus (GPa) = 20.89408 54.08249 37.48828
# Shear Modulus (GPa) = 18.26851 26.61654 22.44253
#
# Velocity S-wave (km/s) = 2.82850 3.41413 3.13502
# Velocity P-wave (km/s) = 4.45167 6.26308 5.43340
#
# Compressibility (1/GPa) = 0.04786045
#
# Stress axis : x y z
#
# Youngs Moduli (GPa) = 15.74627 87.88271 93.74754
#
# Poissons Ratio (x) = 0.27363 1.13126
# Poissons Ratio (y) = 0.04903 0.34363
# Poissons Ratio (z) = 0.19001 0.32213
#
# Static dielectric constant tensor:
#      x y z
#    x 1.992560 0.000000 0.000000 
#    y 0.000000 1.895660 0.000000 
#    z 0.000000 0.000000 1.936290 
# 
# From -- ./inp_files/35142.got.cif
#   From: 2010.05.17/outbox.cif.g08.bks.cpg/sg70_18_cif.got.tgz:35142.got - 2010.06.03 15:57:51.
