data_PCOD9516391
_publ_section_title
;
Structure prediction by ZEFSAII (Michael W. Deem and Ramdas Pophale) SiO2 
 PCOD9516391
Probable space group: F D D D
;
_chemical_formula_sum "Si O2"
_cell_formula_units_Z 168
_cell_length_a 13.842480
_cell_length_b 21.236968
_cell_length_c 28.284621
_cell_angle_alpha 90.000000
_cell_angle_beta 90.000000
_cell_angle_gamma 90.000000
_cell_volume 8314.895226
_symmetry_space_group_name_H-M "F D D D"
_symmetry_group_IT_number 70
_space_group.IT_coordinate_system_code '2'
_symmetry_cell_setting 'orthorhombic'
loop_
_space_group_symop_operation_xyz
x,y,z
1/4-x,1/4-y,z
x,1/4-y,1/4-z
1/4-x,y,1/4-z
-x,-y,-z
3/4+x,3/4+y,-z
-x,3/4+y,3/4+z
3/4+x,-y,3/4+z
x,1/2+y,1/2+z
1/4-x,3/4-y,1/2+z
x,3/4-y,3/4-z
1/4-x,1/2+y,3/4-z
-x,1/2-y,1/2-z
3/4+x,1/4+y,1/2-z
-x,1/4+y,1/4+z
3/4+x,1/2-y,1/4+z
1/2+x,y,1/2+z
3/4-x,1/4-y,1/2+z
1/2+x,1/4-y,3/4-z
3/4-x,y,3/4-z
1/2-x,-y,1/2-z
1/4+x,3/4+y,1/2-z
1/2-x,3/4+y,1/4+z
1/4+x,-y,1/4+z
1/2+x,1/2+y,z
3/4-x,3/4-y,z
1/2+x,3/4-y,1/4-z
3/4-x,1/2+y,1/4-z
1/2-x,1/2-y,-z
1/4+x,1/4+y,-z
1/2-x,1/4+y,3/4+z
1/4+x,1/2-y,3/4+z
loop_
_atom_site_type_symbol
_atom_site_label
_atom_site_fract_x
_atom_site_fract_y
_atom_site_fract_z
Si Si1 0.696040 0.304360 0.561829
Si Si2 0.496730 0.018800 0.165008
Si Si3 0.125000 0.836243 0.125000
Si Si4 0.524018 0.514984 0.228759
Si Si5 0.713282 0.451106 0.376346
Si Si6 0.375000 0.875000 0.231500
Si Si7 0.375000 0.875000 0.875000
O O1 0.637844 0.364090 0.582650
O O2 0.622191 0.276356 0.523850
O O3 0.713719 0.245022 0.596421
O O4 0.802073 0.330704 0.547962
O O5 0.516902 0.001136 0.219595
O O6 0.389309 0.036344 0.148945
O O7 0.559278 0.080098 0.155779
O O8 0.535283 0.961262 0.132123
O O9 0.466334 0.517748 0.179345
O O10 0.555907 0.586318 0.235144
O O11 0.732222 0.375000 0.375000
#
# Coordination Sequence:
#
# PCOD9516391 Si02
#       7
#    32  32  16  32  32  16   8
#     4  12  23  44  64  96 139 173 218 282 339 404
#     4  11  25  45  71  95 136 182 231 284 342 413
#     4  11  22  47  65  92 133 180 224 278 339 404
#     4  12  25  39  68 103 132 179 223 281 345 414
#     4  12  25  44  68 102 139 180 225 286 342 413
#     4  12  24  40  68  94 130 176 223 269 346 406
#     4  10  24  52  66  96 136 184 224 296 346 392
#
# _framework density 20.204705000000001
#
# number of rings (size 3 to 8) (size 9 to 14) (size 15 to 20)
#    0.000    0.381    6.667    1.714    2.667    0.762 
#    3.429    1.905    0.000    0.000    0.000    0.000 
#    0.000    0.000    0.000    0.000    0.000    0.000 
#
# Total GULP energy -233899.850626 kJ/mol
# GULP energy per Si atom -5569.044063 kJ/mol
# Density = 2.015872 g / cm^3
# Si number density = 20.204705 Si / 1000 Ang^3
#
#
#
# Elastic Constant Matrix: (Units=GPa)
#
#
# Indices 1 2 3 4 5 6 
#
# 1 62.1640 27.7510 25.0445 0.0000 0.0000 0.0000
# 2 27.7510 126.7662 18.2953 0.0000 0.0000 0.0000
# 3 25.0445 18.2953 76.2017 0.0000 0.0000 0.0000
# 4 0.0000 0.0000 0.0000 -18.7086 0.0000 0.0000
# 5 0.0000 0.0000 0.0000 0.0000 13.2315 0.0000
# 6 0.0000 0.0000 0.0000 0.0000 0.0000 3.4326
#
#
#
# Elastic Compliance Matrix: (Units=1/GPa)
#
#
# Indices 1 2 3 4 5 6 
#
# 1 0.019971 -0.003548 -0.005712 0.000000 0.000000 0.000000
# 2 -0.003548 0.008802 -0.000947 0.000000 0.000000 0.000000
# 3 -0.005712 -0.000947 0.015228 0.000000 0.000000 0.000000
# 4 0.000000 0.000000 0.000000 -0.053451 0.000000 0.000000
# 5 0.000000 0.000000 0.000000 0.000000 0.075577 0.000000
# 6 0.000000 0.000000 0.000000 0.000000 0.000000 0.291320
#
#
# Mechanical properties :
#
#
# Convention : Reuss Voigt Hill
#
# Bulk Modulus (GPa) = 42.39591 45.25705 43.82648
# Shear Modulus (GPa) = 12.96263 12.52717 12.74490
#
# Velocity S-wave (km/s) = 2.53566 2.49271 2.51428
# Velocity P-wave (km/s) = 5.44073 5.54371 5.49246
#
# Compressibility (1/GPa) = 0.02358718
#
# Stress axis : x y z
#
# Youngs Moduli (GPa) = 50.07136 113.61205 65.66919
#
# Poissons Ratio (x) = 0.40306 0.37511
# Poissons Ratio (y) = 0.17764 0.06221
# Poissons Ratio (z) = 0.28601 0.10762
#
# Static dielectric constant tensor:
#      x y z
#    x 1.717700 0.000000 0.000000 
#    y 0.000000 1.731660 0.000000 
#    z 0.000000 0.000000 1.796180 
# 
# From -- ./inp_files/31126.got.cif
#   From: 2010.05.17/outbox.cif.g08.bks.cpg/sg70_16_cif.got.tgz:31126.got - 2010.06.03 15:57:51.
