data_PCOD9516235
_publ_section_title
;
Structure prediction by ZEFSAII (Michael W. Deem and Ramdas Pophale) SiO2 
 PCOD9516235
Probable space group: F D D D
;
_chemical_formula_sum "Si O2"
_cell_formula_units_Z 184
_cell_length_a 20.486473
_cell_length_b 22.565362
_cell_length_c 20.949977
_cell_angle_alpha 90.000000
_cell_angle_beta 90.000000
_cell_angle_gamma 90.000000
_cell_volume 9684.853400
_symmetry_space_group_name_H-M "F D D D"
_symmetry_group_IT_number 70
_space_group.IT_coordinate_system_code '2'
_symmetry_cell_setting 'orthorhombic'
loop_
_space_group_symop_operation_xyz
x,y,z
1/4-x,1/4-y,z
x,1/4-y,1/4-z
1/4-x,y,1/4-z
-x,-y,-z
3/4+x,3/4+y,-z
-x,3/4+y,3/4+z
3/4+x,-y,3/4+z
x,1/2+y,1/2+z
1/4-x,3/4-y,1/2+z
x,3/4-y,3/4-z
1/4-x,1/2+y,3/4-z
-x,1/2-y,1/2-z
3/4+x,1/4+y,1/2-z
-x,1/4+y,1/4+z
3/4+x,1/2-y,1/4+z
1/2+x,y,1/2+z
3/4-x,1/4-y,1/2+z
1/2+x,1/4-y,3/4-z
3/4-x,y,3/4-z
1/2-x,-y,1/2-z
1/4+x,3/4+y,1/2-z
1/2-x,3/4+y,1/4+z
1/4+x,-y,1/4+z
1/2+x,1/2+y,z
3/4-x,3/4-y,z
1/2+x,3/4-y,1/4-z
3/4-x,1/2+y,1/4-z
1/2-x,1/2-y,-z
1/4+x,1/4+y,-z
1/2-x,1/4+y,3/4+z
1/4+x,1/2-y,3/4+z
loop_
_atom_site_type_symbol
_atom_site_label
_atom_site_fract_x
_atom_site_fract_y
_atom_site_fract_z
Si Si1 0.875000 0.875000 0.875000
Si Si2 0.844532 0.056077 0.438593
Si Si3 0.228959 0.125000 0.625000
Si Si4 0.375000 0.375000 0.268167
Si Si5 0.355351 0.758746 0.689477
Si Si6 0.293891 0.768566 0.317033
Si Si7 0.625000 0.328502 0.625000
Si Si8 0.955679 0.745163 0.076139
O O1 0.921263 0.830172 0.914930
O O2 0.875000 0.027546 0.375000
O O3 0.857606 0.125679 0.431206
O O4 0.879115 0.032244 0.501773
O O5 0.768837 0.038394 0.430766
O O6 0.182712 0.105382 0.683998
O O7 0.269527 0.069470 0.598349
O O8 0.349194 0.322488 0.223425
O O9 0.284197 0.730914 0.676765
O O10 0.402316 0.762895 0.628870
O O11 0.316090 0.715517 0.362728
O O12 0.317864 0.747810 0.246877
#
# Coordination Sequence:
#
# PCOD9516235 Si02
#       8
#     8  32  16  16  32  32  16  32
#     4  10  24  52  80  76 140 170 224 290 340 362
#     4   9  20  39  58  89 128 175 208 260 315 409
#     4  11  22  37  60  89 138 179 204 266 330 407
#     4  11  22  37  60  89 138 179 204 266 330 407
#     4  11  24  38  62  97 133 165 226 268 332 398
#     4  10  23  49  63 100 117 175 221 281 333 396
#     4   9  22  41  66  79 128 161 216 256 332 395
#     4  11  24  38  62  97 133 165 226 268 332 398
#
# _framework density 18.998737999999999
#
# number of rings (size 3 to 8) (size 9 to 14) (size 15 to 20)
#    0.522    1.217    3.478    1.043    4.870    4.174 
#    6.261    1.739    0.000    0.000    0.000    0.000 
#    0.000    0.000    0.000    0.000    0.000    0.000 
#
# Total GULP energy -256109.782214 kJ/mol
# GULP energy per Si atom -5567.603961 kJ/mol
# Density = 1.895550 g / cm^3
# Si number density = 18.998738 Si / 1000 Ang^3
#
#
#
# Elastic Constant Matrix: (Units=GPa)
#
#
# Indices 1 2 3 4 5 6 
#
# 1 49.9847 14.0916 18.1448 0.0000 0.0000 0.0000
# 2 14.0916 111.3827 7.7484 0.0000 0.0000 0.0000
# 3 18.1448 7.7484 54.5249 0.0000 0.0000 0.0000
# 4 0.0000 0.0000 0.0000 -30.7931 0.0000 0.0000
# 5 0.0000 0.0000 0.0000 0.0000 22.9449 0.0000
# 6 0.0000 0.0000 0.0000 0.0000 0.0000 43.2317
#
#
#
# Elastic Compliance Matrix: (Units=1/GPa)
#
#
# Indices 1 2 3 4 5 6 
#
# 1 0.023395 -0.002442 -0.007438 0.000000 0.000000 0.000000
# 2 -0.002442 0.009323 -0.000512 0.000000 0.000000 0.000000
# 3 -0.007438 -0.000512 0.020888 0.000000 0.000000 0.000000
# 4 0.000000 0.000000 0.000000 -0.032475 0.000000 0.000000
# 5 0.000000 0.000000 0.000000 0.000000 0.043583 0.000000
# 6 0.000000 0.000000 0.000000 0.000000 0.000000 0.023131
#
#
# Mechanical properties :
#
#
# Convention : Reuss Voigt Hill
#
# Bulk Modulus (GPa) = 30.46879 32.87355 31.67117
# Shear Modulus (GPa) = 41.81639 18.80386 30.31013
#
# Velocity S-wave (km/s) = 4.69658 3.14943 3.99855
# Velocity P-wave (km/s) = 6.74408 5.52863 6.16638
#
# Compressibility (1/GPa) = 0.03282047
#
# Stress axis : x y z
#
# Youngs Moduli (GPa) = 42.74455 107.26542 47.87362
#
# Poissons Ratio (x) = 0.26198 0.35610
# Poissons Ratio (y) = 0.10440 0.02451
# Poissons Ratio (z) = 0.31794 0.05493
#
# Static dielectric constant tensor:
#      x y z
#    x 2.037470 0.000000 0.000000 
#    y 0.000000 1.654900 0.000000 
#    z 0.000000 0.000000 1.693140 
# 
# From -- ./inp_files/37628.got.cif
#   From: 2010.05.17/outbox.cif.g08.bks.cpg/sg70_19_cif.got.tgz:37628.got - 2010.06.03 15:57:51.
