data_PCOD9516798
_publ_section_title
;
Structure prediction by ZEFSAII (Michael W. Deem and Ramdas Pophale) SiO2 
 PCOD9516798
Probable space group: F D D D
;
_chemical_formula_sum "Si O2"
_cell_formula_units_Z 160
_cell_length_a 27.936503
_cell_length_b 10.731824
_cell_length_c 22.774429
_cell_angle_alpha 90.000000
_cell_angle_beta 90.000000
_cell_angle_gamma 90.000000
_cell_volume 6827.993209
_symmetry_space_group_name_H-M "F D D D"
_symmetry_group_IT_number 70
_space_group.IT_coordinate_system_code '2'
_symmetry_cell_setting 'orthorhombic'
loop_
_space_group_symop_operation_xyz
x,y,z
1/4-x,1/4-y,z
x,1/4-y,1/4-z
1/4-x,y,1/4-z
-x,-y,-z
3/4+x,3/4+y,-z
-x,3/4+y,3/4+z
3/4+x,-y,3/4+z
x,1/2+y,1/2+z
1/4-x,3/4-y,1/2+z
x,3/4-y,3/4-z
1/4-x,1/2+y,3/4-z
-x,1/2-y,1/2-z
3/4+x,1/4+y,1/2-z
-x,1/4+y,1/4+z
3/4+x,1/2-y,1/4+z
1/2+x,y,1/2+z
3/4-x,1/4-y,1/2+z
1/2+x,1/4-y,3/4-z
3/4-x,y,3/4-z
1/2-x,-y,1/2-z
1/4+x,3/4+y,1/2-z
1/2-x,3/4+y,1/4+z
1/4+x,-y,1/4+z
1/2+x,1/2+y,z
3/4-x,3/4-y,z
1/2+x,3/4-y,1/4-z
3/4-x,1/2+y,1/4-z
1/2-x,1/2-y,-z
1/4+x,1/4+y,-z
1/2-x,1/4+y,3/4+z
1/4+x,1/2-y,3/4+z
loop_
_atom_site_type_symbol
_atom_site_label
_atom_site_fract_x
_atom_site_fract_y
_atom_site_fract_z
Si Si1 0.010829 0.768747 0.108878
Si Si2 0.911897 0.139612 0.058689
Si Si3 0.239199 0.733695 0.674004
Si Si4 0.682157 0.629365 0.283501
Si Si5 0.109648 0.769524 0.058863
O O1 0.014822 0.625000 0.125000
O O2 0.052274 0.786107 0.060557
O O3 0.958238 0.797901 0.085385
O O4 0.023433 0.875312 0.155884
O O5 0.891231 0.125000 0.125000
O O6 0.953766 0.241049 0.064368
O O7 0.942518 0.016269 0.042559
O O8 0.877061 0.167132 0.003596
O O9 0.232871 0.625000 0.625000
O O10 0.205542 0.687112 0.726052
O O11 0.625000 0.625000 0.283802
O O12 0.125000 0.625000 0.056014
O O13 0.125000 0.813018 0.125000
#
# Coordination Sequence:
#
# PCOD9516798 Si02
#       5
#    32  32  32  32  32
#     4  12  25  48  75 109 155 201 262 330 395 470
#     4  11  23  48  77 107 154 211 260 320 400 468
#     4  11  23  47  78 101 148 205 253 321 395 467
#     4  12  27  45  71 114 150 200 267 327 390 474
#     4  11  24  46  79 115 154 202 262 328 395 472
#
# _framework density 23.432946999999999
#
# number of rings (size 3 to 8) (size 9 to 14) (size 15 to 20)
#    0.000    0.600    8.000    1.800    2.800    2.800 
#    3.600    0.000    0.000    0.000    0.000    0.000 
#    0.000    0.000    0.000    0.000    0.000    0.000 
#
# Total GULP energy -223156.059831 kJ/mol
# GULP energy per Si atom -5578.901496 kJ/mol
# Density = 2.337961 g / cm^3
# Si number density = 23.432947 Si / 1000 Ang^3
#
#
#
# Elastic Constant Matrix: (Units=GPa)
#
#
# Indices 1 2 3 4 5 6 
#
# 1 92.4281 -7.3117 41.7689 0.0000 0.0000 0.0000
# 2 -7.3117 122.8174 62.1417 0.0000 0.0000 0.0000
# 3 41.7689 62.1417 197.7692 0.0000 0.0000 0.0000
# 4 0.0000 0.0000 0.0000 24.9714 0.0000 0.0000
# 5 0.0000 0.0000 0.0000 0.0000 31.4795 0.0000
# 6 0.0000 0.0000 0.0000 0.0000 0.0000 22.1963
#
#
#
# Elastic Compliance Matrix: (Units=1/GPa)
#
#
# Indices 1 2 3 4 5 6 
#
# 1 0.012569 0.002487 -0.003436 0.000000 0.000000 0.000000
# 2 0.002487 0.010173 -0.003722 0.000000 0.000000 0.000000
# 3 -0.003436 -0.003722 0.006951 0.000000 0.000000 0.000000
# 4 0.000000 0.000000 0.000000 0.040046 0.000000 0.000000
# 5 0.000000 0.000000 0.000000 0.000000 0.031767 0.000000
# 6 0.000000 0.000000 0.000000 0.000000 0.000000 0.045053
#
#
# Mechanical properties :
#
#
# Convention : Reuss Voigt Hill
#
# Bulk Modulus (GPa) = 49.13640 67.35695 58.24668
# Shear Modulus (GPa) = 30.73439 36.82383 33.77911
#
# Velocity S-wave (km/s) = 3.62552 3.96846 3.80086
# Velocity P-wave (km/s) = 6.20808 7.05728 6.64626
#
# Compressibility (1/GPa) = 0.02035151
#
# Stress axis : x y z
#
# Youngs Moduli (GPa) = 79.56333 98.29648 143.85435
#
# Poissons Ratio (x) = -0.24443 0.49426
# Poissons Ratio (y) = -0.19785 0.53539
# Poissons Ratio (z) = 0.27337 0.36584
#
# Static dielectric constant tensor:
#      x y z
#    x 1.899470 0.000000 0.000000 
#    y 0.000000 1.854930 0.000000 
#    z 0.000000 0.000000 1.994550 
# 
# From -- ./inp_files/54876.got.cif
#   From: 2010.05.17/outbox.cif.g08.bks.cpg/sg70_28_cif.got.tgz:54876.got - 2010.06.03 15:57:51.
