data_PCOD9516861
_publ_section_title
;
Structure prediction by ZEFSAII (Michael W. Deem and Ramdas Pophale) SiO2 
 PCOD9516861
Probable space group: F D D D
;
_chemical_formula_sum "Si O2"
_cell_formula_units_Z 160
_cell_length_a 20.490146
_cell_length_b 24.819722
_cell_length_c 12.299460
_cell_angle_alpha 90.000000
_cell_angle_beta 90.000000
_cell_angle_gamma 90.000000
_cell_volume 6255.010025
_symmetry_space_group_name_H-M "F D D D"
_symmetry_group_IT_number 70
_space_group.IT_coordinate_system_code '2'
_symmetry_cell_setting 'orthorhombic'
loop_
_space_group_symop_operation_xyz
x,y,z
1/4-x,1/4-y,z
x,1/4-y,1/4-z
1/4-x,y,1/4-z
-x,-y,-z
3/4+x,3/4+y,-z
-x,3/4+y,3/4+z
3/4+x,-y,3/4+z
x,1/2+y,1/2+z
1/4-x,3/4-y,1/2+z
x,3/4-y,3/4-z
1/4-x,1/2+y,3/4-z
-x,1/2-y,1/2-z
3/4+x,1/4+y,1/2-z
-x,1/4+y,1/4+z
3/4+x,1/2-y,1/4+z
1/2+x,y,1/2+z
3/4-x,1/4-y,1/2+z
1/2+x,1/4-y,3/4-z
3/4-x,y,3/4-z
1/2-x,-y,1/2-z
1/4+x,3/4+y,1/2-z
1/2-x,3/4+y,1/4+z
1/4+x,-y,1/4+z
1/2+x,1/2+y,z
3/4-x,3/4-y,z
1/2+x,3/4-y,1/4-z
3/4-x,1/2+y,1/4-z
1/2-x,1/2-y,-z
1/4+x,1/4+y,-z
1/2-x,1/4+y,3/4+z
1/4+x,1/2-y,3/4+z
loop_
_atom_site_type_symbol
_atom_site_label
_atom_site_fract_x
_atom_site_fract_y
_atom_site_fract_z
Si Si1 0.614130 0.038717 0.001818
Si Si2 0.740894 0.984532 0.528021
Si Si3 0.541921 0.945144 0.517178
Si Si4 0.443560 0.847491 0.543314
Si Si5 0.085919 0.437261 0.893670
O O1 0.625000 0.057851 0.125000
O O2 0.686460 0.035708 0.948684
O O3 0.570543 0.074534 0.917593
O O4 0.595983 0.974297 0.000043
O O5 0.692290 0.952479 0.605973
O O6 0.726570 0.966053 0.406790
O O7 0.718117 0.046308 0.526537
O O8 0.498886 0.891480 0.519863
O O9 0.598824 0.944670 0.429533
O O10 0.500000 0.000000 0.500000
O O11 0.375000 0.875000 0.510809
O O12 0.072579 0.375000 0.875000
#
# Coordination Sequence:
#
# PCOD9516861 Si02
#       5
#    32  32  32  32  32
#     4  11  25  48  71 106 151 200 255 310 374 461
#     4  11  24  45  72 104 145 193 245 316 367 458
#     4  12  23  44  73 102 144 182 244 308 371 449
#     4  11  24  46  73 108 145 196 250 305 391 443
#     4  11  25  43  69 106 144 194 245 304 383 440
#
# _framework density 25.579494
#
# number of rings (size 3 to 8) (size 9 to 14) (size 15 to 20)
#    0.000    0.800    4.000    3.000    0.000    8.400 
#    0.000    3.000    0.000    0.000    0.000    0.000 
#    0.000    0.000    0.000    0.000    0.000    0.000 
#
# Total GULP energy -223112.903524 kJ/mol
# GULP energy per Si atom -5577.822588 kJ/mol
# Density = 2.552127 g / cm^3
# Si number density = 25.579494 Si / 1000 Ang^3
#
#
#
# Elastic Constant Matrix: (Units=GPa)
#
#
# Indices 1 2 3 4 5 6 
#
# 1 69.1182 26.7339 9.9137 0.0000 0.0000 0.0000
# 2 26.7339 160.6790 10.5170 0.0000 0.0000 0.0000
# 3 9.9137 10.5170 90.6325 0.0000 0.0000 0.0000
# 4 0.0000 0.0000 0.0000 72.3100 0.0000 0.0000
# 5 0.0000 0.0000 0.0000 0.0000 23.4935 0.0000
# 6 0.0000 0.0000 0.0000 0.0000 0.0000 30.8520
#
#
#
# Elastic Compliance Matrix: (Units=1/GPa)
#
#
# Indices 1 2 3 4 5 6 
#
# 1 0.015642 -0.002510 -0.001420 0.000000 0.000000 0.000000
# 2 -0.002510 0.006674 -0.000500 0.000000 0.000000 0.000000
# 3 -0.001420 -0.000500 0.011247 0.000000 0.000000 0.000000
# 4 0.000000 0.000000 0.000000 0.013829 0.000000 0.000000
# 5 0.000000 0.000000 0.000000 0.000000 0.042565 0.000000
# 6 0.000000 0.000000 0.000000 0.000000 0.000000 0.032413
#
#
# Mechanical properties :
#
#
# Convention : Reuss Voigt Hill
#
# Bulk Modulus (GPa) = 40.47872 46.08433 43.28152
# Shear Modulus (GPa) = 35.85162 43.54876 39.70019
#
# Velocity S-wave (km/s) = 3.74782 4.13060 3.94386
# Velocity P-wave (km/s) = 5.88110 6.38783 6.13969
#
# Compressibility (1/GPa) = 0.02470434
#
# Stress axis : x y z
#
# Youngs Moduli (GPa) = 63.92917 149.83816 88.91348
#
# Poissons Ratio (x) = 0.37604 0.12624
# Poissons Ratio (y) = 0.16044 0.04445
# Poissons Ratio (z) = 0.09077 0.07491
#
# Static dielectric constant tensor:
#      x y z
#    x 2.056570 0.000000 0.000000 
#    y 0.000000 2.080220 0.000000 
#    z 0.000000 0.000000 2.682300 
# 
# From -- ./inp_files/28635.got.cif
#   From: 2010.05.17/outbox.cif.g08.bks.cpg/sg70_15_cif.got.tgz:28635.got - 2010.06.03 15:57:51.
