data_PCOD9516843
_publ_section_title
;
Structure prediction by ZEFSAII (Michael W. Deem and Ramdas Pophale) SiO2 
 PCOD9516843
Probable space group: F D D D
;
_chemical_formula_sum "Si O2"
_cell_formula_units_Z 112
_cell_length_a 21.575738
_cell_length_b 27.688478
_cell_length_c 7.605697
_cell_angle_alpha 90.000000
_cell_angle_beta 90.000000
_cell_angle_gamma 90.000000
_cell_volume 4543.638421
_symmetry_space_group_name_H-M "F D D D"
_symmetry_group_IT_number 70
_space_group.IT_coordinate_system_code '2'
_symmetry_cell_setting 'orthorhombic'
loop_
_space_group_symop_operation_xyz
x,y,z
1/4-x,1/4-y,z
x,1/4-y,1/4-z
1/4-x,y,1/4-z
-x,-y,-z
3/4+x,3/4+y,-z
-x,3/4+y,3/4+z
3/4+x,-y,3/4+z
x,1/2+y,1/2+z
1/4-x,3/4-y,1/2+z
x,3/4-y,3/4-z
1/4-x,1/2+y,3/4-z
-x,1/2-y,1/2-z
3/4+x,1/4+y,1/2-z
-x,1/4+y,1/4+z
3/4+x,1/2-y,1/4+z
1/2+x,y,1/2+z
3/4-x,1/4-y,1/2+z
1/2+x,1/4-y,3/4-z
3/4-x,y,3/4-z
1/2-x,-y,1/2-z
1/4+x,3/4+y,1/2-z
1/2-x,3/4+y,1/4+z
1/4+x,-y,1/4+z
1/2+x,1/2+y,z
3/4-x,3/4-y,z
1/2+x,3/4-y,1/4-z
3/4-x,1/2+y,1/4-z
1/2-x,1/2-y,-z
1/4+x,1/4+y,-z
1/2-x,1/4+y,3/4+z
1/4+x,1/2-y,3/4+z
loop_
_atom_site_type_symbol
_atom_site_label
_atom_site_fract_x
_atom_site_fract_y
_atom_site_fract_z
Si Si1 0.375000 0.536866 0.375000
Si Si2 0.280484 0.947165 0.252209
Si Si3 0.526450 0.889754 0.062353
Si Si4 0.587595 0.050299 0.890517
O O1 0.431337 0.572300 0.331798
O O2 0.405900 0.502376 0.522229
O O3 0.234219 0.906460 0.184354
O O4 0.340184 0.937446 0.127352
O O5 0.309485 0.944718 0.445823
O O6 0.250000 0.000000 0.250000
O O7 0.461878 0.916552 0.010263
O O8 0.556067 0.875000 0.875000
#
# Coordination Sequence:
#
# PCOD9516843 Si02
#       4
#    16  32  32  32
#     4  12  26  46  71 106 148 194 249 320 384 448
#     4  11  24  44  71 104 142 190 248 308 371 449
#     4  12  26  45  71 105 146 199 254 315 385 460
#     4  11  24  44  70 101 143 191 243 304 374 458
#
# _framework density 24.649849
#
# number of rings (size 3 to 8) (size 9 to 14) (size 15 to 20)
#    0.000    0.571    0.000    7.714    0.000   10.286 
#    0.000    0.000    0.000    0.000    0.000    0.000 
#    0.000    0.000    0.000    0.000    0.000    0.000 
#
# Total GULP energy -156472.647286 kJ/mol
# GULP energy per Si atom -5588.308832 kJ/mol
# Density = 2.459374 g / cm^3
# Si number density = 24.649849 Si / 1000 Ang^3
#
#
#
# Elastic Constant Matrix: (Units=GPa)
#
#
# Indices 1 2 3 4 5 6 
#
# 1 99.0380 61.3106 24.3666 -0.0008 -0.0014 -0.0002
# 2 61.3106 180.9389 61.3199 -0.0010 0.0000 -0.0001
# 3 24.3666 61.3199 100.0763 -0.0035 0.0025 0.0005
# 4 -0.0008 -0.0010 -0.0035 48.0259 0.0020 0.0009
# 5 -0.0014 0.0000 0.0025 0.0020 16.0361 -0.0001
# 6 -0.0002 -0.0001 0.0005 0.0009 -0.0001 60.7688
#
#
#
# Elastic Compliance Matrix: (Units=1/GPa)
#
#
# Indices 1 2 3 4 5 6 
#
# 1 0.012804 -0.004142 -0.000579 0.000000 0.000001 0.000000
# 2 -0.004142 0.008315 -0.004086 0.000000 0.000000 0.000000
# 3 -0.000579 -0.004086 0.012637 0.000001 -0.000002 0.000000
# 4 0.000000 0.000000 0.000001 0.020822 -0.000003 0.000000
# 5 0.000001 0.000000 -0.000002 -0.000003 0.062359 0.000000
# 6 0.000000 0.000000 0.000000 0.000000 0.000000 0.016456
#
#
# Mechanical properties :
#
#
# Convention : Reuss Voigt Hill
#
# Bulk Modulus (GPa) = 61.95664 74.89418 68.42541
# Shear Modulus (GPa) = 31.97136 40.50324 36.23730
#
# Velocity S-wave (km/s) = 3.60532 4.05797 3.83832
# Velocity P-wave (km/s) = 6.52077 7.23915 6.88933
#
# Compressibility (1/GPa) = 0.01614032
#
# Stress axis : x y z
#
# Youngs Moduli (GPa) = 78.10068 120.26182 79.13053
#
# Poissons Ratio (x) = 0.49815 0.04585
# Poissons Ratio (y) = 0.32351 0.32336
# Poissons Ratio (z) = 0.04526 0.49144
#
# Static dielectric constant tensor:
#      x y z
#    x 2.373580 -0.000010 -0.000040 
#    y -0.000010 2.001800 0.000010 
#    z -0.000040 0.000010 2.262940 
# 
# From -- ./inp_files/9481.got.cif
#   From: 2010.05.17/outbox.cif.g08.bks.cpg/sg70_5_cif.got.tgz:9481.got - 2010.06.03 15:57:51.
