data_PCOD9516444
_publ_section_title
;
Structure prediction by ZEFSAII (Michael W. Deem and Ramdas Pophale) SiO2 
 PCOD9516444
Probable space group: F D D D
;
_chemical_formula_sum "Si O2"
_cell_formula_units_Z 176
_cell_length_a 25.872134
_cell_length_b 27.679883
_cell_length_c 10.465754
_cell_angle_alpha 90.000000
_cell_angle_beta 90.000000
_cell_angle_gamma 90.000000
_cell_volume 7494.920392
_symmetry_space_group_name_H-M "F D D D"
_symmetry_group_IT_number 70
_space_group.IT_coordinate_system_code '2'
_symmetry_cell_setting 'orthorhombic'
loop_
_space_group_symop_operation_xyz
x,y,z
1/4-x,1/4-y,z
x,1/4-y,1/4-z
1/4-x,y,1/4-z
-x,-y,-z
3/4+x,3/4+y,-z
-x,3/4+y,3/4+z
3/4+x,-y,3/4+z
x,1/2+y,1/2+z
1/4-x,3/4-y,1/2+z
x,3/4-y,3/4-z
1/4-x,1/2+y,3/4-z
-x,1/2-y,1/2-z
3/4+x,1/4+y,1/2-z
-x,1/4+y,1/4+z
3/4+x,1/2-y,1/4+z
1/2+x,y,1/2+z
3/4-x,1/4-y,1/2+z
1/2+x,1/4-y,3/4-z
3/4-x,y,3/4-z
1/2-x,-y,1/2-z
1/4+x,3/4+y,1/2-z
1/2-x,3/4+y,1/4+z
1/4+x,-y,1/4+z
1/2+x,1/2+y,z
3/4-x,3/4-y,z
1/2+x,3/4-y,1/4-z
3/4-x,1/2+y,1/4-z
1/2-x,1/2-y,-z
1/4+x,1/4+y,-z
1/2-x,1/4+y,3/4+z
1/4+x,1/2-y,3/4+z
loop_
_atom_site_type_symbol
_atom_site_label
_atom_site_fract_x
_atom_site_fract_y
_atom_site_fract_z
Si Si1 0.375000 0.003517 0.875000
Si Si2 0.107022 0.175500 0.408034
Si Si3 0.261498 0.715396 0.875013
Si Si4 0.164055 0.007700 0.005699
Si Si5 0.258044 0.890397 0.229481
Si Si6 0.893295 0.164619 0.233354
O O1 0.385109 0.967101 0.758815
O O2 0.322949 0.033386 0.878126
O O3 0.125000 0.125000 0.464349
O O4 0.147706 0.190856 0.300769
O O5 0.051909 0.170969 0.341150
O O6 0.226013 0.740334 0.762840
O O7 0.250494 0.657905 0.857278
O O8 0.250000 0.750000 0.000000
O O9 0.125000 0.004272 0.125000
O O10 0.141569 0.959769 0.937305
O O11 0.272509 0.875000 0.375000
O O12 0.205084 0.921097 0.247536
O O13 0.887823 0.125000 0.125000
O O14 0.875000 0.150052 0.375000
#
# Coordination Sequence:
#
# PCOD9516444 Si02
#       6
#    16  32  32  32  32  32
#     4  12  29  44  76 104 162 196 258 310 387 486
#     4  12  25  46  72 109 144 200 246 319 381 472
#     4  12  26  49  73 113 150 212 256 323 407 481
#     4  11  25  47  73 110 151 193 261 321 396 468
#     4  11  26  45  76 112 149 198 268 328 400 472
#     4  10  26  45  70 112 148 203 255 326 395 472
#
# _framework density 23.482571
#
# number of rings (size 3 to 8) (size 9 to 14) (size 15 to 20)
#    0.000    0.727    3.636    1.364   14.000    0.727 
#    0.000    0.000    0.000    0.000    0.000    0.000 
#    0.000    0.000    0.000    0.000    0.000    0.000 
#
# Total GULP energy -245211.178835 kJ/mol
# GULP energy per Si atom -5572.981337 kJ/mol
# Density = 2.342912 g / cm^3
# Si number density = 23.482571 Si / 1000 Ang^3
#
#
#
# Elastic Constant Matrix: (Units=GPa)
#
#
# Indices 1 2 3 4 5 6 
#
# 1 209.9067 50.5937 43.2615 -0.0001 -0.0001 0.0001
# 2 50.5937 59.2467 0.8033 -0.0002 -0.0002 0.0000
# 3 43.2615 0.8033 84.1247 -0.0001 -0.0002 0.0001
# 4 -0.0001 -0.0002 -0.0001 66.8265 0.0003 0.0000
# 5 -0.0001 -0.0002 -0.0002 0.0003 35.2968 -0.0001
# 6 0.0001 0.0000 0.0001 0.0000 -0.0001 43.1092
#
#
#
# Elastic Compliance Matrix: (Units=1/GPa)
#
#
# Indices 1 2 3 4 5 6 
#
# 1 0.006889 -0.005836 -0.003487 0.000000 0.000000 0.000000
# 2 -0.005836 0.021824 0.002793 0.000000 0.000000 0.000000
# 3 -0.003487 0.002793 0.013654 0.000000 0.000000 0.000000
# 4 0.000000 0.000000 0.000000 0.014964 0.000000 0.000000
# 5 0.000000 0.000000 0.000000 0.000000 0.028331 0.000000
# 6 0.000000 0.000000 0.000000 0.000000 0.000000 0.023197
#
#
# Mechanical properties :
#
#
# Convention : Reuss Voigt Hill
#
# Bulk Modulus (GPa) = 34.12185 60.28833 47.20509
# Shear Modulus (GPa) = 37.96827 46.28782 42.12805
#
# Velocity S-wave (km/s) = 4.02539 4.44459 4.24017
# Velocity P-wave (km/s) = 6.01393 7.21585 6.64213
#
# Compressibility (1/GPa) = 0.02930673
#
# Stress axis : x y z
#
# Youngs Moduli (GPa) = 145.15201 45.82064 73.24010
#
# Poissons Ratio (x) = 0.26740 0.25540
# Poissons Ratio (y) = 0.84709 -0.20454
# Poissons Ratio (z) = 0.50617 -0.12796
#
# Static dielectric constant tensor:
#      x y z
#    x 2.003860 0.000000 0.000000 
#    y 0.000000 2.053220 0.000000 
#    z 0.000000 0.000000 2.255210 
# 
# From -- ./inp_files/19630.got.cif
#   From: 2010.05.17/outbox.cif.g08.bks.cpg/sg70_10_cif.got.tgz:19630.got - 2010.06.03 15:57:51.
