data_PCOD9516882
_publ_section_title
;
Structure prediction by ZEFSAII (Michael W. Deem and Ramdas Pophale) SiO2 
 PCOD9516882
Probable space group: F D D D
;
_chemical_formula_sum "Si O2"
_cell_formula_units_Z 136
_cell_length_a 29.696009
_cell_length_b 10.897240
_cell_length_c 18.937783
_cell_angle_alpha 90.000000
_cell_angle_beta 90.000000
_cell_angle_gamma 90.000000
_cell_volume 6128.352502
_symmetry_space_group_name_H-M "F D D D"
_symmetry_group_IT_number 70
_space_group.IT_coordinate_system_code '2'
_symmetry_cell_setting 'orthorhombic'
loop_
_space_group_symop_operation_xyz
x,y,z
1/4-x,1/4-y,z
x,1/4-y,1/4-z
1/4-x,y,1/4-z
-x,-y,-z
3/4+x,3/4+y,-z
-x,3/4+y,3/4+z
3/4+x,-y,3/4+z
x,1/2+y,1/2+z
1/4-x,3/4-y,1/2+z
x,3/4-y,3/4-z
1/4-x,1/2+y,3/4-z
-x,1/2-y,1/2-z
3/4+x,1/4+y,1/2-z
-x,1/4+y,1/4+z
3/4+x,1/2-y,1/4+z
1/2+x,y,1/2+z
3/4-x,1/4-y,1/2+z
1/2+x,1/4-y,3/4-z
3/4-x,y,3/4-z
1/2-x,-y,1/2-z
1/4+x,3/4+y,1/2-z
1/2-x,3/4+y,1/4+z
1/4+x,-y,1/4+z
1/2+x,1/2+y,z
3/4-x,3/4-y,z
1/2+x,3/4-y,1/4-z
3/4-x,1/2+y,1/4-z
1/2-x,1/2-y,-z
1/4+x,1/4+y,-z
1/2-x,1/4+y,3/4+z
1/4+x,1/2-y,3/4+z
loop_
_atom_site_type_symbol
_atom_site_label
_atom_site_fract_x
_atom_site_fract_y
_atom_site_fract_z
Si Si1 0.689973 0.896288 0.291431
Si Si2 0.021253 0.501385 0.578008
Si Si3 0.906270 0.585931 0.774849
Si Si4 0.875000 0.375000 0.875000
Si Si5 0.974329 0.332236 0.043400
O O1 0.688365 0.875000 0.375000
O O2 0.641412 0.874211 0.256609
O O3 0.731269 0.823051 0.255716
O O4 0.700345 0.039620 0.276625
O O5 0.022396 0.625000 0.625000
O O6 0.070475 0.445271 0.566905
O O7 0.000000 0.500000 0.500000
O O8 0.991947 0.411591 0.626944
O O9 0.902329 0.468739 0.826425
O O10 0.940350 0.531169 0.716160
#
# Coordination Sequence:
#
# PCOD9516882 Si02
#       5
#    32  32  32   8  32
#     4  11  25  43  75 112 147 191 256 321 389 470
#     4  12  27  48  77 107 154 209 252 319 393 477
#     4  12  25  46  76 105 151 195 260 315 394 454
#     4  12  24  48  74 108 140 196 246 330 372 456
#     4  11  24  47  72 109 143 201 255 318 388 465
#
# _framework density 22.191934
#
# number of rings (size 3 to 8) (size 9 to 14) (size 15 to 20)
#    0.000    0.471    4.706    2.824    8.235    0.000 
#    0.000    5.294    0.000    0.000    0.000    0.000 
#    0.000    0.000    0.000    0.000    0.000    0.000 
#
# Total GULP energy -190151.560972 kJ/mol
# GULP energy per Si atom -5592.692970 kJ/mol
# Density = 2.214142 g / cm^3
# Si number density = 22.191934 Si / 1000 Ang^3
#
#
#
# Elastic Constant Matrix: (Units=GPa)
#
#
# Indices 1 2 3 4 5 6 
#
# 1 134.0152 30.5457 49.4045 0.0000 0.0000 0.0000
# 2 30.5457 71.1383 20.6640 0.0000 0.0000 0.0000
# 3 49.4045 20.6640 144.0204 0.0000 0.0000 0.0000
# 4 0.0000 0.0000 0.0000 29.2933 0.0000 0.0000
# 5 0.0000 0.0000 0.0000 0.0000 37.2601 0.0000
# 6 0.0000 0.0000 0.0000 0.0000 0.0000 25.9991
#
#
#
# Elastic Compliance Matrix: (Units=1/GPa)
#
#
# Indices 1 2 3 4 5 6 
#
# 1 0.009175 -0.003157 -0.002694 0.000000 0.000000 0.000000
# 2 -0.003157 0.015755 -0.001178 0.000000 0.000000 0.000000
# 3 -0.002694 -0.001178 0.008037 0.000000 0.000000 0.000000
# 4 0.000000 0.000000 0.000000 0.034137 0.000000 0.000000
# 5 0.000000 0.000000 0.000000 0.000000 0.026838 0.000000
# 6 0.000000 0.000000 0.000000 0.000000 0.000000 0.038463
#
#
# Mechanical properties :
#
#
# Convention : Reuss Voigt Hill
#
# Bulk Modulus (GPa) = 52.88602 61.15581 57.02091
# Shear Modulus (GPa) = 32.73006 35.08117 33.90561
#
# Velocity S-wave (km/s) = 3.84456 3.98025 3.91299
# Velocity P-wave (km/s) = 6.60231 6.98145 6.79452
#
# Compressibility (1/GPa) = 0.01890859
#
# Stress axis : x y z
#
# Youngs Moduli (GPa) = 108.99643 63.47324 124.42969
#
# Poissons Ratio (x) = 0.20037 0.33525
# Poissons Ratio (y) = 0.34408 0.14652
# Poissons Ratio (z) = 0.29367 0.07474
#
# Static dielectric constant tensor:
#      x y z
#    x 1.830760 0.000000 0.000000 
#    y 0.000000 1.850530 0.000000 
#    z 0.000000 0.000000 1.830180 
# 
# From -- ./inp_files/41975.got.cif
#   From: 2010.05.17/outbox.cif.g08.bks.cpg/sg70_21_cif.got.tgz:41975.got - 2010.06.03 15:57:51.
