data_PCOD9516578
_publ_section_title
;
Structure prediction by ZEFSAII (Michael W. Deem and Ramdas Pophale) SiO2 
 PCOD9516578
Probable space group: F D D D
;
_chemical_formula_sum "Si O2"
_cell_formula_units_Z 112
_cell_length_a 19.656872
_cell_length_b 24.948885
_cell_length_c 9.656094
_cell_angle_alpha 90.000000
_cell_angle_beta 90.000000
_cell_angle_gamma 90.000000
_cell_volume 4735.513028
_symmetry_space_group_name_H-M "F D D D"
_symmetry_group_IT_number 70
_space_group.IT_coordinate_system_code '2'
_symmetry_cell_setting 'orthorhombic'
loop_
_space_group_symop_operation_xyz
x,y,z
1/4-x,1/4-y,z
x,1/4-y,1/4-z
1/4-x,y,1/4-z
-x,-y,-z
3/4+x,3/4+y,-z
-x,3/4+y,3/4+z
3/4+x,-y,3/4+z
x,1/2+y,1/2+z
1/4-x,3/4-y,1/2+z
x,3/4-y,3/4-z
1/4-x,1/2+y,3/4-z
-x,1/2-y,1/2-z
3/4+x,1/4+y,1/2-z
-x,1/4+y,1/4+z
3/4+x,1/2-y,1/4+z
1/2+x,y,1/2+z
3/4-x,1/4-y,1/2+z
1/2+x,1/4-y,3/4-z
3/4-x,y,3/4-z
1/2-x,-y,1/2-z
1/4+x,3/4+y,1/2-z
1/2-x,3/4+y,1/4+z
1/4+x,-y,1/4+z
1/2+x,1/2+y,z
3/4-x,3/4-y,z
1/2+x,3/4-y,1/4-z
3/4-x,1/2+y,1/4-z
1/2-x,1/2-y,-z
1/4+x,1/4+y,-z
1/2-x,1/4+y,3/4+z
1/4+x,1/2-y,3/4+z
loop_
_atom_site_type_symbol
_atom_site_label
_atom_site_fract_x
_atom_site_fract_y
_atom_site_fract_z
Si Si1 0.919071 0.261156 0.739103
Si Si2 0.260318 0.580368 0.711705
Si Si3 0.375000 0.375000 0.639276
Si Si4 0.561807 0.991141 0.691367
O O1 0.899127 0.323038 0.700532
O O2 0.911167 0.230272 0.593814
O O3 0.000000 0.250000 0.750000
O O4 0.875000 0.246860 0.875000
O O5 0.298398 0.625000 0.625000
O O6 0.190429 0.607127 0.770646
O O7 0.296153 0.560196 0.850073
O O8 0.248556 0.531410 0.602426
O O9 0.625000 0.021422 0.625000
#
# Coordination Sequence:
#
# PCOD9516578 Si02
#       4
#    32  32  16  32
#     4  12  27  45  71 114 160 212 270 343 423 511
#     4  11  21  40  77 107 142 190 269 329 407 498
#     4  12  22  46  72 108 140 210 264 334 416 508
#     4  11  23  42  72 106 142 196 250 329 403 483
#
# _framework density 23.65108
#
# number of rings (size 3 to 8) (size 9 to 14) (size 15 to 20)
#    0.000    0.571    5.714    2.571    4.000    0.000 
#    0.000    4.286    0.000    0.000    0.000    0.000 
#    0.000    0.000    0.000    0.000    0.000    0.000 
#
# Total GULP energy -155944.898937 kJ/mol
# GULP energy per Si atom -5569.460676 kJ/mol
# Density = 2.359725 g / cm^3
# Si number density = 23.651080 Si / 1000 Ang^3
#
#
#
# Elastic Constant Matrix: (Units=GPa)
#
#
# Indices 1 2 3 4 5 6 
#
# 1 93.2460 31.4003 72.1450 0.0000 0.0000 0.0000
# 2 31.4003 102.2946 68.2651 0.0000 0.0000 0.0000
# 3 72.1450 68.2651 227.6142 0.0000 0.0000 0.0000
# 4 0.0000 0.0000 0.0000 55.1360 0.0000 0.0000
# 5 0.0000 0.0000 0.0000 0.0000 41.3251 0.0000
# 6 0.0000 0.0000 0.0000 0.0000 0.0000 27.9919
#
#
#
# Elastic Compliance Matrix: (Units=1/GPa)
#
#
# Indices 1 2 3 4 5 6 
#
# 1 0.014448 -0.001724 -0.004062 0.000000 0.000000 0.000000
# 2 -0.001724 0.012428 -0.003181 0.000000 0.000000 0.000000
# 3 -0.004062 -0.003181 0.006635 0.000000 0.000000 0.000000
# 4 0.000000 0.000000 0.000000 0.018137 0.000000 0.000000
# 5 0.000000 0.000000 0.000000 0.000000 0.024198 0.000000
# 6 0.000000 0.000000 0.000000 0.000000 0.000000 0.035725
#
#
# Mechanical properties :
#
#
# Convention : Reuss Voigt Hill
#
# Bulk Modulus (GPa) = 64.20050 85.19731 74.69891
# Shear Modulus (GPa) = 37.12038 41.64689 39.38364
#
# Velocity S-wave (km/s) = 3.96599 4.20085 4.08511
# Velocity P-wave (km/s) = 6.94088 7.72206 7.34187
#
# Compressibility (1/GPa) = 0.01557620
#
# Stress axis : x y z
#
# Youngs Moduli (GPa) = 69.21387 80.46651 150.71585
#
# Poissons Ratio (x) = 0.13872 0.61227
# Poissons Ratio (y) = 0.11932 0.47940
# Poissons Ratio (z) = 0.28118 0.25595
#
# Static dielectric constant tensor:
#      x y z
#    x 2.090750 0.000000 0.000000 
#    y 0.000000 1.956470 0.000000 
#    z 0.000000 0.000000 1.974320 
# 
# From -- ./inp_files/9473.got.cif
#   From: 2010.05.17/outbox.cif.g08.bks.cpg/sg70_5_cif.got.tgz:9473.got - 2010.06.03 15:57:51.
