data_PCOD9516947
_publ_section_title
;
Structure prediction by ZEFSAII (Michael W. Deem and Ramdas Pophale) SiO2 
 PCOD9516947
Probable space group: F D D D
;
_chemical_formula_sum "Si O2"
_cell_formula_units_Z 120
_cell_length_a 10.032236
_cell_length_b 21.895339
_cell_length_c 21.778411
_cell_angle_alpha 90.000000
_cell_angle_beta 90.000000
_cell_angle_gamma 90.000000
_cell_volume 4783.828515
_symmetry_space_group_name_H-M "F D D D"
_symmetry_group_IT_number 70
_space_group.IT_coordinate_system_code '2'
_symmetry_cell_setting 'orthorhombic'
loop_
_space_group_symop_operation_xyz
x,y,z
1/4-x,1/4-y,z
x,1/4-y,1/4-z
1/4-x,y,1/4-z
-x,-y,-z
3/4+x,3/4+y,-z
-x,3/4+y,3/4+z
3/4+x,-y,3/4+z
x,1/2+y,1/2+z
1/4-x,3/4-y,1/2+z
x,3/4-y,3/4-z
1/4-x,1/2+y,3/4-z
-x,1/2-y,1/2-z
3/4+x,1/4+y,1/2-z
-x,1/4+y,1/4+z
3/4+x,1/2-y,1/4+z
1/2+x,y,1/2+z
3/4-x,1/4-y,1/2+z
1/2+x,1/4-y,3/4-z
3/4-x,y,3/4-z
1/2-x,-y,1/2-z
1/4+x,3/4+y,1/2-z
1/2-x,3/4+y,1/4+z
1/4+x,-y,1/4+z
1/2+x,1/2+y,z
3/4-x,3/4-y,z
1/2+x,3/4-y,1/4-z
3/4-x,1/2+y,1/4-z
1/2-x,1/2-y,-z
1/4+x,1/4+y,-z
1/2-x,1/4+y,3/4+z
1/4+x,1/2-y,3/4+z
loop_
_atom_site_type_symbol
_atom_site_label
_atom_site_fract_x
_atom_site_fract_y
_atom_site_fract_z
Si Si1 0.133649 0.920177 0.517599
Si Si2 0.875000 0.375000 0.598676
Si Si3 0.375000 0.875000 0.375000
Si Si4 0.671766 0.299210 0.457203
Si Si5 0.897620 0.262915 0.660819
O O1 0.264076 0.904618 0.556090
O O2 0.093855 0.853375 0.491879
O O3 0.025131 0.954359 0.559052
O O4 0.159495 0.966038 0.460597
O O5 0.811145 0.321010 0.639090
O O6 0.464009 0.916631 0.418703
O O7 0.750000 0.250000 0.500000
O O8 0.579348 0.272192 0.403186
#
# Coordination Sequence:
#
# PCOD9516947 Si02
#       5
#    32  16   8  32  32
#     4  11  25  49  76 118 162 209 275 331 425 483
#     4  12  25  48  77 114 155 222 265 336 402 502
#     4  12  26  48  76 120 154 212 294 330 412 504
#     4  12  25  46  80 117 159 212 274 349 406 492
#     4  11  26  45  76 118 162 206 265 347 408 489
#
# _framework density 25.084509000000001
#
# number of rings (size 3 to 8) (size 9 to 14) (size 15 to 20)
#    0.000    0.533    5.333    1.600    0.000    4.267 
#    0.000    0.000    0.000    3.200    0.000    0.000 
#    0.000    0.000    0.000    0.000    0.000    0.000 
#
# Total GULP energy -168010.564864 kJ/mol
# GULP energy per Si atom -5600.352162 kJ/mol
# Density = 2.502742 g / cm^3
# Si number density = 25.084509 Si / 1000 Ang^3
#
#
#
# Elastic Constant Matrix: (Units=GPa)
#
#
# Indices 1 2 3 4 5 6 
#
# 1 86.7700 58.4641 67.2969 0.0000 0.0000 0.0000
# 2 58.4641 218.1976 126.2395 0.0000 0.0000 0.0000
# 3 67.2969 126.2395 209.5831 0.0000 0.0000 0.0000
# 4 0.0000 0.0000 0.0000 81.6446 0.0000 0.0000
# 5 0.0000 0.0000 0.0000 0.0000 53.9272 0.0000
# 6 0.0000 0.0000 0.0000 0.0000 0.0000 51.9820
#
#
#
# Elastic Compliance Matrix: (Units=1/GPa)
#
#
# Indices 1 2 3 4 5 6 
#
# 1 0.015898 -0.002005 -0.003897 0.000000 0.000000 0.000000
# 2 -0.002005 0.007287 -0.003746 0.000000 0.000000 0.000000
# 3 -0.003897 -0.003746 0.008279 0.000000 0.000000 0.000000
# 4 0.000000 0.000000 0.000000 0.012248 0.000000 0.000000
# 5 0.000000 0.000000 0.000000 0.000000 0.018544 0.000000
# 6 0.000000 0.000000 0.000000 0.000000 0.000000 0.019237
#
#
# Mechanical properties :
#
#
# Convention : Reuss Voigt Hill
#
# Bulk Modulus (GPa) = 82.17770 113.17242 97.67506
# Shear Modulus (GPa) = 47.68927 55.01410 51.35169
#
# Velocity S-wave (km/s) = 4.36494 4.68819 4.52945
# Velocity P-wave (km/s) = 7.63119 8.63249 8.14724
#
# Compressibility (1/GPa) = 0.01216875
#
# Stress axis : x y z
#
# Youngs Moduli (GPa) = 62.89994 137.22594 120.78974
#
# Poissons Ratio (x) = 0.27514 0.47074
# Poissons Ratio (y) = 0.12612 0.45243
# Poissons Ratio (z) = 0.24513 0.51399
#
# Static dielectric constant tensor:
#      x y z
#    x 1.979420 0.000000 0.000000 
#    y 0.000000 2.096830 0.000000 
#    z 0.000000 0.000000 2.035310 
# 
# From -- ./inp_files/34642.got.cif
#   From: 2010.05.17/outbox.cif.g08.bks.cpg/sg70_18_cif.got.tgz:34642.got - 2010.06.03 15:57:51.
