data_PCOD9516793
_publ_section_title
;
Structure prediction by ZEFSAII (Michael W. Deem and Ramdas Pophale) SiO2 
 PCOD9516793
Probable space group: F D D D
;
_chemical_formula_sum "Si O2"
_cell_formula_units_Z 96
_cell_length_a 12.032273
_cell_length_b 21.399044
_cell_length_c 16.461480
_cell_angle_alpha 90.000000
_cell_angle_beta 90.000000
_cell_angle_gamma 90.000000
_cell_volume 4238.487703
_symmetry_space_group_name_H-M "F D D D"
_symmetry_group_IT_number 70
_space_group.IT_coordinate_system_code '2'
_symmetry_cell_setting 'orthorhombic'
loop_
_space_group_symop_operation_xyz
x,y,z
1/4-x,1/4-y,z
x,1/4-y,1/4-z
1/4-x,y,1/4-z
-x,-y,-z
3/4+x,3/4+y,-z
-x,3/4+y,3/4+z
3/4+x,-y,3/4+z
x,1/2+y,1/2+z
1/4-x,3/4-y,1/2+z
x,3/4-y,3/4-z
1/4-x,1/2+y,3/4-z
-x,1/2-y,1/2-z
3/4+x,1/4+y,1/2-z
-x,1/4+y,1/4+z
3/4+x,1/2-y,1/4+z
1/2+x,y,1/2+z
3/4-x,1/4-y,1/2+z
1/2+x,1/4-y,3/4-z
3/4-x,y,3/4-z
1/2-x,-y,1/2-z
1/4+x,3/4+y,1/2-z
1/2-x,3/4+y,1/4+z
1/4+x,-y,1/4+z
1/2+x,1/2+y,z
3/4-x,3/4-y,z
1/2+x,3/4-y,1/4-z
3/4-x,1/2+y,1/4-z
1/2-x,1/2-y,-z
1/4+x,1/4+y,-z
1/2-x,1/4+y,3/4+z
1/4+x,1/2-y,3/4+z
loop_
_atom_site_type_symbol
_atom_site_label
_atom_site_fract_x
_atom_site_fract_y
_atom_site_fract_z
Si Si1 0.247825 0.603575 0.736702
Si Si2 0.493524 0.992627 0.625943
Si Si3 0.878480 0.521170 0.971205
O O1 0.125000 0.625000 0.709703
O O2 0.217058 0.563838 0.816622
O O3 0.296921 0.556198 0.668942
O O4 0.333453 0.658203 0.761125
O O5 0.625000 0.996863 0.625000
O O6 0.451658 0.983970 0.716942
O O7 0.875000 0.510210 0.875000
O O8 0.000000 0.500000 0.000000
#
# Coordination Sequence:
#
# PCOD9516793 Si02
#       3
#    32  32  32
#     4  11  23  46  79 109 148 208 271 317 379 477
#     4  11  24  44  80 110 147 210 271 315 384 481
#     4  12  27  48  74 115 162 198 256 335 407 462
#
# _framework density 22.649588000000001
#
# number of rings (size 3 to 8) (size 9 to 14) (size 15 to 20)
#    0.000    0.667    3.333    4.000    4.667    0.000 
#    6.000    0.000    0.000    0.000    0.000    0.000 
#    0.000    0.000    0.000    0.000    0.000    0.000 
#
# Total GULP energy -134096.090579 kJ/mol
# GULP energy per Si atom -5587.337107 kJ/mol
# Density = 2.259804 g / cm^3
# Si number density = 22.649588 Si / 1000 Ang^3
#
#
#
# Elastic Constant Matrix: (Units=GPa)
#
#
# Indices 1 2 3 4 5 6 
#
# 1 144.3877 43.7862 78.5442 0.0000 0.0000 0.0000
# 2 43.7862 96.9609 56.7447 0.0000 0.0000 0.0000
# 3 78.5442 56.7447 259.6300 0.0000 0.0000 0.0000
# 4 0.0000 0.0000 0.0000 7.8221 0.0000 0.0000
# 5 0.0000 0.0000 0.0000 0.0000 42.6992 0.0000
# 6 0.0000 0.0000 0.0000 0.0000 0.0000 39.1166
#
#
#
# Elastic Compliance Matrix: (Units=1/GPa)
#
#
# Indices 1 2 3 4 5 6 
#
# 1 0.008909 -0.002805 -0.002082 0.000000 0.000000 0.000000
# 2 -0.002805 0.012709 -0.001929 0.000000 0.000000 0.000000
# 3 -0.002082 -0.001929 0.004903 0.000000 0.000000 0.000000
# 4 0.000000 0.000000 0.000000 0.127843 0.000000 0.000000
# 5 0.000000 0.000000 0.000000 0.000000 0.023420 0.000000
# 6 0.000000 0.000000 0.000000 0.000000 0.000000 0.025565
#
#
# Mechanical properties :
#
#
# Convention : Reuss Voigt Hill
#
# Bulk Modulus (GPa) = 77.58473 95.45876 86.52174
# Shear Modulus (GPa) = 22.59616 39.38783 30.99200
#
# Velocity S-wave (km/s) = 3.16197 4.17467 3.70310
# Velocity P-wave (km/s) = 6.90359 8.09163 7.52110
#
# Compressibility (1/GPa) = 0.01288913
#
# Stress axis : x y z
#
# Youngs Moduli (GPa) = 112.24618 78.68442 203.94844
#
# Poissons Ratio (x) = 0.22068 0.42466
# Poissons Ratio (y) = 0.31481 0.39346
# Poissons Ratio (z) = 0.23372 0.15180
#
# Static dielectric constant tensor:
#      x y z
#    x 1.835060 0.000000 0.000000 
#    y 0.000000 1.944350 0.000000 
#    z 0.000000 0.000000 1.857320 
# 
# From -- ./inp_files/15821.got.cif
#   From: 2010.05.17/outbox.cif.g08.bks.cpg/sg70_8_cif.got.tgz:15821.got - 2010.06.03 15:57:51.
