data_PCOD9516808
_publ_section_title
;
Structure prediction by ZEFSAII (Michael W. Deem and Ramdas Pophale) SiO2 
 PCOD9516808
Probable space group: F D D D
;
_chemical_formula_sum "Si O2"
_cell_formula_units_Z 184
_cell_length_a 25.046513
_cell_length_b 15.674032
_cell_length_c 20.200195
_cell_angle_alpha 90.000000
_cell_angle_beta 90.000000
_cell_angle_gamma 90.000000
_cell_volume 7930.189447
_symmetry_space_group_name_H-M "F D D D"
_symmetry_group_IT_number 70
_space_group.IT_coordinate_system_code '2'
_symmetry_cell_setting 'orthorhombic'
loop_
_space_group_symop_operation_xyz
x,y,z
1/4-x,1/4-y,z
x,1/4-y,1/4-z
1/4-x,y,1/4-z
-x,-y,-z
3/4+x,3/4+y,-z
-x,3/4+y,3/4+z
3/4+x,-y,3/4+z
x,1/2+y,1/2+z
1/4-x,3/4-y,1/2+z
x,3/4-y,3/4-z
1/4-x,1/2+y,3/4-z
-x,1/2-y,1/2-z
3/4+x,1/4+y,1/2-z
-x,1/4+y,1/4+z
3/4+x,1/2-y,1/4+z
1/2+x,y,1/2+z
3/4-x,1/4-y,1/2+z
1/2+x,1/4-y,3/4-z
3/4-x,y,3/4-z
1/2-x,-y,1/2-z
1/4+x,3/4+y,1/2-z
1/2-x,3/4+y,1/4+z
1/4+x,-y,1/4+z
1/2+x,1/2+y,z
3/4-x,3/4-y,z
1/2+x,3/4-y,1/4-z
3/4-x,1/2+y,1/4-z
1/2-x,1/2-y,-z
1/4+x,1/4+y,-z
1/2-x,1/4+y,3/4+z
1/4+x,1/2-y,3/4+z
loop_
_atom_site_type_symbol
_atom_site_label
_atom_site_fract_x
_atom_site_fract_y
_atom_site_fract_z
Si Si1 0.292182 0.897903 0.476471
Si Si2 0.921494 0.048972 0.419797
Si Si3 0.625000 0.625000 0.916721
Si Si4 0.112698 0.010772 0.802498
Si Si5 0.254163 0.333466 0.236917
Si Si6 0.471919 0.375000 0.375000
Si Si7 0.625000 0.125000 0.625000
Si Si8 0.210973 0.375000 0.875000
O O1 0.324205 0.855797 0.536620
O O2 0.337628 0.926768 0.424083
O O3 0.251305 0.841542 0.432807
O O4 0.264124 0.985807 0.494987
O O5 0.875000 0.089774 0.375000
O O6 0.970626 0.112929 0.433617
O O7 0.897286 0.021104 0.491038
O O8 0.938608 0.962738 0.380980
O O9 0.640810 0.549129 0.867406
O O10 0.067689 0.078689 0.776955
O O11 0.076559 0.937829 0.835221
O O12 0.245006 0.375399 0.307914
#
# Coordination Sequence:
#
# PCOD9516808 Si02
#       8
#    32  32  16  32  32  16   8  16
#     4   9  21  41  63  98 131 176 223 289 349 427
#     4  12  27  46  72  99 140 192 237 298 366 432
#     4  11  24  37  69  98 137 182 230 286 365 430
#     4  11  25  44  69 102 140 185 240 293 363 432
#     4  11  26  41  69  99 135 182 241 289 356 432
#     4  12  25  47  66  96 142 180 234 301 355 416
#     4   8  16  40  64  82 134 168 210 280 346 398
#     4   9  22  44  66  97 142 179 228 296 356 423
#
# _framework density 23.202473000000001
#
# number of rings (size 3 to 8) (size 9 to 14) (size 15 to 20)
#    0.000    1.391    1.739    1.826    8.522    0.696 
#    0.000    0.000    0.000    0.000    0.000    0.000 
#    0.000    0.000    0.000    0.000    0.000    0.000 
#
# Total GULP energy -256674.697543 kJ/mol
# GULP energy per Si atom -5579.884729 kJ/mol
# Density = 2.314966 g / cm^3
# Si number density = 23.202473 Si / 1000 Ang^3
#
#
#
# Elastic Constant Matrix: (Units=GPa)
#
#
# Indices 1 2 3 4 5 6 
#
# 1 55.5408 7.9901 22.5406 0.0000 0.0000 0.0000
# 2 7.9901 26.9057 7.2241 0.0000 0.0000 0.0000
# 3 22.5406 7.2241 111.6203 0.0000 0.0000 0.0000
# 4 0.0000 0.0000 0.0000 28.3583 0.0000 0.0000
# 5 0.0000 0.0000 0.0000 0.0000 412.3608 0.0000
# 6 0.0000 0.0000 0.0000 0.0000 0.0000 29.1154
#
#
#
# Elastic Compliance Matrix: (Units=1/GPa)
#
#
# Indices 1 2 3 4 5 6 
#
# 1 0.020253 -0.005003 -0.003766 0.000000 0.000000 0.000000
# 2 -0.005003 0.039060 -0.001518 0.000000 0.000000 0.000000
# 3 -0.003766 -0.001518 0.009818 0.000000 0.000000 0.000000
# 4 0.000000 0.000000 0.000000 0.035263 0.000000 0.000000
# 5 0.000000 0.000000 0.000000 0.000000 0.002425 0.000000
# 6 0.000000 0.000000 0.000000 0.000000 0.000000 0.034346
#
#
# Mechanical properties :
#
#
# Convention : Reuss Voigt Hill
#
# Bulk Modulus (GPa) = 20.59442 29.95294 25.27368
# Shear Modulus (GPa) = 28.10179 104.38770 66.24474
#
# Velocity S-wave (km/s) = 3.48394 6.71473 5.34908
# Velocity P-wave (km/s) = 5.00790 8.54717 7.00475
#
# Compressibility (1/GPa) = 0.04855684
#
# Stress axis : x y z
#
# Youngs Moduli (GPa) = 49.37541 25.60154 101.85693
#
# Poissons Ratio (x) = 0.12809 0.38360
# Poissons Ratio (y) = 0.24704 0.15458
# Poissons Ratio (z) = 0.18595 0.03885
#
# Static dielectric constant tensor:
#      x y z
#    x 1.938710 0.000000 0.000000 
#    y 0.000000 1.949720 0.000000 
#    z 0.000000 0.000000 1.882130 
# 
# From -- ./inp_files/46919.got.cif
#   From: 2010.05.17/outbox.cif.g08.bks.cpg/sg70_24_cif.got.tgz:46919.got - 2010.06.03 15:57:51.
