data_PCOD9516241
_publ_section_title
;
Structure prediction by ZEFSAII (Michael W. Deem and Ramdas Pophale) SiO2 
 PCOD9516241
Probable space group: F D D D
;
_chemical_formula_sum "Si O2"
_cell_formula_units_Z 80
_cell_length_a 8.820240
_cell_length_b 18.400076
_cell_length_c 19.495585
_cell_angle_alpha 90.000000
_cell_angle_beta 90.000000
_cell_angle_gamma 90.000000
_cell_volume 3163.998660
_symmetry_space_group_name_H-M "F D D D"
_symmetry_group_IT_number 70
_space_group.IT_coordinate_system_code '2'
_symmetry_cell_setting 'orthorhombic'
loop_
_space_group_symop_operation_xyz
x,y,z
1/4-x,1/4-y,z
x,1/4-y,1/4-z
1/4-x,y,1/4-z
-x,-y,-z
3/4+x,3/4+y,-z
-x,3/4+y,3/4+z
3/4+x,-y,3/4+z
x,1/2+y,1/2+z
1/4-x,3/4-y,1/2+z
x,3/4-y,3/4-z
1/4-x,1/2+y,3/4-z
-x,1/2-y,1/2-z
3/4+x,1/4+y,1/2-z
-x,1/4+y,1/4+z
3/4+x,1/2-y,1/4+z
1/2+x,y,1/2+z
3/4-x,1/4-y,1/2+z
1/2+x,1/4-y,3/4-z
3/4-x,y,3/4-z
1/2-x,-y,1/2-z
1/4+x,3/4+y,1/2-z
1/2-x,3/4+y,1/4+z
1/4+x,-y,1/4+z
1/2+x,1/2+y,z
3/4-x,3/4-y,z
1/2+x,3/4-y,1/4-z
3/4-x,1/2+y,1/4-z
1/2-x,1/2-y,-z
1/4+x,1/4+y,-z
1/2-x,1/4+y,3/4+z
1/4+x,1/2-y,3/4+z
loop_
_atom_site_type_symbol
_atom_site_label
_atom_site_fract_x
_atom_site_fract_y
_atom_site_fract_z
Si Si1 0.625000 0.367422 0.125000
Si Si2 0.796069 0.523640 0.639524
Si Si3 0.052965 0.861782 0.771424
O O1 0.482566 0.312158 0.136910
O O2 0.648054 0.409436 0.195149
O O3 0.625000 0.550033 0.625000
O O4 0.896309 0.553175 0.577120
O O5 0.863971 0.562440 0.706565
O O6 0.875000 0.875000 0.774527
#
# Coordination Sequence:
#
# PCOD9516241 Si02
#       3
#    16  32  32
#     4  10  24  39  64  94 126 174 205 248 326 378
#     4   9  21  41  65  83 131 173 197 251 324 371
#     4  11  21  39  64  93 124 163 216 263 299 370
#
# _framework density 25.284458999999998
#
# number of rings (size 3 to 8) (size 9 to 14) (size 15 to 20)
#    1.200    0.800    0.000    6.000    0.000    4.800 
#    0.000    0.000    0.000    0.000    0.000    0.000 
#    0.000    0.000    0.000    0.000    0.000    0.000 
#
# Total GULP energy -111967.817711 kJ/mol
# GULP energy per Si atom -5598.390886 kJ/mol
# Density = 2.522691 g / cm^3
# Si number density = 25.284459 Si / 1000 Ang^3
#
#
#
# Elastic Constant Matrix: (Units=GPa)
#
#
# Indices 1 2 3 4 5 6 
#
# 1 148.6715 20.8860 46.0412 0.0000 0.0000 0.0000
# 2 20.8860 73.3188 -4.3844 0.0000 0.0000 0.0000
# 3 46.0412 -4.3844 176.8228 0.0000 0.0000 0.0000
# 4 0.0000 0.0000 0.0000 10.9220 0.0000 0.0000
# 5 0.0000 0.0000 0.0000 0.0000 35.3681 0.0000
# 6 0.0000 0.0000 0.0000 0.0000 0.0000 1.3822
#
#
#
# Elastic Compliance Matrix: (Units=1/GPa)
#
#
# Indices 1 2 3 4 5 6 
#
# 1 0.007689 -0.002313 -0.002059 0.000000 0.000000 0.000000
# 2 -0.002313 0.014355 0.000958 0.000000 0.000000 0.000000
# 3 -0.002059 0.000958 0.006215 0.000000 0.000000 0.000000
# 4 0.000000 0.000000 0.000000 0.091558 0.000000 0.000000
# 5 0.000000 0.000000 0.000000 0.000000 0.028274 0.000000
# 6 0.000000 0.000000 0.000000 0.000000 0.000000 0.723494
#
#
# Mechanical properties :
#
#
# Convention : Reuss Voigt Hill
#
# Bulk Modulus (GPa) = 46.66215 58.21094 52.43654
# Shear Modulus (GPa) = 5.64616 31.95248 18.79932
#
# Velocity S-wave (km/s) = 1.49596 3.55874 2.72970
# Velocity P-wave (km/s) = 4.63452 6.32128 5.54244
#
# Compressibility (1/GPa) = 0.02143065
#
# Stress axis : x y z
#
# Youngs Moduli (GPa) = 130.05555 69.66013 160.89128
#
# Poissons Ratio (x) = 0.16116 0.33134
# Poissons Ratio (y) = 0.30088 -0.15419
# Poissons Ratio (z) = 0.26784 -0.06676
#
# Static dielectric constant tensor:
#      x y z
#    x 1.884150 0.000000 0.000000 
#    y 0.000000 2.058220 0.000000 
#    z 0.000000 0.000000 1.991780 
# 
# From -- ./inp_files/6864.got.cif
#   From: 2010.05.17/outbox.cif.g08.bks.cpg/sg70_4_cif.got.tgz:6864.got - 2010.06.03 15:57:51.
