data_PCOD9516422
_publ_section_title
;
Structure prediction by ZEFSAII (Michael W. Deem and Ramdas Pophale) SiO2 
 PCOD9516422
Probable space group: F D D D
;
_chemical_formula_sum "Si O2"
_cell_formula_units_Z 64
_cell_length_a 14.277651
_cell_length_b 9.152815
_cell_length_c 19.950059
_cell_angle_alpha 90.000000
_cell_angle_beta 90.000000
_cell_angle_gamma 90.000000
_cell_volume 2607.087640
_symmetry_space_group_name_H-M "F D D D"
_symmetry_group_IT_number 70
_space_group.IT_coordinate_system_code '2'
_symmetry_cell_setting 'orthorhombic'
loop_
_space_group_symop_operation_xyz
x,y,z
1/4-x,1/4-y,z
x,1/4-y,1/4-z
1/4-x,y,1/4-z
-x,-y,-z
3/4+x,3/4+y,-z
-x,3/4+y,3/4+z
3/4+x,-y,3/4+z
x,1/2+y,1/2+z
1/4-x,3/4-y,1/2+z
x,3/4-y,3/4-z
1/4-x,1/2+y,3/4-z
-x,1/2-y,1/2-z
3/4+x,1/4+y,1/2-z
-x,1/4+y,1/4+z
3/4+x,1/2-y,1/4+z
1/2+x,y,1/2+z
3/4-x,1/4-y,1/2+z
1/2+x,1/4-y,3/4-z
3/4-x,y,3/4-z
1/2-x,-y,1/2-z
1/4+x,3/4+y,1/2-z
1/2-x,3/4+y,1/4+z
1/4+x,-y,1/4+z
1/2+x,1/2+y,z
3/4-x,3/4-y,z
1/2+x,3/4-y,1/4-z
3/4-x,1/2+y,1/4-z
1/2-x,1/2-y,-z
1/4+x,1/4+y,-z
1/2-x,1/4+y,3/4+z
1/4+x,1/2-y,3/4+z
loop_
_atom_site_type_symbol
_atom_site_label
_atom_site_fract_x
_atom_site_fract_y
_atom_site_fract_z
Si Si1 0.976433 0.125000 0.125000
Si Si2 0.801550 0.095117 0.195235
Si Si3 0.375000 0.875000 0.478018
O O1 0.902309 0.032960 0.168695
O O2 0.046293 0.194889 0.178862
O O3 0.748558 0.125000 0.125000
O O4 0.828866 0.249210 0.228463
O O5 0.750000 0.000000 0.250000
#
# Coordination Sequence:
#
# PCOD9516422 Si02
#       3
#    16  32  16
#     4   9  24  44  76 107 152 208 268 329 412 471
#     4  10  25  45  76 118 159 205 274 333 414 490
#     4  11  22  46  78 110 157 214 274 334 417 492
#
# _framework density 24.548465
#
# number of rings (size 3 to 8) (size 9 to 14) (size 15 to 20)
#    1.500    0.500    0.000    1.500    7.000    2.000 
#    0.000    2.500    0.000    0.000    0.000    0.000 
#    0.000    0.000    0.000    0.000    0.000    0.000 
#
# Total GULP energy -89227.679487 kJ/mol
# GULP energy per Si atom -5576.729968 kJ/mol
# Density = 2.449259 g / cm^3
# Si number density = 24.548465 Si / 1000 Ang^3
#
#
#
# Elastic Constant Matrix: (Units=GPa)
#
#
# Indices 1 2 3 4 5 6 
#
# 1 122.2567 53.6812 95.7157 0.0000 0.0000 0.0000
# 2 53.6812 146.5299 102.6262 0.0000 0.0000 0.0000
# 3 95.7157 102.6262 258.3839 0.0000 0.0000 0.0000
# 4 0.0000 0.0000 0.0000 22.3720 0.0000 0.0000
# 5 0.0000 0.0000 0.0000 0.0000 22.0106 0.0000
# 6 0.0000 0.0000 0.0000 0.0000 0.0000 25.3579
#
#
#
# Elastic Compliance Matrix: (Units=1/GPa)
#
#
# Indices 1 2 3 4 5 6 
#
# 1 0.011837 -0.001753 -0.003689 0.000000 0.000000 0.000000
# 2 -0.001753 0.009714 -0.003209 0.000000 0.000000 0.000000
# 3 -0.003689 -0.003209 0.006511 0.000000 0.000000 0.000000
# 4 0.000000 0.000000 0.000000 0.044699 0.000000 0.000000
# 5 0.000000 0.000000 0.000000 0.000000 0.045433 0.000000
# 6 0.000000 0.000000 0.000000 0.000000 0.000000 0.039435
#
#
# Mechanical properties :
#
#
# Convention : Reuss Voigt Hill
#
# Bulk Modulus (GPa) = 92.92632 114.57964 103.75298
# Shear Modulus (GPa) = 28.00842 32.29126 30.14984
#
# Velocity S-wave (km/s) = 3.38145 3.63079 3.50834
# Velocity P-wave (km/s) = 7.29260 8.02204 7.66600
#
# Compressibility (1/GPa) = 0.01076121
#
# Stress axis : x y z
#
# Youngs Moduli (GPa) = 84.47985 102.94142 153.58203
#
# Poissons Ratio (x) = 0.18047 0.56651
# Poissons Ratio (y) = 0.14810 0.49284
# Poissons Ratio (z) = 0.31162 0.33033
#
# Static dielectric constant tensor:
#      x y z
#    x 2.151050 0.000000 0.000000 
#    y 0.000000 2.072670 0.000000 
#    z 0.000000 0.000000 2.008970 
# 
# From -- ./inp_files/5740.got.cif
#   From: 2010.05.17/outbox.cif.g08.bks.cpg/sg70_3_cif.got.tgz:5740.got - 2010.06.03 15:57:51.
