data_PCOD9516781
_publ_section_title
;
Structure prediction by ZEFSAII (Michael W. Deem and Ramdas Pophale) SiO2 
 PCOD9516781
Probable space group: F D D D
;
_chemical_formula_sum "Si O2"
_cell_formula_units_Z 192
_cell_length_a 19.137878
_cell_length_b 31.898630
_cell_length_c 15.236450
_cell_angle_alpha 90.000000
_cell_angle_beta 90.000000
_cell_angle_gamma 90.000000
_cell_volume 9301.427465
_symmetry_space_group_name_H-M "F D D D"
_symmetry_group_IT_number 70
_space_group.IT_coordinate_system_code '2'
_symmetry_cell_setting 'orthorhombic'
loop_
_space_group_symop_operation_xyz
x,y,z
1/4-x,1/4-y,z
x,1/4-y,1/4-z
1/4-x,y,1/4-z
-x,-y,-z
3/4+x,3/4+y,-z
-x,3/4+y,3/4+z
3/4+x,-y,3/4+z
x,1/2+y,1/2+z
1/4-x,3/4-y,1/2+z
x,3/4-y,3/4-z
1/4-x,1/2+y,3/4-z
-x,1/2-y,1/2-z
3/4+x,1/4+y,1/2-z
-x,1/4+y,1/4+z
3/4+x,1/2-y,1/4+z
1/2+x,y,1/2+z
3/4-x,1/4-y,1/2+z
1/2+x,1/4-y,3/4-z
3/4-x,y,3/4-z
1/2-x,-y,1/2-z
1/4+x,3/4+y,1/2-z
1/2-x,3/4+y,1/4+z
1/4+x,-y,1/4+z
1/2+x,1/2+y,z
3/4-x,3/4-y,z
1/2+x,3/4-y,1/4-z
3/4-x,1/2+y,1/4-z
1/2-x,1/2-y,-z
1/4+x,1/4+y,-z
1/2-x,1/4+y,3/4+z
1/4+x,1/2-y,3/4+z
loop_
_atom_site_type_symbol
_atom_site_label
_atom_site_fract_x
_atom_site_fract_y
_atom_site_fract_z
Si Si1 0.802604 0.641428 0.782688
Si Si2 0.347150 0.416536 0.474697
Si Si3 0.183497 0.785539 0.398713
Si Si4 0.090392 0.375000 0.375000
Si Si5 0.125000 0.318855 0.625000
Si Si6 0.554314 0.274549 0.644291
Si Si7 0.166897 0.996289 0.772849
O O1 0.734266 0.654919 0.727567
O O2 0.861925 0.632806 0.710506
O O3 0.811617 0.601117 0.848271
O O4 0.809231 0.682208 0.842549
O O5 0.375000 0.417858 0.375000
O O6 0.375000 0.375000 0.522925
O O7 0.379827 0.458528 0.514833
O O8 0.200461 0.831843 0.364558
O O9 0.237433 0.751150 0.364187
O O10 0.194976 0.784066 0.502629
O O11 0.105348 0.772912 0.367282
O O12 0.121194 0.286115 0.706029
O O13 0.625000 0.249329 0.625000
O O14 0.250000 0.000000 0.750000
#
# Coordination Sequence:
#
# PCOD9516781 Si02
#       7
#    32  32  32  16  16  32  32
#     4  12  23  42  69 103 137 192 240 290 369 446
#     4  11  24  42  64  98 143 190 231 290 372 448
#     4  11  25  43  70 103 137 189 243 297 362 448
#     4  12  22  40  72 104 136 176 238 302 358 442
#     4  12  24  42  67 102 144 187 234 302 364 456
#     4  11  23  45  72  95 138 187 245 296 354 436
#     4  12  26  43  68 109 148 184 241 312 385 445
#
# _framework density 20.641991999999998
#
# number of rings (size 3 to 8) (size 9 to 14) (size 15 to 20)
#    0.000    0.500    6.667    2.000    2.333    1.333 
#    0.000    0.417    0.000    0.000    0.000    0.000 
#    0.000    0.000    0.000    0.000    0.000    0.000 
#
# Total GULP energy -267275.075225 kJ/mol
# GULP energy per Si atom -5568.230734 kJ/mol
# Density = 2.059501 g / cm^3
# Si number density = 20.641992 Si / 1000 Ang^3
#
#
#
# Elastic Constant Matrix: (Units=GPa)
#
#
# Indices 1 2 3 4 5 6 
#
# 1 88.9093 51.3129 29.7850 0.0000 0.0000 0.0000
# 2 51.3129 180.9398 40.4509 0.0000 0.0000 0.0000
# 3 29.7850 40.4509 74.0309 0.0000 0.0000 0.0000
# 4 0.0000 0.0000 0.0000 21.3268 0.0000 0.0000
# 5 0.0000 0.0000 0.0000 0.0000 31.3636 0.0000
# 6 0.0000 0.0000 0.0000 0.0000 0.0000 -47.3253
#
#
#
# Elastic Compliance Matrix: (Units=1/GPa)
#
#
# Indices 1 2 3 4 5 6 
#
# 1 0.014452 -0.003188 -0.004072 0.000000 0.000000 0.000000
# 2 -0.003188 0.006999 -0.002542 0.000000 0.000000 0.000000
# 3 -0.004072 -0.002542 0.016535 0.000000 0.000000 0.000000
# 4 0.000000 0.000000 0.000000 0.046889 0.000000 0.000000
# 5 0.000000 0.000000 0.000000 0.000000 0.031884 0.000000
# 6 0.000000 0.000000 0.000000 0.000000 0.000000 -0.021130
#
#
# Mechanical properties :
#
#
# Convention : Reuss Voigt Hill
#
# Bulk Modulus (GPa) = 54.40217 65.21976 59.81096
# Shear Modulus (GPa) = 41.19971 15.89510 28.54740
#
# Velocity S-wave (km/s) = 4.47242 2.77796 3.72287
# Velocity P-wave (km/s) = 7.28576 6.47717 6.89333
#
# Compressibility (1/GPa) = 0.01838162
#
# Stress axis : x y z
#
# Youngs Moduli (GPa) = 69.19671 142.87797 60.47720
#
# Poissons Ratio (x) = 0.45548 0.24629
# Poissons Ratio (y) = 0.22059 0.15371
# Poissons Ratio (z) = 0.28180 0.36315
#
# Static dielectric constant tensor:
#      x y z
#    x 1.982670 0.000000 0.000000 
#    y 0.000000 1.795090 0.000000 
#    z 0.000000 0.000000 1.797380 
# 
# From -- ./inp_files/35510.got.cif
#   From: 2010.05.17/outbox.cif.g08.bks.cpg/sg70_18_cif.got.tgz:35510.got - 2010.06.03 15:57:51.
