data_PCOD9516706
_publ_section_title
;
Structure prediction by ZEFSAII (Michael W. Deem and Ramdas Pophale) SiO2 
 PCOD9516706
Probable space group: F D D D
;
_chemical_formula_sum "Si O2"
_cell_formula_units_Z 80
_cell_length_a 16.050176
_cell_length_b 26.189631
_cell_length_c 8.103732
_cell_angle_alpha 90.000000
_cell_angle_beta 90.000000
_cell_angle_gamma 90.000000
_cell_volume 3406.389054
_symmetry_space_group_name_H-M "F D D D"
_symmetry_group_IT_number 70
_space_group.IT_coordinate_system_code '2'
_symmetry_cell_setting 'orthorhombic'
loop_
_space_group_symop_operation_xyz
x,y,z
1/4-x,1/4-y,z
x,1/4-y,1/4-z
1/4-x,y,1/4-z
-x,-y,-z
3/4+x,3/4+y,-z
-x,3/4+y,3/4+z
3/4+x,-y,3/4+z
x,1/2+y,1/2+z
1/4-x,3/4-y,1/2+z
x,3/4-y,3/4-z
1/4-x,1/2+y,3/4-z
-x,1/2-y,1/2-z
3/4+x,1/4+y,1/2-z
-x,1/4+y,1/4+z
3/4+x,1/2-y,1/4+z
1/2+x,y,1/2+z
3/4-x,1/4-y,1/2+z
1/2+x,1/4-y,3/4-z
3/4-x,y,3/4-z
1/2-x,-y,1/2-z
1/4+x,3/4+y,1/2-z
1/2-x,3/4+y,1/4+z
1/4+x,-y,1/4+z
1/2+x,1/2+y,z
3/4-x,3/4-y,z
1/2+x,3/4-y,1/4-z
3/4-x,1/2+y,1/4-z
1/2-x,1/2-y,-z
1/4+x,1/4+y,-z
1/2-x,1/4+y,3/4+z
1/4+x,1/2-y,3/4+z
loop_
_atom_site_type_symbol
_atom_site_label
_atom_site_fract_x
_atom_site_fract_y
_atom_site_fract_z
Si Si1 0.597351 0.260047 0.285134
Si Si2 0.375000 0.569024 0.875000
Si Si3 0.801016 0.404203 0.053101
O O1 0.500000 0.250000 0.250000
O O2 0.609730 0.286446 0.459687
O O3 0.658927 0.210653 0.284502
O O4 0.625000 0.292053 0.125000
O O5 0.286919 0.596981 0.857984
O O6 0.875000 0.375000 0.144416
O O7 0.790022 0.375000 0.875000
#
# Coordination Sequence:
#
# PCOD9516706 Si02
#       3
#    32  16  32
#     4  12  23  45  79 102 148 188 245 302 364 433
#     4  12  26  46  79 110 138 198 258 286 375 450
#     4  11  22  48  69 103 151 189 234 307 369 424
#
# _framework density 23.485279999999999
#
# number of rings (size 3 to 8) (size 9 to 14) (size 15 to 20)
#    0.000    0.400    8.000    1.200    0.000    0.000 
#   14.400    1.000    0.000    0.000    0.000    0.000 
#    0.000    0.000    0.000    0.000    0.000    0.000 
#
# Total GULP energy -111650.197638 kJ/mol
# GULP energy per Si atom -5582.509882 kJ/mol
# Density = 2.343183 g / cm^3
# Si number density = 23.485280 Si / 1000 Ang^3
#
#
#
# Elastic Constant Matrix: (Units=GPa)
#
#
# Indices 1 2 3 4 5 6 
#
# 1 298.8339 57.0072 71.6348 0.0000 -0.0001 0.0000
# 2 57.0072 71.2449 20.6187 0.0000 0.0000 0.0000
# 3 71.6348 20.6187 151.3731 0.0000 -0.0001 0.0000
# 4 0.0000 0.0000 0.0000 28.4406 0.0000 0.0000
# 5 -0.0001 0.0000 -0.0001 0.0000 55.0110 0.0000
# 6 0.0000 0.0000 0.0000 0.0000 0.0000 37.6625
#
#
#
# Elastic Compliance Matrix: (Units=1/GPa)
#
#
# Indices 1 2 3 4 5 6 
#
# 1 0.004305 -0.002972 -0.001632 0.000000 0.000000 0.000000
# 2 -0.002972 0.016664 -0.000863 0.000000 0.000000 0.000000
# 3 -0.001632 -0.000863 0.007496 0.000000 0.000000 0.000000
# 4 0.000000 0.000000 0.000000 0.035161 0.000000 0.000000
# 5 0.000000 0.000000 0.000000 0.000000 0.018178 0.000000
# 6 0.000000 0.000000 0.000000 0.000000 0.000000 0.026552
#
#
# Mechanical properties :
#
#
# Convention : Reuss Voigt Hill
#
# Bulk Modulus (GPa) = 57.04636 91.10814 74.07725
# Shear Modulus (GPa) = 39.95717 49.03557 44.49637
#
# Velocity S-wave (km/s) = 4.12924 4.57434 4.35748
# Velocity P-wave (km/s) = 6.86128 8.17174 7.54502
#
# Compressibility (1/GPa) = 0.01752960
#
# Stress axis : x y z
#
# Youngs Moduli (GPa) = 232.31182 60.00961 133.40034
#
# Poissons Ratio (x) = 0.17835 0.21774
# Poissons Ratio (y) = 0.69042 0.11518
# Poissons Ratio (z) = 0.37919 0.05181
#
# Static dielectric constant tensor:
#      x y z
#    x 1.907330 0.000000 0.000000 
#    y 0.000000 2.025460 0.000000 
#    z 0.000000 0.000000 1.874150 
# 
# From -- ./inp_files/6792.got.cif
#   From: 2010.05.17/outbox.cif.g08.bks.cpg/sg70_4_cif.got.tgz:6792.got - 2010.06.03 15:57:51.
