data_PCOD9516465
_publ_section_title
;
Structure prediction by ZEFSAII (Michael W. Deem and Ramdas Pophale) SiO2 
 PCOD9516465
Probable space group: F D D D
;
_chemical_formula_sum "Si O2"
_cell_formula_units_Z 176
_cell_length_a 29.107949
_cell_length_b 12.444225
_cell_length_c 23.415148
_cell_angle_alpha 90.000000
_cell_angle_beta 90.000000
_cell_angle_gamma 90.000000
_cell_volume 8481.572277
_symmetry_space_group_name_H-M "F D D D"
_symmetry_group_IT_number 70
_space_group.IT_coordinate_system_code '2'
_symmetry_cell_setting 'orthorhombic'
loop_
_space_group_symop_operation_xyz
x,y,z
1/4-x,1/4-y,z
x,1/4-y,1/4-z
1/4-x,y,1/4-z
-x,-y,-z
3/4+x,3/4+y,-z
-x,3/4+y,3/4+z
3/4+x,-y,3/4+z
x,1/2+y,1/2+z
1/4-x,3/4-y,1/2+z
x,3/4-y,3/4-z
1/4-x,1/2+y,3/4-z
-x,1/2-y,1/2-z
3/4+x,1/4+y,1/2-z
-x,1/4+y,1/4+z
3/4+x,1/2-y,1/4+z
1/2+x,y,1/2+z
3/4-x,1/4-y,1/2+z
1/2+x,1/4-y,3/4-z
3/4-x,y,3/4-z
1/2-x,-y,1/2-z
1/4+x,3/4+y,1/2-z
1/2-x,3/4+y,1/4+z
1/4+x,-y,1/4+z
1/2+x,1/2+y,z
3/4-x,3/4-y,z
1/2+x,3/4-y,1/4-z
3/4-x,1/2+y,1/4-z
1/2-x,1/2-y,-z
1/4+x,1/4+y,-z
1/2-x,1/4+y,3/4+z
1/4+x,1/2-y,3/4+z
loop_
_atom_site_type_symbol
_atom_site_label
_atom_site_fract_x
_atom_site_fract_y
_atom_site_fract_z
Si Si1 0.180702 0.819102 0.481462
Si Si2 0.143219 0.510339 0.251503
Si Si3 0.993696 0.125000 0.125000
Si Si4 0.125000 0.125000 0.931862
Si Si5 0.700907 0.751566 0.392488
Si Si6 0.718330 0.407486 0.147087
Si Si7 0.625000 0.461592 0.625000
O O1 0.141442 0.911521 0.486346
O O2 0.210623 0.847434 0.426846
O O3 0.155945 0.705155 0.470067
O O4 0.215249 0.821321 0.535122
O O5 0.125000 0.625000 0.272111
O O6 0.188703 0.495992 0.289835
O O7 0.143048 0.518847 0.182660
O O8 0.023396 0.230975 0.114871
O O9 0.157696 0.049944 0.892288
O O10 0.743699 0.677185 0.374238
O O11 0.708172 0.875000 0.375000
O O12 0.668243 0.361488 0.137948
#
# Coordination Sequence:
#
# PCOD9516465 Si02
#       7
#    32  32  16  16  32  32  16
#     4  11  24  43  69 105 143 183 229 307 358 432
#     4  11  22  41  69  96 137 181 233 283 360 431
#     4  12  22  41  70  98 140 180 228 291 360 416
#     4  12  22  42  74 104 142 180 238 290 374 430
#     4  12  24  41  72 109 133 179 242 297 352 435
#     4  11  27  44  68 102 140 181 243 290 371 430
#     4  10  27  47  62  94 140 197 231 298 364 432
#
# _framework density 20.750869000000002
#
# number of rings (size 3 to 8) (size 9 to 14) (size 15 to 20)
#    0.000    0.727    4.545    3.000    0.000    8.364 
#    0.000    0.000    0.000    0.000    0.000    0.000 
#    0.000    0.000    0.000    0.000    0.000    0.000 
#
# Total GULP energy -245567.918503 kJ/mol
# GULP energy per Si atom -5581.089057 kJ/mol
# Density = 2.070364 g / cm^3
# Si number density = 20.750869 Si / 1000 Ang^3
#
#
#
# Elastic Constant Matrix: (Units=GPa)
#
#
# Indices 1 2 3 4 5 6 
#
# 1 105.5444 43.9727 56.7365 0.0000 0.0000 0.0000
# 2 43.9727 160.0035 52.0818 0.0000 0.0000 0.0000
# 3 56.7365 52.0818 118.4930 0.0000 0.0000 0.0000
# 4 0.0000 0.0000 0.0000 23.8646 0.0000 0.0000
# 5 0.0000 0.0000 0.0000 0.0000 69.4100 0.0000
# 6 0.0000 0.0000 0.0000 0.0000 0.0000 225.0208
#
#
#
# Elastic Compliance Matrix: (Units=1/GPa)
#
#
# Indices 1 2 3 4 5 6 
#
# 1 0.013204 -0.001833 -0.005517 0.000000 0.000000 0.000000
# 2 -0.001833 0.007548 -0.002440 0.000000 0.000000 0.000000
# 3 -0.005517 -0.002440 0.012153 0.000000 0.000000 0.000000
# 4 0.000000 0.000000 0.000000 0.041903 0.000000 0.000000
# 5 0.000000 0.000000 0.000000 0.000000 0.014407 0.000000
# 6 0.000000 0.000000 0.000000 0.000000 0.000000 0.004444
#
#
# Mechanical properties :
#
#
# Convention : Reuss Voigt Hill
#
# Bulk Modulus (GPa) = 75.04168 76.62477 75.83323
# Shear Modulus (GPa) = 42.48816 79.07575 60.78196
#
# Velocity S-wave (km/s) = 4.52988 6.17980 5.41801
# Velocity P-wave (km/s) = 7.97505 9.37689 8.70424
#
# Compressibility (1/GPa) = 0.01332593
#
# Stress axis : x y z
#
# Youngs Moduli (GPa) = 75.73544 132.48882 82.28347
#
# Poissons Ratio (x) = 0.24286 0.45392
# Poissons Ratio (y) = 0.13883 0.20076
# Poissons Ratio (z) = 0.41780 0.32325
#
# Static dielectric constant tensor:
#      x y z
#    x 1.732670 0.000000 0.000000 
#    y 0.000000 2.375210 0.000000 
#    z 0.000000 0.000000 1.794920 
# 
# From -- ./inp_files/55000.got.cif
#   From: 2010.05.17/outbox.cif.g08.bks.cpg/sg70_28_cif.got.tgz:55000.got - 2010.06.03 15:57:51.
