data_PCOD9516717
_publ_section_title
;
Structure prediction by ZEFSAII (Michael W. Deem and Ramdas Pophale) SiO2 
 PCOD9516717
Probable space group: F D D D
;
_chemical_formula_sum "Si O2"
_cell_formula_units_Z 240
_cell_length_a 16.339015
_cell_length_b 23.924964
_cell_length_c 26.284293
_cell_angle_alpha 90.000000
_cell_angle_beta 90.000000
_cell_angle_gamma 90.000000
_cell_volume 10274.802062
_symmetry_space_group_name_H-M "F D D D"
_symmetry_group_IT_number 70
_space_group.IT_coordinate_system_code '2'
_symmetry_cell_setting 'orthorhombic'
loop_
_space_group_symop_operation_xyz
x,y,z
1/4-x,1/4-y,z
x,1/4-y,1/4-z
1/4-x,y,1/4-z
-x,-y,-z
3/4+x,3/4+y,-z
-x,3/4+y,3/4+z
3/4+x,-y,3/4+z
x,1/2+y,1/2+z
1/4-x,3/4-y,1/2+z
x,3/4-y,3/4-z
1/4-x,1/2+y,3/4-z
-x,1/2-y,1/2-z
3/4+x,1/4+y,1/2-z
-x,1/4+y,1/4+z
3/4+x,1/2-y,1/4+z
1/2+x,y,1/2+z
3/4-x,1/4-y,1/2+z
1/2+x,1/4-y,3/4-z
3/4-x,y,3/4-z
1/2-x,-y,1/2-z
1/4+x,3/4+y,1/2-z
1/2-x,3/4+y,1/4+z
1/4+x,-y,1/4+z
1/2+x,1/2+y,z
3/4-x,3/4-y,z
1/2+x,3/4-y,1/4-z
3/4-x,1/2+y,1/4-z
1/2-x,1/2-y,-z
1/4+x,1/4+y,-z
1/2-x,1/4+y,3/4+z
1/4+x,1/2-y,3/4+z
loop_
_atom_site_type_symbol
_atom_site_label
_atom_site_fract_x
_atom_site_fract_y
_atom_site_fract_z
Si Si1 0.299176 0.680709 0.157458
Si Si2 0.016901 0.218619 0.022306
Si Si3 0.482754 0.162755 0.973925
Si Si4 0.930666 0.321195 0.266308
Si Si5 0.237541 0.460969 0.866257
Si Si6 0.555085 0.827066 0.174051
Si Si7 0.125000 0.125000 0.406968
Si Si8 0.014051 0.056655 0.342213
O O1 0.280089 0.625000 0.125000
O O2 0.286123 0.660319 0.215799
O O3 0.392819 0.699996 0.147045
O O4 0.251699 0.740221 0.146051
O O5 0.972850 0.277002 0.029597
O O6 0.114166 0.228139 0.013817
O O7 0.003395 0.190450 0.076384
O O8 0.995224 0.192816 0.968632
O O9 0.397013 0.165335 0.944167
O O10 0.548292 0.123871 0.946157
O O11 0.875000 0.375000 0.256798
O O12 0.964668 0.321220 0.322438
O O13 0.998225 0.317719 0.223656
O O14 0.277900 0.523316 0.859933
O O15 0.533183 0.885435 0.146150
O O16 0.102317 0.074449 0.367079
#
# Coordination Sequence:
#
# PCOD9516717 Si02
#       8
#    32  32  32  32  32  32  16  32
#     4  11  26  47  74 107 151 199 246 315 388 453
#     4  11  23  40  63 105 156 193 230 291 371 471
#     4  11  25  47  76 108 144 194 253 318 383 445
#     4  12  23  37  60 101 157 203 237 279 365 463
#     4  12  25  38  67 112 157 204 239 291 382 480
#     4  12  23  44  72 107 150 192 256 307 370 464
#     4  12  26  52  79 104 139 202 264 322 374 448
#     4  11  24  45  73 103 140 193 244 305 382 443
#
# _framework density 23.358114
#
# number of rings (size 3 to 8) (size 9 to 14) (size 15 to 20)
#    0.000    0.533    4.000    5.600    3.733    2.133 
#    0.000    1.000    5.867    0.000    0.000    0.000 
#    0.000    0.000    0.000    0.000    0.000    0.000 
#
# Total GULP energy -334208.474801 kJ/mol
# GULP energy per Si atom -5570.141247 kJ/mol
# Density = 2.330495 g / cm^3
# Si number density = 23.358114 Si / 1000 Ang^3
#
#
#
# Elastic Constant Matrix: (Units=GPa)
#
#
# Indices 1 2 3 4 5 6 
#
# 1 74.8817 5.0926 37.0075 0.0000 0.0000 0.0000
# 2 5.0926 143.0476 42.7398 0.0000 0.0000 0.0000
# 3 37.0075 42.7398 170.9802 0.0000 0.0000 0.0000
# 4 0.0000 0.0000 0.0000 31.8918 0.0000 0.0000
# 5 0.0000 0.0000 0.0000 0.0000 44.0171 0.0000
# 6 0.0000 0.0000 0.0000 0.0000 0.0000 9.7306
#
#
#
# Elastic Compliance Matrix: (Units=1/GPa)
#
#
# Indices 1 2 3 4 5 6 
#
# 1 0.014983 0.000471 -0.003361 0.000000 0.000000 0.000000
# 2 0.000471 0.007570 -0.001994 0.000000 0.000000 0.000000
# 3 -0.003361 -0.001994 0.007074 0.000000 0.000000 0.000000
# 4 0.000000 0.000000 0.000000 0.031356 0.000000 0.000000
# 5 0.000000 0.000000 0.000000 0.000000 0.022718 0.000000
# 6 0.000000 0.000000 0.000000 0.000000 0.000000 0.102768
#
#
# Mechanical properties :
#
#
# Convention : Reuss Voigt Hill
#
# Bulk Modulus (GPa) = 50.35416 62.06549 56.20983
# Shear Modulus (GPa) = 24.64776 37.39923 31.02349
#
# Velocity S-wave (km/s) = 3.25193 4.00575 3.64836
# Velocity P-wave (km/s) = 5.97531 6.92991 6.47024
#
# Compressibility (1/GPa) = 0.01985933
#
# Stress axis : x y z
#
# Youngs Moduli (GPa) = 66.74112 132.10540 141.35310
#
# Poissons Ratio (x) = -0.06218 0.47504
# Poissons Ratio (y) = -0.03141 0.28187
# Poissons Ratio (z) = 0.22430 0.26343
#
# Static dielectric constant tensor:
#      x y z
#    x 1.982720 0.000000 0.000000 
#    y 0.000000 2.034590 0.000000 
#    z 0.000000 0.000000 1.931840 
# 
# From -- ./inp_files/59808.got.cif
#   From: 2010.05.17/outbox.cif.g08.bks.cpg/sg70_30_cif.got.tgz:59808.got - 2010.06.03 15:57:51.
