data_PCOD9516368
_publ_section_title
;
Structure prediction by ZEFSAII (Michael W. Deem and Ramdas Pophale) SiO2 
 PCOD9516368
Probable space group: F D D D
;
_chemical_formula_sum "Si O2"
_cell_formula_units_Z 80
_cell_length_a 27.105071
_cell_length_b 12.105330
_cell_length_c 8.286938
_cell_angle_alpha 90.000000
_cell_angle_beta 90.000000
_cell_angle_gamma 90.000000
_cell_volume 2719.075533
_symmetry_space_group_name_H-M "F D D D"
_symmetry_group_IT_number 70
_space_group.IT_coordinate_system_code '2'
_symmetry_cell_setting 'orthorhombic'
loop_
_space_group_symop_operation_xyz
x,y,z
1/4-x,1/4-y,z
x,1/4-y,1/4-z
1/4-x,y,1/4-z
-x,-y,-z
3/4+x,3/4+y,-z
-x,3/4+y,3/4+z
3/4+x,-y,3/4+z
x,1/2+y,1/2+z
1/4-x,3/4-y,1/2+z
x,3/4-y,3/4-z
1/4-x,1/2+y,3/4-z
-x,1/2-y,1/2-z
3/4+x,1/4+y,1/2-z
-x,1/4+y,1/4+z
3/4+x,1/2-y,1/4+z
1/2+x,y,1/2+z
3/4-x,1/4-y,1/2+z
1/2+x,1/4-y,3/4-z
3/4-x,y,3/4-z
1/2-x,-y,1/2-z
1/4+x,3/4+y,1/2-z
1/2-x,3/4+y,1/4+z
1/4+x,-y,1/4+z
1/2+x,1/2+y,z
3/4-x,3/4-y,z
1/2+x,3/4-y,1/4-z
3/4-x,1/2+y,1/4-z
1/2-x,1/2-y,-z
1/4+x,1/4+y,-z
1/2-x,1/4+y,3/4+z
1/4+x,1/2-y,3/4+z
loop_
_atom_site_type_symbol
_atom_site_label
_atom_site_fract_x
_atom_site_fract_y
_atom_site_fract_z
Si Si1 0.321402 0.517878 0.308496
Si Si2 0.957917 0.805714 0.639871
Si Si3 0.125000 0.975163 0.125000
O O1 0.375000 0.480466 0.375000
O O2 0.290888 0.513977 0.474815
O O3 0.201923 0.569757 0.315278
O O4 0.335457 0.646097 0.282597
O O5 0.908339 0.785814 0.743940
O O6 0.000000 0.750000 0.750000
#
# Coordination Sequence:
#
# PCOD9516368 Si02
#       3
#    32  32  16
#     4   9  23  51  80 112 182 223 277 352 427 521
#     4  11  22  46  84 127 163 226 294 355 433 513
#     4  10  24  47  83 114 170 234 282 344 450 508
#
# _framework density 29.421765000000001
#
# number of rings (size 3 to 8) (size 9 to 14) (size 15 to 20)
#    1.200    0.800    0.000    3.600    0.000    1.600 
#   14.400   16.000    8.800    2.400    0.000    0.000 
#    0.000    0.000    0.000    0.000    0.000    0.000 
#
# Total GULP energy -111715.121106 kJ/mol
# GULP energy per Si atom -5585.756055 kJ/mol
# Density = 2.935480 g / cm^3
# Si number density = 29.421765 Si / 1000 Ang^3
#
#
#
# Elastic Constant Matrix: (Units=GPa)
#
#
# Indices 1 2 3 4 5 6 
#
# 1 211.2927 86.1049 141.0795 0.0000 0.0000 0.0000
# 2 86.1049 148.4403 114.6541 0.0000 0.0000 0.0000
# 3 141.0795 114.6541 275.5749 0.0000 0.0000 0.0000
# 4 0.0000 0.0000 0.0000 53.4136 0.0000 0.0000
# 5 0.0000 0.0000 0.0000 0.0000 80.3902 0.0000
# 6 0.0000 0.0000 0.0000 0.0000 0.0000 28.0659
#
#
#
# Elastic Compliance Matrix: (Units=1/GPa)
#
#
# Indices 1 2 3 4 5 6 
#
# 1 0.007598 -0.002067 -0.003030 0.000000 0.000000 0.000000
# 2 -0.002067 0.010489 -0.003306 0.000000 0.000000 0.000000
# 3 -0.003030 -0.003306 0.006555 0.000000 0.000000 0.000000
# 4 0.000000 0.000000 0.000000 0.018722 0.000000 0.000000
# 5 0.000000 0.000000 0.000000 0.000000 0.012439 0.000000
# 6 0.000000 0.000000 0.000000 0.000000 0.000000 0.035630
#
#
# Mechanical properties :
#
#
# Convention : Reuss Voigt Hill
#
# Bulk Modulus (GPa) = 127.59914 146.55390 137.07652
# Shear Modulus (GPa) = 45.10519 51.93858 48.52188
#
# Velocity S-wave (km/s) = 3.91967 4.20612 4.06542
# Velocity P-wave (km/s) = 7.99676 8.57369 8.29025
#
# Compressibility (1/GPa) = 0.00783704
#
# Stress axis : x y z
#
# Youngs Moduli (GPa) = 131.61061 95.33625 152.55022
#
# Poissons Ratio (x) = 0.19709 0.46219
# Poissons Ratio (y) = 0.27207 0.50429
# Poissons Ratio (z) = 0.39875 0.31516
#
# Static dielectric constant tensor:
#      x y z
#    x 2.378570 0.000000 0.000000 
#    y 0.000000 2.517060 0.000000 
#    z 0.000000 0.000000 2.263260 
# 
# From -- ./inp_files/18217.got.cif
#   From: 2010.05.17/outbox.cif.g08.bks.cpg/sg70_10_cif.got.tgz:18217.got - 2010.06.03 15:57:51.
