data_PCOD9516411
_publ_section_title
;
Structure prediction by ZEFSAII (Michael W. Deem and Ramdas Pophale) SiO2 
 PCOD9516411
Probable space group: F D D D
;
_chemical_formula_sum "Si O2"
_cell_formula_units_Z 192
_cell_length_a 25.504011
_cell_length_b 13.825473
_cell_length_c 27.463578
_cell_angle_alpha 90.000000
_cell_angle_beta 90.000000
_cell_angle_gamma 90.000000
_cell_volume 9683.795346
_symmetry_space_group_name_H-M "F D D D"
_symmetry_group_IT_number 70
_space_group.IT_coordinate_system_code '2'
_symmetry_cell_setting 'orthorhombic'
loop_
_space_group_symop_operation_xyz
x,y,z
1/4-x,1/4-y,z
x,1/4-y,1/4-z
1/4-x,y,1/4-z
-x,-y,-z
3/4+x,3/4+y,-z
-x,3/4+y,3/4+z
3/4+x,-y,3/4+z
x,1/2+y,1/2+z
1/4-x,3/4-y,1/2+z
x,3/4-y,3/4-z
1/4-x,1/2+y,3/4-z
-x,1/2-y,1/2-z
3/4+x,1/4+y,1/2-z
-x,1/4+y,1/4+z
3/4+x,1/2-y,1/4+z
1/2+x,y,1/2+z
3/4-x,1/4-y,1/2+z
1/2+x,1/4-y,3/4-z
3/4-x,y,3/4-z
1/2-x,-y,1/2-z
1/4+x,3/4+y,1/2-z
1/2-x,3/4+y,1/4+z
1/4+x,-y,1/4+z
1/2+x,1/2+y,z
3/4-x,3/4-y,z
1/2+x,3/4-y,1/4-z
3/4-x,1/2+y,1/4-z
1/2-x,1/2-y,-z
1/4+x,1/4+y,-z
1/2-x,1/4+y,3/4+z
1/4+x,1/2-y,3/4+z
loop_
_atom_site_type_symbol
_atom_site_label
_atom_site_fract_x
_atom_site_fract_y
_atom_site_fract_z
Si Si1 0.625000 0.625000 0.189387
Si Si2 0.519058 0.040680 0.660710
Si Si3 0.318953 0.712142 0.735515
Si Si4 0.375000 0.875000 0.077337
Si Si5 0.071845 0.231373 0.598994
Si Si6 0.029204 0.610513 0.857747
Si Si7 0.059715 0.009590 0.983023
O O1 0.580665 0.560670 0.163660
O O2 0.591705 0.695368 0.223134
O O3 0.496851 0.125000 0.625000
O O4 0.490630 0.035938 0.713314
O O5 0.504515 0.943512 0.633905
O O6 0.351212 0.787134 0.703184
O O7 0.328138 0.750127 0.790576
O O8 0.332206 0.598989 0.726201
O O9 0.421802 0.917701 0.109481
O O10 0.068970 0.125000 0.625000
O O11 0.125000 0.274134 0.625000
O O12 0.013925 0.277402 0.603811
O O13 0.055072 0.664147 0.811091
O O14 0.000000 0.000000 0.000000
#
# Coordination Sequence:
#
# PCOD9516411 Si02
#       7
#    16  32  32  16  32  32  32
#     4  12  24  36  62 101 126 167 220 276 350 414
#     4  11  22  39  65  98 135 166 217 282 352 418
#     4  11  23  47  68  93 140 182 225 283 352 409
#     4  10  25  44  65  97 136 181 225 276 345 428
#     4  11  25  45  69  95 134 182 235 282 331 413
#     4  11  23  43  65  99 130 177 228 283 348 414
#     4  12  22  42  67  96 135 174 221 292 352 410
#
# _framework density 19.826937000000001
#
# number of rings (size 3 to 8) (size 9 to 14) (size 15 to 20)
#    0.000    0.833    5.000    1.750    2.333    0.000 
#    9.000    2.500    0.000    0.000    0.000    0.000 
#    0.000    0.000    0.000    0.000    0.000    0.000 
#
# Total GULP energy -267322.348086 kJ/mol
# GULP energy per Si atom -5569.215585 kJ/mol
# Density = 1.978181 g / cm^3
# Si number density = 19.826937 Si / 1000 Ang^3
#
#
#
# Elastic Constant Matrix: (Units=GPa)
#
#
# Indices 1 2 3 4 5 6 
#
# 1 130.3168 25.3779 55.6723 0.0000 0.0000 0.0000
# 2 25.3779 72.9217 16.6402 0.0000 0.0000 0.0000
# 3 55.6723 16.6402 116.9064 0.0000 0.0000 0.0000
# 4 0.0000 0.0000 0.0000 5.9092 0.0000 0.0000
# 5 0.0000 0.0000 0.0000 0.0000 34.8084 0.0000
# 6 0.0000 0.0000 0.0000 0.0000 0.0000 31.2513
#
#
#
# Elastic Compliance Matrix: (Units=1/GPa)
#
#
# Indices 1 2 3 4 5 6 
#
# 1 0.010052 -0.002487 -0.004433 0.000000 0.000000 0.000000
# 2 -0.002487 0.014789 -0.000921 0.000000 0.000000 0.000000
# 3 -0.004433 -0.000921 0.010796 0.000000 0.000000 0.000000
# 4 0.000000 0.000000 0.000000 0.169227 0.000000 0.000000
# 5 0.000000 0.000000 0.000000 0.000000 0.028729 0.000000
# 6 0.000000 0.000000 0.000000 0.000000 0.000000 0.031999
#
#
# Mechanical properties :
#
#
# Convention : Reuss Voigt Hill
#
# Bulk Modulus (GPa) = 50.11056 57.28062 53.69559
# Shear Modulus (GPa) = 17.36577 29.22408 23.29493
#
# Velocity S-wave (km/s) = 2.96272 3.84338 3.43142
# Velocity P-wave (km/s) = 6.08543 6.97485 6.54526
#
# Compressibility (1/GPa) = 0.01995587
#
# Stress axis : x y z
#
# Youngs Moduli (GPa) = 99.48726 67.61849 92.62819
#
# Poissons Ratio (x) = 0.16814 0.41060
# Poissons Ratio (y) = 0.24738 0.08530
# Poissons Ratio (z) = 0.44100 0.06227
#
# Static dielectric constant tensor:
#      x y z
#    x 1.720700 0.000000 0.000000 
#    y 0.000000 1.766900 0.000000 
#    z 0.000000 0.000000 1.790990 
# 
# From -- ./inp_files/61187.got.cif
#   From: 2010.05.17/outbox.cif.g08.bks.cpg/sg70_31_cif.got.tgz:61187.got - 2010.06.03 15:57:51.
