data_PCOD9516043
_publ_section_title
;
Structure prediction by ZEFSAII (Michael W. Deem and Ramdas Pophale) SiO2 
 PCOD9516043
Probable space group: F D D D
;
_chemical_formula_sum "Si O2"
_cell_formula_units_Z 160
_cell_length_a 9.444007
_cell_length_b 29.514541
_cell_length_c 23.407306
_cell_angle_alpha 90.000000
_cell_angle_beta 90.000000
_cell_angle_gamma 90.000000
_cell_volume 6524.447886
_symmetry_space_group_name_H-M "F D D D"
_symmetry_group_IT_number 70
_space_group.IT_coordinate_system_code '2'
_symmetry_cell_setting 'orthorhombic'
loop_
_space_group_symop_operation_xyz
x,y,z
1/4-x,1/4-y,z
x,1/4-y,1/4-z
1/4-x,y,1/4-z
-x,-y,-z
3/4+x,3/4+y,-z
-x,3/4+y,3/4+z
3/4+x,-y,3/4+z
x,1/2+y,1/2+z
1/4-x,3/4-y,1/2+z
x,3/4-y,3/4-z
1/4-x,1/2+y,3/4-z
-x,1/2-y,1/2-z
3/4+x,1/4+y,1/2-z
-x,1/4+y,1/4+z
3/4+x,1/2-y,1/4+z
1/2+x,y,1/2+z
3/4-x,1/4-y,1/2+z
1/2+x,1/4-y,3/4-z
3/4-x,y,3/4-z
1/2-x,-y,1/2-z
1/4+x,3/4+y,1/2-z
1/2-x,3/4+y,1/4+z
1/4+x,-y,1/4+z
1/2+x,1/2+y,z
3/4-x,3/4-y,z
1/2+x,3/4-y,1/4-z
3/4-x,1/2+y,1/4-z
1/2-x,1/2-y,-z
1/4+x,1/4+y,-z
1/2-x,1/4+y,3/4+z
1/4+x,1/2-y,3/4+z
loop_
_atom_site_type_symbol
_atom_site_label
_atom_site_fract_x
_atom_site_fract_y
_atom_site_fract_z
Si Si1 0.625224 0.314708 0.931503
Si Si2 0.875000 0.875000 0.875000
Si Si3 0.420837 0.290078 0.587683
Si Si4 0.625000 0.125000 0.789140
Si Si5 0.625000 0.125000 0.125000
Si Si6 0.863281 0.570425 0.815449
Si Si7 0.283318 0.544991 0.783546
O O1 0.488959 0.341042 0.906062
O O2 0.627556 0.262337 0.912609
O O3 0.766327 0.342928 0.912094
O O4 0.608189 0.308239 0.000024
O O5 0.304128 0.325031 0.565810
O O6 0.551813 0.297097 0.545259
O O7 0.125000 0.291847 0.625000
O O8 0.486643 0.107452 0.823833
O O9 0.704931 0.086430 0.753072
O O10 0.215824 0.546910 0.846808
O O11 0.250000 0.500000 0.750000
#
# Coordination Sequence:
#
# PCOD9516043 Si02
#       7
#    32   8  32  16   8  32  32
#     4  11  25  48  73 108 149 205 261 335 392 474
#     4  10  22  50  78 106 144 204 282 316 400 482
#     4  11  26  44  74 106 151 201 261 323 394 479
#     4  12  27  45  76 105 158 200 255 330 390 474
#     4  10  28  44  74 106 148 206 268 324 408 470
#     4  12  27  46  73 112 152 200 257 323 410 470
#     4  11  26  48  73 109 149 206 259 323 398 473
#
# _framework density 24.523147000000002
#
# number of rings (size 3 to 8) (size 9 to 14) (size 15 to 20)
#    0.000    0.800    2.000    3.600    4.200    8.000 
#    0.000    0.000    0.000    0.000    0.000    0.000 
#    0.000    0.000    0.000    0.000    0.000    0.000 
#
# Total GULP energy -222887.062753 kJ/mol
# GULP energy per Si atom -5572.176569 kJ/mol
# Density = 2.446733 g / cm^3
# Si number density = 24.523147 Si / 1000 Ang^3
#
#
#
# Elastic Constant Matrix: (Units=GPa)
#
#
# Indices 1 2 3 4 5 6 
#
# 1 243.7155 77.3062 38.9351 0.0000 0.0000 0.0000
# 2 77.3062 133.5882 4.7556 0.0000 0.0000 0.0000
# 3 38.9351 4.7556 75.3942 0.0000 0.0000 0.0000
# 4 0.0000 0.0000 0.0000 14.4554 0.0000 0.0000
# 5 0.0000 0.0000 0.0000 0.0000 30.3470 0.0000
# 6 0.0000 0.0000 0.0000 0.0000 0.0000 48.8987
#
#
#
# Elastic Compliance Matrix: (Units=1/GPa)
#
#
# Indices 1 2 3 4 5 6 
#
# 1 0.005507 -0.003093 -0.002649 0.000000 0.000000 0.000000
# 2 -0.003093 0.009239 0.001014 0.000000 0.000000 0.000000
# 3 -0.002649 0.001014 0.014568 0.000000 0.000000 0.000000
# 4 0.000000 0.000000 0.000000 0.069178 0.000000 0.000000
# 5 0.000000 0.000000 0.000000 0.000000 0.032952 0.000000
# 6 0.000000 0.000000 0.000000 0.000000 0.000000 0.020450
#
#
# Mechanical properties :
#
#
# Convention : Reuss Voigt Hill
#
# Bulk Modulus (GPa) = 50.35369 77.18798 63.77083
# Shear Modulus (GPa) = 29.76724 40.85362 35.31043
#
# Velocity S-wave (km/s) = 3.48780 4.08600 3.79869
# Velocity P-wave (km/s) = 6.06609 7.33515 6.73059
#
# Compressibility (1/GPa) = 0.01985952
#
# Stress axis : x y z
#
# Youngs Moduli (GPa) = 181.57512 108.23294 68.64524
#
# Poissons Ratio (x) = 0.33474 0.18184
# Poissons Ratio (y) = 0.56157 -0.06963
# Poissons Ratio (z) = 0.48100 -0.10979
#
# Static dielectric constant tensor:
#      x y z
#    x 2.000030 0.000000 0.000000 
#    y 0.000000 2.089830 0.000000 
#    z 0.000000 0.000000 2.104450 
# 
# From -- ./inp_files/63962.got.cif
#   From: 2010.05.17/outbox.cif.g08.bks.cpg/sg70_32_cif.got.tgz:63962.got - 2010.06.03 15:57:51.
