data_PCOD9516052
_publ_section_title
;
Structure prediction by ZEFSAII (Michael W. Deem and Ramdas Pophale) SiO2 
 PCOD9516052
Probable space group: F D D D
;
_chemical_formula_sum "Si O2"
_cell_formula_units_Z 192
_cell_length_a 19.220609
_cell_length_b 15.328397
_cell_length_c 27.821825
_cell_angle_alpha 90.000000
_cell_angle_beta 90.000000
_cell_angle_gamma 90.000000
_cell_volume 8196.897390
_symmetry_space_group_name_H-M "F D D D"
_symmetry_group_IT_number 70
_space_group.IT_coordinate_system_code '2'
_symmetry_cell_setting 'orthorhombic'
loop_
_space_group_symop_operation_xyz
x,y,z
1/4-x,1/4-y,z
x,1/4-y,1/4-z
1/4-x,y,1/4-z
-x,-y,-z
3/4+x,3/4+y,-z
-x,3/4+y,3/4+z
3/4+x,-y,3/4+z
x,1/2+y,1/2+z
1/4-x,3/4-y,1/2+z
x,3/4-y,3/4-z
1/4-x,1/2+y,3/4-z
-x,1/2-y,1/2-z
3/4+x,1/4+y,1/2-z
-x,1/4+y,1/4+z
3/4+x,1/2-y,1/4+z
1/2+x,y,1/2+z
3/4-x,1/4-y,1/2+z
1/2+x,1/4-y,3/4-z
3/4-x,y,3/4-z
1/2-x,-y,1/2-z
1/4+x,3/4+y,1/2-z
1/2-x,3/4+y,1/4+z
1/4+x,-y,1/4+z
1/2+x,1/2+y,z
3/4-x,3/4-y,z
1/2+x,3/4-y,1/4-z
3/4-x,1/2+y,1/4-z
1/2-x,1/2-y,-z
1/4+x,1/4+y,-z
1/2-x,1/4+y,3/4+z
1/4+x,1/2-y,3/4+z
loop_
_atom_site_type_symbol
_atom_site_label
_atom_site_fract_x
_atom_site_fract_y
_atom_site_fract_z
Si Si1 0.001655 0.686202 0.582961
Si Si2 0.783682 0.841956 0.009737
Si Si3 0.625000 0.949675 0.625000
Si Si4 0.676898 0.795029 0.683704
Si Si5 0.869309 0.772141 0.528534
Si Si6 0.031620 0.275229 0.860065
Si Si7 0.375000 0.375000 0.658605
O O1 0.973153 0.625000 0.625000
O O2 0.045497 0.632935 0.542802
O O3 0.056838 0.747975 0.609672
O O4 0.935987 0.731141 0.557027
O O5 0.750000 0.750000 0.000000
O O6 0.742250 0.920409 0.035481
O O7 0.836403 0.816045 0.051882
O O8 0.641750 0.884904 0.668306
O O9 0.628642 0.746685 0.721886
O O10 0.707812 0.745935 0.636682
O O11 0.875000 0.875000 0.534104
O O12 0.799701 0.733030 0.553391
O O13 0.048651 0.375000 0.875000
O O14 0.079097 0.193494 0.878920
#
# Coordination Sequence:
#
# PCOD9516052 Si02
#       7
#    32  32  16  32  32  32  16
#     4  11  25  40  65 105 139 185 237 294 383 445
#     4  10  23  38  62  93 141 172 226 287 354 438
#     4  12  25  44  71  96 148 184 230 316 370 444
#     4  10  26  44  62 104 132 181 246 297 357 436
#     4  11  24  45  73 101 140 189 246 301 363 449
#     4  11  24  45  74  99 143 193 244 307 377 440
#     4  10  24  40  65 102 136 185 236 288 358 446
#
# _framework density 23.423497000000001
#
# number of rings (size 3 to 8) (size 9 to 14) (size 15 to 20)
#    0.000    1.333    0.833    2.750   14.000    4.000 
#    0.000    2.500    0.000    0.000    0.000    0.000 
#    0.000    0.000    0.000    0.000    0.000    0.000 
#
# Total GULP energy -267647.154840 kJ/mol
# GULP energy per Si atom -5575.982393 kJ/mol
# Density = 2.337018 g / cm^3
# Si number density = 23.423497 Si / 1000 Ang^3
#
#
#
# Elastic Constant Matrix: (Units=GPa)
#
#
# Indices 1 2 3 4 5 6 
#
# 1 69.3129 23.7302 37.4378 0.0000 0.0000 0.0000
# 2 23.7302 115.7777 40.3366 0.0000 0.0000 0.0000
# 3 37.4378 40.3366 127.0163 0.0000 0.0000 0.0000
# 4 0.0000 0.0000 0.0000 251.5801 0.0000 0.0000
# 5 0.0000 0.0000 0.0000 0.0000 33.8539 0.0000
# 6 0.0000 0.0000 0.0000 0.0000 0.0000 26.4332
#
#
#
# Elastic Compliance Matrix: (Units=1/GPa)
#
#
# Indices 1 2 3 4 5 6 
#
# 1 0.017570 -0.002020 -0.004537 0.000000 0.000000 0.000000
# 2 -0.002020 0.009944 -0.002562 0.000000 0.000000 0.000000
# 3 -0.004537 -0.002562 0.010024 0.000000 0.000000 0.000000
# 4 0.000000 0.000000 0.000000 0.003975 0.000000 0.000000
# 5 0.000000 0.000000 0.000000 0.000000 0.029539 0.000000
# 6 0.000000 0.000000 0.000000 0.000000 0.000000 0.037831
#
#
# Mechanical properties :
#
#
# Convention : Reuss Voigt Hill
#
# Bulk Modulus (GPa) = 51.81879 57.23511 54.52695
# Shear Modulus (GPa) = 37.43781 76.41360 56.92570
#
# Velocity S-wave (km/s) = 4.00221 5.71782 4.93514
# Velocity P-wave (km/s) = 6.59754 8.25101 7.47017
#
# Compressibility (1/GPa) = 0.01929802
#
# Stress axis : x y z
#
# Youngs Moduli (GPa) = 56.91643 100.56206 99.76038
#
# Poissons Ratio (x) = 0.20318 0.45261
# Poissons Ratio (y) = 0.11500 0.25563
# Poissons Ratio (z) = 0.25823 0.25768
#
# Static dielectric constant tensor:
#      x y z
#    x 9.892060 0.000000 0.000000 
#    y 0.000000 1.786670 0.000000 
#    z 0.000000 0.000000 1.955160 
# 
# From -- ./inp_files/61151.got.cif
#   From: 2010.05.17/outbox.cif.g08.bks.cpg/sg70_31_cif.got.tgz:61151.got - 2010.06.03 15:57:51.
