data_PCOD9516325
_publ_section_title
;
Structure prediction by ZEFSAII (Michael W. Deem and Ramdas Pophale) SiO2 
 PCOD9516325
Probable space group: F D D D
;
_chemical_formula_sum "Si O2"
_cell_formula_units_Z 208
_cell_length_a 16.385136
_cell_length_b 21.587151
_cell_length_c 27.060472
_cell_angle_alpha 90.000000
_cell_angle_beta 90.000000
_cell_angle_gamma 90.000000
_cell_volume 9571.516389
_symmetry_space_group_name_H-M "F D D D"
_symmetry_group_IT_number 70
_space_group.IT_coordinate_system_code '2'
_symmetry_cell_setting 'orthorhombic'
loop_
_space_group_symop_operation_xyz
x,y,z
1/4-x,1/4-y,z
x,1/4-y,1/4-z
1/4-x,y,1/4-z
-x,-y,-z
3/4+x,3/4+y,-z
-x,3/4+y,3/4+z
3/4+x,-y,3/4+z
x,1/2+y,1/2+z
1/4-x,3/4-y,1/2+z
x,3/4-y,3/4-z
1/4-x,1/2+y,3/4-z
-x,1/2-y,1/2-z
3/4+x,1/4+y,1/2-z
-x,1/4+y,1/4+z
3/4+x,1/2-y,1/4+z
1/2+x,y,1/2+z
3/4-x,1/4-y,1/2+z
1/2+x,1/4-y,3/4-z
3/4-x,y,3/4-z
1/2-x,-y,1/2-z
1/4+x,3/4+y,1/2-z
1/2-x,3/4+y,1/4+z
1/4+x,-y,1/4+z
1/2+x,1/2+y,z
3/4-x,3/4-y,z
1/2+x,3/4-y,1/4-z
3/4-x,1/2+y,1/4-z
1/2-x,1/2-y,-z
1/4+x,1/4+y,-z
1/2-x,1/4+y,3/4+z
1/4+x,1/2-y,3/4+z
loop_
_atom_site_type_symbol
_atom_site_label
_atom_site_fract_x
_atom_site_fract_y
_atom_site_fract_z
Si Si1 0.102085 0.522368 0.215825
Si Si2 0.588666 0.823288 0.447158
Si Si3 0.985446 0.384386 0.930812
Si Si4 0.375000 0.178537 0.375000
Si Si5 0.743797 0.676958 0.010942
Si Si6 0.213039 0.647003 0.402195
Si Si7 0.783680 0.780023 0.885536
O O1 0.090835 0.484820 0.266019
O O2 0.023973 0.566259 0.204774
O O3 0.178374 0.569500 0.212346
O O4 0.119505 0.472737 0.172752
O O5 0.677253 0.833835 0.424844
O O6 0.574030 0.887000 0.477375
O O7 0.517037 0.813729 0.407421
O O8 0.955799 0.375000 0.875000
O O9 0.291122 0.138658 0.370977
O O10 0.702647 0.679892 0.064734
O O11 0.750000 0.750000 0.000000
O O12 0.711382 0.642495 0.962256
O O13 0.125000 0.625000 0.382948
O O14 0.228462 0.719480 0.393999
O O15 0.875000 0.758059 0.875000
#
# Coordination Sequence:
#
# PCOD9516325 Si02
#       7
#    32  32  32  16  32  32  32
#     4  11  24  43  74 104 144 192 242 301 368 450
#     4  12  26  44  72 108 141 198 243 303 373 445
#     4  11  23  45  70 106 146 190 245 306 370 438
#     4  12  22  45  76 102 143 194 236 300 370 434
#     4  10  24  45  69 101 138 185 245 295 358 432
#     4  11  26  45  73 106 143 190 244 303 367 439
#     4  11  26  47  69 104 151 192 239 311 366 441
#
# _framework density 21.731144
#
# number of rings (size 3 to 8) (size 9 to 14) (size 15 to 20)
#    0.000    0.923    3.846    2.308    4.308    6.769 
#    2.769    0.000    0.000    0.000    0.000    0.000 
#    0.000    0.000    0.000    0.000    0.000    0.000 
#
# Total GULP energy -289865.426502 kJ/mol
# GULP energy per Si atom -5574.335125 kJ/mol
# Density = 2.168168 g / cm^3
# Si number density = 21.731144 Si / 1000 Ang^3
#
#
#
# Elastic Constant Matrix: (Units=GPa)
#
#
# Indices 1 2 3 4 5 6 
#
# 1 132.1498 37.9837 32.3279 0.0000 0.0000 0.0000
# 2 37.9837 101.0691 36.4336 0.0000 0.0000 0.0000
# 3 32.3279 36.4336 100.2998 0.0000 0.0000 0.0000
# 4 0.0000 0.0000 0.0000 26.9693 0.0000 0.0000
# 5 0.0000 0.0000 0.0000 0.0000 15.4764 0.0000
# 6 0.0000 0.0000 0.0000 0.0000 0.0000 44.7132
#
#
#
# Elastic Compliance Matrix: (Units=1/GPa)
#
#
# Indices 1 2 3 4 5 6 
#
# 1 0.008780 -0.002623 -0.001877 0.000000 0.000000 0.000000
# 2 -0.002623 0.012169 -0.003575 0.000000 0.000000 0.000000
# 3 -0.001877 -0.003575 0.011874 0.000000 0.000000 0.000000
# 4 0.000000 0.000000 0.000000 0.037079 0.000000 0.000000
# 5 0.000000 0.000000 0.000000 0.000000 0.064614 0.000000
# 6 0.000000 0.000000 0.000000 0.000000 0.000000 0.022365
#
#
# Mechanical properties :
#
#
# Convention : Reuss Voigt Hill
#
# Bulk Modulus (GPa) = 59.97880 60.77878 60.37879
# Shear Modulus (GPa) = 27.99729 32.55003 30.27366
#
# Velocity S-wave (km/s) = 3.59325 3.87441 3.73647
# Velocity P-wave (km/s) = 6.69892 6.93137 6.81614
#
# Compressibility (1/GPa) = 0.01667256
#
# Stress axis : x y z
#
# Youngs Moduli (GPa) = 113.89073 82.17819 84.21993
#
# Poissons Ratio (x) = 0.21556 0.15810
# Poissons Ratio (y) = 0.29875 0.30107
# Poissons Ratio (z) = 0.21379 0.29377
#
# Static dielectric constant tensor:
#      x y z
#    x 1.814570 0.000000 0.000000 
#    y 0.000000 1.819690 0.000000 
#    z 0.000000 0.000000 1.850850 
# 
# From -- ./inp_files/59625.got.cif
#   From: 2010.05.17/outbox.cif.g08.bks.cpg/sg70_30_cif.got.tgz:59625.got - 2010.06.03 15:57:51.
