data_PCOD9516685
_publ_section_title
;
Structure prediction by ZEFSAII (Michael W. Deem and Ramdas Pophale) SiO2 
 PCOD9516685
Probable space group: F D D D
;
_chemical_formula_sum "Si O2"
_cell_formula_units_Z 144
_cell_length_a 18.299648
_cell_length_b 16.179389
_cell_length_c 23.679861
_cell_angle_alpha 90.000000
_cell_angle_beta 90.000000
_cell_angle_gamma 90.000000
_cell_volume 7011.065131
_symmetry_space_group_name_H-M "F D D D"
_symmetry_group_IT_number 70
_space_group.IT_coordinate_system_code '2'
_symmetry_cell_setting 'orthorhombic'
loop_
_space_group_symop_operation_xyz
x,y,z
1/4-x,1/4-y,z
x,1/4-y,1/4-z
1/4-x,y,1/4-z
-x,-y,-z
3/4+x,3/4+y,-z
-x,3/4+y,3/4+z
3/4+x,-y,3/4+z
x,1/2+y,1/2+z
1/4-x,3/4-y,1/2+z
x,3/4-y,3/4-z
1/4-x,1/2+y,3/4-z
-x,1/2-y,1/2-z
3/4+x,1/4+y,1/2-z
-x,1/4+y,1/4+z
3/4+x,1/2-y,1/4+z
1/2+x,y,1/2+z
3/4-x,1/4-y,1/2+z
1/2+x,1/4-y,3/4-z
3/4-x,y,3/4-z
1/2-x,-y,1/2-z
1/4+x,3/4+y,1/2-z
1/2-x,3/4+y,1/4+z
1/4+x,-y,1/4+z
1/2+x,1/2+y,z
3/4-x,3/4-y,z
1/2+x,3/4-y,1/4-z
3/4-x,1/2+y,1/4-z
1/2-x,1/2-y,-z
1/4+x,1/4+y,-z
1/2-x,1/4+y,3/4+z
1/4+x,1/2-y,3/4+z
loop_
_atom_site_type_symbol
_atom_site_label
_atom_site_fract_x
_atom_site_fract_y
_atom_site_fract_z
Si Si1 0.125000 0.328303 0.125000
Si Si2 0.431127 0.142461 0.256985
Si Si3 0.014700 0.198433 0.306866
Si Si4 0.066928 0.731945 0.429876
Si Si5 0.173705 0.705447 0.942805
O O1 0.147610 0.376566 0.181501
O O2 0.199707 0.284882 0.102002
O O3 0.389244 0.215220 0.223607
O O4 0.513413 0.171332 0.267013
O O5 0.437444 0.059462 0.220732
O O6 0.026219 0.099768 0.296507
O O7 0.095467 0.221391 0.327667
O O8 0.000000 0.250000 0.250000
O O9 0.040916 0.738956 0.365337
O O10 0.125000 0.625000 0.930908
#
# Coordination Sequence:
#
# PCOD9516685 Si02
#       5
#    16  32  32  32  32
#     4  12  22  44  66  96 136 170 228 286 333 419
#     4  11  25  39  66  97 127 174 228 274 350 409
#     4  11  23  42  68  97 133 180 224 280 347 406
#     4  11  22  45  65  94 142 175 223 288 345 417
#     4  11  23  42  64  95 129 176 223 278 339 413
#
# _framework density 20.538962000000001
#
# number of rings (size 3 to 8) (size 9 to 14) (size 15 to 20)
#    0.000    0.889    6.667    0.667    3.111    0.000 
#    0.000    2.778    0.000    0.000    0.000    0.000 
#    0.000    0.000    0.000    0.000    0.000    0.000 
#
# Total GULP energy -200573.257536 kJ/mol
# GULP energy per Si atom -5571.479376 kJ/mol
# Density = 2.049221 g / cm^3
# Si number density = 20.538962 Si / 1000 Ang^3
#
#
#
# Elastic Constant Matrix: (Units=GPa)
#
#
# Indices 1 2 3 4 5 6 
#
# 1 84.4878 25.1143 15.7343 0.0000 0.0000 0.0000
# 2 25.1143 115.0300 98.7823 0.0000 0.0000 0.0000
# 3 15.7343 98.7823 146.7587 0.0000 0.0000 0.0000
# 4 0.0000 0.0000 0.0000 39.2953 0.0000 0.0000
# 5 0.0000 0.0000 0.0000 0.0000 37.4097 0.0000
# 6 0.0000 0.0000 0.0000 0.0000 0.0000 25.3036
#
#
#
# Elastic Compliance Matrix: (Units=1/GPa)
#
#
# Indices 1 2 3 4 5 6 
#
# 1 0.012746 -0.003814 0.001200 0.000000 0.000000 0.000000
# 2 -0.003814 0.021742 -0.014226 0.000000 0.000000 0.000000
# 3 0.001200 -0.014226 0.016261 0.000000 0.000000 0.000000
# 4 0.000000 0.000000 0.000000 0.025448 0.000000 0.000000
# 5 0.000000 0.000000 0.000000 0.000000 0.026731 0.000000
# 6 0.000000 0.000000 0.000000 0.000000 0.000000 0.039520
#
#
# Mechanical properties :
#
#
# Convention : Reuss Voigt Hill
#
# Bulk Modulus (GPa) = 58.57925 69.50426 64.04176
# Shear Modulus (GPa) = 27.50016 34.17809 30.83912
#
# Velocity S-wave (km/s) = 3.66310 4.08372 3.87911
# Velocity P-wave (km/s) = 6.81719 7.49328 7.16322
#
# Compressibility (1/GPa) = 0.01707089
#
# Stress axis : x y z
#
# Youngs Moduli (GPa) = 78.45534 45.99288 61.49865
#
# Poissons Ratio (x) = 0.17540 -0.07383
# Poissons Ratio (y) = 0.29921 0.87487
# Poissons Ratio (z) = -0.09418 0.65429
#
# Static dielectric constant tensor:
#      x y z
#    x 1.820180 0.000000 0.000000 
#    y 0.000000 1.781800 0.000000 
#    z 0.000000 0.000000 1.740050 
# 
# From -- ./inp_files/44673.got.cif
#   From: 2010.05.17/outbox.cif.g08.bks.cpg/sg70_23_cif.got.tgz:44673.got - 2010.06.03 15:57:51.
