data_PCOD9516250
_publ_section_title
;
Structure prediction by ZEFSAII (Michael W. Deem and Ramdas Pophale) SiO2 
 PCOD9516250
Probable space group: F D D D
;
_chemical_formula_sum "Si O2"
_cell_formula_units_Z 200
_cell_length_a 26.464380
_cell_length_b 12.033677
_cell_length_c 26.133751
_cell_angle_alpha 90.000000
_cell_angle_beta 90.000000
_cell_angle_gamma 90.000000
_cell_volume 8322.653676
_symmetry_space_group_name_H-M "F D D D"
_symmetry_group_IT_number 70
_space_group.IT_coordinate_system_code '2'
_symmetry_cell_setting 'orthorhombic'
loop_
_space_group_symop_operation_xyz
x,y,z
1/4-x,1/4-y,z
x,1/4-y,1/4-z
1/4-x,y,1/4-z
-x,-y,-z
3/4+x,3/4+y,-z
-x,3/4+y,3/4+z
3/4+x,-y,3/4+z
x,1/2+y,1/2+z
1/4-x,3/4-y,1/2+z
x,3/4-y,3/4-z
1/4-x,1/2+y,3/4-z
-x,1/2-y,1/2-z
3/4+x,1/4+y,1/2-z
-x,1/4+y,1/4+z
3/4+x,1/2-y,1/4+z
1/2+x,y,1/2+z
3/4-x,1/4-y,1/2+z
1/2+x,1/4-y,3/4-z
3/4-x,y,3/4-z
1/2-x,-y,1/2-z
1/4+x,3/4+y,1/2-z
1/2-x,3/4+y,1/4+z
1/4+x,-y,1/4+z
1/2+x,1/2+y,z
3/4-x,3/4-y,z
1/2+x,3/4-y,1/4-z
3/4-x,1/2+y,1/4-z
1/2-x,1/2-y,-z
1/4+x,1/4+y,-z
1/2-x,1/4+y,3/4+z
1/4+x,1/2-y,3/4+z
loop_
_atom_site_type_symbol
_atom_site_label
_atom_site_fract_x
_atom_site_fract_y
_atom_site_fract_z
Si Si1 0.689421 0.310154 0.678507
Si Si2 0.456833 0.125000 0.125000
Si Si3 0.228308 0.207598 0.904438
Si Si4 0.998891 0.007586 0.719032
Si Si5 0.597381 0.391283 0.735387
Si Si6 0.869348 0.994733 0.585089
Si Si7 0.625000 0.125000 0.625000
Si Si8 0.750000 0.250000 0.500000
O O1 0.728640 0.338503 0.633081
O O2 0.721801 0.293232 0.729591
O O3 0.643061 0.388949 0.695420
O O4 0.660319 0.202170 0.659246
O O5 0.488086 0.155848 0.075433
O O6 0.419844 0.229451 0.133354
O O7 0.228162 0.118634 0.953375
O O8 0.178463 0.234576 0.872785
O O9 0.242423 0.309075 0.941486
O O10 0.057974 0.990069 0.725553
O O11 0.617589 0.410764 0.792520
O O12 0.560911 0.284357 0.734961
O O13 0.875000 0.875000 0.559689
#
# Coordination Sequence:
#
# PCOD9516250 Si02
#       8
#    32  16  32  32  32  32   8  16
#     4  12  27  46  72 105 155 196 243 314 384 457
#     4  12  24  45  72 111 146 197 255 314 374 446
#     4  11  25  44  69 107 146 190 243 309 379 455
#     4  11  25  45  73 104 146 194 248 308 371 449
#     4  11  25  48  70 107 148 196 251 308 378 453
#     4  12  24  44  73 108 144 193 252 315 377 443
#     4  12  28  38  72 112 146 196 242 296 400 458
#     4  10  24  40  74 102 142 186 242 314 372 452
#
# _framework density 24.030797
#
# number of rings (size 3 to 8) (size 9 to 14) (size 15 to 20)
#    0.000    0.640    4.800    2.880    8.960    0.640 
#    2.880    2.400    0.000    0.000    0.000    0.000 
#    0.000    0.000    0.000    0.000    0.000    0.000 
#
# Total GULP energy -278873.260482 kJ/mol
# GULP energy per Si atom -5577.465210 kJ/mol
# Density = 2.397610 g / cm^3
# Si number density = 24.030797 Si / 1000 Ang^3
#
#
#
# Elastic Constant Matrix: (Units=GPa)
#
#
# Indices 1 2 3 4 5 6 
#
# 1 137.3240 4.8479 69.4662 0.0000 0.0000 0.0000
# 2 4.8479 32.6454 3.7857 0.0000 0.0000 0.0000
# 3 69.4662 3.7857 159.6968 0.0000 0.0000 0.0000
# 4 0.0000 0.0000 0.0000 40.7631 0.0000 0.0000
# 5 0.0000 0.0000 0.0000 0.0000 40.4296 0.0000
# 6 0.0000 0.0000 0.0000 0.0000 0.0000 14.1120
#
#
#
# Elastic Compliance Matrix: (Units=1/GPa)
#
#
# Indices 1 2 3 4 5 6 
#
# 1 0.009364 -0.000921 -0.004051 0.000000 0.000000 0.000000
# 2 -0.000921 0.030807 -0.000330 0.000000 0.000000 0.000000
# 3 -0.004051 -0.000330 0.008032 0.000000 0.000000 0.000000
# 4 0.000000 0.000000 0.000000 0.024532 0.000000 0.000000
# 5 0.000000 0.000000 0.000000 0.000000 0.024734 0.000000
# 6 0.000000 0.000000 0.000000 0.000000 0.000000 0.070862
#
#
# Mechanical properties :
#
#
# Convention : Reuss Voigt Hill
#
# Bulk Modulus (GPa) = 26.59626 53.98509 40.29068
# Shear Modulus (GPa) = 26.11401 35.83203 30.97302
#
# Velocity S-wave (km/s) = 3.30007 3.86565 3.59400
# Velocity P-wave (km/s) = 5.06085 6.51445 5.83311
#
# Compressibility (1/GPa) = 0.03759927
#
# Stress axis : x y z
#
# Youngs Moduli (GPa) = 106.79223 32.45998 124.50216
#
# Poissons Ratio (x) = 0.02989 0.50441
# Poissons Ratio (y) = 0.09833 0.04106
# Poissons Ratio (z) = 0.43266 0.01070
#
# Static dielectric constant tensor:
#      x y z
#    x 1.886870 0.000000 0.000000 
#    y 0.000000 1.199510 0.000000 
#    z 0.000000 0.000000 1.317120 
# 
# From -- ./inp_files/61801.got.cif
#   From: 2010.05.17/outbox.cif.g08.bks.cpg/sg70_31_cif.got.tgz:61801.got - 2010.06.03 15:57:51.
