data_PCOD9516195
_publ_section_title
;
Structure prediction by ZEFSAII (Michael W. Deem and Ramdas Pophale) SiO2 
 PCOD9516195
Probable space group: F D D D
;
_chemical_formula_sum "Si O2"
_cell_formula_units_Z 208
_cell_length_a 22.887357
_cell_length_b 22.799485
_cell_length_c 18.516206
_cell_angle_alpha 90.000000
_cell_angle_beta 90.000000
_cell_angle_gamma 90.000000
_cell_volume 9662.125737
_symmetry_space_group_name_H-M "F D D D"
_symmetry_group_IT_number 70
_space_group.IT_coordinate_system_code '2'
_symmetry_cell_setting 'orthorhombic'
loop_
_space_group_symop_operation_xyz
x,y,z
1/4-x,1/4-y,z
x,1/4-y,1/4-z
1/4-x,y,1/4-z
-x,-y,-z
3/4+x,3/4+y,-z
-x,3/4+y,3/4+z
3/4+x,-y,3/4+z
x,1/2+y,1/2+z
1/4-x,3/4-y,1/2+z
x,3/4-y,3/4-z
1/4-x,1/2+y,3/4-z
-x,1/2-y,1/2-z
3/4+x,1/4+y,1/2-z
-x,1/4+y,1/4+z
3/4+x,1/2-y,1/4+z
1/2+x,y,1/2+z
3/4-x,1/4-y,1/2+z
1/2+x,1/4-y,3/4-z
3/4-x,y,3/4-z
1/2-x,-y,1/2-z
1/4+x,3/4+y,1/2-z
1/2-x,3/4+y,1/4+z
1/4+x,-y,1/4+z
1/2+x,1/2+y,z
3/4-x,3/4-y,z
1/2+x,3/4-y,1/4-z
3/4-x,1/2+y,1/4-z
1/2-x,1/2-y,-z
1/4+x,1/4+y,-z
1/2-x,1/4+y,3/4+z
1/4+x,1/2-y,3/4+z
loop_
_atom_site_type_symbol
_atom_site_label
_atom_site_fract_x
_atom_site_fract_y
_atom_site_fract_z
Si Si1 0.125000 0.125000 0.125000
Si Si2 0.233394 0.824038 0.700524
Si Si3 0.349006 0.668701 0.182293
Si Si4 0.808987 0.672669 0.956766
Si Si5 0.314833 0.309866 0.999266
Si Si6 0.353969 0.473310 0.605062
Si Si7 0.125000 0.125000 0.625000
Si Si8 0.793701 0.307795 0.994891
O O1 0.087366 0.085899 0.073371
O O2 0.198524 0.798275 0.768765
O O3 0.192222 0.829719 0.629910
O O4 0.290097 0.787231 0.678099
O O5 0.255526 0.887536 0.726574
O O6 0.320233 0.625000 0.125000
O O7 0.391854 0.642214 0.244053
O O8 0.386289 0.710535 0.130891
O O9 0.810165 0.740777 0.981300
O O10 0.743954 0.655850 0.980303
O O11 0.355013 0.312262 0.069864
O O12 0.404383 0.454924 0.551232
O O13 0.169021 0.083318 0.674377
O O14 0.750000 0.250000 0.000000
#
# Coordination Sequence:
#
# PCOD9516195 Si02
#       8
#     8  32  32  32  32  32   8  32
#     4  12  24  30  68 104 124 170 240 264 334 420
#     4  11  23  44  73  97 143 192 232 303 373 439
#     4  11  24  42  68 101 141 183 241 297 358 437
#     4   9  21  44  60  91 139 182 220 283 358 416
#     4   9  22  39  62  94 136 175 225 282 346 418
#     4  10  23  45  69  98 138 185 233 292 366 435
#     4  12  28  54  80 108 164 190 252 344 376 450
#     4  12  27  48  77 108 139 194 251 303 384 449
#
# _framework density 21.527353000000002
#
# number of rings (size 3 to 8) (size 9 to 14) (size 15 to 20)
#    0.000    1.538    1.538    2.308   12.923    0.000 
#    8.308    0.000    0.000    0.000    0.000    0.000 
#    0.000    0.000    0.000    0.000    0.000    0.000 
#
# Total GULP energy -289753.922246 kJ/mol
# GULP energy per Si atom -5572.190812 kJ/mol
# Density = 2.147836 g / cm^3
# Si number density = 21.527353 Si / 1000 Ang^3
#
#
#
# Elastic Constant Matrix: (Units=GPa)
#
#
# Indices 1 2 3 4 5 6 
#
# 1 100.3593 26.1460 73.4591 0.0000 0.0000 0.0000
# 2 26.1460 35.9415 37.0670 0.0000 0.0000 0.0000
# 3 73.4591 37.0670 169.9209 0.0000 0.0000 0.0000
# 4 0.0000 0.0000 0.0000 23.0378 0.0000 0.0000
# 5 0.0000 0.0000 0.0000 0.0000 47.9440 0.0000
# 6 0.0000 0.0000 0.0000 0.0000 0.0000 20.8952
#
#
#
# Elastic Compliance Matrix: (Units=1/GPa)
#
#
# Indices 1 2 3 4 5 6 
#
# 1 0.015403 -0.005597 -0.005438 0.000000 0.000000 0.000000
# 2 -0.005597 0.037933 -0.005855 0.000000 0.000000 0.000000
# 3 -0.005438 -0.005855 0.009513 0.000000 0.000000 0.000000
# 4 0.000000 0.000000 0.000000 0.043407 0.000000 0.000000
# 5 0.000000 0.000000 0.000000 0.000000 0.020858 0.000000
# 6 0.000000 0.000000 0.000000 0.000000 0.000000 0.047858
#
#
# Mechanical properties :
#
#
# Convention : Reuss Voigt Hill
#
# Bulk Modulus (GPa) = 34.40063 64.39623 49.39843
# Shear Modulus (GPa) = 22.88951 29.67870 26.28411
#
# Velocity S-wave (km/s) = 3.26433 3.71705 3.49802
# Velocity P-wave (km/s) = 5.49749 6.95705 6.26989
#
# Compressibility (1/GPa) = 0.02906924
#
# Stress axis : x y z
#
# Youngs Moduli (GPa) = 64.92427 26.36223 105.11648
#
# Poissons Ratio (x) = 0.14754 0.57161
# Poissons Ratio (y) = 0.36336 0.61549
# Poissons Ratio (z) = 0.35305 0.15436
#
# Static dielectric constant tensor:
#      x y z
#    x 1.854040 0.000000 0.000000 
#    y 0.000000 1.822270 0.000000 
#    z 0.000000 0.000000 1.780410 
# 
# From -- ./inp_files/37751.got.cif
#   From: 2010.05.17/outbox.cif.g08.bks.cpg/sg70_19_cif.got.tgz:37751.got - 2010.06.03 15:57:51.
