data_PCOD9516915
_publ_section_title
;
Structure prediction by ZEFSAII (Michael W. Deem and Ramdas Pophale) SiO2 
 PCOD9516915
Probable space group: F D D D
;
_chemical_formula_sum "Si O2"
_cell_formula_units_Z 192
_cell_length_a 17.169025
_cell_length_b 29.275888
_cell_length_c 17.214211
_cell_angle_alpha 90.000000
_cell_angle_beta 90.000000
_cell_angle_gamma 90.000000
_cell_volume 8652.524386
_symmetry_space_group_name_H-M "F D D D"
_symmetry_group_IT_number 70
_space_group.IT_coordinate_system_code '2'
_symmetry_cell_setting 'orthorhombic'
loop_
_space_group_symop_operation_xyz
x,y,z
1/4-x,1/4-y,z
x,1/4-y,1/4-z
1/4-x,y,1/4-z
-x,-y,-z
3/4+x,3/4+y,-z
-x,3/4+y,3/4+z
3/4+x,-y,3/4+z
x,1/2+y,1/2+z
1/4-x,3/4-y,1/2+z
x,3/4-y,3/4-z
1/4-x,1/2+y,3/4-z
-x,1/2-y,1/2-z
3/4+x,1/4+y,1/2-z
-x,1/4+y,1/4+z
3/4+x,1/2-y,1/4+z
1/2+x,y,1/2+z
3/4-x,1/4-y,1/2+z
1/2+x,1/4-y,3/4-z
3/4-x,y,3/4-z
1/2-x,-y,1/2-z
1/4+x,3/4+y,1/2-z
1/2-x,3/4+y,1/4+z
1/4+x,-y,1/4+z
1/2+x,1/2+y,z
3/4-x,3/4-y,z
1/2+x,3/4-y,1/4-z
3/4-x,1/2+y,1/4-z
1/2-x,1/2-y,-z
1/4+x,1/4+y,-z
1/2-x,1/4+y,3/4+z
1/4+x,1/2-y,3/4+z
loop_
_atom_site_type_symbol
_atom_site_label
_atom_site_fract_x
_atom_site_fract_y
_atom_site_fract_z
Si Si1 0.906589 0.594814 0.008712
Si Si2 0.290802 0.125000 0.125000
Si Si3 0.702774 0.539153 0.161314
Si Si4 0.337158 0.464026 0.669037
Si Si5 0.481487 0.529283 0.639276
Si Si6 0.125000 0.968852 0.625000
Si Si7 0.948432 0.404119 0.730012
O O1 0.847731 0.629500 0.050949
O O2 0.943065 0.563180 0.076587
O O3 0.860648 0.563279 0.948706
O O4 0.978104 0.620542 0.967631
O O5 0.237594 0.081244 0.114321
O O6 0.625000 0.519269 0.125000
O O7 0.679220 0.557003 0.246678
O O8 0.768428 0.501045 0.161576
O O9 0.416650 0.493129 0.666972
O O10 0.330221 0.429015 0.598078
O O11 0.551951 0.500198 0.603777
O O12 0.519782 0.558792 0.708497
O O13 0.875000 0.375000 0.761387
#
# Coordination Sequence:
#
# PCOD9516915 Si02
#       7
#    32  16  32  32  32  16  32
#     4  12  25  46  67 103 140 184 226 295 359 417
#     4  12  25  46  67 100 146 178 230 295 360 426
#     4  11  25  45  72 101 135 194 234 291 364 425
#     4  11  25  45  73 103 144 182 246 298 347 428
#     4  12  23  49  70 102 140 189 235 292 355 435
#     4  12  28  40  77  98 136 184 244 283 354 424
#     4  12  25  43  71 106 144 185 236 295 357 423
#
# _framework density 22.190055000000001
#
# number of rings (size 3 to 8) (size 9 to 14) (size 15 to 20)
#    0.000    0.333    3.333    4.750    4.667    3.333 
#    0.000    0.000    0.000    0.000    0.000    0.000 
#    0.000    0.000    0.000    0.000    0.000    0.000 
#
# Total GULP energy -268683.115792 kJ/mol
# GULP energy per Si atom -5597.564912 kJ/mol
# Density = 2.213955 g / cm^3
# Si number density = 22.190055 Si / 1000 Ang^3
#
#
#
# Elastic Constant Matrix: (Units=GPa)
#
#
# Indices 1 2 3 4 5 6 
#
# 1 106.1097 15.3235 1.6786 0.0000 0.0000 0.0000
# 2 15.3235 49.3861 8.3000 0.0000 0.0000 0.0000
# 3 1.6786 8.3000 74.0050 0.0000 0.0000 0.0000
# 4 0.0000 0.0000 0.0000 38.0147 0.0000 0.0000
# 5 0.0000 0.0000 0.0000 0.0000 25.0252 0.0000
# 6 0.0000 0.0000 0.0000 0.0000 0.0000 36.0309
#
#
#
# Elastic Compliance Matrix: (Units=1/GPa)
#
#
# Indices 1 2 3 4 5 6 
#
# 1 0.009867 -0.003082 0.000122 0.000000 0.000000 0.000000
# 2 -0.003082 0.021600 -0.002353 0.000000 0.000000 0.000000
# 3 0.000122 -0.002353 0.013774 0.000000 0.000000 0.000000
# 4 0.000000 0.000000 0.000000 0.026306 0.000000 0.000000
# 5 0.000000 0.000000 0.000000 0.000000 0.039960 0.000000
# 6 0.000000 0.000000 0.000000 0.000000 0.000000 0.027754
#
#
# Mechanical properties :
#
#
# Convention : Reuss Voigt Hill
#
# Bulk Modulus (GPa) = 28.88875 31.12277 30.00576
# Shear Modulus (GPa) = 30.97415 33.42743 32.20079
#
# Velocity S-wave (km/s) = 3.74017 3.88547 3.81351
# Velocity P-wave (km/s) = 5.63018 5.84681 5.73951
#
# Compressibility (1/GPa) = 0.03461555
#
# Stress axis : x y z
#
# Youngs Moduli (GPa) = 101.34400 46.29559 72.60211
#
# Poissons Ratio (x) = 0.14269 -0.00885
# Poissons Ratio (y) = 0.31236 0.17081
# Poissons Ratio (z) = -0.01235 0.10892
#
# Static dielectric constant tensor:
#      x y z
#    x 1.782760 0.000000 0.000000 
#    y 0.000000 1.816670 0.000000 
#    z 0.000000 0.000000 1.816670 
# 
# From -- ./inp_files/35536.got.cif
#   From: 2010.05.17/outbox.cif.g08.bks.cpg/sg70_18_cif.got.tgz:35536.got - 2010.06.03 15:57:51.
