data_PCOD9516120
_publ_section_title
;
Structure prediction by ZEFSAII (Michael W. Deem and Ramdas Pophale) SiO2 
 PCOD9516120
Probable space group: F D D D
;
_chemical_formula_sum "Si O2"
_cell_formula_units_Z 144
_cell_length_a 12.970352
_cell_length_b 23.050734
_cell_length_c 18.133350
_cell_angle_alpha 90.000000
_cell_angle_beta 90.000000
_cell_angle_gamma 90.000000
_cell_volume 5421.438877
_symmetry_space_group_name_H-M "F D D D"
_symmetry_group_IT_number 70
_space_group.IT_coordinate_system_code '2'
_symmetry_cell_setting 'orthorhombic'
loop_
_space_group_symop_operation_xyz
x,y,z
1/4-x,1/4-y,z
x,1/4-y,1/4-z
1/4-x,y,1/4-z
-x,-y,-z
3/4+x,3/4+y,-z
-x,3/4+y,3/4+z
3/4+x,-y,3/4+z
x,1/2+y,1/2+z
1/4-x,3/4-y,1/2+z
x,3/4-y,3/4-z
1/4-x,1/2+y,3/4-z
-x,1/2-y,1/2-z
3/4+x,1/4+y,1/2-z
-x,1/4+y,1/4+z
3/4+x,1/2-y,1/4+z
1/2+x,y,1/2+z
3/4-x,1/4-y,1/2+z
1/2+x,1/4-y,3/4-z
3/4-x,y,3/4-z
1/2-x,-y,1/2-z
1/4+x,3/4+y,1/2-z
1/2-x,3/4+y,1/4+z
1/4+x,-y,1/4+z
1/2+x,1/2+y,z
3/4-x,3/4-y,z
1/2+x,3/4-y,1/4-z
3/4-x,1/2+y,1/4-z
1/2-x,1/2-y,-z
1/4+x,1/4+y,-z
1/2-x,1/4+y,3/4+z
1/4+x,1/2-y,3/4+z
loop_
_atom_site_type_symbol
_atom_site_label
_atom_site_fract_x
_atom_site_fract_y
_atom_site_fract_z
Si Si1 0.235630 0.286460 0.159281
Si Si2 0.710961 0.323380 0.270192
Si Si3 0.769209 0.835257 0.316751
Si Si4 0.375000 0.024569 0.875000
Si Si5 0.953804 0.313027 0.238982
O O1 0.125000 0.270341 0.125000
O O2 0.305049 0.229202 0.172786
O O3 0.229310 0.318970 0.236832
O O4 0.282018 0.327721 0.097057
O O5 0.635182 0.312121 0.199935
O O6 0.832647 0.311249 0.252129
O O7 0.729619 0.391120 0.285570
O O8 0.709133 0.875000 0.375000
O O9 0.875000 0.875000 0.303794
O O10 0.787135 0.773918 0.358464
O O11 0.000000 0.250000 0.250000
#
# Coordination Sequence:
#
# PCOD9516120 Si02
#       5
#    32  32  32  16  32
#     4  11  22  41  68  95 133 180 229 278 341 418
#     4  10  23  42  65  95 136 173 232 284 345 407
#     4   8  17  37  66  99 132 172 219 284 356 403
#     4   8  17  38  66  90 130 167 220 284 340 408
#     4  11  24  42  63  96 135 184 230 282 340 417
#
# _framework density 26.561215000000001
#
# number of rings (size 3 to 8) (size 9 to 14) (size 15 to 20)
#    0.000    2.444    2.222    0.000    4.667    0.889 
#    0.000   11.111    0.000    0.000    0.000    0.000 
#    0.000    0.000    0.000    0.000    0.000    0.000 
#
# Total GULP energy -200822.642589 kJ/mol
# GULP energy per Si atom -5578.406739 kJ/mol
# Density = 2.650076 g / cm^3
# Si number density = 26.561215 Si / 1000 Ang^3
#
#
#
# Elastic Constant Matrix: (Units=GPa)
#
#
# Indices 1 2 3 4 5 6 
#
# 1 91.5601 25.3553 35.3546 0.0000 0.0000 0.0000
# 2 25.3553 164.0478 28.1904 0.0000 0.0000 0.0000
# 3 35.3546 28.1904 142.2263 0.0000 0.0000 0.0000
# 4 0.0000 0.0000 0.0000 33.5722 0.0000 0.0000
# 5 0.0000 0.0000 0.0000 0.0000 41.9774 0.0000
# 6 0.0000 0.0000 0.0000 0.0000 0.0000 33.6706
#
#
#
# Elastic Compliance Matrix: (Units=1/GPa)
#
#
# Indices 1 2 3 4 5 6 
#
# 1 0.012400 -0.001436 -0.002798 0.000000 0.000000 0.000000
# 2 -0.001436 0.006477 -0.000927 0.000000 0.000000 0.000000
# 3 -0.002798 -0.000927 0.007910 0.000000 0.000000 0.000000
# 4 0.000000 0.000000 0.000000 0.029787 0.000000 0.000000
# 5 0.000000 0.000000 0.000000 0.000000 0.023822 0.000000
# 6 0.000000 0.000000 0.000000 0.000000 0.000000 0.029699
#
#
# Mechanical properties :
#
#
# Convention : Reuss Voigt Hill
#
# Bulk Modulus (GPa) = 60.73064 63.95943 62.34504
# Shear Modulus (GPa) = 39.71257 42.43963 41.07610
#
# Velocity S-wave (km/s) = 3.87089 4.00159 3.93678
# Velocity P-wave (km/s) = 6.54923 6.74408 6.64737
#
# Compressibility (1/GPa) = 0.01646615
#
# Stress axis : x y z
#
# Youngs Moduli (GPa) = 80.64727 154.39309 126.41868
#
# Poissons Ratio (x) = 0.22167 0.35369
# Poissons Ratio (y) = 0.11579 0.11718
# Poissons Ratio (z) = 0.22563 0.14311
#
# Static dielectric constant tensor:
#      x y z
#    x 2.175890 0.000000 0.000000 
#    y 0.000000 2.231790 0.000000 
#    z 0.000000 0.000000 2.199270 
# 
# From -- ./inp_files/34912.got.cif
#   From: 2010.05.17/outbox.cif.g08.bks.cpg/sg70_18_cif.got.tgz:34912.got - 2010.06.03 15:57:51.
