data_PCOD9516439
_publ_section_title
;
Structure prediction by ZEFSAII (Michael W. Deem and Ramdas Pophale) SiO2 
 PCOD9516439
Probable space group: F D D D
;
_chemical_formula_sum "Si O2"
_cell_formula_units_Z 112
_cell_length_a 14.395322
_cell_length_b 28.785155
_cell_length_c 11.194685
_cell_angle_alpha 90.000000
_cell_angle_beta 90.000000
_cell_angle_gamma 90.000000
_cell_volume 4638.759256
_symmetry_space_group_name_H-M "F D D D"
_symmetry_group_IT_number 70
_space_group.IT_coordinate_system_code '2'
_symmetry_cell_setting 'orthorhombic'
loop_
_space_group_symop_operation_xyz
x,y,z
1/4-x,1/4-y,z
x,1/4-y,1/4-z
1/4-x,y,1/4-z
-x,-y,-z
3/4+x,3/4+y,-z
-x,3/4+y,3/4+z
3/4+x,-y,3/4+z
x,1/2+y,1/2+z
1/4-x,3/4-y,1/2+z
x,3/4-y,3/4-z
1/4-x,1/2+y,3/4-z
-x,1/2-y,1/2-z
3/4+x,1/4+y,1/2-z
-x,1/4+y,1/4+z
3/4+x,1/2-y,1/4+z
1/2+x,y,1/2+z
3/4-x,1/4-y,1/2+z
1/2+x,1/4-y,3/4-z
3/4-x,y,3/4-z
1/2-x,-y,1/2-z
1/4+x,3/4+y,1/2-z
1/2-x,3/4+y,1/4+z
1/4+x,-y,1/4+z
1/2+x,1/2+y,z
3/4-x,3/4-y,z
1/2+x,3/4-y,1/4-z
3/4-x,1/2+y,1/4-z
1/2-x,1/2-y,-z
1/4+x,1/4+y,-z
1/2-x,1/4+y,3/4+z
1/4+x,1/2-y,3/4+z
loop_
_atom_site_type_symbol
_atom_site_label
_atom_site_fract_x
_atom_site_fract_y
_atom_site_fract_z
Si Si1 0.426434 0.687375 0.066467
Si Si2 0.875000 0.111493 0.875000
Si Si3 0.787502 0.256096 0.134006
Si Si4 0.215219 0.697711 0.469032
O O1 0.344819 0.708396 0.149098
O O2 0.514212 0.675911 0.150543
O O3 0.386146 0.646062 0.987564
O O4 0.458311 0.729134 0.977167
O O5 0.783669 0.079787 0.867864
O O6 0.864220 0.296303 0.161541
O O7 0.750000 0.250000 0.000000
O O8 0.250000 0.750000 0.500000
#
# Coordination Sequence:
#
# PCOD9516439 Si02
#       4
#    32  16  32  32
#     4  11  24  45  75 114 154 203 266 328 404 484
#     4  12  24  48  72 116 155 201 274 346 384 498
#     4  11  22  45  74 108 150 201 252 325 409 491
#     4  10  26  42  76 103 151 206 262 321 417 475
#
# _framework density 24.144387999999999
#
# number of rings (size 3 to 8) (size 9 to 14) (size 15 to 20)
#    0.000    1.143    2.857    1.714   16.000    1.143 
#    0.000    2.857    0.000    3.429    0.000    0.000 
#    0.000    0.000    0.000    0.000    0.000    0.000 
#
# Total GULP energy -156222.681646 kJ/mol
# GULP energy per Si atom -5579.381487 kJ/mol
# Density = 2.408943 g / cm^3
# Si number density = 24.144388 Si / 1000 Ang^3
#
#
#
# Elastic Constant Matrix: (Units=GPa)
#
#
# Indices 1 2 3 4 5 6 
#
# 1 114.8962 41.8961 65.5604 0.0000 0.0000 0.0000
# 2 41.8961 124.5538 42.0494 0.0000 0.0000 0.0000
# 3 65.5604 42.0494 192.6768 0.0000 0.0000 0.0000
# 4 0.0000 0.0000 0.0000 43.6344 0.0000 0.0000
# 5 0.0000 0.0000 0.0000 0.0000 53.4675 0.0000
# 6 0.0000 0.0000 0.0000 0.0000 0.0000 49.0974
#
#
#
# Elastic Compliance Matrix: (Units=1/GPa)
#
#
# Indices 1 2 3 4 5 6 
#
# 1 0.011629 -0.002781 -0.003350 0.000000 0.000000 0.000000
# 2 -0.002781 0.009332 -0.001090 0.000000 0.000000 0.000000
# 3 -0.003350 -0.001090 0.006568 0.000000 0.000000 0.000000
# 4 0.000000 0.000000 0.000000 0.022918 0.000000 0.000000
# 5 0.000000 0.000000 0.000000 0.000000 0.018703 0.000000
# 6 0.000000 0.000000 0.000000 0.000000 0.000000 0.020368
#
#
# Mechanical properties :
#
#
# Convention : Reuss Voigt Hill
#
# Bulk Modulus (GPa) = 76.41362 81.23764 78.82563
# Shear Modulus (GPa) = 46.15867 48.08125 47.11996
#
# Velocity S-wave (km/s) = 4.37713 4.46736 4.42247
# Velocity P-wave (km/s) = 7.56723 7.76720 7.66787
#
# Compressibility (1/GPa) = 0.01308667
#
# Stress axis : x y z
#
# Youngs Moduli (GPa) = 85.99178 107.15663 152.25527
#
# Poissons Ratio (x) = 0.29797 0.51006
# Poissons Ratio (y) = 0.23911 0.16603
# Poissons Ratio (z) = 0.28808 0.11685
#
# Static dielectric constant tensor:
#      x y z
#    x 2.011450 0.000000 0.000000 
#    y 0.000000 2.013700 0.000000 
#    z 0.000000 0.000000 2.021000 
# 
# From -- ./inp_files/15030.got.cif
#   From: 2010.05.17/outbox.cif.g08.bks.cpg/sg70_8_cif.got.tgz:15030.got - 2010.06.03 15:57:51.
