data_PCOD9516441
_publ_section_title
;
Structure prediction by ZEFSAII (Michael W. Deem and Ramdas Pophale) SiO2 
 PCOD9516441
Probable space group: F D D D
;
_chemical_formula_sum "Si O2"
_cell_formula_units_Z 112
_cell_length_a 19.858029
_cell_length_b 18.853636
_cell_length_c 15.796013
_cell_angle_alpha 90.000000
_cell_angle_beta 90.000000
_cell_angle_gamma 90.000000
_cell_volume 5913.964880
_symmetry_space_group_name_H-M "F D D D"
_symmetry_group_IT_number 70
_space_group.IT_coordinate_system_code '2'
_symmetry_cell_setting 'orthorhombic'
loop_
_space_group_symop_operation_xyz
x,y,z
1/4-x,1/4-y,z
x,1/4-y,1/4-z
1/4-x,y,1/4-z
-x,-y,-z
3/4+x,3/4+y,-z
-x,3/4+y,3/4+z
3/4+x,-y,3/4+z
x,1/2+y,1/2+z
1/4-x,3/4-y,1/2+z
x,3/4-y,3/4-z
1/4-x,1/2+y,3/4-z
-x,1/2-y,1/2-z
3/4+x,1/4+y,1/2-z
-x,1/4+y,1/4+z
3/4+x,1/2-y,1/4+z
1/2+x,y,1/2+z
3/4-x,1/4-y,1/2+z
1/2+x,1/4-y,3/4-z
3/4-x,y,3/4-z
1/2-x,-y,1/2-z
1/4+x,3/4+y,1/2-z
1/2-x,3/4+y,1/4+z
1/4+x,-y,1/4+z
1/2+x,1/2+y,z
3/4-x,3/4-y,z
1/2+x,3/4-y,1/4-z
3/4-x,1/2+y,1/4-z
1/2-x,1/2-y,-z
1/4+x,1/4+y,-z
1/2-x,1/4+y,3/4+z
1/4+x,1/2-y,3/4+z
loop_
_atom_site_type_symbol
_atom_site_label
_atom_site_fract_x
_atom_site_fract_y
_atom_site_fract_z
Si Si1 0.908655 0.950632 0.461694
Si Si2 0.864443 0.018122 0.634018
Si Si3 0.757494 0.375000 0.375000
Si Si4 0.029996 0.375000 0.875000
Si Si5 0.625000 0.625000 0.260887
O O1 0.875000 0.978408 0.375000
O O2 0.875000 0.875000 0.482647
O O3 0.982791 0.924185 0.434120
O O4 0.890945 0.001142 0.539138
O O5 0.792864 0.057894 0.633011
O O6 0.919622 0.072013 0.673373
O O7 0.864233 0.944826 0.683425
O O8 0.808272 0.366571 0.296418
#
# Coordination Sequence:
#
# PCOD9516441 Si02
#       5
#    32  32  16  16  16
#     4   9  19  35  57  91 123 151 195 244 289 356
#     4  11  21  40  64  85 122 165 195 247 303 353
#     4  10  26  43  57  94 120 148 214 248 292 370
#     4   9  21  35  57  93 125 150 204 244 285 355
#     4  11  24  40  67  82 120 164 195 252 304 357
#
# _framework density 18.938226
#
# number of rings (size 3 to 8) (size 9 to 14) (size 15 to 20)
#    0.000    2.286    1.429    1.714    8.000    0.000 
#    0.000    0.000   12.571    0.000    0.000    0.000 
#    0.000    0.000    0.000    0.000    0.000    0.000 
#
# Total GULP energy -155984.962775 kJ/mol
# GULP energy per Si atom -5570.891528 kJ/mol
# Density = 1.889512 g / cm^3
# Si number density = 18.938226 Si / 1000 Ang^3
#
#
#
# Elastic Constant Matrix: (Units=GPa)
#
#
# Indices 1 2 3 4 5 6 
#
# 1 178.6771 76.9356 62.0355 0.0000 0.0000 0.0000
# 2 76.9356 124.9116 56.4711 0.0000 0.0000 0.0000
# 3 62.0355 56.4711 109.2627 0.0000 0.0000 0.0000
# 4 0.0000 0.0000 0.0000 11.8513 0.0000 0.0000
# 5 0.0000 0.0000 0.0000 0.0000 -397.6721 0.0000
# 6 0.0000 0.0000 0.0000 0.0000 0.0000 -7.0816
#
#
#
# Elastic Compliance Matrix: (Units=1/GPa)
#
#
# Indices 1 2 3 4 5 6 
#
# 1 0.008169 -0.003829 -0.002659 0.000000 0.000000 0.000000
# 2 -0.003829 0.012242 -0.004153 0.000000 0.000000 0.000000
# 3 -0.002659 -0.004153 0.012808 0.000000 0.000000 0.000000
# 4 0.000000 0.000000 0.000000 0.084379 0.000000 0.000000
# 5 0.000000 0.000000 0.000000 0.000000 -0.002515 0.000000
# 6 0.000000 0.000000 0.000000 0.000000 0.000000 -0.141210
#
#
# Mechanical properties :
#
#
# Convention : Reuss Voigt Hill
#
# Bulk Modulus (GPa) = 83.77502 89.30400 86.53951
# Shear Modulus (GPa) = -5763.30189 -64.08652 -2913.69421
#
# Velocity S-wave (km/s) = -55.22515 -5.82351 -39.26659
# Velocity P-wave (km/s) = 63.41996 1.42834 44.83331
#
# Compressibility (1/GPa) = 0.01193673
#
# Stress axis : x y z
#
# Youngs Moduli (GPa) = 122.42019 81.68867 78.07535
#
# Poissons Ratio (x) = 0.31280 0.20758
# Poissons Ratio (y) = 0.46877 0.32423
# Poissons Ratio (z) = 0.32548 0.33924
#
# Static dielectric constant tensor:
#      x y z
#    x 1.691120 0.000000 0.000000 
#    y 0.000000 1.665060 0.000000 
#    z 0.000000 0.000000 1.659150 
# 
# From -- ./inp_files/26267.got.cif
#   From: 2010.05.17/outbox.cif.g08.bks.cpg/sg70_14_cif.got.tgz:26267.got - 2010.06.03 15:57:51.
