data_PCOD9516967
_publ_section_title
;
Structure prediction by ZEFSAII (Michael W. Deem and Ramdas Pophale) SiO2 
 PCOD9516967
Probable space group: F D D D
;
_chemical_formula_sum "Si O2"
_cell_formula_units_Z 80
_cell_length_a 14.994202
_cell_length_b 11.906796
_cell_length_c 16.376971
_cell_angle_alpha 90.000000
_cell_angle_beta 90.000000
_cell_angle_gamma 90.000000
_cell_volume 2923.828198
_symmetry_space_group_name_H-M "F D D D"
_symmetry_group_IT_number 70
_space_group.IT_coordinate_system_code '2'
_symmetry_cell_setting 'orthorhombic'
loop_
_space_group_symop_operation_xyz
x,y,z
1/4-x,1/4-y,z
x,1/4-y,1/4-z
1/4-x,y,1/4-z
-x,-y,-z
3/4+x,3/4+y,-z
-x,3/4+y,3/4+z
3/4+x,-y,3/4+z
x,1/2+y,1/2+z
1/4-x,3/4-y,1/2+z
x,3/4-y,3/4-z
1/4-x,1/2+y,3/4-z
-x,1/2-y,1/2-z
3/4+x,1/4+y,1/2-z
-x,1/4+y,1/4+z
3/4+x,1/2-y,1/4+z
1/2+x,y,1/2+z
3/4-x,1/4-y,1/2+z
1/2+x,1/4-y,3/4-z
3/4-x,y,3/4-z
1/2-x,-y,1/2-z
1/4+x,3/4+y,1/2-z
1/2-x,3/4+y,1/4+z
1/4+x,-y,1/4+z
1/2+x,1/2+y,z
3/4-x,3/4-y,z
1/2+x,3/4-y,1/4-z
3/4-x,1/2+y,1/4-z
1/2-x,1/2-y,-z
1/4+x,1/4+y,-z
1/2-x,1/4+y,3/4+z
1/4+x,1/2-y,3/4+z
loop_
_atom_site_type_symbol
_atom_site_label
_atom_site_fract_x
_atom_site_fract_y
_atom_site_fract_z
Si Si1 0.875000 0.875000 0.561896
Si Si2 0.847604 0.244819 0.462809
Si Si3 0.249925 0.224777 0.679701
O O1 0.823626 0.968752 0.504417
O O2 0.795815 0.821317 0.620284
O O3 0.875000 0.196671 0.375000
O O4 0.875000 0.375000 0.459221
O O5 0.750000 0.250000 0.500000
O O6 0.910802 0.185518 0.525990
O O7 0.217503 0.125000 0.625000
#
# Coordination Sequence:
#
# PCOD9516967 Si02
#       3
#    16  32  32
#     4  12  29  56  85 124 166 226 278 346 417 506
#     4  11  26  47  78 115 157 208 271 335 406 488
#     4  12  28  50  84 119 169 215 281 340 424 492
#
# _framework density 27.361391000000001
#
# number of rings (size 3 to 8) (size 9 to 14) (size 15 to 20)
#    0.000    0.400    2.000    4.200   11.200    0.000 
#    0.000    0.000    0.000    0.000    0.000    0.000 
#    0.000    0.000    0.000    0.000    0.000    0.000 
#
# Total GULP energy -111337.911975 kJ/mol
# GULP energy per Si atom -5566.895599 kJ/mol
# Density = 2.729911 g / cm^3
# Si number density = 27.361391 Si / 1000 Ang^3
#
#
#
# Elastic Constant Matrix: (Units=GPa)
#
#
# Indices 1 2 3 4 5 6 
#
# 1 267.2697 60.5182 100.8984 0.0000 0.0000 0.0000
# 2 60.5182 107.0964 52.1494 0.0000 0.0000 0.0000
# 3 100.8984 52.1494 207.8820 0.0000 0.0000 0.0000
# 4 0.0000 0.0000 0.0000 7.7494 0.0000 0.0000
# 5 0.0000 0.0000 0.0000 0.0000 5.6257 0.0000
# 6 0.0000 0.0000 0.0000 0.0000 0.0000 42.4196
#
#
#
# Elastic Compliance Matrix: (Units=1/GPa)
#
#
# Indices 1 2 3 4 5 6 
#
# 1 0.004875 -0.001826 -0.001908 0.000000 0.000000 0.000000
# 2 -0.001826 0.011320 -0.001954 0.000000 0.000000 0.000000
# 3 -0.001908 -0.001954 0.006227 0.000000 0.000000 0.000000
# 4 0.000000 0.000000 0.000000 0.129043 0.000000 0.000000
# 5 0.000000 0.000000 0.000000 0.000000 0.177755 0.000000
# 6 0.000000 0.000000 0.000000 0.000000 0.000000 0.023574
#
#
# Mechanical properties :
#
#
# Convention : Reuss Voigt Hill
#
# Bulk Modulus (GPa) = 90.52222 112.15333 101.33778
# Shear Modulus (GPa) = 13.59243 35.73774 24.66509
#
# Velocity S-wave (km/s) = 2.23126 3.61797 3.00568
# Velocity P-wave (km/s) = 6.30823 7.65059 7.01161
#
# Compressibility (1/GPa) = 0.01104701
#
# Stress axis : x y z
#
# Youngs Moduli (GPa) = 205.11294 88.33609 160.59733
#
# Poissons Ratio (x) = 0.16128 0.30647
# Poissons Ratio (y) = 0.37448 0.31376
# Poissons Ratio (z) = 0.39142 0.17258
#
# Static dielectric constant tensor:
#      x y z
#    x 2.060710 0.000000 0.000000 
#    y 0.000000 2.672750 0.000000 
#    z 0.000000 0.000000 2.199050 
# 
# From -- ./inp_files/34246.got.cif
#   From: 2010.05.17/outbox.cif.g08.bks.cpg/sg70_18_cif.got.tgz:34246.got - 2010.06.03 15:57:51.
