data_PCOD9516842
_publ_section_title
;
Structure prediction by ZEFSAII (Michael W. Deem and Ramdas Pophale) SiO2 
 PCOD9516842
Probable space group: F D D D
;
_chemical_formula_sum "Si O2"
_cell_formula_units_Z 176
_cell_length_a 14.011112
_cell_length_b 24.003375
_cell_length_c 22.667069
_cell_angle_alpha 90.000000
_cell_angle_beta 90.000000
_cell_angle_gamma 90.000000
_cell_volume 7623.252088
_symmetry_space_group_name_H-M "F D D D"
_symmetry_group_IT_number 70
_space_group.IT_coordinate_system_code '2'
_symmetry_cell_setting 'orthorhombic'
loop_
_space_group_symop_operation_xyz
x,y,z
1/4-x,1/4-y,z
x,1/4-y,1/4-z
1/4-x,y,1/4-z
-x,-y,-z
3/4+x,3/4+y,-z
-x,3/4+y,3/4+z
3/4+x,-y,3/4+z
x,1/2+y,1/2+z
1/4-x,3/4-y,1/2+z
x,3/4-y,3/4-z
1/4-x,1/2+y,3/4-z
-x,1/2-y,1/2-z
3/4+x,1/4+y,1/2-z
-x,1/4+y,1/4+z
3/4+x,1/2-y,1/4+z
1/2+x,y,1/2+z
3/4-x,1/4-y,1/2+z
1/2+x,1/4-y,3/4-z
3/4-x,y,3/4-z
1/2-x,-y,1/2-z
1/4+x,3/4+y,1/2-z
1/2-x,3/4+y,1/4+z
1/4+x,-y,1/4+z
1/2+x,1/2+y,z
3/4-x,3/4-y,z
1/2+x,3/4-y,1/4-z
3/4-x,1/2+y,1/4-z
1/2-x,1/2-y,-z
1/4+x,1/4+y,-z
1/2-x,1/4+y,3/4+z
1/4+x,1/2-y,3/4+z
loop_
_atom_site_type_symbol
_atom_site_label
_atom_site_fract_x
_atom_site_fract_y
_atom_site_fract_z
Si Si1 0.935587 0.819629 0.214113
Si Si2 0.075925 0.685812 0.414232
Si Si3 0.295346 0.716264 0.553405
Si Si4 0.724318 0.771921 0.782306
Si Si5 0.330853 0.136658 0.559936
Si Si6 0.125000 0.716844 0.625000
O O1 0.875000 0.875000 0.206305
O O2 0.978422 0.810098 0.148611
O O3 0.857496 0.773173 0.230200
O O4 0.010009 0.833111 0.265214
O O5 0.125000 0.625000 0.422256
O O6 0.155843 0.734124 0.409369
O O7 0.015836 0.702799 0.471639
O O8 0.250000 0.750000 0.500000
O O9 0.375900 0.671620 0.537246
O O10 0.205178 0.687366 0.585428
O O11 0.670083 0.822089 0.815316
O O12 0.810598 0.752186 0.825186
O O13 0.289477 0.125000 0.625000
#
# Coordination Sequence:
#
# PCOD9516842 Si02
#       6
#    32  32  32  32  32  16
#     4  11  26  48  70 101 146 196 247 295 364 447
#     4  11  24  44  69 108 147 185 239 296 372 444
#     4  12  24  42  71 109 143 190 235 300 377 438
#     4  12  25  44  73 110 146 192 241 309 370 441
#     4  12  26  46  73 105 143 190 249 302 362 441
#     4  12  24  41  78 108 148 180 240 311 380 442
#
# _framework density 23.087259
#
# number of rings (size 3 to 8) (size 9 to 14) (size 15 to 20)
#    0.000    0.364    5.455    2.727    0.000    1.818 
#    0.000    1.818    0.000    0.000    0.000    0.000 
#    0.000    0.000    0.000    0.000    0.000    0.000 
#
# Total GULP energy -245713.574692 kJ/mol
# GULP energy per Si atom -5584.399425 kJ/mol
# Density = 2.303471 g / cm^3
# Si number density = 23.087259 Si / 1000 Ang^3
#
#
#
# Elastic Constant Matrix: (Units=GPa)
#
#
# Indices 1 2 3 4 5 6 
#
# 1 107.6162 49.0024 84.7917 0.0000 0.0000 0.0000
# 2 49.0024 138.8601 42.8882 0.0000 0.0000 0.0000
# 3 84.7917 42.8882 196.0709 0.0000 0.0000 0.0000
# 4 0.0000 0.0000 0.0000 59.2066 0.0000 0.0000
# 5 0.0000 0.0000 0.0000 0.0000 -73.9540 0.0000
# 6 0.0000 0.0000 0.0000 0.0000 0.0000 34.7055
#
#
#
# Elastic Compliance Matrix: (Units=1/GPa)
#
#
# Indices 1 2 3 4 5 6 
#
# 1 0.015678 -0.003688 -0.005973 0.000000 0.000000 0.000000
# 2 -0.003688 0.008591 -0.000284 0.000000 0.000000 0.000000
# 3 -0.005973 -0.000284 0.007746 0.000000 0.000000 0.000000
# 4 0.000000 0.000000 0.000000 0.016890 0.000000 0.000000
# 5 0.000000 0.000000 0.000000 0.000000 -0.013522 0.000000
# 6 0.000000 0.000000 0.000000 0.000000 0.000000 0.028814
#
#
# Mechanical properties :
#
#
# Convention : Reuss Voigt Hill
#
# Bulk Modulus (GPa) = 82.48496 88.43463 85.45980
# Shear Modulus (GPa) = 56.73568 21.71594 39.22581
#
# Velocity S-wave (km/s) = 4.96264 3.07025 4.12639
# Velocity P-wave (km/s) = 8.28505 7.13837 7.73299
#
# Compressibility (1/GPa) = 0.01212342
#
# Stress axis : x y z
#
# Youngs Moduli (GPa) = 63.78416 116.40553 129.10570
#
# Poissons Ratio (x) = 0.42926 0.77119
# Poissons Ratio (y) = 0.23521 0.03671
# Poissons Ratio (z) = 0.38100 0.03310
#
# Static dielectric constant tensor:
#      x y z
#    x 1.870300 0.000000 0.000000 
#    y 0.000000 1.895150 0.000000 
#    z 0.000000 0.000000 1.993020 
# 
# From -- ./inp_files/51190.got.cif
#   From: 2010.05.17/outbox.cif.g08.bks.cpg/sg70_26_cif.got.tgz:51190.got - 2010.06.03 15:57:51.
