data_PCOD9516176
_publ_section_title
;
Structure prediction by ZEFSAII (Michael W. Deem and Ramdas Pophale) SiO2 
 PCOD9516176
Probable space group: F D D D
;
_chemical_formula_sum "Si O2"
_cell_formula_units_Z 128
_cell_length_a 15.869807
_cell_length_b 14.698578
_cell_length_c 24.166153
_cell_angle_alpha 90.000000
_cell_angle_beta 90.000000
_cell_angle_gamma 90.000000
_cell_volume 5637.083751
_symmetry_space_group_name_H-M "F D D D"
_symmetry_group_IT_number 70
_space_group.IT_coordinate_system_code '2'
_symmetry_cell_setting 'orthorhombic'
loop_
_space_group_symop_operation_xyz
x,y,z
1/4-x,1/4-y,z
x,1/4-y,1/4-z
1/4-x,y,1/4-z
-x,-y,-z
3/4+x,3/4+y,-z
-x,3/4+y,3/4+z
3/4+x,-y,3/4+z
x,1/2+y,1/2+z
1/4-x,3/4-y,1/2+z
x,3/4-y,3/4-z
1/4-x,1/2+y,3/4-z
-x,1/2-y,1/2-z
3/4+x,1/4+y,1/2-z
-x,1/4+y,1/4+z
3/4+x,1/2-y,1/4+z
1/2+x,y,1/2+z
3/4-x,1/4-y,1/2+z
1/2+x,1/4-y,3/4-z
3/4-x,y,3/4-z
1/2-x,-y,1/2-z
1/4+x,3/4+y,1/2-z
1/2-x,3/4+y,1/4+z
1/4+x,-y,1/4+z
1/2+x,1/2+y,z
3/4-x,3/4-y,z
1/2+x,3/4-y,1/4-z
3/4-x,1/2+y,1/4-z
1/2-x,1/2-y,-z
1/4+x,1/4+y,-z
1/2-x,1/4+y,3/4+z
1/4+x,1/2-y,3/4+z
loop_
_atom_site_type_symbol
_atom_site_label
_atom_site_fract_x
_atom_site_fract_y
_atom_site_fract_z
Si Si1 0.625000 0.912887 0.625000
Si Si2 0.235172 0.276486 0.859200
Si Si3 0.768444 0.258249 0.236690
Si Si4 0.875000 0.875000 0.099059
Si Si5 0.924269 0.685116 0.267577
O O1 0.673676 0.851172 0.580856
O O2 0.695722 0.980444 0.649516
O O3 0.205014 0.375000 0.875000
O O4 0.281466 0.286352 0.800493
O O5 0.161188 0.203721 0.861829
O O6 0.808796 0.325352 0.191964
O O7 0.666458 0.265424 0.234872
O O8 0.810546 0.158081 0.232493
O O9 0.000000 0.750000 0.250000
#
# Coordination Sequence:
#
# PCOD9516176 Si02
#       5
#    16  32  32  16  32
#     4  10  23  44  69 102 142 186 249 312 361 448
#     4  11  25  43  72 102 144 193 243 305 377 440
#     4  11  26  43  72 102 143 195 241 308 375 442
#     4  12  26  48  69 110 156 181 258 310 372 456
#     4  11  24  44  70 102 144 192 246 303 371 447
#
# _framework density 22.706776999999999
#
# number of rings (size 3 to 8) (size 9 to 14) (size 15 to 20)
#    0.000    1.000    2.500    2.625   14.000    2.000 
#    0.000    2.500    0.000    0.000    0.000    0.000 
#    0.000    0.000    0.000    0.000    0.000    0.000 
#
# Total GULP energy -178482.545663 kJ/mol
# GULP energy per Si atom -5577.579552 kJ/mol
# Density = 2.265510 g / cm^3
# Si number density = 22.706777 Si / 1000 Ang^3
#
#
#
# Elastic Constant Matrix: (Units=GPa)
#
#
# Indices 1 2 3 4 5 6 
#
# 1 112.2939 26.5318 15.8921 0.0000 0.0000 0.0000
# 2 26.5318 131.1710 31.7772 0.0000 0.0000 0.0000
# 3 15.8921 31.7772 72.3950 0.0000 0.0000 0.0000
# 4 0.0000 0.0000 0.0000 28.5331 0.0000 0.0000
# 5 0.0000 0.0000 0.0000 0.0000 38.1323 0.0000
# 6 0.0000 0.0000 0.0000 0.0000 0.0000 38.2117
#
#
#
# Elastic Compliance Matrix: (Units=1/GPa)
#
#
# Indices 1 2 3 4 5 6 
#
# 1 0.009475 -0.001581 -0.001386 0.000000 0.000000 0.000000
# 2 -0.001581 0.008794 -0.003513 0.000000 0.000000 0.000000
# 3 -0.001386 -0.003513 0.015660 0.000000 0.000000 0.000000
# 4 0.000000 0.000000 0.000000 0.035047 0.000000 0.000000
# 5 0.000000 0.000000 0.000000 0.000000 0.026224 0.000000
# 6 0.000000 0.000000 0.000000 0.000000 0.000000 0.026170
#
#
# Mechanical properties :
#
#
# Convention : Reuss Voigt Hill
#
# Bulk Modulus (GPa) = 47.69003 51.58469 49.63736
# Shear Modulus (GPa) = 35.38067 37.08598 36.23332
#
# Velocity S-wave (km/s) = 3.95163 4.04574 3.99896
# Velocity P-wave (km/s) = 6.47060 6.67766 6.57494
#
# Compressibility (1/GPa) = 0.02096874
#
# Stress axis : x y z
#
# Youngs Moduli (GPa) = 105.54272 113.70765 63.85892
#
# Poissons Ratio (x) = 0.17973 0.08851
# Poissons Ratio (y) = 0.16683 0.22435
# Poissons Ratio (z) = 0.14629 0.39949
#
# Static dielectric constant tensor:
#      x y z
#    x 1.954870 0.000000 0.000000 
#    y 0.000000 1.865380 0.000000 
#    z 0.000000 0.000000 1.900990 
# 
# From -- ./inp_files/26370.got.cif
#   From: 2010.05.17/outbox.cif.g08.bks.cpg/sg70_14_cif.got.tgz:26370.got - 2010.06.03 15:57:51.
