data_PCOD9516784
_publ_section_title
;
Structure prediction by ZEFSAII (Michael W. Deem and Ramdas Pophale) SiO2 
 PCOD9516784
Probable space group: F D D D
;
_chemical_formula_sum "Si O2"
_cell_formula_units_Z 160
_cell_length_a 26.707740
_cell_length_b 8.629509
_cell_length_c 30.805373
_cell_angle_alpha 90.000000
_cell_angle_beta 90.000000
_cell_angle_gamma 90.000000
_cell_volume 7099.858568
_symmetry_space_group_name_H-M "F D D D"
_symmetry_group_IT_number 70
_space_group.IT_coordinate_system_code '2'
_symmetry_cell_setting 'orthorhombic'
loop_
_space_group_symop_operation_xyz
x,y,z
1/4-x,1/4-y,z
x,1/4-y,1/4-z
1/4-x,y,1/4-z
-x,-y,-z
3/4+x,3/4+y,-z
-x,3/4+y,3/4+z
3/4+x,-y,3/4+z
x,1/2+y,1/2+z
1/4-x,3/4-y,1/2+z
x,3/4-y,3/4-z
1/4-x,1/2+y,3/4-z
-x,1/2-y,1/2-z
3/4+x,1/4+y,1/2-z
-x,1/4+y,1/4+z
3/4+x,1/2-y,1/4+z
1/2+x,y,1/2+z
3/4-x,1/4-y,1/2+z
1/2+x,1/4-y,3/4-z
3/4-x,y,3/4-z
1/2-x,-y,1/2-z
1/4+x,3/4+y,1/2-z
1/2-x,3/4+y,1/4+z
1/4+x,-y,1/4+z
1/2+x,1/2+y,z
3/4-x,3/4-y,z
1/2+x,3/4-y,1/4-z
3/4-x,1/2+y,1/4-z
1/2-x,1/2-y,-z
1/4+x,1/4+y,-z
1/2-x,1/4+y,3/4+z
1/4+x,1/2-y,3/4+z
loop_
_atom_site_type_symbol
_atom_site_label
_atom_site_fract_x
_atom_site_fract_y
_atom_site_fract_z
Si Si1 0.684223 0.875000 0.375000
Si Si2 0.371545 0.688268 0.925352
Si Si3 0.375000 0.875000 0.066140
Si Si4 0.308917 0.098733 0.007605
Si Si5 0.285138 0.107224 0.486631
Si Si6 0.320673 0.833864 0.193532
O O1 0.652379 0.758140 0.405411
O O2 0.711975 0.754166 0.343013
O O3 0.375000 0.637001 0.875000
O O4 0.316812 0.640761 0.943836
O O5 0.375000 0.875000 0.926270
O O6 0.414349 0.633578 0.960266
O O7 0.412712 0.784748 0.034710
O O8 0.306679 0.254951 0.035311
O O9 0.252727 0.034607 0.008136
O O10 0.250000 0.250000 0.500000
O O11 0.327299 0.049526 0.520355
O O12 0.375000 0.875000 0.174307
#
# Coordination Sequence:
#
# PCOD9516784 Si02
#       6
#    16  32  16  32  32  32
#     4  12  22  40  68 102 136 191 237 296 386 448
#     4  11  23  45  74 107 151 197 254 319 381 456
#     4  12  20  40  67 100 144 186 231 310 378 442
#     4  12  23  45  72 105 145 200 252 307 389 470
#     4  12  24  46  75 106 142 204 256 306 390 472
#     4  12  24  44  72 100 150 194 242 313 391 455
#
# _framework density 22.535661000000001
#
# number of rings (size 3 to 8) (size 9 to 14) (size 15 to 20)
#    0.000    0.200    8.000    1.800    0.000    0.000 
#    7.200    2.000    8.800    0.000    0.000    0.000 
#    0.000    0.000    0.000    0.000    0.000    0.000 
#
# Total GULP energy -222986.947440 kJ/mol
# GULP energy per Si atom -5574.673686 kJ/mol
# Density = 2.248437 g / cm^3
# Si number density = 22.535661 Si / 1000 Ang^3
#
#
#
# Elastic Constant Matrix: (Units=GPa)
#
#
# Indices 1 2 3 4 5 6 
#
# 1 88.6553 43.1240 53.5247 0.0000 0.0000 0.0000
# 2 43.1240 138.0851 67.0146 0.0000 0.0000 0.0002
# 3 53.5247 67.0146 170.0189 0.0000 0.0000 0.0000
# 4 0.0000 0.0000 0.0000 49.5623 0.0000 0.0000
# 5 0.0000 0.0000 0.0000 0.0000 15.7156 0.0000
# 6 0.0000 0.0002 0.0000 0.0000 0.0000 8.2056
#
#
#
# Elastic Compliance Matrix: (Units=1/GPa)
#
#
# Indices 1 2 3 4 5 6 
#
# 1 0.014824 -0.002924 -0.003514 0.000000 0.000000 0.000000
# 2 -0.002924 0.009532 -0.002836 0.000000 0.000000 0.000000
# 3 -0.003514 -0.002836 0.008106 0.000000 0.000000 0.000000
# 4 0.000000 0.000000 0.000000 0.020177 0.000000 0.000000
# 5 0.000000 0.000000 0.000000 0.000000 0.063631 0.000000
# 6 0.000000 0.000000 0.000000 0.000000 0.000000 0.121868
#
#
# Mechanical properties :
#
#
# Convention : Reuss Voigt Hill
#
# Bulk Modulus (GPa) = 71.88020 80.45399 76.16710
# Shear Modulus (GPa) = 19.13338 30.23643 24.68491
#
# Velocity S-wave (km/s) = 2.91697 3.66692 3.31323
# Velocity P-wave (km/s) = 6.58106 7.32848 6.96480
#
# Compressibility (1/GPa) = 0.01391204
#
# Stress axis : x y z
#
# Youngs Moduli (GPa) = 67.46008 104.91380 123.36444
#
# Poissons Ratio (x) = 0.30676 0.43353
# Poissons Ratio (y) = 0.19725 0.34992
# Poissons Ratio (z) = 0.23707 0.29759
#
# Static dielectric constant tensor:
#      x y z
#    x 1.534280 -0.000010 0.000000 
#    y -0.000010 1.405040 0.000000 
#    z 0.000000 0.000000 1.909680 
# 
# From -- ./inp_files/12394.got.cif
#   From: 2010.05.17/outbox.cif.g08.bks.cpg/sg70_7_cif.got.tgz:12394.got - 2010.06.03 15:57:51.
