data_PCOD9516871
_publ_section_title
;
Structure prediction by ZEFSAII (Michael W. Deem and Ramdas Pophale) SiO2 
 PCOD9516871
Probable space group: F D D D
;
_chemical_formula_sum "Si O2"
_cell_formula_units_Z 104
_cell_length_a 25.341636
_cell_length_b 10.857039
_cell_length_c 14.526621
_cell_angle_alpha 90.000000
_cell_angle_beta 90.000000
_cell_angle_gamma 90.000000
_cell_volume 3996.783763
_symmetry_space_group_name_H-M "F D D D"
_symmetry_group_IT_number 70
_space_group.IT_coordinate_system_code '2'
_symmetry_cell_setting 'orthorhombic'
loop_
_space_group_symop_operation_xyz
x,y,z
1/4-x,1/4-y,z
x,1/4-y,1/4-z
1/4-x,y,1/4-z
-x,-y,-z
3/4+x,3/4+y,-z
-x,3/4+y,3/4+z
3/4+x,-y,3/4+z
x,1/2+y,1/2+z
1/4-x,3/4-y,1/2+z
x,3/4-y,3/4-z
1/4-x,1/2+y,3/4-z
-x,1/2-y,1/2-z
3/4+x,1/4+y,1/2-z
-x,1/4+y,1/4+z
3/4+x,1/2-y,1/4+z
1/2+x,y,1/2+z
3/4-x,1/4-y,1/2+z
1/2+x,1/4-y,3/4-z
3/4-x,y,3/4-z
1/2-x,-y,1/2-z
1/4+x,3/4+y,1/2-z
1/2-x,3/4+y,1/4+z
1/4+x,-y,1/4+z
1/2+x,1/2+y,z
3/4-x,3/4-y,z
1/2+x,3/4-y,1/4-z
3/4-x,1/2+y,1/4-z
1/2-x,1/2-y,-z
1/4+x,1/4+y,-z
1/2-x,1/4+y,3/4+z
1/4+x,1/2-y,3/4+z
loop_
_atom_site_type_symbol
_atom_site_label
_atom_site_fract_x
_atom_site_fract_y
_atom_site_fract_z
Si Si1 0.804314 0.979438 0.046429
Si Si2 0.542986 0.434563 0.599537
Si Si3 0.375000 0.875000 0.875000
Si Si4 0.675911 0.300940 0.462732
O O1 0.786742 0.068263 0.965163
O O2 0.764318 0.990548 0.131021
O O3 0.800673 0.834883 0.021152
O O4 0.864822 0.018164 0.060160
O O5 0.584873 0.538105 0.568480
O O6 0.566595 0.382964 0.696393
O O7 0.697171 0.375000 0.375000
#
# Coordination Sequence:
#
# PCOD9516871 Si02
#       4
#    32  32   8  32
#     4  11  25  45  77 107 147 196 244 307 371 449
#     4  12  25  48  71 110 146 197 246 309 373 444
#     4  12  28  44  74  96 148 196 242 322 364 446
#     4  11  24  46  73 112 147 194 244 307 369 450
#
# _framework density 26.020924000000001
#
# number of rings (size 3 to 8) (size 9 to 14) (size 15 to 20)
#    0.000    0.615    3.077    3.692    2.154    8.615 
#    0.000    0.000    0.000    0.000    0.000    0.000 
#    0.000    0.000    0.000    0.000    0.000    0.000 
#
# Total GULP energy -145807.320363 kJ/mol
# GULP energy per Si atom -5607.973860 kJ/mol
# Density = 2.596170 g / cm^3
# Si number density = 26.020924 Si / 1000 Ang^3
#
#
#
# Elastic Constant Matrix: (Units=GPa)
#
#
# Indices 1 2 3 4 5 6 
#
# 1 159.0609 49.8370 21.9133 0.0000 0.0000 0.0000
# 2 49.8370 194.2046 85.3760 0.0000 0.0000 0.0000
# 3 21.9133 85.3760 113.3431 0.0000 0.0000 0.0000
# 4 0.0000 0.0000 0.0000 56.8297 0.0000 0.0000
# 5 0.0000 0.0000 0.0000 0.0000 25.0211 0.0000
# 6 0.0000 0.0000 0.0000 0.0000 0.0000 44.2383
#
#
#
# Elastic Compliance Matrix: (Units=1/GPa)
#
#
# Indices 1 2 3 4 5 6 
#
# 1 0.006837 -0.001754 0.000000 0.000000 0.000000 0.000000
# 2 -0.001754 0.008149 -0.005799 0.000000 0.000000 0.000000
# 3 0.000000 -0.005799 0.013191 0.000000 0.000000 0.000000
# 4 0.000000 0.000000 0.000000 0.017596 0.000000 0.000000
# 5 0.000000 0.000000 0.000000 0.000000 0.039966 0.000000
# 6 0.000000 0.000000 0.000000 0.000000 0.000000 0.022605
#
#
# Mechanical properties :
#
#
# Convention : Reuss Voigt Hill
#
# Bulk Modulus (GPa) = 76.51595 86.76234 81.63915
# Shear Modulus (GPa) = 39.12151 45.84998 42.48574
#
# Velocity S-wave (km/s) = 3.88166 4.20222 4.04512
# Velocity P-wave (km/s) = 7.03982 7.54722 7.29793
#
# Compressibility (1/GPa) = 0.01306917
#
# Stress axis : x y z
#
# Youngs Moduli (GPa) = 146.27173 122.71948 75.81028
#
# Poissons Ratio (x) = 0.21528 0.00003
# Poissons Ratio (y) = 0.25660 0.43961
# Poissons Ratio (z) = 0.00005 0.71163
#
# Static dielectric constant tensor:
#      x y z
#    x 2.092200 0.000000 0.000000 
#    y 0.000000 2.015490 0.000000 
#    z 0.000000 0.000000 1.990100 
# 
# From -- ./inp_files/20204.got.cif
#   From: 2010.05.17/outbox.cif.g08.bks.cpg/sg70_11_cif.got.tgz:20204.got - 2010.06.03 15:57:51.
