data_PCOD9516648
_publ_section_title
;
Structure prediction by ZEFSAII (Michael W. Deem and Ramdas Pophale) SiO2 
 PCOD9516648
Probable space group: F D D D
;
_chemical_formula_sum "Si O2"
_cell_formula_units_Z 176
_cell_length_a 31.245263
_cell_length_b 11.587007
_cell_length_c 21.734048
_cell_angle_alpha 90.000000
_cell_angle_beta 90.000000
_cell_angle_gamma 90.000000
_cell_volume 7868.574766
_symmetry_space_group_name_H-M "F D D D"
_symmetry_group_IT_number 70
_space_group.IT_coordinate_system_code '2'
_symmetry_cell_setting 'orthorhombic'
loop_
_space_group_symop_operation_xyz
x,y,z
1/4-x,1/4-y,z
x,1/4-y,1/4-z
1/4-x,y,1/4-z
-x,-y,-z
3/4+x,3/4+y,-z
-x,3/4+y,3/4+z
3/4+x,-y,3/4+z
x,1/2+y,1/2+z
1/4-x,3/4-y,1/2+z
x,3/4-y,3/4-z
1/4-x,1/2+y,3/4-z
-x,1/2-y,1/2-z
3/4+x,1/4+y,1/2-z
-x,1/4+y,1/4+z
3/4+x,1/2-y,1/4+z
1/2+x,y,1/2+z
3/4-x,1/4-y,1/2+z
1/2+x,1/4-y,3/4-z
3/4-x,y,3/4-z
1/2-x,-y,1/2-z
1/4+x,3/4+y,1/2-z
1/2-x,3/4+y,1/4+z
1/4+x,-y,1/4+z
1/2+x,1/2+y,z
3/4-x,3/4-y,z
1/2+x,3/4-y,1/4-z
3/4-x,1/2+y,1/4-z
1/2-x,1/2-y,-z
1/4+x,1/4+y,-z
1/2-x,1/4+y,3/4+z
1/4+x,1/2-y,3/4+z
loop_
_atom_site_type_symbol
_atom_site_label
_atom_site_fract_x
_atom_site_fract_y
_atom_site_fract_z
Si Si1 0.835502 0.193129 0.698914
Si Si2 0.337512 0.125000 0.625000
Si Si3 0.875000 0.550329 0.375000
Si Si4 0.375000 0.375000 0.765118
Si Si5 0.945213 0.875000 0.375000
Si Si6 0.538559 0.851550 0.562571
Si Si7 0.125000 0.625000 0.211211
Si Si8 0.443870 0.882250 0.592696
O O1 0.878859 0.126594 0.681669
O O2 0.798947 0.134173 0.739975
O O3 0.851340 0.285589 0.747666
O O4 0.820846 0.267747 0.640219
O O5 0.314251 0.250857 0.629210
O O6 0.864128 0.476327 0.436222
O O7 0.919324 0.608651 0.399497
O O8 0.415079 0.360654 0.718755
O O9 0.969050 0.781847 0.415601
O O10 0.911400 0.814570 0.329064
O O11 0.493516 0.905784 0.579935
#
# Coordination Sequence:
#
# PCOD9516648 Si02
#       8
#    32  16  16  16  16  32  16  32
#     4  11  22  42  64  99 133 178 224 287 340 413
#     4  12  21  44  71  95 134 183 224 277 364 403
#     4  11  26  49  74  94 142 197 226 285 362 406
#     4  11  25  50  68 100 139 187 240 292 330 425
#     4   9  19  36  61 100 136 164 222 277 328 420
#     4  11  25  43  69 104 138 185 230 284 356 417
#     4   9  15  36  62  86 131 167 210 266 332 397
#     4  12  25  44  68 106 138 175 240 292 342 418
#
# _framework density 22.367456000000001
#
# number of rings (size 3 to 8) (size 9 to 14) (size 15 to 20)
#    0.000    1.091    3.636    3.818    2.545    0.727 
#    0.000    2.727    0.000    0.000    0.000    0.000 
#    0.000    0.000    0.000    0.000    0.000    0.000 
#
# Total GULP energy -245132.196476 kJ/mol
# GULP energy per Si atom -5571.186284 kJ/mol
# Density = 2.231655 g / cm^3
# Si number density = 22.367456 Si / 1000 Ang^3
#
#
#
# Elastic Constant Matrix: (Units=GPa)
#
#
# Indices 1 2 3 4 5 6 
#
# 1 139.8690 37.9127 52.5312 0.0000 0.0000 0.0000
# 2 37.9127 74.3589 31.5767 0.0000 0.0000 0.0000
# 3 52.5312 31.5767 140.5580 0.0000 0.0000 0.0000
# 4 0.0000 0.0000 0.0000 35.8635 0.0000 0.0000
# 5 0.0000 0.0000 0.0000 0.0000 67.0954 0.0000
# 6 0.0000 0.0000 0.0000 0.0000 0.0000 8.1140
#
#
#
# Elastic Compliance Matrix: (Units=1/GPa)
#
#
# Indices 1 2 3 4 5 6 
#
# 1 0.009083 -0.003526 -0.002602 0.000000 0.000000 0.000000
# 2 -0.003526 0.016235 -0.002330 0.000000 0.000000 0.000000
# 3 -0.002602 -0.002330 0.008610 0.000000 0.000000 0.000000
# 4 0.000000 0.000000 0.000000 0.027883 0.000000 0.000000
# 5 0.000000 0.000000 0.000000 0.000000 0.014904 0.000000
# 6 0.000000 0.000000 0.000000 0.000000 0.000000 0.123243
#
#
# Mechanical properties :
#
#
# Convention : Reuss Voigt Hill
#
# Bulk Modulus (GPa) = 58.77933 66.53635 62.65784
# Shear Modulus (GPa) = 22.46729 37.73228 30.09978
#
# Velocity S-wave (km/s) = 3.17277 4.11168 3.67235
# Velocity P-wave (km/s) = 6.30539 7.23552 6.78641
#
# Compressibility (1/GPa) = 0.01701278
#
# Stress axis : x y z
#
# Youngs Moduli (GPa) = 110.10023 61.59451 116.13796
#
# Poissons Ratio (x) = 0.21717 0.30224
# Poissons Ratio (y) = 0.38819 0.27055
# Poissons Ratio (z) = 0.28653 0.14349
#
# Static dielectric constant tensor:
#      x y z
#    x 1.899480 0.000000 0.000000 
#    y 0.000000 2.713570 0.000000 
#    z 0.000000 0.000000 1.852470 
# 
# From -- ./inp_files/55044.got.cif
#   From: 2010.05.17/outbox.cif.g08.bks.cpg/sg70_28_cif.got.tgz:55044.got - 2010.06.03 15:57:51.
