data_PCOD9516289
_publ_section_title
;
Structure prediction by ZEFSAII (Michael W. Deem and Ramdas Pophale) SiO2 
 PCOD9516289
Probable space group: F D D D
;
_chemical_formula_sum "Si O2"
_cell_formula_units_Z 64
_cell_length_a 4.531702
_cell_length_b 20.446947
_cell_length_c 27.340703
_cell_angle_alpha 90.000000
_cell_angle_beta 90.000000
_cell_angle_gamma 90.000000
_cell_volume 2533.375066
_symmetry_space_group_name_H-M "F D D D"
_symmetry_group_IT_number 70
_space_group.IT_coordinate_system_code '2'
_symmetry_cell_setting 'orthorhombic'
loop_
_space_group_symop_operation_xyz
x,y,z
1/4-x,1/4-y,z
x,1/4-y,1/4-z
1/4-x,y,1/4-z
-x,-y,-z
3/4+x,3/4+y,-z
-x,3/4+y,3/4+z
3/4+x,-y,3/4+z
x,1/2+y,1/2+z
1/4-x,3/4-y,1/2+z
x,3/4-y,3/4-z
1/4-x,1/2+y,3/4-z
-x,1/2-y,1/2-z
3/4+x,1/4+y,1/2-z
-x,1/4+y,1/4+z
3/4+x,1/2-y,1/4+z
1/2+x,y,1/2+z
3/4-x,1/4-y,1/2+z
1/2+x,1/4-y,3/4-z
3/4-x,y,3/4-z
1/2-x,-y,1/2-z
1/4+x,3/4+y,1/2-z
1/2-x,3/4+y,1/4+z
1/4+x,-y,1/4+z
1/2+x,1/2+y,z
3/4-x,3/4-y,z
1/2+x,3/4-y,1/4-z
3/4-x,1/2+y,1/4-z
1/2-x,1/2-y,-z
1/4+x,1/4+y,-z
1/2-x,1/4+y,3/4+z
1/4+x,1/2-y,3/4+z
loop_
_atom_site_type_symbol
_atom_site_label
_atom_site_fract_x
_atom_site_fract_y
_atom_site_fract_z
Si Si1 0.375000 0.875000 0.808092
Si Si2 0.624500 0.719867 0.200882
Si Si3 0.125000 0.327024 0.125000
O O1 0.608664 0.827165 0.783619
O O2 0.618092 0.928106 0.828486
O O3 0.500000 0.750000 0.250000
O O4 0.734583 0.778702 0.167171
O O5 0.375000 0.375000 0.105314
#
# Coordination Sequence:
#
# PCOD9516289 Si02
#       3
#    16  32  16
#     4  10  24  43  72  98 138 182 244 280 352 419
#     4  11  25  44  71 104 141 187 234 296 357 419
#     4  12  28  45  72 103 148 184 238 292 362 428
#
# _framework density 25.262740999999998
#
# number of rings (size 3 to 8) (size 9 to 14) (size 15 to 20)
#    0.000    1.000    0.000    4.500   10.500    6.000 
#    0.000    0.000    0.000    0.000    0.000    0.000 
#    0.000    0.000    0.000    0.000    0.000    0.000 
#
# Total GULP energy -89238.078436 kJ/mol
# GULP energy per Si atom -5577.379902 kJ/mol
# Density = 2.520524 g / cm^3
# Si number density = 25.262741 Si / 1000 Ang^3
#
#
#
# Elastic Constant Matrix: (Units=GPa)
#
#
# Indices 1 2 3 4 5 6 
#
# 1 154.5774 69.8202 0.9561 0.0000 0.0000 0.0000
# 2 69.8202 172.9619 45.0268 0.0000 0.0000 0.0000
# 3 0.9561 45.0268 80.3618 0.0000 0.0000 0.0000
# 4 0.0000 0.0000 0.0000 1.4871 0.0000 0.0000
# 5 0.0000 0.0000 0.0000 0.0000 22.9826 0.0000
# 6 0.0000 0.0000 0.0000 0.0000 0.0000 83.6800
#
#
#
# Elastic Compliance Matrix: (Units=1/GPa)
#
#
# Indices 1 2 3 4 5 6 
#
# 1 0.008192 -0.003842 0.002055 0.000000 0.000000 0.000000
# 2 -0.003842 0.008571 -0.004756 0.000000 0.000000 0.000000
# 3 0.002055 -0.004756 0.015084 0.000000 0.000000 0.000000
# 4 0.000000 0.000000 0.000000 0.672471 0.000000 0.000000
# 5 0.000000 0.000000 0.000000 0.000000 0.043511 0.000000
# 6 0.000000 0.000000 0.000000 0.000000 0.000000 0.011950
#
#
# Mechanical properties :
#
#
# Convention : Reuss Voigt Hill
#
# Bulk Modulus (GPa) = 53.30343 71.05635 62.17989
# Shear Modulus (GPa) = 6.41750 41.10315 23.76032
#
# Velocity S-wave (km/s) = 1.59556 4.03802 3.07013
# Velocity P-wave (km/s) = 4.95377 7.06603 6.10199
#
# Compressibility (1/GPa) = 0.01876052
#
# Stress axis : x y z
#
# Youngs Moduli (GPa) = 122.07276 116.67644 66.29393
#
# Poissons Ratio (x) = 0.44825 -0.13624
# Poissons Ratio (y) = 0.46898 0.31533
# Poissons Ratio (z) = -0.25088 0.55497
#
# Static dielectric constant tensor:
#      x y z
#    x 2.035180 0.000000 0.000000 
#    y 0.000000 2.048590 0.000000 
#    z 0.000000 0.000000 2.014590 
# 
# From -- ./inp_files/3659.got.cif
#   From: 2010.05.17/outbox.cif.g08.bks.cpg/sg70_2_cif.got.tgz:3659.got - 2010.06.03 15:57:51.
