data_PCOD9516119
_publ_section_title
;
Structure prediction by ZEFSAII (Michael W. Deem and Ramdas Pophale) SiO2 
 PCOD9516119
Probable space group: F D D D
;
_chemical_formula_sum "Si O2"
_cell_formula_units_Z 136
_cell_length_a 12.619653
_cell_length_b 15.806342
_cell_length_c 27.182194
_cell_angle_alpha 90.000000
_cell_angle_beta 90.000000
_cell_angle_gamma 90.000000
_cell_volume 5422.047221
_symmetry_space_group_name_H-M "F D D D"
_symmetry_group_IT_number 70
_space_group.IT_coordinate_system_code '2'
_symmetry_cell_setting 'orthorhombic'
loop_
_space_group_symop_operation_xyz
x,y,z
1/4-x,1/4-y,z
x,1/4-y,1/4-z
1/4-x,y,1/4-z
-x,-y,-z
3/4+x,3/4+y,-z
-x,3/4+y,3/4+z
3/4+x,-y,3/4+z
x,1/2+y,1/2+z
1/4-x,3/4-y,1/2+z
x,3/4-y,3/4-z
1/4-x,1/2+y,3/4-z
-x,1/2-y,1/2-z
3/4+x,1/4+y,1/2-z
-x,1/4+y,1/4+z
3/4+x,1/2-y,1/4+z
1/2+x,y,1/2+z
3/4-x,1/4-y,1/2+z
1/2+x,1/4-y,3/4-z
3/4-x,y,3/4-z
1/2-x,-y,1/2-z
1/4+x,3/4+y,1/2-z
1/2-x,3/4+y,1/4+z
1/4+x,-y,1/4+z
1/2+x,1/2+y,z
3/4-x,3/4-y,z
1/2+x,3/4-y,1/4-z
3/4-x,1/2+y,1/4-z
1/2-x,1/2-y,-z
1/4+x,1/4+y,-z
1/2-x,1/4+y,3/4+z
1/4+x,1/2-y,3/4+z
loop_
_atom_site_type_symbol
_atom_site_label
_atom_site_fract_x
_atom_site_fract_y
_atom_site_fract_z
Si Si1 0.125000 0.625000 0.625000
Si Si2 0.669225 0.245641 0.545963
Si Si3 0.481891 0.996186 0.764362
Si Si4 0.995738 0.527386 0.127209
Si Si5 0.210968 0.907970 0.706174
O O1 0.196411 0.688084 0.592134
O O2 0.750000 0.250000 0.500000
O O3 0.690767 0.042186 0.523530
O O4 0.627910 0.338789 0.563343
O O5 0.363408 0.026928 0.765668
O O6 0.531193 0.004040 0.818435
O O7 0.483788 0.900208 0.746253
O O8 0.958869 0.625000 0.125000
O O9 0.125000 0.530929 0.125000
O O10 0.972592 0.458155 0.084918
#
# Coordination Sequence:
#
# PCOD9516119 Si02
#       5
#     8  32  32  32  32
#     4  12  24  40  68  96 134 204 218 316 368 438
#     4  10  23  42  64  99 140 180 250 298 377 438
#     4   9  20  38  65  97 135 180 232 301 356 440
#     4   9  18  36  64  94 129 176 228 287 359 428
#     4   9  20  37  68  96 136 185 233 300 366 438
#
# _framework density 25.082775999999999
#
# number of rings (size 3 to 8) (size 9 to 14) (size 15 to 20)
#    1.412    1.176    0.000    1.412    4.941    0.941 
#    2.118    0.000    0.000    8.471    0.000    0.000 
#    0.000    0.000    0.000    0.000    0.000    0.000 
#
# Total GULP energy -189629.447197 kJ/mol
# GULP energy per Si atom -5577.336682 kJ/mol
# Density = 2.502569 g / cm^3
# Si number density = 25.082776 Si / 1000 Ang^3
#
#
#
# Elastic Constant Matrix: (Units=GPa)
#
#
# Indices 1 2 3 4 5 6 
#
# 1 46.2871 20.9010 21.8174 0.0000 0.0000 0.0000
# 2 20.9010 163.6915 83.9389 0.0000 0.0000 0.0000
# 3 21.8174 83.9389 143.3650 0.0000 0.0000 0.0000
# 4 0.0000 0.0000 0.0000 66.6571 0.0000 0.0000
# 5 0.0000 0.0000 0.0000 0.0000 26.6577 0.0000
# 6 0.0000 0.0000 0.0000 0.0000 0.0000 35.2682
#
#
#
# Elastic Compliance Matrix: (Units=1/GPa)
#
#
# Indices 1 2 3 4 5 6 
#
# 1 0.023590 -0.001674 -0.002610 0.000000 0.000000 0.000000
# 2 -0.001674 0.008849 -0.004926 0.000000 0.000000 0.000000
# 3 -0.002610 -0.004926 0.010257 0.000000 0.000000 0.000000
# 4 0.000000 0.000000 0.000000 0.015002 0.000000 0.000000
# 5 0.000000 0.000000 0.000000 0.000000 0.037513 0.000000
# 6 0.000000 0.000000 0.000000 0.000000 0.000000 0.028354
#
#
# Mechanical properties :
#
#
# Convention : Reuss Voigt Hill
#
# Bulk Modulus (GPa) = 41.19318 67.40644 54.29981
# Shear Modulus (GPa) = 33.31630 40.82902 37.07266
#
# Velocity S-wave (km/s) = 3.64848 4.03894 3.84866
# Velocity P-wave (km/s) = 5.84868 6.97730 6.43777
#
# Compressibility (1/GPa) = 0.02427586
#
# Stress axis : x y z
#
# Youngs Moduli (GPa) = 42.39027 113.00882 97.49770
#
# Poissons Ratio (x) = 0.18915 0.25447
# Poissons Ratio (y) = 0.07095 0.48029
# Poissons Ratio (z) = 0.11064 0.55671
#
# Static dielectric constant tensor:
#      x y z
#    x 2.077260 0.000000 0.000000 
#    y 0.000000 2.061110 0.000000 
#    z 0.000000 0.000000 2.027180 
# 
# From -- ./inp_files/42651.got.cif
#   From: 2010.05.17/outbox.cif.g08.bks.cpg/sg70_22_cif.got.tgz:42651.got - 2010.06.03 15:57:51.
