data_PCOD9516777
_publ_section_title
;
Structure prediction by ZEFSAII (Michael W. Deem and Ramdas Pophale) SiO2 
 PCOD9516777
Probable space group: F D D D
;
_chemical_formula_sum "Si O2"
_cell_formula_units_Z 168
_cell_length_a 28.085422
_cell_length_b 13.489653
_cell_length_c 19.978806
_cell_angle_alpha 90.000000
_cell_angle_beta 90.000000
_cell_angle_gamma 90.000000
_cell_volume 7569.222329
_symmetry_space_group_name_H-M "F D D D"
_symmetry_group_IT_number 70
_space_group.IT_coordinate_system_code '2'
_symmetry_cell_setting 'orthorhombic'
loop_
_space_group_symop_operation_xyz
x,y,z
1/4-x,1/4-y,z
x,1/4-y,1/4-z
1/4-x,y,1/4-z
-x,-y,-z
3/4+x,3/4+y,-z
-x,3/4+y,3/4+z
3/4+x,-y,3/4+z
x,1/2+y,1/2+z
1/4-x,3/4-y,1/2+z
x,3/4-y,3/4-z
1/4-x,1/2+y,3/4-z
-x,1/2-y,1/2-z
3/4+x,1/4+y,1/2-z
-x,1/4+y,1/4+z
3/4+x,1/2-y,1/4+z
1/2+x,y,1/2+z
3/4-x,1/4-y,1/2+z
1/2+x,1/4-y,3/4-z
3/4-x,y,3/4-z
1/2-x,-y,1/2-z
1/4+x,3/4+y,1/2-z
1/2-x,3/4+y,1/4+z
1/4+x,-y,1/4+z
1/2+x,1/2+y,z
3/4-x,3/4-y,z
1/2+x,3/4-y,1/4-z
3/4-x,1/2+y,1/4-z
1/2-x,1/2-y,-z
1/4+x,1/4+y,-z
1/2-x,1/4+y,3/4+z
1/4+x,1/2-y,3/4+z
loop_
_atom_site_type_symbol
_atom_site_label
_atom_site_fract_x
_atom_site_fract_y
_atom_site_fract_z
Si Si1 0.898719 0.048329 0.801498
Si Si2 0.625000 0.125000 0.125000
Si Si3 0.708775 0.977176 0.351673
Si Si4 0.692889 0.747485 0.534628
Si Si5 0.812684 0.582023 0.199890
Si Si6 0.784828 0.893433 0.018352
O O1 0.875000 0.038521 0.875000
O O2 0.938658 0.134887 0.798700
O O3 0.858183 0.086431 0.749518
O O4 0.924819 0.947711 0.776841
O O5 0.655260 0.196154 0.080088
O O6 0.686167 0.875000 0.375000
O O7 0.680281 0.027533 0.292090
O O8 0.756983 0.954644 0.310362
O O9 0.720027 0.040473 0.415719
O O10 0.820590 0.625000 0.125000
O O11 0.800048 0.464850 0.205209
O O12 0.765442 0.635145 0.229949
#
# Coordination Sequence:
#
# PCOD9516777 Si02
#       6
#    32   8  32  32  32  32
#     4  12  26  48  78 108 150 196 255 314 377 459
#     4  12  24  44  64 112 142 184 242 300 380 444
#     4  11  23  45  70 101 139 189 238 296 376 444
#     4  11  25  41  70 102 144 188 238 306 367 455
#     4  11  29  48  77 108 149 195 252 318 387 455
#     4  11  27  48  74 107 145 195 250 313 380 449
#
# _framework density 22.195148
#
# number of rings (size 3 to 8) (size 9 to 14) (size 15 to 20)
#    0.000    0.762    3.810    1.714   10.667    2.286 
#    0.000    0.000    0.000    0.000    0.000    0.000 
#    0.000    0.000    0.000    0.000    0.000    0.000 
#
# Total GULP energy -234709.712624 kJ/mol
# GULP energy per Si atom -5588.326491 kJ/mol
# Density = 2.214463 g / cm^3
# Si number density = 22.195148 Si / 1000 Ang^3
#
#
#
# Elastic Constant Matrix: (Units=GPa)
#
#
# Indices 1 2 3 4 5 6 
#
# 1 96.8618 27.4585 65.9214 0.0000 0.0000 0.0000
# 2 27.4585 88.2053 57.5679 0.0000 0.0000 0.0000
# 3 65.9214 57.5679 213.7869 0.0000 0.0000 0.0000
# 4 0.0000 0.0000 0.0000 34.3656 0.0000 0.0000
# 5 0.0000 0.0000 0.0000 0.0000 34.0691 0.0000
# 6 0.0000 0.0000 0.0000 0.0000 0.0000 34.6324
#
#
#
# Elastic Compliance Matrix: (Units=1/GPa)
#
#
# Indices 1 2 3 4 5 6 
#
# 1 0.013291 -0.001775 -0.003620 0.000000 0.000000 0.000000
# 2 -0.001775 0.013991 -0.003220 0.000000 0.000000 0.000000
# 3 -0.003620 -0.003220 0.006661 0.000000 0.000000 0.000000
# 4 0.000000 0.000000 0.000000 0.029099 0.000000 0.000000
# 5 0.000000 0.000000 0.000000 0.000000 0.029352 0.000000
# 6 0.000000 0.000000 0.000000 0.000000 0.000000 0.028875
#
#
# Mechanical properties :
#
#
# Convention : Reuss Voigt Hill
#
# Bulk Modulus (GPa) = 59.83473 77.86107 68.84790
# Shear Modulus (GPa) = 34.70513 37.14051 35.92282
#
# Velocity S-wave (km/s) = 3.95857 4.09511 4.02742
# Velocity P-wave (km/s) = 6.92176 7.58395 7.26041
#
# Compressibility (1/GPa) = 0.01671270
#
# Stress axis : x y z
#
# Youngs Moduli (GPa) = 75.23878 71.47235 150.12559
#
# Poissons Ratio (x) = 0.12684 0.54352
# Poissons Ratio (y) = 0.13352 0.48346
# Poissons Ratio (z) = 0.27240 0.23017
#
# Static dielectric constant tensor:
#      x y z
#    x 1.844210 0.000000 0.000000 
#    y 0.000000 1.811580 0.000000 
#    z 0.000000 0.000000 1.794180 
# 
# From -- ./inp_files/46794.got.cif
#   From: 2010.05.17/outbox.cif.g08.bks.cpg/sg70_24_cif.got.tgz:46794.got - 2010.06.03 15:57:51.
