data_PCOD9516823
_publ_section_title
;
Structure prediction by ZEFSAII (Michael W. Deem and Ramdas Pophale) SiO2 
 PCOD9516823
Probable space group: F D D D
;
_chemical_formula_sum "Si O2"
_cell_formula_units_Z 184
_cell_length_a 19.568373
_cell_length_b 14.058406
_cell_length_c 29.206453
_cell_angle_alpha 90.000000
_cell_angle_beta 90.000000
_cell_angle_gamma 90.000000
_cell_volume 8034.699087
_symmetry_space_group_name_H-M "F D D D"
_symmetry_group_IT_number 70
_space_group.IT_coordinate_system_code '2'
_symmetry_cell_setting 'orthorhombic'
loop_
_space_group_symop_operation_xyz
x,y,z
1/4-x,1/4-y,z
x,1/4-y,1/4-z
1/4-x,y,1/4-z
-x,-y,-z
3/4+x,3/4+y,-z
-x,3/4+y,3/4+z
3/4+x,-y,3/4+z
x,1/2+y,1/2+z
1/4-x,3/4-y,1/2+z
x,3/4-y,3/4-z
1/4-x,1/2+y,3/4-z
-x,1/2-y,1/2-z
3/4+x,1/4+y,1/2-z
-x,1/4+y,1/4+z
3/4+x,1/2-y,1/4+z
1/2+x,y,1/2+z
3/4-x,1/4-y,1/2+z
1/2+x,1/4-y,3/4-z
3/4-x,y,3/4-z
1/2-x,-y,1/2-z
1/4+x,3/4+y,1/2-z
1/2-x,3/4+y,1/4+z
1/4+x,-y,1/4+z
1/2+x,1/2+y,z
3/4-x,3/4-y,z
1/2+x,3/4-y,1/4-z
3/4-x,1/2+y,1/4-z
1/2-x,1/2-y,-z
1/4+x,1/4+y,-z
1/2-x,1/4+y,3/4+z
1/4+x,1/2-y,3/4+z
loop_
_atom_site_type_symbol
_atom_site_label
_atom_site_fract_x
_atom_site_fract_y
_atom_site_fract_z
Si Si1 0.125000 0.125000 0.625000
Si Si2 0.194037 0.775886 0.402588
Si Si3 0.344737 0.509395 0.825503
Si Si4 0.664833 0.758857 0.270020
Si Si5 0.936246 0.522015 0.806034
Si Si6 0.324657 0.015851 0.730876
Si Si7 0.375000 0.875000 0.656729
O O1 0.076143 0.193647 0.595096
O O2 0.178160 0.875000 0.375000
O O3 0.269058 0.784539 0.424161
O O4 0.144178 0.742353 0.443241
O O5 0.183300 0.686730 0.368647
O O6 0.375000 0.485383 0.875000
O O7 0.390671 0.483354 0.781327
O O8 0.336265 0.623810 0.822552
O O9 0.737560 0.719240 0.286041
O O10 0.671075 0.872164 0.274682
O O11 0.885375 0.490386 0.765604
O O12 0.335921 0.953693 0.686263
O O13 0.250000 0.000000 0.750000
#
# Coordination Sequence:
#
# PCOD9516823 Si02
#       7
#     8  32  32  32  32  32  16
#     4  12  22  40  72 112 162 176 246 290 384 444
#     4  12  27  48  72 111 143 200 255 308 373 455
#     4  11  27  48  76 102 144 197 250 309 373 439
#     4  11  25  47  71 105 151 187 250 307 370 441
#     4  11  25  42  72 112 147 194 239 304 370 450
#     4  11  24  42  71 108 150 196 239 301 378 445
#     4  12  25  44  78 107 153 190 250 307 380 442
#
# _framework density 22.900670999999999
#
# number of rings (size 3 to 8) (size 9 to 14) (size 15 to 20)
#    0.000    0.696    2.609    4.174    8.522    3.130 
#    0.000    3.478    0.000    0.000    0.000    0.000 
#    0.000    0.000    0.000    0.000    0.000    0.000 
#
# Total GULP energy -257428.834967 kJ/mol
# GULP energy per Si atom -5596.279021 kJ/mol
# Density = 2.284855 g / cm^3
# Si number density = 22.900671 Si / 1000 Ang^3
#
#
#
# Elastic Constant Matrix: (Units=GPa)
#
#
# Indices 1 2 3 4 5 6 
#
# 1 164.8398 1.9054 65.8326 0.0000 0.0000 0.0000
# 2 1.9054 106.2230 28.4105 0.0000 0.0000 0.0000
# 3 65.8326 28.4105 123.9940 0.0000 0.0000 0.0000
# 4 0.0000 0.0000 0.0000 -16.2909 0.0000 0.0000
# 5 0.0000 0.0000 0.0000 0.0000 41.4408 0.0000
# 6 0.0000 0.0000 0.0000 0.0000 0.0000 17.8886
#
#
#
# Elastic Compliance Matrix: (Units=1/GPa)
#
#
# Indices 1 2 3 4 5 6 
#
# 1 0.007804 0.001031 -0.004380 0.000000 0.000000 0.000000
# 2 0.001031 0.010165 -0.002877 0.000000 0.000000 0.000000
# 3 -0.004380 -0.002877 0.011049 0.000000 0.000000 0.000000
# 4 0.000000 0.000000 0.000000 -0.061384 0.000000 0.000000
# 5 0.000000 0.000000 0.000000 0.000000 0.024131 0.000000
# 6 0.000000 0.000000 0.000000 0.000000 0.000000 0.055902
#
#
# Mechanical properties :
#
#
# Convention : Reuss Voigt Hill
#
# Bulk Modulus (GPa) = 60.35632 65.26156 62.80894
# Shear Modulus (GPa) = 76.17445 28.53492 52.35469
#
# Velocity S-wave (km/s) = 5.77366 3.53374 4.78657
# Velocity P-wave (km/s) = 8.41783 6.72379 7.61804
#
# Compressibility (1/GPa) = 0.01656827
#
# Stress axis : x y z
#
# Youngs Moduli (GPa) = 128.14525 98.37619 90.50364
#
# Poissons Ratio (x) = -0.10146 0.39636
# Poissons Ratio (y) = -0.13217 0.26035
# Poissons Ratio (z) = 0.56122 0.28300
#
# Static dielectric constant tensor:
#      x y z
#    x 1.802150 0.000000 0.000000 
#    y 0.000000 1.835870 0.000000 
#    z 0.000000 0.000000 1.861530 
# 
# From -- ./inp_files/60394.got.cif
#   From: 2010.05.17/outbox.cif.g08.bks.cpg/sg70_31_cif.got.tgz:60394.got - 2010.06.03 15:57:51.
