data_PCOD9516620
_publ_section_title
;
Structure prediction by ZEFSAII (Michael W. Deem and Ramdas Pophale) SiO2 
 PCOD9516620
Probable space group: F D D D
;
_chemical_formula_sum "Si O2"
_cell_formula_units_Z 112
_cell_length_a 11.732753
_cell_length_b 16.586174
_cell_length_c 24.463105
_cell_angle_alpha 90.000000
_cell_angle_beta 90.000000
_cell_angle_gamma 90.000000
_cell_volume 4760.556506
_symmetry_space_group_name_H-M "F D D D"
_symmetry_group_IT_number 70
_space_group.IT_coordinate_system_code '2'
_symmetry_cell_setting 'orthorhombic'
loop_
_space_group_symop_operation_xyz
x,y,z
1/4-x,1/4-y,z
x,1/4-y,1/4-z
1/4-x,y,1/4-z
-x,-y,-z
3/4+x,3/4+y,-z
-x,3/4+y,3/4+z
3/4+x,-y,3/4+z
x,1/2+y,1/2+z
1/4-x,3/4-y,1/2+z
x,3/4-y,3/4-z
1/4-x,1/2+y,3/4-z
-x,1/2-y,1/2-z
3/4+x,1/4+y,1/2-z
-x,1/4+y,1/4+z
3/4+x,1/2-y,1/4+z
1/2+x,y,1/2+z
3/4-x,1/4-y,1/2+z
1/2+x,1/4-y,3/4-z
3/4-x,y,3/4-z
1/2-x,-y,1/2-z
1/4+x,3/4+y,1/2-z
1/2-x,3/4+y,1/4+z
1/4+x,-y,1/4+z
1/2+x,1/2+y,z
3/4-x,3/4-y,z
1/2+x,3/4-y,1/4-z
3/4-x,1/2+y,1/4-z
1/2-x,1/2-y,-z
1/4+x,1/4+y,-z
1/2-x,1/4+y,3/4+z
1/4+x,1/2-y,3/4+z
loop_
_atom_site_type_symbol
_atom_site_label
_atom_site_fract_x
_atom_site_fract_y
_atom_site_fract_z
Si Si1 0.376614 0.966190 0.246909
Si Si2 0.251109 0.626560 0.225989
Si Si3 0.625000 0.625000 0.834871
Si Si4 0.554895 0.455100 0.839302
O O1 0.375000 0.875000 0.226042
O O2 0.437195 0.962258 0.306408
O O3 0.250000 0.000000 0.250000
O O4 0.450996 0.033838 0.217092
O O5 0.228088 0.612369 0.290688
O O6 0.343748 0.564982 0.203709
O O7 0.125000 0.625000 0.200546
O O8 0.590024 0.541895 0.864057
O O9 0.549973 0.375000 0.875000
#
# Coordination Sequence:
#
# PCOD9516620 Si02
#       4
#    32  32  16  32
#     4  11  22  40  65 100 131 184 240 284 345 423
#     4   9  20  38  69  95 131 179 235 280 341 429
#     4   8  20  38  67  92 130 180 224 274 339 432
#     4  11  22  39  65 102 140 179 229 302 358 400
#
# _framework density 23.526662000000002
#
# number of rings (size 3 to 8) (size 9 to 14) (size 15 to 20)
#    0.857    1.143    2.857    0.857    0.000    1.143 
#    2.571    0.000    0.000    3.429    0.000    0.000 
#    0.000    0.000    0.000    0.000    0.000    0.000 
#
# Total GULP energy -156309.791840 kJ/mol
# GULP energy per Si atom -5582.492566 kJ/mol
# Density = 2.347311 g / cm^3
# Si number density = 23.526662 Si / 1000 Ang^3
#
#
#
# Elastic Constant Matrix: (Units=GPa)
#
#
# Indices 1 2 3 4 5 6 
#
# 1 183.8307 86.1250 28.8178 0.0000 0.0000 0.0000
# 2 86.1250 257.9434 40.9236 0.0000 0.0000 0.0000
# 3 28.8178 40.9236 49.4195 0.0000 0.0000 0.0000
# 4 0.0000 0.0000 0.0000 44.1211 0.0000 0.0000
# 5 0.0000 0.0000 0.0000 0.0000 8.5021 0.0000
# 6 0.0000 0.0000 0.0000 0.0000 0.0000 50.8451
#
#
#
# Elastic Compliance Matrix: (Units=1/GPa)
#
#
# Indices 1 2 3 4 5 6 
#
# 1 0.006679 -0.001856 -0.002358 0.000000 0.000000 0.000000
# 2 -0.001856 0.004979 -0.003041 0.000000 0.000000 0.000000
# 3 -0.002358 -0.003041 0.024128 0.000000 0.000000 0.000000
# 4 0.000000 0.000000 0.000000 0.022665 0.000000 0.000000
# 5 0.000000 0.000000 0.000000 0.000000 0.117618 0.000000
# 6 0.000000 0.000000 0.000000 0.000000 0.000000 0.019668
#
#
# Mechanical properties :
#
#
# Convention : Reuss Voigt Hill
#
# Bulk Modulus (GPa) = 46.99964 89.21405 68.10685
# Shear Modulus (GPa) = 23.00575 43.04881 33.02728
#
# Velocity S-wave (km/s) = 3.13047 4.28224 3.75083
# Velocity P-wave (km/s) = 5.75213 7.90271 6.91158
#
# Compressibility (1/GPa) = 0.02127676
#
# Stress axis : x y z
#
# Youngs Moduli (GPa) = 149.72480 200.84629 41.44595
#
# Poissons Ratio (x) = 0.37276 0.09772
# Poissons Ratio (y) = 0.27788 0.12603
# Poissons Ratio (z) = 0.35302 0.61072
#
# Static dielectric constant tensor:
#      x y z
#    x 1.713330 0.000000 0.000000 
#    y 0.000000 1.886890 0.000000 
#    z 0.000000 0.000000 1.980600 
# 
# From -- ./inp_files/64494.got.cif
#   From: 2010.05.17/outbox.cif.g08.bks.cpg/sg70_33_cif.got.tgz:64494.got - 2010.06.03 15:57:51.
