data_PCOD9516396
_publ_section_title
;
Structure prediction by ZEFSAII (Michael W. Deem and Ramdas Pophale) SiO2 
 PCOD9516396
Probable space group: F D D D
;
_chemical_formula_sum "Si O2"
_cell_formula_units_Z 136
_cell_length_a 17.280194
_cell_length_b 13.904453
_cell_length_c 24.877673
_cell_angle_alpha 90.000000
_cell_angle_beta 90.000000
_cell_angle_gamma 90.000000
_cell_volume 5977.399423
_symmetry_space_group_name_H-M "F D D D"
_symmetry_group_IT_number 70
_space_group.IT_coordinate_system_code '2'
_symmetry_cell_setting 'orthorhombic'
loop_
_space_group_symop_operation_xyz
x,y,z
1/4-x,1/4-y,z
x,1/4-y,1/4-z
1/4-x,y,1/4-z
-x,-y,-z
3/4+x,3/4+y,-z
-x,3/4+y,3/4+z
3/4+x,-y,3/4+z
x,1/2+y,1/2+z
1/4-x,3/4-y,1/2+z
x,3/4-y,3/4-z
1/4-x,1/2+y,3/4-z
-x,1/2-y,1/2-z
3/4+x,1/4+y,1/2-z
-x,1/4+y,1/4+z
3/4+x,1/2-y,1/4+z
1/2+x,y,1/2+z
3/4-x,1/4-y,1/2+z
1/2+x,1/4-y,3/4-z
3/4-x,y,3/4-z
1/2-x,-y,1/2-z
1/4+x,3/4+y,1/2-z
1/2-x,3/4+y,1/4+z
1/4+x,-y,1/4+z
1/2+x,1/2+y,z
3/4-x,3/4-y,z
1/2+x,3/4-y,1/4-z
3/4-x,1/2+y,1/4-z
1/2-x,1/2-y,-z
1/4+x,1/4+y,-z
1/2-x,1/4+y,3/4+z
1/4+x,1/2-y,3/4+z
loop_
_atom_site_type_symbol
_atom_site_label
_atom_site_fract_x
_atom_site_fract_y
_atom_site_fract_z
Si Si1 0.801030 0.165252 0.474685
Si Si2 0.207458 0.645567 0.877314
Si Si3 0.125000 0.125000 0.625000
Si Si4 0.748809 0.307594 0.944848
Si Si5 0.481631 0.527686 0.770318
O O1 0.750000 0.250000 0.500000
O O2 0.772023 0.131059 0.416023
O O3 0.888908 0.206779 0.470461
O O4 0.777403 0.072434 0.511593
O O5 0.125000 0.625000 0.850882
O O6 0.197353 0.752915 0.901773
O O7 0.226002 0.582457 0.930573
O O8 0.170599 0.055738 0.664502
O O9 0.750000 0.250000 0.000000
O O10 0.738345 0.416023 0.963413
#
# Coordination Sequence:
#
# PCOD9516396 Si02
#       5
#    32  32   8  32  32
#     4  12  26  46  69 100 142 193 246 299 363 442
#     4  11  24  43  70 102 141 183 239 296 370 443
#     4  12  24  40  68 104 140 186 226 292 368 434
#     4  10  25  38  71 101 141 172 231 289 373 431
#     4  11  25  44  72 101 145 185 242 304 370 445
#
# _framework density 22.752369999999999
#
# number of rings (size 3 to 8) (size 9 to 14) (size 15 to 20)
#    0.000    0.941    0.000    5.647   19.765    0.941 
#    0.000    7.059    0.000    0.000    0.000    0.000 
#    0.000    0.000    0.000    0.000    0.000    0.000 
#
# Total GULP energy -189496.523621 kJ/mol
# GULP energy per Si atom -5573.427165 kJ/mol
# Density = 2.270058 g / cm^3
# Si number density = 22.752370 Si / 1000 Ang^3
#
#
#
# Elastic Constant Matrix: (Units=GPa)
#
#
# Indices 1 2 3 4 5 6 
#
# 1 98.9213 -18.0672 0.0236 0.0000 0.0000 0.0000
# 2 -18.0672 83.2291 11.2741 0.0000 0.0000 0.0000
# 3 0.0236 11.2741 116.0282 0.0000 0.0000 0.0000
# 4 0.0000 0.0000 0.0000 18.5903 0.0000 0.0000
# 5 0.0000 0.0000 0.0000 0.0000 89.1822 0.0000
# 6 0.0000 0.0000 0.0000 0.0000 0.0000 25.9948
#
#
#
# Elastic Compliance Matrix: (Units=1/GPa)
#
#
# Indices 1 2 3 4 5 6 
#
# 1 0.010532 0.002317 -0.000227 0.000000 0.000000 0.000000
# 2 0.002317 0.012685 -0.001233 0.000000 0.000000 0.000000
# 3 -0.000227 -0.001233 0.008738 0.000000 0.000000 0.000000
# 4 0.000000 0.000000 0.000000 0.053792 0.000000 0.000000
# 5 0.000000 0.000000 0.000000 0.000000 0.011213 0.000000
# 6 0.000000 0.000000 0.000000 0.000000 0.000000 0.038469
#
#
# Mechanical properties :
#
#
# Convention : Reuss Voigt Hill
#
# Bulk Modulus (GPa) = 29.70058 31.62664 30.66361
# Shear Modulus (GPa) = 34.49722 47.08332 40.79027
#
# Velocity S-wave (km/s) = 3.89807 4.55398 4.23873
# Velocity P-wave (km/s) = 5.77426 6.44843 6.12063
#
# Compressibility (1/GPa) = 0.03366938
#
# Stress axis : x y z
#
# Youngs Moduli (GPa) = 94.94596 78.83291 114.43679
#
# Poissons Ratio (x) = -0.18267 0.02601
# Poissons Ratio (y) = -0.22000 0.14111
# Poissons Ratio (z) = 0.02158 0.09720
#
# Static dielectric constant tensor:
#      x y z
#    x 1.913320 0.000000 0.000000 
#    y 0.000000 2.046100 0.000000 
#    z 0.000000 0.000000 1.790650 
# 
# From -- ./inp_files/60222.got.cif
#   From: 2010.05.17/outbox.cif.g08.bks.cpg/sg70_31_cif.got.tgz:60222.got - 2010.06.03 15:57:51.
