data_PCOD9516457
_publ_section_title
;
Structure prediction by ZEFSAII (Michael W. Deem and Ramdas Pophale) SiO2 
 PCOD9516457
Probable space group: F D D D
;
_chemical_formula_sum "Si O2"
_cell_formula_units_Z 136
_cell_length_a 15.994476
_cell_length_b 19.041973
_cell_length_c 19.783259
_cell_angle_alpha 90.000000
_cell_angle_beta 90.000000
_cell_angle_gamma 90.000000
_cell_volume 6025.315581
_symmetry_space_group_name_H-M "F D D D"
_symmetry_group_IT_number 70
_space_group.IT_coordinate_system_code '2'
_symmetry_cell_setting 'orthorhombic'
loop_
_space_group_symop_operation_xyz
x,y,z
1/4-x,1/4-y,z
x,1/4-y,1/4-z
1/4-x,y,1/4-z
-x,-y,-z
3/4+x,3/4+y,-z
-x,3/4+y,3/4+z
3/4+x,-y,3/4+z
x,1/2+y,1/2+z
1/4-x,3/4-y,1/2+z
x,3/4-y,3/4-z
1/4-x,1/2+y,3/4-z
-x,1/2-y,1/2-z
3/4+x,1/4+y,1/2-z
-x,1/4+y,1/4+z
3/4+x,1/2-y,1/4+z
1/2+x,y,1/2+z
3/4-x,1/4-y,1/2+z
1/2+x,1/4-y,3/4-z
3/4-x,y,3/4-z
1/2-x,-y,1/2-z
1/4+x,3/4+y,1/2-z
1/2-x,3/4+y,1/4+z
1/4+x,-y,1/4+z
1/2+x,1/2+y,z
3/4-x,3/4-y,z
1/2+x,3/4-y,1/4-z
3/4-x,1/2+y,1/4-z
1/2-x,1/2-y,-z
1/4+x,1/4+y,-z
1/2-x,1/4+y,3/4+z
1/4+x,1/2-y,3/4+z
loop_
_atom_site_type_symbol
_atom_site_label
_atom_site_fract_x
_atom_site_fract_y
_atom_site_fract_z
Si Si1 0.594031 0.375000 0.875000
Si Si2 0.125000 0.125000 0.625000
Si Si3 0.783187 0.624418 0.872416
Si Si4 0.875000 0.375000 0.544303
Si Si5 0.804027 0.968949 0.822983
Si Si6 0.236463 0.921521 0.774002
O O1 0.532944 0.317483 0.842102
O O2 0.652434 0.342873 0.933484
O O3 0.187607 0.087019 0.674967
O O4 0.875000 0.587888 0.875000
O O5 0.701258 0.594755 0.910268
O O6 0.796873 0.698172 0.911730
O O7 0.762326 0.628117 0.792594
O O8 0.838510 0.312641 0.497056
O O9 0.875000 0.946680 0.875000
O O10 0.250000 0.000000 0.750000
#
# Coordination Sequence:
#
# PCOD9516457 Si02
#       6
#    16   8  32  16  32  32
#     4  11  23  47  77 106 142 198 251 307 379 439
#     4  10  26  52  70 106 142 196 244 302 376 432
#     4  11  27  45  72 114 148 200 248 311 386 457
#     4  12  22  44  74 106 150 192 244 310 378 442
#     4  11  23  46  72 109 151 189 249 313 376 448
#     4  11  27  49  75 106 148 195 250 307 375 457
#
# _framework density 22.571431
#
# number of rings (size 3 to 8) (size 9 to 14) (size 15 to 20)
#    0.000    0.941    2.353    2.824    8.235    1.882 
#    8.471    0.000    0.000    0.000    0.000    0.000 
#    0.000    0.000    0.000    0.000    0.000    0.000 
#
# Total GULP energy -189847.140820 kJ/mol
# GULP energy per Si atom -5583.739436 kJ/mol
# Density = 2.252006 g / cm^3
# Si number density = 22.571431 Si / 1000 Ang^3
#
#
#
# Elastic Constant Matrix: (Units=GPa)
#
#
# Indices 1 2 3 4 5 6 
#
# 1 202.9465 36.3629 106.1656 0.0000 0.0000 0.0000
# 2 36.3629 63.6714 40.2765 0.0000 0.0000 0.0000
# 3 106.1656 40.2765 183.6539 0.0000 0.0000 0.0000
# 4 0.0000 0.0000 0.0000 14.4967 0.0000 0.0000
# 5 0.0000 0.0000 0.0000 0.0000 66.6763 0.0000
# 6 0.0000 0.0000 0.0000 0.0000 0.0000 -11.4303
#
#
#
# Elastic Compliance Matrix: (Units=1/GPa)
#
#
# Indices 1 2 3 4 5 6 
#
# 1 0.007223 -0.001723 -0.003797 0.000000 0.000000 0.000000
# 2 -0.001723 0.018646 -0.003093 0.000000 0.000000 0.000000
# 3 -0.003797 -0.003093 0.008319 0.000000 0.000000 0.000000
# 4 0.000000 0.000000 0.000000 0.068981 0.000000 0.000000
# 5 0.000000 0.000000 0.000000 0.000000 0.014998 0.000000
# 6 0.000000 0.000000 0.000000 0.000000 0.000000 -0.087487
#
#
# Mechanical properties :
#
#
# Convention : Reuss Voigt Hill
#
# Bulk Modulus (GPa) = 58.96072 90.65354 74.80713
# Shear Modulus (GPa) = 93.35267 31.77966 62.56617
#
# Velocity S-wave (km/s) = 6.43806 3.75635 5.27061
# Velocity P-wave (km/s) = 9.02459 7.68529 8.38174
#
# Compressibility (1/GPa) = 0.01696044
#
# Stress axis : x y z
#
# Youngs Moduli (GPa) = 138.45501 53.63008 120.21275
#
# Poissons Ratio (x) = 0.09239 0.45649
# Poissons Ratio (y) = 0.23852 0.37186
# Poissons Ratio (z) = 0.52577 0.16590
#
# Static dielectric constant tensor:
#      x y z
#    x 2.337810 0.000000 0.000000 
#    y 0.000000 1.839480 0.000000 
#    z 0.000000 0.000000 1.849990 
# 
# From -- ./inp_files/42678.got.cif
#   From: 2010.05.17/outbox.cif.g08.bks.cpg/sg70_22_cif.got.tgz:42678.got - 2010.06.03 15:57:51.
