data_PCOD9516446
_publ_section_title
;
Structure prediction by ZEFSAII (Michael W. Deem and Ramdas Pophale) SiO2 
 PCOD9516446
Probable space group: F D D D
;
_chemical_formula_sum "Si O2"
_cell_formula_units_Z 120
_cell_length_a 23.296086
_cell_length_b 18.344843
_cell_length_c 14.080225
_cell_angle_alpha 90.000000
_cell_angle_beta 90.000000
_cell_angle_gamma 90.000000
_cell_volume 6017.367762
_symmetry_space_group_name_H-M "F D D D"
_symmetry_group_IT_number 70
_space_group.IT_coordinate_system_code '2'
_symmetry_cell_setting 'orthorhombic'
loop_
_space_group_symop_operation_xyz
x,y,z
1/4-x,1/4-y,z
x,1/4-y,1/4-z
1/4-x,y,1/4-z
-x,-y,-z
3/4+x,3/4+y,-z
-x,3/4+y,3/4+z
3/4+x,-y,3/4+z
x,1/2+y,1/2+z
1/4-x,3/4-y,1/2+z
x,3/4-y,3/4-z
1/4-x,1/2+y,3/4-z
-x,1/2-y,1/2-z
3/4+x,1/4+y,1/2-z
-x,1/4+y,1/4+z
3/4+x,1/2-y,1/4+z
1/2+x,y,1/2+z
3/4-x,1/4-y,1/2+z
1/2+x,1/4-y,3/4-z
3/4-x,y,3/4-z
1/2-x,-y,1/2-z
1/4+x,3/4+y,1/2-z
1/2-x,3/4+y,1/4+z
1/4+x,-y,1/4+z
1/2+x,1/2+y,z
3/4-x,3/4-y,z
1/2+x,3/4-y,1/4-z
3/4-x,1/2+y,1/4-z
1/2-x,1/2-y,-z
1/4+x,1/4+y,-z
1/2-x,1/4+y,3/4+z
1/4+x,1/2-y,3/4+z
loop_
_atom_site_type_symbol
_atom_site_label
_atom_site_fract_x
_atom_site_fract_y
_atom_site_fract_z
Si Si1 0.669623 0.689004 0.306133
Si Si2 0.298636 0.593207 0.419386
Si Si3 0.843650 0.007901 0.252507
Si Si4 0.125000 0.476574 0.625000
Si Si5 0.375000 0.375000 0.375000
O O1 0.625000 0.625000 0.330538
O O2 0.734033 0.659443 0.296775
O O3 0.668443 0.746555 0.392743
O O4 0.650191 0.725476 0.208929
O O5 0.342561 0.541266 0.478215
O O6 0.302703 0.561895 0.311455
O O7 0.326417 0.672740 0.416795
O O8 0.840688 0.929847 0.306138
#
# Coordination Sequence:
#
# PCOD9516446 Si02
#       5
#    32  32  32  16   8
#     4  12  24  40  66  96 122 178 214 257 328 384
#     4   9  23  42  65  93 130 162 212 273 318 383
#     4   9  19  39  64  99 121 161 212 262 332 371
#     4  10  26  46  58  96 134 170 220 260 318 396
#     4   8  14  32  60  88 128 136 198 268 296 370
#
# _framework density 19.942274000000001
#
# number of rings (size 3 to 8) (size 9 to 14) (size 15 to 20)
#    0.000    2.667    1.333    1.200    3.733    5.333 
#    4.800    2.667    0.000    0.000    0.000    0.000 
#    0.000    0.000    0.000    0.000    0.000    0.000 
#
# Total GULP energy -167482.773100 kJ/mol
# GULP energy per Si atom -5582.759103 kJ/mol
# Density = 1.989688 g / cm^3
# Si number density = 19.942274 Si / 1000 Ang^3
#
#
#
# Elastic Constant Matrix: (Units=GPa)
#
#
# Indices 1 2 3 4 5 6 
#
# 1 140.2103 43.4506 50.2299 0.0000 0.0000 0.0000
# 2 43.4506 43.0372 8.9649 0.0000 0.0000 0.0000
# 3 50.2299 8.9649 91.6283 0.0000 0.0000 0.0000
# 4 0.0000 0.0000 0.0000 -6.2264 0.0000 0.0000
# 5 0.0000 0.0000 0.0000 0.0000 11.6218 0.0000
# 6 0.0000 0.0000 0.0000 0.0000 0.0000 -8.1457
#
#
#
# Elastic Compliance Matrix: (Units=1/GPa)
#
#
# Indices 1 2 3 4 5 6 
#
# 1 0.012911 -0.011802 -0.005923 0.000000 0.000000 0.000000
# 2 -0.011802 0.034506 0.003093 0.000000 0.000000 0.000000
# 3 -0.005923 0.003093 0.013858 0.000000 0.000000 0.000000
# 4 0.000000 0.000000 0.000000 -0.160606 0.000000 0.000000
# 5 0.000000 0.000000 0.000000 0.000000 0.086045 0.000000
# 6 0.000000 0.000000 0.000000 0.000000 0.000000 -0.122764
#
#
# Mechanical properties :
#
#
# Convention : Reuss Voigt Hill
#
# Bulk Modulus (GPa) = 31.23735 53.35183 42.29459
# Shear Modulus (GPa) = -52.02050 10.93198 -20.54426
#
# Velocity S-wave (km/s) = -5.11294 2.34387 -3.21313
# Velocity P-wave (km/s) = 4.37702 5.84262 2.73659
#
# Compressibility (1/GPa) = 0.03201296
#
# Stress axis : x y z
#
# Youngs Moduli (GPa) = 77.45097 28.98024 72.16010
#
# Poissons Ratio (x) = 0.34201 0.42742
# Poissons Ratio (y) = 0.91404 -0.22322
# Poissons Ratio (z) = 0.45876 -0.08965
#
# Static dielectric constant tensor:
#      x y z
#    x 1.699420 0.000000 0.000000 
#    y 0.000000 1.693020 0.000000 
#    z 0.000000 0.000000 1.705410 
# 
# From -- ./inp_files/28451.got.cif
#   From: 2010.05.17/outbox.cif.g08.bks.cpg/sg70_15_cif.got.tgz:28451.got - 2010.06.03 15:57:51.
