data_PCOD9516060
_publ_section_title
;
Structure prediction by ZEFSAII (Michael W. Deem and Ramdas Pophale) SiO2 
 PCOD9516060
Probable space group: F D D D
;
_chemical_formula_sum "Si O2"
_cell_formula_units_Z 96
_cell_length_a 9.978081
_cell_length_b 15.834170
_cell_length_c 26.452446
_cell_angle_alpha 90.000000
_cell_angle_beta 90.000000
_cell_angle_gamma 90.000000
_cell_volume 4179.344440
_symmetry_space_group_name_H-M "F D D D"
_symmetry_group_IT_number 70
_space_group.IT_coordinate_system_code '2'
_symmetry_cell_setting 'orthorhombic'
loop_
_space_group_symop_operation_xyz
x,y,z
1/4-x,1/4-y,z
x,1/4-y,1/4-z
1/4-x,y,1/4-z
-x,-y,-z
3/4+x,3/4+y,-z
-x,3/4+y,3/4+z
3/4+x,-y,3/4+z
x,1/2+y,1/2+z
1/4-x,3/4-y,1/2+z
x,3/4-y,3/4-z
1/4-x,1/2+y,3/4-z
-x,1/2-y,1/2-z
3/4+x,1/4+y,1/2-z
-x,1/4+y,1/4+z
3/4+x,1/2-y,1/4+z
1/2+x,y,1/2+z
3/4-x,1/4-y,1/2+z
1/2+x,1/4-y,3/4-z
3/4-x,y,3/4-z
1/2-x,-y,1/2-z
1/4+x,3/4+y,1/2-z
1/2-x,3/4+y,1/4+z
1/4+x,-y,1/4+z
1/2+x,1/2+y,z
3/4-x,3/4-y,z
1/2+x,3/4-y,1/4-z
3/4-x,1/2+y,1/4-z
1/2-x,1/2-y,-z
1/4+x,1/4+y,-z
1/2-x,1/4+y,3/4+z
1/4+x,1/2-y,3/4+z
loop_
_atom_site_type_symbol
_atom_site_label
_atom_site_fract_x
_atom_site_fract_y
_atom_site_fract_z
Si Si1 0.625000 0.625000 0.508383
Si Si2 0.135714 0.301493 0.803369
Si Si3 0.625000 0.125000 0.760840
Si Si4 0.279491 0.298762 0.108885
O O1 0.755169 0.642586 0.542701
O O2 0.627668 0.540666 0.474215
O O3 0.259916 0.341664 0.774705
O O4 0.168066 0.282231 0.861570
O O5 0.692124 0.055990 0.799117
O O6 0.375000 0.375000 0.126889
O O7 0.125000 0.312437 0.125000
#
# Coordination Sequence:
#
# PCOD9516060 Si02
#       4
#    16  32  16  32
#     4  10  23  38  73  99 136 181 252 290 372 422
#     4  11  22  46  70 105 142 194 239 313 358 446
#     4  10  25  42  73 101 148 197 237 302 385 428
#     4  10  23  43  69  99 145 194 246 295 377 444
#
# _framework density 22.970109000000001
#
# number of rings (size 3 to 8) (size 9 to 14) (size 15 to 20)
#    1.000    0.667    1.667    2.000    4.667    5.333 
#    0.000    7.500    0.000    0.000    0.000    0.000 
#    0.000    0.000    0.000    0.000    0.000    0.000 
#
# Total GULP energy -134042.532791 kJ/mol
# GULP energy per Si atom -5585.105533 kJ/mol
# Density = 2.291783 g / cm^3
# Si number density = 22.970109 Si / 1000 Ang^3
#
#
#
# Elastic Constant Matrix: (Units=GPa)
#
#
# Indices 1 2 3 4 5 6 
#
# 1 165.9930 52.9453 18.9355 0.0000 0.0000 0.0000
# 2 52.9453 96.5831 37.9612 0.0000 0.0000 0.0000
# 3 18.9355 37.9612 93.9888 0.0000 0.0000 0.0000
# 4 0.0000 0.0000 0.0000 -24.3095 0.0000 0.0000
# 5 0.0000 0.0000 0.0000 0.0000 -14.7695 0.0000
# 6 0.0000 0.0000 0.0000 0.0000 0.0000 34.5191
#
#
#
# Elastic Compliance Matrix: (Units=1/GPa)
#
#
# Indices 1 2 3 4 5 6 
#
# 1 0.007303 -0.004072 0.000173 0.000000 0.000000 0.000000
# 2 -0.004072 0.014577 -0.005067 0.000000 0.000000 0.000000
# 3 0.000173 -0.005067 0.012651 0.000000 0.000000 0.000000
# 4 0.000000 0.000000 0.000000 -0.041136 0.000000 0.000000
# 5 0.000000 0.000000 0.000000 0.000000 -0.067707 0.000000
# 6 0.000000 0.000000 0.000000 0.000000 0.000000 0.028969
#
#
# Mechanical properties :
#
#
# Convention : Reuss Voigt Hill
#
# Bulk Modulus (GPa) = 60.23970 64.02765 62.13367
# Shear Modulus (GPa) = -228.55540 15.53621 -106.50960
#
# Velocity S-wave (km/s) = -9.98585 2.60353 -6.81685
# Velocity P-wave (km/s) = 10.32832 6.08051 5.90345
#
# Compressibility (1/GPa) = 0.01660035
#
# Stress axis : x y z
#
# Youngs Moduli (GPa) = 136.92484 68.59905 79.04281
#
# Poissons Ratio (x) = 0.27931 -0.01368
# Poissons Ratio (y) = 0.55750 0.40054
# Poissons Ratio (z) = -0.02370 0.34762
#
# Static dielectric constant tensor:
#      x y z
#    x 1.778440 0.000000 0.000000 
#    y 0.000000 1.970100 0.000000 
#    z 0.000000 0.000000 1.880550 
# 
# From -- ./inp_files/51843.got.cif
#   From: 2010.05.17/outbox.cif.g08.bks.cpg/sg70_26_cif.got.tgz:51843.got - 2010.06.03 15:57:51.
