data_PCOD9516712
_publ_section_title
;
Structure prediction by ZEFSAII (Michael W. Deem and Ramdas Pophale) SiO2 
 PCOD9516712
Probable space group: F D D D
;
_chemical_formula_sum "Si O2"
_cell_formula_units_Z 208
_cell_length_a 18.974320
_cell_length_b 21.003508
_cell_length_c 24.014740
_cell_angle_alpha 90.000000
_cell_angle_beta 90.000000
_cell_angle_gamma 90.000000
_cell_volume 9570.529058
_symmetry_space_group_name_H-M "F D D D"
_symmetry_group_IT_number 70
_space_group.IT_coordinate_system_code '2'
_symmetry_cell_setting 'orthorhombic'
loop_
_space_group_symop_operation_xyz
x,y,z
1/4-x,1/4-y,z
x,1/4-y,1/4-z
1/4-x,y,1/4-z
-x,-y,-z
3/4+x,3/4+y,-z
-x,3/4+y,3/4+z
3/4+x,-y,3/4+z
x,1/2+y,1/2+z
1/4-x,3/4-y,1/2+z
x,3/4-y,3/4-z
1/4-x,1/2+y,3/4-z
-x,1/2-y,1/2-z
3/4+x,1/4+y,1/2-z
-x,1/4+y,1/4+z
3/4+x,1/2-y,1/4+z
1/2+x,y,1/2+z
3/4-x,1/4-y,1/2+z
1/2+x,1/4-y,3/4-z
3/4-x,y,3/4-z
1/2-x,-y,1/2-z
1/4+x,3/4+y,1/2-z
1/2-x,3/4+y,1/4+z
1/4+x,-y,1/4+z
1/2+x,1/2+y,z
3/4-x,3/4-y,z
1/2+x,3/4-y,1/4-z
3/4-x,1/2+y,1/4-z
1/2-x,1/2-y,-z
1/4+x,1/4+y,-z
1/2-x,1/4+y,3/4+z
1/4+x,1/2-y,3/4+z
loop_
_atom_site_type_symbol
_atom_site_label
_atom_site_fract_x
_atom_site_fract_y
_atom_site_fract_z
Si Si1 0.103645 0.778636 0.566470
Si Si2 0.703335 0.060445 0.736974
Si Si3 0.747055 0.424310 0.419356
Si Si4 0.375000 0.875000 0.169737
Si Si5 0.366177 0.085717 0.782904
Si Si6 0.508651 0.306985 0.118261
Si Si7 0.912118 0.059861 0.595588
O O1 0.125000 0.809523 0.625000
O O2 0.154957 0.718508 0.561046
O O3 0.030111 0.742353 0.566138
O O4 0.115190 0.837130 0.525329
O O5 0.744192 0.125663 0.722160
O O6 0.649526 0.070358 0.787762
O O7 0.750000 0.000000 0.750000
O O8 0.779591 0.375000 0.375000
O O9 0.671821 0.442427 0.392275
O O10 0.446027 0.891540 0.137646
O O11 0.305337 0.069691 0.827362
O O12 0.437598 0.060846 0.814962
O O13 0.344271 0.058974 0.722237
O O14 0.463262 0.243297 0.129189
O O15 0.936109 0.125000 0.625000
#
# Coordination Sequence:
#
# PCOD9516712 Si02
#       7
#    32  32  32  16  32  32  32
#     4  12  22  39  68 100 141 190 227 279 370 457
#     4  12  25  38  64  99 151 183 225 289 362 448
#     4  11  23  38  61 104 143 184 225 283 355 445
#     4  12  26  40  65 110 137 190 236 292 360 464
#     4  11  26  50  73 101 144 195 247 319 378 434
#     4  11  26  48  73 102 142 191 253 304 375 443
#     4  11  27  46  74 106 141 184 248 311 372 445
#
# _framework density 21.733385999999999
#
# number of rings (size 3 to 8) (size 9 to 14) (size 15 to 20)
#    0.000    0.615    4.615    3.231    8.615    0.000 
#    0.000    1.538    0.000    0.000    0.000    0.000 
#    0.000    0.000    0.000    0.000    0.000    0.000 
#
# Total GULP energy -289612.109353 kJ/mol
# GULP energy per Si atom -5569.463641 kJ/mol
# Density = 2.168392 g / cm^3
# Si number density = 21.733386 Si / 1000 Ang^3
#
#
#
# Elastic Constant Matrix: (Units=GPa)
#
#
# Indices 1 2 3 4 5 6 
#
# 1 113.5232 53.4260 14.4365 0.0000 0.0000 0.0000
# 2 53.4260 114.6609 13.4775 0.0000 0.0000 0.0000
# 3 14.4365 13.4775 72.1401 0.0000 0.0000 0.0000
# 4 0.0000 0.0000 0.0000 30.1119 0.0000 0.0000
# 5 0.0000 0.0000 0.0000 0.0000 14.4274 0.0000
# 6 0.0000 0.0000 0.0000 0.0000 0.0000 34.8135
#
#
#
# Elastic Compliance Matrix: (Units=1/GPa)
#
#
# Indices 1 2 3 4 5 6 
#
# 1 0.011404 -0.005159 -0.001318 0.000000 0.000000 0.000000
# 2 -0.005159 0.011251 -0.001070 0.000000 0.000000 0.000000
# 3 -0.001318 -0.001070 0.014326 0.000000 0.000000 0.000000
# 4 0.000000 0.000000 0.000000 0.033209 0.000000 0.000000
# 5 0.000000 0.000000 0.000000 0.000000 0.069313 0.000000
# 6 0.000000 0.000000 0.000000 0.000000 0.000000 0.028725
#
#
# Mechanical properties :
#
#
# Convention : Reuss Voigt Hill
#
# Bulk Modulus (GPa) = 45.68901 51.44492 48.56696
# Shear Modulus (GPa) = 26.23067 30.46950 28.35008
#
# Velocity S-wave (km/s) = 3.47786 3.74835 3.61563
# Velocity P-wave (km/s) = 6.09881 6.51581 6.31075
#
# Compressibility (1/GPa) = 0.02188710
#
# Stress axis : x y z
#
# Youngs Moduli (GPa) = 87.68650 88.88238 69.80524
#
# Poissons Ratio (x) = 0.45853 0.09203
# Poissons Ratio (y) = 0.45236 0.07466
# Poissons Ratio (z) = 0.11561 0.09506
#
# Static dielectric constant tensor:
#      x y z
#    x 1.919020 0.000000 0.000000 
#    y 0.000000 1.679160 0.000000 
#    z 0.000000 0.000000 1.893190 
# 
# From -- ./inp_files/59600.got.cif
#   From: 2010.05.17/outbox.cif.g08.bks.cpg/sg70_30_cif.got.tgz:59600.got - 2010.06.03 15:57:51.
