data_PCOD9516562
_publ_section_title
;
Structure prediction by ZEFSAII (Michael W. Deem and Ramdas Pophale) SiO2 
 PCOD9516562
Probable space group: F D D D
;
_chemical_formula_sum "Si O2"
_cell_formula_units_Z 176
_cell_length_a 23.802523
_cell_length_b 13.927816
_cell_length_c 24.609221
_cell_angle_alpha 90.000000
_cell_angle_beta 90.000000
_cell_angle_gamma 90.000000
_cell_volume 8158.379072
_symmetry_space_group_name_H-M "F D D D"
_symmetry_group_IT_number 70
_space_group.IT_coordinate_system_code '2'
_symmetry_cell_setting 'orthorhombic'
loop_
_space_group_symop_operation_xyz
x,y,z
1/4-x,1/4-y,z
x,1/4-y,1/4-z
1/4-x,y,1/4-z
-x,-y,-z
3/4+x,3/4+y,-z
-x,3/4+y,3/4+z
3/4+x,-y,3/4+z
x,1/2+y,1/2+z
1/4-x,3/4-y,1/2+z
x,3/4-y,3/4-z
1/4-x,1/2+y,3/4-z
-x,1/2-y,1/2-z
3/4+x,1/4+y,1/2-z
-x,1/4+y,1/4+z
3/4+x,1/2-y,1/4+z
1/2+x,y,1/2+z
3/4-x,1/4-y,1/2+z
1/2+x,1/4-y,3/4-z
3/4-x,y,3/4-z
1/2-x,-y,1/2-z
1/4+x,3/4+y,1/2-z
1/2-x,3/4+y,1/4+z
1/4+x,-y,1/4+z
1/2+x,1/2+y,z
3/4-x,3/4-y,z
1/2+x,3/4-y,1/4-z
3/4-x,1/2+y,1/4-z
1/2-x,1/2-y,-z
1/4+x,1/4+y,-z
1/2-x,1/4+y,3/4+z
1/4+x,1/2-y,3/4+z
loop_
_atom_site_type_symbol
_atom_site_label
_atom_site_fract_x
_atom_site_fract_y
_atom_site_fract_z
Si Si1 0.025130 0.807134 0.956617
Si Si2 0.538901 0.874893 0.088490
Si Si3 0.677599 0.067926 0.389201
Si Si4 0.655832 0.384980 0.544597
Si Si5 0.820579 0.427795 0.254698
Si Si6 0.619311 0.375000 0.875000
O O1 0.076614 0.825280 0.916695
O O2 0.985118 0.722563 0.936859
O O3 0.054616 0.788455 0.014653
O O4 0.984507 0.899720 0.961905
O O5 0.482783 0.934525 0.102094
O O6 0.590598 0.911854 0.051643
O O7 0.567969 0.860340 0.147065
O O8 0.625000 0.125000 0.362794
O O9 0.687687 0.130527 0.444602
O O10 0.656939 0.959955 0.400142
O O11 0.663774 0.288675 0.508929
O O12 0.875000 0.375000 0.278536
#
# Coordination Sequence:
#
# PCOD9516562 Si02
#       6
#    32  32  32  32  32  16
#     4  12  22  39  63  98 134 174 220 275 340 414
#     4  11  24  43  65  99 137 175 227 277 338 419
#     4  11  23  44  65  97 131 176 226 278 334 406
#     4  11  24  40  64  99 139 181 217 279 350 407
#     4  11  21  37  62  94 138 173 209 272 350 401
#     4  12  26  40  73  93 128 184 234 276 344 406
#
# _framework density 21.572913
#
# number of rings (size 3 to 8) (size 9 to 14) (size 15 to 20)
#    0.000    0.727    5.455    3.818    0.000    0.000 
#    0.000    0.909    4.000    2.182    0.000    0.000 
#    0.000    0.000    0.000    0.000    0.000    0.000 
#
# Total GULP energy -245593.959392 kJ/mol
# GULP energy per Si atom -5581.680895 kJ/mol
# Density = 2.152381 g / cm^3
# Si number density = 21.572913 Si / 1000 Ang^3
#
#
#
# Elastic Constant Matrix: (Units=GPa)
#
#
# Indices 1 2 3 4 5 6 
#
# 1 161.6854 18.9630 29.4631 0.0000 0.0000 0.0000
# 2 18.9630 21.1625 6.8853 0.0000 0.0000 0.0000
# 3 29.4631 6.8853 64.7930 0.0000 0.0000 0.0000
# 4 0.0000 0.0000 0.0000 15.0560 0.0000 0.0000
# 5 0.0000 0.0000 0.0000 0.0000 26.6698 0.0000
# 6 0.0000 0.0000 0.0000 0.0000 0.0000 20.1813
#
#
#
# Elastic Compliance Matrix: (Units=1/GPa)
#
#
# Indices 1 2 3 4 5 6 
#
# 1 0.007352 -0.005697 -0.002738 0.000000 0.000000 0.000000
# 2 -0.005697 0.053360 -0.003080 0.000000 0.000000 0.000000
# 3 -0.002738 -0.003080 0.017006 0.000000 0.000000 0.000000
# 4 0.000000 0.000000 0.000000 0.066419 0.000000 0.000000
# 5 0.000000 0.000000 0.000000 0.000000 0.037496 0.000000
# 6 0.000000 0.000000 0.000000 0.000000 0.000000 0.049551
#
#
# Mechanical properties :
#
#
# Convention : Reuss Voigt Hill
#
# Bulk Modulus (GPa) = 18.28515 39.80706 29.04610
# Shear Modulus (GPa) = 18.35252 25.20340 21.77796
#
# Velocity S-wave (km/s) = 2.91988 3.42173 3.18072
# Velocity P-wave (km/s) = 4.45667 5.83981 5.19448
#
# Compressibility (1/GPa) = 0.05468918
#
# Stress axis : x y z
#
# Youngs Moduli (GPa) = 136.01936 18.74047 58.80297
#
# Poissons Ratio (x) = 0.10677 0.16098
# Poissons Ratio (y) = 0.77491 0.18110
# Poissons Ratio (z) = 0.37238 0.05772
#
# Static dielectric constant tensor:
#      x y z
#    x 1.823150 0.000000 0.000000 
#    y 0.000000 1.826610 0.000000 
#    z 0.000000 0.000000 1.866830 
# 
# From -- ./inp_files/51367.got.cif
#   From: 2010.05.17/outbox.cif.g08.bks.cpg/sg70_26_cif.got.tgz:51367.got - 2010.06.03 15:57:51.
