data_PCOD9516606
_publ_section_title
;
Structure prediction by ZEFSAII (Michael W. Deem and Ramdas Pophale) SiO2 
 PCOD9516606
Probable space group: F D D D
;
_chemical_formula_sum "Si O2"
_cell_formula_units_Z 136
_cell_length_a 21.260085
_cell_length_b 17.742552
_cell_length_c 16.495174
_cell_angle_alpha 90.000000
_cell_angle_beta 90.000000
_cell_angle_gamma 90.000000
_cell_volume 6222.114293
_symmetry_space_group_name_H-M "F D D D"
_symmetry_group_IT_number 70
_space_group.IT_coordinate_system_code '2'
_symmetry_cell_setting 'orthorhombic'
loop_
_space_group_symop_operation_xyz
x,y,z
1/4-x,1/4-y,z
x,1/4-y,1/4-z
1/4-x,y,1/4-z
-x,-y,-z
3/4+x,3/4+y,-z
-x,3/4+y,3/4+z
3/4+x,-y,3/4+z
x,1/2+y,1/2+z
1/4-x,3/4-y,1/2+z
x,3/4-y,3/4-z
1/4-x,1/2+y,3/4-z
-x,1/2-y,1/2-z
3/4+x,1/4+y,1/2-z
-x,1/4+y,1/4+z
3/4+x,1/2-y,1/4+z
1/2+x,y,1/2+z
3/4-x,1/4-y,1/2+z
1/2+x,1/4-y,3/4-z
3/4-x,y,3/4-z
1/2-x,-y,1/2-z
1/4+x,3/4+y,1/2-z
1/2-x,3/4+y,1/4+z
1/4+x,-y,1/4+z
1/2+x,1/2+y,z
3/4-x,3/4-y,z
1/2+x,3/4-y,1/4-z
3/4-x,1/2+y,1/4-z
1/2-x,1/2-y,-z
1/4+x,1/4+y,-z
1/2-x,1/4+y,3/4+z
1/4+x,1/2-y,3/4+z
loop_
_atom_site_type_symbol
_atom_site_label
_atom_site_fract_x
_atom_site_fract_y
_atom_site_fract_z
Si Si1 0.306427 0.968050 0.509683
Si Si2 0.583440 0.382493 0.540794
Si Si3 0.625000 0.125000 0.625000
Si Si4 0.439765 0.367543 0.586885
Si Si5 0.820145 0.049957 0.570660
O O1 0.332851 0.926084 0.431587
O O2 0.322444 0.923454 0.589511
O O3 0.231645 0.959653 0.500213
O O4 0.335169 0.050987 0.503668
O O5 0.625000 0.381064 0.625000
O O6 0.508433 0.390606 0.554173
O O7 0.614247 0.440164 0.477014
O O8 0.375000 0.375000 0.534585
O O9 0.442788 0.279736 0.614717
O O10 0.810434 0.125000 0.625000
#
# Coordination Sequence:
#
# PCOD9516606 Si02
#       5
#    32  32   8  32  32
#     4  11  22  36  63 101 135 167 204 265 342 406
#     4  11  23  42  65  96 136 168 218 275 330 390
#     4  12  20  32  60 100 132 164 186 264 332 404
#     4  11  24  42  65  93 130 176 224 266 326 397
#     4  11  24  39  63  96 132 175 215 271 332 392
#
# _framework density 21.857521999999999
#
# number of rings (size 3 to 8) (size 9 to 14) (size 15 to 20)
#    0.000    0.941    5.882    1.412    0.000    1.882 
#    0.000    0.000    0.000    0.000    0.000    0.000 
#    0.000    0.000    0.000    0.000    0.000    0.000 
#
# Total GULP energy -189493.939260 kJ/mol
# GULP energy per Si atom -5573.351155 kJ/mol
# Density = 2.180777 g / cm^3
# Si number density = 21.857522 Si / 1000 Ang^3
#
#
#
# Elastic Constant Matrix: (Units=GPa)
#
#
# Indices 1 2 3 4 5 6 
#
# 1 151.3944 6.6493 15.4611 0.0000 0.0000 0.0000
# 2 6.6493 38.2007 17.4124 0.0000 0.0000 0.0000
# 3 15.4611 17.4124 48.2168 0.0000 0.0000 0.0000
# 4 0.0000 0.0000 0.0000 37.6302 0.0000 0.0000
# 5 0.0000 0.0000 0.0000 0.0000 17.9092 0.0000
# 6 0.0000 0.0000 0.0000 0.0000 0.0000 31.4974
#
#
#
# Elastic Compliance Matrix: (Units=1/GPa)
#
#
# Indices 1 2 3 4 5 6 
#
# 1 0.006831 -0.000228 -0.002108 0.000000 0.000000 0.000000
# 2 -0.000228 0.031343 -0.011246 0.000000 0.000000 0.000000
# 3 -0.002108 -0.011246 0.025477 0.000000 0.000000 0.000000
# 4 0.000000 0.000000 0.000000 0.026574 0.000000 0.000000
# 5 0.000000 0.000000 0.000000 0.000000 0.055837 0.000000
# 6 0.000000 0.000000 0.000000 0.000000 0.000000 0.031749
#
#
# Mechanical properties :
#
#
# Convention : Reuss Voigt Hill
#
# Bulk Modulus (GPa) = 27.40704 35.20637 31.30671
# Shear Modulus (GPa) = 23.02698 30.62663 26.82681
#
# Velocity S-wave (km/s) = 3.24929 3.74731 3.50715
# Velocity P-wave (km/s) = 5.16172 5.90469 5.54566
#
# Compressibility (1/GPa) = 0.03648698
#
# Stress axis : x y z
#
# Youngs Moduli (GPa) = 146.40109 31.90481 39.25154
#
# Poissons Ratio (x) = 0.00728 0.08274
# Poissons Ratio (y) = 0.03340 0.44141
# Poissons Ratio (z) = 0.30860 0.35879
#
# Static dielectric constant tensor:
#      x y z
#    x 1.969510 0.000000 0.000000 
#    y 0.000000 1.794440 0.000000 
#    z 0.000000 0.000000 2.094430 
# 
# From -- ./inp_files/27452.got.cif
#   From: 2010.05.17/outbox.cif.g08.bks.cpg/sg70_14_cif.got.tgz:27452.got - 2010.06.03 15:57:51.
