data_PCOD9516067
_publ_section_title
;
Structure prediction by ZEFSAII (Michael W. Deem and Ramdas Pophale) SiO2 
 PCOD9516067
Probable space group: F D D D
;
_chemical_formula_sum "Si O2"
_cell_formula_units_Z 208
_cell_length_a 16.717909
_cell_length_b 27.602365
_cell_length_c 22.372601
_cell_angle_alpha 90.000000
_cell_angle_beta 90.000000
_cell_angle_gamma 90.000000
_cell_volume 10323.922335
_symmetry_space_group_name_H-M "F D D D"
_symmetry_group_IT_number 70
_space_group.IT_coordinate_system_code '2'
_symmetry_cell_setting 'orthorhombic'
loop_
_space_group_symop_operation_xyz
x,y,z
1/4-x,1/4-y,z
x,1/4-y,1/4-z
1/4-x,y,1/4-z
-x,-y,-z
3/4+x,3/4+y,-z
-x,3/4+y,3/4+z
3/4+x,-y,3/4+z
x,1/2+y,1/2+z
1/4-x,3/4-y,1/2+z
x,3/4-y,3/4-z
1/4-x,1/2+y,3/4-z
-x,1/2-y,1/2-z
3/4+x,1/4+y,1/2-z
-x,1/4+y,1/4+z
3/4+x,1/2-y,1/4+z
1/2+x,y,1/2+z
3/4-x,1/4-y,1/2+z
1/2+x,1/4-y,3/4-z
3/4-x,y,3/4-z
1/2-x,-y,1/2-z
1/4+x,3/4+y,1/2-z
1/2-x,3/4+y,1/4+z
1/4+x,-y,1/4+z
1/2+x,1/2+y,z
3/4-x,3/4-y,z
1/2+x,3/4-y,1/4-z
3/4-x,1/2+y,1/4-z
1/2-x,1/2-y,-z
1/4+x,1/4+y,-z
1/2-x,1/4+y,3/4+z
1/4+x,1/2-y,3/4+z
loop_
_atom_site_type_symbol
_atom_site_label
_atom_site_fract_x
_atom_site_fract_y
_atom_site_fract_z
Si Si1 0.452475 0.467649 0.089716
Si Si2 0.902523 0.129528 0.053398
Si Si3 0.726376 0.478869 0.457874
Si Si4 0.497122 0.828865 0.737241
Si Si5 0.650613 0.241868 0.057390
Si Si6 0.644989 0.279173 0.518773
Si Si7 0.875000 0.875000 0.602025
O O1 0.438928 0.504772 0.144418
O O2 0.547117 0.464173 0.075676
O O3 0.406526 0.419297 0.108432
O O4 0.420808 0.486961 0.026796
O O5 0.895130 0.125000 0.125000
O O6 0.972273 0.169953 0.041542
O O7 0.821725 0.149774 0.022918
O O8 0.909015 0.077897 0.020355
O O9 0.670991 0.494752 0.512881
O O10 0.806893 0.510755 0.463167
O O11 0.435040 0.808835 0.785394
O O12 0.531224 0.782546 0.701302
O O13 0.449718 0.861766 0.690724
O O14 0.625000 0.240947 0.125000
#
# Coordination Sequence:
#
# PCOD9516067 Si02
#       7
#    32  32  32  32  32  32  16
#     4  11  25  45  67  98 136 178 233 289 355 421
#     4  11  24  43  70 101 140 181 233 292 362 430
#     4  11  23  44  71  99 140 183 227 300 358 424
#     4  10  24  39  62 101 129 174 229 269 345 421
#     4  10  23  39  64  97 136 175 219 276 350 417
#     4  11  26  44  70 101 133 182 234 289 355 432
#     4  12  24  42  71  96 141 180 228 300 348 424
#
# _framework density 20.147380999999999
#
# number of rings (size 3 to 8) (size 9 to 14) (size 15 to 20)
#    0.000    1.231    3.077    1.385    6.462    1.231 
#    0.000    0.000    0.000    0.000    0.000    0.000 
#    0.000    0.000    0.000    0.000    0.000    0.000 
#
# Total GULP energy -290096.478529 kJ/mol
# GULP energy per Si atom -5578.778433 kJ/mol
# Density = 2.010152 g / cm^3
# Si number density = 20.147381 Si / 1000 Ang^3
#
#
#
# Elastic Constant Matrix: (Units=GPa)
#
#
# Indices 1 2 3 4 5 6 
#
# 1 56.2538 27.1148 30.1120 0.0000 0.0000 0.0000
# 2 27.1148 98.9391 29.3869 0.0000 0.0000 0.0000
# 3 30.1120 29.3869 123.3484 0.0000 0.0000 0.0000
# 4 0.0000 0.0000 0.0000 26.8860 0.0000 0.0000
# 5 0.0000 0.0000 0.0000 0.0000 30.8644 0.0000
# 6 0.0000 0.0000 0.0000 0.0000 0.0000 12.8032
#
#
#
# Elastic Compliance Matrix: (Units=1/GPa)
#
#
# Indices 1 2 3 4 5 6 
#
# 1 0.022433 -0.004866 -0.004317 0.000000 0.000000 0.000000
# 2 -0.004866 0.011932 -0.001655 0.000000 0.000000 0.000000
# 3 -0.004317 -0.001655 0.009555 0.000000 0.000000 0.000000
# 4 0.000000 0.000000 0.000000 0.037194 0.000000 0.000000
# 5 0.000000 0.000000 0.000000 0.000000 0.032400 0.000000
# 6 0.000000 0.000000 0.000000 0.000000 0.000000 0.078105
#
#
# Mechanical properties :
#
#
# Convention : Reuss Voigt Hill
#
# Bulk Modulus (GPa) = 44.95401 50.19651 47.57526
# Shear Modulus (GPa) = 22.65419 26.90591 24.78005
#
# Velocity S-wave (km/s) = 3.35688 3.65835 3.51085
# Velocity P-wave (km/s) = 6.11440 6.54320 6.33243
#
# Compressibility (1/GPa) = 0.02224495
#
# Stress axis : x y z
#
# Youngs Moduli (GPa) = 44.57777 83.80673 104.65392
#
# Poissons Ratio (x) = 0.40776 0.45180
# Poissons Ratio (y) = 0.21689 0.17320
# Poissons Ratio (z) = 0.19245 0.13870
#
# Static dielectric constant tensor:
#      x y z
#    x 1.769420 0.000000 0.000000 
#    y 0.000000 1.746230 0.000000 
#    z 0.000000 0.000000 1.614110 
# 
# From -- ./inp_files/38720.got.cif
#   From: 2010.05.17/outbox.cif.g08.bks.cpg/sg70_20_cif.got.tgz:38720.got - 2010.06.03 15:57:51.
