data_PCOD9516187
_publ_section_title
;
Structure prediction by ZEFSAII (Michael W. Deem and Ramdas Pophale) SiO2 
 PCOD9516187
Probable space group: F D D D
;
_chemical_formula_sum "Si O2"
_cell_formula_units_Z 176
_cell_length_a 15.837679
_cell_length_b 22.827210
_cell_length_c 24.313886
_cell_angle_alpha 90.000000
_cell_angle_beta 90.000000
_cell_angle_gamma 90.000000
_cell_volume 8790.199800
_symmetry_space_group_name_H-M "F D D D"
_symmetry_group_IT_number 70
_space_group.IT_coordinate_system_code '2'
_symmetry_cell_setting 'orthorhombic'
loop_
_space_group_symop_operation_xyz
x,y,z
1/4-x,1/4-y,z
x,1/4-y,1/4-z
1/4-x,y,1/4-z
-x,-y,-z
3/4+x,3/4+y,-z
-x,3/4+y,3/4+z
3/4+x,-y,3/4+z
x,1/2+y,1/2+z
1/4-x,3/4-y,1/2+z
x,3/4-y,3/4-z
1/4-x,1/2+y,3/4-z
-x,1/2-y,1/2-z
3/4+x,1/4+y,1/2-z
-x,1/4+y,1/4+z
3/4+x,1/2-y,1/4+z
1/2+x,y,1/2+z
3/4-x,1/4-y,1/2+z
1/2+x,1/4-y,3/4-z
3/4-x,y,3/4-z
1/2-x,-y,1/2-z
1/4+x,3/4+y,1/2-z
1/2-x,3/4+y,1/4+z
1/4+x,-y,1/4+z
1/2+x,1/2+y,z
3/4-x,3/4-y,z
1/2+x,3/4-y,1/4-z
3/4-x,1/2+y,1/4-z
1/2-x,1/2-y,-z
1/4+x,1/4+y,-z
1/2-x,1/4+y,3/4+z
1/4+x,1/2-y,3/4+z
loop_
_atom_site_type_symbol
_atom_site_label
_atom_site_fract_x
_atom_site_fract_y
_atom_site_fract_z
Si Si1 0.276553 0.863533 0.813658
Si Si2 0.483228 0.757926 0.014682
Si Si3 0.367363 0.648655 0.996145
Si Si4 0.908677 0.733642 0.727876
Si Si5 0.625000 0.860139 0.125000
Si Si6 0.685298 0.067274 0.872899
O O1 0.244502 0.875000 0.875000
O O2 0.375000 0.875000 0.812657
O O3 0.268271 0.797987 0.790006
O O4 0.223944 0.905471 0.773616
O O5 0.432383 0.699035 0.008676
O O6 0.583616 0.746760 0.019529
O O7 0.442115 0.793831 0.064716
O O8 0.355549 0.644282 0.930902
O O9 0.400257 0.586925 0.021515
O O10 0.901464 0.768248 0.669894
O O11 0.000000 0.750000 0.750000
O O12 0.535336 0.829078 0.139488
O O13 0.625000 0.125000 0.868899
#
# Coordination Sequence:
#
# PCOD9516187 Si02
#       6
#    32  32  32  32  16  32
#     4  10  23  45  66  95 141 174 225 286 338 407
#     4  11  25  42  67 105 132 183 237 275 360 416
#     4  11  25  42  68 100 137 177 230 289 343 415
#     4  11  23  42  67  97 139 177 229 294 335 412
#     4  12  22  46  66  99 141 172 240 284 344 422
#     4  12  24  44  72  97 140 188 227 292 353 422
#
# _framework density 20.022297999999999
#
# number of rings (size 3 to 8) (size 9 to 14) (size 15 to 20)
#    0.000    0.909    5.455    1.636    5.091    2.182 
#    0.000    0.000    0.000    3.273    0.000    0.000 
#    0.000    0.000    0.000    0.000    0.000    0.000 
#
# Total GULP energy -245364.968538 kJ/mol
# GULP energy per Si atom -5576.476558 kJ/mol
# Density = 1.997673 g / cm^3
# Si number density = 20.022298 Si / 1000 Ang^3
#
#
#
# Elastic Constant Matrix: (Units=GPa)
#
#
# Indices 1 2 3 4 5 6 
#
# 1 101.5361 49.5268 32.2640 0.0000 0.0000 0.0000
# 2 49.5268 103.8183 56.2078 0.0000 0.0000 0.0000
# 3 32.2640 56.2078 145.2122 0.0000 0.0000 0.0000
# 4 0.0000 0.0000 0.0000 21.6700 0.0000 0.0000
# 5 0.0000 0.0000 0.0000 0.0000 36.4387 0.0000
# 6 0.0000 0.0000 0.0000 0.0000 0.0000 28.8286
#
#
#
# Elastic Compliance Matrix: (Units=1/GPa)
#
#
# Indices 1 2 3 4 5 6 
#
# 1 0.012878 -0.005813 -0.000611 0.000000 0.000000 0.000000
# 2 -0.005813 0.014809 -0.004441 0.000000 0.000000 0.000000
# 3 -0.000611 -0.004441 0.008741 0.000000 0.000000 0.000000
# 4 0.000000 0.000000 0.000000 0.046147 0.000000 0.000000
# 5 0.000000 0.000000 0.000000 0.000000 0.027443 0.000000
# 6 0.000000 0.000000 0.000000 0.000000 0.000000 0.034688
#
#
# Mechanical properties :
#
#
# Convention : Reuss Voigt Hill
#
# Bulk Modulus (GPa) = 68.03113 69.61820 68.82467
# Shear Modulus (GPa) = 29.18238 31.55866 30.37052
#
# Velocity S-wave (km/s) = 3.82186 3.97442 3.89888
# Velocity P-wave (km/s) = 7.31621 7.47711 7.39709
#
# Compressibility (1/GPa) = 0.01469915
#
# Stress axis : x y z
#
# Youngs Moduli (GPa) = 77.65045 67.52456 114.39973
#
# Poissons Ratio (x) = 0.39249 0.06995
# Poissons Ratio (y) = 0.45135 0.50804
# Poissons Ratio (z) = 0.04748 0.29987
#
# Static dielectric constant tensor:
#      x y z
#    x 1.794190 0.000000 0.000000 
#    y 0.000000 1.712490 0.000000 
#    z 0.000000 0.000000 1.742590 
# 
# From -- ./inp_files/51228.got.cif
#   From: 2010.05.17/outbox.cif.g08.bks.cpg/sg70_26_cif.got.tgz:51228.got - 2010.06.03 15:57:51.
