data_PCOD9516683
_publ_section_title
;
Structure prediction by ZEFSAII (Michael W. Deem and Ramdas Pophale) SiO2 
 PCOD9516683
Probable space group: F D D D
;
_chemical_formula_sum "Si O2"
_cell_formula_units_Z 80
_cell_length_a 17.179440
_cell_length_b 7.439557
_cell_length_c 24.642114
_cell_angle_alpha 90.000000
_cell_angle_beta 90.000000
_cell_angle_gamma 90.000000
_cell_volume 3149.445090
_symmetry_space_group_name_H-M "F D D D"
_symmetry_group_IT_number 70
_space_group.IT_coordinate_system_code '2'
_symmetry_cell_setting 'orthorhombic'
loop_
_space_group_symop_operation_xyz
x,y,z
1/4-x,1/4-y,z
x,1/4-y,1/4-z
1/4-x,y,1/4-z
-x,-y,-z
3/4+x,3/4+y,-z
-x,3/4+y,3/4+z
3/4+x,-y,3/4+z
x,1/2+y,1/2+z
1/4-x,3/4-y,1/2+z
x,3/4-y,3/4-z
1/4-x,1/2+y,3/4-z
-x,1/2-y,1/2-z
3/4+x,1/4+y,1/2-z
-x,1/4+y,1/4+z
3/4+x,1/2-y,1/4+z
1/2+x,y,1/2+z
3/4-x,1/4-y,1/2+z
1/2+x,1/4-y,3/4-z
3/4-x,y,3/4-z
1/2-x,-y,1/2-z
1/4+x,3/4+y,1/2-z
1/2-x,3/4+y,1/4+z
1/4+x,-y,1/4+z
1/2+x,1/2+y,z
3/4-x,3/4-y,z
1/2+x,3/4-y,1/4-z
3/4-x,1/2+y,1/4-z
1/2-x,1/2-y,-z
1/4+x,1/4+y,-z
1/2-x,1/4+y,3/4+z
1/4+x,1/2-y,3/4+z
loop_
_atom_site_type_symbol
_atom_site_label
_atom_site_fract_x
_atom_site_fract_y
_atom_site_fract_z
Si Si1 0.388933 0.165950 0.023058
Si Si2 0.956555 0.511079 0.922563
Si Si3 0.476417 0.125000 0.625000
O O1 0.375000 0.375000 0.009148
O O2 0.327305 0.141964 0.071351
O O3 0.469215 0.084384 0.047400
O O4 0.389412 0.061889 0.965873
O O5 0.944248 0.375000 0.875000
O O6 0.977144 0.697340 0.891490
#
# Coordination Sequence:
#
# PCOD9516683 Si02
#       3
#    32  32  16
#     4  11  22  44  77 109 146 204 253 315 384 451
#     4  11  24  45  75 112 151 198 259 313 378 466
#     4  12  22  48  79 102 157 206 250 312 396 452
#
# _framework density 25.401299999999999
#
# number of rings (size 3 to 8) (size 9 to 14) (size 15 to 20)
#    0.000    0.800    6.000    1.200    0.000    1.600 
#    7.200    1.000   13.200    0.000    0.000    0.000 
#    0.000    0.000    0.000    0.000    0.000    0.000 
#
# Total GULP energy -111685.464216 kJ/mol
# GULP energy per Si atom -5584.273211 kJ/mol
# Density = 2.534349 g / cm^3
# Si number density = 25.401300 Si / 1000 Ang^3
#
#
#
# Elastic Constant Matrix: (Units=GPa)
#
#
# Indices 1 2 3 4 5 6 
#
# 1 42.8108 47.3305 52.3155 0.0000 0.0000 0.0000
# 2 47.3305 255.5014 110.1761 0.0000 0.0000 -0.0001
# 3 52.3155 110.1761 252.1270 0.0000 0.0000 0.0000
# 4 0.0000 0.0000 0.0000 50.7791 0.0000 0.0000
# 5 0.0000 0.0000 0.0000 0.0000 136.4526 0.0000
# 6 0.0000 -0.0001 0.0000 0.0000 0.0000 -26.0051
#
#
#
# Elastic Compliance Matrix: (Units=1/GPa)
#
#
# Indices 1 2 3 4 5 6 
#
# 1 0.034402 -0.004060 -0.005364 0.000000 0.000000 0.000000
# 2 -0.004060 0.005302 -0.001474 0.000000 0.000000 0.000000
# 3 -0.005364 -0.001474 0.005724 0.000000 0.000000 0.000000
# 4 0.000000 0.000000 0.000000 0.019693 0.000000 0.000000
# 5 0.000000 0.000000 0.000000 0.000000 0.007329 0.000000
# 6 0.000000 0.000000 0.000000 0.000000 0.000000 -0.038454
#
#
# Mechanical properties :
#
#
# Convention : Reuss Voigt Hill
#
# Bulk Modulus (GPa) = 42.31787 107.78704 75.05246
# Shear Modulus (GPa) = 78.53145 54.95312 66.74229
#
# Velocity S-wave (km/s) = 5.56628 4.65628 5.13149
# Velocity P-wave (km/s) = 7.61624 8.45185 8.04490
#
# Compressibility (1/GPa) = 0.02363068
#
# Stress axis : x y z
#
# Youngs Moduli (GPa) = 29.06800 188.61904 174.71449
#
# Poissons Ratio (x) = 0.76573 0.93722
# Poissons Ratio (y) = 0.11801 0.25760
# Poissons Ratio (z) = 0.15593 0.27810
#
# Static dielectric constant tensor:
#      x y z
#    x -1.247940 0.000000 0.000000 
#    y 0.000000 1.019610 0.000000 
#    z 0.000000 0.000000 1.948250 
# 
# From -- ./inp_files/7791.got.cif
#   From: 2010.05.17/outbox.cif.g08.bks.cpg/sg70_4_cif.got.tgz:7791.got - 2010.06.03 15:57:51.
