data_PCOD9516382
_publ_section_title
;
Structure prediction by ZEFSAII (Michael W. Deem and Ramdas Pophale) SiO2 
 PCOD9516382
Probable space group: F D D D
;
_chemical_formula_sum "Si O2"
_cell_formula_units_Z 168
_cell_length_a 21.924857
_cell_length_b 14.748785
_cell_length_c 20.805829
_cell_angle_alpha 90.000000
_cell_angle_beta 90.000000
_cell_angle_gamma 90.000000
_cell_volume 6727.876937
_symmetry_space_group_name_H-M "F D D D"
_symmetry_group_IT_number 70
_space_group.IT_coordinate_system_code '2'
_symmetry_cell_setting 'orthorhombic'
loop_
_space_group_symop_operation_xyz
x,y,z
1/4-x,1/4-y,z
x,1/4-y,1/4-z
1/4-x,y,1/4-z
-x,-y,-z
3/4+x,3/4+y,-z
-x,3/4+y,3/4+z
3/4+x,-y,3/4+z
x,1/2+y,1/2+z
1/4-x,3/4-y,1/2+z
x,3/4-y,3/4-z
1/4-x,1/2+y,3/4-z
-x,1/2-y,1/2-z
3/4+x,1/4+y,1/2-z
-x,1/4+y,1/4+z
3/4+x,1/2-y,1/4+z
1/2+x,y,1/2+z
3/4-x,1/4-y,1/2+z
1/2+x,1/4-y,3/4-z
3/4-x,y,3/4-z
1/2-x,-y,1/2-z
1/4+x,3/4+y,1/2-z
1/2-x,3/4+y,1/4+z
1/4+x,-y,1/4+z
1/2+x,1/2+y,z
3/4-x,3/4-y,z
1/2+x,3/4-y,1/4-z
3/4-x,1/2+y,1/4-z
1/2-x,1/2-y,-z
1/4+x,1/4+y,-z
1/2-x,1/4+y,3/4+z
1/4+x,1/2-y,3/4+z
loop_
_atom_site_type_symbol
_atom_site_label
_atom_site_fract_x
_atom_site_fract_y
_atom_site_fract_z
Si Si1 0.375000 0.875000 0.875000
Si Si2 0.444870 0.564471 0.897035
Si Si3 0.167646 0.413920 0.282648
Si Si4 0.353568 0.275660 0.020566
Si Si5 0.196264 0.976393 0.402233
Si Si6 0.024092 0.989355 0.591433
O O1 0.328558 0.811044 0.911790
O O2 0.375000 0.570485 0.875000
O O3 0.484443 0.509172 0.844562
O O4 0.468945 0.668088 0.899220
O O5 0.441301 0.513896 0.965359
O O6 0.150451 0.308219 0.281288
O O7 0.103226 0.469033 0.290742
O O8 0.210088 0.430384 0.221154
O O9 0.210399 0.459107 0.337088
O O10 0.375000 0.375000 0.999286
O O11 0.326078 0.287129 0.092058
O O12 0.196900 0.875000 0.375000
#
# Coordination Sequence:
#
# PCOD9516382 Si02
#       6
#     8  32  32  32  32  32
#     4  12  24  40  64 108 138 192 230 316 378 436
#     4  12  25  47  69 109 150 196 252 313 396 459
#     4  10  24  50  71 109 143 201 259 309 389 460
#     4  11  25  46  75 110 149 199 255 322 386 464
#     4  10  26  45  71 102 147 197 251 313 380 467
#     4  11  25  45  76 103 152 195 253 323 374 471
#
# _framework density 24.970731000000001
#
# number of rings (size 3 to 8) (size 9 to 14) (size 15 to 20)
#    0.000    1.143    2.857    0.571    9.333    3.048 
#    0.000    0.000    0.000    0.000    0.000    0.000 
#    0.000    0.000    0.000    0.000    0.000    0.000 
#
# Total GULP energy -234425.504762 kJ/mol
# GULP energy per Si atom -5581.559637 kJ/mol
# Density = 2.491390 g / cm^3
# Si number density = 24.970731 Si / 1000 Ang^3
#
#
#
# Elastic Constant Matrix: (Units=GPa)
#
#
# Indices 1 2 3 4 5 6 
#
# 1 136.5750 71.7176 16.8183 0.0000 0.0000 0.0000
# 2 71.7176 149.2666 37.9867 0.0000 0.0000 0.0000
# 3 16.8183 37.9867 73.3180 0.0000 0.0000 0.0000
# 4 0.0000 0.0000 0.0000 26.9598 0.0000 0.0000
# 5 0.0000 0.0000 0.0000 0.0000 -10.3666 0.0000
# 6 0.0000 0.0000 0.0000 0.0000 0.0000 293.7189
#
#
#
# Elastic Compliance Matrix: (Units=1/GPa)
#
#
# Indices 1 2 3 4 5 6 
#
# 1 0.009796 -0.004763 0.000221 0.000000 0.000000 0.000000
# 2 -0.004763 0.010033 -0.004105 0.000000 0.000000 0.000000
# 3 0.000221 -0.004105 0.015716 0.000000 0.000000 0.000000
# 4 0.000000 0.000000 0.000000 0.037092 0.000000 0.000000
# 5 0.000000 0.000000 0.000000 0.000000 -0.096464 0.000000
# 6 0.000000 0.000000 0.000000 0.000000 0.000000 0.003405
#
#
# Mechanical properties :
#
#
# Convention : Reuss Voigt Hill
#
# Bulk Modulus (GPa) = 54.79793 68.02275 61.41034
# Shear Modulus (GPa) = 1691.96820 77.57155 884.76988
#
# Velocity S-wave (km/s) = 26.05862 5.57964 18.84388
# Velocity P-wave (km/s) = 30.45315 8.29518 22.31821
#
# Compressibility (1/GPa) = 0.01824886
#
# Stress axis : x y z
#
# Youngs Moduli (GPa) = 102.08485 99.67595 63.63064
#
# Poissons Ratio (x) = 0.47472 -0.01403
# Poissons Ratio (y) = 0.48620 0.26123
# Poissons Ratio (z) = -0.02251 0.40921
#
# Static dielectric constant tensor:
#      x y z
#    x 2.060950 0.000000 0.000000 
#    y 0.000000 1.988350 0.000000 
#    z 0.000000 0.000000 2.174910 
# 
# From -- ./inp_files/53622.got.cif
#   From: 2010.05.17/outbox.cif.g08.bks.cpg/sg70_27_cif.got.tgz:53622.got - 2010.06.03 15:57:51.
