data_PCOD9516510
_publ_section_title
;
Structure prediction by ZEFSAII (Michael W. Deem and Ramdas Pophale) SiO2 
 PCOD9516510
Probable space group: F D D D
;
_chemical_formula_sum "Si O2"
_cell_formula_units_Z 168
_cell_length_a 34.458661
_cell_length_b 9.568964
_cell_length_c 20.314621
_cell_angle_alpha 90.000000
_cell_angle_beta 90.000000
_cell_angle_gamma 90.000000
_cell_volume 6698.414874
_symmetry_space_group_name_H-M "F D D D"
_symmetry_group_IT_number 70
_space_group.IT_coordinate_system_code '2'
_symmetry_cell_setting 'orthorhombic'
loop_
_space_group_symop_operation_xyz
x,y,z
1/4-x,1/4-y,z
x,1/4-y,1/4-z
1/4-x,y,1/4-z
-x,-y,-z
3/4+x,3/4+y,-z
-x,3/4+y,3/4+z
3/4+x,-y,3/4+z
x,1/2+y,1/2+z
1/4-x,3/4-y,1/2+z
x,3/4-y,3/4-z
1/4-x,1/2+y,3/4-z
-x,1/2-y,1/2-z
3/4+x,1/4+y,1/2-z
-x,1/4+y,1/4+z
3/4+x,1/2-y,1/4+z
1/2+x,y,1/2+z
3/4-x,1/4-y,1/2+z
1/2+x,1/4-y,3/4-z
3/4-x,y,3/4-z
1/2-x,-y,1/2-z
1/4+x,3/4+y,1/2-z
1/2-x,3/4+y,1/4+z
1/4+x,-y,1/4+z
1/2+x,1/2+y,z
3/4-x,3/4-y,z
1/2+x,3/4-y,1/4-z
3/4-x,1/2+y,1/4-z
1/2-x,1/2-y,-z
1/4+x,1/4+y,-z
1/2-x,1/4+y,3/4+z
1/4+x,1/2-y,3/4+z
loop_
_atom_site_type_symbol
_atom_site_label
_atom_site_fract_x
_atom_site_fract_y
_atom_site_fract_z
Si Si1 0.226259 0.442944 0.629235
Si Si2 0.800967 0.423071 0.790790
Si Si3 0.840801 0.125998 0.049097
Si Si4 0.125000 0.125000 0.625000
Si Si5 0.356714 0.530778 0.810611
Si Si6 0.517528 0.544583 0.261703
O O1 0.214329 0.300580 0.587505
O O2 0.187790 0.476736 0.671484
O O3 0.258178 0.413844 0.684948
O O4 0.235397 0.545165 0.567889
O O5 0.815819 0.489945 0.722735
O O6 0.839723 0.354631 0.820008
O O7 0.765294 0.319990 0.780720
O O8 0.849685 0.125000 0.125000
O O9 0.810964 0.003604 0.028670
O O10 0.878511 0.105194 0.004315
O O11 0.375000 0.609270 0.875000
O O12 0.375000 0.375000 0.809238
#
# Coordination Sequence:
#
# PCOD9516510 Si02
#       6
#    32  32  32   8  32  32
#     4  11  21  40  65 100 131 186 232 286 343 427
#     4  11  20  33  58  96 139 175 219 274 350 409
#     4  11  22  40  63  97 132 176 224 286 348 415
#     4  12  20  32  56 100 134 176 214 268 336 420
#     4  11  23  45  73  89 129 186 237 267 340 420
#     4  11  21  36  65 100 144 176 227 285 355 408
#
# _framework density 25.080559999999998
#
# number of rings (size 3 to 8) (size 9 to 14) (size 15 to 20)
#    0.000    0.952    5.714    5.714    0.000    0.000 
#    1.714    2.857    0.000    0.000    0.000    0.000 
#    0.000    0.000    0.000    0.000    0.000    0.000 
#
# Total GULP energy -234701.486511 kJ/mol
# GULP energy per Si atom -5588.130631 kJ/mol
# Density = 2.502348 g / cm^3
# Si number density = 25.080560 Si / 1000 Ang^3
#
#
#
# Elastic Constant Matrix: (Units=GPa)
#
#
# Indices 1 2 3 4 5 6 
#
# 1 121.5189 30.5683 50.3872 0.0000 0.0000 0.0000
# 2 30.5683 73.5654 46.6558 0.0000 0.0000 0.0000
# 3 50.3872 46.6558 258.8811 0.0000 0.0000 0.0000
# 4 0.0000 0.0000 0.0000 27.8083 0.0000 0.0000
# 5 0.0000 0.0000 0.0000 0.0000 50.6837 0.0000
# 6 0.0000 0.0000 0.0000 0.0000 0.0000 35.3312
#
#
#
# Elastic Compliance Matrix: (Units=1/GPa)
#
#
# Indices 1 2 3 4 5 6 
#
# 1 0.009558 -0.003152 -0.001292 0.000000 0.000000 0.000000
# 2 -0.003152 0.016387 -0.002340 0.000000 0.000000 0.000000
# 3 -0.001292 -0.002340 0.004536 0.000000 0.000000 0.000000
# 4 0.000000 0.000000 0.000000 0.035961 0.000000 0.000000
# 5 0.000000 0.000000 0.000000 0.000000 0.019730 0.000000
# 6 0.000000 0.000000 0.000000 0.000000 0.000000 0.028304
#
#
# Mechanical properties :
#
#
# Convention : Reuss Voigt Hill
#
# Bulk Modulus (GPa) = 59.12681 78.79865 68.96273
# Shear Modulus (GPa) = 37.40252 44.52157 40.96204
#
# Velocity S-wave (km/s) = 3.86592 4.21781 4.04569
# Velocity P-wave (km/s) = 6.59947 7.43010 7.02707
#
# Compressibility (1/GPa) = 0.01691280
#
# Stress axis : x y z
#
# Youngs Moduli (GPa) = 104.62567 61.02401 220.45992
#
# Poissons Ratio (x) = 0.19235 0.28489
# Poissons Ratio (y) = 0.32978 0.51583
# Poissons Ratio (z) = 0.13520 0.14278
#
# Static dielectric constant tensor:
#      x y z
#    x 1.891050 0.000000 0.000000 
#    y 0.000000 2.114930 0.000000 
#    z 0.000000 0.000000 1.965700 
# 
# From -- ./inp_files/47621.got.cif
#   From: 2010.05.17/outbox.cif.g08.bks.cpg/sg70_24_cif.got.tgz:47621.got - 2010.06.03 15:57:51.
