data_PCOD9516702
_publ_section_title
;
Structure prediction by ZEFSAII (Michael W. Deem and Ramdas Pophale) SiO2 
 PCOD9516702
Probable space group: F D D D
;
_chemical_formula_sum "Si O2"
_cell_formula_units_Z 168
_cell_length_a 15.528289
_cell_length_b 25.499132
_cell_length_c 19.276421
_cell_angle_alpha 90.000000
_cell_angle_beta 90.000000
_cell_angle_gamma 90.000000
_cell_volume 7632.651004
_symmetry_space_group_name_H-M "F D D D"
_symmetry_group_IT_number 70
_space_group.IT_coordinate_system_code '2'
_symmetry_cell_setting 'orthorhombic'
loop_
_space_group_symop_operation_xyz
x,y,z
1/4-x,1/4-y,z
x,1/4-y,1/4-z
1/4-x,y,1/4-z
-x,-y,-z
3/4+x,3/4+y,-z
-x,3/4+y,3/4+z
3/4+x,-y,3/4+z
x,1/2+y,1/2+z
1/4-x,3/4-y,1/2+z
x,3/4-y,3/4-z
1/4-x,1/2+y,3/4-z
-x,1/2-y,1/2-z
3/4+x,1/4+y,1/2-z
-x,1/4+y,1/4+z
3/4+x,1/2-y,1/4+z
1/2+x,y,1/2+z
3/4-x,1/4-y,1/2+z
1/2+x,1/4-y,3/4-z
3/4-x,y,3/4-z
1/2-x,-y,1/2-z
1/4+x,3/4+y,1/2-z
1/2-x,3/4+y,1/4+z
1/4+x,-y,1/4+z
1/2+x,1/2+y,z
3/4-x,3/4-y,z
1/2+x,3/4-y,1/4-z
3/4-x,1/2+y,1/4-z
1/2-x,1/2-y,-z
1/4+x,1/4+y,-z
1/2-x,1/4+y,3/4+z
1/4+x,1/2-y,3/4+z
loop_
_atom_site_type_symbol
_atom_site_label
_atom_site_fract_x
_atom_site_fract_y
_atom_site_fract_z
Si Si1 0.375000 0.375000 0.875000
Si Si2 0.606590 0.968910 0.939110
Si Si3 0.223589 0.175838 0.249030
Si Si4 0.946149 0.916242 0.503620
Si Si5 0.522995 0.399926 0.120358
Si Si6 0.068255 0.007549 0.937987
O O1 0.315197 0.341472 0.824288
O O2 0.683162 0.950805 0.989358
O O3 0.586736 0.029307 0.961199
O O4 0.641819 0.962540 0.860477
O O5 0.520474 0.935233 0.951398
O O6 0.238216 0.126714 0.299890
O O7 0.152182 0.213253 0.282604
O O8 0.875000 0.875000 0.475294
O O9 0.988359 0.883636 0.566255
O O10 0.625000 0.401619 0.125000
O O11 0.483894 0.457553 0.117606
O O12 0.000000 0.000000 0.000000
#
# Coordination Sequence:
#
# PCOD9516702 Si02
#       6
#     8  32  32  32  32  32
#     4  12  24  44  72 100 146 188 228 306 384 436
#     4  11  25  41  74 107 141 194 255 312 379 460
#     4  12  24  45  66 101 144 186 243 311 377 452
#     4  11  22  46  73 105 144 194 255 315 377 466
#     4  12  23  45  74 101 141 200 247 302 392 462
#     4  12  26  44  70 107 148 190 250 318 382 466
#
# _framework density 22.010701000000001
#
# number of rings (size 3 to 8) (size 9 to 14) (size 15 to 20)
#    0.000    0.381    7.619    1.143    2.667    0.000 
#    0.000    0.000    0.000    3.429    0.000    0.000 
#    0.000    0.000    0.000    0.000    0.000    0.000 
#
# Total GULP energy -234823.993110 kJ/mol
# GULP energy per Si atom -5591.047455 kJ/mol
# Density = 2.196060 g / cm^3
# Si number density = 22.010701 Si / 1000 Ang^3
#
#
#
# Elastic Constant Matrix: (Units=GPa)
#
#
# Indices 1 2 3 4 5 6 
#
# 1 171.2541 49.6549 37.3408 0.0000 0.0000 0.0000
# 2 49.6549 64.7839 17.7999 0.0000 0.0000 0.0000
# 3 37.3408 17.7999 86.2853 0.0000 0.0000 0.0000
# 4 0.0000 0.0000 0.0000 21.0015 0.0000 0.0000
# 5 0.0000 0.0000 0.0000 0.0000 32.4824 0.0000
# 6 0.0000 0.0000 0.0000 0.0000 0.0000 8.0370
#
#
#
# Elastic Compliance Matrix: (Units=1/GPa)
#
#
# Indices 1 2 3 4 5 6 
#
# 1 0.007918 -0.005435 -0.002305 0.000000 0.000000 0.000000
# 2 -0.005435 0.020095 -0.001793 0.000000 0.000000 0.000000
# 3 -0.002305 -0.001793 0.012957 0.000000 0.000000 0.000000
# 4 0.000000 0.000000 0.000000 0.047616 0.000000 0.000000
# 5 0.000000 0.000000 0.000000 0.000000 0.030786 0.000000
# 6 0.000000 0.000000 0.000000 0.000000 0.000000 0.124425
#
#
# Mechanical properties :
#
#
# Convention : Reuss Voigt Hill
#
# Bulk Modulus (GPa) = 45.65806 59.10162 52.37984
# Shear Modulus (GPa) = 18.50728 26.80604 22.65666
#
# Velocity S-wave (km/s) = 2.90285 3.49358 3.21182
# Velocity P-wave (km/s) = 5.65898 6.57138 6.13217
#
# Compressibility (1/GPa) = 0.02190194
#
# Stress axis : x y z
#
# Youngs Moduli (GPa) = 126.29557 49.76427 77.17839
#
# Poissons Ratio (x) = 0.27049 0.17792
# Poissons Ratio (y) = 0.68648 0.13839
# Poissons Ratio (z) = 0.29115 0.08923
#
# Static dielectric constant tensor:
#      x y z
#    x 1.637570 0.000000 0.000000 
#    y 0.000000 1.876690 0.000000 
#    z 0.000000 0.000000 1.832510 
# 
# From -- ./inp_files/42827.got.cif
#   From: 2010.05.17/outbox.cif.g08.bks.cpg/sg70_22_cif.got.tgz:42827.got - 2010.06.03 15:57:51.
