data_PCOD9516916
_publ_section_title
;
Structure prediction by ZEFSAII (Michael W. Deem and Ramdas Pophale) SiO2 
 PCOD9516916
Probable space group: F D D D
;
_chemical_formula_sum "Si O2"
_cell_formula_units_Z 104
_cell_length_a 11.924089
_cell_length_b 13.597378
_cell_length_c 28.739870
_cell_angle_alpha 90.000000
_cell_angle_beta 90.000000
_cell_angle_gamma 90.000000
_cell_volume 4659.777490
_symmetry_space_group_name_H-M "F D D D"
_symmetry_group_IT_number 70
_space_group.IT_coordinate_system_code '2'
_symmetry_cell_setting 'orthorhombic'
loop_
_space_group_symop_operation_xyz
x,y,z
1/4-x,1/4-y,z
x,1/4-y,1/4-z
1/4-x,y,1/4-z
-x,-y,-z
3/4+x,3/4+y,-z
-x,3/4+y,3/4+z
3/4+x,-y,3/4+z
x,1/2+y,1/2+z
1/4-x,3/4-y,1/2+z
x,3/4-y,3/4-z
1/4-x,1/2+y,3/4-z
-x,1/2-y,1/2-z
3/4+x,1/4+y,1/2-z
-x,1/4+y,1/4+z
3/4+x,1/2-y,1/4+z
1/2+x,y,1/2+z
3/4-x,1/4-y,1/2+z
1/2+x,1/4-y,3/4-z
3/4-x,y,3/4-z
1/2-x,-y,1/2-z
1/4+x,3/4+y,1/2-z
1/2-x,3/4+y,1/4+z
1/4+x,-y,1/4+z
1/2+x,1/2+y,z
3/4-x,3/4-y,z
1/2+x,3/4-y,1/4-z
3/4-x,1/2+y,1/4-z
1/2-x,1/2-y,-z
1/4+x,1/4+y,-z
1/2-x,1/4+y,3/4+z
1/4+x,1/2-y,3/4+z
loop_
_atom_site_type_symbol
_atom_site_label
_atom_site_fract_x
_atom_site_fract_y
_atom_site_fract_z
Si Si1 0.502748 0.087892 0.037334
Si Si2 0.375000 0.375000 0.875000
Si Si3 0.604492 0.237762 0.782118
Si Si4 0.417142 0.990025 0.642789
O O1 0.625000 0.125000 0.052067
O O2 0.447538 0.185472 0.015936
O O3 0.426435 0.050540 0.079522
O O4 0.500000 0.000000 0.000000
O O5 0.461216 0.452838 0.848152
O O6 0.625000 0.125000 0.776131
O O7 0.500000 0.250000 0.750000
O O8 0.588129 0.250559 0.837233
O O9 0.375000 0.875000 0.652285
#
# Coordination Sequence:
#
# PCOD9516916 Si02
#       4
#    32   8  32  32
#     4  12  26  49  77 113 160 208 268 347 415 495
#     4  12  24  52  82 106 172 204 272 330 404 494
#     4  11  25  45  73 111 152 206 272 326 409 492
#     4  11  27  49  77 117 155 217 270 338 415 493
#
# _framework density 22.318662
#
# number of rings (size 3 to 8) (size 9 to 14) (size 15 to 20)
#    0.000    0.615    3.077    2.769    2.154   12.308 
#    0.000    0.000    0.000    0.000    0.000    0.000 
#    0.000    0.000    0.000    0.000    0.000    0.000 
#
# Total GULP energy -144833.809463 kJ/mol
# GULP energy per Si atom -5570.531133 kJ/mol
# Density = 2.226786 g / cm^3
# Si number density = 22.318662 Si / 1000 Ang^3
#
#
#
# Elastic Constant Matrix: (Units=GPa)
#
#
# Indices 1 2 3 4 5 6 
#
# 1 204.1329 92.3228 73.3665 0.0000 0.0000 0.0000
# 2 92.3228 232.3588 62.6016 0.0000 0.0000 0.0000
# 3 73.3665 62.6016 101.1852 0.0000 0.0000 0.0000
# 4 0.0000 0.0000 0.0000 30.4418 0.0000 0.0000
# 5 0.0000 0.0000 0.0000 0.0000 38.0516 0.0000
# 6 0.0000 0.0000 0.0000 0.0000 0.0000 52.5505
#
#
#
# Elastic Compliance Matrix: (Units=1/GPa)
#
#
# Indices 1 2 3 4 5 6 
#
# 1 0.007165 -0.001737 -0.004121 0.000000 0.000000 0.000000
# 2 -0.001737 0.005585 -0.002196 0.000000 0.000000 0.000000
# 3 -0.004121 -0.002196 0.014230 0.000000 0.000000 0.000000
# 4 0.000000 0.000000 0.000000 0.032850 0.000000 0.000000
# 5 0.000000 0.000000 0.000000 0.000000 0.026280 0.000000
# 6 0.000000 0.000000 0.000000 0.000000 0.000000 0.019029
#
#
# Mechanical properties :
#
#
# Convention : Reuss Voigt Hill
#
# Bulk Modulus (GPa) = 91.97544 110.47317 101.22431
# Shear Modulus (GPa) = 40.04112 44.83451 42.43781
#
# Velocity S-wave (km/s) = 4.24024 4.48687 4.36529
# Velocity P-wave (km/s) = 8.07913 8.74347 8.41785
#
# Compressibility (1/GPa) = 0.01087247
#
# Stress axis : x y z
#
# Youngs Moduli (GPa) = 139.56137 179.03518 70.27575
#
# Poissons Ratio (x) = 0.31094 0.28960
# Poissons Ratio (y) = 0.24238 0.15435
# Poissons Ratio (z) = 0.57511 0.39323
#
# Static dielectric constant tensor:
#      x y z
#    x 1.855470 0.000000 0.000000 
#    y 0.000000 1.846990 0.000000 
#    z 0.000000 0.000000 1.709060 
# 
# From -- ./inp_files/64374.got.cif
#   From: 2010.05.17/outbox.cif.g08.bks.cpg/sg70_33_cif.got.tgz:64374.got - 2010.06.03 15:57:51.
