data_PCOD9516239
_publ_section_title
;
Structure prediction by ZEFSAII (Michael W. Deem and Ramdas Pophale) SiO2 
 PCOD9516239
Probable space group: F D D D
;
_chemical_formula_sum "Si O2"
_cell_formula_units_Z 136
_cell_length_a 19.127372
_cell_length_b 19.435298
_cell_length_c 17.335005
_cell_angle_alpha 90.000000
_cell_angle_beta 90.000000
_cell_angle_gamma 90.000000
_cell_volume 6444.221798
_symmetry_space_group_name_H-M "F D D D"
_symmetry_group_IT_number 70
_space_group.IT_coordinate_system_code '2'
_symmetry_cell_setting 'orthorhombic'
loop_
_space_group_symop_operation_xyz
x,y,z
1/4-x,1/4-y,z
x,1/4-y,1/4-z
1/4-x,y,1/4-z
-x,-y,-z
3/4+x,3/4+y,-z
-x,3/4+y,3/4+z
3/4+x,-y,3/4+z
x,1/2+y,1/2+z
1/4-x,3/4-y,1/2+z
x,3/4-y,3/4-z
1/4-x,1/2+y,3/4-z
-x,1/2-y,1/2-z
3/4+x,1/4+y,1/2-z
-x,1/4+y,1/4+z
3/4+x,1/2-y,1/4+z
1/2+x,y,1/2+z
3/4-x,1/4-y,1/2+z
1/2+x,1/4-y,3/4-z
3/4-x,y,3/4-z
1/2-x,-y,1/2-z
1/4+x,3/4+y,1/2-z
1/2-x,3/4+y,1/4+z
1/4+x,-y,1/4+z
1/2+x,1/2+y,z
3/4-x,3/4-y,z
1/2+x,3/4-y,1/4-z
3/4-x,1/2+y,1/4-z
1/2-x,1/2-y,-z
1/4+x,1/4+y,-z
1/2-x,1/4+y,3/4+z
1/4+x,1/2-y,3/4+z
loop_
_atom_site_type_symbol
_atom_site_label
_atom_site_fract_x
_atom_site_fract_y
_atom_site_fract_z
Si Si1 0.625000 0.899319 0.125000
Si Si2 0.123407 0.727208 0.403831
Si Si3 0.315630 0.125000 0.125000
Si Si4 0.125000 0.625000 0.125000
Si Si5 0.240127 0.626208 0.788751
Si Si6 0.420559 0.983587 0.987049
O O1 0.695395 0.861680 0.097753
O O2 0.612134 0.949419 0.052420
O O3 0.137709 0.808846 0.399941
O O4 0.184593 0.685738 0.448017
O O5 0.050935 0.696381 0.437203
O O6 0.120252 0.710234 0.312904
O O7 0.267501 0.134777 0.201312
O O8 0.171032 0.672938 0.073186
O O9 0.500000 0.000000 0.000000
#
# Coordination Sequence:
#
# PCOD9516239 Si02
#       6
#    16  32  16   8  32  32
#     4  11  22  43  68 103 138 179 238 286 354 423
#     4  11  25  46  73 102 144 188 239 298 355 431
#     4  12  26  48  72 107 139 194 246 292 366 430
#     4  10  24  38  68 100 138 176 224 292 356 416
#     4  11  25  46  73 106 146 189 238 301 359 430
#     4  11  22  42  67 102 138 180 229 289 358 423
#
# _framework density 21.104178000000001
#
# number of rings (size 3 to 8) (size 9 to 14) (size 15 to 20)
#    0.000    0.941    4.706    2.118    0.000    4.706 
#    0.000    0.000    0.000    0.000    0.000    0.000 
#    0.000    0.000    0.000    0.000    0.000    0.000 
#
# Total GULP energy -189730.120183 kJ/mol
# GULP energy per Si atom -5580.297652 kJ/mol
# Density = 2.105614 g / cm^3
# Si number density = 21.104178 Si / 1000 Ang^3
#
#
#
# Elastic Constant Matrix: (Units=GPa)
#
#
# Indices 1 2 3 4 5 6 
#
# 1 104.8809 37.1687 33.5002 0.0000 0.0000 0.0000
# 2 37.1687 115.5548 28.2527 0.0000 0.0000 0.0000
# 3 33.5002 28.2527 124.1634 0.0000 0.0000 0.0000
# 4 0.0000 0.0000 0.0000 38.4379 0.0000 0.0000
# 5 0.0000 0.0000 0.0000 0.0000 -15.3100 0.0000
# 6 0.0000 0.0000 0.0000 0.0000 0.0000 52.9254
#
#
#
# Elastic Compliance Matrix: (Units=1/GPa)
#
#
# Indices 1 2 3 4 5 6 
#
# 1 0.011384 -0.003082 -0.002370 0.000000 0.000000 0.000000
# 2 -0.003082 0.009998 -0.001443 0.000000 0.000000 0.000000
# 3 -0.002370 -0.001443 0.009022 0.000000 0.000000 0.000000
# 4 0.000000 0.000000 0.000000 0.026016 0.000000 0.000000
# 5 0.000000 0.000000 0.000000 0.000000 -0.065317 0.000000
# 6 0.000000 0.000000 0.000000 0.000000 0.000000 0.018895
#
#
# Mechanical properties :
#
#
# Convention : Reuss Voigt Hill
#
# Bulk Modulus (GPa) = 60.19582 60.27136 60.23359
# Shear Modulus (GPa) = 170.49239 31.58915 101.04077
#
# Velocity S-wave (km/s) = 8.99786 3.87307 6.92684
# Velocity P-wave (km/s) = 11.68476 6.97294 9.62174
#
# Compressibility (1/GPa) = 0.01661245
#
# Stress axis : x y z
#
# Youngs Moduli (GPa) = 87.84277 100.01771 110.84224
#
# Poissons Ratio (x) = 0.30828 0.26271
# Poissons Ratio (y) = 0.27075 0.15999
# Poissons Ratio (z) = 0.20820 0.14437
#
# Static dielectric constant tensor:
#      x y z
#    x 1.818140 0.000000 0.000000 
#    y 0.000000 1.745500 0.000000 
#    z 0.000000 0.000000 1.776210 
# 
# From -- ./inp_files/34725.got.cif
#   From: 2010.05.17/outbox.cif.g08.bks.cpg/sg70_18_cif.got.tgz:34725.got - 2010.06.03 15:57:51.
