data_PCOD9516306
_publ_section_title
;
Structure prediction by ZEFSAII (Michael W. Deem and Ramdas Pophale) SiO2 
 PCOD9516306
Probable space group: F D D D
;
_chemical_formula_sum "Si O2"
_cell_formula_units_Z 160
_cell_length_a 15.031702
_cell_length_b 20.936421
_cell_length_c 22.183996
_cell_angle_alpha 90.000000
_cell_angle_beta 90.000000
_cell_angle_gamma 90.000000
_cell_volume 6981.526300
_symmetry_space_group_name_H-M "F D D D"
_symmetry_group_IT_number 70
_space_group.IT_coordinate_system_code '2'
_symmetry_cell_setting 'orthorhombic'
loop_
_space_group_symop_operation_xyz
x,y,z
1/4-x,1/4-y,z
x,1/4-y,1/4-z
1/4-x,y,1/4-z
-x,-y,-z
3/4+x,3/4+y,-z
-x,3/4+y,3/4+z
3/4+x,-y,3/4+z
x,1/2+y,1/2+z
1/4-x,3/4-y,1/2+z
x,3/4-y,3/4-z
1/4-x,1/2+y,3/4-z
-x,1/2-y,1/2-z
3/4+x,1/4+y,1/2-z
-x,1/4+y,1/4+z
3/4+x,1/2-y,1/4+z
1/2+x,y,1/2+z
3/4-x,1/4-y,1/2+z
1/2+x,1/4-y,3/4-z
3/4-x,y,3/4-z
1/2-x,-y,1/2-z
1/4+x,3/4+y,1/2-z
1/2-x,3/4+y,1/4+z
1/4+x,-y,1/4+z
1/2+x,1/2+y,z
3/4-x,3/4-y,z
1/2+x,3/4-y,1/4-z
3/4-x,1/2+y,1/4-z
1/2-x,1/2-y,-z
1/4+x,1/4+y,-z
1/2-x,1/4+y,3/4+z
1/4+x,1/2-y,3/4+z
loop_
_atom_site_type_symbol
_atom_site_label
_atom_site_fract_x
_atom_site_fract_y
_atom_site_fract_z
Si Si1 0.375000 0.875000 0.217458
Si Si2 0.695971 0.717708 0.179841
Si Si3 0.125000 0.014993 0.625000
Si Si4 0.312668 0.600490 0.001575
Si Si5 0.800409 0.606802 0.915052
Si Si6 0.097058 0.375000 0.375000
Si Si7 0.625000 0.125000 0.027135
O O1 0.341500 0.822317 0.263575
O O2 0.291298 0.891510 0.175712
O O3 0.625000 0.717449 0.125000
O O4 0.701680 0.785536 0.214006
O O5 0.782176 0.680941 0.151787
O O6 0.127769 0.061973 0.568716
O O7 0.204783 0.963674 0.613898
O O8 0.339813 0.596094 0.072160
O O9 0.217213 0.632712 0.992978
O O10 0.394105 0.643076 0.976678
O O11 0.875000 0.640743 0.875000
#
# Coordination Sequence:
#
# PCOD9516306 Si02
#       7
#    16  32  16  32  32  16  16
#     4  12  21  45  76 103 153 198 240 308 390 430
#     4  12  24  47  77 113 151 201 249 317 384 454
#     4   9  22  48  66  98 148 179 248 290 368 445
#     4  12  27  46  75 110 151 196 261 308 378 455
#     4  10  24  44  70 110 147 187 244 316 363 451
#     4  12  25  51  76 112 156 202 256 316 380 450
#     4  11  24  47  70 103 139 207 234 299 386 436
#
# _framework density 22.917624
#
# number of rings (size 3 to 8) (size 9 to 14) (size 15 to 20)
#    0.600    0.200    4.000    3.000    0.000    6.400 
#    3.600    0.000    0.000    0.000    0.000    0.000 
#    0.000    0.000    0.000    0.000    0.000    0.000 
#
# Total GULP energy -222776.866104 kJ/mol
# GULP energy per Si atom -5569.421653 kJ/mol
# Density = 2.286546 g / cm^3
# Si number density = 22.917624 Si / 1000 Ang^3
#
#
#
# Elastic Constant Matrix: (Units=GPa)
#
#
# Indices 1 2 3 4 5 6 
#
# 1 169.0881 18.2678 42.2128 0.0000 0.0000 0.0000
# 2 18.2678 81.1747 17.0853 0.0000 0.0000 0.0000
# 3 42.2128 17.0853 94.7533 0.0000 0.0000 0.0000
# 4 0.0000 0.0000 0.0000 8.8439 0.0000 0.0000
# 5 0.0000 0.0000 0.0000 0.0000 37.9189 0.0000
# 6 0.0000 0.0000 0.0000 0.0000 0.0000 -1.2668
#
#
#
# Elastic Compliance Matrix: (Units=1/GPa)
#
#
# Indices 1 2 3 4 5 6 
#
# 1 0.006719 -0.000917 -0.002828 0.000000 0.000000 0.000000
# 2 -0.000917 0.012930 -0.001923 0.000000 0.000000 0.000000
# 3 -0.002828 -0.001923 0.012160 0.000000 0.000000 0.000000
# 4 0.000000 0.000000 0.000000 0.113072 0.000000 0.000000
# 5 0.000000 0.000000 0.000000 0.000000 0.026372 0.000000
# 6 0.000000 0.000000 0.000000 0.000000 0.000000 -0.789392
#
#
# Mechanical properties :
#
#
# Convention : Reuss Voigt Hill
#
# Bulk Modulus (GPa) = 48.84287 55.57197 52.20742
# Shear Modulus (GPa) = -8.33365 26.92923 9.29779
#
# Velocity S-wave (km/s) = -1.90899 3.43161 2.01640
# Velocity P-wave (km/s) = 4.06197 6.32475 5.31517
#
# Compressibility (1/GPa) = 0.02047382
#
# Stress axis : x y z
#
# Youngs Moduli (GPa) = 148.82811 77.33840 82.23422
#
# Poissons Ratio (x) = 0.07091 0.23256
# Poissons Ratio (y) = 0.13645 0.15814
# Poissons Ratio (z) = 0.42090 0.14872
#
# Static dielectric constant tensor:
#      x y z
#    x 2.108000 0.000000 0.000000 
#    y 0.000000 1.955890 0.000000 
#    z 0.000000 0.000000 2.076920 
# 
# From -- ./inp_files/51179.got.cif
#   From: 2010.05.17/outbox.cif.g08.bks.cpg/sg70_26_cif.got.tgz:51179.got - 2010.06.03 15:57:51.
