data_PCOD9516464
_publ_section_title
;
Structure prediction by ZEFSAII (Michael W. Deem and Ramdas Pophale) SiO2 
 PCOD9516464
Probable space group: F D D D
;
_chemical_formula_sum "Si O2"
_cell_formula_units_Z 120
_cell_length_a 26.416175
_cell_length_b 11.729602
_cell_length_c 17.212964
_cell_angle_alpha 90.000000
_cell_angle_beta 90.000000
_cell_angle_gamma 90.000000
_cell_volume 5333.457880
_symmetry_space_group_name_H-M "F D D D"
_symmetry_group_IT_number 70
_space_group.IT_coordinate_system_code '2'
_symmetry_cell_setting 'orthorhombic'
loop_
_space_group_symop_operation_xyz
x,y,z
1/4-x,1/4-y,z
x,1/4-y,1/4-z
1/4-x,y,1/4-z
-x,-y,-z
3/4+x,3/4+y,-z
-x,3/4+y,3/4+z
3/4+x,-y,3/4+z
x,1/2+y,1/2+z
1/4-x,3/4-y,1/2+z
x,3/4-y,3/4-z
1/4-x,1/2+y,3/4-z
-x,1/2-y,1/2-z
3/4+x,1/4+y,1/2-z
-x,1/4+y,1/4+z
3/4+x,1/2-y,1/4+z
1/2+x,y,1/2+z
3/4-x,1/4-y,1/2+z
1/2+x,1/4-y,3/4-z
3/4-x,y,3/4-z
1/2-x,-y,1/2-z
1/4+x,3/4+y,1/2-z
1/2-x,3/4+y,1/4+z
1/4+x,-y,1/4+z
1/2+x,1/2+y,z
3/4-x,3/4-y,z
1/2+x,3/4-y,1/4-z
3/4-x,1/2+y,1/4-z
1/2-x,1/2-y,-z
1/4+x,1/4+y,-z
1/2-x,1/4+y,3/4+z
1/4+x,1/2-y,3/4+z
loop_
_atom_site_type_symbol
_atom_site_label
_atom_site_fract_x
_atom_site_fract_y
_atom_site_fract_z
Si Si1 0.702402 0.745921 0.141279
Si Si2 0.273551 0.125000 0.625000
Si Si3 0.783328 0.188713 0.768896
Si Si4 0.875000 0.375000 0.875000
Si Si5 0.652128 0.309209 0.009184
O O1 0.677686 0.625000 0.125000
O O2 0.750368 0.708834 0.192844
O O3 0.718717 0.820208 0.066743
O O4 0.666983 0.828046 0.192837
O O5 0.240993 0.216656 0.673160
O O6 0.310823 0.058823 0.685578
O O7 0.842188 0.197549 0.744388
O O8 0.842112 0.295171 0.931198
#
# Coordination Sequence:
#
# PCOD9516464 Si02
#       5
#    32  16  32   8  32
#     4  11  25  45  67 104 144 190 242 299 368 449
#     4  10  27  46  69 118 146 184 255 308 371 442
#     4  11  24  44  73 103 145 191 243 306 368 441
#     4  12  22  44  78 108 132 198 252 298 366 436
#     4  11  25  45  74 105 147 191 245 311 367 435
#
# _framework density 22.499475
#
# number of rings (size 3 to 8) (size 9 to 14) (size 15 to 20)
#    0.000    1.067    2.667    1.600    5.600    4.267 
#    0.000    0.000    0.000    0.000    0.000    0.000 
#    0.000    0.000    0.000    0.000    0.000    0.000 
#
# Total GULP energy -167673.000462 kJ/mol
# GULP energy per Si atom -5589.100015 kJ/mol
# Density = 2.244827 g / cm^3
# Si number density = 22.499475 Si / 1000 Ang^3
#
#
#
# Elastic Constant Matrix: (Units=GPa)
#
#
# Indices 1 2 3 4 5 6 
#
# 1 173.2330 47.7284 37.8530 0.0000 0.0000 0.0000
# 2 47.7284 142.8041 16.0898 0.0000 0.0000 0.0000
# 3 37.8530 16.0898 43.9993 0.0000 0.0000 0.0000
# 4 0.0000 0.0000 0.0000 29.5117 0.0000 0.0000
# 5 0.0000 0.0000 0.0000 0.0000 119.9402 0.0000
# 6 0.0000 0.0000 0.0000 0.0000 0.0000 28.1756
#
#
#
# Elastic Compliance Matrix: (Units=1/GPa)
#
#
# Indices 1 2 3 4 5 6 
#
# 1 0.007560 -0.001871 -0.005819 0.000000 0.000000 0.000000
# 2 -0.001871 0.007767 -0.001231 0.000000 0.000000 0.000000
# 3 -0.005819 -0.001231 0.028184 0.000000 0.000000 0.000000
# 4 0.000000 0.000000 0.000000 0.033885 0.000000 0.000000
# 5 0.000000 0.000000 0.000000 0.000000 0.008337 0.000000
# 6 0.000000 0.000000 0.000000 0.000000 0.000000 0.035492
#
#
# Mechanical properties :
#
#
# Convention : Reuss Voigt Hill
#
# Bulk Modulus (GPa) = 38.95821 62.59762 50.77792
# Shear Modulus (GPa) = 33.87019 52.74984 43.31002
#
# Velocity S-wave (km/s) = 3.88413 4.84725 4.39217
# Velocity P-wave (km/s) = 6.12111 7.69480 6.95263
#
# Compressibility (1/GPa) = 0.02566853
#
# Stress axis : x y z
#
# Youngs Moduli (GPa) = 132.28130 128.75733 35.48093
#
# Poissons Ratio (x) = 0.24090 0.20648
# Poissons Ratio (y) = 0.24749 0.04366
# Poissons Ratio (z) = 0.76981 0.15844
#
# Static dielectric constant tensor:
#      x y z
#    x 1.875590 0.000000 0.000000 
#    y 0.000000 1.911980 0.000000 
#    z 0.000000 0.000000 1.822480 
# 
# From -- ./inp_files/33073.got.cif
#   From: 2010.05.17/outbox.cif.g08.bks.cpg/sg70_17_cif.got.tgz:33073.got - 2010.06.03 15:57:51.
