data_PCOD9516504
_publ_section_title
;
Structure prediction by ZEFSAII (Michael W. Deem and Ramdas Pophale) SiO2 
 PCOD9516504
Probable space group: F D D D
;
_chemical_formula_sum "Si O2"
_cell_formula_units_Z 128
_cell_length_a 23.015459
_cell_length_b 12.421978
_cell_length_c 20.451353
_cell_angle_alpha 90.000000
_cell_angle_beta 90.000000
_cell_angle_gamma 90.000000
_cell_volume 5846.991213
_symmetry_space_group_name_H-M "F D D D"
_symmetry_group_IT_number 70
_space_group.IT_coordinate_system_code '2'
_symmetry_cell_setting 'orthorhombic'
loop_
_space_group_symop_operation_xyz
x,y,z
1/4-x,1/4-y,z
x,1/4-y,1/4-z
1/4-x,y,1/4-z
-x,-y,-z
3/4+x,3/4+y,-z
-x,3/4+y,3/4+z
3/4+x,-y,3/4+z
x,1/2+y,1/2+z
1/4-x,3/4-y,1/2+z
x,3/4-y,3/4-z
1/4-x,1/2+y,3/4-z
-x,1/2-y,1/2-z
3/4+x,1/4+y,1/2-z
-x,1/4+y,1/4+z
3/4+x,1/2-y,1/4+z
1/2+x,y,1/2+z
3/4-x,1/4-y,1/2+z
1/2+x,1/4-y,3/4-z
3/4-x,y,3/4-z
1/2-x,-y,1/2-z
1/4+x,3/4+y,1/2-z
1/2-x,3/4+y,1/4+z
1/4+x,-y,1/4+z
1/2+x,1/2+y,z
3/4-x,3/4-y,z
1/2+x,3/4-y,1/4-z
3/4-x,1/2+y,1/4-z
1/2-x,1/2-y,-z
1/4+x,1/4+y,-z
1/2-x,1/4+y,3/4+z
1/4+x,1/2-y,3/4+z
loop_
_atom_site_type_symbol
_atom_site_label
_atom_site_fract_x
_atom_site_fract_y
_atom_site_fract_z
Si Si1 0.409636 0.046514 0.563525
Si Si2 0.685972 0.041996 0.254288
Si Si3 0.571142 0.282567 0.042505
Si Si4 0.449186 0.306508 0.097994
O O1 0.418899 0.125000 0.625000
O O2 0.434288 0.111067 0.501672
O O3 0.437554 0.930095 0.578060
O O4 0.340848 0.020098 0.552760
O O5 0.689379 0.169393 0.243536
O O6 0.671764 0.030151 0.331063
O O7 0.750000 0.000000 0.250000
O O8 0.641404 0.985591 0.203201
O O9 0.517975 0.285697 0.093596
#
# Coordination Sequence:
#
# PCOD9516504 Si02
#       4
#    32  32  32  32
#     4  11  19  40  64  90 123 163 210 260 326 382
#     4  11  23  39  59  90 127 165 214 266 318 382
#     4  11  22  38  63  92 119 164 216 257 320 390
#     4  11  23  38  65  90 124 167 208 270 322 380
#
# _framework density 21.891601999999999
#
# number of rings (size 3 to 8) (size 9 to 14) (size 15 to 20)
#    0.000    1.000    5.000    3.750    0.000    1.000 
#    0.000    2.500    0.000    0.000    0.000    0.000 
#    0.000    0.000    0.000    0.000    0.000    0.000 
#
# Total GULP energy -178295.135841 kJ/mol
# GULP energy per Si atom -5571.722995 kJ/mol
# Density = 2.184178 g / cm^3
# Si number density = 21.891602 Si / 1000 Ang^3
#
#
#
# Elastic Constant Matrix: (Units=GPa)
#
#
# Indices 1 2 3 4 5 6 
#
# 1 167.9578 12.8871 36.0604 0.0000 0.0000 0.0000
# 2 12.8871 73.4133 4.2136 0.0000 0.0000 0.0000
# 3 36.0604 4.2136 21.0334 0.0000 0.0000 0.0000
# 4 0.0000 0.0000 0.0000 19.5368 0.0000 0.0000
# 5 0.0000 0.0000 0.0000 0.0000 38.7383 0.0000
# 6 0.0000 0.0000 0.0000 0.0000 0.0000 17.6906
#
#
#
# Elastic Compliance Matrix: (Units=1/GPa)
#
#
# Indices 1 2 3 4 5 6 
#
# 1 0.009461 -0.000738 -0.016073 0.000000 0.000000 0.000000
# 2 -0.000738 0.013838 -0.001506 0.000000 0.000000 0.000000
# 3 -0.016073 -0.001506 0.075401 0.000000 0.000000 0.000000
# 4 0.000000 0.000000 0.000000 0.051186 0.000000 0.000000
# 5 0.000000 0.000000 0.000000 0.000000 0.025814 0.000000
# 6 0.000000 0.000000 0.000000 0.000000 0.000000 0.056527
#
#
# Mechanical properties :
#
#
# Convention : Reuss Voigt Hill
#
# Bulk Modulus (GPa) = 16.11215 40.96964 28.54090
# Shear Modulus (GPa) = 17.26814 29.14269 23.20542
#
# Velocity S-wave (km/s) = 2.81161 3.65256 3.25932
# Velocity P-wave (km/s) = 4.23275 6.04513 5.21823
#
# Compressibility (1/GPa) = 0.06206495
#
# Stress axis : x y z
#
# Youngs Moduli (GPa) = 105.69271 72.26702 13.26240
#
# Poissons Ratio (x) = 0.05336 0.21317
# Poissons Ratio (y) = 0.07804 0.01998
# Poissons Ratio (z) = 1.69880 0.10885
#
# Static dielectric constant tensor:
#      x y z
#    x 1.963310 0.000000 0.000000 
#    y 0.000000 1.762040 0.000000 
#    z 0.000000 0.000000 1.855600 
# 
# From -- ./inp_files/18829.got.cif
#   From: 2010.05.17/outbox.cif.g08.bks.cpg/sg70_10_cif.got.tgz:18829.got - 2010.06.03 15:57:51.
