data_PCOD9516395
_publ_section_title
;
Structure prediction by ZEFSAII (Michael W. Deem and Ramdas Pophale) SiO2 
 PCOD9516395
Probable space group: F D D D
;
_chemical_formula_sum "Si O2"
_cell_formula_units_Z 152
_cell_length_a 19.699284
_cell_length_b 21.816368
_cell_length_c 15.719422
_cell_angle_alpha 90.000000
_cell_angle_beta 90.000000
_cell_angle_gamma 90.000000
_cell_volume 6755.686148
_symmetry_space_group_name_H-M "F D D D"
_symmetry_group_IT_number 70
_space_group.IT_coordinate_system_code '2'
_symmetry_cell_setting 'orthorhombic'
loop_
_space_group_symop_operation_xyz
x,y,z
1/4-x,1/4-y,z
x,1/4-y,1/4-z
1/4-x,y,1/4-z
-x,-y,-z
3/4+x,3/4+y,-z
-x,3/4+y,3/4+z
3/4+x,-y,3/4+z
x,1/2+y,1/2+z
1/4-x,3/4-y,1/2+z
x,3/4-y,3/4-z
1/4-x,1/2+y,3/4-z
-x,1/2-y,1/2-z
3/4+x,1/4+y,1/2-z
-x,1/4+y,1/4+z
3/4+x,1/2-y,1/4+z
1/2+x,y,1/2+z
3/4-x,1/4-y,1/2+z
1/2+x,1/4-y,3/4-z
3/4-x,y,3/4-z
1/2-x,-y,1/2-z
1/4+x,3/4+y,1/2-z
1/2-x,3/4+y,1/4+z
1/4+x,-y,1/4+z
1/2+x,1/2+y,z
3/4-x,3/4-y,z
1/2+x,3/4-y,1/4-z
3/4-x,1/2+y,1/4-z
1/2-x,1/2-y,-z
1/4+x,1/4+y,-z
1/2-x,1/4+y,3/4+z
1/4+x,1/2-y,3/4+z
loop_
_atom_site_type_symbol
_atom_site_label
_atom_site_fract_x
_atom_site_fract_y
_atom_site_fract_z
Si Si1 0.375000 0.375000 0.875000
Si Si2 0.945386 0.839063 0.575575
Si Si3 0.393393 0.125000 0.625000
Si Si4 0.983493 0.184885 0.706213
Si Si5 0.060417 0.000072 0.679469
Si Si6 0.759682 0.382638 0.505771
O O1 0.429560 0.402457 0.807860
O O2 0.875000 0.875000 0.576836
O O3 0.931188 0.777553 0.523370
O O4 0.997883 0.881094 0.521628
O O5 0.968693 0.833634 0.672973
O O6 0.340929 0.076619 0.667191
O O7 0.445580 0.108963 0.548974
O O8 0.000000 0.250000 0.750000
O O9 0.032081 0.192970 0.624898
O O10 0.125000 0.978626 0.625000
O O11 0.011015 0.943070 0.691836
#
# Coordination Sequence:
#
# PCOD9516395 Si02
#       6
#     8  32  16  32  32  32
#     4  10  24  56  68  92 136 184 234 284 342 418
#     4  12  24  42  70 101 136 186 234 284 345 421
#     4  11  26  45  65 100 143 178 228 298 337 418
#     4  12  23  42  67 101 144 178 224 289 354 403
#     4  12  24  41  70 107 139 180 230 291 350 410
#     4  11  26  47  70  96 138 186 233 285 347 415
#
# _framework density 22.499566000000002
#
# number of rings (size 3 to 8) (size 9 to 14) (size 15 to 20)
#    0.000    0.421    7.368    1.263    0.000    0.000 
#    3.789    2.105    0.000    0.000    0.000    0.000 
#    0.000    0.000    0.000    0.000    0.000    0.000 
#
# Total GULP energy -211972.285201 kJ/mol
# GULP energy per Si atom -5578.218032 kJ/mol
# Density = 2.244836 g / cm^3
# Si number density = 22.499566 Si / 1000 Ang^3
#
#
#
# Elastic Constant Matrix: (Units=GPa)
#
#
# Indices 1 2 3 4 5 6 
#
# 1 115.9717 19.5818 33.9533 0.0000 0.0000 0.0000
# 2 19.5818 55.9391 34.2797 0.0000 0.0000 0.0000
# 3 33.9533 34.2797 135.3711 0.0000 0.0000 0.0000
# 4 0.0000 0.0000 0.0000 15.1833 0.0000 0.0000
# 5 0.0000 0.0000 0.0000 0.0000 14.7610 0.0000
# 6 0.0000 0.0000 0.0000 0.0000 0.0000 20.2138
#
#
#
# Elastic Compliance Matrix: (Units=1/GPa)
#
#
# Indices 1 2 3 4 5 6 
#
# 1 0.009533 -0.002216 -0.001830 0.000000 0.000000 0.000000
# 2 -0.002216 0.021675 -0.004933 0.000000 0.000000 0.000000
# 3 -0.001830 -0.004933 0.009095 0.000000 0.000000 0.000000
# 4 0.000000 0.000000 0.000000 0.065862 0.000000 0.000000
# 5 0.000000 0.000000 0.000000 0.000000 0.067746 0.000000
# 6 0.000000 0.000000 0.000000 0.000000 0.000000 0.049471
#
#
# Mechanical properties :
#
#
# Convention : Reuss Voigt Hill
#
# Bulk Modulus (GPa) = 44.75075 53.65685 49.20380
# Shear Modulus (GPa) = 20.09745 24.66276 22.38010
#
# Velocity S-wave (km/s) = 2.99195 3.31440 3.15729
# Velocity P-wave (km/s) = 5.64522 6.20860 5.93360
#
# Compressibility (1/GPa) = 0.02234600
#
# Stress axis : x y z
#
# Youngs Moduli (GPa) = 104.90271 46.13571 109.94742
#
# Poissons Ratio (x) = 0.10222 0.20119
# Poissons Ratio (y) = 0.23242 0.54238
# Poissons Ratio (z) = 0.19196 0.22759
#
# Static dielectric constant tensor:
#      x y z
#    x 1.873030 0.000000 0.000000 
#    y 0.000000 1.907680 0.000000 
#    z 0.000000 0.000000 1.944800 
# 
# From -- ./inp_files/27660.got.cif
#   From: 2010.05.17/outbox.cif.g08.bks.cpg/sg70_14_cif.got.tgz:27660.got - 2010.06.03 15:57:51.
