data_PCOD9516980
_publ_section_title
;
Structure prediction by ZEFSAII (Michael W. Deem and Ramdas Pophale) SiO2 
 PCOD9516980
Probable space group: F D D D
;
_chemical_formula_sum "Si O2"
_cell_formula_units_Z 160
_cell_length_a 28.199067
_cell_length_b 25.365848
_cell_length_c 10.570937
_cell_angle_alpha 90.000000
_cell_angle_beta 90.000000
_cell_angle_gamma 90.000000
_cell_volume 7561.319853
_symmetry_space_group_name_H-M "F D D D"
_symmetry_group_IT_number 70
_space_group.IT_coordinate_system_code '2'
_symmetry_cell_setting 'orthorhombic'
loop_
_space_group_symop_operation_xyz
x,y,z
1/4-x,1/4-y,z
x,1/4-y,1/4-z
1/4-x,y,1/4-z
-x,-y,-z
3/4+x,3/4+y,-z
-x,3/4+y,3/4+z
3/4+x,-y,3/4+z
x,1/2+y,1/2+z
1/4-x,3/4-y,1/2+z
x,3/4-y,3/4-z
1/4-x,1/2+y,3/4-z
-x,1/2-y,1/2-z
3/4+x,1/4+y,1/2-z
-x,1/4+y,1/4+z
3/4+x,1/2-y,1/4+z
1/2+x,y,1/2+z
3/4-x,1/4-y,1/2+z
1/2+x,1/4-y,3/4-z
3/4-x,y,3/4-z
1/2-x,-y,1/2-z
1/4+x,3/4+y,1/2-z
1/2-x,3/4+y,1/4+z
1/4+x,-y,1/4+z
1/2+x,1/2+y,z
3/4-x,3/4-y,z
1/2+x,3/4-y,1/4-z
3/4-x,1/2+y,1/4-z
1/2-x,1/2-y,-z
1/4+x,1/4+y,-z
1/2-x,1/4+y,3/4+z
1/4+x,1/2-y,3/4+z
loop_
_atom_site_type_symbol
_atom_site_label
_atom_site_fract_x
_atom_site_fract_y
_atom_site_fract_z
Si Si1 0.625000 0.625000 0.923730
Si Si2 0.875000 0.968982 0.875000
Si Si3 0.278796 0.866007 0.724715
Si Si4 0.342508 0.625000 0.125000
Si Si5 0.229020 0.285591 0.611829
Si Si6 0.960148 0.030196 0.778815
Si Si7 0.625000 0.934208 0.125000
O O1 0.671562 0.622666 0.838681
O O2 0.626428 0.678289 0.007743
O O3 0.919962 0.008156 0.869836
O O4 0.238129 0.905042 0.676970
O O5 0.257802 0.810414 0.681598
O O6 0.283299 0.875000 0.875000
O O7 0.314031 0.676729 0.181498
O O8 0.370554 0.601324 0.247049
O O9 0.250000 0.250000 0.500000
O O10 0.265937 0.271726 0.720475
O O11 0.172978 0.280736 0.633634
#
# Coordination Sequence:
#
# PCOD9516980 Si02
#       7
#    16  16  32  16  32  32  16
#     4  11  27  48  68 104 149 195 240 300 366 459
#     4  11  27  48  71  98 152 197 234 296 384 436
#     4  12  23  43  73 104 140 188 250 307 356 436
#     4  12  24  46  72 109 148 183 252 298 366 442
#     4  12  23  44  70 106 149 183 242 308 366 425
#     4  12  23  46  74 101 144 193 235 312 365 428
#     4  12  25  44  75 111 142 196 240 309 362 444
#
# _framework density 21.160326000000001
#
# number of rings (size 3 to 8) (size 9 to 14) (size 15 to 20)
#    0.000    0.200    9.000    0.900    0.000    4.000 
#    3.600    0.000    0.000    0.000    0.000    0.000 
#    0.000    0.000    0.000    0.000    0.000    0.000 
#
# Total GULP energy -223000.256696 kJ/mol
# GULP energy per Si atom -5575.006417 kJ/mol
# Density = 2.111216 g / cm^3
# Si number density = 21.160326 Si / 1000 Ang^3
#
#
#
# Elastic Constant Matrix: (Units=GPa)
#
#
# Indices 1 2 3 4 5 6 
#
# 1 176.5856 26.7308 59.7126 0.0001 -0.0001 -0.0003
# 2 26.7308 74.4266 36.3171 0.0004 -0.0002 -0.0009
# 3 59.7126 36.3171 60.5508 0.0011 -0.0012 -0.0045
# 4 0.0001 0.0004 0.0011 18.5183 -0.0005 -0.0019
# 5 -0.0001 -0.0002 -0.0012 -0.0005 27.9421 0.0009
# 6 -0.0003 -0.0009 -0.0045 -0.0019 0.0009 -33.2390
#
#
#
# Elastic Compliance Matrix: (Units=1/GPa)
#
#
# Indices 1 2 3 4 5 6 
#
# 1 0.008611 0.001486 -0.009383 0.000000 0.000000 0.000001
# 2 0.001486 0.019252 -0.013012 0.000000 0.000000 0.000001
# 3 -0.009383 -0.013012 0.033572 -0.000002 0.000001 -0.000004
# 4 0.000000 0.000000 -0.000002 0.054001 0.000001 -0.000003
# 5 0.000000 0.000000 0.000001 0.000001 0.035788 0.000001
# 6 0.000001 0.000001 -0.000004 -0.000003 0.000001 -0.030085
#
#
# Mechanical properties :
#
#
# Convention : Reuss Voigt Hill
#
# Bulk Modulus (GPa) = 50.97658 61.89824 56.43741
# Shear Modulus (GPa) = 29.49927 15.23111 22.36519
#
# Velocity S-wave (km/s) = 3.73779 2.68581 3.25459
# Velocity P-wave (km/s) = 6.53996 6.23968 6.39158
#
# Compressibility (1/GPa) = 0.01961685
#
# Stress axis : x y z
#
# Youngs Moduli (GPa) = 116.13229 51.94337 29.78650
#
# Poissons Ratio (x) = -0.07718 0.27948
# Poissons Ratio (y) = -0.17254 0.38758
# Poissons Ratio (z) = 1.08965 0.67589
#
# Static dielectric constant tensor:
#      x y z
#    x 1.704500 0.000000 0.000020 
#    y 0.000000 1.971100 -0.000010 
#    z 0.000020 -0.000010 1.738250 
# 
# From -- ./inp_files/20921.got.cif
#   From: 2010.05.17/outbox.cif.g08.bks.cpg/sg70_11_cif.got.tgz:20921.got - 2010.06.03 15:57:51.
