data_PCOD9516245
_publ_section_title
;
Structure prediction by ZEFSAII (Michael W. Deem and Ramdas Pophale) SiO2 
 PCOD9516245
Probable space group: F D D D
;
_chemical_formula_sum "Si O2"
_cell_formula_units_Z 120
_cell_length_a 19.797790
_cell_length_b 9.631137
_cell_length_c 27.347255
_cell_angle_alpha 90.000000
_cell_angle_beta 90.000000
_cell_angle_gamma 90.000000
_cell_volume 5214.444076
_symmetry_space_group_name_H-M "F D D D"
_symmetry_group_IT_number 70
_space_group.IT_coordinate_system_code '2'
_symmetry_cell_setting 'orthorhombic'
loop_
_space_group_symop_operation_xyz
x,y,z
1/4-x,1/4-y,z
x,1/4-y,1/4-z
1/4-x,y,1/4-z
-x,-y,-z
3/4+x,3/4+y,-z
-x,3/4+y,3/4+z
3/4+x,-y,3/4+z
x,1/2+y,1/2+z
1/4-x,3/4-y,1/2+z
x,3/4-y,3/4-z
1/4-x,1/2+y,3/4-z
-x,1/2-y,1/2-z
3/4+x,1/4+y,1/2-z
-x,1/4+y,1/4+z
3/4+x,1/2-y,1/4+z
1/2+x,y,1/2+z
3/4-x,1/4-y,1/2+z
1/2+x,1/4-y,3/4-z
3/4-x,y,3/4-z
1/2-x,-y,1/2-z
1/4+x,3/4+y,1/2-z
1/2-x,3/4+y,1/4+z
1/4+x,-y,1/4+z
1/2+x,1/2+y,z
3/4-x,3/4-y,z
1/2+x,3/4-y,1/4-z
3/4-x,1/2+y,1/4-z
1/2-x,1/2-y,-z
1/4+x,1/4+y,-z
1/2-x,1/4+y,3/4+z
1/4+x,1/2-y,3/4+z
loop_
_atom_site_type_symbol
_atom_site_label
_atom_site_fract_x
_atom_site_fract_y
_atom_site_fract_z
Si Si1 0.780451 0.278961 0.578851
Si Si2 0.345517 0.125000 0.625000
Si Si3 0.483528 0.567340 0.420602
Si Si4 0.700626 0.688758 0.236460
Si Si5 0.375000 0.875000 0.875000
O O1 0.896733 0.526404 0.595304
O O2 0.739225 0.319601 0.626832
O O3 0.747315 0.158500 0.546969
O O4 0.781217 0.410482 0.542728
O O5 0.299859 0.222172 0.589570
O O6 0.467309 0.655554 0.469038
O O7 0.421317 0.469192 0.408923
O O8 0.625000 0.625000 0.229934
#
# Coordination Sequence:
#
# PCOD9516245 Si02
#       5
#    32  16  32  32   8
#     4  11  23  41  67 102 138 183 236 288 352 433
#     4  11  22  41  69 100 139 188 236 280 369 418
#     4  11  22  42  67  94 141 185 233 292 353 413
#     4  11  23  40  67 101 139 182 238 290 349 425
#     4  10  24  40  66 100 130 188 238 282 354 416
#
# _framework density 23.012999000000001
#
# number of rings (size 3 to 8) (size 9 to 14) (size 15 to 20)
#    0.000    1.067    2.667    4.000    0.000    1.067 
#    0.000   17.333    0.000    0.000    0.000    0.000 
#    0.000    0.000    0.000    0.000    0.000    0.000 
#
# Total GULP energy -167796.774521 kJ/mol
# GULP energy per Si atom -5593.225817 kJ/mol
# Density = 2.296062 g / cm^3
# Si number density = 23.012999 Si / 1000 Ang^3
#
#
#
# Elastic Constant Matrix: (Units=GPa)
#
#
# Indices 1 2 3 4 5 6 
#
# 1 93.0449 7.2227 15.3525 0.0000 0.0000 0.0000
# 2 7.2227 85.0046 34.1755 0.0000 0.0000 0.0000
# 3 15.3525 34.1755 103.3148 0.0000 0.0000 0.0000
# 4 0.0000 0.0000 0.0000 73.9697 0.0000 0.0000
# 5 0.0000 0.0000 0.0000 0.0000 13.4242 0.0000
# 6 0.0000 0.0000 0.0000 0.0000 0.0000 19.5482
#
#
#
# Elastic Compliance Matrix: (Units=1/GPa)
#
#
# Indices 1 2 3 4 5 6 
#
# 1 0.011025 -0.000321 -0.001532 0.000000 0.000000 0.000000
# 2 -0.000321 0.013578 -0.004444 0.000000 0.000000 0.000000
# 3 -0.001532 -0.004444 0.011377 0.000000 0.000000 0.000000
# 4 0.000000 0.000000 0.000000 0.013519 0.000000 0.000000
# 5 0.000000 0.000000 0.000000 0.000000 0.074493 0.000000
# 6 0.000000 0.000000 0.000000 0.000000 0.000000 0.051156
#
#
# Mechanical properties :
#
#
# Convention : Reuss Voigt Hill
#
# Bulk Modulus (GPa) = 42.75994 43.87398 43.31696
# Shear Modulus (GPa) = 25.57071 36.36264 30.96667
#
# Velocity S-wave (km/s) = 3.33700 3.97935 3.67224
# Velocity P-wave (km/s) = 5.78520 6.34191 6.06994
#
# Compressibility (1/GPa) = 0.02338638
#
# Stress axis : x y z
#
# Youngs Moduli (GPa) = 90.70114 73.64900 87.89817
#
# Poissons Ratio (x) = 0.02362 0.13468
# Poissons Ratio (y) = 0.02909 0.39060
# Poissons Ratio (z) = 0.13898 0.32728
#
# Static dielectric constant tensor:
#      x y z
#    x 1.840420 0.000000 0.000000 
#    y 0.000000 1.921950 0.000000 
#    z 0.000000 0.000000 1.838410 
# 
# From -- ./inp_files/61519.got.cif
#   From: 2010.05.17/outbox.cif.g08.bks.cpg/sg70_31_cif.got.tgz:61519.got - 2010.06.03 15:57:51.
