data_PCOD9516995
_publ_section_title
;
Structure prediction by ZEFSAII (Michael W. Deem and Ramdas Pophale) SiO2 
 PCOD9516995
Probable space group: F D D D
;
_chemical_formula_sum "Si O2"
_cell_formula_units_Z 144
_cell_length_a 7.095014
_cell_length_b 25.459017
_cell_length_c 29.591749
_cell_angle_alpha 90.000000
_cell_angle_beta 90.000000
_cell_angle_gamma 90.000000
_cell_volume 5345.219233
_symmetry_space_group_name_H-M "F D D D"
_symmetry_group_IT_number 70
_space_group.IT_coordinate_system_code '2'
_symmetry_cell_setting 'orthorhombic'
loop_
_space_group_symop_operation_xyz
x,y,z
1/4-x,1/4-y,z
x,1/4-y,1/4-z
1/4-x,y,1/4-z
-x,-y,-z
3/4+x,3/4+y,-z
-x,3/4+y,3/4+z
3/4+x,-y,3/4+z
x,1/2+y,1/2+z
1/4-x,3/4-y,1/2+z
x,3/4-y,3/4-z
1/4-x,1/2+y,3/4-z
-x,1/2-y,1/2-z
3/4+x,1/4+y,1/2-z
-x,1/4+y,1/4+z
3/4+x,1/2-y,1/4+z
1/2+x,y,1/2+z
3/4-x,1/4-y,1/2+z
1/2+x,1/4-y,3/4-z
3/4-x,y,3/4-z
1/2-x,-y,1/2-z
1/4+x,3/4+y,1/2-z
1/2-x,3/4+y,1/4+z
1/4+x,-y,1/4+z
1/2+x,1/2+y,z
3/4-x,3/4-y,z
1/2+x,3/4-y,1/4-z
3/4-x,1/2+y,1/4-z
1/2-x,1/2-y,-z
1/4+x,1/4+y,-z
1/2-x,1/4+y,3/4+z
1/4+x,1/2-y,3/4+z
loop_
_atom_site_type_symbol
_atom_site_label
_atom_site_fract_x
_atom_site_fract_y
_atom_site_fract_z
Si Si1 0.796738 0.188662 0.208768
Si Si2 0.375000 0.375000 0.626793
Si Si3 0.028866 0.300461 0.548644
Si Si4 0.157883 0.328530 0.801528
Si Si5 0.530923 0.535317 0.809863
O O1 0.834843 0.247207 0.191355
O O2 0.914831 0.140802 0.187408
O O3 0.572311 0.178350 0.200275
O O4 0.818400 0.195611 0.263330
O O5 0.257712 0.339814 0.661542
O O6 0.477902 0.332095 0.595332
O O7 0.003670 0.322728 0.498633
O O8 0.247818 0.286048 0.547596
O O9 0.241660 0.275728 0.824524
#
# Coordination Sequence:
#
# PCOD9516995 Si02
#       5
#    32  16  32  32  32
#     4   8  14  29  51  70  87 119 160 196 236 288
#     4  12  20  28  42  70 102 126 150 202 254 286
#     4   9  18  29  44  69  98 121 154 197 240 289
#     4   8  14  29  50  68  88 121 160 197 234 289
#     4   9  17  28  46  69  94 124 156 192 242 292
#
# _framework density 26.939962000000001
#
# number of rings (size 3 to 8) (size 9 to 14) (size 15 to 20)
#    0.000    3.111    0.000    6.000    0.000    0.000 
#    0.000    2.222    0.000    5.333    0.000    0.000 
#    0.000    7.111    0.000    0.000    0.000    0.000 
#
# Total GULP energy -201070.032932 kJ/mol
# GULP energy per Si atom -5585.278693 kJ/mol
# Density = 2.687865 g / cm^3
# Si number density = 26.939962 Si / 1000 Ang^3
#
#
#
# Elastic Constant Matrix: (Units=GPa)
#
#
# Indices 1 2 3 4 5 6 
#
# 1 82.8419 34.1863 -1.3627 0.0000 0.0000 0.0000
# 2 34.1863 283.7654 47.2400 0.0000 0.0000 0.0000
# 3 -1.3627 47.2400 53.5820 0.0000 0.0000 0.0000
# 4 0.0000 0.0000 0.0000 30.4513 0.0000 0.0000
# 5 0.0000 0.0000 0.0000 0.0000 14.0130 0.0000
# 6 0.0000 0.0000 0.0000 0.0000 0.0000 38.3773
#
#
#
# Elastic Compliance Matrix: (Units=1/GPa)
#
#
# Indices 1 2 3 4 5 6 
#
# 1 0.012881 -0.001883 0.001987 0.000000 0.000000 0.000000
# 2 -0.001883 0.004405 -0.003932 0.000000 0.000000 0.000000
# 3 0.001987 -0.003932 0.022180 0.000000 0.000000 0.000000
# 4 0.000000 0.000000 0.000000 0.032839 0.000000 0.000000
# 5 0.000000 0.000000 0.000000 0.000000 0.071363 0.000000
# 6 0.000000 0.000000 0.000000 0.000000 0.000000 0.026057
#
#
# Mechanical properties :
#
#
# Convention : Reuss Voigt Hill
#
# Bulk Modulus (GPa) = 31.43471 64.47959 47.95715
# Shear Modulus (GPa) = 26.59810 39.24336 32.92073
#
# Velocity S-wave (km/s) = 3.14556 3.82081 3.49951
# Velocity P-wave (km/s) = 4.98863 6.59176 5.84542
#
# Compressibility (1/GPa) = 0.03181197
#
# Stress axis : x y z
#
# Youngs Moduli (GPa) = 77.63502 226.99391 45.08567
#
# Poissons Ratio (x) = 0.42735 -0.08960
# Poissons Ratio (y) = 0.14616 0.17727
# Poissons Ratio (z) = -0.15429 0.89251
#
# Static dielectric constant tensor:
#      x y z
#    x 2.392260 0.000000 0.000000 
#    y 0.000000 2.139690 0.000000 
#    z 0.000000 0.000000 2.001530 
# 
# From -- ./inp_files/20654.got.cif
#   From: 2010.05.17/outbox.cif.g08.bks.cpg/sg70_11_cif.got.tgz:20654.got - 2010.06.03 15:57:51.
