data_PCOD9516616
_publ_section_title
;
Structure prediction by ZEFSAII (Michael W. Deem and Ramdas Pophale) SiO2 
 PCOD9516616
Probable space group: F D D D
;
_chemical_formula_sum "Si O2"
_cell_formula_units_Z 160
_cell_length_a 10.343473
_cell_length_b 26.245947
_cell_length_c 26.611972
_cell_angle_alpha 90.000000
_cell_angle_beta 90.000000
_cell_angle_gamma 90.000000
_cell_volume 7224.464984
_symmetry_space_group_name_H-M "F D D D"
_symmetry_group_IT_number 70
_space_group.IT_coordinate_system_code '2'
_symmetry_cell_setting 'orthorhombic'
loop_
_space_group_symop_operation_xyz
x,y,z
1/4-x,1/4-y,z
x,1/4-y,1/4-z
1/4-x,y,1/4-z
-x,-y,-z
3/4+x,3/4+y,-z
-x,3/4+y,3/4+z
3/4+x,-y,3/4+z
x,1/2+y,1/2+z
1/4-x,3/4-y,1/2+z
x,3/4-y,3/4-z
1/4-x,1/2+y,3/4-z
-x,1/2-y,1/2-z
3/4+x,1/4+y,1/2-z
-x,1/4+y,1/4+z
3/4+x,1/2-y,1/4+z
1/2+x,y,1/2+z
3/4-x,1/4-y,1/2+z
1/2+x,1/4-y,3/4-z
3/4-x,y,3/4-z
1/2-x,-y,1/2-z
1/4+x,3/4+y,1/2-z
1/2-x,3/4+y,1/4+z
1/4+x,-y,1/4+z
1/2+x,1/2+y,z
3/4-x,3/4-y,z
1/2+x,3/4-y,1/4-z
3/4-x,1/2+y,1/4-z
1/2-x,1/2-y,-z
1/4+x,1/4+y,-z
1/2-x,1/4+y,3/4+z
1/4+x,1/2-y,3/4+z
loop_
_atom_site_type_symbol
_atom_site_label
_atom_site_fract_x
_atom_site_fract_y
_atom_site_fract_z
Si Si1 0.079380 0.325337 0.252281
Si Si2 0.018514 0.323307 0.899020
Si Si3 0.125710 0.520094 0.685575
Si Si4 0.750823 0.411858 0.732259
Si Si5 0.081174 0.262822 0.815006
O O1 0.199398 0.320333 0.292471
O O2 0.070373 0.282663 0.209183
O O3 0.119571 0.379104 0.228097
O O4 0.956105 0.315668 0.288184
O O5 0.078018 0.375000 0.875000
O O6 0.875000 0.322231 0.875000
O O7 0.083768 0.275107 0.873481
O O8 0.125000 0.522666 0.625000
O O9 0.977304 0.517821 0.703470
O O10 0.875000 0.375000 0.727612
O O11 0.768795 0.458391 0.694181
O O12 0.744764 0.442981 0.784826
#
# Coordination Sequence:
#
# PCOD9516616 Si02
#       5
#    32  32  32  32  32
#     4  11  23  42  69  98 141 186 230 295 354 423
#     4  11  22  38  66 104 137 171 231 295 349 413
#     4  11  24  43  66 100 142 189 237 283 361 431
#     4  11  22  41  67  99 132 178 229 290 356 415
#     4  11  23  39  70  97 136 181 231 291 354 422
#
# _framework density 22.146968000000001
#
# number of rings (size 3 to 8) (size 9 to 14) (size 15 to 20)
#    0.000    1.000    6.000    1.200    2.800    0.800 
#    0.000    3.000    0.000    2.400    0.000    0.000 
#    0.000    0.000    0.000    0.000    0.000    0.000 
#
# Total GULP energy -222972.057291 kJ/mol
# GULP energy per Si atom -5574.301432 kJ/mol
# Density = 2.209656 g / cm^3
# Si number density = 22.146968 Si / 1000 Ang^3
#
#
#
# Elastic Constant Matrix: (Units=GPa)
#
#
# Indices 1 2 3 4 5 6 
#
# 1 67.0038 34.4547 14.6771 0.0000 0.0000 0.0000
# 2 34.4547 127.4070 21.6832 0.0000 0.0000 0.0000
# 3 14.6771 21.6832 62.0580 0.0000 0.0000 0.0000
# 4 0.0000 0.0000 0.0000 15.4846 0.0000 0.0000
# 5 0.0000 0.0000 0.0000 0.0000 22.2102 0.0000
# 6 0.0000 0.0000 0.0000 0.0000 0.0000 37.8997
#
#
#
# Elastic Compliance Matrix: (Units=1/GPa)
#
#
# Indices 1 2 3 4 5 6 
#
# 1 0.017745 -0.004343 -0.002679 0.000000 0.000000 0.000000
# 2 -0.004343 0.009408 -0.002260 0.000000 0.000000 0.000000
# 3 -0.002679 -0.002260 0.017537 0.000000 0.000000 0.000000
# 4 0.000000 0.000000 0.000000 0.064580 0.000000 0.000000
# 5 0.000000 0.000000 0.000000 0.000000 0.045024 0.000000
# 6 0.000000 0.000000 0.000000 0.000000 0.000000 0.026385
#
#
# Mechanical properties :
#
#
# Convention : Reuss Voigt Hill
#
# Bulk Modulus (GPa) = 38.27670 44.23320 41.25495
# Shear Modulus (GPa) = 24.04394 27.49580 25.76987
#
# Velocity S-wave (km/s) = 3.29850 3.52734 3.41484
# Velocity P-wave (km/s) = 5.64158 6.05024 5.84948
#
# Compressibility (1/GPa) = 0.02612556
#
# Stress axis : x y z
#
# Youngs Moduli (GPa) = 56.35545 106.29386 57.02123
#
# Poissons Ratio (x) = 0.46160 0.15278
# Poissons Ratio (y) = 0.24473 0.12887
# Poissons Ratio (z) = 0.15100 0.24023
#
# Static dielectric constant tensor:
#      x y z
#    x 1.929220 0.000000 0.000000 
#    y 0.000000 1.853710 0.000000 
#    z 0.000000 0.000000 1.841340 
# 
# From -- ./inp_files/64684.got.cif
#   From: 2010.05.17/outbox.cif.g08.bks.cpg/sg70_33_cif.got.tgz:64684.got - 2010.06.03 15:57:51.
