data_PCOD9516139
_publ_section_title
;
Structure prediction by ZEFSAII (Michael W. Deem and Ramdas Pophale) SiO2 
 PCOD9516139
Probable space group: F D D D
;
_chemical_formula_sum "Si O2"
_cell_formula_units_Z 208
_cell_length_a 17.009152
_cell_length_b 19.169891
_cell_length_c 27.060697
_cell_angle_alpha 90.000000
_cell_angle_beta 90.000000
_cell_angle_gamma 90.000000
_cell_volume 8823.508007
_symmetry_space_group_name_H-M "F D D D"
_symmetry_group_IT_number 70
_space_group.IT_coordinate_system_code '2'
_symmetry_cell_setting 'orthorhombic'
loop_
_space_group_symop_operation_xyz
x,y,z
1/4-x,1/4-y,z
x,1/4-y,1/4-z
1/4-x,y,1/4-z
-x,-y,-z
3/4+x,3/4+y,-z
-x,3/4+y,3/4+z
3/4+x,-y,3/4+z
x,1/2+y,1/2+z
1/4-x,3/4-y,1/2+z
x,3/4-y,3/4-z
1/4-x,1/2+y,3/4-z
-x,1/2-y,1/2-z
3/4+x,1/4+y,1/2-z
-x,1/4+y,1/4+z
3/4+x,1/2-y,1/4+z
1/2+x,y,1/2+z
3/4-x,1/4-y,1/2+z
1/2+x,1/4-y,3/4-z
3/4-x,y,3/4-z
1/2-x,-y,1/2-z
1/4+x,3/4+y,1/2-z
1/2-x,3/4+y,1/4+z
1/4+x,-y,1/4+z
1/2+x,1/2+y,z
3/4-x,3/4-y,z
1/2+x,3/4-y,1/4-z
3/4-x,1/2+y,1/4-z
1/2-x,1/2-y,-z
1/4+x,1/4+y,-z
1/2-x,1/4+y,3/4+z
1/4+x,1/2-y,3/4+z
loop_
_atom_site_type_symbol
_atom_site_label
_atom_site_fract_x
_atom_site_fract_y
_atom_site_fract_z
Si Si1 0.783626 0.271466 0.376427
Si Si2 0.727217 0.873055 0.679916
Si Si3 0.830715 0.745682 0.569755
Si Si4 0.516763 0.875000 0.875000
Si Si5 0.591361 0.468792 0.534499
Si Si6 0.720281 0.120530 0.542305
Si Si7 0.125000 0.625000 0.368759
Si Si8 0.875000 0.375000 0.799514
O O1 0.875000 0.291418 0.375000
O O2 0.784486 0.193450 0.398112
O O3 0.749680 0.320184 0.419824
O O4 0.758430 0.298561 0.321779
O O5 0.652829 0.821366 0.681311
O O6 0.745283 0.882555 0.737980
O O7 0.806190 0.846607 0.653897
O O8 0.817648 0.692857 0.614695
O O9 0.745682 0.782125 0.557445
O O10 0.843274 0.695349 0.522319
O O11 0.889657 0.807694 0.584474
O O12 0.454644 0.884618 0.830758
O O13 0.613287 0.550004 0.525584
O O14 0.625000 0.125000 0.536246
#
# Coordination Sequence:
#
# PCOD9516139 Si02
#       8
#    32  32  32  16  32  32  16  16
#     4   9  21  40  69  90 127 185 232 284 344 422
#     4  12  24  40  65 106 132 183 230 296 350 439
#     4  10  23  46  64 100 133 181 225 300 355 429
#     4   9  18  38  68  92 128 169 226 262 352 419
#     4  10  23  42  71  96 138 173 239 284 366 437
#     4   9  19  44  63  91 136 180 230 281 352 417
#     4  12  27  40  65  99 146 173 229 284 363 418
#     4   9  17  38  67  96 122 178 207 286 345 423
#
# _framework density 23.57339
#
# number of rings (size 3 to 8) (size 9 to 14) (size 15 to 20)
#    0.000    2.000    0.769    2.769    4.308    1.231 
#    5.538    3.077    0.000    0.000    0.000    0.000 
#    0.000    0.000    0.000    0.000    0.000    0.000 
#
# Total GULP energy -289967.145376 kJ/mol
# GULP energy per Si atom -5576.291257 kJ/mol
# Density = 2.351974 g / cm^3
# Si number density = 23.573390 Si / 1000 Ang^3
#
#
#
# Elastic Constant Matrix: (Units=GPa)
#
#
# Indices 1 2 3 4 5 6 
#
# 1 77.4632 30.2913 33.6145 0.0000 0.0000 0.0000
# 2 30.2913 120.4378 33.7628 0.0000 0.0000 0.0000
# 3 33.6145 33.7628 119.9303 0.0000 0.0000 0.0000
# 4 0.0000 0.0000 0.0000 29.2306 0.0000 0.0000
# 5 0.0000 0.0000 0.0000 0.0000 16.3489 0.0000
# 6 0.0000 0.0000 0.0000 0.0000 0.0000 32.6033
#
#
#
# Elastic Compliance Matrix: (Units=1/GPa)
#
#
# Indices 1 2 3 4 5 6 
#
# 1 0.015593 -0.002928 -0.003546 0.000000 0.000000 0.000000
# 2 -0.002928 0.009564 -0.001872 0.000000 0.000000 0.000000
# 3 -0.003546 -0.001872 0.009859 0.000000 0.000000 0.000000
# 4 0.000000 0.000000 0.000000 0.034211 0.000000 0.000000
# 5 0.000000 0.000000 0.000000 0.000000 0.061166 0.000000
# 6 0.000000 0.000000 0.000000 0.000000 0.000000 0.030672
#
#
# Mechanical properties :
#
#
# Convention : Reuss Voigt Hill
#
# Bulk Modulus (GPa) = 54.57148 57.01873 55.79510
# Shear Modulus (GPa) = 27.19387 30.31407 28.75397
#
# Velocity S-wave (km/s) = 3.40013 3.58990 3.49630
# Velocity P-wave (km/s) = 6.21405 6.43610 6.32605
#
# Compressibility (1/GPa) = 0.01832459
#
# Stress axis : x y z
#
# Youngs Moduli (GPa) = 64.13099 104.55717 101.42888
#
# Poissons Ratio (x) = 0.30611 0.35970
# Poissons Ratio (y) = 0.18775 0.18987
# Poissons Ratio (z) = 0.22743 0.19572
#
# Static dielectric constant tensor:
#      x y z
#    x 1.990890 0.000000 0.000000 
#    y 0.000000 1.924060 0.000000 
#    z 0.000000 0.000000 1.930250 
# 
# From -- ./inp_files/59647.got.cif
#   From: 2010.05.17/outbox.cif.g08.bks.cpg/sg70_30_cif.got.tgz:59647.got - 2010.06.03 15:57:51.
