data_PCOD9516547
_publ_section_title
;
Structure prediction by ZEFSAII (Michael W. Deem and Ramdas Pophale) SiO2 
 PCOD9516547
Probable space group: F D D D
;
_chemical_formula_sum "Si O2"
_cell_formula_units_Z 176
_cell_length_a 22.233585
_cell_length_b 24.055800
_cell_length_c 14.282133
_cell_angle_alpha 90.000000
_cell_angle_beta 90.000000
_cell_angle_gamma 90.000000
_cell_volume 7638.751333
_symmetry_space_group_name_H-M "F D D D"
_symmetry_group_IT_number 70
_space_group.IT_coordinate_system_code '2'
_symmetry_cell_setting 'orthorhombic'
loop_
_space_group_symop_operation_xyz
x,y,z
1/4-x,1/4-y,z
x,1/4-y,1/4-z
1/4-x,y,1/4-z
-x,-y,-z
3/4+x,3/4+y,-z
-x,3/4+y,3/4+z
3/4+x,-y,3/4+z
x,1/2+y,1/2+z
1/4-x,3/4-y,1/2+z
x,3/4-y,3/4-z
1/4-x,1/2+y,3/4-z
-x,1/2-y,1/2-z
3/4+x,1/4+y,1/2-z
-x,1/4+y,1/4+z
3/4+x,1/2-y,1/4+z
1/2+x,y,1/2+z
3/4-x,1/4-y,1/2+z
1/2+x,1/4-y,3/4-z
3/4-x,y,3/4-z
1/2-x,-y,1/2-z
1/4+x,3/4+y,1/2-z
1/2-x,3/4+y,1/4+z
1/4+x,-y,1/4+z
1/2+x,1/2+y,z
3/4-x,3/4-y,z
1/2+x,3/4-y,1/4-z
3/4-x,1/2+y,1/4-z
1/2-x,1/2-y,-z
1/4+x,1/4+y,-z
1/2-x,1/4+y,3/4+z
1/4+x,1/2-y,3/4+z
loop_
_atom_site_type_symbol
_atom_site_label
_atom_site_fract_x
_atom_site_fract_y
_atom_site_fract_z
Si Si1 0.065846 0.011740 0.840025
Si Si2 0.188026 0.920043 0.573417
Si Si3 0.993553 0.815250 0.256857
Si Si4 0.625000 0.625000 0.761347
Si Si5 0.155523 0.426864 0.414620
Si Si6 0.688964 0.449597 0.122693
O O1 0.055699 0.968211 0.753481
O O2 0.115918 0.981908 0.902947
O O3 0.090892 0.072898 0.812145
O O4 0.000830 0.019246 0.886825
O O5 0.125000 0.933791 0.625000
O O6 0.241252 0.919399 0.649557
O O7 0.182907 0.853173 0.556873
O O8 0.930052 0.841282 0.286062
O O9 0.000000 0.750000 0.250000
O O10 0.044079 0.825909 0.333714
O O11 0.116524 0.375000 0.375000
O O12 0.188336 0.427343 0.514729
O O13 0.625000 0.481027 0.125000
#
# Coordination Sequence:
#
# PCOD9516547 Si02
#       6
#    32  32  32  16  32  32
#     4  12  25  41  73 106 139 191 238 304 362 434
#     4  11  20  42  65  95 138 185 231 286 362 429
#     4  12  22  39  66 100 149 186 231 293 360 445
#     4  12  24  44  65 116 153 184 238 294 381 444
#     4  12  22  44  71  99 141 192 238 285 369 441
#     4  11  25  45  69  96 136 186 242 293 353 426
#
# _framework density 23.040416
#
# number of rings (size 3 to 8) (size 9 to 14) (size 15 to 20)
#    0.000    0.364    7.273    2.182    0.000    0.727 
#    0.000    8.182    0.000    2.727    0.000    0.000 
#    0.000    0.000    0.000    0.000    0.000    0.000 
#
# Total GULP energy -245305.368328 kJ/mol
# GULP energy per Si atom -5575.122007 kJ/mol
# Density = 2.298797 g / cm^3
# Si number density = 23.040416 Si / 1000 Ang^3
#
#
#
# Elastic Constant Matrix: (Units=GPa)
#
#
# Indices 1 2 3 4 5 6 
#
# 1 150.9964 46.4481 13.8493 0.0000 0.0000 0.0000
# 2 46.4481 138.4894 22.5501 0.0000 0.0000 0.0000
# 3 13.8493 22.5501 89.5972 0.0000 0.0000 0.0000
# 4 0.0000 0.0000 0.0000 15.4677 0.0000 0.0000
# 5 0.0000 0.0000 0.0000 0.0000 10.3798 0.0000
# 6 0.0000 0.0000 0.0000 0.0000 0.0000 47.7416
#
#
#
# Elastic Compliance Matrix: (Units=1/GPa)
#
#
# Indices 1 2 3 4 5 6 
#
# 1 0.007410 -0.002397 -0.000542 0.000000 0.000000 0.000000
# 2 -0.002397 0.008305 -0.001720 0.000000 0.000000 0.000000
# 3 -0.000542 -0.001720 0.011678 0.000000 0.000000 0.000000
# 4 0.000000 0.000000 0.000000 0.064651 0.000000 0.000000
# 5 0.000000 0.000000 0.000000 0.000000 0.096341 0.000000
# 6 0.000000 0.000000 0.000000 0.000000 0.000000 0.020946
#
#
# Mechanical properties :
#
#
# Convention : Reuss Voigt Hill
#
# Bulk Modulus (GPa) = 55.32564 60.53088 57.92826
# Shear Modulus (GPa) = 22.25466 34.46686 28.36076
#
# Velocity S-wave (km/s) = 3.11126 3.87192 3.51224
# Velocity P-wave (km/s) = 6.08039 6.80571 6.45325
#
# Compressibility (1/GPa) = 0.01807480
#
# Stress axis : x y z
#
# Youngs Moduli (GPa) = 134.95821 120.41411 85.63353
#
# Poissons Ratio (x) = 0.28862 0.04642
# Poissons Ratio (y) = 0.32348 0.14726
# Poissons Ratio (z) = 0.07316 0.20707
#
# Static dielectric constant tensor:
#      x y z
#    x 1.841590 0.000000 0.000000 
#    y 0.000000 5.636500 0.000000 
#    z 0.000000 0.000000 2.084080 
# 
# From -- ./inp_files/28773.got.cif
#   From: 2010.05.17/outbox.cif.g08.bks.cpg/sg70_15_cif.got.tgz:28773.got - 2010.06.03 15:57:51.
