data_PCOD9516511
_publ_section_title
;
Structure prediction by ZEFSAII (Michael W. Deem and Ramdas Pophale) SiO2 
 PCOD9516511
Probable space group: F D D D
;
_chemical_formula_sum "Si O2"
_cell_formula_units_Z 160
_cell_length_a 16.257447
_cell_length_b 15.682909
_cell_length_c 31.298354
_cell_angle_alpha 90.000000
_cell_angle_beta 90.000000
_cell_angle_gamma 90.000000
_cell_volume 7979.955466
_symmetry_space_group_name_H-M "F D D D"
_symmetry_group_IT_number 70
_space_group.IT_coordinate_system_code '2'
_symmetry_cell_setting 'orthorhombic'
loop_
_space_group_symop_operation_xyz
x,y,z
1/4-x,1/4-y,z
x,1/4-y,1/4-z
1/4-x,y,1/4-z
-x,-y,-z
3/4+x,3/4+y,-z
-x,3/4+y,3/4+z
3/4+x,-y,3/4+z
x,1/2+y,1/2+z
1/4-x,3/4-y,1/2+z
x,3/4-y,3/4-z
1/4-x,1/2+y,3/4-z
-x,1/2-y,1/2-z
3/4+x,1/4+y,1/2-z
-x,1/4+y,1/4+z
3/4+x,1/2-y,1/4+z
1/2+x,y,1/2+z
3/4-x,1/4-y,1/2+z
1/2+x,1/4-y,3/4-z
3/4-x,y,3/4-z
1/2-x,-y,1/2-z
1/4+x,3/4+y,1/2-z
1/2-x,3/4+y,1/4+z
1/4+x,-y,1/4+z
1/2+x,1/2+y,z
3/4-x,3/4-y,z
1/2+x,3/4-y,1/4-z
3/4-x,1/2+y,1/4-z
1/2-x,1/2-y,-z
1/4+x,1/4+y,-z
1/2-x,1/4+y,3/4+z
1/4+x,1/2-y,3/4+z
loop_
_atom_site_type_symbol
_atom_site_label
_atom_site_fract_x
_atom_site_fract_y
_atom_site_fract_z
Si Si1 0.817372 0.480881 0.334143
Si Si2 0.649967 0.222531 0.074929
Si Si3 0.068876 0.375000 0.375000
Si Si4 0.575827 0.214558 0.351340
Si Si5 0.375000 0.875000 0.490764
Si Si6 0.493274 0.663235 0.938459
O O1 0.875000 0.469109 0.375000
O O2 0.739188 0.420534 0.340480
O O3 0.861556 0.454271 0.290775
O O4 0.788652 0.576972 0.332746
O O5 0.625000 0.125000 0.063637
O O6 0.625000 0.230470 0.125000
O O7 0.743373 0.259561 0.074324
O O8 0.585992 0.281381 0.049983
O O9 0.118533 0.299300 0.397889
O O10 0.625000 0.125000 0.340817
O O11 0.547153 0.206235 0.401009
O O12 0.451784 0.858895 0.521226
#
# Coordination Sequence:
#
# PCOD9516511 Si02
#       6
#    32  32  16  32  16  32
#     4  12  23  41  63  93 130 169 215 270 332 399
#     4   9  19  36  61  90 124 169 222 271 320 392
#     4  12  21  36  61  90 128 164 218 272 315 397
#     4  11  20  34  59  93 127 167 218 271 324 388
#     4  12  23  40  60  98 128 168 214 268 344 398
#     4  11  22  39  64  91 130 167 214 268 334 394
#
# _framework density 20.050236000000002
#
# number of rings (size 3 to 8) (size 9 to 14) (size 15 to 20)
#    0.000    1.000    5.000    4.800    0.000    0.000 
#    0.000    0.000    0.000    8.400    0.000    0.000 
#    0.000    0.000    0.000    0.000    0.000    0.000 
#
# Total GULP energy -223194.125168 kJ/mol
# GULP energy per Si atom -5579.853129 kJ/mol
# Density = 2.000460 g / cm^3
# Si number density = 20.050236 Si / 1000 Ang^3
#
#
#
# Elastic Constant Matrix: (Units=GPa)
#
#
# Indices 1 2 3 4 5 6 
#
# 1 150.2534 86.6806 39.8611 0.0000 0.0000 0.0000
# 2 86.6806 146.7785 19.4401 0.0000 0.0000 0.0000
# 3 39.8611 19.4401 59.0946 0.0000 0.0000 0.0000
# 4 0.0000 0.0000 0.0000 -2.4706 0.0000 0.0000
# 5 0.0000 0.0000 0.0000 0.0000 67.3800 0.0000
# 6 0.0000 0.0000 0.0000 0.0000 0.0000 54.9031
#
#
#
# Elastic Compliance Matrix: (Units=1/GPa)
#
#
# Indices 1 2 3 4 5 6 
#
# 1 0.011791 -0.006179 -0.005921 0.000000 0.000000 0.000000
# 2 -0.006179 0.010361 0.000759 0.000000 0.000000 0.000000
# 3 -0.005921 0.000759 0.020666 0.000000 0.000000 0.000000
# 4 0.000000 0.000000 0.000000 -0.404755 0.000000 0.000000
# 5 0.000000 0.000000 0.000000 0.000000 0.014841 0.000000
# 6 0.000000 0.000000 0.000000 0.000000 0.000000 0.018214
#
#
# Mechanical properties :
#
#
# Convention : Reuss Voigt Hill
#
# Bulk Modulus (GPa) = 49.65822 72.01001 60.83412
# Shear Modulus (GPa) = -16.69509 37.97215 10.63853
#
# Velocity S-wave (km/s) = -2.88872 4.35656 2.30596
# Velocity P-wave (km/s) = 3.70059 7.82936 6.12345
#
# Compressibility (1/GPa) = 0.02013765
#
# Stress axis : x y z
#
# Youngs Moduli (GPa) = 84.81283 96.51228 48.38908
#
# Poissons Ratio (x) = 0.59634 0.28649
# Poissons Ratio (y) = 0.52405 -0.03674
# Poissons Ratio (z) = 0.50214 -0.07328
#
# Static dielectric constant tensor:
#      x y z
#    x 1.760990 0.000000 0.000000 
#    y 0.000000 1.768910 0.000000 
#    z 0.000000 0.000000 1.665960 
# 
# From -- ./inp_files/66547.got.cif
#   From: 2010.05.17/outbox.cif.g08.bks.cpg/sg70_34_cif.got.tgz:66547.got - 2010.06.03 15:57:51.
