data_PCOD9516299
_publ_section_title
;
Structure prediction by ZEFSAII (Michael W. Deem and Ramdas Pophale) SiO2 
 PCOD9516299
Probable space group: F D D D
;
_chemical_formula_sum "Si O2"
_cell_formula_units_Z 208
_cell_length_a 20.696354
_cell_length_b 27.846879
_cell_length_c 16.579195
_cell_angle_alpha 90.000000
_cell_angle_beta 90.000000
_cell_angle_gamma 90.000000
_cell_volume 9555.068647
_symmetry_space_group_name_H-M "F D D D"
_symmetry_group_IT_number 70
_space_group.IT_coordinate_system_code '2'
_symmetry_cell_setting 'orthorhombic'
loop_
_space_group_symop_operation_xyz
x,y,z
1/4-x,1/4-y,z
x,1/4-y,1/4-z
1/4-x,y,1/4-z
-x,-y,-z
3/4+x,3/4+y,-z
-x,3/4+y,3/4+z
3/4+x,-y,3/4+z
x,1/2+y,1/2+z
1/4-x,3/4-y,1/2+z
x,3/4-y,3/4-z
1/4-x,1/2+y,3/4-z
-x,1/2-y,1/2-z
3/4+x,1/4+y,1/2-z
-x,1/4+y,1/4+z
3/4+x,1/2-y,1/4+z
1/2+x,y,1/2+z
3/4-x,1/4-y,1/2+z
1/2+x,1/4-y,3/4-z
3/4-x,y,3/4-z
1/2-x,-y,1/2-z
1/4+x,3/4+y,1/2-z
1/2-x,3/4+y,1/4+z
1/4+x,-y,1/4+z
1/2+x,1/2+y,z
3/4-x,3/4-y,z
1/2+x,3/4-y,1/4-z
3/4-x,1/2+y,1/4-z
1/2-x,1/2-y,-z
1/4+x,1/4+y,-z
1/2-x,1/4+y,3/4+z
1/4+x,1/2-y,3/4+z
loop_
_atom_site_type_symbol
_atom_site_label
_atom_site_fract_x
_atom_site_fract_y
_atom_site_fract_z
Si Si1 0.068448 0.521001 0.689303
Si Si2 0.420345 0.019705 0.704545
Si Si3 0.907092 0.822397 0.252831
Si Si4 0.575785 0.866224 0.551771
Si Si5 0.809674 0.345318 0.164506
Si Si6 0.100465 0.434487 0.803394
Si Si7 0.239600 0.125000 0.625000
O O1 0.125000 0.532387 0.625000
O O2 0.066142 0.561128 0.758845
O O3 0.089338 0.472424 0.733336
O O4 0.992455 0.515178 0.665967
O O5 0.422391 0.060990 0.772607
O O6 0.371840 0.038450 0.634838
O O7 0.393817 0.970773 0.745132
O O8 0.875000 0.875000 0.248751
O O9 0.948139 0.817653 0.170461
O O10 0.949860 0.831994 0.332031
O O11 0.625000 0.873696 0.625000
O O12 0.503207 0.877877 0.577307
O O13 0.594509 0.898225 0.475554
O O14 0.875000 0.375000 0.162063
O O15 0.036967 0.402008 0.813727
#
# Coordination Sequence:
#
# PCOD9516299 Si02
#       7
#    32  32  32  32  32  32  16
#     4  11  26  44  70 102 133 186 238 294 370 432
#     4  11  25  46  71 102 145 184 243 295 363 443
#     4  11  24  44  70 105 142 183 237 301 357 437
#     4  11  24  44  71 103 141 191 237 302 370 433
#     4  10  24  44  68 100 139 184 237 295 365 436
#     4  12  24  46  67 104 141 183 238 303 354 437
#     4  12  25  42  74 102 141 192 236 288 366 426
#
# _framework density 21.768550999999999
#
# number of rings (size 3 to 8) (size 9 to 14) (size 15 to 20)
#    0.000    0.923    3.077    2.538    2.154    8.923 
#    0.000    0.000    0.000    0.000    0.000    0.000 
#    0.000    0.000    0.000    0.000    0.000    0.000 
#
# Total GULP energy -290389.629062 kJ/mol
# GULP energy per Si atom -5584.415943 kJ/mol
# Density = 2.171901 g / cm^3
# Si number density = 21.768551 Si / 1000 Ang^3
#
#
#
# Elastic Constant Matrix: (Units=GPa)
#
#
# Indices 1 2 3 4 5 6 
#
# 1 126.2468 35.1596 31.5102 0.0000 0.0000 0.0000
# 2 35.1596 72.0514 12.2224 0.0000 0.0000 0.0000
# 3 31.5102 12.2224 78.5968 0.0000 0.0000 0.0000
# 4 0.0000 0.0000 0.0000 56.4761 0.0000 0.0000
# 5 0.0000 0.0000 0.0000 0.0000 -0.1545 0.0000
# 6 0.0000 0.0000 0.0000 0.0000 0.0000 8.2651
#
#
#
# Elastic Compliance Matrix: (Units=1/GPa)
#
#
# Indices 1 2 3 4 5 6 
#
# 1 0.009944 -0.004289 -0.003320 0.000000 0.000000 0.000000
# 2 -0.004289 0.016105 -0.000785 0.000000 0.000000 0.000000
# 3 -0.003320 -0.000785 0.014176 0.000000 0.000000 0.000000
# 4 0.000000 0.000000 0.000000 0.017707 0.000000 0.000000
# 5 0.000000 0.000000 0.000000 0.000000 -6.471109 0.000000
# 6 0.000000 0.000000 0.000000 0.000000 0.000000 0.120991
#
#
# Mechanical properties :
#
#
# Convention : Reuss Voigt Hill
#
# Bulk Modulus (GPa) = 42.66630 48.29770 45.48200
# Shear Modulus (GPa) = -0.79776 26.11753 12.65989
#
# Velocity S-wave (km/s) = -0.60603 3.46755 2.41419
# Velocity P-wave (km/s) = 4.37639 6.18603 5.35816
#
# Compressibility (1/GPa) = 0.02343770
#
# Stress axis : x y z
#
# Youngs Moduli (GPa) = 100.56169 62.09151 70.54127
#
# Poissons Ratio (x) = 0.26634 0.23417
# Poissons Ratio (y) = 0.43135 0.05536
# Poissons Ratio (z) = 0.33383 0.04873
#
# Static dielectric constant tensor:
#      x y z
#    x 1.793890 0.000000 0.000000 
#    y 0.000000 1.785230 0.000000 
#    z 0.000000 0.000000 1.844060 
# 
# From -- ./inp_files/36728.got.cif
#   From: 2010.05.17/outbox.cif.g08.bks.cpg/sg70_19_cif.got.tgz:36728.got - 2010.06.03 15:57:51.
