data_PCOD9516515
_publ_section_title
;
Structure prediction by ZEFSAII (Michael W. Deem and Ramdas Pophale) SiO2 
 PCOD9516515
Probable space group: F D D D
;
_chemical_formula_sum "Si O2"
_cell_formula_units_Z 160
_cell_length_a 13.696858
_cell_length_b 29.543066
_cell_length_c 18.092417
_cell_angle_alpha 90.000000
_cell_angle_beta 90.000000
_cell_angle_gamma 90.000000
_cell_volume 7321.045516
_symmetry_space_group_name_H-M "F D D D"
_symmetry_group_IT_number 70
_space_group.IT_coordinate_system_code '2'
_symmetry_cell_setting 'orthorhombic'
loop_
_space_group_symop_operation_xyz
x,y,z
1/4-x,1/4-y,z
x,1/4-y,1/4-z
1/4-x,y,1/4-z
-x,-y,-z
3/4+x,3/4+y,-z
-x,3/4+y,3/4+z
3/4+x,-y,3/4+z
x,1/2+y,1/2+z
1/4-x,3/4-y,1/2+z
x,3/4-y,3/4-z
1/4-x,1/2+y,3/4-z
-x,1/2-y,1/2-z
3/4+x,1/4+y,1/2-z
-x,1/4+y,1/4+z
3/4+x,1/2-y,1/4+z
1/2+x,y,1/2+z
3/4-x,1/4-y,1/2+z
1/2+x,1/4-y,3/4-z
3/4-x,y,3/4-z
1/2-x,-y,1/2-z
1/4+x,3/4+y,1/2-z
1/2-x,3/4+y,1/4+z
1/4+x,-y,1/4+z
1/2+x,1/2+y,z
3/4-x,3/4-y,z
1/2+x,3/4-y,1/4-z
3/4-x,1/2+y,1/4-z
1/2-x,1/2-y,-z
1/4+x,1/4+y,-z
1/2-x,1/4+y,3/4+z
1/4+x,1/2-y,3/4+z
loop_
_atom_site_type_symbol
_atom_site_label
_atom_site_fract_x
_atom_site_fract_y
_atom_site_fract_z
Si Si1 0.029278 0.835043 0.664759
Si Si2 0.991732 0.583047 0.072018
Si Si3 0.936524 0.682791 0.484483
Si Si4 0.625000 0.506307 0.625000
Si Si5 0.890102 0.820062 0.790017
Si Si6 0.625000 0.125000 0.945681
O O1 0.125000 0.814671 0.625000
O O2 0.059146 0.885928 0.689668
O O3 0.985604 0.812086 0.739285
O O4 0.941618 0.842964 0.606219
O O5 0.008573 0.625000 0.125000
O O6 0.034347 0.539039 0.110970
O O7 0.877436 0.578135 0.056020
O O8 0.052508 0.595425 0.997494
O O9 0.882792 0.722958 0.443489
O O10 0.045965 0.698427 0.498136
O O11 0.875000 0.805969 0.875000
O O12 0.875000 0.875000 0.789422
#
# Coordination Sequence:
#
# PCOD9516515 Si02
#       6
#    32  32  32  16  32  16
#     4  11  20  34  63  99 127 172 226 282 326 391
#     4  12  25  41  65  96 132 172 225 274 332 403
#     4  11  22  37  67  92 130 173 216 271 336 398
#     4  12  23  44  58 102 134 176 210 272 348 402
#     4   9  20  37  60  96 128 167 224 277 327 403
#     4  12  19  38  59  88 132 158 214 276 323 378
#
# _framework density 21.854800999999998
#
# number of rings (size 3 to 8) (size 9 to 14) (size 15 to 20)
#    0.000    1.000    8.000    0.600    5.600    0.000 
#    0.000    0.000    0.000    4.800    0.000    0.000 
#    0.000    0.000    0.000    0.000    0.000    0.000 
#
# Total GULP energy -223373.705252 kJ/mol
# GULP energy per Si atom -5584.342631 kJ/mol
# Density = 2.180506 g / cm^3
# Si number density = 21.854801 Si / 1000 Ang^3
#
#
#
# Elastic Constant Matrix: (Units=GPa)
#
#
# Indices 1 2 3 4 5 6 
#
# 1 112.1623 6.9463 43.5099 0.0000 0.0000 0.0000
# 2 6.9463 59.5969 10.0004 0.0000 0.0000 0.0000
# 3 43.5099 10.0004 95.9950 0.0000 0.0000 0.0000
# 4 0.0000 0.0000 0.0000 18.0305 0.0000 0.0000
# 5 0.0000 0.0000 0.0000 0.0000 27.5150 0.0000
# 6 0.0000 0.0000 0.0000 0.0000 0.0000 -382.1075
#
#
#
# Elastic Compliance Matrix: (Units=1/GPa)
#
#
# Indices 1 2 3 4 5 6 
#
# 1 0.010829 -0.000446 -0.004862 0.000000 0.000000 0.000000
# 2 -0.000446 0.017096 -0.001579 0.000000 0.000000 0.000000
# 3 -0.004862 -0.001579 0.012785 0.000000 0.000000 0.000000
# 4 0.000000 0.000000 0.000000 0.055462 0.000000 0.000000
# 5 0.000000 0.000000 0.000000 0.000000 0.036344 0.000000
# 6 0.000000 0.000000 0.000000 0.000000 0.000000 -0.002617
#
#
# Mechanical properties :
#
#
# Convention : Reuss Voigt Hill
#
# Bulk Modulus (GPa) = 37.12368 43.18528 40.15448
# Shear Modulus (GPa) = 32.75416 -53.49256 -10.36920
#
# Velocity S-wave (km/s) = 3.87553 -4.95272 -2.18057
# Velocity P-wave (km/s) = 6.08684 3.59207 3.47467
#
# Compressibility (1/GPa) = 0.02693699
#
# Stress axis : x y z
#
# Youngs Moduli (GPa) = 92.34193 58.49211 78.21458
#
# Poissons Ratio (x) = 0.02611 0.38027
# Poissons Ratio (y) = 0.04122 0.12348
# Poissons Ratio (z) = 0.44896 0.09234
#
# Static dielectric constant tensor:
#      x y z
#    x 1.836290 0.000000 0.000000 
#    y 0.000000 1.725470 0.000000 
#    z 0.000000 0.000000 1.843670 
# 
# From -- ./inp_files/34023.got.cif
#   From: 2010.05.17/outbox.cif.g08.bks.cpg/sg70_18_cif.got.tgz:34023.got - 2010.06.03 15:57:51.
