data_PCOD9516589
_publ_section_title
;
Structure prediction by ZEFSAII (Michael W. Deem and Ramdas Pophale) SiO2 
 PCOD9516589
Probable space group: F D D D
;
_chemical_formula_sum "Si O2"
_cell_formula_units_Z 200
_cell_length_a 16.107982
_cell_length_b 25.075725
_cell_length_c 25.075794
_cell_angle_alpha 90.000000
_cell_angle_beta 90.000000
_cell_angle_gamma 90.000000
_cell_volume 10128.597835
_symmetry_space_group_name_H-M "F D D D"
_symmetry_group_IT_number 70
_space_group.IT_coordinate_system_code '2'
_symmetry_cell_setting 'orthorhombic'
loop_
_space_group_symop_operation_xyz
x,y,z
1/4-x,1/4-y,z
x,1/4-y,1/4-z
1/4-x,y,1/4-z
-x,-y,-z
3/4+x,3/4+y,-z
-x,3/4+y,3/4+z
3/4+x,-y,3/4+z
x,1/2+y,1/2+z
1/4-x,3/4-y,1/2+z
x,3/4-y,3/4-z
1/4-x,1/2+y,3/4-z
-x,1/2-y,1/2-z
3/4+x,1/4+y,1/2-z
-x,1/4+y,1/4+z
3/4+x,1/2-y,1/4+z
1/2+x,y,1/2+z
3/4-x,1/4-y,1/2+z
1/2+x,1/4-y,3/4-z
3/4-x,y,3/4-z
1/2-x,-y,1/2-z
1/4+x,3/4+y,1/2-z
1/2-x,3/4+y,1/4+z
1/4+x,-y,1/4+z
1/2+x,1/2+y,z
3/4-x,3/4-y,z
1/2+x,3/4-y,1/4-z
3/4-x,1/2+y,1/4-z
1/2-x,1/2-y,-z
1/4+x,1/4+y,-z
1/2-x,1/4+y,3/4+z
1/4+x,1/2-y,3/4+z
loop_
_atom_site_type_symbol
_atom_site_label
_atom_site_fract_x
_atom_site_fract_y
_atom_site_fract_z
Si Si1 0.245822 0.315834 0.709341
Si Si2 0.679822 0.177056 0.908565
Si Si3 0.242575 0.125000 0.125000
Si Si4 0.185141 0.846780 0.006950
Si Si5 0.125000 0.125000 0.625000
Si Si6 0.369712 0.542940 0.152049
Si Si7 0.625000 0.125000 0.533842
Si Si8 0.999876 0.056984 0.697083
O O1 0.276081 0.325588 0.649062
O O2 0.159338 0.345166 0.722212
O O3 0.320578 0.336000 0.747125
O O4 0.228357 0.252644 0.715027
O O5 0.625000 0.125000 0.917562
O O6 0.752246 0.180602 0.952188
O O7 0.623760 0.230029 0.910125
O O8 0.297994 0.171835 0.149758
O O9 0.189442 0.149806 0.076539
O O10 0.184688 0.816778 0.950115
O O11 0.218464 0.905828 0.994677
O O12 0.071633 0.087127 0.664107
O O13 0.324135 0.552004 0.095954
#
# Coordination Sequence:
#
# PCOD9516589 Si02
#       8
#    32  32  16  32   8  32  16  32
#     4  11  25  46  64  96 138 177 215 280 337 398
#     4  11  27  41  63  96 137 179 218 267 340 408
#     4  11  21  42  75 101 118 174 229 286 329 395
#     4  12  23  42  68  94 130 177 222 275 330 395
#     4  12  22  40  64 100 130 166 224 272 326 398
#     4  11  21  44  63  97 132 164 220 283 325 387
#     4  11  22  44  73  96 129 172 227 278 340 392
#     4  11  25  40  67  97 132 171 223 273 331 395
#
# _framework density 19.74607
#
# number of rings (size 3 to 8) (size 9 to 14) (size 15 to 20)
#    0.000    0.800    5.600    0.960    7.840    0.000 
#    2.880    2.400    0.000    0.000    0.000    0.000 
#    0.000    0.000    0.000    0.000    0.000    0.000 
#
# Total GULP energy -279374.234849 kJ/mol
# GULP energy per Si atom -5587.484697 kJ/mol
# Density = 1.970113 g / cm^3
# Si number density = 19.746070 Si / 1000 Ang^3
#
#
#
# Elastic Constant Matrix: (Units=GPa)
#
#
# Indices 1 2 3 4 5 6 
#
# 1 103.7214 65.4580 33.5141 0.0000 0.0000 0.0000
# 2 65.4580 113.1377 30.4249 0.0000 0.0000 0.0000
# 3 33.5141 30.4249 98.9357 0.0000 0.0000 0.0000
# 4 0.0000 0.0000 0.0000 15.2171 0.0000 0.0000
# 5 0.0000 0.0000 0.0000 0.0000 36.5667 0.0000
# 6 0.0000 0.0000 0.0000 0.0000 0.0000 5.6854
#
#
#
# Elastic Compliance Matrix: (Units=1/GPa)
#
#
# Indices 1 2 3 4 5 6 
#
# 1 0.015858 -0.008427 -0.002780 0.000000 0.000000 0.000000
# 2 -0.008427 0.014114 -0.001486 0.000000 0.000000 0.000000
# 3 -0.002780 -0.001486 0.011506 0.000000 0.000000 0.000000
# 4 0.000000 0.000000 0.000000 0.065715 0.000000 0.000000
# 5 0.000000 0.000000 0.000000 0.000000 0.027347 0.000000
# 6 0.000000 0.000000 0.000000 0.000000 0.000000 0.175889
#
#
# Mechanical properties :
#
#
# Convention : Reuss Voigt Hill
#
# Bulk Modulus (GPa) = 62.14314 63.84321 62.99317
# Shear Modulus (GPa) = 14.65500 23.92036 19.28768
#
# Velocity S-wave (km/s) = 2.72724 3.48429 3.12875
# Velocity P-wave (km/s) = 6.43868 6.97061 6.70992
#
# Compressibility (1/GPa) = 0.01609188
#
# Stress axis : x y z
#
# Youngs Moduli (GPa) = 63.05979 70.85124 86.90921
#
# Poissons Ratio (x) = 0.59708 0.24163
# Poissons Ratio (y) = 0.53142 0.12912
# Poissons Ratio (z) = 0.17532 0.10526
#
# Static dielectric constant tensor:
#      x y z
#    x 1.699760 0.000000 0.000000 
#    y 0.000000 1.689960 0.000000 
#    z 0.000000 0.000000 1.698130 
# 
# From -- ./inp_files/58776.got.cif
#   From: 2010.05.17/outbox.cif.g08.bks.cpg/sg70_30_cif.got.tgz:58776.got - 2010.06.03 15:57:51.
