data_PCOD9516820
_publ_section_title
;
Structure prediction by ZEFSAII (Michael W. Deem and Ramdas Pophale) SiO2 
 PCOD9516820
Probable space group: F D D D
;
_chemical_formula_sum "Si O2"
_cell_formula_units_Z 104
_cell_length_a 22.812050
_cell_length_b 12.431023
_cell_length_c 14.597113
_cell_angle_alpha 90.000000
_cell_angle_beta 90.000000
_cell_angle_gamma 90.000000
_cell_volume 4139.407239
_symmetry_space_group_name_H-M "F D D D"
_symmetry_group_IT_number 70
_space_group.IT_coordinate_system_code '2'
_symmetry_cell_setting 'orthorhombic'
loop_
_space_group_symop_operation_xyz
x,y,z
1/4-x,1/4-y,z
x,1/4-y,1/4-z
1/4-x,y,1/4-z
-x,-y,-z
3/4+x,3/4+y,-z
-x,3/4+y,3/4+z
3/4+x,-y,3/4+z
x,1/2+y,1/2+z
1/4-x,3/4-y,1/2+z
x,3/4-y,3/4-z
1/4-x,1/2+y,3/4-z
-x,1/2-y,1/2-z
3/4+x,1/4+y,1/2-z
-x,1/4+y,1/4+z
3/4+x,1/2-y,1/4+z
1/2+x,y,1/2+z
3/4-x,1/4-y,1/2+z
1/2+x,1/4-y,3/4-z
3/4-x,y,3/4-z
1/2-x,-y,1/2-z
1/4+x,3/4+y,1/2-z
1/2-x,3/4+y,1/4+z
1/4+x,-y,1/4+z
1/2+x,1/2+y,z
3/4-x,3/4-y,z
1/2+x,3/4-y,1/4-z
3/4-x,1/2+y,1/4-z
1/2-x,1/2-y,-z
1/4+x,1/4+y,-z
1/2-x,1/4+y,3/4+z
1/4+x,1/2-y,3/4+z
loop_
_atom_site_type_symbol
_atom_site_label
_atom_site_fract_x
_atom_site_fract_y
_atom_site_fract_z
Si Si1 0.705036 0.318990 0.606300
Si Si2 0.569355 0.775971 0.442330
Si Si3 0.307631 0.060772 0.717532
Si Si4 0.125000 0.625000 0.625000
O O1 0.705033 0.416475 0.534261
O O2 0.770640 0.292944 0.640793
O O3 0.675172 0.358286 0.700498
O O4 0.671246 0.208664 0.576983
O O5 0.580201 0.875000 0.375000
O O6 0.635404 0.736295 0.457944
O O7 0.294418 0.125000 0.625000
O O8 0.250000 0.000000 0.750000
#
# Coordination Sequence:
#
# PCOD9516820 Si02
#       4
#    32  32  32   8
#     4  12  24  44  70 105 145 187 235 303 358 428
#     4  11  24  42  69 105 139 181 235 287 364 426
#     4  11  25  46  68 100 139 187 239 288 355 435
#     4  12  24  40  76 100 150 182 232 306 372 420
#
# _framework density 25.124369999999999
#
# number of rings (size 3 to 8) (size 9 to 14) (size 15 to 20)
#    0.000    0.615    4.615    2.769    0.000    1.231 
#    0.000    1.538    0.000    0.000    0.000    0.000 
#    0.000    0.000    0.000    0.000    0.000    0.000 
#
# Total GULP energy -145300.345705 kJ/mol
# GULP energy per Si atom -5588.474835 kJ/mol
# Density = 2.506719 g / cm^3
# Si number density = 25.124370 Si / 1000 Ang^3
#
#
#
# Elastic Constant Matrix: (Units=GPa)
#
#
# Indices 1 2 3 4 5 6 
#
# 1 252.0042 63.3502 37.5836 0.0000 0.0000 0.0000
# 2 63.3502 91.4309 42.5344 0.0000 0.0000 0.0000
# 3 37.5836 42.5344 158.8829 0.0000 0.0000 0.0000
# 4 0.0000 0.0000 0.0000 -16.6335 0.0000 0.0000
# 5 0.0000 0.0000 0.0000 0.0000 20.4640 0.0000
# 6 0.0000 0.0000 0.0000 0.0000 0.0000 31.0381
#
#
#
# Elastic Compliance Matrix: (Units=1/GPa)
#
#
# Indices 1 2 3 4 5 6 
#
# 1 0.004816 -0.003206 -0.000281 0.000000 0.000000 0.000000
# 2 -0.003206 0.014628 -0.003158 0.000000 0.000000 0.000000
# 3 -0.000281 -0.003158 0.007206 0.000000 0.000000 0.000000
# 4 0.000000 0.000000 0.000000 -0.060120 0.000000 0.000000
# 5 0.000000 0.000000 0.000000 0.000000 0.048866 0.000000
# 6 0.000000 0.000000 0.000000 0.000000 0.000000 0.032218
#
#
# Mechanical properties :
#
#
# Convention : Reuss Voigt Hill
#
# Bulk Modulus (GPa) = 74.84990 87.69494 81.27242
# Shear Modulus (GPa) = 76.50238 30.89703 53.69971
#
# Velocity S-wave (km/s) = 5.52409 3.51060 4.62817
# Velocity P-wave (km/s) = 8.39904 7.17025 7.80885
#
# Compressibility (1/GPa) = 0.01336007
#
# Stress axis : x y z
#
# Youngs Moduli (GPa) = 207.63734 68.36360 138.77924
#
# Poissons Ratio (x) = 0.21919 0.03898
# Poissons Ratio (y) = 0.66574 0.43820
# Poissons Ratio (z) = 0.05832 0.21586
#
# Static dielectric constant tensor:
#      x y z
#    x 2.156970 0.000000 0.000000 
#    y 0.000000 2.154850 0.000000 
#    z 0.000000 0.000000 2.008390 
# 
# From -- ./inp_files/26084.got.cif
#   From: 2010.05.17/outbox.cif.g08.bks.cpg/sg70_14_cif.got.tgz:26084.got - 2010.06.03 15:57:51.
