data_PCOD9516622
_publ_section_title
;
Structure prediction by ZEFSAII (Michael W. Deem and Ramdas Pophale) SiO2 
 PCOD9516622
Probable space group: F D D D
;
_chemical_formula_sum "Si O2"
_cell_formula_units_Z 112
_cell_length_a 11.092854
_cell_length_b 14.892781
_cell_length_c 30.708291
_cell_angle_alpha 90.000000
_cell_angle_beta 90.000000
_cell_angle_gamma 90.000000
_cell_volume 5073.115472
_symmetry_space_group_name_H-M "F D D D"
_symmetry_group_IT_number 70
_space_group.IT_coordinate_system_code '2'
_symmetry_cell_setting 'orthorhombic'
loop_
_space_group_symop_operation_xyz
x,y,z
1/4-x,1/4-y,z
x,1/4-y,1/4-z
1/4-x,y,1/4-z
-x,-y,-z
3/4+x,3/4+y,-z
-x,3/4+y,3/4+z
3/4+x,-y,3/4+z
x,1/2+y,1/2+z
1/4-x,3/4-y,1/2+z
x,3/4-y,3/4-z
1/4-x,1/2+y,3/4-z
-x,1/2-y,1/2-z
3/4+x,1/4+y,1/2-z
-x,1/4+y,1/4+z
3/4+x,1/2-y,1/4+z
1/2+x,y,1/2+z
3/4-x,1/4-y,1/2+z
1/2+x,1/4-y,3/4-z
3/4-x,y,3/4-z
1/2-x,-y,1/2-z
1/4+x,3/4+y,1/2-z
1/2-x,3/4+y,1/4+z
1/4+x,-y,1/4+z
1/2+x,1/2+y,z
3/4-x,3/4-y,z
1/2+x,3/4-y,1/4-z
3/4-x,1/2+y,1/4-z
1/2-x,1/2-y,-z
1/4+x,1/4+y,-z
1/2-x,1/4+y,3/4+z
1/4+x,1/2-y,3/4+z
loop_
_atom_site_type_symbol
_atom_site_label
_atom_site_fract_x
_atom_site_fract_y
_atom_site_fract_z
Si Si1 0.123185 0.227368 0.977742
Si Si2 0.199558 0.030934 0.069107
Si Si3 0.875000 0.123613 0.375000
Si Si4 0.819725 0.719950 0.633064
O O1 0.125000 0.125000 0.963314
O O2 0.102496 0.281958 0.934172
O O3 0.250000 0.250000 0.000000
O O4 0.027882 0.232273 0.017636
O O5 0.125000 0.125000 0.073708
O O6 0.314580 0.030129 0.100941
O O7 0.125478 0.943294 0.084869
O O8 0.761189 0.057189 0.374229
O O9 0.756765 0.625000 0.625000
#
# Coordination Sequence:
#
# PCOD9516622 Si02
#       4
#    32  32  16  32
#     4  11  22  39  66  98 125 161 220 281 325 376
#     4  11  23  42  70  99 124 166 229 278 322 386
#     4  12  24  42  62  94 136 176 206 264 342 398
#     4  12  25  43  65  94 135 177 217 268 328 394
#
# _framework density 22.077165000000001
#
# number of rings (size 3 to 8) (size 9 to 14) (size 15 to 20)
#    0.000    0.571    0.000   12.000    0.000    1.143 
#    0.000    8.571    0.000    0.000    0.000    0.000 
#    0.000    0.000    0.000    0.000    0.000    0.000 
#
# Total GULP energy -156552.757342 kJ/mol
# GULP energy per Si atom -5591.169905 kJ/mol
# Density = 2.202692 g / cm^3
# Si number density = 22.077165 Si / 1000 Ang^3
#
#
#
# Elastic Constant Matrix: (Units=GPa)
#
#
# Indices 1 2 3 4 5 6 
#
# 1 116.8984 59.2374 61.0017 0.0000 0.0000 0.0000
# 2 59.2374 191.8664 59.7382 0.0000 0.0000 0.0000
# 3 61.0017 59.7382 205.5186 0.0000 0.0000 0.0000
# 4 0.0000 0.0000 0.0000 44.9756 0.0000 0.0000
# 5 0.0000 0.0000 0.0000 0.0000 9.6165 0.0000
# 6 0.0000 0.0000 0.0000 0.0000 0.0000 38.7941
#
#
#
# Elastic Compliance Matrix: (Units=1/GPa)
#
#
# Indices 1 2 3 4 5 6 
#
# 1 0.011246 -0.002675 -0.002561 0.000000 0.000000 0.000000
# 2 -0.002675 0.006367 -0.001057 0.000000 0.000000 0.000000
# 3 -0.002561 -0.001057 0.005933 0.000000 0.000000 0.000000
# 4 0.000000 0.000000 0.000000 0.022234 0.000000 0.000000
# 5 0.000000 0.000000 0.000000 0.000000 0.103988 0.000000
# 6 0.000000 0.000000 0.000000 0.000000 0.000000 0.025777
#
#
# Mechanical properties :
#
#
# Convention : Reuss Voigt Hill
#
# Bulk Modulus (GPa) = 91.22790 97.13755 94.18272
# Shear Modulus (GPa) = 26.07107 40.96430 33.51768
#
# Velocity S-wave (km/s) = 3.44016 4.31223 3.90064
# Velocity P-wave (km/s) = 7.56251 8.29990 7.93977
#
# Compressibility (1/GPa) = 0.01096156
#
# Stress axis : x y z
#
# Youngs Moduli (GPa) = 88.91957 157.06413 168.55170
#
# Poissons Ratio (x) = 0.42014 0.43158
# Poissons Ratio (y) = 0.23785 0.17811
# Poissons Ratio (z) = 0.22768 0.16597
#
# Static dielectric constant tensor:
#      x y z
#    x 1.898100 0.000000 0.000000 
#    y 0.000000 1.812730 0.000000 
#    z 0.000000 0.000000 1.855640 
# 
# From -- ./inp_files/64380.got.cif
#   From: 2010.05.17/outbox.cif.g08.bks.cpg/sg70_33_cif.got.tgz:64380.got - 2010.06.03 15:57:51.
