data_PCOD9516845
_publ_section_title
;
Structure prediction by ZEFSAII (Michael W. Deem and Ramdas Pophale) SiO2 
 PCOD9516845
Probable space group: F D D D
;
_chemical_formula_sum "Si O2"
_cell_formula_units_Z 192
_cell_length_a 20.178101
_cell_length_b 23.289017
_cell_length_c 19.169414
_cell_angle_alpha 90.000000
_cell_angle_beta 90.000000
_cell_angle_gamma 90.000000
_cell_volume 9008.247013
_symmetry_space_group_name_H-M "F D D D"
_symmetry_group_IT_number 70
_space_group.IT_coordinate_system_code '2'
_symmetry_cell_setting 'orthorhombic'
loop_
_space_group_symop_operation_xyz
x,y,z
1/4-x,1/4-y,z
x,1/4-y,1/4-z
1/4-x,y,1/4-z
-x,-y,-z
3/4+x,3/4+y,-z
-x,3/4+y,3/4+z
3/4+x,-y,3/4+z
x,1/2+y,1/2+z
1/4-x,3/4-y,1/2+z
x,3/4-y,3/4-z
1/4-x,1/2+y,3/4-z
-x,1/2-y,1/2-z
3/4+x,1/4+y,1/2-z
-x,1/4+y,1/4+z
3/4+x,1/2-y,1/4+z
1/2+x,y,1/2+z
3/4-x,1/4-y,1/2+z
1/2+x,1/4-y,3/4-z
3/4-x,y,3/4-z
1/2-x,-y,1/2-z
1/4+x,3/4+y,1/2-z
1/2-x,3/4+y,1/4+z
1/4+x,-y,1/4+z
1/2+x,1/2+y,z
3/4-x,3/4-y,z
1/2+x,3/4-y,1/4-z
3/4-x,1/2+y,1/4-z
1/2-x,1/2-y,-z
1/4+x,1/4+y,-z
1/2-x,1/4+y,3/4+z
1/4+x,1/2-y,3/4+z
loop_
_atom_site_type_symbol
_atom_site_label
_atom_site_fract_x
_atom_site_fract_y
_atom_site_fract_z
Si Si1 0.780667 0.163767 0.724524
Si Si2 0.731614 0.402757 0.947239
Si Si3 0.287629 0.803424 0.035308
Si Si4 0.583140 0.803114 0.321428
Si Si5 0.656326 0.510215 0.548994
Si Si6 0.657151 0.562836 0.936719
O O1 0.802157 0.187972 0.648480
O O2 0.787724 0.094710 0.725663
O O3 0.833652 0.195148 0.774517
O O4 0.707161 0.181263 0.748198
O O5 0.756708 0.375000 0.875000
O O6 0.655035 0.416595 0.936084
O O7 0.772532 0.460419 0.955853
O O8 0.749339 0.359609 0.009392
O O9 0.298686 0.799452 0.117614
O O10 0.250000 0.750000 0.000000
O O11 0.360125 0.797696 0.001595
O O12 0.601613 0.737068 0.306480
O O13 0.625000 0.512713 0.625000
O O14 0.625000 0.625000 0.924878
#
# Coordination Sequence:
#
# PCOD9516845 Si02
#       6
#    32  32  32  32  32  32
#     4  11  24  44  70  98 134 194 234 281 358 436
#     4  12  21  38  64  98 143 194 218 277 358 423
#     4  12  24  39  64 104 148 187 230 287 352 427
#     4  11  24  47  71  93 140 189 232 291 363 421
#     4  12  22  35  62 106 142 181 236 275 348 437
#     4  12  26  46  72 105 142 184 242 304 355 418
#
# _framework density 21.313803
#
# number of rings (size 3 to 8) (size 9 to 14) (size 15 to 20)
#    0.000    0.333    6.667    4.500    0.000    0.667 
#    0.000    1.667    0.000    4.000    0.000    0.000 
#    0.000    0.000    0.000    0.000    0.000    0.000 
#
# Total GULP energy -268231.019143 kJ/mol
# GULP energy per Si atom -5588.146232 kJ/mol
# Density = 2.126529 g / cm^3
# Si number density = 21.313803 Si / 1000 Ang^3
#
#
#
# Elastic Constant Matrix: (Units=GPa)
#
#
# Indices 1 2 3 4 5 6 
#
# 1 68.1319 29.3272 34.4012 0.0000 0.0000 0.0000
# 2 29.3272 162.8346 31.6126 0.0000 0.0000 0.0000
# 3 34.4012 31.6126 66.8528 0.0000 0.0000 0.0000
# 4 0.0000 0.0000 0.0000 29.5747 0.0000 0.0000
# 5 0.0000 0.0000 0.0000 0.0000 33.7823 0.0000
# 6 0.0000 0.0000 0.0000 0.0000 0.0000 26.8243
#
#
#
# Elastic Compliance Matrix: (Units=1/GPa)
#
#
# Indices 1 2 3 4 5 6 
#
# 1 0.020294 -0.001792 -0.009595 0.000000 0.000000 0.000000
# 2 -0.001792 0.006920 -0.002350 0.000000 0.000000 0.000000
# 3 -0.009595 -0.002350 0.021007 0.000000 0.000000 0.000000
# 4 0.000000 0.000000 0.000000 0.033813 0.000000 0.000000
# 5 0.000000 0.000000 0.000000 0.000000 0.029601 0.000000
# 6 0.000000 0.000000 0.000000 0.000000 0.000000 0.037280
#
#
# Mechanical properties :
#
#
# Convention : Reuss Voigt Hill
#
# Bulk Modulus (GPa) = 48.20248 54.27794 51.24021
# Shear Modulus (GPa) = 27.27691 31.53481 29.40586
#
# Velocity S-wave (km/s) = 3.58128 3.85066 3.71841
# Velocity P-wave (km/s) = 6.30599 6.72990 6.52139
#
# Compressibility (1/GPa) = 0.02074582
#
# Stress axis : x y z
#
# Youngs Moduli (GPa) = 49.27632 144.50382 47.60294
#
# Poissons Ratio (x) = 0.25897 0.45676
# Poissons Ratio (y) = 0.08831 0.11187
# Poissons Ratio (z) = 0.47282 0.33961
#
# Static dielectric constant tensor:
#      x y z
#    x 1.838840 0.000000 0.000000 
#    y 0.000000 1.846790 0.000000 
#    z 0.000000 0.000000 1.768020 
# 
# From -- ./inp_files/44991.got.cif
#   From: 2010.05.17/outbox.cif.g08.bks.cpg/sg70_23_cif.got.tgz:44991.got - 2010.06.03 15:57:51.
