data_PCOD9516748
_publ_section_title
;
Structure prediction by ZEFSAII (Michael W. Deem and Ramdas Pophale) SiO2 
 PCOD9516748
Probable space group: F D D D
;
_chemical_formula_sum "Si O2"
_cell_formula_units_Z 96
_cell_length_a 23.566959
_cell_length_b 13.376299
_cell_length_c 13.212644
_cell_angle_alpha 90.000000
_cell_angle_beta 90.000000
_cell_angle_gamma 90.000000
_cell_volume 4165.136587
_symmetry_space_group_name_H-M "F D D D"
_symmetry_group_IT_number 70
_space_group.IT_coordinate_system_code '2'
_symmetry_cell_setting 'orthorhombic'
loop_
_space_group_symop_operation_xyz
x,y,z
1/4-x,1/4-y,z
x,1/4-y,1/4-z
1/4-x,y,1/4-z
-x,-y,-z
3/4+x,3/4+y,-z
-x,3/4+y,3/4+z
3/4+x,-y,3/4+z
x,1/2+y,1/2+z
1/4-x,3/4-y,1/2+z
x,3/4-y,3/4-z
1/4-x,1/2+y,3/4-z
-x,1/2-y,1/2-z
3/4+x,1/4+y,1/2-z
-x,1/4+y,1/4+z
3/4+x,1/2-y,1/4+z
1/2+x,y,1/2+z
3/4-x,1/4-y,1/2+z
1/2+x,1/4-y,3/4-z
3/4-x,y,3/4-z
1/2-x,-y,1/2-z
1/4+x,3/4+y,1/2-z
1/2-x,3/4+y,1/4+z
1/4+x,-y,1/4+z
1/2+x,1/2+y,z
3/4-x,3/4-y,z
1/2+x,3/4-y,1/4-z
3/4-x,1/2+y,1/4-z
1/2-x,1/2-y,-z
1/4+x,1/4+y,-z
1/2-x,1/4+y,3/4+z
1/4+x,1/2-y,3/4+z
loop_
_atom_site_type_symbol
_atom_site_label
_atom_site_fract_x
_atom_site_fract_y
_atom_site_fract_z
Si Si1 0.569711 0.003863 0.698566
Si Si2 0.278122 0.625000 0.625000
Si Si3 0.375000 0.375000 0.637136
Si Si4 0.376090 0.564392 0.258774
O O1 0.625000 0.009475 0.625000
O O2 0.574439 0.893815 0.747723
O O3 0.512898 0.030625 0.640034
O O4 0.576363 0.088081 0.785285
O O5 0.319287 0.621928 0.722177
O O6 0.380074 0.279668 0.564645
O O7 0.375000 0.531544 0.375000
#
# Coordination Sequence:
#
# PCOD9516748 Si02
#       4
#    32  16  16  32
#     4  11  23  42  75 110 133 185 258 288 339 426
#     4  12  23  48  80 102 142 194 241 306 354 418
#     4  12  20  46  66 102 154 180 224 304 352 418
#     4  11  27  44  69 104 150 188 233 298 361 426
#
# _framework density 23.048463999999999
#
# number of rings (size 3 to 8) (size 9 to 14) (size 15 to 20)
#    0.000    0.667    6.667    0.500    0.000   12.000 
#    0.000   10.000    0.000    0.000    0.000    0.000 
#    0.000    0.000    0.000    0.000    0.000    0.000 
#
# Total GULP energy -133920.093840 kJ/mol
# GULP energy per Si atom -5580.003910 kJ/mol
# Density = 2.299600 g / cm^3
# Si number density = 23.048464 Si / 1000 Ang^3
#
#
#
# Elastic Constant Matrix: (Units=GPa)
#
#
# Indices 1 2 3 4 5 6 
#
# 1 82.3150 26.5909 45.8461 0.0000 0.0000 0.0000
# 2 26.5909 158.8157 54.7477 0.0000 0.0000 0.0000
# 3 45.8461 54.7477 159.6120 0.0000 0.0000 0.0000
# 4 0.0000 0.0000 0.0000 66.2431 0.0000 0.0000
# 5 0.0000 0.0000 0.0000 0.0000 25.3807 0.0000
# 6 0.0000 0.0000 0.0000 0.0000 0.0000 12.2914
#
#
#
# Elastic Compliance Matrix: (Units=1/GPa)
#
#
# Indices 1 2 3 4 5 6 
#
# 1 0.014641 -0.001136 -0.003816 0.000000 0.000000 0.000000
# 2 -0.001136 0.007229 -0.002153 0.000000 0.000000 0.000000
# 3 -0.003816 -0.002153 0.008100 0.000000 0.000000 0.000000
# 4 0.000000 0.000000 0.000000 0.015096 0.000000 0.000000
# 5 0.000000 0.000000 0.000000 0.000000 0.039400 0.000000
# 6 0.000000 0.000000 0.000000 0.000000 0.000000 0.081358
#
#
# Mechanical properties :
#
#
# Convention : Reuss Voigt Hill
#
# Bulk Modulus (GPa) = 63.45340 72.79023 68.12182
# Shear Modulus (GPa) = 26.98526 39.02022 33.00274
#
# Velocity S-wave (km/s) = 3.42541 4.11903 3.78813
# Velocity P-wave (km/s) = 6.57532 7.36694 6.98236
#
# Compressibility (1/GPa) = 0.01575960
#
# Stress axis : x y z
#
# Youngs Moduli (GPa) = 68.30332 138.32963 123.46010
#
# Poissons Ratio (x) = 0.15714 0.47108
# Poissons Ratio (y) = 0.07759 0.26585
# Poissons Ratio (z) = 0.26062 0.29787
#
# Static dielectric constant tensor:
#      x y z
#    x 1.848490 0.000000 0.000000 
#    y 0.000000 1.949160 0.000000 
#    z 0.000000 0.000000 1.877250 
# 
# From -- ./inp_files/25129.got.cif
#   From: 2010.05.17/outbox.cif.g08.bks.cpg/sg70_13_cif.got.tgz:25129.got - 2010.06.03 15:57:51.
