data_PCOD9516125
_publ_section_title
;
Structure prediction by ZEFSAII (Michael W. Deem and Ramdas Pophale) SiO2 
 PCOD9516125
Probable space group: F D D D
;
_chemical_formula_sum "Si O2"
_cell_formula_units_Z 112
_cell_length_a 22.949857
_cell_length_b 13.335678
_cell_length_c 14.906953
_cell_angle_alpha 90.000000
_cell_angle_beta 90.000000
_cell_angle_gamma 90.000000
_cell_volume 4562.301335
_symmetry_space_group_name_H-M "F D D D"
_symmetry_group_IT_number 70
_space_group.IT_coordinate_system_code '2'
_symmetry_cell_setting 'orthorhombic'
loop_
_space_group_symop_operation_xyz
x,y,z
1/4-x,1/4-y,z
x,1/4-y,1/4-z
1/4-x,y,1/4-z
-x,-y,-z
3/4+x,3/4+y,-z
-x,3/4+y,3/4+z
3/4+x,-y,3/4+z
x,1/2+y,1/2+z
1/4-x,3/4-y,1/2+z
x,3/4-y,3/4-z
1/4-x,1/2+y,3/4-z
-x,1/2-y,1/2-z
3/4+x,1/4+y,1/2-z
-x,1/4+y,1/4+z
3/4+x,1/2-y,1/4+z
1/2+x,y,1/2+z
3/4-x,1/4-y,1/2+z
1/2+x,1/4-y,3/4-z
3/4-x,y,3/4-z
1/2-x,-y,1/2-z
1/4+x,3/4+y,1/2-z
1/2-x,3/4+y,1/4+z
1/4+x,-y,1/4+z
1/2+x,1/2+y,z
3/4-x,3/4-y,z
1/2+x,3/4-y,1/4-z
3/4-x,1/2+y,1/4-z
1/2-x,1/2-y,-z
1/4+x,1/4+y,-z
1/2-x,1/4+y,3/4+z
1/4+x,1/2-y,3/4+z
loop_
_atom_site_type_symbol
_atom_site_label
_atom_site_fract_x
_atom_site_fract_y
_atom_site_fract_z
Si Si1 0.747389 0.132268 0.521151
Si Si2 0.162527 0.473157 0.315094
Si Si3 0.625000 0.625000 0.938894
Si Si4 0.208323 0.747439 0.119113
O O1 0.760216 0.125000 0.625000
O O2 0.750000 0.250000 0.500000
O O3 0.680544 0.100983 0.499460
O O4 0.788858 0.061241 0.460879
O O5 0.165219 0.375000 0.375000
O O6 0.114499 0.537134 0.366851
O O7 0.163505 0.466549 0.207803
O O8 0.226325 0.522509 0.332747
O O9 0.202103 0.625000 0.125000
#
# Coordination Sequence:
#
# PCOD9516125 Si02
#       4
#    32  32  16  32
#     4  11  26  43  71 101 143 188 238 297 365 438
#     4   9  19  37  68  93 132 172 224 284 347 415
#     4  10  23  42  67 100 142 178 239 300 357 428
#     4   9  20  39  68  95 129 178 231 281 350 421
#
# _framework density 24.549014
#
# number of rings (size 3 to 8) (size 9 to 14) (size 15 to 20)
#    0.000    2.286    0.000    0.429   20.000    1.143 
#    0.000    0.714    0.000    0.000    0.000    0.000 
#    0.000    0.000    0.000    0.000    0.000    0.000 
#
# Total GULP energy -156273.210885 kJ/mol
# GULP energy per Si atom -5581.186103 kJ/mol
# Density = 2.449314 g / cm^3
# Si number density = 24.549014 Si / 1000 Ang^3
#
#
#
# Elastic Constant Matrix: (Units=GPa)
#
#
# Indices 1 2 3 4 5 6 
#
# 1 104.0553 24.9011 38.8964 0.0000 0.0000 0.0000
# 2 24.9011 112.1429 97.8125 0.0000 0.0000 0.0000
# 3 38.8964 97.8125 263.2667 0.0000 0.0000 0.0000
# 4 0.0000 0.0000 0.0000 42.2445 0.0000 0.0000
# 5 0.0000 0.0000 0.0000 0.0000 19.2440 0.0000
# 6 0.0000 0.0000 0.0000 0.0000 0.0000 -20.2429
#
#
#
# Elastic Compliance Matrix: (Units=1/GPa)
#
#
# Indices 1 2 3 4 5 6 
#
# 1 0.010323 -0.001423 -0.000996 0.000000 0.000000 0.000000
# 2 -0.001423 0.013388 -0.004764 0.000000 0.000000 0.000000
# 3 -0.000996 -0.004764 0.005716 0.000000 0.000000 0.000000
# 4 0.000000 0.000000 0.000000 0.023672 0.000000 0.000000
# 5 0.000000 0.000000 0.000000 0.000000 0.051964 0.000000
# 6 0.000000 0.000000 0.000000 0.000000 0.000000 -0.049400
#
#
# Mechanical properties :
#
#
# Convention : Reuss Voigt Hill
#
# Bulk Modulus (GPa) = 66.40028 89.18722 77.79375
# Shear Modulus (GPa) = 66.62178 29.43946 48.03062
#
# Velocity S-wave (km/s) = 5.21509 3.46672 4.42805
# Velocity P-wave (km/s) = 7.96051 7.24109 7.60930
#
# Compressibility (1/GPa) = 0.01506018
#
# Stress axis : x y z
#
# Youngs Moduli (GPa) = 96.86794 74.69150 174.95870
#
# Poissons Ratio (x) = 0.10630 0.17434
# Poissons Ratio (y) = 0.13786 0.83350
# Poissons Ratio (z) = 0.09653 0.35583
#
# Static dielectric constant tensor:
#      x y z
#    x 2.019580 0.000000 0.000000 
#    y 0.000000 -0.264030 0.000000 
#    z 0.000000 0.000000 2.013110 
# 
# From -- ./inp_files/14989.got.cif
#   From: 2010.05.17/outbox.cif.g08.bks.cpg/sg70_8_cif.got.tgz:14989.got - 2010.06.03 15:57:51.
