data_PCOD9516315
_publ_section_title
;
Structure prediction by ZEFSAII (Michael W. Deem and Ramdas Pophale) SiO2 
 PCOD9516315
Probable space group: F D D D
;
_chemical_formula_sum "Si O2"
_cell_formula_units_Z 144
_cell_length_a 10.552767
_cell_length_b 26.214633
_cell_length_c 19.569520
_cell_angle_alpha 90.000000
_cell_angle_beta 90.000000
_cell_angle_gamma 90.000000
_cell_volume 5413.651622
_symmetry_space_group_name_H-M "F D D D"
_symmetry_group_IT_number 70
_space_group.IT_coordinate_system_code '2'
_symmetry_cell_setting 'orthorhombic'
loop_
_space_group_symop_operation_xyz
x,y,z
1/4-x,1/4-y,z
x,1/4-y,1/4-z
1/4-x,y,1/4-z
-x,-y,-z
3/4+x,3/4+y,-z
-x,3/4+y,3/4+z
3/4+x,-y,3/4+z
x,1/2+y,1/2+z
1/4-x,3/4-y,1/2+z
x,3/4-y,3/4-z
1/4-x,1/2+y,3/4-z
-x,1/2-y,1/2-z
3/4+x,1/4+y,1/2-z
-x,1/4+y,1/4+z
3/4+x,1/2-y,1/4+z
1/2+x,y,1/2+z
3/4-x,1/4-y,1/2+z
1/2+x,1/4-y,3/4-z
3/4-x,y,3/4-z
1/2-x,-y,1/2-z
1/4+x,3/4+y,1/2-z
1/2-x,3/4+y,1/4+z
1/4+x,-y,1/4+z
1/2+x,1/2+y,z
3/4-x,3/4-y,z
1/2+x,3/4-y,1/4-z
3/4-x,1/2+y,1/4-z
1/2-x,1/2-y,-z
1/4+x,1/4+y,-z
1/2-x,1/4+y,3/4+z
1/4+x,1/2-y,3/4+z
loop_
_atom_site_type_symbol
_atom_site_label
_atom_site_fract_x
_atom_site_fract_y
_atom_site_fract_z
Si Si1 0.079150 0.549803 0.023276
Si Si2 0.984292 0.714853 0.433935
Si Si3 0.875000 0.875000 0.157344
Si Si4 0.722738 0.313496 0.571540
Si Si5 0.652997 0.384746 0.451207
O O1 0.200093 0.524948 0.057994
O O2 0.990026 0.592839 0.056380
O O3 0.120812 0.576715 0.954332
O O4 0.000000 0.500000 0.000000
O O5 0.875000 0.704013 0.375000
O O6 0.922662 0.584434 0.500996
O O7 0.961544 0.681087 0.502914
O O8 0.757648 0.867112 0.108819
O O9 0.625000 0.288003 0.625000
O O10 0.861753 0.287779 0.571940
O O11 0.703671 0.375000 0.375000
#
# Coordination Sequence:
#
# PCOD9516315 Si02
#       5
#    32  32  16  32  32
#     4  10  24  44  77 112 156 210 278 337 407 506
#     4  11  24  48  81 119 163 220 279 350 416 502
#     4  12  22  46  84 114 156 214 280 334 422 498
#     4  12  23  44  85 119 161 218 277 342 422 498
#     4  11  23  43  76 122 164 211 272 345 414 497
#
# _framework density 26.599422000000001
#
# number of rings (size 3 to 8) (size 9 to 14) (size 15 to 20)
#    0.000    0.889    4.444    3.333    0.000    3.556 
#    0.000    1.111    9.778    0.000    0.000    0.000 
#    0.000    1.333    0.000    0.000    0.000    0.000 
#
# Total GULP energy -200670.686912 kJ/mol
# GULP energy per Si atom -5574.185748 kJ/mol
# Density = 2.653888 g / cm^3
# Si number density = 26.599422 Si / 1000 Ang^3
#
#
#
# Elastic Constant Matrix: (Units=GPa)
#
#
# Indices 1 2 3 4 5 6 
#
# 1 215.5520 75.0937 69.2930 0.0000 0.0000 0.0000
# 2 75.0937 89.2737 67.9176 0.0000 0.0000 0.0000
# 3 69.2930 67.9176 195.7968 0.0000 0.0000 0.0000
# 4 0.0000 0.0000 0.0000 38.3665 0.0000 0.0000
# 5 0.0000 0.0000 0.0000 0.0000 38.7030 0.0000
# 6 0.0000 0.0000 0.0000 0.0000 0.0000 49.2517
#
#
#
# Elastic Compliance Matrix: (Units=1/GPa)
#
#
# Indices 1 2 3 4 5 6 
#
# 1 0.006607 -0.005133 -0.000558 0.000000 0.000000 0.000000
# 2 -0.005133 0.019206 -0.004845 0.000000 0.000000 0.000000
# 3 -0.000558 -0.004845 0.006985 0.000000 0.000000 0.000000
# 4 0.000000 0.000000 0.000000 0.026064 0.000000 0.000000
# 5 0.000000 0.000000 0.000000 0.000000 0.025838 0.000000
# 6 0.000000 0.000000 0.000000 0.000000 0.000000 0.020304
#
#
# Mechanical properties :
#
#
# Convention : Reuss Voigt Hill
#
# Bulk Modulus (GPa) = 85.28370 102.80344 94.04357
# Shear Modulus (GPa) = 38.46609 44.48545 41.47577
#
# Velocity S-wave (km/s) = 3.80692 4.09396 3.95305
# Velocity P-wave (km/s) = 7.17324 7.81537 7.50118
#
# Compressibility (1/GPa) = 0.01172557
#
# Stress axis : x y z
#
# Youngs Moduli (GPa) = 151.35957 52.06813 143.15553
#
# Poissons Ratio (x) = 0.26728 0.07982
# Poissons Ratio (y) = 0.77696 0.69364
# Poissons Ratio (z) = 0.08439 0.25229
#
# Static dielectric constant tensor:
#      x y z
#    x 2.209590 0.000000 0.000000 
#    y 0.000000 5.407540 0.000000 
#    z 0.000000 0.000000 2.308650 
# 
# From -- ./inp_files/43595.got.cif
#   From: 2010.05.17/outbox.cif.g08.bks.cpg/sg70_22_cif.got.tgz:43595.got - 2010.06.03 15:57:51.
