data_PCOD9516283
_publ_section_title
;
Structure prediction by ZEFSAII (Michael W. Deem and Ramdas Pophale) SiO2 
 PCOD9516283
Probable space group: F D D D
;
_chemical_formula_sum "Si O2"
_cell_formula_units_Z 120
_cell_length_a 12.681079
_cell_length_b 25.195481
_cell_length_c 16.184666
_cell_angle_alpha 90.000000
_cell_angle_beta 90.000000
_cell_angle_gamma 90.000000
_cell_volume 5171.096034
_symmetry_space_group_name_H-M "F D D D"
_symmetry_group_IT_number 70
_space_group.IT_coordinate_system_code '2'
_symmetry_cell_setting 'orthorhombic'
loop_
_space_group_symop_operation_xyz
x,y,z
1/4-x,1/4-y,z
x,1/4-y,1/4-z
1/4-x,y,1/4-z
-x,-y,-z
3/4+x,3/4+y,-z
-x,3/4+y,3/4+z
3/4+x,-y,3/4+z
x,1/2+y,1/2+z
1/4-x,3/4-y,1/2+z
x,3/4-y,3/4-z
1/4-x,1/2+y,3/4-z
-x,1/2-y,1/2-z
3/4+x,1/4+y,1/2-z
-x,1/4+y,1/4+z
3/4+x,1/2-y,1/4+z
1/2+x,y,1/2+z
3/4-x,1/4-y,1/2+z
1/2+x,1/4-y,3/4-z
3/4-x,y,3/4-z
1/2-x,-y,1/2-z
1/4+x,3/4+y,1/2-z
1/2-x,3/4+y,1/4+z
1/4+x,-y,1/4+z
1/2+x,1/2+y,z
3/4-x,3/4-y,z
1/2+x,3/4-y,1/4-z
3/4-x,1/2+y,1/4-z
1/2-x,1/2-y,-z
1/4+x,1/4+y,-z
1/2-x,1/4+y,3/4+z
1/4+x,1/2-y,3/4+z
loop_
_atom_site_type_symbol
_atom_site_label
_atom_site_fract_x
_atom_site_fract_y
_atom_site_fract_z
Si Si1 0.125000 0.125000 0.728767
Si Si2 0.125000 0.125000 0.125000
Si Si3 0.703884 0.309834 0.068628
Si Si4 0.286746 0.539771 0.574001
Si Si5 0.216635 0.283542 0.308926
O O1 0.192500 0.086893 0.786804
O O2 0.210893 0.163964 0.685110
O O3 0.202172 0.086893 0.073074
O O4 0.625000 0.344385 0.125000
O O5 0.735655 0.260697 0.127776
O O6 0.635410 0.297510 0.987931
O O7 0.229403 0.488981 0.533874
O O8 0.345719 0.539370 0.662202
#
# Coordination Sequence:
#
# PCOD9516283 Si02
#       5
#    16   8  32  32  32
#     4  12  24  42  76 107 148 203 240 322 388 443
#     4  12  28  50  72 100 160 208 230 308 392 456
#     4  10  24  43  70 107 147 186 255 314 368 452
#     4  11  25  47  70 108 150 191 255 308 373 458
#     4  11  24  45  75 110 145 195 258 318 371 454
#
# _framework density 23.205912999999999
#
# number of rings (size 3 to 8) (size 9 to 14) (size 15 to 20)
#    0.000    1.067    2.667    2.400    7.467    6.400 
#    2.400    0.000    0.000    0.000    0.000    0.000 
#    0.000    0.000    0.000    0.000    0.000    0.000 
#
# Total GULP energy -167473.860824 kJ/mol
# GULP energy per Si atom -5582.462027 kJ/mol
# Density = 2.315309 g / cm^3
# Si number density = 23.205913 Si / 1000 Ang^3
#
#
#
# Elastic Constant Matrix: (Units=GPa)
#
#
# Indices 1 2 3 4 5 6 
#
# 1 120.3081 52.6415 43.9328 0.0000 0.0000 0.0000
# 2 52.6415 135.6099 45.5780 0.0000 0.0000 0.0000
# 3 43.9328 45.5780 65.7034 0.0000 0.0000 0.0000
# 4 0.0000 0.0000 0.0000 34.7952 0.0000 0.0000
# 5 0.0000 0.0000 0.0000 0.0000 35.4971 0.0000
# 6 0.0000 0.0000 0.0000 0.0000 0.0000 36.3285
#
#
#
# Elastic Compliance Matrix: (Units=1/GPa)
#
#
# Indices 1 2 3 4 5 6 
#
# 1 0.011600 -0.002472 -0.006041 0.000000 0.000000 0.000000
# 2 -0.002472 0.010143 -0.005383 0.000000 0.000000 0.000000
# 3 -0.006041 -0.005383 0.022993 0.000000 0.000000 0.000000
# 4 0.000000 0.000000 0.000000 0.028740 0.000000 0.000000
# 5 0.000000 0.000000 0.000000 0.000000 0.028171 0.000000
# 6 0.000000 0.000000 0.000000 0.000000 0.000000 0.027527
#
#
# Mechanical properties :
#
#
# Convention : Reuss Voigt Hill
#
# Bulk Modulus (GPa) = 59.02055 67.32511 63.17283
# Shear Modulus (GPa) = 30.74751 33.28877 32.01814
#
# Velocity S-wave (km/s) = 3.64398 3.79158 3.71852
# Velocity P-wave (km/s) = 6.57217 6.94573 6.76153
#
# Compressibility (1/GPa) = 0.01694325
#
# Stress axis : x y z
#
# Youngs Moduli (GPa) = 86.20777 98.58974 43.49064
#
# Poissons Ratio (x) = 0.24376 0.26273
# Poissons Ratio (y) = 0.21315 0.23411
# Poissons Ratio (z) = 0.52080 0.53070
#
# Static dielectric constant tensor:
#      x y z
#    x 1.922920 0.000000 0.000000 
#    y 0.000000 1.927690 0.000000 
#    z 0.000000 0.000000 2.030950 
# 
# From -- ./inp_files/28412.got.cif
#   From: 2010.05.17/outbox.cif.g08.bks.cpg/sg70_15_cif.got.tgz:28412.got - 2010.06.03 15:57:51.
