data_PCOD9516835
_publ_section_title
;
Structure prediction by ZEFSAII (Michael W. Deem and Ramdas Pophale) SiO2 
 PCOD9516835
Probable space group: F D D D
;
_chemical_formula_sum "Si O2"
_cell_formula_units_Z 160
_cell_length_a 28.131518
_cell_length_b 15.773400
_cell_length_c 16.789752
_cell_angle_alpha 90.000000
_cell_angle_beta 90.000000
_cell_angle_gamma 90.000000
_cell_volume 7450.111383
_symmetry_space_group_name_H-M "F D D D"
_symmetry_group_IT_number 70
_space_group.IT_coordinate_system_code '2'
_symmetry_cell_setting 'orthorhombic'
loop_
_space_group_symop_operation_xyz
x,y,z
1/4-x,1/4-y,z
x,1/4-y,1/4-z
1/4-x,y,1/4-z
-x,-y,-z
3/4+x,3/4+y,-z
-x,3/4+y,3/4+z
3/4+x,-y,3/4+z
x,1/2+y,1/2+z
1/4-x,3/4-y,1/2+z
x,3/4-y,3/4-z
1/4-x,1/2+y,3/4-z
-x,1/2-y,1/2-z
3/4+x,1/4+y,1/2-z
-x,1/4+y,1/4+z
3/4+x,1/2-y,1/4+z
1/2+x,y,1/2+z
3/4-x,1/4-y,1/2+z
1/2+x,1/4-y,3/4-z
3/4-x,y,3/4-z
1/2-x,-y,1/2-z
1/4+x,3/4+y,1/2-z
1/2-x,3/4+y,1/4+z
1/4+x,-y,1/4+z
1/2+x,1/2+y,z
3/4-x,3/4-y,z
1/2+x,3/4-y,1/4-z
3/4-x,1/2+y,1/4-z
1/2-x,1/2-y,-z
1/4+x,1/4+y,-z
1/2-x,1/4+y,3/4+z
1/4+x,1/2-y,3/4+z
loop_
_atom_site_type_symbol
_atom_site_label
_atom_site_fract_x
_atom_site_fract_y
_atom_site_fract_z
Si Si1 0.375000 0.875000 0.169592
Si Si2 0.144898 0.875000 0.375000
Si Si3 0.560522 0.065327 0.550261
Si Si4 0.711733 0.368178 0.527810
Si Si5 0.459053 0.276921 0.357563
Si Si6 0.181462 0.741272 0.930962
O O1 0.398130 0.811254 0.234144
O O2 0.332416 0.847111 0.110840
O O3 0.178496 0.884010 0.299162
O O4 0.109287 0.799214 0.355187
O O5 0.571585 0.125000 0.625000
O O6 0.515223 0.107823 0.505798
O O7 0.547997 0.969279 0.575825
O O8 0.701321 0.453730 0.576890
O O9 0.447845 0.375000 0.375000
O O10 0.431276 0.257164 0.276127
O O11 0.515821 0.270556 0.342091
#
# Coordination Sequence:
#
# PCOD9516835 Si02
#       6
#    16  16  32  32  32  32
#     4  12  23  46  69 106 144 182 250 304 363 441
#     4  12  24  48  70 101 144 189 242 304 364 438
#     4  11  24  43  73 108 143 190 237 303 371 436
#     4  11  25  44  71 105 147 189 241 303 367 436
#     4  11  26  48  72 102 146 197 247 305 366 438
#     4  11  26  45  73 102 141 193 244 300 371 431
#
# _framework density 21.476189000000002
#
# number of rings (size 3 to 8) (size 9 to 14) (size 15 to 20)
#    0.000    0.800    6.000    0.300    2.800    5.600 
#    3.600    0.000    0.000    0.000    0.000    0.000 
#    0.000    0.000    0.000    0.000    0.000    0.000 
#
# Total GULP energy -223269.507791 kJ/mol
# GULP energy per Si atom -5581.737695 kJ/mol
# Density = 2.142731 g / cm^3
# Si number density = 21.476189 Si / 1000 Ang^3
#
#
#
# Elastic Constant Matrix: (Units=GPa)
#
#
# Indices 1 2 3 4 5 6 
#
# 1 74.7366 17.9089 51.9254 0.0000 0.0000 0.0000
# 2 17.9089 136.3986 90.8451 0.0000 0.0000 0.0000
# 3 51.9254 90.8451 153.9904 0.0000 0.0000 0.0000
# 4 0.0000 0.0000 0.0000 30.2796 0.0000 0.0000
# 5 0.0000 0.0000 0.0000 0.0000 42.4563 0.0000
# 6 0.0000 0.0000 0.0000 0.0000 0.0000 -25.5681
#
#
#
# Elastic Compliance Matrix: (Units=1/GPa)
#
#
# Indices 1 2 3 4 5 6 
#
# 1 0.018092 0.002780 -0.007741 0.000000 0.000000 0.000000
# 2 0.002780 0.012504 -0.008314 0.000000 0.000000 0.000000
# 3 -0.007741 -0.008314 0.014009 0.000000 0.000000 0.000000
# 4 0.000000 0.000000 0.000000 0.033026 0.000000 0.000000
# 5 0.000000 0.000000 0.000000 0.000000 0.023554 0.000000
# 6 0.000000 0.000000 0.000000 0.000000 0.000000 -0.039111
#
#
# Mechanical properties :
#
#
# Convention : Reuss Voigt Hill
#
# Bulk Modulus (GPa) = 55.38443 76.27603 65.83023
# Shear Modulus (GPa) = 52.83156 23.06329 37.94743
#
# Velocity S-wave (km/s) = 4.96523 3.28060 4.20807
# Velocity P-wave (km/s) = 7.66264 7.06707 7.37087
#
# Compressibility (1/GPa) = 0.01805561
#
# Stress axis : x y z
#
# Youngs Moduli (GPa) = 55.27223 79.97638 71.38387
#
# Poissons Ratio (x) = -0.22234 0.55257
# Poissons Ratio (y) = -0.15366 0.59348
# Poissons Ratio (z) = 0.42785 0.66491
#
# Static dielectric constant tensor:
#      x y z
#    x 1.767900 0.000000 0.000000 
#    y 0.000000 2.045320 0.000000 
#    z 0.000000 0.000000 1.743410 
# 
# From -- ./inp_files/38497.got.cif
#   From: 2010.05.17/outbox.cif.g08.bks.cpg/sg70_20_cif.got.tgz:38497.got - 2010.06.03 15:57:51.
