data_PCOD9516384
_publ_section_title
;
Structure prediction by ZEFSAII (Michael W. Deem and Ramdas Pophale) SiO2 
 PCOD9516384
Probable space group: F D D D
;
_chemical_formula_sum "Si O2"
_cell_formula_units_Z 80
_cell_length_a 27.029361
_cell_length_b 11.538910
_cell_length_c 10.449781
_cell_angle_alpha 90.000000
_cell_angle_beta 90.000000
_cell_angle_gamma 90.000000
_cell_volume 3259.175549
_symmetry_space_group_name_H-M "F D D D"
_symmetry_group_IT_number 70
_space_group.IT_coordinate_system_code '2'
_symmetry_cell_setting 'orthorhombic'
loop_
_space_group_symop_operation_xyz
x,y,z
1/4-x,1/4-y,z
x,1/4-y,1/4-z
1/4-x,y,1/4-z
-x,-y,-z
3/4+x,3/4+y,-z
-x,3/4+y,3/4+z
3/4+x,-y,3/4+z
x,1/2+y,1/2+z
1/4-x,3/4-y,1/2+z
x,3/4-y,3/4-z
1/4-x,1/2+y,3/4-z
-x,1/2-y,1/2-z
3/4+x,1/4+y,1/2-z
-x,1/4+y,1/4+z
3/4+x,1/2-y,1/4+z
1/2+x,y,1/2+z
3/4-x,1/4-y,1/2+z
1/2+x,1/4-y,3/4-z
3/4-x,y,3/4-z
1/2-x,-y,1/2-z
1/4+x,3/4+y,1/2-z
1/2-x,3/4+y,1/4+z
1/4+x,-y,1/4+z
1/2+x,1/2+y,z
3/4-x,3/4-y,z
1/2+x,3/4-y,1/4-z
3/4-x,1/2+y,1/4-z
1/2-x,1/2-y,-z
1/4+x,1/4+y,-z
1/2-x,1/4+y,3/4+z
1/4+x,1/2-y,3/4+z
loop_
_atom_site_type_symbol
_atom_site_label
_atom_site_fract_x
_atom_site_fract_y
_atom_site_fract_z
Si Si1 0.875000 0.150056 0.875000
Si Si2 0.821725 0.939232 0.757986
Si Si3 0.052477 0.688982 0.256741
O O1 0.902359 0.219205 0.759234
O O2 0.834339 0.067995 0.804982
O O3 0.793866 0.875000 0.875000
O O4 0.875000 0.875000 0.749440
O O5 0.800205 0.902287 0.622543
O O6 0.000000 0.750000 0.250000
O O7 0.059700 0.625000 0.125000
#
# Coordination Sequence:
#
# PCOD9516384 Si02
#       3
#    16  32  32
#     4  10  24  50  76 100 152 192 250 312 376 448
#     4   9  22  43  76 102 135 188 242 298 377 441
#     4  12  28  45  72 112 147 191 248 309 375 452
#
# _framework density 24.546084
#
# number of rings (size 3 to 8) (size 9 to 14) (size 15 to 20)
#    0.000    2.000    0.000    3.000   11.200    9.600 
#    0.000    0.000    0.000    0.000    0.000    0.000 
#    0.000    0.000    0.000    0.000    0.000    0.000 
#
# Total GULP energy -111642.193936 kJ/mol
# GULP energy per Si atom -5582.109697 kJ/mol
# Density = 2.449022 g / cm^3
# Si number density = 24.546084 Si / 1000 Ang^3
#
#
#
# Elastic Constant Matrix: (Units=GPa)
#
#
# Indices 1 2 3 4 5 6 
#
# 1 71.7670 24.5050 12.4780 0.0000 0.0000 0.0000
# 2 24.5050 105.3548 63.8412 0.0000 0.0000 0.0000
# 3 12.4780 63.8412 205.6368 0.0000 0.0000 0.0000
# 4 0.0000 0.0000 0.0000 27.8541 0.0000 0.0000
# 5 0.0000 0.0000 0.0000 0.0000 -94.3178 0.0000
# 6 0.0000 0.0000 0.0000 0.0000 0.0000 29.5184
#
#
#
# Elastic Compliance Matrix: (Units=1/GPa)
#
#
# Indices 1 2 3 4 5 6 
#
# 1 0.015144 -0.003653 0.000215 0.000000 0.000000 0.000000
# 2 -0.003653 0.012572 -0.003681 0.000000 0.000000 0.000000
# 3 0.000215 -0.003681 0.005993 0.000000 0.000000 0.000000
# 4 0.000000 0.000000 0.000000 0.035901 0.000000 0.000000
# 5 0.000000 0.000000 0.000000 0.000000 -0.010602 0.000000
# 6 0.000000 0.000000 0.000000 0.000000 0.000000 0.033877
#
#
# Mechanical properties :
#
#
# Convention : Reuss Voigt Hill
#
# Bulk Modulus (GPa) = 51.35943 64.93413 58.14678
# Shear Modulus (GPa) = 44.00893 11.40656 27.70774
#
# Velocity S-wave (km/s) = 4.23887 2.15803 3.36341
# Velocity P-wave (km/s) = 6.70272 5.72021 6.23086
#
# Compressibility (1/GPa) = 0.01947062
#
# Stress axis : x y z
#
# Youngs Moduli (GPa) = 66.03359 79.54068 166.86620
#
# Poissons Ratio (x) = 0.29054 -0.03589
# Poissons Ratio (y) = 0.24120 0.61431
# Poissons Ratio (z) = -0.01420 0.29283
#
# Static dielectric constant tensor:
#      x y z
#    x 1.999940 0.000000 0.000000 
#    y 0.000000 1.753640 0.000000 
#    z 0.000000 0.000000 2.020960 
# 
# From -- ./inp_files/13836.got.cif
#   From: 2010.05.17/outbox.cif.g08.bks.cpg/sg70_7_cif.got.tgz:13836.got - 2010.06.03 15:57:51.
