data_PCOD9516282
_publ_section_title
;
Structure prediction by ZEFSAII (Michael W. Deem and Ramdas Pophale) SiO2 
 PCOD9516282
Probable space group: F D D D
;
_chemical_formula_sum "Si O2"
_cell_formula_units_Z 112
_cell_length_a 24.854299
_cell_length_b 19.225253
_cell_length_c 9.874237
_cell_angle_alpha 90.000000
_cell_angle_beta 90.000000
_cell_angle_gamma 90.000000
_cell_volume 4718.208506
_symmetry_space_group_name_H-M "F D D D"
_symmetry_group_IT_number 70
_space_group.IT_coordinate_system_code '2'
_symmetry_cell_setting 'orthorhombic'
loop_
_space_group_symop_operation_xyz
x,y,z
1/4-x,1/4-y,z
x,1/4-y,1/4-z
1/4-x,y,1/4-z
-x,-y,-z
3/4+x,3/4+y,-z
-x,3/4+y,3/4+z
3/4+x,-y,3/4+z
x,1/2+y,1/2+z
1/4-x,3/4-y,1/2+z
x,3/4-y,3/4-z
1/4-x,1/2+y,3/4-z
-x,1/2-y,1/2-z
3/4+x,1/4+y,1/2-z
-x,1/4+y,1/4+z
3/4+x,1/2-y,1/4+z
1/2+x,y,1/2+z
3/4-x,1/4-y,1/2+z
1/2+x,1/4-y,3/4-z
3/4-x,y,3/4-z
1/2-x,-y,1/2-z
1/4+x,3/4+y,1/2-z
1/2-x,3/4+y,1/4+z
1/4+x,-y,1/4+z
1/2+x,1/2+y,z
3/4-x,3/4-y,z
1/2+x,3/4-y,1/4-z
3/4-x,1/2+y,1/4-z
1/2-x,1/2-y,-z
1/4+x,1/4+y,-z
1/2-x,1/4+y,3/4+z
1/4+x,1/2-y,3/4+z
loop_
_atom_site_type_symbol
_atom_site_label
_atom_site_fract_x
_atom_site_fract_y
_atom_site_fract_z
Si Si1 0.364585 0.772201 0.667875
Si Si2 0.875000 0.721844 0.875000
Si Si3 0.201662 0.395317 0.018826
Si Si4 0.464137 0.854879 0.731446
O O1 0.383259 0.764624 0.512235
O O2 0.344586 0.699021 0.725414
O O3 0.414486 0.802571 0.751186
O O4 0.314921 0.825940 0.673355
O O5 0.824897 0.671656 0.910389
O O6 0.243923 0.424617 0.124895
O O7 0.228160 0.375000 0.875000
O O8 0.489348 0.875000 0.875000
#
# Coordination Sequence:
#
# PCOD9516282 Si02
#       4
#    32  16  32  32
#     4  10  24  45  70 103 145 175 241 288 344 430
#     4  10  24  43  70 105 132 188 226 292 356 404
#     4  10  25  45  70 102 141 180 236 287 352 420
#     4  11  26  44  71 103 138 190 229 291 355 405
#
# _framework density 23.737824
#
# number of rings (size 3 to 8) (size 9 to 14) (size 15 to 20)
#    0.000    1.714    0.000    1.714   12.000    8.000 
#    0.000    0.000    0.000    0.000    0.000    0.000 
#    0.000    0.000    0.000    0.000    0.000    0.000 
#
# Total GULP energy -156831.267054 kJ/mol
# GULP energy per Si atom -5601.116680 kJ/mol
# Density = 2.368380 g / cm^3
# Si number density = 23.737824 Si / 1000 Ang^3
#
#
#
# Elastic Constant Matrix: (Units=GPa)
#
#
# Indices 1 2 3 4 5 6 
#
# 1 42.8938 -12.3703 42.0505 0.0000 0.0000 0.0000
# 2 -12.3703 51.2052 26.8969 0.0000 0.0000 0.0000
# 3 42.0505 26.8969 180.5124 0.0000 0.0000 0.0000
# 4 0.0000 0.0000 0.0000 37.3173 0.0000 0.0000
# 5 0.0000 0.0000 0.0000 0.0000 42.2734 0.0000
# 6 0.0000 0.0000 0.0000 0.0000 0.0000 16.3984
#
#
#
# Elastic Compliance Matrix: (Units=1/GPa)
#
#
# Indices 1 2 3 4 5 6 
#
# 1 0.038851 0.015340 -0.011336 0.000000 0.000000 0.000000
# 2 0.015340 0.027245 -0.007633 0.000000 0.000000 0.000000
# 3 -0.011336 -0.007633 0.009318 0.000000 0.000000 0.000000
# 4 0.000000 0.000000 0.000000 0.026797 0.000000 0.000000
# 5 0.000000 0.000000 0.000000 0.000000 0.023656 0.000000
# 6 0.000000 0.000000 0.000000 0.000000 0.000000 0.060981
#
#
# Mechanical properties :
#
#
# Convention : Reuss Voigt Hill
#
# Bulk Modulus (GPa) = 14.67239 43.08504 28.87872
# Shear Modulus (GPa) = 23.06026 33.73346 28.39686
#
# Velocity S-wave (km/s) = 3.12020 3.77382 3.46247
# Velocity P-wave (km/s) = 4.37896 6.09743 5.30820
#
# Compressibility (1/GPa) = 0.06815521
#
# Stress axis : x y z
#
# Youngs Moduli (GPa) = 25.73969 36.70454 107.32096
#
# Poissons Ratio (x) = -0.56305 1.21659
# Poissons Ratio (y) = -0.39485 0.81918
# Poissons Ratio (z) = 0.29178 0.28017
#
# Static dielectric constant tensor:
#      x y z
#    x 1.874900 0.000000 0.000000 
#    y 0.000000 1.909840 0.000000 
#    z 0.000000 0.000000 1.930850 
# 
# From -- ./inp_files/10675.got.cif
#   From: 2010.05.17/outbox.cif.g08.bks.cpg/sg70_6_cif.got.tgz:10675.got - 2010.06.03 15:57:51.
