data_PCOD9516981
_publ_section_title
;
Structure prediction by ZEFSAII (Michael W. Deem and Ramdas Pophale) SiO2 
 PCOD9516981
Probable space group: F D D D
;
_chemical_formula_sum "Si O2"
_cell_formula_units_Z 176
_cell_length_a 21.852853
_cell_length_b 13.513782
_cell_length_c 25.027279
_cell_angle_alpha 90.000000
_cell_angle_beta 90.000000
_cell_angle_gamma 90.000000
_cell_volume 7390.923177
_symmetry_space_group_name_H-M "F D D D"
_symmetry_group_IT_number 70
_space_group.IT_coordinate_system_code '2'
_symmetry_cell_setting 'orthorhombic'
loop_
_space_group_symop_operation_xyz
x,y,z
1/4-x,1/4-y,z
x,1/4-y,1/4-z
1/4-x,y,1/4-z
-x,-y,-z
3/4+x,3/4+y,-z
-x,3/4+y,3/4+z
3/4+x,-y,3/4+z
x,1/2+y,1/2+z
1/4-x,3/4-y,1/2+z
x,3/4-y,3/4-z
1/4-x,1/2+y,3/4-z
-x,1/2-y,1/2-z
3/4+x,1/4+y,1/2-z
-x,1/4+y,1/4+z
3/4+x,1/2-y,1/4+z
1/2+x,y,1/2+z
3/4-x,1/4-y,1/2+z
1/2+x,1/4-y,3/4-z
3/4-x,y,3/4-z
1/2-x,-y,1/2-z
1/4+x,3/4+y,1/2-z
1/2-x,3/4+y,1/4+z
1/4+x,-y,1/4+z
1/2+x,1/2+y,z
3/4-x,3/4-y,z
1/2+x,3/4-y,1/4-z
3/4-x,1/2+y,1/4-z
1/2-x,1/2-y,-z
1/4+x,1/4+y,-z
1/2-x,1/4+y,3/4+z
1/4+x,1/2-y,3/4+z
loop_
_atom_site_type_symbol
_atom_site_label
_atom_site_fract_x
_atom_site_fract_y
_atom_site_fract_z
Si Si1 0.480978 0.707037 0.495161
Si Si2 0.440259 0.782216 0.906300
Si Si3 0.247422 0.424510 0.628065
Si Si4 0.625000 0.625000 0.849242
Si Si5 0.384094 0.589108 0.564922
Si Si6 0.753501 0.337063 0.457420
O O1 0.542673 0.697199 0.531582
O O2 0.489436 0.669328 0.435333
O O3 0.428609 0.646093 0.525036
O O4 0.461578 0.821092 0.484160
O O5 0.470126 0.875000 0.875000
O O6 0.375000 0.775863 0.875000
O O7 0.466897 0.673019 0.900686
O O8 0.319962 0.413984 0.635838
O O9 0.225574 0.526855 0.654541
O O10 0.606034 0.721010 0.815275
O O11 0.395528 0.625000 0.625000
O O12 0.313593 0.616136 0.552909
O O13 0.750000 0.250000 0.500000
#
# Coordination Sequence:
#
# PCOD9516981 Si02
#       6
#    32  32  32  16  32  32
#     4  12  26  47  78 112 149 207 255 324 401 462
#     4  11  27  49  71 110 162 199 252 322 395 473
#     4  12  26  46  76 113 150 204 261 325 388 474
#     4  12  24  44  78 108 159 195 260 328 380 476
#     4  12  26  48  77 115 152 209 265 320 396 484
#     4  12  26  50  76 107 157 199 265 327 389 466
#
# _framework density 23.812992999999999
#
# number of rings (size 3 to 8) (size 9 to 14) (size 15 to 20)
#    0.000    0.182    5.455    3.273    2.545    5.091 
#    0.000    0.000    0.000    3.273    0.000    0.000 
#    0.000    0.000    0.000    0.000    0.000    0.000 
#
# Total GULP energy -245915.399618 kJ/mol
# GULP energy per Si atom -5588.986355 kJ/mol
# Density = 2.375879 g / cm^3
# Si number density = 23.812993 Si / 1000 Ang^3
#
#
#
# Elastic Constant Matrix: (Units=GPa)
#
#
# Indices 1 2 3 4 5 6 
#
# 1 36.3156 32.2044 14.4380 0.0000 0.0000 0.0000
# 2 32.2044 208.2953 45.2021 0.0000 0.0000 0.0000
# 3 14.4380 45.2021 158.2468 0.0000 0.0000 0.0000
# 4 0.0000 0.0000 0.0000 51.4998 0.0000 0.0000
# 5 0.0000 0.0000 0.0000 0.0000 12.5392 0.0000
# 6 0.0000 0.0000 0.0000 0.0000 0.0000 24.2307
#
#
#
# Elastic Compliance Matrix: (Units=1/GPa)
#
#
# Indices 1 2 3 4 5 6 
#
# 1 0.032297 -0.004642 -0.001621 0.000000 0.000000 0.000000
# 2 -0.004642 0.005785 -0.001229 0.000000 0.000000 0.000000
# 3 -0.001621 -0.001229 0.006818 0.000000 0.000000 0.000000
# 4 0.000000 0.000000 0.000000 0.019418 0.000000 0.000000
# 5 0.000000 0.000000 0.000000 0.000000 0.079750 0.000000
# 6 0.000000 0.000000 0.000000 0.000000 0.000000 0.041270
#
#
# Mechanical properties :
#
#
# Convention : Reuss Voigt Hill
#
# Bulk Modulus (GPa) = 33.42541 65.17185 49.29863
# Shear Modulus (GPa) = 23.77630 38.38815 31.08222
#
# Velocity S-wave (km/s) = 3.16327 4.01941 3.61676
# Velocity P-wave (km/s) = 5.23534 6.99775 6.17970
#
# Compressibility (1/GPa) = 0.02991736
#
# Stress axis : x y z
#
# Youngs Moduli (GPa) = 30.96265 172.85387 146.66666
#
# Poissons Ratio (x) = 0.80233 0.23772
# Poissons Ratio (y) = 0.14372 0.18026
# Poissons Ratio (z) = 0.05018 0.21244
#
# Static dielectric constant tensor:
#      x y z
#    x 1.987010 0.000000 0.000000 
#    y 0.000000 1.942240 0.000000 
#    z 0.000000 0.000000 1.888950 
# 
# From -- ./inp_files/61664.got.cif
#   From: 2010.05.17/outbox.cif.g08.bks.cpg/sg70_31_cif.got.tgz:61664.got - 2010.06.03 15:57:51.
