data_PCOD9516645
_publ_section_title
;
Structure prediction by ZEFSAII (Michael W. Deem and Ramdas Pophale) SiO2 
 PCOD9516645
Probable space group: F D D D
;
_chemical_formula_sum "Si O2"
_cell_formula_units_Z 224
_cell_length_a 27.393365
_cell_length_b 18.387978
_cell_length_c 20.974160
_cell_angle_alpha 90.000000
_cell_angle_beta 90.000000
_cell_angle_gamma 90.000000
_cell_volume 10564.864622
_symmetry_space_group_name_H-M "F D D D"
_symmetry_group_IT_number 70
_space_group.IT_coordinate_system_code '2'
_symmetry_cell_setting 'orthorhombic'
loop_
_space_group_symop_operation_xyz
x,y,z
1/4-x,1/4-y,z
x,1/4-y,1/4-z
1/4-x,y,1/4-z
-x,-y,-z
3/4+x,3/4+y,-z
-x,3/4+y,3/4+z
3/4+x,-y,3/4+z
x,1/2+y,1/2+z
1/4-x,3/4-y,1/2+z
x,3/4-y,3/4-z
1/4-x,1/2+y,3/4-z
-x,1/2-y,1/2-z
3/4+x,1/4+y,1/2-z
-x,1/4+y,1/4+z
3/4+x,1/2-y,1/4+z
1/2+x,y,1/2+z
3/4-x,1/4-y,1/2+z
1/2+x,1/4-y,3/4-z
3/4-x,y,3/4-z
1/2-x,-y,1/2-z
1/4+x,3/4+y,1/2-z
1/2-x,3/4+y,1/4+z
1/4+x,-y,1/4+z
1/2+x,1/2+y,z
3/4-x,3/4-y,z
1/2+x,3/4-y,1/4-z
3/4-x,1/2+y,1/4-z
1/2-x,1/2-y,-z
1/4+x,1/4+y,-z
1/2-x,1/4+y,3/4+z
1/4+x,1/2-y,3/4+z
loop_
_atom_site_type_symbol
_atom_site_label
_atom_site_fract_x
_atom_site_fract_y
_atom_site_fract_z
Si Si1 0.321354 0.909677 0.505370
Si Si2 0.216002 0.375000 0.375000
Si Si3 0.785990 0.461469 0.970646
Si Si4 0.775553 0.014709 0.905249
Si Si5 0.532574 0.384386 0.043224
Si Si6 0.155397 0.736414 0.884190
Si Si7 0.125000 0.125000 0.763208
Si Si8 0.560696 0.946425 0.415208
O O1 0.375000 0.875000 0.500002
O O2 0.274238 0.858065 0.518653
O O3 0.311130 0.961141 0.444282
O O4 0.319997 0.957036 0.569981
O O5 0.250823 0.416841 0.424107
O O6 0.180864 0.437943 0.346865
O O7 0.791091 0.547633 0.956891
O O8 0.761325 0.457522 0.040416
O O9 0.838266 0.423603 0.972945
O O10 0.793701 0.080541 0.861558
O O11 0.743228 0.968824 0.855731
O O12 0.563590 0.425543 0.988997
O O13 0.155413 0.678581 0.940508
O O14 0.099693 0.746534 0.860750
O O15 0.572236 0.875000 0.375000
#
# Coordination Sequence:
#
# PCOD9516645 Si02
#       8
#    32  16  32  32  32  32  16  32
#     4  11  22  41  70 101 139 181 239 286 343 436
#     4  12  26  43  70 110 146 172 233 310 348 410
#     4  11  25  45  72 103 137 186 235 291 358 415
#     4  11  22  42  68 102 142 185 224 285 361 416
#     4  11  23  45  67  99 145 185 229 289 355 426
#     4  12  23  42  74 103 133 182 245 293 336 423
#     4  12  24  47  80  98 133 194 240 288 354 430
#     4  12  21  40  68  99 134 188 233 284 342 422
#
# _framework density 21.202354
#
# number of rings (size 3 to 8) (size 9 to 14) (size 15 to 20)
#    0.000    0.571    8.571    2.143    0.000    0.857 
#    0.000    5.000    3.143    0.000    0.000    0.000 
#    0.000    0.000    0.000    0.000    0.000    0.000 
#
# Total GULP energy -312859.421334 kJ/mol
# GULP energy per Si atom -5586.775381 kJ/mol
# Density = 2.115410 g / cm^3
# Si number density = 21.202354 Si / 1000 Ang^3
#
#
#
# Elastic Constant Matrix: (Units=GPa)
#
#
# Indices 1 2 3 4 5 6 
#
# 1 68.1677 46.6897 28.5630 0.0000 0.0000 0.0000
# 2 46.6897 53.7408 23.1457 0.0000 0.0000 0.0000
# 3 28.5630 23.1457 42.1921 0.0000 0.0000 0.0000
# 4 0.0000 0.0000 0.0000 41.2377 0.0000 0.0000
# 5 0.0000 0.0000 0.0000 0.0000 18.8054 0.0000
# 6 0.0000 0.0000 0.0000 0.0000 0.0000 36.2976
#
#
#
# Elastic Compliance Matrix: (Units=1/GPa)
#
#
# Indices 1 2 3 4 5 6 
#
# 1 0.039392 -0.029772 -0.010335 0.000000 0.000000 0.000000
# 2 -0.029772 0.046866 -0.005555 0.000000 0.000000 0.000000
# 3 -0.010335 -0.005555 0.033745 0.000000 0.000000 0.000000
# 4 0.000000 0.000000 0.000000 0.024250 0.000000 0.000000
# 5 0.000000 0.000000 0.000000 0.000000 0.053176 0.000000
# 6 0.000000 0.000000 0.000000 0.000000 0.000000 0.027550
#
#
# Mechanical properties :
#
#
# Convention : Reuss Voigt Hill
#
# Bulk Modulus (GPa) = 34.86862 40.09972 37.48417
# Shear Modulus (GPa) = 15.34393 23.64830 19.49611
#
# Velocity S-wave (km/s) = 2.69307 3.34333 3.03566
# Velocity P-wave (km/s) = 5.11385 5.81874 5.47764
#
# Compressibility (1/GPa) = 0.02867908
#
# Stress axis : x y z
#
# Youngs Moduli (GPa) = 25.38601 21.33739 29.63428
#
# Poissons Ratio (x) = 0.63526 0.30627
# Poissons Ratio (y) = 0.75580 0.16461
# Poissons Ratio (z) = 0.26236 0.11852
#
# Static dielectric constant tensor:
#      x y z
#    x 1.817060 0.000000 0.000000 
#    y 0.000000 1.874180 0.000000 
#    z 0.000000 0.000000 1.776310 
# 
# From -- ./inp_files/47761.got.cif
#   From: 2010.05.17/outbox.cif.g08.bks.cpg/sg70_24_cif.got.tgz:47761.got - 2010.06.03 15:57:51.
