data_PCOD9516760
_publ_section_title
;
Structure prediction by ZEFSAII (Michael W. Deem and Ramdas Pophale) SiO2 
 PCOD9516760
Probable space group: F D D D
;
_chemical_formula_sum "Si O2"
_cell_formula_units_Z 112
_cell_length_a 16.945496
_cell_length_b 25.654999
_cell_length_c 10.257413
_cell_angle_alpha 90.000000
_cell_angle_beta 90.000000
_cell_angle_gamma 90.000000
_cell_volume 4459.273703
_symmetry_space_group_name_H-M "F D D D"
_symmetry_group_IT_number 70
_space_group.IT_coordinate_system_code '2'
_symmetry_cell_setting 'orthorhombic'
loop_
_space_group_symop_operation_xyz
x,y,z
1/4-x,1/4-y,z
x,1/4-y,1/4-z
1/4-x,y,1/4-z
-x,-y,-z
3/4+x,3/4+y,-z
-x,3/4+y,3/4+z
3/4+x,-y,3/4+z
x,1/2+y,1/2+z
1/4-x,3/4-y,1/2+z
x,3/4-y,3/4-z
1/4-x,1/2+y,3/4-z
-x,1/2-y,1/2-z
3/4+x,1/4+y,1/2-z
-x,1/4+y,1/4+z
3/4+x,1/2-y,1/4+z
1/2+x,y,1/2+z
3/4-x,1/4-y,1/2+z
1/2+x,1/4-y,3/4-z
3/4-x,y,3/4-z
1/2-x,-y,1/2-z
1/4+x,3/4+y,1/2-z
1/2-x,3/4+y,1/4+z
1/4+x,-y,1/4+z
1/2+x,1/2+y,z
3/4-x,3/4-y,z
1/2+x,3/4-y,1/4-z
3/4-x,1/2+y,1/4-z
1/2-x,1/2-y,-z
1/4+x,1/4+y,-z
1/2-x,1/4+y,3/4+z
1/4+x,1/2-y,3/4+z
loop_
_atom_site_type_symbol
_atom_site_label
_atom_site_fract_x
_atom_site_fract_y
_atom_site_fract_z
Si Si1 0.981264 0.423843 0.963656
Si Si2 0.688310 0.957683 0.798130
Si Si3 0.528197 0.230058 0.446977
Si Si4 0.125000 0.868256 0.125000
O O1 0.960909 0.375000 0.875000
O O2 0.976405 0.476379 0.878946
O O3 0.069110 0.412462 0.022965
O O4 0.937289 0.436997 0.097193
O O5 0.681364 0.905496 0.713252
O O6 0.750000 0.000000 0.750000
O O7 0.603616 0.984515 0.772518
O O8 0.723360 0.953451 0.944836
#
# Coordination Sequence:
#
# PCOD9516760 Si02
#       4
#    32  32  32  16
#     4  11  23  44  68 106 139 196 248 308 364 456
#     4  12  22  46  72 108 146 193 246 314 384 456
#     4  11  25  42  73 105 151 192 249 314 380 445
#     4  12  24  44  78 102 150 198 262 300 388 464
#
# _framework density 25.116198000000001
#
# number of rings (size 3 to 8) (size 9 to 14) (size 15 to 20)
#    0.000    0.571    5.714    1.714    0.000    3.429 
#    0.000   10.000    0.000   10.286    0.000    0.000 
#    0.000    0.000    0.000    0.000    0.000    0.000 
#
# Total GULP energy -156334.323167 kJ/mol
# GULP energy per Si atom -5583.368685 kJ/mol
# Density = 2.505903 g / cm^3
# Si number density = 25.116198 Si / 1000 Ang^3
#
#
#
# Elastic Constant Matrix: (Units=GPa)
#
#
# Indices 1 2 3 4 5 6 
#
# 1 82.3751 12.4518 21.8493 0.0000 0.0000 0.0000
# 2 12.4518 146.2076 71.3739 0.0000 0.0000 0.0000
# 3 21.8493 71.3739 157.4940 0.0000 0.0000 0.0000
# 4 0.0000 0.0000 0.0000 34.3299 0.0000 0.0000
# 5 0.0000 0.0000 0.0000 0.0000 36.7789 0.0000
# 6 0.0000 0.0000 0.0000 0.0000 0.0000 47.3372
#
#
#
# Elastic Compliance Matrix: (Units=1/GPa)
#
#
# Indices 1 2 3 4 5 6 
#
# 1 0.012612 -0.000282 -0.001622 0.000000 0.000000 0.000000
# 2 -0.000282 0.008789 -0.003944 0.000000 0.000000 0.000000
# 3 -0.001622 -0.003944 0.008362 0.000000 0.000000 0.000000
# 4 0.000000 0.000000 0.000000 0.029129 0.000000 0.000000
# 5 0.000000 0.000000 0.000000 0.000000 0.027189 0.000000
# 6 0.000000 0.000000 0.000000 0.000000 0.000000 0.021125
#
#
# Mechanical properties :
#
#
# Convention : Reuss Voigt Hill
#
# Bulk Modulus (GPa) = 55.34942 66.38073 60.86507
# Shear Modulus (GPa) = 40.02402 42.38266 41.20334
#
# Velocity S-wave (km/s) = 3.99627 4.11233 4.05471
# Velocity P-wave (km/s) = 6.58625 7.00251 6.79757
#
# Compressibility (1/GPa) = 0.01806704
#
# Stress axis : x y z
#
# Youngs Moduli (GPa) = 79.28685 113.78007 119.59283
#
# Poissons Ratio (x) = 0.03214 0.19395
# Poissons Ratio (y) = 0.02240 0.47165
# Poissons Ratio (z) = 0.12858 0.44873
#
# Static dielectric constant tensor:
#      x y z
#    x 1.837550 0.000000 0.000000 
#    y 0.000000 1.897910 0.000000 
#    z 0.000000 0.000000 2.288590 
# 
# From -- ./inp_files/17313.got.cif
#   From: 2010.05.17/outbox.cif.g08.bks.cpg/sg70_9_cif.got.tgz:17313.got - 2010.06.03 15:57:51.
