data_PCOD9516285
_publ_section_title
;
Structure prediction by ZEFSAII (Michael W. Deem and Ramdas Pophale) SiO2 
 PCOD9516285
Probable space group: F D D D
;
_chemical_formula_sum "Si O2"
_cell_formula_units_Z 88
_cell_length_a 14.994433
_cell_length_b 7.174821
_cell_length_c 24.673051
_cell_angle_alpha 90.000000
_cell_angle_beta 90.000000
_cell_angle_gamma 90.000000
_cell_volume 2654.385370
_symmetry_space_group_name_H-M "F D D D"
_symmetry_group_IT_number 70
_space_group.IT_coordinate_system_code '2'
_symmetry_cell_setting 'orthorhombic'
loop_
_space_group_symop_operation_xyz
x,y,z
1/4-x,1/4-y,z
x,1/4-y,1/4-z
1/4-x,y,1/4-z
-x,-y,-z
3/4+x,3/4+y,-z
-x,3/4+y,3/4+z
3/4+x,-y,3/4+z
x,1/2+y,1/2+z
1/4-x,3/4-y,1/2+z
x,3/4-y,3/4-z
1/4-x,1/2+y,3/4-z
-x,1/2-y,1/2-z
3/4+x,1/4+y,1/2-z
-x,1/4+y,1/4+z
3/4+x,1/2-y,1/4+z
1/2+x,y,1/2+z
3/4-x,1/4-y,1/2+z
1/2+x,1/4-y,3/4-z
3/4-x,y,3/4-z
1/2-x,-y,1/2-z
1/4+x,3/4+y,1/2-z
1/2-x,3/4+y,1/4+z
1/4+x,-y,1/4+z
1/2+x,1/2+y,z
3/4-x,3/4-y,z
1/2+x,3/4-y,1/4-z
3/4-x,1/2+y,1/4-z
1/2-x,1/2-y,-z
1/4+x,1/4+y,-z
1/2-x,1/4+y,3/4+z
1/4+x,1/2-y,3/4+z
loop_
_atom_site_type_symbol
_atom_site_label
_atom_site_fract_x
_atom_site_fract_y
_atom_site_fract_z
Si Si1 0.375297 0.680262 0.689105
Si Si2 0.000000 0.750000 0.250000
Si Si3 0.710114 0.383227 0.213903
Si Si4 0.625000 0.125000 0.625000
O O1 0.373091 0.625000 0.625000
O O2 0.447695 0.875661 0.695708
O O3 0.302674 0.532337 0.720380
O O4 0.481822 0.560225 0.706863
O O5 0.106773 0.799880 0.230746
O O6 0.681486 0.489743 0.161180
#
# Coordination Sequence:
#
# PCOD9516285 Si02
#       4
#    32  16  32   8
#     4  10  24  43  71 105 142 198 260 329 403 488
#     4  10  24  46  70 108 152 202 274 328 422 496
#     4  11  26  47  74 112 156 213 271 347 422 504
#     4  12  28  48  82 120 168 218 288 366 432 516
#
# _framework density 33.152684999999998
#
# number of rings (size 3 to 8) (size 9 to 14) (size 15 to 20)
#    0.000    1.455    0.000    2.182   10.182    5.818 
#    0.000   15.455    0.000    0.000    0.000    0.000 
#    0.000    0.000    0.000    0.000    0.000    0.000 
#
# Total GULP energy -122715.081851 kJ/mol
# GULP energy per Si atom -5577.958266 kJ/mol
# Density = 3.307723 g / cm^3
# Si number density = 33.152685 Si / 1000 Ang^3
#
#
#
# Elastic Constant Matrix: (Units=GPa)
#
#
# Indices 1 2 3 4 5 6 
#
# 1 387.9761 123.2114 213.9782 0.0000 0.0000 0.0000
# 2 123.2114 423.3419 170.3153 0.0000 0.0000 0.0000
# 3 213.9782 170.3153 341.1878 0.0000 0.0000 0.0000
# 4 0.0000 0.0000 0.0000 94.0624 0.0000 0.0000
# 5 0.0000 0.0000 0.0000 0.0000 74.1244 0.0000
# 6 0.0000 0.0000 0.0000 0.0000 0.0000 114.7687
#
#
#
# Elastic Compliance Matrix: (Units=1/GPa)
#
#
# Indices 1 2 3 4 5 6 
#
# 1 0.003953 -0.000192 -0.002383 0.000000 0.000000 0.000000
# 2 -0.000192 0.002965 -0.001360 0.000000 0.000000 0.000000
# 3 -0.002383 -0.001360 0.005105 0.000000 0.000000 0.000000
# 4 0.000000 0.000000 0.000000 0.010631 0.000000 0.000000
# 5 0.000000 0.000000 0.000000 0.000000 0.013491 0.000000
# 6 0.000000 0.000000 0.000000 0.000000 0.000000 0.008713
#
#
# Mechanical properties :
#
#
# Convention : Reuss Voigt Hill
#
# Bulk Modulus (GPa) = 240.81496 240.83507 240.82502
# Shear Modulus (GPa) = 92.40138 99.59117 95.99628
#
# Velocity S-wave (km/s) = 5.28507 5.48684 5.38690
# Velocity P-wave (km/s) = 10.48992 10.62744 10.55890
#
# Compressibility (1/GPa) = 0.00415257
#
# Stress axis : x y z
#
# Youngs Moduli (GPa) = 252.98354 337.26382 195.90277
#
# Poissons Ratio (x) = 0.06461 0.46692
# Poissons Ratio (y) = 0.04847 0.26642
# Poissons Ratio (z) = 0.60296 0.45866
#
# Static dielectric constant tensor:
#      x y z
#    x 2.774470 0.000000 0.000000 
#    y 0.000000 8.659430 0.000000 
#    z 0.000000 0.000000 2.727910 
# 
# From -- ./inp_files/50731.got.cif
#   From: 2010.05.17/outbox.cif.g08.bks.cpg/sg70_26_cif.got.tgz:50731.got - 2010.06.03 15:57:51.
