data_PCOD9516532
_publ_section_title
;
Structure prediction by ZEFSAII (Michael W. Deem and Ramdas Pophale) SiO2 
 PCOD9516532
Probable space group: F D D D
;
_chemical_formula_sum "Si O2"
_cell_formula_units_Z 168
_cell_length_a 23.323691
_cell_length_b 19.834622
_cell_length_c 15.777738
_cell_angle_alpha 90.000000
_cell_angle_beta 90.000000
_cell_angle_gamma 90.000000
_cell_volume 7299.043425
_symmetry_space_group_name_H-M "F D D D"
_symmetry_group_IT_number 70
_space_group.IT_coordinate_system_code '2'
_symmetry_cell_setting 'orthorhombic'
loop_
_space_group_symop_operation_xyz
x,y,z
1/4-x,1/4-y,z
x,1/4-y,1/4-z
1/4-x,y,1/4-z
-x,-y,-z
3/4+x,3/4+y,-z
-x,3/4+y,3/4+z
3/4+x,-y,3/4+z
x,1/2+y,1/2+z
1/4-x,3/4-y,1/2+z
x,3/4-y,3/4-z
1/4-x,1/2+y,3/4-z
-x,1/2-y,1/2-z
3/4+x,1/4+y,1/2-z
-x,1/4+y,1/4+z
3/4+x,1/2-y,1/4+z
1/2+x,y,1/2+z
3/4-x,1/4-y,1/2+z
1/2+x,1/4-y,3/4-z
3/4-x,y,3/4-z
1/2-x,-y,1/2-z
1/4+x,3/4+y,1/2-z
1/2-x,3/4+y,1/4+z
1/4+x,-y,1/4+z
1/2+x,1/2+y,z
3/4-x,3/4-y,z
1/2+x,3/4-y,1/4-z
3/4-x,1/2+y,1/4-z
1/2-x,1/2-y,-z
1/4+x,1/4+y,-z
1/2-x,1/4+y,3/4+z
1/4+x,1/2-y,3/4+z
loop_
_atom_site_type_symbol
_atom_site_label
_atom_site_fract_x
_atom_site_fract_y
_atom_site_fract_z
Si Si1 0.416646 0.176338 0.808830
Si Si2 0.058528 0.209922 0.764881
Si Si3 0.967779 0.449233 0.338159
Si Si4 0.625000 0.625000 0.625000
Si Si5 0.041552 0.120603 0.321831
Si Si6 0.154271 0.759915 0.387971
O O1 0.375000 0.139361 0.875000
O O2 0.434385 0.245074 0.858172
O O3 0.477536 0.141522 0.796165
O O4 0.391060 0.190987 0.716630
O O5 0.086260 0.173639 0.683847
O O6 0.043032 0.151727 0.831705
O O7 0.106702 0.253050 0.815507
O O8 0.000000 0.250000 0.750000
O O9 0.956970 0.375000 0.375000
O O10 0.034757 0.467397 0.348195
O O11 0.947424 0.441558 0.241445
O O12 0.081472 0.186348 0.320841
#
# Coordination Sequence:
#
# PCOD9516532 Si02
#       6
#    32  32  32   8  32  32
#     4  11  23  36  64 104 140 173 219 276 343 412
#     4  12  29  48  76  97 134 195 244 289 359 427
#     4  11  20  38  68  97 140 176 212 273 353 416
#     4  12  28  56  72 104 150 180 248 324 340 436
#     4  11  22  44  65  97 135 177 218 286 346 407
#     4  11  22  44  65 102 138 175 224 291 342 413
#
# _framework density 23.016714
#
# number of rings (size 3 to 8) (size 9 to 14) (size 15 to 20)
#    0.000    0.762    5.714    2.286    2.667    3.429 
#    1.714    0.000    0.000    0.000    0.000    0.000 
#    0.000    0.000    0.000    0.000    0.000    0.000 
#
# Total GULP energy -235033.777070 kJ/mol
# GULP energy per Si atom -5596.042311 kJ/mol
# Density = 2.296433 g / cm^3
# Si number density = 23.016714 Si / 1000 Ang^3
#
#
#
# Elastic Constant Matrix: (Units=GPa)
#
#
# Indices 1 2 3 4 5 6 
#
# 1 149.0481 17.1574 62.5863 0.0000 0.0000 0.0000
# 2 17.1574 35.7271 24.8306 0.0000 0.0000 0.0000
# 3 62.5863 24.8306 172.0502 0.0000 0.0000 0.0000
# 4 0.0000 0.0000 0.0000 17.6944 0.0000 0.0000
# 5 0.0000 0.0000 0.0000 0.0000 47.5092 0.0000
# 6 0.0000 0.0000 0.0000 0.0000 0.0000 2.9266
#
#
#
# Elastic Compliance Matrix: (Units=1/GPa)
#
#
# Indices 1 2 3 4 5 6 
#
# 1 0.008050 -0.002035 -0.002635 0.000000 0.000000 0.000000
# 2 -0.002035 0.031625 -0.003824 0.000000 0.000000 0.000000
# 3 -0.002635 -0.003824 0.007323 0.000000 0.000000 0.000000
# 4 0.000000 0.000000 0.000000 0.056515 0.000000 0.000000
# 5 0.000000 0.000000 0.000000 0.000000 0.021049 0.000000
# 6 0.000000 0.000000 0.000000 0.000000 0.000000 0.341689
#
#
# Mechanical properties :
#
#
# Convention : Reuss Voigt Hill
#
# Bulk Modulus (GPa) = 33.32168 62.88601 48.10384
# Shear Modulus (GPa) = 10.13707 30.44280 20.28994
#
# Velocity S-wave (km/s) = 2.10090 3.64076 2.97228
# Velocity P-wave (km/s) = 4.51593 6.71228 5.72050
#
# Compressibility (1/GPa) = 0.03001049
#
# Stress axis : x y z
#
# Youngs Moduli (GPa) = 124.22753 31.62076 136.56498
#
# Poissons Ratio (x) = 0.06434 0.35979
# Poissons Ratio (y) = 0.25277 0.52222
# Poissons Ratio (z) = 0.32729 0.12092
#
# Static dielectric constant tensor:
#      x y z
#    x 1.905840 0.000000 0.000000 
#    y 0.000000 1.918510 0.000000 
#    z 0.000000 0.000000 1.904260 
# 
# From -- ./inp_files/29836.got.cif
#   From: 2010.05.17/outbox.cif.g08.bks.cpg/sg70_15_cif.got.tgz:29836.got - 2010.06.03 15:57:51.
