data_PCOD9516044
_publ_section_title
;
Structure prediction by ZEFSAII (Michael W. Deem and Ramdas Pophale) SiO2 
 PCOD9516044
Probable space group: F D D D
;
_chemical_formula_sum "Si O2"
_cell_formula_units_Z 152
_cell_length_a 16.445445
_cell_length_b 13.317313
_cell_length_c 33.707949
_cell_angle_alpha 90.000000
_cell_angle_beta 90.000000
_cell_angle_gamma 90.000000
_cell_volume 7382.348871
_symmetry_space_group_name_H-M "F D D D"
_symmetry_group_IT_number 70
_space_group.IT_coordinate_system_code '2'
_symmetry_cell_setting 'orthorhombic'
loop_
_space_group_symop_operation_xyz
x,y,z
1/4-x,1/4-y,z
x,1/4-y,1/4-z
1/4-x,y,1/4-z
-x,-y,-z
3/4+x,3/4+y,-z
-x,3/4+y,3/4+z
3/4+x,-y,3/4+z
x,1/2+y,1/2+z
1/4-x,3/4-y,1/2+z
x,3/4-y,3/4-z
1/4-x,1/2+y,3/4-z
-x,1/2-y,1/2-z
3/4+x,1/4+y,1/2-z
-x,1/4+y,1/4+z
3/4+x,1/2-y,1/4+z
1/2+x,y,1/2+z
3/4-x,1/4-y,1/2+z
1/2+x,1/4-y,3/4-z
3/4-x,y,3/4-z
1/2-x,-y,1/2-z
1/4+x,3/4+y,1/2-z
1/2-x,3/4+y,1/4+z
1/4+x,-y,1/4+z
1/2+x,1/2+y,z
3/4-x,3/4-y,z
1/2+x,3/4-y,1/4-z
3/4-x,1/2+y,1/4-z
1/2-x,1/2-y,-z
1/4+x,1/4+y,-z
1/2-x,1/4+y,3/4+z
1/4+x,1/2-y,3/4+z
loop_
_atom_site_type_symbol
_atom_site_label
_atom_site_fract_x
_atom_site_fract_y
_atom_site_fract_z
Si Si1 0.585652 0.421684 0.790179
Si Si2 0.333536 0.125000 0.625000
Si Si3 0.447205 0.544697 0.755334
Si Si4 0.293930 0.436643 0.078970
Si Si5 0.545774 0.741571 0.192822
Si Si6 0.375000 0.875000 0.375000
O O1 0.616060 0.412934 0.835953
O O2 0.532216 0.518944 0.777550
O O3 0.660660 0.402027 0.759612
O O4 0.523841 0.325307 0.786039
O O5 0.283633 0.221687 0.640584
O O6 0.446892 0.486323 0.713936
O O7 0.377985 0.496980 0.782606
O O8 0.375000 0.375000 0.090260
O O9 0.228078 0.352479 0.070665
O O10 0.566390 0.687618 0.152346
#
# Coordination Sequence:
#
# PCOD9516044 Si02
#       6
#    32  16  32  32  32   8
#     4  11  20  33  51  86 126 164 197 259 304 382
#     4  10  23  36  53  81 128 159 216 250 312 371
#     4  11  20  30  54  84 129 161 198 256 316 376
#     4  11  21  34  54  82 120 166 204 252 311 375
#     4  12  21  31  52  83 130 156 197 249 317 366
#     4  12  26  32  52  94 132 154 196 258 308 372
#
# _framework density 20.589652999999998
#
# number of rings (size 3 to 8) (size 9 to 14) (size 15 to 20)
#    0.000    0.842    8.421    2.526    0.000    0.000 
#    0.000    0.000    0.000    0.632    0.000   23.579 
#    0.000    0.000    0.000    0.000    0.000    0.000 
#
# Total GULP energy -211817.705656 kJ/mol
# GULP energy per Si atom -5574.150149 kJ/mol
# Density = 2.054279 g / cm^3
# Si number density = 20.589653 Si / 1000 Ang^3
#
#
#
# Elastic Constant Matrix: (Units=GPa)
#
#
# Indices 1 2 3 4 5 6 
#
# 1 55.3936 27.9277 21.0565 0.0000 0.0000 0.0000
# 2 27.9277 49.9381 16.6891 0.0000 0.0000 0.0000
# 3 21.0565 16.6891 88.8274 0.0000 0.0000 0.0000
# 4 0.0000 0.0000 0.0000 32.3124 0.0000 0.0000
# 5 0.0000 0.0000 0.0000 0.0000 -18.2235 0.0000
# 6 0.0000 0.0000 0.0000 0.0000 0.0000 36.0806
#
#
#
# Elastic Compliance Matrix: (Units=1/GPa)
#
#
# Indices 1 2 3 4 5 6 
#
# 1 0.026230 -0.013435 -0.003694 0.000000 0.000000 0.000000
# 2 -0.013435 0.028247 -0.002123 0.000000 0.000000 0.000000
# 3 -0.003694 -0.002123 0.012532 0.000000 0.000000 0.000000
# 4 0.000000 0.000000 0.000000 0.030948 0.000000 0.000000
# 5 0.000000 0.000000 0.000000 0.000000 -0.054874 0.000000
# 6 0.000000 0.000000 0.000000 0.000000 0.000000 0.027716
#
#
# Mechanical properties :
#
#
# Convention : Reuss Voigt Hill
#
# Bulk Modulus (GPa) = 35.07797 36.16729 35.62263
# Shear Modulus (GPa) = 42.08639 18.59961 30.34300
#
# Velocity S-wave (km/s) = 4.52603 3.00883 3.84305
# Velocity P-wave (km/s) = 6.66235 5.44745 6.08529
#
# Compressibility (1/GPa) = 0.02850792
#
# Stress axis : x y z
#
# Youngs Moduli (GPa) = 38.12432 35.40149 79.79473
#
# Poissons Ratio (x) = 0.47561 0.29474
# Poissons Ratio (y) = 0.51219 0.16937
# Poissons Ratio (z) = 0.14082 0.07514
#
# Static dielectric constant tensor:
#      x y z
#    x 1.782480 0.000000 0.000000 
#    y 0.000000 1.788000 0.000000 
#    z 0.000000 0.000000 1.741230 
# 
# From -- ./inp_files/67181.got.cif
#   From: 2010.05.17/outbox.cif.g08.bks.cpg/sg70_34_cif.got.tgz:67181.got - 2010.06.03 15:57:51.
