data_PCOD9516010
_publ_section_title
;
Structure prediction by ZEFSAII (Michael W. Deem and Ramdas Pophale) SiO2 
 PCOD9516010
Probable space group: F D D D
;
_chemical_formula_sum "Si O2"
_cell_formula_units_Z 160
_cell_length_a 19.640859
_cell_length_b 20.905804
_cell_length_c 17.661587
_cell_angle_alpha 90.000000
_cell_angle_beta 90.000000
_cell_angle_gamma 90.000000
_cell_volume 7251.988008
_symmetry_space_group_name_H-M "F D D D"
_symmetry_group_IT_number 70
_space_group.IT_coordinate_system_code '2'
_symmetry_cell_setting 'orthorhombic'
loop_
_space_group_symop_operation_xyz
x,y,z
1/4-x,1/4-y,z
x,1/4-y,1/4-z
1/4-x,y,1/4-z
-x,-y,-z
3/4+x,3/4+y,-z
-x,3/4+y,3/4+z
3/4+x,-y,3/4+z
x,1/2+y,1/2+z
1/4-x,3/4-y,1/2+z
x,3/4-y,3/4-z
1/4-x,1/2+y,3/4-z
-x,1/2-y,1/2-z
3/4+x,1/4+y,1/2-z
-x,1/4+y,1/4+z
3/4+x,1/2-y,1/4+z
1/2+x,y,1/2+z
3/4-x,1/4-y,1/2+z
1/2+x,1/4-y,3/4-z
3/4-x,y,3/4-z
1/2-x,-y,1/2-z
1/4+x,3/4+y,1/2-z
1/2-x,3/4+y,1/4+z
1/4+x,-y,1/4+z
1/2+x,1/2+y,z
3/4-x,3/4-y,z
1/2+x,3/4-y,1/4-z
3/4-x,1/2+y,1/4-z
1/2-x,1/2-y,-z
1/4+x,1/4+y,-z
1/2-x,1/4+y,3/4+z
1/4+x,1/2-y,3/4+z
loop_
_atom_site_type_symbol
_atom_site_label
_atom_site_fract_x
_atom_site_fract_y
_atom_site_fract_z
Si Si1 0.361005 0.981512 0.717293
Si Si2 0.737259 0.769625 0.214930
Si Si3 0.108732 0.222916 0.297031
Si Si4 0.256157 0.651835 0.040391
Si Si5 0.003907 0.686784 0.677084
O O1 0.315074 0.044793 0.710365
O O2 0.436981 0.996558 0.745432
O O3 0.377928 0.954201 0.633516
O O4 0.315303 0.933561 0.765729
O O5 0.681090 0.730157 0.259152
O O6 0.728284 0.844263 0.232540
O O7 0.728892 0.746904 0.128221
O O8 0.057504 0.182057 0.245072
O O9 0.071235 0.292669 0.296588
O O10 0.251504 0.625000 0.125000
O O11 0.003550 0.625000 0.625000
#
# Coordination Sequence:
#
# PCOD9516010 Si02
#       5
#    32  32  32  32  32
#     4  10  24  44  70 104 141 188 238 297 369 426
#     4  11  23  40  71 105 134 185 242 291 354 433
#     4  10  22  45  69 101 139 182 240 290 355 434
#     4  11  23  47  71  98 149 188 236 302 369 434
#     4  10  24  46  69 101 143 193 233 293 368 431
#
# _framework density 22.062915
#
# number of rings (size 3 to 8) (size 9 to 14) (size 15 to 20)
#    0.000    1.600    2.000    1.200    5.600    3.200 
#   18.000    2.000    0.000    0.000    0.000    0.000 
#    0.000    0.000    0.000    0.000    0.000    0.000 
#
# Total GULP energy -223554.824883 kJ/mol
# GULP energy per Si atom -5588.870622 kJ/mol
# Density = 2.201270 g / cm^3
# Si number density = 22.062915 Si / 1000 Ang^3
#
#
#
# Elastic Constant Matrix: (Units=GPa)
#
#
# Indices 1 2 3 4 5 6 
#
# 1 120.1824 35.6964 19.7571 0.0000 0.0000 0.0000
# 2 35.6964 102.2374 52.8570 0.0000 0.0000 0.0000
# 3 19.7571 52.8570 57.5944 0.0000 0.0000 0.0000
# 4 0.0000 0.0000 0.0000 37.0060 0.0000 0.0000
# 5 0.0000 0.0000 0.0000 0.0000 34.6420 0.0000
# 6 0.0000 0.0000 0.0000 0.0000 0.0000 13.7661
#
#
#
# Elastic Compliance Matrix: (Units=1/GPa)
#
#
# Indices 1 2 3 4 5 6 
#
# 1 0.009288 -0.003036 -0.000400 0.000000 0.000000 0.000000
# 2 -0.003036 0.019605 -0.016951 0.000000 0.000000 0.000000
# 3 -0.000400 -0.016951 0.033056 0.000000 0.000000 0.000000
# 4 0.000000 0.000000 0.000000 0.027023 0.000000 0.000000
# 5 0.000000 0.000000 0.000000 0.000000 0.028867 0.000000
# 6 0.000000 0.000000 0.000000 0.000000 0.000000 0.072642
#
#
# Mechanical properties :
#
#
# Convention : Reuss Voigt Hill
#
# Bulk Modulus (GPa) = 47.22311 55.18169 51.20240
# Shear Modulus (GPa) = 20.98079 28.52973 24.75526
#
# Velocity S-wave (km/s) = 3.08710 3.59988 3.35331
# Velocity P-wave (km/s) = 5.84442 6.50724 6.18472
#
# Compressibility (1/GPa) = 0.02117607
#
# Stress axis : x y z
#
# Youngs Moduli (GPa) = 107.66289 51.00766 30.25146
#
# Poissons Ratio (x) = 0.15488 0.01209
# Poissons Ratio (y) = 0.32691 0.51278
# Poissons Ratio (z) = 0.04301 0.86461
#
# Static dielectric constant tensor:
#      x y z
#    x 1.815950 0.000000 0.000000 
#    y 0.000000 1.837450 0.000000 
#    z 0.000000 0.000000 1.849840 
# 
# From -- ./inp_files/36321.got.cif
#   From: 2010.05.17/outbox.cif.g08.bks.cpg/sg70_19_cif.got.tgz:36321.got - 2010.06.03 15:57:51.
