data_PCOD9516129
_publ_section_title
;
Structure prediction by ZEFSAII (Michael W. Deem and Ramdas Pophale) SiO2 
 PCOD9516129
Probable space group: F D D D
;
_chemical_formula_sum "Si O2"
_cell_formula_units_Z 160
_cell_length_a 26.618439
_cell_length_b 11.387934
_cell_length_c 24.347792
_cell_angle_alpha 90.000000
_cell_angle_beta 90.000000
_cell_angle_gamma 90.000000
_cell_volume 7380.522487
_symmetry_space_group_name_H-M "F D D D"
_symmetry_group_IT_number 70
_space_group.IT_coordinate_system_code '2'
_symmetry_cell_setting 'orthorhombic'
loop_
_space_group_symop_operation_xyz
x,y,z
1/4-x,1/4-y,z
x,1/4-y,1/4-z
1/4-x,y,1/4-z
-x,-y,-z
3/4+x,3/4+y,-z
-x,3/4+y,3/4+z
3/4+x,-y,3/4+z
x,1/2+y,1/2+z
1/4-x,3/4-y,1/2+z
x,3/4-y,3/4-z
1/4-x,1/2+y,3/4-z
-x,1/2-y,1/2-z
3/4+x,1/4+y,1/2-z
-x,1/4+y,1/4+z
3/4+x,1/2-y,1/4+z
1/2+x,y,1/2+z
3/4-x,1/4-y,1/2+z
1/2+x,1/4-y,3/4-z
3/4-x,y,3/4-z
1/2-x,-y,1/2-z
1/4+x,3/4+y,1/2-z
1/2-x,3/4+y,1/4+z
1/4+x,-y,1/4+z
1/2+x,1/2+y,z
3/4-x,3/4-y,z
1/2+x,3/4-y,1/4-z
3/4-x,1/2+y,1/4-z
1/2-x,1/2-y,-z
1/4+x,1/4+y,-z
1/2-x,1/4+y,3/4+z
1/4+x,1/2-y,3/4+z
loop_
_atom_site_type_symbol
_atom_site_label
_atom_site_fract_x
_atom_site_fract_y
_atom_site_fract_z
Si Si1 0.224519 0.875000 0.375000
Si Si2 0.529210 0.111624 0.860479
Si Si3 0.748476 0.185848 0.740971
Si Si4 0.863803 0.507071 0.020598
Si Si5 0.094633 0.375000 0.875000
Si Si6 0.539695 0.428592 0.537979
O O1 0.201214 0.741835 0.372420
O O2 0.254832 0.877326 0.317795
O O3 0.516411 0.125188 0.796802
O O4 0.482192 0.081860 0.900632
O O5 0.563346 0.995780 0.867742
O O6 0.806493 0.227176 0.747225
O O7 0.713211 0.298327 0.735742
O O8 0.875000 0.375000 0.040960
O O9 0.875778 0.601624 0.068304
O O10 0.904701 0.523979 0.972139
O O11 0.500000 0.500000 0.500000
#
# Coordination Sequence:
#
# PCOD9516129 Si02
#       6
#    16  32  32  32  16  32
#     4  10  23  42  68  93 137 177 224 281 350 395
#     4  11  22  41  71  93 132 181 228 276 347 412
#     4  11  22  40  64  97 131 179 226 278 342 414
#     4  12  23  38  64  99 141 172 226 287 344 409
#     4  12  23  40  70 101 131 181 230 285 342 407
#     4  11  20  40  62  94 136 177 217 284 343 403
#
# _framework density 21.678681999999998
#
# number of rings (size 3 to 8) (size 9 to 14) (size 15 to 20)
#    0.000    0.800    6.000    2.400    0.000    0.800 
#    0.000    1.000    0.000    4.800    0.000    0.000 
#    0.000    0.000    0.000    0.000    0.000    0.000 
#
# Total GULP energy -223115.691001 kJ/mol
# GULP energy per Si atom -5577.892275 kJ/mol
# Density = 2.162934 g / cm^3
# Si number density = 21.678682 Si / 1000 Ang^3
#
#
#
# Elastic Constant Matrix: (Units=GPa)
#
#
# Indices 1 2 3 4 5 6 
#
# 1 57.8824 9.5142 13.2867 0.0000 0.0000 0.0000
# 2 9.5142 150.5514 25.7919 0.0000 0.0000 0.0000
# 3 13.2867 25.7919 135.6768 0.0000 0.0000 0.0000
# 4 0.0000 0.0000 0.0000 32.2420 0.0000 0.0000
# 5 0.0000 0.0000 0.0000 0.0000 22.6963 0.0000
# 6 0.0000 0.0000 0.0000 0.0000 0.0000 20.2907
#
#
#
# Elastic Compliance Matrix: (Units=1/GPa)
#
#
# Indices 1 2 3 4 5 6 
#
# 1 0.017779 -0.000853 -0.001579 0.000000 0.000000 0.000000
# 2 -0.000853 0.006907 -0.001229 0.000000 0.000000 0.000000
# 3 -0.001579 -0.001229 0.007759 0.000000 0.000000 0.000000
# 4 0.000000 0.000000 0.000000 0.031015 0.000000 0.000000
# 5 0.000000 0.000000 0.000000 0.000000 0.044060 0.000000
# 6 0.000000 0.000000 0.000000 0.000000 0.000000 0.049284
#
#
# Mechanical properties :
#
#
# Convention : Reuss Voigt Hill
#
# Bulk Modulus (GPa) = 39.80606 49.03290 44.41948
# Shear Modulus (GPa) = 28.98540 34.74698 31.86619
#
# Velocity S-wave (km/s) = 3.66053 4.00786 3.83813
# Velocity P-wave (km/s) = 6.02227 6.63961 6.33846
#
# Compressibility (1/GPa) = 0.02512180
#
# Stress axis : x y z
#
# Youngs Moduli (GPa) = 56.24598 144.78524 128.88603
#
# Poissons Ratio (x) = 0.12351 0.20350
# Poissons Ratio (y) = 0.04798 0.15846
# Poissons Ratio (z) = 0.08881 0.17800
#
# Static dielectric constant tensor:
#      x y z
#    x 1.825370 0.000000 0.000000 
#    y 0.000000 1.795100 0.000000 
#    z 0.000000 0.000000 1.817540 
# 
# From -- ./inp_files/50324.got.cif
#   From: 2010.05.17/outbox.cif.g08.bks.cpg/sg70_26_cif.got.tgz:50324.got - 2010.06.03 15:57:51.
