data_PCOD9516089
_publ_section_title
;
Structure prediction by ZEFSAII (Michael W. Deem and Ramdas Pophale) SiO2 
 PCOD9516089
Probable space group: F D D D
;
_chemical_formula_sum "Si O2"
_cell_formula_units_Z 104
_cell_length_a 17.350219
_cell_length_b 32.588088
_cell_length_c 8.107061
_cell_angle_alpha 90.000000
_cell_angle_beta 90.000000
_cell_angle_gamma 90.000000
_cell_volume 4583.817118
_symmetry_space_group_name_H-M "F D D D"
_symmetry_group_IT_number 70
_space_group.IT_coordinate_system_code '2'
_symmetry_cell_setting 'orthorhombic'
loop_
_space_group_symop_operation_xyz
x,y,z
1/4-x,1/4-y,z
x,1/4-y,1/4-z
1/4-x,y,1/4-z
-x,-y,-z
3/4+x,3/4+y,-z
-x,3/4+y,3/4+z
3/4+x,-y,3/4+z
x,1/2+y,1/2+z
1/4-x,3/4-y,1/2+z
x,3/4-y,3/4-z
1/4-x,1/2+y,3/4-z
-x,1/2-y,1/2-z
3/4+x,1/4+y,1/2-z
-x,1/4+y,1/4+z
3/4+x,1/2-y,1/4+z
1/2+x,y,1/2+z
3/4-x,1/4-y,1/2+z
1/2+x,1/4-y,3/4-z
3/4-x,y,3/4-z
1/2-x,-y,1/2-z
1/4+x,3/4+y,1/2-z
1/2-x,3/4+y,1/4+z
1/4+x,-y,1/4+z
1/2+x,1/2+y,z
3/4-x,3/4-y,z
1/2+x,3/4-y,1/4-z
3/4-x,1/2+y,1/4-z
1/2-x,1/2-y,-z
1/4+x,1/4+y,-z
1/2-x,1/4+y,3/4+z
1/4+x,1/2-y,3/4+z
loop_
_atom_site_type_symbol
_atom_site_label
_atom_site_fract_x
_atom_site_fract_y
_atom_site_fract_z
Si Si1 0.371863 0.025999 0.192282
Si Si2 0.961195 0.303988 0.449798
Si Si3 0.875000 0.375000 0.375000
Si Si4 0.199823 0.406479 0.230899
O O1 0.375000 0.045286 0.375000
O O2 0.285810 0.030350 0.120260
O O3 0.404420 0.980462 0.224291
O O4 0.425117 0.051046 0.068318
O O5 0.933593 0.338441 0.315980
O O6 0.984213 0.332954 0.602148
O O7 0.125000 0.392853 0.125000
O O8 0.218678 0.375000 0.375000
#
# Coordination Sequence:
#
# PCOD9516089 Si02
#       4
#    32  32   8  32
#     4  11  23  43  72 101 137 184 227 288 349 419
#     4  11  26  44  69 100 141 181 237 284 350 423
#     4  12  28  44  66 104 136 176 232 284 352 412
#     4  10  23  40  68 103 138 181 231 286 344 415
#
# _framework density 22.688514000000001
#
# number of rings (size 3 to 8) (size 9 to 14) (size 15 to 20)
#    0.000    1.231    1.538    2.769   12.923    0.000 
#    0.000    3.846    0.000    0.000    0.000    0.000 
#    0.000    0.000    0.000    0.000    0.000    0.000 
#
# Total GULP energy -144734.769285 kJ/mol
# GULP energy per Si atom -5566.721896 kJ/mol
# Density = 2.263687 g / cm^3
# Si number density = 22.688514 Si / 1000 Ang^3
#
#
#
# Elastic Constant Matrix: (Units=GPa)
#
#
# Indices 1 2 3 4 5 6 
#
# 1 88.9752 78.2481 24.2582 0.0001 -0.0002 0.0000
# 2 78.2481 192.3692 42.3346 0.0000 0.0000 0.0000
# 3 24.2582 42.3346 110.8677 0.0001 -0.0004 0.0000
# 4 0.0001 0.0000 0.0001 -2.6882 -0.0001 0.0000
# 5 -0.0002 0.0000 -0.0004 -0.0001 4.9963 0.0000
# 6 0.0000 0.0000 0.0000 0.0000 0.0000 -22.2631
#
#
#
# Elastic Compliance Matrix: (Units=1/GPa)
#
#
# Indices 1 2 3 4 5 6 
#
# 1 0.017649 -0.006910 -0.001223 0.000000 0.000000 0.000000
# 2 -0.006910 0.008381 -0.001688 0.000000 0.000000 0.000000
# 3 -0.001223 -0.001688 0.009932 0.000000 0.000001 0.000000
# 4 0.000000 0.000000 0.000000 -0.371992 -0.000005 0.000000
# 5 0.000000 0.000000 0.000001 -0.000005 0.200146 0.000000
# 6 0.000000 0.000000 0.000000 0.000000 0.000000 -0.044917
#
#
# Mechanical properties :
#
#
# Convention : Reuss Voigt Hill
#
# Bulk Modulus (GPa) = 61.27682 75.76601 68.52142
# Shear Modulus (GPa) = -32.10910 12.50043 -9.80434
#
# Velocity S-wave (km/s) = -3.76601 2.34980 -2.08102
# Velocity P-wave (km/s) = 2.85587 6.38972 4.94897
#
# Compressibility (1/GPa) = 0.01631938
#
# Stress axis : x y z
#
# Youngs Moduli (GPa) = 56.65923 119.32443 100.68436
#
# Poissons Ratio (x) = 0.82452 0.12316
# Poissons Ratio (y) = 0.39151 0.16997
# Poissons Ratio (z) = 0.06931 0.20144
#
# Static dielectric constant tensor:
#      x y z
#    x 2.037750 0.000000 0.000000 
#    y 0.000000 1.812790 0.000000 
#    z 0.000000 0.000000 1.268340 
# 
# From -- ./inp_files/8182.got.cif
#   From: 2010.05.17/outbox.cif.g08.bks.cpg/sg70_5_cif.got.tgz:8182.got - 2010.06.03 15:57:51.
