data_PCOD9516585
_publ_section_title
;
Structure prediction by ZEFSAII (Michael W. Deem and Ramdas Pophale) SiO2 
 PCOD9516585
Probable space group: F D D D
;
_chemical_formula_sum "Si O2"
_cell_formula_units_Z 176
_cell_length_a 10.147328
_cell_length_b 28.178996
_cell_length_c 28.164172
_cell_angle_alpha 90.000000
_cell_angle_beta 90.000000
_cell_angle_gamma 90.000000
_cell_volume 8053.306014
_symmetry_space_group_name_H-M "F D D D"
_symmetry_group_IT_number 70
_space_group.IT_coordinate_system_code '2'
_symmetry_cell_setting 'orthorhombic'
loop_
_space_group_symop_operation_xyz
x,y,z
1/4-x,1/4-y,z
x,1/4-y,1/4-z
1/4-x,y,1/4-z
-x,-y,-z
3/4+x,3/4+y,-z
-x,3/4+y,3/4+z
3/4+x,-y,3/4+z
x,1/2+y,1/2+z
1/4-x,3/4-y,1/2+z
x,3/4-y,3/4-z
1/4-x,1/2+y,3/4-z
-x,1/2-y,1/2-z
3/4+x,1/4+y,1/2-z
-x,1/4+y,1/4+z
3/4+x,1/2-y,1/4+z
1/2+x,y,1/2+z
3/4-x,1/4-y,1/2+z
1/2+x,1/4-y,3/4-z
3/4-x,y,3/4-z
1/2-x,-y,1/2-z
1/4+x,3/4+y,1/2-z
1/2-x,3/4+y,1/4+z
1/4+x,-y,1/4+z
1/2+x,1/2+y,z
3/4-x,3/4-y,z
1/2+x,3/4-y,1/4-z
3/4-x,1/2+y,1/4-z
1/2-x,1/2-y,-z
1/4+x,1/4+y,-z
1/2-x,1/4+y,3/4+z
1/4+x,1/2-y,3/4+z
loop_
_atom_site_type_symbol
_atom_site_label
_atom_site_fract_x
_atom_site_fract_y
_atom_site_fract_z
Si Si1 0.125000 0.513952 0.125000
Si Si2 0.589519 0.923746 0.902058
Si Si3 0.625000 0.125000 0.397289
Si Si4 0.125000 0.433895 0.625000
Si Si5 0.455337 0.329048 0.248000
Si Si6 0.498088 0.246465 0.954623
Si Si7 0.218027 0.950228 0.543757
O O1 0.254935 0.544554 0.116508
O O2 0.128265 0.480868 0.079289
O O3 0.626296 0.875000 0.875000
O O4 0.700714 0.958944 0.922821
O O5 0.482305 0.919252 0.945155
O O6 0.748202 0.149712 0.372215
O O7 0.684520 0.082464 0.427734
O O8 0.147566 0.466758 0.578098
O O9 0.375000 0.375000 0.234298
O O10 0.372452 0.285503 0.224557
O O11 0.605487 0.331055 0.230782
O O12 0.454112 0.269664 0.004287
#
# Coordination Sequence:
#
# PCOD9516585 Si02
#       7
#    16  32  16  16  32  32  32
#     4  12  18  38  64 101 138 189 242 313 349 434
#     4  11  22  38  65 107 141 186 247 300 362 432
#     4  12  28  48  72 111 134 195 248 306 366 452
#     4  12  29  50  77 105 146 191 249 297 378 442
#     4  11  21  41  70 104 143 190 241 306 360 433
#     4  11  24  48  67 104 148 196 236 304 377 440
#     4  11  24  42  70 102 147 187 246 302 374 437
#
# _framework density 21.854378000000001
#
# number of rings (size 3 to 8) (size 9 to 14) (size 15 to 20)
#    0.000    0.727    3.636    5.182    3.818    0.727 
#    6.545    0.000    0.000    0.000    0.000    0.000 
#    0.000    0.000    0.000    0.000    0.000    0.000 
#
# Total GULP energy -245262.992986 kJ/mol
# GULP energy per Si atom -5574.158932 kJ/mol
# Density = 2.180464 g / cm^3
# Si number density = 21.854378 Si / 1000 Ang^3
#
#
#
# Elastic Constant Matrix: (Units=GPa)
#
#
# Indices 1 2 3 4 5 6 
#
# 1 39.2319 22.3623 12.2552 0.0000 0.0000 0.0000
# 2 22.3623 117.9048 37.3349 0.0000 0.0000 0.0000
# 3 12.2552 37.3349 80.5448 0.0000 0.0000 0.0000
# 4 0.0000 0.0000 0.0000 33.7849 0.0000 0.0000
# 5 0.0000 0.0000 0.0000 0.0000 43.1484 0.0000
# 6 0.0000 0.0000 0.0000 0.0000 0.0000 8.3029
#
#
#
# Elastic Compliance Matrix: (Units=1/GPa)
#
#
# Indices 1 2 3 4 5 6 
#
# 1 0.028901 -0.004792 -0.002176 0.000000 0.000000 0.000000
# 2 -0.004792 0.010735 -0.004247 0.000000 0.000000 0.000000
# 3 -0.002176 -0.004247 0.014715 0.000000 0.000000 0.000000
# 4 0.000000 0.000000 0.000000 0.029599 0.000000 0.000000
# 5 0.000000 0.000000 0.000000 0.000000 0.023176 0.000000
# 6 0.000000 0.000000 0.000000 0.000000 0.000000 0.120440
#
#
# Mechanical properties :
#
#
# Convention : Reuss Voigt Hill
#
# Bulk Modulus (GPa) = 31.32773 42.39848 36.86310
# Shear Modulus (GPa) = 19.18379 28.09585 23.63982
#
# Velocity S-wave (km/s) = 2.96598 3.58941 3.29248
# Velocity P-wave (km/s) = 5.10836 6.05153 5.59984
#
# Compressibility (1/GPa) = 0.03192060
#
# Stress axis : x y z
#
# Youngs Moduli (GPa) = 34.60108 93.15191 67.95747
#
# Poissons Ratio (x) = 0.44642 0.14787
# Poissons Ratio (y) = 0.16582 0.28861
# Poissons Ratio (z) = 0.07529 0.39561
#
# Static dielectric constant tensor:
#      x y z
#    x 1.781170 0.000000 0.000000 
#    y 0.000000 1.839480 0.000000 
#    z 0.000000 0.000000 1.916300 
# 
# From -- ./inp_files/55022.got.cif
#   From: 2010.05.17/outbox.cif.g08.bks.cpg/sg70_28_cif.got.tgz:55022.got - 2010.06.03 15:57:51.
