data_PCOD9516397
_publ_section_title
;
Structure prediction by ZEFSAII (Michael W. Deem and Ramdas Pophale) SiO2 
 PCOD9516397
Probable space group: F D D D
;
_chemical_formula_sum "Si O2"
_cell_formula_units_Z 240
_cell_length_a 18.036703
_cell_length_b 26.389244
_cell_length_c 25.715172
_cell_angle_alpha 90.000000
_cell_angle_beta 90.000000
_cell_angle_gamma 90.000000
_cell_volume 12239.777872
_symmetry_space_group_name_H-M "F D D D"
_symmetry_group_IT_number 70
_space_group.IT_coordinate_system_code '2'
_symmetry_cell_setting 'orthorhombic'
loop_
_space_group_symop_operation_xyz
x,y,z
1/4-x,1/4-y,z
x,1/4-y,1/4-z
1/4-x,y,1/4-z
-x,-y,-z
3/4+x,3/4+y,-z
-x,3/4+y,3/4+z
3/4+x,-y,3/4+z
x,1/2+y,1/2+z
1/4-x,3/4-y,1/2+z
x,3/4-y,3/4-z
1/4-x,1/2+y,3/4-z
-x,1/2-y,1/2-z
3/4+x,1/4+y,1/2-z
-x,1/4+y,1/4+z
3/4+x,1/2-y,1/4+z
1/2+x,y,1/2+z
3/4-x,1/4-y,1/2+z
1/2+x,1/4-y,3/4-z
3/4-x,y,3/4-z
1/2-x,-y,1/2-z
1/4+x,3/4+y,1/2-z
1/2-x,3/4+y,1/4+z
1/4+x,-y,1/4+z
1/2+x,1/2+y,z
3/4-x,3/4-y,z
1/2+x,3/4-y,1/4-z
3/4-x,1/2+y,1/4-z
1/2-x,1/2-y,-z
1/4+x,1/4+y,-z
1/2-x,1/4+y,3/4+z
1/4+x,1/2-y,3/4+z
loop_
_atom_site_type_symbol
_atom_site_label
_atom_site_fract_x
_atom_site_fract_y
_atom_site_fract_z
Si Si1 0.586843 0.678336 0.368394
Si Si2 0.707212 0.216870 0.121235
Si Si3 0.180438 0.276611 0.524962
Si Si4 0.789064 0.474002 0.025002
Si Si5 0.172521 0.392845 0.490593
Si Si6 0.933974 0.136746 0.327649
Si Si7 0.440067 0.125000 0.125000
Si Si8 0.778275 0.961739 0.047610
O O1 0.625000 0.625000 0.386282
O O2 0.571858 0.714579 0.417549
O O3 0.505339 0.667350 0.346691
O O4 0.643011 0.698204 0.323648
O O5 0.625000 0.194550 0.125000
O O6 0.694137 0.265857 0.085252
O O7 0.759583 0.171268 0.103874
O O8 0.747878 0.240161 0.170520
O O9 0.250000 0.250000 0.500000
O O10 0.110203 0.244434 0.506260
O O11 0.178579 0.334614 0.509090
O O12 0.748095 0.422565 0.005805
O O13 0.728871 0.518508 0.011762
O O14 0.108236 0.412403 0.529139
O O15 0.153035 0.393762 0.429026
O O16 0.875000 0.130641 0.375000
O O17 0.971152 0.084038 0.308330
#
# Coordination Sequence:
#
# PCOD9516397 Si02
#       8
#    32  32  32  32  32  32  16  32
#     4  10  25  40  67  97 127 168 226 283 328 409
#     4  12  21  37  55  84 127 171 205 247 314 390
#     4  12  24  37  61  89 131 177 216 253 327 402
#     4  12  24  39  63  94 133 171 220 273 330 401
#     4  12  24  41  63  93 129 176 220 271 334 407
#     4  11  21  43  69  90 123 169 225 278 339 394
#     4  12  25  36  54  90 135 168 214 264 319 408
#     4  11  22  40  61  94 127 166 214 276 333 400
#
# _framework density 19.608198999999999
#
# number of rings (size 3 to 8) (size 9 to 14) (size 15 to 20)
#    0.000    0.533    6.667    2.200    3.733    0.000 
#    0.000    0.667    0.000    0.000    0.000    3.267 
#    0.000    0.000    0.000    0.000    0.000    0.000 
#
# Total GULP energy -334292.975438 kJ/mol
# GULP energy per Si atom -5571.549591 kJ/mol
# Density = 1.956357 g / cm^3
# Si number density = 19.608199 Si / 1000 Ang^3
#
#
#
# Elastic Constant Matrix: (Units=GPa)
#
#
# Indices 1 2 3 4 5 6 
#
# 1 118.2333 40.9448 34.4583 0.0000 0.0000 0.0000
# 2 40.9448 64.5230 20.5803 0.0000 0.0000 0.0000
# 3 34.4583 20.5803 87.9355 0.0000 0.0000 0.0000
# 4 0.0000 0.0000 0.0000 17.9864 0.0000 0.0000
# 5 0.0000 0.0000 0.0000 0.0000 30.8644 0.0000
# 6 0.0000 0.0000 0.0000 0.0000 0.0000 8.0552
#
#
#
# Elastic Compliance Matrix: (Units=1/GPa)
#
#
# Indices 1 2 3 4 5 6 
#
# 1 0.011544 -0.006357 -0.003036 0.000000 0.000000 0.000000
# 2 -0.006357 0.020250 -0.002248 0.000000 0.000000 0.000000
# 3 -0.003036 -0.002248 0.013088 0.000000 0.000000 0.000000
# 4 0.000000 0.000000 0.000000 0.055598 0.000000 0.000000
# 5 0.000000 0.000000 0.000000 0.000000 0.032400 0.000000
# 6 0.000000 0.000000 0.000000 0.000000 0.000000 0.124143
#
#
# Mechanical properties :
#
#
# Convention : Reuss Voigt Hill
#
# Bulk Modulus (GPa) = 46.29818 51.40654 48.85236
# Shear Modulus (GPa) = 17.39105 23.02842 20.20973
#
# Velocity S-wave (km/s) = 2.98136 3.43071 3.21390
# Velocity P-wave (km/s) = 5.95939 6.47818 6.22419
#
# Compressibility (1/GPa) = 0.02159912
#
# Stress axis : x y z
#
# Youngs Moduli (GPa) = 86.62338 49.38363 76.40761
#
# Poissons Ratio (x) = 0.31395 0.23196
# Poissons Ratio (y) = 0.55070 0.17176
# Poissons Ratio (z) = 0.26297 0.11101
#
# Static dielectric constant tensor:
#      x y z
#    x 1.714640 0.000000 0.000000 
#    y 0.000000 1.720850 0.000000 
#    z 0.000000 0.000000 1.832300 
# 
# From -- ./inp_files/59825.got.cif
#   From: 2010.05.17/outbox.cif.g08.bks.cpg/sg70_30_cif.got.tgz:59825.got - 2010.06.03 15:57:51.
