data_PCOD9516056
_publ_section_title
;
Structure prediction by ZEFSAII (Michael W. Deem and Ramdas Pophale) SiO2 
 PCOD9516056
Probable space group: F D D D
;
_chemical_formula_sum "Si O2"
_cell_formula_units_Z 160
_cell_length_a 21.187741
_cell_length_b 16.708380
_cell_length_c 18.319251
_cell_angle_alpha 90.000000
_cell_angle_beta 90.000000
_cell_angle_gamma 90.000000
_cell_volume 6485.249853
_symmetry_space_group_name_H-M "F D D D"
_symmetry_group_IT_number 70
_space_group.IT_coordinate_system_code '2'
_symmetry_cell_setting 'orthorhombic'
loop_
_space_group_symop_operation_xyz
x,y,z
1/4-x,1/4-y,z
x,1/4-y,1/4-z
1/4-x,y,1/4-z
-x,-y,-z
3/4+x,3/4+y,-z
-x,3/4+y,3/4+z
3/4+x,-y,3/4+z
x,1/2+y,1/2+z
1/4-x,3/4-y,1/2+z
x,3/4-y,3/4-z
1/4-x,1/2+y,3/4-z
-x,1/2-y,1/2-z
3/4+x,1/4+y,1/2-z
-x,1/4+y,1/4+z
3/4+x,1/2-y,1/4+z
1/2+x,y,1/2+z
3/4-x,1/4-y,1/2+z
1/2+x,1/4-y,3/4-z
3/4-x,y,3/4-z
1/2-x,-y,1/2-z
1/4+x,3/4+y,1/2-z
1/2-x,3/4+y,1/4+z
1/4+x,-y,1/4+z
1/2+x,1/2+y,z
3/4-x,3/4-y,z
1/2+x,3/4-y,1/4-z
3/4-x,1/2+y,1/4-z
1/2-x,1/2-y,-z
1/4+x,1/4+y,-z
1/2-x,1/4+y,3/4+z
1/4+x,1/2-y,3/4+z
loop_
_atom_site_type_symbol
_atom_site_label
_atom_site_fract_x
_atom_site_fract_y
_atom_site_fract_z
Si Si1 0.625127 0.533934 0.395463
Si Si2 0.733962 0.029549 0.622140
Si Si3 0.832885 0.469056 0.946787
Si Si4 0.412949 0.144373 0.800460
Si Si5 0.798937 0.197422 0.219177
O O1 0.625000 0.625000 0.367973
O O2 0.692210 0.492799 0.377189
O O3 0.622902 0.537004 0.482769
O O4 0.568654 0.490881 0.354814
O O5 0.724744 0.125000 0.625000
O O6 0.705569 0.997989 0.545105
O O7 0.702024 0.975759 0.686481
O O8 0.875000 0.460158 0.875000
O O9 0.802486 0.559127 0.952148
O O10 0.771293 0.413660 0.957385
O O11 0.375000 0.136341 0.875000
O O12 0.360959 0.144986 0.736872
#
# Coordination Sequence:
#
# PCOD9516056 Si02
#       5
#    32  32  32  32  32
#     4  11  25  41  63  98 139 178 234 289 346 415
#     4  10  23  42  69 104 141 181 225 284 362 433
#     4  10  23  46  68  92 133 186 241 291 345 403
#     4   9  20  40  65  97 138 173 222 284 344 424
#     4  10  23  38  65 101 134 176 226 277 357 417
#
# _framework density 24.67137
#
# number of rings (size 3 to 8) (size 9 to 14) (size 15 to 20)
#    0.000    2.000    0.000    1.200    8.400    6.400 
#    0.000    4.000    0.000    0.000    0.000    0.000 
#    0.000    0.000    0.000    0.000    0.000    0.000 
#
# Total GULP energy -223372.299576 kJ/mol
# GULP energy per Si atom -5584.307489 kJ/mol
# Density = 2.461522 g / cm^3
# Si number density = 24.671370 Si / 1000 Ang^3
#
#
#
# Elastic Constant Matrix: (Units=GPa)
#
#
# Indices 1 2 3 4 5 6 
#
# 1 126.8246 32.2359 63.5603 0.0000 0.0000 0.0000
# 2 32.2359 120.5389 -1.0452 0.0000 0.0000 0.0000
# 3 63.5603 -1.0452 119.6765 0.0000 0.0000 0.0000
# 4 0.0000 0.0000 0.0000 12.1396 0.0000 0.0000
# 5 0.0000 0.0000 0.0000 0.0000 55.9748 0.0000
# 6 0.0000 0.0000 0.0000 0.0000 0.0000 34.1316
#
#
#
# Elastic Compliance Matrix: (Units=1/GPa)
#
#
# Indices 1 2 3 4 5 6 
#
# 1 0.011884 -0.003233 -0.006340 0.000000 0.000000 0.000000
# 2 -0.003233 0.009176 0.001797 0.000000 0.000000 0.000000
# 3 -0.006340 0.001797 0.011739 0.000000 0.000000 0.000000
# 4 0.000000 0.000000 0.000000 0.082375 0.000000 0.000000
# 5 0.000000 0.000000 0.000000 0.000000 0.017865 0.000000
# 6 0.000000 0.000000 0.000000 0.000000 0.000000 0.029298
#
#
# Mechanical properties :
#
#
# Convention : Reuss Voigt Hill
#
# Bulk Modulus (GPa) = 57.97928 61.83799 59.90864
# Shear Modulus (GPa) = 27.22747 38.60181 32.91464
#
# Velocity S-wave (km/s) = 3.32566 3.95984 3.65653
# Velocity P-wave (km/s) = 6.18857 6.78426 6.49325
#
# Compressibility (1/GPa) = 0.01724754
#
# Stress axis : x y z
#
# Youngs Moduli (GPa) = 84.14659 108.97632 85.18857
#
# Poissons Ratio (x) = 0.35234 0.54008
# Poissons Ratio (y) = 0.27206 -0.15311
# Poissons Ratio (z) = 0.53348 -0.19586
#
# Static dielectric constant tensor:
#      x y z
#    x 1.922270 0.000000 0.000000 
#    y 0.000000 2.111770 0.000000 
#    z 0.000000 0.000000 1.947590 
# 
# From -- ./inp_files/38461.got.cif
#   From: 2010.05.17/outbox.cif.g08.bks.cpg/sg70_20_cif.got.tgz:38461.got - 2010.06.03 15:57:51.
