data_PCOD9516591
_publ_section_title
;
Structure prediction by ZEFSAII (Michael W. Deem and Ramdas Pophale) SiO2 
 PCOD9516591
Probable space group: F D D D
;
_chemical_formula_sum "Si O2"
_cell_formula_units_Z 168
_cell_length_a 13.148968
_cell_length_b 34.521906
_cell_length_c 17.277629
_cell_angle_alpha 90.000000
_cell_angle_beta 90.000000
_cell_angle_gamma 90.000000
_cell_volume 7842.789854
_symmetry_space_group_name_H-M "F D D D"
_symmetry_group_IT_number 70
_space_group.IT_coordinate_system_code '2'
_symmetry_cell_setting 'orthorhombic'
loop_
_space_group_symop_operation_xyz
x,y,z
1/4-x,1/4-y,z
x,1/4-y,1/4-z
1/4-x,y,1/4-z
-x,-y,-z
3/4+x,3/4+y,-z
-x,3/4+y,3/4+z
3/4+x,-y,3/4+z
x,1/2+y,1/2+z
1/4-x,3/4-y,1/2+z
x,3/4-y,3/4-z
1/4-x,1/2+y,3/4-z
-x,1/2-y,1/2-z
3/4+x,1/4+y,1/2-z
-x,1/4+y,1/4+z
3/4+x,1/2-y,1/4+z
1/2+x,y,1/2+z
3/4-x,1/4-y,1/2+z
1/2+x,1/4-y,3/4-z
3/4-x,y,3/4-z
1/2-x,-y,1/2-z
1/4+x,3/4+y,1/2-z
1/2-x,3/4+y,1/4+z
1/4+x,-y,1/4+z
1/2+x,1/2+y,z
3/4-x,3/4-y,z
1/2+x,3/4-y,1/4-z
3/4-x,1/2+y,1/4-z
1/2-x,1/2-y,-z
1/4+x,1/4+y,-z
1/2-x,1/4+y,3/4+z
1/4+x,1/2-y,3/4+z
loop_
_atom_site_type_symbol
_atom_site_label
_atom_site_fract_x
_atom_site_fract_y
_atom_site_fract_z
Si Si1 0.773899 0.351861 0.492996
Si Si2 0.795262 0.153989 0.230415
Si Si3 0.033688 0.985911 0.184870
Si Si4 0.126351 0.031535 0.927729
Si Si5 0.125000 0.125000 0.625000
Si Si6 0.733749 0.843160 0.610249
O O1 0.875000 0.375000 0.461579
O O2 0.818195 0.438449 0.628383
O O3 0.804840 0.308531 0.518055
O O4 0.749895 0.375325 0.571923
O O5 0.787766 0.191378 0.286060
O O6 0.704625 0.153097 0.169182
O O7 0.480070 0.134041 0.280948
O O8 0.913262 0.150542 0.202102
O O9 0.125000 0.992178 0.125000
O O10 0.936871 0.994853 0.130996
O O11 0.049633 0.010577 0.262337
O O12 0.625000 0.824295 0.625000
#
# Coordination Sequence:
#
# PCOD9516591 Si02
#       6
#    32  32  32  32   8  32
#     4   9  18  37  69  97 119 164 229 277 323 395
#     4  11  21  43  66  94 130 180 228 271 344 412
#     4  12  23  41  67  96 134 180 221 277 352 418
#     4  11  22  39  65 101 131 171 227 283 336 408
#     4  12  28  40  66  96 132 172 230 290 320 400
#     4   9  18  40  72  93 119 178 236 267 322 418
#
# _framework density 21.420950000000001
#
# number of rings (size 3 to 8) (size 9 to 14) (size 15 to 20)
#    0.000    1.524    3.810    2.286    1.333    0.000 
#   12.000    1.429    0.000    1.143    0.000    0.000 
#    0.000    0.000    0.000    0.000    0.000    0.000 
#
# Total GULP energy -234264.449262 kJ/mol
# GULP energy per Si atom -5577.724982 kJ/mol
# Density = 2.137219 g / cm^3
# Si number density = 21.420950 Si / 1000 Ang^3
#
#
#
# Elastic Constant Matrix: (Units=GPa)
#
#
# Indices 1 2 3 4 5 6 
#
# 1 134.5695 22.1010 40.0608 0.0000 0.0000 0.0000
# 2 22.1010 42.3797 15.4719 0.0000 0.0000 0.0000
# 3 40.0608 15.4719 54.1172 0.0000 0.0000 0.0000
# 4 0.0000 0.0000 0.0000 4.0281 0.0000 0.0000
# 5 0.0000 0.0000 0.0000 0.0000 22.8832 0.0000
# 6 0.0000 0.0000 0.0000 0.0000 0.0000 7.5181
#
#
#
# Elastic Compliance Matrix: (Units=1/GPa)
#
#
# Indices 1 2 3 4 5 6 
#
# 1 0.009811 -0.002752 -0.006476 0.000000 0.000000 0.000000
# 2 -0.002752 0.027118 -0.005716 0.000000 0.000000 0.000000
# 3 -0.006476 -0.005716 0.024906 0.000000 0.000000 0.000000
# 4 0.000000 0.000000 0.000000 0.248256 0.000000 0.000000
# 5 0.000000 0.000000 0.000000 0.000000 0.043700 0.000000
# 6 0.000000 0.000000 0.000000 0.000000 0.000000 0.133011
#
#
# Mechanical properties :
#
#
# Convention : Reuss Voigt Hill
#
# Bulk Modulus (GPa) = 31.30078 42.92598 37.11338
# Shear Modulus (GPa) = 9.48156 17.11473 13.29814
#
# Velocity S-wave (km/s) = 2.10616 2.82968 2.49429
# Velocity P-wave (km/s) = 4.53415 5.54607 5.06544
#
# Compressibility (1/GPa) = 0.03194808
#
# Stress axis : x y z
#
# Youngs Moduli (GPa) = 101.92708 36.87571 40.15054
#
# Poissons Ratio (x) = 0.10149 0.26001
# Poissons Ratio (y) = 0.28053 0.22948
# Poissons Ratio (z) = 0.66006 0.21077
#
# Static dielectric constant tensor:
#      x y z
#    x 1.880970 0.000000 0.000000 
#    y 0.000000 1.760230 0.000000 
#    z 0.000000 0.000000 1.777950 
# 
# From -- ./inp_files/42957.got.cif
#   From: 2010.05.17/outbox.cif.g08.bks.cpg/sg70_22_cif.got.tgz:42957.got - 2010.06.03 15:57:51.
