data_PCOD9516092
_publ_section_title
;
Structure prediction by ZEFSAII (Michael W. Deem and Ramdas Pophale) SiO2 
 PCOD9516092
Probable space group: F D D D
;
_chemical_formula_sum "Si O2"
_cell_formula_units_Z 120
_cell_length_a 32.016417
_cell_length_b 18.317773
_cell_length_c 10.397855
_cell_angle_alpha 90.000000
_cell_angle_beta 90.000000
_cell_angle_gamma 90.000000
_cell_volume 6098.024395
_symmetry_space_group_name_H-M "F D D D"
_symmetry_group_IT_number 70
_space_group.IT_coordinate_system_code '2'
_symmetry_cell_setting 'orthorhombic'
loop_
_space_group_symop_operation_xyz
x,y,z
1/4-x,1/4-y,z
x,1/4-y,1/4-z
1/4-x,y,1/4-z
-x,-y,-z
3/4+x,3/4+y,-z
-x,3/4+y,3/4+z
3/4+x,-y,3/4+z
x,1/2+y,1/2+z
1/4-x,3/4-y,1/2+z
x,3/4-y,3/4-z
1/4-x,1/2+y,3/4-z
-x,1/2-y,1/2-z
3/4+x,1/4+y,1/2-z
-x,1/4+y,1/4+z
3/4+x,1/2-y,1/4+z
1/2+x,y,1/2+z
3/4-x,1/4-y,1/2+z
1/2+x,1/4-y,3/4-z
3/4-x,y,3/4-z
1/2-x,-y,1/2-z
1/4+x,3/4+y,1/2-z
1/2-x,3/4+y,1/4+z
1/4+x,-y,1/4+z
1/2+x,1/2+y,z
3/4-x,3/4-y,z
1/2+x,3/4-y,1/4-z
3/4-x,1/2+y,1/4-z
1/2-x,1/2-y,-z
1/4+x,1/4+y,-z
1/2-x,1/4+y,3/4+z
1/4+x,1/2-y,3/4+z
loop_
_atom_site_type_symbol
_atom_site_label
_atom_site_fract_x
_atom_site_fract_y
_atom_site_fract_z
Si Si1 0.625000 0.125000 0.125000
Si Si2 0.326708 0.748121 0.328996
Si Si3 0.808653 0.291442 0.034076
Si Si4 0.232341 0.625000 0.625000
Si Si5 0.774401 0.648887 0.391578
O O1 0.597296 0.174349 0.214996
O O2 0.375000 0.748034 0.375000
O O3 0.321112 0.770481 0.179571
O O4 0.298700 0.807464 0.406731
O O5 0.304446 0.669714 0.339924
O O6 0.770902 0.350345 0.039325
O O7 0.794641 0.221196 0.951853
O O8 0.261515 0.650461 0.741997
#
# Coordination Sequence:
#
# PCOD9516092 Si02
#       5
#     8  32  32  16  32
#     4  12  28  40  70  94 136 174 226 274 332 404
#     4  11  24  42  68  99 136 171 221 280 330 394
#     4  10  26  43  68  97 133 177 222 274 337 393
#     4  10  23  40  70  99 128 178 219 270 334 401
#     4  10  23  45  68  96 132 176 221 273 332 400
#
# _framework density 19.678502999999999
#
# number of rings (size 3 to 8) (size 9 to 14) (size 15 to 20)
#    0.000    1.600    0.000    2.000   20.533    2.133 
#    0.000    0.000    0.000    0.000    0.000    0.000 
#    0.000    0.000    0.000    0.000    0.000    0.000 
#
# Total GULP energy -167473.882053 kJ/mol
# GULP energy per Si atom -5582.462735 kJ/mol
# Density = 1.963371 g / cm^3
# Si number density = 19.678503 Si / 1000 Ang^3
#
#
#
# Elastic Constant Matrix: (Units=GPa)
#
#
# Indices 1 2 3 4 5 6 
#
# 1 141.2232 44.2309 58.9599 0.0000 0.0000 0.0000
# 2 44.2309 62.8685 21.8275 0.0000 0.0000 0.0000
# 3 58.9599 21.8275 100.6977 0.0000 0.0000 0.0000
# 4 0.0000 0.0000 0.0000 23.5604 0.0000 0.0000
# 5 0.0000 0.0000 0.0000 0.0000 30.8151 0.0000
# 6 0.0000 0.0000 0.0000 0.0000 0.0000 153.0348
#
#
#
# Elastic Compliance Matrix: (Units=1/GPa)
#
#
# Indices 1 2 3 4 5 6 
#
# 1 0.011150 -0.006032 -0.005221 0.000000 0.000000 0.000000
# 2 -0.006032 0.020464 -0.000904 0.000000 0.000000 0.000000
# 3 -0.005221 -0.000904 0.013184 0.000000 0.000000 0.000000
# 4 0.000000 0.000000 0.000000 0.042444 0.000000 0.000000
# 5 0.000000 0.000000 0.000000 0.000000 0.032452 0.000000
# 6 0.000000 0.000000 0.000000 0.000000 0.000000 0.006534
#
#
# Mechanical properties :
#
#
# Convention : Reuss Voigt Hill
#
# Bulk Modulus (GPa) = 48.81946 61.64733 55.23340
# Shear Modulus (GPa) = 31.77249 53.46679 42.61964
#
# Velocity S-wave (km/s) = 4.02254 5.21815 4.65886
# Velocity P-wave (km/s) = 6.81446 8.22805 7.55439
#
# Compressibility (1/GPa) = 0.02048364
#
# Stress axis : x y z
#
# Youngs Moduli (GPa) = 89.68732 48.86690 75.85169
#
# Poissons Ratio (x) = 0.29475 0.39602
# Poissons Ratio (y) = 0.54097 0.06858
# Poissons Ratio (z) = 0.46825 0.04418
#
# Static dielectric constant tensor:
#      x y z
#    x 1.102560 0.000000 0.000000 
#    y 0.000000 1.676200 0.000000 
#    z 0.000000 0.000000 1.716340 
# 
# From -- ./inp_files/16336.got.cif
#   From: 2010.05.17/outbox.cif.g08.bks.cpg/sg70_9_cif.got.tgz:16336.got - 2010.06.03 15:57:51.
