data_PCOD9516372
_publ_section_title
;
Structure prediction by ZEFSAII (Michael W. Deem and Ramdas Pophale) SiO2 
 PCOD9516372
Probable space group: F D D D
;
_chemical_formula_sum "Si O2"
_cell_formula_units_Z 128
_cell_length_a 20.058574
_cell_length_b 11.564943
_cell_length_c 22.708666
_cell_angle_alpha 90.000000
_cell_angle_beta 90.000000
_cell_angle_gamma 90.000000
_cell_volume 5267.871521
_symmetry_space_group_name_H-M "F D D D"
_symmetry_group_IT_number 70
_space_group.IT_coordinate_system_code '2'
_symmetry_cell_setting 'orthorhombic'
loop_
_space_group_symop_operation_xyz
x,y,z
1/4-x,1/4-y,z
x,1/4-y,1/4-z
1/4-x,y,1/4-z
-x,-y,-z
3/4+x,3/4+y,-z
-x,3/4+y,3/4+z
3/4+x,-y,3/4+z
x,1/2+y,1/2+z
1/4-x,3/4-y,1/2+z
x,3/4-y,3/4-z
1/4-x,1/2+y,3/4-z
-x,1/2-y,1/2-z
3/4+x,1/4+y,1/2-z
-x,1/4+y,1/4+z
3/4+x,1/2-y,1/4+z
1/2+x,y,1/2+z
3/4-x,1/4-y,1/2+z
1/2+x,1/4-y,3/4-z
3/4-x,y,3/4-z
1/2-x,-y,1/2-z
1/4+x,3/4+y,1/2-z
1/2-x,3/4+y,1/4+z
1/4+x,-y,1/4+z
1/2+x,1/2+y,z
3/4-x,3/4-y,z
1/2+x,3/4-y,1/4-z
3/4-x,1/2+y,1/4-z
1/2-x,1/2-y,-z
1/4+x,1/4+y,-z
1/2-x,1/4+y,3/4+z
1/4+x,1/2-y,3/4+z
loop_
_atom_site_type_symbol
_atom_site_label
_atom_site_fract_x
_atom_site_fract_y
_atom_site_fract_z
Si Si1 0.625000 0.125000 0.732140
Si Si2 0.930446 0.151414 0.418598
Si Si3 0.910666 0.125000 0.625000
Si Si4 0.762279 0.838369 0.684112
Si Si5 0.133246 0.488387 0.990467
O O1 0.652577 0.228145 0.692544
O O2 0.564733 0.157077 0.775737
O O3 0.875000 0.098552 0.375000
O O4 0.929609 0.067400 0.474121
O O5 0.991887 0.158208 0.374627
O O6 0.954841 0.221347 0.591356
O O7 0.868855 0.189132 0.675024
O O8 0.700303 0.803105 0.726012
O O9 0.125000 0.625000 0.991217
#
# Coordination Sequence:
#
# PCOD9516372 Si02
#       5
#    16  32  16  32  32
#     4  12  25  48  74 118 154 207 260 306 408 452
#     4  10  24  48  72 110 150 201 253 319 384 459
#     4  12  26  48  77 117 148 202 270 312 400 458
#     4  11  27  47  78 112 157 202 261 321 387 473
#     4  11  26  48  78 114 151 200 261 326 395 454
#
# _framework density 24.298238999999999
#
# number of rings (size 3 to 8) (size 9 to 14) (size 15 to 20)
#    0.000    1.000    2.500    1.875    5.250    9.500 
#    4.500    0.000    0.000    0.000    0.000    0.000 
#    0.000    0.000    0.000    0.000    0.000    0.000 
#
# Total GULP energy -179144.057122 kJ/mol
# GULP energy per Si atom -5598.251785 kJ/mol
# Density = 2.424294 g / cm^3
# Si number density = 24.298239 Si / 1000 Ang^3
#
#
#
# Elastic Constant Matrix: (Units=GPa)
#
#
# Indices 1 2 3 4 5 6 
#
# 1 116.3364 43.2501 87.1862 0.0000 0.0000 0.0000
# 2 43.2501 138.8976 94.1873 0.0000 0.0000 0.0000
# 3 87.1862 94.1873 204.0550 0.0000 0.0000 0.0000
# 4 0.0000 0.0000 0.0000 37.9560 0.0000 0.0000
# 5 0.0000 0.0000 0.0000 0.0000 35.5395 0.0000
# 6 0.0000 0.0000 0.0000 0.0000 0.0000 23.6671
#
#
#
# Elastic Compliance Matrix: (Units=1/GPa)
#
#
# Indices 1 2 3 4 5 6 
#
# 1 0.012660 -0.000399 -0.005225 0.000000 0.000000 0.000000
# 2 -0.000399 0.010492 -0.004673 0.000000 0.000000 0.000000
# 3 -0.005225 -0.004673 0.009290 0.000000 0.000000 0.000000
# 4 0.000000 0.000000 0.000000 0.026346 0.000000 0.000000
# 5 0.000000 0.000000 0.000000 0.000000 0.028138 0.000000
# 6 0.000000 0.000000 0.000000 0.000000 0.000000 0.042253
#
#
# Mechanical properties :
#
#
# Convention : Reuss Voigt Hill
#
# Bulk Modulus (GPa) = 84.39529 100.94846 92.67187
# Shear Modulus (GPa) = 32.52637 35.07687 33.80162
#
# Velocity S-wave (km/s) = 3.66270 3.80359 3.73381
# Velocity P-wave (km/s) = 7.25918 7.80548 7.53728
#
# Compressibility (1/GPa) = 0.01184900
#
# Stress axis : x y z
#
# Youngs Moduli (GPa) = 78.98979 95.30847 107.64411
#
# Poissons Ratio (x) = 0.03802 0.56244
# Poissons Ratio (y) = 0.03151 0.50297
# Poissons Ratio (z) = 0.41272 0.44533
#
# Static dielectric constant tensor:
#      x y z
#    x 2.061450 0.000000 0.000000 
#    y 0.000000 1.887210 0.000000 
#    z 0.000000 0.000000 1.944100 
# 
# From -- ./inp_files/53446.got.cif
#   From: 2010.05.17/outbox.cif.g08.bks.cpg/sg70_27_cif.got.tgz:53446.got - 2010.06.03 15:57:51.
