data_PCOD9516280
_publ_section_title
;
Structure prediction by ZEFSAII (Michael W. Deem and Ramdas Pophale) SiO2 
 PCOD9516280
Probable space group: F D D D
;
_chemical_formula_sum "Si O2"
_cell_formula_units_Z 176
_cell_length_a 12.474937
_cell_length_b 28.833606
_cell_length_c 22.316695
_cell_angle_alpha 90.000000
_cell_angle_beta 90.000000
_cell_angle_gamma 90.000000
_cell_volume 8027.257577
_symmetry_space_group_name_H-M "F D D D"
_symmetry_group_IT_number 70
_space_group.IT_coordinate_system_code '2'
_symmetry_cell_setting 'orthorhombic'
loop_
_space_group_symop_operation_xyz
x,y,z
1/4-x,1/4-y,z
x,1/4-y,1/4-z
1/4-x,y,1/4-z
-x,-y,-z
3/4+x,3/4+y,-z
-x,3/4+y,3/4+z
3/4+x,-y,3/4+z
x,1/2+y,1/2+z
1/4-x,3/4-y,1/2+z
x,3/4-y,3/4-z
1/4-x,1/2+y,3/4-z
-x,1/2-y,1/2-z
3/4+x,1/4+y,1/2-z
-x,1/4+y,1/4+z
3/4+x,1/2-y,1/4+z
1/2+x,y,1/2+z
3/4-x,1/4-y,1/2+z
1/2+x,1/4-y,3/4-z
3/4-x,y,3/4-z
1/2-x,-y,1/2-z
1/4+x,3/4+y,1/2-z
1/2-x,3/4+y,1/4+z
1/4+x,-y,1/4+z
1/2+x,1/2+y,z
3/4-x,3/4-y,z
1/2+x,3/4-y,1/4-z
3/4-x,1/2+y,1/4-z
1/2-x,1/2-y,-z
1/4+x,1/4+y,-z
1/2-x,1/4+y,3/4+z
1/4+x,1/2-y,3/4+z
loop_
_atom_site_type_symbol
_atom_site_label
_atom_site_fract_x
_atom_site_fract_y
_atom_site_fract_z
Si Si1 0.625000 0.303631 0.625000
Si Si2 0.806802 0.125000 0.125000
Si Si3 0.449178 0.450642 0.516318
Si Si4 0.212310 0.213486 0.663560
Si Si5 0.625000 0.625000 0.281391
Si Si6 0.853818 0.468496 0.145505
Si Si7 0.368961 0.121812 0.257551
O O1 0.521069 0.271458 0.634838
O O2 0.614772 0.336139 0.564330
O O3 0.739331 0.171852 0.117298
O O4 0.862209 0.139520 0.187104
O O5 0.500000 0.500000 0.500000
O O6 0.345300 0.444514 0.472999
O O7 0.403639 0.455865 0.582168
O O8 0.542362 0.412106 0.516840
O O9 0.125000 0.242792 0.625000
O O10 0.318819 0.243165 0.674497
O O11 0.604852 0.671576 0.317672
O O12 0.743001 0.634802 0.254642
#
# Coordination Sequence:
#
# PCOD9516280 Si02
#       7
#    16  16  32  32  16  32  32
#     4  10  24  46  68  97 132 188 230 285 352 414
#     4  12  25  43  64  98 136 183 224 283 350 412
#     4  12  22  37  66 102 135 176 223 287 346 406
#     4  12  24  40  65 101 139 174 223 287 342 408
#     4  10  24  43  68  96 133 178 230 292 344 415
#     4  11  23  43  66  99 135 177 229 284 349 412
#     4  11  23  41  67  96 137 178 232 281 348 414
#
# _framework density 21.925297
#
# number of rings (size 3 to 8) (size 9 to 14) (size 15 to 20)
#    0.000    0.727    3.636    4.636    0.000    1.818 
#    0.000   11.818    0.000    0.000    0.000    0.000 
#    0.000    0.000    0.000    0.000    0.000    0.000 
#
# Total GULP energy -245168.628621 kJ/mol
# GULP energy per Si atom -5572.014287 kJ/mol
# Density = 2.187539 g / cm^3
# Si number density = 21.925297 Si / 1000 Ang^3
#
#
#
# Elastic Constant Matrix: (Units=GPa)
#
#
# Indices 1 2 3 4 5 6 
#
# 1 190.0124 49.9118 42.9307 0.0000 0.0000 0.0000
# 2 49.9118 76.9599 4.1902 0.0000 0.0000 0.0000
# 3 42.9307 4.1902 102.6767 0.0000 0.0000 0.0000
# 4 0.0000 0.0000 0.0000 9.7227 0.0000 0.0000
# 5 0.0000 0.0000 0.0000 0.0000 78.6629 0.0000
# 6 0.0000 0.0000 0.0000 0.0000 0.0000 32.4564
#
#
#
# Elastic Compliance Matrix: (Units=1/GPa)
#
#
# Indices 1 2 3 4 5 6 
#
# 1 0.007049 -0.004421 -0.002767 0.000000 0.000000 0.000000
# 2 -0.004421 0.015796 0.001204 0.000000 0.000000 0.000000
# 3 -0.002767 0.001204 0.010847 0.000000 0.000000 0.000000
# 4 0.000000 0.000000 0.000000 0.102852 0.000000 0.000000
# 5 0.000000 0.000000 0.000000 0.000000 0.012712 0.000000
# 6 0.000000 0.000000 0.000000 0.000000 0.000000 0.030811
#
#
# Mechanical properties :
#
#
# Convention : Reuss Voigt Hill
#
# Bulk Modulus (GPa) = 46.03303 62.63493 54.33398
# Shear Modulus (GPa) = 25.09073 42.34282 33.71677
#
# Velocity S-wave (km/s) = 3.38653 4.39935 3.92574
# Velocity P-wave (km/s) = 6.02764 7.37801 6.73675
#
# Compressibility (1/GPa) = 0.02172353
#
# Stress axis : x y z
#
# Youngs Moduli (GPa) = 141.85807 63.30911 92.19057
#
# Poissons Ratio (x) = 0.27990 0.25509
# Poissons Ratio (y) = 0.62717 -0.11099
# Poissons Ratio (z) = 0.39252 -0.07622
#
# Static dielectric constant tensor:
#      x y z
#    x 1.966940 0.000000 0.000000 
#    y 0.000000 1.826650 0.000000 
#    z 0.000000 0.000000 1.843350 
# 
# From -- ./inp_files/50454.got.cif
#   From: 2010.05.17/outbox.cif.g08.bks.cpg/sg70_26_cif.got.tgz:50454.got - 2010.06.03 15:57:51.
