data_PCOD9516885
_publ_section_title
;
Structure prediction by ZEFSAII (Michael W. Deem and Ramdas Pophale) SiO2 
 PCOD9516885
Probable space group: F D D D
;
_chemical_formula_sum "Si O2"
_cell_formula_units_Z 96
_cell_length_a 6.820016
_cell_length_b 21.198869
_cell_length_c 31.201081
_cell_angle_alpha 90.000000
_cell_angle_beta 90.000000
_cell_angle_gamma 90.000000
_cell_volume 4510.947011
_symmetry_space_group_name_H-M "F D D D"
_symmetry_group_IT_number 70
_space_group.IT_coordinate_system_code '2'
_symmetry_cell_setting 'orthorhombic'
loop_
_space_group_symop_operation_xyz
x,y,z
1/4-x,1/4-y,z
x,1/4-y,1/4-z
1/4-x,y,1/4-z
-x,-y,-z
3/4+x,3/4+y,-z
-x,3/4+y,3/4+z
3/4+x,-y,3/4+z
x,1/2+y,1/2+z
1/4-x,3/4-y,1/2+z
x,3/4-y,3/4-z
1/4-x,1/2+y,3/4-z
-x,1/2-y,1/2-z
3/4+x,1/4+y,1/2-z
-x,1/4+y,1/4+z
3/4+x,1/2-y,1/4+z
1/2+x,y,1/2+z
3/4-x,1/4-y,1/2+z
1/2+x,1/4-y,3/4-z
3/4-x,y,3/4-z
1/2-x,-y,1/2-z
1/4+x,3/4+y,1/2-z
1/2-x,3/4+y,1/4+z
1/4+x,-y,1/4+z
1/2+x,1/2+y,z
3/4-x,3/4-y,z
1/2+x,3/4-y,1/4-z
3/4-x,1/2+y,1/4-z
1/2-x,1/2-y,-z
1/4+x,1/4+y,-z
1/2-x,1/4+y,3/4+z
1/4+x,1/2-y,3/4+z
loop_
_atom_site_type_symbol
_atom_site_label
_atom_site_fract_x
_atom_site_fract_y
_atom_site_fract_z
Si Si1 0.791406 0.074601 0.249141
Si Si2 0.168649 0.935243 0.850301
Si Si3 0.125000 0.791954 0.625000
Si Si4 0.875000 0.875000 0.059136
O O1 0.625000 0.125000 0.263982
O O2 0.816046 0.086420 0.198610
O O3 0.981903 0.085912 0.278128
O O4 0.750000 0.000000 0.250000
O O5 0.086042 0.875000 0.875000
O O6 0.375000 0.948643 0.875000
O O7 0.034313 0.996423 0.853158
O O8 0.238394 0.833126 0.589912
#
# Coordination Sequence:
#
# PCOD9516885 Si02
#       4
#    32  32  16  16
#     4  12  27  49  77 112 156 195 253 314 380 451
#     4  11  24  47  78 111 146 194 249 310 375 445
#     4  12  29  48  74 106 155 200 256 302 382 450
#     4  12  32  46  77 110 152 206 247 312 378 452
#
# _framework density 21.281562999999998
#
# number of rings (size 3 to 8) (size 9 to 14) (size 15 to 20)
#    0.000    0.333    3.333    4.500   14.000    2.667 
#    0.000    0.000    0.000    0.000    0.000    0.000 
#    0.000    0.000    0.000    0.000    0.000    0.000 
#
# Total GULP energy -134200.769166 kJ/mol
# GULP energy per Si atom -5591.698715 kJ/mol
# Density = 2.123313 g / cm^3
# Si number density = 21.281563 Si / 1000 Ang^3
#
#
#
# Elastic Constant Matrix: (Units=GPa)
#
#
# Indices 1 2 3 4 5 6 
#
# 1 172.4395 91.1611 77.5153 0.0000 0.0000 0.0000
# 2 91.1611 171.2808 62.8931 0.0000 0.0000 0.0000
# 3 77.5153 62.8931 154.8517 0.0000 0.0000 0.0000
# 4 0.0000 0.0000 0.0000 130.8516 0.0000 0.0000
# 5 0.0000 0.0000 0.0000 0.0000 45.9448 0.0000
# 6 0.0000 0.0000 0.0000 0.0000 0.0000 62.7033
#
#
#
# Elastic Compliance Matrix: (Units=1/GPa)
#
#
# Indices 1 2 3 4 5 6 
#
# 1 0.009158 -0.003750 -0.003061 0.000000 0.000000 0.000000
# 2 -0.003750 0.008397 -0.001533 0.000000 0.000000 0.000000
# 3 -0.003061 -0.001533 0.008613 0.000000 0.000000 0.000000
# 4 0.000000 0.000000 0.000000 0.007642 0.000000 0.000000
# 5 0.000000 0.000000 0.000000 0.000000 0.021765 0.000000
# 6 0.000000 0.000000 0.000000 0.000000 0.000000 0.015948
#
#
# Mechanical properties :
#
#
# Convention : Reuss Voigt Hill
#
# Bulk Modulus (GPa) = 105.49732 106.85679 106.17706
# Shear Modulus (GPa) = 54.72150 65.70012 60.21081
#
# Velocity S-wave (km/s) = 5.07631 5.56227 5.32484
# Velocity P-wave (km/s) = 9.16724 9.56932 9.37044
#
# Compressibility (1/GPa) = 0.00947891
#
# Stress axis : x y z
#
# Youngs Moduli (GPa) = 109.19922 119.08623 116.10537
#
# Poissons Ratio (x) = 0.44657 0.35540
# Poissons Ratio (y) = 0.40949 0.17804
# Poissons Ratio (z) = 0.33426 0.18261
#
# Static dielectric constant tensor:
#      x y z
#    x 1.815560 0.000000 0.000000 
#    y 0.000000 1.782380 0.000000 
#    z 0.000000 0.000000 1.647760 
# 
# From -- ./inp_files/56238.got.cif
#   From: 2010.05.17/outbox.cif.g08.bks.cpg/sg70_29_cif.got.tgz:56238.got - 2010.06.03 15:57:51.
