data_PCOD9516638
_publ_section_title
;
Structure prediction by ZEFSAII (Michael W. Deem and Ramdas Pophale) SiO2 
 PCOD9516638
Probable space group: F D D D
;
_chemical_formula_sum "Si O2"
_cell_formula_units_Z 144
_cell_length_a 24.115204
_cell_length_b 11.000849
_cell_length_c 23.871984
_cell_angle_alpha 90.000000
_cell_angle_beta 90.000000
_cell_angle_gamma 90.000000
_cell_volume 6332.944155
_symmetry_space_group_name_H-M "F D D D"
_symmetry_group_IT_number 70
_space_group.IT_coordinate_system_code '2'
_symmetry_cell_setting 'orthorhombic'
loop_
_space_group_symop_operation_xyz
x,y,z
1/4-x,1/4-y,z
x,1/4-y,1/4-z
1/4-x,y,1/4-z
-x,-y,-z
3/4+x,3/4+y,-z
-x,3/4+y,3/4+z
3/4+x,-y,3/4+z
x,1/2+y,1/2+z
1/4-x,3/4-y,1/2+z
x,3/4-y,3/4-z
1/4-x,1/2+y,3/4-z
-x,1/2-y,1/2-z
3/4+x,1/4+y,1/2-z
-x,1/4+y,1/4+z
3/4+x,1/2-y,1/4+z
1/2+x,y,1/2+z
3/4-x,1/4-y,1/2+z
1/2+x,1/4-y,3/4-z
3/4-x,y,3/4-z
1/2-x,-y,1/2-z
1/4+x,3/4+y,1/2-z
1/2-x,3/4+y,1/4+z
1/4+x,-y,1/4+z
1/2+x,1/2+y,z
3/4-x,3/4-y,z
1/2+x,3/4-y,1/4-z
3/4-x,1/2+y,1/4-z
1/2-x,1/2-y,-z
1/4+x,1/4+y,-z
1/2-x,1/4+y,3/4+z
1/4+x,1/2-y,3/4+z
loop_
_atom_site_type_symbol
_atom_site_label
_atom_site_fract_x
_atom_site_fract_y
_atom_site_fract_z
Si Si1 0.875000 0.875000 0.509835
Si Si2 0.525861 0.875000 0.375000
Si Si3 0.883489 0.734551 0.704825
Si Si4 0.206030 0.375000 0.375000
Si Si5 0.887321 0.140337 0.808969
Si Si6 0.258938 0.381412 0.172486
O O1 0.886108 0.761716 0.469199
O O2 0.930641 0.880972 0.548091
O O3 0.563433 0.825218 0.324095
O O4 0.498068 0.750466 0.394860
O O5 0.833931 0.656925 0.677037
O O6 0.885983 0.719129 0.771394
O O7 0.875000 0.875000 0.688795
O O8 0.239748 0.498282 0.365854
O O9 0.875000 0.132871 0.875000
O O10 0.952671 0.148652 0.793783
#
# Coordination Sequence:
#
# PCOD9516638 Si02
#       6
#    16  16  32  16  32  32
#     4  12  23  48  72 104 142 192 253 292 352 442
#     4  11  22  46  73 108 138 185 248 303 360 430
#     4  11  22  43  72 101 141 189 243 299 358 437
#     4  11  22  40  73 112 136 180 245 297 362 432
#     4  12  29  45  69 105 155 191 239 301 371 434
#     4  12  25  45  79 110 142 189 245 308 365 437
#
# _framework density 22.738240000000001
#
# number of rings (size 3 to 8) (size 9 to 14) (size 15 to 20)
#    0.000    0.444    6.667    2.333    3.111    2.222 
#    0.000    2.222    0.000    0.000    0.000    0.000 
#    0.000    0.000    0.000    0.000    0.000    0.000 
#
# Total GULP energy -200977.196504 kJ/mol
# GULP energy per Si atom -5582.699903 kJ/mol
# Density = 2.268649 g / cm^3
# Si number density = 22.738240 Si / 1000 Ang^3
#
#
#
# Elastic Constant Matrix: (Units=GPa)
#
#
# Indices 1 2 3 4 5 6 
#
# 1 52.3784 -7.6668 15.0671 0.0000 0.0000 0.0000
# 2 -7.6668 173.1773 22.4280 0.0000 0.0000 0.0000
# 3 15.0671 22.4280 116.7094 0.0000 0.0000 0.0000
# 4 0.0000 0.0000 0.0000 28.6148 0.0000 0.0000
# 5 0.0000 0.0000 0.0000 0.0000 12.2344 0.0000
# 6 0.0000 0.0000 0.0000 0.0000 0.0000 10.0525
#
#
#
# Elastic Compliance Matrix: (Units=1/GPa)
#
#
# Indices 1 2 3 4 5 6 
#
# 1 0.020091 0.001257 -0.002835 0.000000 0.000000 0.000000
# 2 0.001257 0.006000 -0.001315 0.000000 0.000000 0.000000
# 3 -0.002835 -0.001315 0.009187 0.000000 0.000000 0.000000
# 4 0.000000 0.000000 0.000000 0.034947 0.000000 0.000000
# 5 0.000000 0.000000 0.000000 0.000000 0.081737 0.000000
# 6 0.000000 0.000000 0.000000 0.000000 0.000000 0.099478
#
#
# Mechanical properties :
#
#
# Convention : Reuss Voigt Hill
#
# Bulk Modulus (GPa) = 33.90864 44.65796 39.28330
# Shear Modulus (GPa) = 18.72246 31.00946 24.86596
#
# Velocity S-wave (km/s) = 2.87259 3.69692 3.31051
# Velocity P-wave (km/s) = 5.09385 6.15675 5.65035
#
# Compressibility (1/GPa) = 0.02949101
#
# Stress axis : x y z
#
# Youngs Moduli (GPa) = 49.77258 166.65527 108.84841
#
# Poissons Ratio (x) = -0.20943 0.30862
# Poissons Ratio (y) = -0.06255 0.14317
# Poissons Ratio (z) = 0.14112 0.21921
#
# Static dielectric constant tensor:
#      x y z
#    x 1.883920 0.000000 0.000000 
#    y 0.000000 2.055670 0.000000 
#    z 0.000000 0.000000 1.869380 
# 
# From -- ./inp_files/20706.got.cif
#   From: 2010.05.17/outbox.cif.g08.bks.cpg/sg70_11_cif.got.tgz:20706.got - 2010.06.03 15:57:51.
