data_PCOD9516572
_publ_section_title
;
Structure prediction by ZEFSAII (Michael W. Deem and Ramdas Pophale) SiO2 
 PCOD9516572
Probable space group: F D D D
;
_chemical_formula_sum "Si O2"
_cell_formula_units_Z 160
_cell_length_a 23.642839
_cell_length_b 23.636659
_cell_length_c 14.150801
_cell_angle_alpha 90.000000
_cell_angle_beta 90.000000
_cell_angle_gamma 90.000000
_cell_volume 7908.001413
_symmetry_space_group_name_H-M "F D D D"
_symmetry_group_IT_number 70
_space_group.IT_coordinate_system_code '2'
_symmetry_cell_setting 'orthorhombic'
loop_
_space_group_symop_operation_xyz
x,y,z
1/4-x,1/4-y,z
x,1/4-y,1/4-z
1/4-x,y,1/4-z
-x,-y,-z
3/4+x,3/4+y,-z
-x,3/4+y,3/4+z
3/4+x,-y,3/4+z
x,1/2+y,1/2+z
1/4-x,3/4-y,1/2+z
x,3/4-y,3/4-z
1/4-x,1/2+y,3/4-z
-x,1/2-y,1/2-z
3/4+x,1/4+y,1/2-z
-x,1/4+y,1/4+z
3/4+x,1/2-y,1/4+z
1/2+x,y,1/2+z
3/4-x,1/4-y,1/2+z
1/2+x,1/4-y,3/4-z
3/4-x,y,3/4-z
1/2-x,-y,1/2-z
1/4+x,3/4+y,1/2-z
1/2-x,3/4+y,1/4+z
1/4+x,-y,1/4+z
1/2+x,1/2+y,z
3/4-x,3/4-y,z
1/2+x,3/4-y,1/4-z
3/4-x,1/2+y,1/4-z
1/2-x,1/2-y,-z
1/4+x,1/4+y,-z
1/2-x,1/4+y,3/4+z
1/4+x,1/2-y,3/4+z
loop_
_atom_site_type_symbol
_atom_site_label
_atom_site_fract_x
_atom_site_fract_y
_atom_site_fract_z
Si Si1 0.980413 0.619238 0.917786
Si Si2 0.854931 0.703855 0.538353
Si Si3 0.832118 0.928094 0.279570
Si Si4 0.757091 0.529824 0.559591
Si Si5 0.227085 0.340552 0.786148
O O1 0.975388 0.629207 0.807135
O O2 0.036514 0.584670 0.947943
O O3 0.928305 0.582994 0.959845
O O4 0.986499 0.676347 0.975248
O O5 0.865966 0.765792 0.496598
O O6 0.812515 0.712551 0.625395
O O7 0.913586 0.676065 0.565188
O O8 0.875000 0.875000 0.284046
O O9 0.957311 0.946676 0.380609
O O10 0.750601 0.468201 0.511144
O O11 0.253196 0.375000 0.875000
#
# Coordination Sequence:
#
# PCOD9516572 Si02
#       5
#    32  32  32  32  32
#     4  11  22  39  63  93 131 167 212 276 330 392
#     4  11  21  40  65  97 132 168 216 276 345 396
#     4  11  21  38  66 101 129 162 211 280 345 382
#     4  11  23  42  63  98 135 170 222 281 331 398
#     4  12  25  41  63  93 130 182 222 267 332 399
#
# _framework density 20.232672000000001
#
# number of rings (size 3 to 8) (size 9 to 14) (size 15 to 20)
#    0.000    0.800    4.000    6.600    0.000    5.600 
#    0.000    0.000    0.000    0.600    0.000    0.000 
#    0.000    0.000    0.000    0.000    0.000    0.000 
#
# Total GULP energy -223274.233511 kJ/mol
# GULP energy per Si atom -5581.855838 kJ/mol
# Density = 2.018662 g / cm^3
# Si number density = 20.232672 Si / 1000 Ang^3
#
#
#
# Elastic Constant Matrix: (Units=GPa)
#
#
# Indices 1 2 3 4 5 6 
#
# 1 51.9564 10.0083 23.3986 0.0000 0.0000 0.0000
# 2 10.0083 103.5945 71.8501 0.0000 0.0000 0.0000
# 3 23.3986 71.8501 153.8515 0.0000 0.0000 0.0000
# 4 0.0000 0.0000 0.0000 41.9826 0.0000 0.0000
# 5 0.0000 0.0000 0.0000 0.0000 44.9225 0.0000
# 6 0.0000 0.0000 0.0000 0.0000 0.0000 18.7437
#
#
#
# Elastic Compliance Matrix: (Units=1/GPa)
#
#
# Indices 1 2 3 4 5 6 
#
# 1 0.020667 0.000271 -0.003270 0.000000 0.000000 0.000000
# 2 0.000271 0.014281 -0.006711 0.000000 0.000000 0.000000
# 3 -0.003270 -0.006711 0.010131 0.000000 0.000000 0.000000
# 4 0.000000 0.000000 0.000000 0.023819 0.000000 0.000000
# 5 0.000000 0.000000 0.000000 0.000000 0.022261 0.000000
# 6 0.000000 0.000000 0.000000 0.000000 0.000000 0.053351
#
#
# Mechanical properties :
#
#
# Convention : Reuss Voigt Hill
#
# Bulk Modulus (GPa) = 38.97002 57.76850 48.36926
# Shear Modulus (GPa) = 28.98839 34.73945 31.86392
#
# Velocity S-wave (km/s) = 3.78928 4.14816 3.97277
# Velocity P-wave (km/s) = 6.20061 7.18033 6.70838
#
# Compressibility (1/GPa) = 0.02566075
#
# Stress axis : x y z
#
# Youngs Moduli (GPa) = 48.38580 70.02238 98.70681
#
# Poissons Ratio (x) = -0.01899 0.32275
# Poissons Ratio (y) = -0.01312 0.66239
# Poissons Ratio (z) = 0.15821 0.46990
#
# Static dielectric constant tensor:
#      x y z
#    x 1.745280 0.000000 0.000000 
#    y 0.000000 1.774970 0.000000 
#    z 0.000000 0.000000 1.735690 
# 
# From -- ./inp_files/28659.got.cif
#   From: 2010.05.17/outbox.cif.g08.bks.cpg/sg70_15_cif.got.tgz:28659.got - 2010.06.03 15:57:51.
