data_PCOD9516203
_publ_section_title
;
Structure prediction by ZEFSAII (Michael W. Deem and Ramdas Pophale) SiO2 
 PCOD9516203
Probable space group: F D D D
;
_chemical_formula_sum "Si O2"
_cell_formula_units_Z 104
_cell_length_a 22.947995
_cell_length_b 12.249831
_cell_length_c 15.002695
_cell_angle_alpha 90.000000
_cell_angle_beta 90.000000
_cell_angle_gamma 90.000000
_cell_volume 4217.393497
_symmetry_space_group_name_H-M "F D D D"
_symmetry_group_IT_number 70
_space_group.IT_coordinate_system_code '2'
_symmetry_cell_setting 'orthorhombic'
loop_
_space_group_symop_operation_xyz
x,y,z
1/4-x,1/4-y,z
x,1/4-y,1/4-z
1/4-x,y,1/4-z
-x,-y,-z
3/4+x,3/4+y,-z
-x,3/4+y,3/4+z
3/4+x,-y,3/4+z
x,1/2+y,1/2+z
1/4-x,3/4-y,1/2+z
x,3/4-y,3/4-z
1/4-x,1/2+y,3/4-z
-x,1/2-y,1/2-z
3/4+x,1/4+y,1/2-z
-x,1/4+y,1/4+z
3/4+x,1/2-y,1/4+z
1/2+x,y,1/2+z
3/4-x,1/4-y,1/2+z
1/2+x,1/4-y,3/4-z
3/4-x,y,3/4-z
1/2-x,-y,1/2-z
1/4+x,3/4+y,1/2-z
1/2-x,3/4+y,1/4+z
1/4+x,-y,1/4+z
1/2+x,1/2+y,z
3/4-x,3/4-y,z
1/2+x,3/4-y,1/4-z
3/4-x,1/2+y,1/4-z
1/2-x,1/2-y,-z
1/4+x,1/4+y,-z
1/2-x,1/4+y,3/4+z
1/4+x,1/2-y,3/4+z
loop_
_atom_site_type_symbol
_atom_site_label
_atom_site_fract_x
_atom_site_fract_y
_atom_site_fract_z
Si Si1 0.575737 0.385726 0.980704
Si Si2 0.450672 0.857709 0.528091
Si Si3 0.375000 0.375000 0.875000
Si Si4 0.056731 0.778694 0.306051
O O1 0.568925 0.375000 0.875000
O O2 0.564759 0.515739 0.990846
O O3 0.636845 0.323849 0.998132
O O4 0.519152 0.334301 0.026090
O O5 0.418767 0.807929 0.440654
O O6 0.428994 0.817860 0.623849
O O7 0.042048 0.875000 0.375000
O O8 0.000000 0.750000 0.250000
#
# Coordination Sequence:
#
# PCOD9516203 Si02
#       4
#    32  32   8  32
#     4  10  23  45  73 106 146 202 253 322 384 465
#     4  11  25  43  77 108 149 198 267 317 394 472
#     4  12  20  40  72 108 134 190 248 330 372 436
#     4  11  27  49  75 112 160 210 260 328 406 480
#
# _framework density 24.659782
#
# number of rings (size 3 to 8) (size 9 to 14) (size 15 to 20)
#    0.000    1.231    1.538    3.692    4.308    6.154 
#    0.000    1.538    0.000    0.000    0.000    0.000 
#    0.000    0.000    0.000    0.000    0.000    0.000 
#
# Total GULP energy -145034.091885 kJ/mol
# GULP energy per Si atom -5578.234303 kJ/mol
# Density = 2.460366 g / cm^3
# Si number density = 24.659782 Si / 1000 Ang^3
#
#
#
# Elastic Constant Matrix: (Units=GPa)
#
#
# Indices 1 2 3 4 5 6 
#
# 1 286.6037 92.4890 80.0272 0.0000 0.0000 0.0000
# 2 92.4890 44.0405 20.1480 0.0000 0.0000 0.0000
# 3 80.0272 20.1480 76.8891 0.0000 0.0000 0.0000
# 4 0.0000 0.0000 0.0000 33.1312 0.0000 0.0000
# 5 0.0000 0.0000 0.0000 0.0000 52.8524 0.0000
# 6 0.0000 0.0000 0.0000 0.0000 0.0000 40.1560
#
#
#
# Elastic Compliance Matrix: (Units=1/GPa)
#
#
# Indices 1 2 3 4 5 6 
#
# 1 0.014016 -0.025860 -0.007811 0.000000 0.000000 0.000000
# 2 -0.025860 0.073515 0.007652 0.000000 0.000000 0.000000
# 3 -0.007811 0.007652 0.019131 0.000000 0.000000 0.000000
# 4 0.000000 0.000000 0.000000 0.030183 0.000000 0.000000
# 5 0.000000 0.000000 0.000000 0.000000 0.018921 0.000000
# 6 0.000000 0.000000 0.000000 0.000000 0.000000 0.024903
#
#
# Mechanical properties :
#
#
# Convention : Reuss Voigt Hill
#
# Bulk Modulus (GPa) = 18.30764 88.09576 53.20170
# Shear Modulus (GPa) = 19.92715 39.55252 29.73984
#
# Velocity S-wave (km/s) = 2.84576 4.00925 3.47653
# Velocity P-wave (km/s) = 4.27060 7.56533 6.14297
#
# Compressibility (1/GPa) = 0.05462200
#
# Stress axis : x y z
#
# Youngs Moduli (GPa) = 71.34929 13.60268 52.27248
#
# Poissons Ratio (x) = 0.35177 0.40831
# Poissons Ratio (y) = 1.84512 -0.39999
# Poissons Ratio (z) = 0.55732 -0.10409
#
# Static dielectric constant tensor:
#      x y z
#    x 2.078150 0.000000 0.000000 
#    y 0.000000 2.187160 0.000000 
#    z 0.000000 0.000000 1.924380 
# 
# From -- ./inp_files/37186.got.cif
#   From: 2010.05.17/outbox.cif.g08.bks.cpg/sg70_19_cif.got.tgz:37186.got - 2010.06.03 15:57:51.
