data_PCOD9516822
_publ_section_title
;
Structure prediction by ZEFSAII (Michael W. Deem and Ramdas Pophale) SiO2 
 PCOD9516822
Probable space group: F D D D
;
_chemical_formula_sum "Si O2"
_cell_formula_units_Z 136
_cell_length_a 9.055699
_cell_length_b 21.186038
_cell_length_c 24.495661
_cell_angle_alpha 90.000000
_cell_angle_beta 90.000000
_cell_angle_gamma 90.000000
_cell_volume 4699.599931
_symmetry_space_group_name_H-M "F D D D"
_symmetry_group_IT_number 70
_space_group.IT_coordinate_system_code '2'
_symmetry_cell_setting 'orthorhombic'
loop_
_space_group_symop_operation_xyz
x,y,z
1/4-x,1/4-y,z
x,1/4-y,1/4-z
1/4-x,y,1/4-z
-x,-y,-z
3/4+x,3/4+y,-z
-x,3/4+y,3/4+z
3/4+x,-y,3/4+z
x,1/2+y,1/2+z
1/4-x,3/4-y,1/2+z
x,3/4-y,3/4-z
1/4-x,1/2+y,3/4-z
-x,1/2-y,1/2-z
3/4+x,1/4+y,1/2-z
-x,1/4+y,1/4+z
3/4+x,1/2-y,1/4+z
1/2+x,y,1/2+z
3/4-x,1/4-y,1/2+z
1/2+x,1/4-y,3/4-z
3/4-x,y,3/4-z
1/2-x,-y,1/2-z
1/4+x,3/4+y,1/2-z
1/2-x,3/4+y,1/4+z
1/4+x,-y,1/4+z
1/2+x,1/2+y,z
3/4-x,3/4-y,z
1/2+x,3/4-y,1/4-z
3/4-x,1/2+y,1/4-z
1/2-x,1/2-y,-z
1/4+x,1/4+y,-z
1/2-x,1/4+y,3/4+z
1/4+x,1/2-y,3/4+z
loop_
_atom_site_type_symbol
_atom_site_label
_atom_site_fract_x
_atom_site_fract_y
_atom_site_fract_z
Si Si1 0.430701 0.565611 0.518162
Si Si2 0.875728 0.718290 0.627116
Si Si3 0.433811 0.673119 0.431929
Si Si4 0.375000 0.375000 0.875000
Si Si5 0.377153 0.946770 0.218508
O O1 0.500000 0.500000 0.500000
O O2 0.463874 0.570726 0.582221
O O3 0.474287 0.620364 0.476094
O O4 0.250598 0.563394 0.514687
O O5 0.800407 0.752393 0.677614
O O6 0.949493 0.776839 0.592621
O O7 0.007333 0.674239 0.650347
O O8 0.375000 0.643516 0.375000
O O9 0.299796 0.709221 0.463895
O O10 0.375000 0.875000 0.195126
#
# Coordination Sequence:
#
# PCOD9516822 Si02
#       5
#    32  32  32   8  32
#     4  11  26  37  67 106 138 185 233 287 357 442
#     4  11  24  42  70  99 137 184 233 301 350 417
#     4   9  20  44  68  97 132 187 239 292 351 419
#     4  12  24  44  68 110 132 172 244 298 346 412
#     4   9  20  42  69  97 137 187 234 294 354 421
#
# _framework density 28.938635000000001
#
# number of rings (size 3 to 8) (size 9 to 14) (size 15 to 20)
#    0.000    1.882    3.529    0.000   14.824    2.824 
#    0.000    0.000    0.000    1.412    0.000    0.000 
#    0.000    0.000    0.000    0.000    0.000    0.000 
#
# Total GULP energy -189888.817912 kJ/mol
# GULP energy per Si atom -5584.965233 kJ/mol
# Density = 2.887277 g / cm^3
# Si number density = 28.938635 Si / 1000 Ang^3
#
#
#
# Elastic Constant Matrix: (Units=GPa)
#
#
# Indices 1 2 3 4 5 6 
#
# 1 94.9523 1.7839 0.2522 0.0000 0.0000 0.0000
# 2 1.7839 132.8947 39.7002 0.0000 0.0000 0.0000
# 3 0.2522 39.7002 141.4802 0.0000 0.0000 0.0000
# 4 0.0000 0.0000 0.0000 -96.2455 0.0000 0.0000
# 5 0.0000 0.0000 0.0000 0.0000 32.0294 0.0000
# 6 0.0000 0.0000 0.0000 0.0000 0.0000 31.7774
#
#
#
# Elastic Compliance Matrix: (Units=1/GPa)
#
#
# Indices 1 2 3 4 5 6 
#
# 1 0.010534 -0.000148 0.000023 0.000000 0.000000 0.000000
# 2 -0.000148 0.008215 -0.002305 0.000000 0.000000 0.000000
# 3 0.000023 -0.002305 0.007715 0.000000 0.000000 0.000000
# 4 0.000000 0.000000 0.000000 -0.010390 0.000000 0.000000
# 5 0.000000 0.000000 0.000000 0.000000 0.031221 0.000000
# 6 0.000000 0.000000 0.000000 0.000000 0.000000 0.031469
#
#
# Mechanical properties :
#
#
# Convention : Reuss Voigt Hill
#
# Bulk Modulus (GPa) = 46.28834 50.31108 48.29971
# Shear Modulus (GPa) = 55.04988 15.35164 35.20076
#
# Velocity S-wave (km/s) = 4.36626 2.30573 3.49147
# Velocity P-wave (km/s) = 6.43810 4.95093 5.74286
#
# Compressibility (1/GPa) = 0.02160371
#
# Stress axis : x y z
#
# Youngs Moduli (GPa) = 94.92772 121.72363 129.61951
#
# Poissons Ratio (x) = 0.01804 -0.00296
# Poissons Ratio (y) = 0.01407 0.29877
# Poissons Ratio (z) = -0.00217 0.28057
#
# Static dielectric constant tensor:
#      x y z
#    x 2.388900 0.000000 0.000000 
#    y 0.000000 2.299310 0.000000 
#    z 0.000000 0.000000 2.279600 
# 
# From -- ./inp_files/57267.got.cif
#   From: 2010.05.17/outbox.cif.g08.bks.cpg/sg70_29_cif.got.tgz:57267.got - 2010.06.03 15:57:51.
