data_PCOD9516573
_publ_section_title
;
Structure prediction by ZEFSAII (Michael W. Deem and Ramdas Pophale) SiO2 
 PCOD9516573
Probable space group: F D D D
;
_chemical_formula_sum "Si O2"
_cell_formula_units_Z 96
_cell_length_a 29.050103
_cell_length_b 13.409617
_cell_length_c 8.844436
_cell_angle_alpha 90.000000
_cell_angle_beta 90.000000
_cell_angle_gamma 90.000000
_cell_volume 3445.356722
_symmetry_space_group_name_H-M "F D D D"
_symmetry_group_IT_number 70
_space_group.IT_coordinate_system_code '2'
_symmetry_cell_setting 'orthorhombic'
loop_
_space_group_symop_operation_xyz
x,y,z
1/4-x,1/4-y,z
x,1/4-y,1/4-z
1/4-x,y,1/4-z
-x,-y,-z
3/4+x,3/4+y,-z
-x,3/4+y,3/4+z
3/4+x,-y,3/4+z
x,1/2+y,1/2+z
1/4-x,3/4-y,1/2+z
x,3/4-y,3/4-z
1/4-x,1/2+y,3/4-z
-x,1/2-y,1/2-z
3/4+x,1/4+y,1/2-z
-x,1/4+y,1/4+z
3/4+x,1/2-y,1/4+z
1/2+x,y,1/2+z
3/4-x,1/4-y,1/2+z
1/2+x,1/4-y,3/4-z
3/4-x,y,3/4-z
1/2-x,-y,1/2-z
1/4+x,3/4+y,1/2-z
1/2-x,3/4+y,1/4+z
1/4+x,-y,1/4+z
1/2+x,1/2+y,z
3/4-x,3/4-y,z
1/2+x,3/4-y,1/4-z
3/4-x,1/2+y,1/4-z
1/2-x,1/2-y,-z
1/4+x,1/4+y,-z
1/2-x,1/4+y,3/4+z
1/4+x,1/2-y,3/4+z
loop_
_atom_site_type_symbol
_atom_site_label
_atom_site_fract_x
_atom_site_fract_y
_atom_site_fract_z
Si Si1 0.817877 0.473318 0.974543
Si Si2 0.889411 0.756929 0.038997
Si Si3 0.264918 0.910682 0.547337
O O1 0.827687 0.375000 0.875000
O O2 0.861233 0.522267 0.060254
O O3 0.784076 0.550827 0.895180
O O4 0.784318 0.430539 0.105438
O O5 0.875000 0.875000 0.033126
O O6 0.875000 0.716797 0.875000
O O7 0.944060 0.758026 0.056381
O O8 0.261352 0.875000 0.375000
#
# Coordination Sequence:
#
# PCOD9516573 Si02
#       3
#    32  32  32
#     4  11  23  39  64  96 129 162 211 269 319 365
#     4   9  17  35  61  86 116 168 216 236 297 398
#     4  11  21  39  66  93 123 171 212 254 310 386
#
# _framework density 27.863586999999999
#
# number of rings (size 3 to 8) (size 9 to 14) (size 15 to 20)
#    0.000    1.667    6.667    2.000    0.000    6.000 
#    0.000    1.667    0.000    0.000    0.000    0.000 
#    0.000    0.000    0.000    0.000    0.000    0.000 
#
# Total GULP energy -134441.768768 kJ/mol
# GULP energy per Si atom -5601.740365 kJ/mol
# Density = 2.780017 g / cm^3
# Si number density = 27.863587 Si / 1000 Ang^3
#
#
#
# Elastic Constant Matrix: (Units=GPa)
#
#
# Indices 1 2 3 4 5 6 
#
# 1 215.0394 39.1617 39.0844 0.0000 0.0000 0.0000
# 2 39.1617 73.9756 48.6708 0.0000 0.0000 0.0000
# 3 39.0844 48.6708 149.0347 0.0000 0.0000 0.0000
# 4 0.0000 0.0000 0.0000 43.4059 0.0000 0.0000
# 5 0.0000 0.0000 0.0000 0.0000 -25.2336 0.0000
# 6 0.0000 0.0000 0.0000 0.0000 0.0000 21.8149
#
#
#
# Elastic Compliance Matrix: (Units=1/GPa)
#
#
# Indices 1 2 3 4 5 6 
#
# 1 0.005187 -0.002357 -0.000590 0.000000 0.000000 0.000000
# 2 -0.002357 0.018289 -0.005354 0.000000 0.000000 0.000000
# 3 -0.000590 -0.005354 0.008613 0.000000 0.000000 0.000000
# 4 0.000000 0.000000 0.000000 0.023038 0.000000 0.000000
# 5 0.000000 0.000000 0.000000 0.000000 -0.039630 0.000000
# 6 0.000000 0.000000 0.000000 0.000000 0.000000 0.045840
#
#
# Mechanical properties :
#
#
# Convention : Reuss Voigt Hill
#
# Bulk Modulus (GPa) = 64.58059 76.87593 70.72826
# Shear Modulus (GPa) = 60.16559 28.73963 44.45261
#
# Velocity S-wave (km/s) = 4.65186 3.21509 3.99854
# Velocity P-wave (km/s) = 7.21670 6.43680 6.83788
#
# Compressibility (1/GPa) = 0.01548453
#
# Stress axis : x y z
#
# Youngs Moduli (GPa) = 192.79177 54.67829 116.09979
#
# Poissons Ratio (x) = 0.12890 0.06854
# Poissons Ratio (y) = 0.45450 0.62164
# Poissons Ratio (z) = 0.11382 0.29277
#
# Static dielectric constant tensor:
#      x y z
#    x 2.184220 0.000000 0.000000 
#    y 0.000000 2.272800 0.000000 
#    z 0.000000 0.000000 2.222760 
# 
# From -- ./inp_files/10330.got.cif
#   From: 2010.05.17/outbox.cif.g08.bks.cpg/sg70_6_cif.got.tgz:10330.got - 2010.06.03 15:57:51.
