data_PCOD9516503
_publ_section_title
;
Structure prediction by ZEFSAII (Michael W. Deem and Ramdas Pophale) SiO2 
 PCOD9516503
Probable space group: F D D D
;
_chemical_formula_sum "Si O2"
_cell_formula_units_Z 160
_cell_length_a 26.225477
_cell_length_b 13.512833
_cell_length_c 23.543340
_cell_angle_alpha 90.000000
_cell_angle_beta 90.000000
_cell_angle_gamma 90.000000
_cell_volume 8343.300390
_symmetry_space_group_name_H-M "F D D D"
_symmetry_group_IT_number 70
_space_group.IT_coordinate_system_code '2'
_symmetry_cell_setting 'orthorhombic'
loop_
_space_group_symop_operation_xyz
x,y,z
1/4-x,1/4-y,z
x,1/4-y,1/4-z
1/4-x,y,1/4-z
-x,-y,-z
3/4+x,3/4+y,-z
-x,3/4+y,3/4+z
3/4+x,-y,3/4+z
x,1/2+y,1/2+z
1/4-x,3/4-y,1/2+z
x,3/4-y,3/4-z
1/4-x,1/2+y,3/4-z
-x,1/2-y,1/2-z
3/4+x,1/4+y,1/2-z
-x,1/4+y,1/4+z
3/4+x,1/2-y,1/4+z
1/2+x,y,1/2+z
3/4-x,1/4-y,1/2+z
1/2+x,1/4-y,3/4-z
3/4-x,y,3/4-z
1/2-x,-y,1/2-z
1/4+x,3/4+y,1/2-z
1/2-x,3/4+y,1/4+z
1/4+x,-y,1/4+z
1/2+x,1/2+y,z
3/4-x,3/4-y,z
1/2+x,3/4-y,1/4-z
3/4-x,1/2+y,1/4-z
1/2-x,1/2-y,-z
1/4+x,1/4+y,-z
1/2-x,1/4+y,3/4+z
1/4+x,1/2-y,3/4+z
loop_
_atom_site_type_symbol
_atom_site_label
_atom_site_fract_x
_atom_site_fract_y
_atom_site_fract_z
Si Si1 0.944724 0.547716 0.005988
Si Si2 0.764635 0.375000 0.375000
Si Si3 0.908929 0.125000 0.625000
Si Si4 0.429364 0.782128 0.140497
Si Si5 0.125000 0.625000 0.962052
Si Si6 0.158574 0.773273 0.681201
Si Si7 0.125000 0.625000 0.768414
O O1 0.939704 0.593489 0.069384
O O2 0.900342 0.464210 0.003576
O O3 0.934348 0.630747 0.958453
O O4 0.000000 0.500000 0.000000
O O5 0.727341 0.460999 0.351993
O O6 0.800893 0.313279 0.333307
O O7 0.870487 0.212221 0.606687
O O8 0.420235 0.834023 0.079509
O O9 0.423310 0.862614 0.189769
O O10 0.125000 0.792926 0.625000
O O11 0.124809 0.721608 0.729499
#
# Coordination Sequence:
#
# PCOD9516503 Si02
#       7
#    32  16  16  32  16  32  16
#     4  11  23  43  65  93 127 171 219 269 315 395
#     4  11  21  38  59  96 126 167 220 259 309 396
#     4   9  18  38  63  87 121 159 212 264 319 358
#     4   9  19  35  66  91 116 160 216 263 313 372
#     4   9  20  42  64  90 126 160 209 278 318 366
#     4  12  24  43  60  89 140 168 201 265 334 382
#     4  11  19  40  61  88 125 170 196 258 332 378
#
# _framework density 19.177063
#
# number of rings (size 3 to 8) (size 9 to 14) (size 15 to 20)
#    0.000    1.600    4.000    1.200    0.000    0.800 
#    3.600    0.000    0.000    0.000    0.000    0.000 
#    0.000    0.000    0.000    0.000    0.000    0.000 
#
# Total GULP energy -223002.530371 kJ/mol
# GULP energy per Si atom -5575.063259 kJ/mol
# Density = 1.913342 g / cm^3
# Si number density = 19.177063 Si / 1000 Ang^3
#
#
#
# Elastic Constant Matrix: (Units=GPa)
#
#
# Indices 1 2 3 4 5 6 
#
# 1 70.6351 30.6499 35.1368 0.0000 0.0000 0.0000
# 2 30.6499 108.0292 36.0817 0.0000 0.0000 0.0000
# 3 35.1368 36.0817 80.0479 0.0000 0.0000 0.0000
# 4 0.0000 0.0000 0.0000 47.3266 0.0000 0.0000
# 5 0.0000 0.0000 0.0000 0.0000 8.7527 0.0000
# 6 0.0000 0.0000 0.0000 0.0000 0.0000 49.8302
#
#
#
# Elastic Compliance Matrix: (Units=1/GPa)
#
#
# Indices 1 2 3 4 5 6 
#
# 1 0.018932 -0.003056 -0.006933 0.000000 0.000000 0.000000
# 2 -0.003056 0.011391 -0.003793 0.000000 0.000000 0.000000
# 3 -0.006933 -0.003793 0.017245 0.000000 0.000000 0.000000
# 4 0.000000 0.000000 0.000000 0.021130 0.000000 0.000000
# 5 0.000000 0.000000 0.000000 0.000000 0.114251 0.000000
# 6 0.000000 0.000000 0.000000 0.000000 0.000000 0.020068
#
#
# Mechanical properties :
#
#
# Convention : Reuss Voigt Hill
#
# Bulk Modulus (GPa) = 49.98801 51.38323 50.68562
# Shear Modulus (GPa) = 21.07504 31.63814 26.35659
#
# Velocity S-wave (km/s) = 3.31867 4.06617 3.71129
# Velocity P-wave (km/s) = 6.38811 6.99266 6.69721
#
# Compressibility (1/GPa) = 0.02000480
#
# Stress axis : x y z
#
# Youngs Moduli (GPa) = 52.82102 87.79167 57.98679
#
# Poissons Ratio (x) = 0.26827 0.40200
# Poissons Ratio (y) = 0.16141 0.21994
# Poissons Ratio (z) = 0.36619 0.33299
#
# Static dielectric constant tensor:
#      x y z
#    x 1.669430 0.000000 0.000000 
#    y 0.000000 1.734340 0.000000 
#    z 0.000000 0.000000 1.714300 
# 
# From -- ./inp_files/28720.got.cif
#   From: 2010.05.17/outbox.cif.g08.bks.cpg/sg70_15_cif.got.tgz:28720.got - 2010.06.03 15:57:51.
