data_PCOD9516461
_publ_section_title
;
Structure prediction by ZEFSAII (Michael W. Deem and Ramdas Pophale) SiO2 
 PCOD9516461
Probable space group: F D D D
;
_chemical_formula_sum "Si O2"
_cell_formula_units_Z 56
_cell_length_a 12.889875
_cell_length_b 9.058991
_cell_length_c 16.995248
_cell_angle_alpha 90.000000
_cell_angle_beta 90.000000
_cell_angle_gamma 90.000000
_cell_volume 1984.522560
_symmetry_space_group_name_H-M "F D D D"
_symmetry_group_IT_number 70
_space_group.IT_coordinate_system_code '2'
_symmetry_cell_setting 'orthorhombic'
loop_
_space_group_symop_operation_xyz
x,y,z
1/4-x,1/4-y,z
x,1/4-y,1/4-z
1/4-x,y,1/4-z
-x,-y,-z
3/4+x,3/4+y,-z
-x,3/4+y,3/4+z
3/4+x,-y,3/4+z
x,1/2+y,1/2+z
1/4-x,3/4-y,1/2+z
x,3/4-y,3/4-z
1/4-x,1/2+y,3/4-z
-x,1/2-y,1/2-z
3/4+x,1/4+y,1/2-z
-x,1/4+y,1/4+z
3/4+x,1/2-y,1/4+z
1/2+x,y,1/2+z
3/4-x,1/4-y,1/2+z
1/2+x,1/4-y,3/4-z
3/4-x,y,3/4-z
1/2-x,-y,1/2-z
1/4+x,3/4+y,1/2-z
1/2-x,3/4+y,1/4+z
1/4+x,-y,1/4+z
1/2+x,1/2+y,z
3/4-x,3/4-y,z
1/2+x,3/4-y,1/4-z
3/4-x,1/2+y,1/4-z
1/2-x,1/2-y,-z
1/4+x,1/4+y,-z
1/2-x,1/4+y,3/4+z
1/4+x,1/2-y,3/4+z
loop_
_atom_site_type_symbol
_atom_site_label
_atom_site_fract_x
_atom_site_fract_y
_atom_site_fract_z
Si Si1 0.237871 0.649493 0.330642
Si Si2 0.625000 0.625000 0.625000
Si Si3 0.875000 0.875000 0.017541
O O1 0.125000 0.625000 0.293012
O O2 0.293570 0.493812 0.339904
O O3 0.311401 0.758902 0.283781
O O4 0.205017 0.699920 0.419362
#
# Coordination Sequence:
#
# PCOD9516461 Si02
#       3
#    32   8  16
#     4  10  28  56  87 132 176 237 292 385 436 556
#     4  12  28  52  84 136 180 226 300 370 472 510
#     4  10  26  60  90 123 188 225 310 360 470 518
#
# _framework density 28.218374000000001
#
# number of rings (size 3 to 8) (size 9 to 14) (size 15 to 20)
#    1.714    0.000    0.000    0.000    4.000   10.286 
#   10.286    0.000    0.000    0.000    0.000    0.000 
#    0.000    0.000    0.000    0.000    0.000    0.000 
#
# Total GULP energy -78534.873165 kJ/mol
# GULP energy per Si atom -5609.633797 kJ/mol
# Density = 2.815415 g / cm^3
# Si number density = 28.218374 Si / 1000 Ang^3
#
#
#
# Elastic Constant Matrix: (Units=GPa)
#
#
# Indices 1 2 3 4 5 6 
#
# 1 311.9904 154.7690 125.1548 0.0000 0.0000 0.0000
# 2 154.7690 230.6849 132.6484 0.0000 0.0000 0.0000
# 3 125.1548 132.6484 208.7655 0.0000 0.0000 0.0000
# 4 0.0000 0.0000 0.0000 81.3167 0.0000 0.0000
# 5 0.0000 0.0000 0.0000 0.0000 87.7418 0.0000
# 6 0.0000 0.0000 0.0000 0.0000 0.0000 72.0784
#
#
#
# Elastic Compliance Matrix: (Units=1/GPa)
#
#
# Indices 1 2 3 4 5 6 
#
# 1 0.005043 -0.002592 -0.001376 0.000000 0.000000 0.000000
# 2 -0.002592 0.008163 -0.003633 0.000000 0.000000 0.000000
# 3 -0.001376 -0.003633 0.007923 0.000000 0.000000 0.000000
# 4 0.000000 0.000000 0.000000 0.012298 0.000000 0.000000
# 5 0.000000 0.000000 0.000000 0.000000 0.011397 0.000000
# 6 0.000000 0.000000 0.000000 0.000000 0.000000 0.013874
#
#
# Mechanical properties :
#
#
# Convention : Reuss Voigt Hill
#
# Bulk Modulus (GPa) = 168.71581 175.17613 171.94597
# Shear Modulus (GPa) = 65.89704 70.81863 68.35783
#
# Velocity S-wave (km/s) = 4.83769 5.01509 4.92719
# Velocity P-wave (km/s) = 9.54586 9.78511 9.66622
#
# Compressibility (1/GPa) = 0.00592713
#
# Stress axis : x y z
#
# Youngs Moduli (GPa) = 198.28535 122.50651 126.20859
#
# Poissons Ratio (x) = 0.31755 0.17372
# Poissons Ratio (y) = 0.51397 0.45847
# Poissons Ratio (z) = 0.27292 0.44502
#
# Static dielectric constant tensor:
#      x y z
#    x 2.167800 0.000000 0.000000 
#    y 0.000000 2.053090 0.000000 
#    z 0.000000 0.000000 2.501330 
# 
# From -- ./inp_files/5465.got.cif
#   From: 2010.05.17/outbox.cif.g08.bks.cpg/sg70_3_cif.got.tgz:5465.got - 2010.06.03 15:57:51.
