data_PCOD9516597
_publ_section_title
;
Structure prediction by ZEFSAII (Michael W. Deem and Ramdas Pophale) SiO2 
 PCOD9516597
Probable space group: F D D D
;
_chemical_formula_sum "Si O2"
_cell_formula_units_Z 120
_cell_length_a 25.532902
_cell_length_b 7.005493
_cell_length_c 26.752304
_cell_angle_alpha 90.000000
_cell_angle_beta 90.000000
_cell_angle_gamma 90.000000
_cell_volume 4785.199764
_symmetry_space_group_name_H-M "F D D D"
_symmetry_group_IT_number 70
_space_group.IT_coordinate_system_code '2'
_symmetry_cell_setting 'orthorhombic'
loop_
_space_group_symop_operation_xyz
x,y,z
1/4-x,1/4-y,z
x,1/4-y,1/4-z
1/4-x,y,1/4-z
-x,-y,-z
3/4+x,3/4+y,-z
-x,3/4+y,3/4+z
3/4+x,-y,3/4+z
x,1/2+y,1/2+z
1/4-x,3/4-y,1/2+z
x,3/4-y,3/4-z
1/4-x,1/2+y,3/4-z
-x,1/2-y,1/2-z
3/4+x,1/4+y,1/2-z
-x,1/4+y,1/4+z
3/4+x,1/2-y,1/4+z
1/2+x,y,1/2+z
3/4-x,1/4-y,1/2+z
1/2+x,1/4-y,3/4-z
3/4-x,y,3/4-z
1/2-x,-y,1/2-z
1/4+x,3/4+y,1/2-z
1/2-x,3/4+y,1/4+z
1/4+x,-y,1/4+z
1/2+x,1/2+y,z
3/4-x,3/4-y,z
1/2+x,3/4-y,1/4-z
3/4-x,1/2+y,1/4-z
1/2-x,1/2-y,-z
1/4+x,1/4+y,-z
1/2-x,1/4+y,3/4+z
1/4+x,1/2-y,3/4+z
loop_
_atom_site_type_symbol
_atom_site_label
_atom_site_fract_x
_atom_site_fract_y
_atom_site_fract_z
Si Si1 0.469722 0.881009 0.170769
Si Si2 0.927248 0.069269 0.284079
Si Si3 0.686374 0.078986 0.314686
Si Si4 0.375000 0.375000 0.733871
Si Si5 0.375000 0.875000 0.875000
O O1 0.520808 0.816573 0.200460
O O2 0.468872 0.841512 0.111992
O O3 0.419706 0.793854 0.197854
O O4 0.454309 0.105814 0.182506
O O5 0.875742 0.192822 0.270151
O O6 0.942137 0.920130 0.240269
O O7 0.913387 0.977430 0.336717
O O8 0.625000 0.125000 0.327226
#
# Coordination Sequence:
#
# PCOD9516597 Si02
#       5
#    32  32  32  16   8
#     4  11  24  41  72 106 139 190 241 292 363 433
#     4  12  26  45  70 103 143 190 240 298 373 437
#     4  11  21  44  73 100 140 190 241 300 354 432
#     4  12  24  44  66 102 146 184 236 306 356 432
#     4  12  24  48  68  96 136 184 232 308 360 430
#
# _framework density 25.077323
#
# number of rings (size 3 to 8) (size 9 to 14) (size 15 to 20)
#    0.000    0.533    5.333    3.200    0.000    3.733 
#    0.000    2.667    0.000    0.000    0.000    0.000 
#    0.000    0.000    0.000    0.000    0.000    0.000 
#
# Total GULP energy -167259.375517 kJ/mol
# GULP energy per Si atom -5575.312517 kJ/mol
# Density = 2.502025 g / cm^3
# Si number density = 25.077323 Si / 1000 Ang^3
#
#
#
# Elastic Constant Matrix: (Units=GPa)
#
#
# Indices 1 2 3 4 5 6 
#
# 1 78.7510 -24.1992 16.3722 0.0004 -0.0006 -0.0011
# 2 -24.1992 80.4432 38.5778 0.0003 -0.0007 -0.0021
# 3 16.3722 38.5778 209.8659 0.0000 -0.0002 0.0000
# 4 0.0004 0.0003 0.0000 -12.0240 -0.0021 -0.0007
# 5 -0.0006 -0.0007 -0.0002 -0.0021 95.1912 0.0012
# 6 -0.0011 -0.0021 0.0000 -0.0007 0.0012 24.4825
#
#
#
# Elastic Compliance Matrix: (Units=1/GPa)
#
#
# Indices 1 2 3 4 5 6 
#
# 1 0.014841 0.005505 -0.002170 0.000001 0.000000 0.000001
# 2 0.005505 0.015675 -0.003311 0.000000 0.000000 0.000002
# 3 -0.002170 -0.003311 0.005543 0.000000 0.000000 0.000000
# 4 0.000001 0.000000 0.000000 -0.083167 -0.000002 -0.000002
# 5 0.000000 0.000000 0.000000 -0.000002 0.010505 -0.000001
# 6 0.000001 0.000002 0.000000 -0.000002 -0.000001 0.040845
#
#
# Mechanical properties :
#
#
# Convention : Reuss Voigt Hill
#
# Bulk Modulus (GPa) = 27.69498 47.84021 37.76759
# Shear Modulus (GPa) = 308.08383 44.08390 176.08387
#
# Velocity S-wave (km/s) = 11.09596 4.19730 8.38861
# Velocity P-wave (km/s) = 13.23738 6.52750 10.43639
#
# Compressibility (1/GPa) = 0.03610763
#
# Stress axis : x y z
#
# Youngs Moduli (GPa) = 67.38111 63.79606 180.41367
#
# Poissons Ratio (x) = -0.35120 0.39145
# Poissons Ratio (y) = -0.37093 0.59732
# Poissons Ratio (z) = 0.14620 0.21122
#
# Static dielectric constant tensor:
#      x y z
#    x -0.152130 0.000020 0.000000 
#    y 0.000020 2.423690 0.000000 
#    z 0.000000 0.000000 2.050150 
# 
# From -- ./inp_files/49117.got.cif
#   From: 2010.05.17/outbox.cif.g08.bks.cpg/sg70_25_cif.got.tgz:49117.got - 2010.06.03 15:57:51.
