data_PCOD9516989
_publ_section_title
;
Structure prediction by ZEFSAII (Michael W. Deem and Ramdas Pophale) SiO2 
 PCOD9516989
Probable space group: F D D D
;
_chemical_formula_sum "Si O2"
_cell_formula_units_Z 136
_cell_length_a 20.340538
_cell_length_b 19.078769
_cell_length_c 20.340560
_cell_angle_alpha 90.000000
_cell_angle_beta 90.000000
_cell_angle_gamma 90.000000
_cell_volume 7893.610462
_symmetry_space_group_name_H-M "F D D D"
_symmetry_group_IT_number 70
_space_group.IT_coordinate_system_code '2'
_symmetry_cell_setting 'orthorhombic'
loop_
_space_group_symop_operation_xyz
x,y,z
1/4-x,1/4-y,z
x,1/4-y,1/4-z
1/4-x,y,1/4-z
-x,-y,-z
3/4+x,3/4+y,-z
-x,3/4+y,3/4+z
3/4+x,-y,3/4+z
x,1/2+y,1/2+z
1/4-x,3/4-y,1/2+z
x,3/4-y,3/4-z
1/4-x,1/2+y,3/4-z
-x,1/2-y,1/2-z
3/4+x,1/4+y,1/2-z
-x,1/4+y,1/4+z
3/4+x,1/2-y,1/4+z
1/2+x,y,1/2+z
3/4-x,1/4-y,1/2+z
1/2+x,1/4-y,3/4-z
3/4-x,y,3/4-z
1/2-x,-y,1/2-z
1/4+x,3/4+y,1/2-z
1/2-x,3/4+y,1/4+z
1/4+x,-y,1/4+z
1/2+x,1/2+y,z
3/4-x,3/4-y,z
1/2+x,3/4-y,1/4-z
3/4-x,1/2+y,1/4-z
1/2-x,1/2-y,-z
1/4+x,1/4+y,-z
1/2-x,1/4+y,3/4+z
1/4+x,1/2-y,3/4+z
loop_
_atom_site_type_symbol
_atom_site_label
_atom_site_fract_x
_atom_site_fract_y
_atom_site_fract_z
Si Si1 0.722389 0.118808 0.027612
Si Si2 0.375000 0.875000 0.875000
Si Si3 0.885540 0.673288 0.183032
Si Si4 0.933032 0.423289 0.114459
Si Si5 0.181836 0.288587 0.681836
O O1 0.674714 0.163773 0.075286
O O2 0.795970 0.137177 0.045669
O O3 0.702567 0.040540 0.047432
O O4 0.704332 0.137178 0.954030
O O5 0.856410 0.625000 0.125000
O O6 0.904340 0.750000 0.154341
O O7 0.843888 0.679217 0.249615
O O8 0.875000 0.375000 0.143589
O O9 0.999614 0.429219 0.156112
O O10 0.125000 0.295382 0.625000
#
# Coordination Sequence:
#
# PCOD9516989 Si02
#       5
#    32   8  32  32  32
#     4  12  21  33  61  94 132 165 199 258 325 387
#     4  12  16  28  52  96 124 156 192 228 314 388
#     4  12  24  40  62  94 134 173 211 261 330 385
#     4  12  24  40  62  94 134 173 211 261 330 385
#     4  12  24  39  65 100 134 168 219 266 324 394
#
# _framework density 17.229123999999999
#
# number of rings (size 3 to 8) (size 9 to 14) (size 15 to 20)
#    0.000    0.000   10.588    0.706    0.000    0.000 
#    0.000    1.176    0.000    0.706    0.000    0.000 
#    0.000    0.000    0.000    0.000    0.000    0.000 
#
# Total GULP energy -189695.026504 kJ/mol
# GULP energy per Si atom -5579.265485 kJ/mol
# Density = 1.718991 g / cm^3
# Si number density = 17.229124 Si / 1000 Ang^3
#
#
#
# Elastic Constant Matrix: (Units=GPa)
#
#
# Indices 1 2 3 4 5 6 
#
# 1 133.0813 60.6907 87.9556 0.0000 0.0000 0.0000
# 2 60.6907 83.8234 60.6944 0.0000 0.0000 0.0000
# 3 87.9556 60.6944 133.0878 0.0000 0.0000 0.0000
# 4 0.0000 0.0000 0.0000 32.9558 0.0000 0.0000
# 5 0.0000 0.0000 0.0000 0.0000 48.8242 0.0000
# 6 0.0000 0.0000 0.0000 0.0000 0.0000 32.9555
#
#
#
# Elastic Compliance Matrix: (Units=1/GPa)
#
#
# Indices 1 2 3 4 5 6 
#
# 1 0.014835 -0.005437 -0.007324 0.000000 0.000000 0.000000
# 2 -0.005437 0.019804 -0.005438 0.000000 0.000000 0.000000
# 3 -0.007324 -0.005438 0.014834 0.000000 0.000000 0.000000
# 4 0.000000 0.000000 0.000000 0.030344 0.000000 0.000000
# 5 0.000000 0.000000 0.000000 0.000000 0.020482 0.000000
# 6 0.000000 0.000000 0.000000 0.000000 0.000000 0.030344
#
#
# Mechanical properties :
#
#
# Convention : Reuss Voigt Hill
#
# Bulk Modulus (GPa) = 76.48996 85.40821 80.94908
# Shear Modulus (GPa) = 29.17148 32.32389 30.74769
#
# Velocity S-wave (km/s) = 4.11925 4.33612 4.22908
# Velocity P-wave (km/s) = 8.19246 8.64574 8.42215
#
# Compressibility (1/GPa) = 0.01307361
#
# Stress axis : x y z
#
# Youngs Moduli (GPa) = 67.40992 50.49386 67.41086
#
# Poissons Ratio (x) = 0.27456 0.49373
# Poissons Ratio (y) = 0.36654 0.36660
# Poissons Ratio (z) = 0.49373 0.27460
#
# Static dielectric constant tensor:
#      x y z
#    x 1.614130 0.000000 0.000000 
#    y 0.000000 1.678230 0.000000 
#    z 0.000000 0.000000 1.614130 
# 
# From -- ./inp_files/34704.got.cif
#   From: 2010.05.17/outbox.cif.g08.bks.cpg/sg70_18_cif.got.tgz:34704.got - 2010.06.03 15:57:51.
