data_PCOD9516708
_publ_section_title
;
Structure prediction by ZEFSAII (Michael W. Deem and Ramdas Pophale) SiO2 
 PCOD9516708
Probable space group: F D D D
;
_chemical_formula_sum "Si O2"
_cell_formula_units_Z 208
_cell_length_a 17.193061
_cell_length_b 25.306742
_cell_length_c 20.939123
_cell_angle_alpha 90.000000
_cell_angle_beta 90.000000
_cell_angle_gamma 90.000000
_cell_volume 9110.619933
_symmetry_space_group_name_H-M "F D D D"
_symmetry_group_IT_number 70
_space_group.IT_coordinate_system_code '2'
_symmetry_cell_setting 'orthorhombic'
loop_
_space_group_symop_operation_xyz
x,y,z
1/4-x,1/4-y,z
x,1/4-y,1/4-z
1/4-x,y,1/4-z
-x,-y,-z
3/4+x,3/4+y,-z
-x,3/4+y,3/4+z
3/4+x,-y,3/4+z
x,1/2+y,1/2+z
1/4-x,3/4-y,1/2+z
x,3/4-y,3/4-z
1/4-x,1/2+y,3/4-z
-x,1/2-y,1/2-z
3/4+x,1/4+y,1/2-z
-x,1/4+y,1/4+z
3/4+x,1/2-y,1/4+z
1/2+x,y,1/2+z
3/4-x,1/4-y,1/2+z
1/2+x,1/4-y,3/4-z
3/4-x,y,3/4-z
1/2-x,-y,1/2-z
1/4+x,3/4+y,1/2-z
1/2-x,3/4+y,1/4+z
1/4+x,-y,1/4+z
1/2+x,1/2+y,z
3/4-x,3/4-y,z
1/2+x,3/4-y,1/4-z
3/4-x,1/2+y,1/4-z
1/2-x,1/2-y,-z
1/4+x,1/4+y,-z
1/2-x,1/4+y,3/4+z
1/4+x,1/2-y,3/4+z
loop_
_atom_site_type_symbol
_atom_site_label
_atom_site_fract_x
_atom_site_fract_y
_atom_site_fract_z
Si Si1 0.954045 0.644285 0.556691
Si Si2 0.125000 0.625000 0.425444
Si Si3 0.212154 0.861272 0.642034
Si Si4 0.726461 0.861859 0.460240
Si Si5 0.691686 0.224114 0.766429
Si Si6 0.463617 0.963345 0.868286
Si Si7 0.055880 0.792442 0.719075
O O1 0.986341 0.625000 0.625000
O O2 0.861437 0.648950 0.563385
O O3 0.960632 0.597827 0.504548
O O4 0.995414 0.696542 0.529943
O O5 0.204353 0.620961 0.385608
O O6 0.130752 0.572414 0.467656
O O7 0.125000 0.883908 0.625000
O O8 0.221841 0.872990 0.716256
O O9 0.206569 0.804403 0.605483
O O10 0.770370 0.910550 0.424958
O O11 0.766479 0.807373 0.439196
O O12 0.733490 0.244492 0.831086
O O13 0.642138 0.271568 0.735927
O O14 0.375000 0.980585 0.875000
O O15 0.000000 0.750000 0.750000
#
# Coordination Sequence:
#
# PCOD9516708 Si02
#       7
#    32  16  32  32  32  32  32
#     4  12  24  47  76 107 155 205 252 327 393 464
#     4  12  26  46  77 107 160 204 258 318 388 482
#     4  12  24  44  76 107 150 204 252 319 398 456
#     4  11  22  48  76 107 150 202 254 327 394 461
#     4  12  24  49  76 114 155 204 265 320 400 479
#     4  11  25  47  76 109 152 196 266 330 390 480
#     4  12  24  47  74 106 155 201 258 322 389 473
#
# _framework density 22.830499
#
# number of rings (size 3 to 8) (size 9 to 14) (size 15 to 20)
#    0.000    0.308    7.692    0.923    2.154    4.308 
#    5.538    4.231    0.000    0.000    0.000    0.000 
#    0.000    0.000    0.000    0.000    0.000    0.000 
#
# Total GULP energy -290087.016344 kJ/mol
# GULP energy per Si atom -5578.596468 kJ/mol
# Density = 2.277854 g / cm^3
# Si number density = 22.830499 Si / 1000 Ang^3
#
#
#
# Elastic Constant Matrix: (Units=GPa)
#
#
# Indices 1 2 3 4 5 6 
#
# 1 114.4259 37.1333 27.6174 0.0000 0.0000 0.0000
# 2 37.1333 96.3465 47.0924 0.0000 0.0000 0.0000
# 3 27.6174 47.0924 143.3629 0.0000 0.0000 0.0000
# 4 0.0000 0.0000 0.0000 38.0107 0.0000 0.0000
# 5 0.0000 0.0000 0.0000 0.0000 37.9257 0.0000
# 6 0.0000 0.0000 0.0000 0.0000 0.0000 27.5130
#
#
#
# Elastic Compliance Matrix: (Units=1/GPa)
#
#
# Indices 1 2 3 4 5 6 
#
# 1 0.010063 -0.003492 -0.000792 0.000000 0.000000 0.000000
# 2 -0.003492 0.013576 -0.003787 0.000000 0.000000 0.000000
# 3 -0.000792 -0.003787 0.008372 0.000000 0.000000 0.000000
# 4 0.000000 0.000000 0.000000 0.026308 0.000000 0.000000
# 5 0.000000 0.000000 0.000000 0.000000 0.026367 0.000000
# 6 0.000000 0.000000 0.000000 0.000000 0.000000 0.036346
#
#
# Mechanical properties :
#
#
# Convention : Reuss Voigt Hill
#
# Bulk Modulus (GPa) = 63.00893 64.20238 63.60566
# Shear Modulus (GPa) = 35.09664 36.84269 35.96966
#
# Velocity S-wave (km/s) = 3.92506 4.02151 3.97357
# Velocity P-wave (km/s) = 6.94262 7.05307 6.99806
#
# Compressibility (1/GPa) = 0.01587077
#
# Stress axis : x y z
#
# Youngs Moduli (GPa) = 99.36936 73.66015 119.44979
#
# Poissons Ratio (x) = 0.25720 0.09456
# Poissons Ratio (y) = 0.34696 0.45233
# Poissons Ratio (z) = 0.07867 0.27894
#
# Static dielectric constant tensor:
#      x y z
#    x 1.922690 0.000000 0.000000 
#    y 0.000000 1.863520 0.000000 
#    z 0.000000 0.000000 1.905240 
# 
# From -- ./inp_files/44096.got.cif
#   From: 2010.05.17/outbox.cif.g08.bks.cpg/sg70_23_cif.got.tgz:44096.got - 2010.06.03 15:57:51.
