data_PCOD9516197
_publ_section_title
;
Structure prediction by ZEFSAII (Michael W. Deem and Ramdas Pophale) SiO2 
 PCOD9516197
Probable space group: F D D D
;
_chemical_formula_sum "Si O2"
_cell_formula_units_Z 176
_cell_length_a 10.659563
_cell_length_b 25.203238
_cell_length_c 27.970544
_cell_angle_alpha 90.000000
_cell_angle_beta 90.000000
_cell_angle_gamma 90.000000
_cell_volume 7514.440575
_symmetry_space_group_name_H-M "F D D D"
_symmetry_group_IT_number 70
_space_group.IT_coordinate_system_code '2'
_symmetry_cell_setting 'orthorhombic'
loop_
_space_group_symop_operation_xyz
x,y,z
1/4-x,1/4-y,z
x,1/4-y,1/4-z
1/4-x,y,1/4-z
-x,-y,-z
3/4+x,3/4+y,-z
-x,3/4+y,3/4+z
3/4+x,-y,3/4+z
x,1/2+y,1/2+z
1/4-x,3/4-y,1/2+z
x,3/4-y,3/4-z
1/4-x,1/2+y,3/4-z
-x,1/2-y,1/2-z
3/4+x,1/4+y,1/2-z
-x,1/4+y,1/4+z
3/4+x,1/2-y,1/4+z
1/2+x,y,1/2+z
3/4-x,1/4-y,1/2+z
1/2+x,1/4-y,3/4-z
3/4-x,y,3/4-z
1/2-x,-y,1/2-z
1/4+x,3/4+y,1/2-z
1/2-x,3/4+y,1/4+z
1/4+x,-y,1/4+z
1/2+x,1/2+y,z
3/4-x,3/4-y,z
1/2+x,3/4-y,1/4-z
3/4-x,1/2+y,1/4-z
1/2-x,1/2-y,-z
1/4+x,1/4+y,-z
1/2-x,1/4+y,3/4+z
1/4+x,1/2-y,3/4+z
loop_
_atom_site_type_symbol
_atom_site_label
_atom_site_fract_x
_atom_site_fract_y
_atom_site_fract_z
Si Si1 0.734918 0.443289 0.300416
Si Si2 0.834987 0.625000 0.625000
Si Si3 0.023028 0.671301 0.936913
Si Si4 0.125000 0.708780 0.125000
Si Si5 0.625000 0.258455 0.625000
Si Si6 0.755205 0.621169 0.962260
Si Si7 0.983266 0.999857 0.276265
O O1 0.669458 0.399855 0.334214
O O2 0.841342 0.472729 0.329688
O O3 0.775440 0.411503 0.254676
O O4 0.628090 0.484937 0.285794
O O5 0.741324 0.671699 0.609396
O O6 0.125000 0.625000 0.933729
O O7 0.997744 0.708730 0.891141
O O8 0.885486 0.643771 0.941661
O O9 0.052569 0.709508 0.982951
O O10 0.085250 0.738813 0.076992
O O11 0.625000 0.625000 0.932105
O O12 0.783219 0.562171 0.981363
#
# Coordination Sequence:
#
# PCOD9516197 Si02
#       7
#    32  16  32  16  16  32  32
#     4  10  24  40  67 101 137 181 237 297 349 426
#     4   9  20  35  62 100 134 177 227 296 350 422
#     4  11  28  47  71 104 144 187 240 299 353 429
#     4   9  20  39  68  97 139 182 235 292 361 428
#     4  12  26  46  68 103 143 186 248 294 358 426
#     4  11  24  44  72  99 141 189 236 291 363 425
#     4  10  23  45  70 101 141 187 236 290 366 425
#
# _framework density 23.421569999999999
#
# number of rings (size 3 to 8) (size 9 to 14) (size 15 to 20)
#    0.000    1.636    0.000    2.182   12.727    9.455 
#    0.000    0.000    0.000    0.000    0.000    0.000 
#    0.000    0.000    0.000    0.000    0.000    0.000 
#
# Total GULP energy -246074.526872 kJ/mol
# GULP energy per Si atom -5592.602883 kJ/mol
# Density = 2.336826 g / cm^3
# Si number density = 23.421570 Si / 1000 Ang^3
#
#
#
# Elastic Constant Matrix: (Units=GPa)
#
#
# Indices 1 2 3 4 5 6 
#
# 1 84.0505 23.6123 30.1552 0.0000 0.0000 0.0000
# 2 23.6123 127.8805 66.0149 0.0000 0.0000 0.0000
# 3 30.1552 66.0149 93.1696 0.0000 0.0000 0.0000
# 4 0.0000 0.0000 0.0000 -12.4414 0.0000 0.0000
# 5 0.0000 0.0000 0.0000 0.0000 31.6831 0.0000
# 6 0.0000 0.0000 0.0000 0.0000 0.0000 -139.6892
#
#
#
# Elastic Compliance Matrix: (Units=1/GPa)
#
#
# Indices 1 2 3 4 5 6 
#
# 1 0.013472 -0.000373 -0.004096 0.000000 0.000000 0.000000
# 2 -0.000373 0.012340 -0.008623 0.000000 0.000000 0.000000
# 3 -0.004096 -0.008623 0.018168 0.000000 0.000000 0.000000
# 4 0.000000 0.000000 0.000000 -0.080377 0.000000 0.000000
# 5 0.000000 0.000000 0.000000 0.000000 0.031563 0.000000
# 6 0.000000 0.000000 0.000000 0.000000 0.000000 -0.007159
#
#
# Mechanical properties :
#
#
# Convention : Reuss Voigt Hill
#
# Bulk Modulus (GPa) = 56.18979 60.51835 58.35407
# Shear Modulus (GPa) = 248.47775 -11.73493 118.37141
#
# Velocity S-wave (km/s) = 10.31114 -2.24080 7.11683
# Velocity P-wave (km/s) = 12.87642 4.38177 9.61775
#
# Compressibility (1/GPa) = 0.01779683
#
# Stress axis : x y z
#
# Youngs Moduli (GPa) = 74.22835 81.03806 55.04081
#
# Poissons Ratio (x) = 0.03023 0.22545
# Poissons Ratio (y) = 0.02769 0.47460
# Poissons Ratio (z) = 0.30404 0.69876
#
# Static dielectric constant tensor:
#      x y z
#    x 1.933920 0.000000 0.000000 
#    y 0.000000 1.917640 0.000000 
#    z 0.000000 0.000000 2.010660 
# 
# From -- ./inp_files/64778.got.cif
#   From: 2010.05.17/outbox.cif.g08.bks.cpg/sg70_33_cif.got.tgz:64778.got - 2010.06.03 15:57:51.
