data_PCOD9516910
_publ_section_title
;
Structure prediction by ZEFSAII (Michael W. Deem and Ramdas Pophale) SiO2 
 PCOD9516910
Probable space group: F D D D
;
_chemical_formula_sum "Si O2"
_cell_formula_units_Z 208
_cell_length_a 26.202704
_cell_length_b 20.806218
_cell_length_c 15.962018
_cell_angle_alpha 90.000000
_cell_angle_beta 90.000000
_cell_angle_gamma 90.000000
_cell_volume 8702.159751
_symmetry_space_group_name_H-M "F D D D"
_symmetry_group_IT_number 70
_space_group.IT_coordinate_system_code '2'
_symmetry_cell_setting 'orthorhombic'
loop_
_space_group_symop_operation_xyz
x,y,z
1/4-x,1/4-y,z
x,1/4-y,1/4-z
1/4-x,y,1/4-z
-x,-y,-z
3/4+x,3/4+y,-z
-x,3/4+y,3/4+z
3/4+x,-y,3/4+z
x,1/2+y,1/2+z
1/4-x,3/4-y,1/2+z
x,3/4-y,3/4-z
1/4-x,1/2+y,3/4-z
-x,1/2-y,1/2-z
3/4+x,1/4+y,1/2-z
-x,1/4+y,1/4+z
3/4+x,1/2-y,1/4+z
1/2+x,y,1/2+z
3/4-x,1/4-y,1/2+z
1/2+x,1/4-y,3/4-z
3/4-x,y,3/4-z
1/2-x,-y,1/2-z
1/4+x,3/4+y,1/2-z
1/2-x,3/4+y,1/4+z
1/4+x,-y,1/4+z
1/2+x,1/2+y,z
3/4-x,3/4-y,z
1/2+x,3/4-y,1/4-z
3/4-x,1/2+y,1/4-z
1/2-x,1/2-y,-z
1/4+x,1/4+y,-z
1/2-x,1/4+y,3/4+z
1/4+x,1/2-y,3/4+z
loop_
_atom_site_type_symbol
_atom_site_label
_atom_site_fract_x
_atom_site_fract_y
_atom_site_fract_z
Si Si1 0.976816 0.932619 0.266954
Si Si2 0.666283 0.075799 0.489108
Si Si3 0.955618 0.285487 0.800789
Si Si4 0.176718 0.942222 0.075780
Si Si5 0.990187 0.076164 0.985109
Si Si6 0.881173 0.760795 0.571431
Si Si7 0.337290 0.125000 0.125000
O O1 0.966369 0.973490 0.351086
O O2 0.957169 0.861151 0.281781
O O3 0.939063 0.964503 0.197071
O O4 0.038242 0.923876 0.255028
O O5 0.625000 0.125000 0.521568
O O6 0.716087 0.120131 0.486429
O O7 0.645891 0.049431 0.398358
O O8 0.670293 0.016956 0.553112
O O9 0.901291 0.265420 0.763519
O O10 0.000000 0.250000 0.750000
O O11 0.125000 0.921224 0.125000
O O12 0.217860 0.923048 0.143519
O O13 0.948233 0.098739 0.051197
O O14 0.000000 0.000000 0.000000
O O15 0.881752 0.686427 0.595745
#
# Coordination Sequence:
#
# PCOD9516910 Si02
#       7
#    32  32  32  32  32  32  16
#     4  11  25  47  73 106 148 195 249 304 378 468
#     4  12  25  44  72 104 143 194 249 303 375 460
#     4  11  25  44  74 111 147 191 247 311 380 459
#     4  12  26  44  69 102 141 190 243 300 370 447
#     4  12  25  45  71 103 144 190 241 308 378 452
#     4  12  25  47  74 105 147 198 251 315 384 457
#     4  12  28  48  73 108 148 192 261 326 382 464
#
# _framework density 23.902113
#
# number of rings (size 3 to 8) (size 9 to 14) (size 15 to 20)
#    0.000    0.308    0.000   10.154    0.000    7.692 
#    0.000    1.538    0.000    0.000    0.000    0.000 
#    0.000    0.000    0.000    0.000    0.000    0.000 
#
# Total GULP energy -290555.749294 kJ/mol
# GULP energy per Si atom -5587.610563 kJ/mol
# Density = 2.384771 g / cm^3
# Si number density = 23.902113 Si / 1000 Ang^3
#
#
#
# Elastic Constant Matrix: (Units=GPa)
#
#
# Indices 1 2 3 4 5 6 
#
# 1 119.6834 7.4978 40.2739 0.0000 0.0000 0.0000
# 2 7.4978 67.7153 33.7796 0.0000 0.0000 0.0000
# 3 40.2739 33.7796 89.4333 0.0000 0.0000 0.0000
# 4 0.0000 0.0000 0.0000 37.7134 0.0000 0.0000
# 5 0.0000 0.0000 0.0000 0.0000 37.3299 0.0000
# 6 0.0000 0.0000 0.0000 0.0000 0.0000 59.7291
#
#
#
# Elastic Compliance Matrix: (Units=1/GPa)
#
#
# Indices 1 2 3 4 5 6 
#
# 1 0.009954 0.001397 -0.005010 0.000000 0.000000 0.000000
# 2 0.001397 0.018392 -0.007576 0.000000 0.000000 0.000000
# 3 -0.005010 -0.007576 0.016299 0.000000 0.000000 0.000000
# 4 0.000000 0.000000 0.000000 0.026516 0.000000 0.000000
# 5 0.000000 0.000000 0.000000 0.000000 0.026788 0.000000
# 6 0.000000 0.000000 0.000000 0.000000 0.000000 0.016742
#
#
# Mechanical properties :
#
#
# Convention : Reuss Voigt Hill
#
# Bulk Modulus (GPa) = 44.90906 48.88162 46.89534
# Shear Modulus (GPa) = 34.60399 39.97321 37.28860
#
# Velocity S-wave (km/s) = 3.80904 4.09390 3.95404
# Velocity P-wave (km/s) = 6.17856 6.54537 6.36461
#
# Compressibility (1/GPa) = 0.02226722
#
# Stress axis : x y z
#
# Youngs Moduli (GPa) = 100.46437 54.37055 61.35263
#
# Poissons Ratio (x) = -0.07596 0.30738
# Poissons Ratio (y) = -0.14036 0.46481
# Poissons Ratio (z) = 0.50334 0.41191
#
# Static dielectric constant tensor:
#      x y z
#    x 2.077580 0.000000 0.000000 
#    y 0.000000 1.817220 0.000000 
#    z 0.000000 0.000000 2.066200 
# 
# From -- ./inp_files/38735.got.cif
#   From: 2010.05.17/outbox.cif.g08.bks.cpg/sg70_20_cif.got.tgz:38735.got - 2010.06.03 15:57:51.
