data_PCOD9516896
_publ_section_title
;
Structure prediction by ZEFSAII (Michael W. Deem and Ramdas Pophale) SiO2 
 PCOD9516896
Probable space group: F D D D
;
_chemical_formula_sum "Si O2"
_cell_formula_units_Z 96
_cell_length_a 11.745994
_cell_length_b 28.211037
_cell_length_c 11.288992
_cell_angle_alpha 90.000000
_cell_angle_beta 90.000000
_cell_angle_gamma 90.000000
_cell_volume 3740.795702
_symmetry_space_group_name_H-M "F D D D"
_symmetry_group_IT_number 70
_space_group.IT_coordinate_system_code '2'
_symmetry_cell_setting 'orthorhombic'
loop_
_space_group_symop_operation_xyz
x,y,z
1/4-x,1/4-y,z
x,1/4-y,1/4-z
1/4-x,y,1/4-z
-x,-y,-z
3/4+x,3/4+y,-z
-x,3/4+y,3/4+z
3/4+x,-y,3/4+z
x,1/2+y,1/2+z
1/4-x,3/4-y,1/2+z
x,3/4-y,3/4-z
1/4-x,1/2+y,3/4-z
-x,1/2-y,1/2-z
3/4+x,1/4+y,1/2-z
-x,1/4+y,1/4+z
3/4+x,1/2-y,1/4+z
1/2+x,y,1/2+z
3/4-x,1/4-y,1/2+z
1/2+x,1/4-y,3/4-z
3/4-x,y,3/4-z
1/2-x,-y,1/2-z
1/4+x,3/4+y,1/2-z
1/2-x,3/4+y,1/4+z
1/4+x,-y,1/4+z
1/2+x,1/2+y,z
3/4-x,3/4-y,z
1/2+x,3/4-y,1/4-z
3/4-x,1/2+y,1/4-z
1/2-x,1/2-y,-z
1/4+x,1/4+y,-z
1/2-x,1/4+y,3/4+z
1/4+x,1/2-y,3/4+z
loop_
_atom_site_type_symbol
_atom_site_label
_atom_site_fract_x
_atom_site_fract_y
_atom_site_fract_z
Si Si1 0.205610 0.257839 0.867307
Si Si2 0.503898 0.923508 0.925581
Si Si3 0.919125 0.824335 0.073992
O O1 0.082010 0.282557 0.860674
O O2 0.280004 0.291028 0.780441
O O3 0.250000 0.250000 0.000000
O O4 0.180764 0.202250 0.850122
O O5 0.554977 0.875000 0.875000
O O6 0.375000 0.927006 0.875000
O O7 0.505597 0.919009 0.067652
O O8 0.875000 0.875000 0.029672
#
# Coordination Sequence:
#
# PCOD9516896 Si02
#       3
#    32  32  32
#     4  12  29  50  83 123 176 220 298 370 444 529
#     4  11  24  51  86 120 167 227 292 353 454 537
#     4  12  27  52  84 123 172 231 295 362 453 543
#
# _framework density 25.662989
#
# number of rings (size 3 to 8) (size 9 to 14) (size 15 to 20)
#    0.000    0.333    3.333    5.000    4.667    1.333 
#    0.000    0.000    0.000    0.000    0.000    0.000 
#    0.000    0.000    0.000    0.000    0.000    0.000 
#
# Total GULP energy -133851.466631 kJ/mol
# GULP energy per Si atom -5577.144443 kJ/mol
# Density = 2.560458 g / cm^3
# Si number density = 25.662989 Si / 1000 Ang^3
#
#
#
# Elastic Constant Matrix: (Units=GPa)
#
#
# Indices 1 2 3 4 5 6 
#
# 1 93.7179 49.5480 35.5773 0.0000 0.0000 0.0000
# 2 49.5480 179.6208 85.3018 0.0000 0.0000 0.0000
# 3 35.5773 85.3018 215.5466 0.0000 0.0000 0.0000
# 4 0.0000 0.0000 0.0000 41.0518 0.0000 0.0000
# 5 0.0000 0.0000 0.0000 0.0000 110.0825 0.0000
# 6 0.0000 0.0000 0.0000 0.0000 0.0000 33.3384
#
#
#
# Elastic Compliance Matrix: (Units=1/GPa)
#
#
# Indices 1 2 3 4 5 6 
#
# 1 0.012623 -0.003069 -0.000869 0.000000 0.000000 0.000000
# 2 -0.003069 0.007602 -0.002502 0.000000 0.000000 0.000000
# 3 -0.000869 -0.002502 0.005773 0.000000 0.000000 0.000000
# 4 0.000000 0.000000 0.000000 0.024359 0.000000 0.000000
# 5 0.000000 0.000000 0.000000 0.000000 0.009084 0.000000
# 6 0.000000 0.000000 0.000000 0.000000 0.000000 0.029995
#
#
# Mechanical properties :
#
#
# Convention : Reuss Voigt Hill
#
# Bulk Modulus (GPa) = 76.23262 92.19327 84.21295
# Shear Modulus (GPa) = 46.86491 58.12509 52.49500
#
# Velocity S-wave (km/s) = 4.27800 4.76430 4.52769
# Velocity P-wave (km/s) = 7.36013 8.14047 7.76012
#
# Compressibility (1/GPa) = 0.01311774
#
# Stress axis : x y z
#
# Youngs Moduli (GPa) = 79.22106 131.54232 173.22383
#
# Poissons Ratio (x) = 0.40376 0.15049
# Poissons Ratio (y) = 0.24316 0.43339
# Poissons Ratio (z) = 0.06883 0.32910
#
# Static dielectric constant tensor:
#      x y z
#    x 2.455270 0.000000 0.000000 
#    y 0.000000 2.424730 0.000000 
#    z 0.000000 0.000000 4.698410 
# 
# From -- ./inp_files/41704.got.cif
#   From: 2010.05.17/outbox.cif.g08.bks.cpg/sg70_21_cif.got.tgz:41704.got - 2010.06.03 15:57:51.
