data_PCOD9516848
_publ_section_title
;
Structure prediction by ZEFSAII (Michael W. Deem and Ramdas Pophale) SiO2 
 PCOD9516848
Probable space group: F D D D
;
_chemical_formula_sum "Si O2"
_cell_formula_units_Z 80
_cell_length_a 4.719293
_cell_length_b 21.751198
_cell_length_c 32.819905
_cell_angle_alpha 90.000000
_cell_angle_beta 90.000000
_cell_angle_gamma 90.000000
_cell_volume 3368.972322
_symmetry_space_group_name_H-M "F D D D"
_symmetry_group_IT_number 70
_space_group.IT_coordinate_system_code '2'
_symmetry_cell_setting 'orthorhombic'
loop_
_space_group_symop_operation_xyz
x,y,z
1/4-x,1/4-y,z
x,1/4-y,1/4-z
1/4-x,y,1/4-z
-x,-y,-z
3/4+x,3/4+y,-z
-x,3/4+y,3/4+z
3/4+x,-y,3/4+z
x,1/2+y,1/2+z
1/4-x,3/4-y,1/2+z
x,3/4-y,3/4-z
1/4-x,1/2+y,3/4-z
-x,1/2-y,1/2-z
3/4+x,1/4+y,1/2-z
-x,1/4+y,1/4+z
3/4+x,1/2-y,1/4+z
1/2+x,y,1/2+z
3/4-x,1/4-y,1/2+z
1/2+x,1/4-y,3/4-z
3/4-x,y,3/4-z
1/2-x,-y,1/2-z
1/4+x,3/4+y,1/2-z
1/2-x,3/4+y,1/4+z
1/4+x,-y,1/4+z
1/2+x,1/2+y,z
3/4-x,3/4-y,z
1/2+x,3/4-y,1/4-z
3/4-x,1/2+y,1/4-z
1/2-x,1/2-y,-z
1/4+x,1/4+y,-z
1/2-x,1/4+y,3/4+z
1/4+x,1/2-y,3/4+z
loop_
_atom_site_type_symbol
_atom_site_label
_atom_site_fract_x
_atom_site_fract_y
_atom_site_fract_z
Si Si1 0.246970 0.311063 0.920580
Si Si2 0.625000 0.625000 0.404122
Si Si3 0.523001 0.006169 0.951889
O O1 0.375000 0.308336 0.875000
O O2 0.375000 0.375000 0.937433
O O3 0.398138 0.256839 0.944203
O O4 0.918201 0.295205 0.927923
O O5 0.375000 0.650364 0.375000
O O6 0.480049 0.572464 0.431647
O O7 0.500000 0.000000 0.000000
#
# Coordination Sequence:
#
# PCOD9516848 Si02
#       3
#    32  16  32
#     4  11  24  44  72 100 138 184 238 292 361 440
#     4  12  26  46  74 102 145 198 249 296 370 456
#     4  12  26  44  70 104 145 185 241 304 364 430
#
# _framework density 23.746112
#
# number of rings (size 3 to 8) (size 9 to 14) (size 15 to 20)
#    0.000    0.400    0.000    9.600    5.600    3.200 
#    0.000    0.000    0.000    0.000    0.000    0.000 
#    0.000    0.000    0.000    0.000    0.000    0.000 
#
# Total GULP energy -111655.645683 kJ/mol
# GULP energy per Si atom -5582.782284 kJ/mol
# Density = 2.369207 g / cm^3
# Si number density = 23.746112 Si / 1000 Ang^3
#
#
#
# Elastic Constant Matrix: (Units=GPa)
#
#
# Indices 1 2 3 4 5 6 
#
# 1 107.1813 13.5090 24.1875 0.0000 0.0000 0.0000
# 2 13.5090 126.0316 40.0385 0.0000 0.0000 0.0000
# 3 24.1875 40.0385 143.5700 0.0000 0.0000 0.0000
# 4 0.0000 0.0000 0.0000 3.5880 0.0000 0.0000
# 5 0.0000 0.0000 0.0000 0.0000 29.0990 0.0000
# 6 0.0000 0.0000 0.0000 0.0000 0.0000 51.7874
#
#
#
# Elastic Compliance Matrix: (Units=1/GPa)
#
#
# Indices 1 2 3 4 5 6 
#
# 1 0.009736 -0.000573 -0.001480 0.000000 0.000000 0.000000
# 2 -0.000573 0.008740 -0.002341 0.000000 0.000000 0.000000
# 3 -0.001480 -0.002341 0.007867 0.000000 0.000000 0.000000
# 4 0.000000 0.000000 0.000000 0.278703 0.000000 0.000000
# 5 0.000000 0.000000 0.000000 0.000000 0.034365 0.000000
# 6 0.000000 0.000000 0.000000 0.000000 0.000000 0.019310
#
#
# Mechanical properties :
#
#
# Convention : Reuss Voigt Hill
#
# Bulk Modulus (GPa) = 56.96545 59.13922 58.05234
# Shear Modulus (GPa) = 13.39183 36.83142 25.11162
#
# Velocity S-wave (km/s) = 2.37736 3.94261 3.25546
# Velocity P-wave (km/s) = 5.61936 6.75903 6.21537
#
# Compressibility (1/GPa) = 0.01755450
#
# Stress axis : x y z
#
# Youngs Moduli (GPa) = 102.70816 114.42206 127.10652
#
# Poissons Ratio (x) = 0.06560 0.18817
# Poissons Ratio (y) = 0.05888 0.29752
# Poissons Ratio (z) = 0.15205 0.26783
#
# Static dielectric constant tensor:
#      x y z
#    x 1.830910 0.000000 0.000000 
#    y 0.000000 1.919080 0.000000 
#    z 0.000000 0.000000 1.938030 
# 
# From -- ./inp_files/54563.got.cif
#   From: 2010.05.17/outbox.cif.g08.bks.cpg/sg70_28_cif.got.tgz:54563.got - 2010.06.03 15:57:51.
