data_PCOD9516894
_publ_section_title
;
Structure prediction by ZEFSAII (Michael W. Deem and Ramdas Pophale) SiO2 
 PCOD9516894
Probable space group: F D D D
;
_chemical_formula_sum "Si O2"
_cell_formula_units_Z 160
_cell_length_a 22.165084
_cell_length_b 18.943421
_cell_length_c 16.914646
_cell_angle_alpha 90.000000
_cell_angle_beta 90.000000
_cell_angle_gamma 90.000000
_cell_volume 7102.164149
_symmetry_space_group_name_H-M "F D D D"
_symmetry_group_IT_number 70
_space_group.IT_coordinate_system_code '2'
_symmetry_cell_setting 'orthorhombic'
loop_
_space_group_symop_operation_xyz
x,y,z
1/4-x,1/4-y,z
x,1/4-y,1/4-z
1/4-x,y,1/4-z
-x,-y,-z
3/4+x,3/4+y,-z
-x,3/4+y,3/4+z
3/4+x,-y,3/4+z
x,1/2+y,1/2+z
1/4-x,3/4-y,1/2+z
x,3/4-y,3/4-z
1/4-x,1/2+y,3/4-z
-x,1/2-y,1/2-z
3/4+x,1/4+y,1/2-z
-x,1/4+y,1/4+z
3/4+x,1/2-y,1/4+z
1/2+x,y,1/2+z
3/4-x,1/4-y,1/2+z
1/2+x,1/4-y,3/4-z
3/4-x,y,3/4-z
1/2-x,-y,1/2-z
1/4+x,3/4+y,1/2-z
1/2-x,3/4+y,1/4+z
1/4+x,-y,1/4+z
1/2+x,1/2+y,z
3/4-x,3/4-y,z
1/2+x,3/4-y,1/4-z
3/4-x,1/2+y,1/4-z
1/2-x,1/2-y,-z
1/4+x,1/4+y,-z
1/2-x,1/4+y,3/4+z
1/4+x,1/2-y,3/4+z
loop_
_atom_site_type_symbol
_atom_site_label
_atom_site_fract_x
_atom_site_fract_y
_atom_site_fract_z
Si Si1 0.010604 0.386093 0.043654
Si Si2 0.556183 0.493147 0.780496
Si Si3 0.625000 0.125000 0.522919
Si Si4 0.875000 0.196529 0.875000
Si Si5 0.582249 0.521227 0.358254
Si Si6 0.973306 0.125000 0.625000
Si Si7 0.734531 0.625000 0.125000
O O1 0.078877 0.402363 0.069803
O O2 0.992166 0.304643 0.045679
O O3 0.969561 0.433142 0.100330
O O4 0.995030 0.406017 0.952519
O O5 0.581791 0.485783 0.690377
O O6 0.612733 0.517811 0.831671
O O7 0.526799 0.423298 0.819540
O O8 0.599234 0.187470 0.469960
O O9 0.682944 0.158855 0.568105
O O10 0.564926 0.440496 0.343626
#
# Coordination Sequence:
#
# PCOD9516894 Si02
#       7
#    32  32  16  16  32  16  16
#     4  12  26  47  74 108 152 198 254 315 377 454
#     4  12  27  48  76 111 152 199 254 315 381 453
#     4  11  24  50  80 105 154 192 248 315 384 442
#     4  12  28  48  75 115 152 198 262 316 382 459
#     4  12  25  50  72 111 150 198 249 314 376 457
#     4  12  25  42  74 100 145 195 253 304 366 448
#     4  11  27  50  77 116 147 197 253 314 380 457
#
# _framework density 22.528344000000001
#
# number of rings (size 3 to 8) (size 9 to 14) (size 15 to 20)
#    0.000    0.200    4.000    4.800    2.800    4.000 
#    0.000    0.000    0.000    0.000    0.000    0.000 
#    0.000    0.000    0.000    0.000    0.000    0.000 
#
# Total GULP energy -223285.143481 kJ/mol
# GULP energy per Si atom -5582.128587 kJ/mol
# Density = 2.247707 g / cm^3
# Si number density = 22.528344 Si / 1000 Ang^3
#
#
#
# Elastic Constant Matrix: (Units=GPa)
#
#
# Indices 1 2 3 4 5 6 
#
# 1 97.5474 22.7775 38.2399 0.0000 0.0000 0.0000
# 2 22.7775 101.9029 18.9725 0.0000 0.0000 0.0000
# 3 38.2399 18.9725 113.7775 0.0000 0.0000 0.0000
# 4 0.0000 0.0000 0.0000 313.4739 0.0000 0.0000
# 5 0.0000 0.0000 0.0000 0.0000 52.3927 0.0000
# 6 0.0000 0.0000 0.0000 0.0000 0.0000 195.1476
#
#
#
# Elastic Compliance Matrix: (Units=1/GPa)
#
#
# Indices 1 2 3 4 5 6 
#
# 1 0.012199 -0.002026 -0.003762 0.000000 0.000000 0.000000
# 2 -0.002026 0.010464 -0.001064 0.000000 0.000000 0.000000
# 3 -0.003762 -0.001064 0.010231 0.000000 0.000000 0.000000
# 4 0.000000 0.000000 0.000000 0.003190 0.000000 0.000000
# 5 0.000000 0.000000 0.000000 0.000000 0.019087 0.000000
# 6 0.000000 0.000000 0.000000 0.000000 0.000000 0.005124
#
#
# Mechanical properties :
#
#
# Convention : Reuss Voigt Hill
#
# Bulk Modulus (GPa) = 52.11136 52.57860 52.34498
# Shear Modulus (GPa) = 62.19119 127.75204 94.97162
#
# Velocity S-wave (km/s) = 5.25982 7.53859 6.49985
# Velocity P-wave (km/s) = 7.75044 9.95808 8.92280
#
# Compressibility (1/GPa) = 0.01918967
#
# Stress axis : x y z
#
# Youngs Moduli (GPa) = 81.97093 95.56318 97.74261
#
# Poissons Ratio (x) = 0.19365 0.36773
# Poissons Ratio (y) = 0.16610 0.10399
# Poissons Ratio (z) = 0.30840 0.10167
#
# Static dielectric constant tensor:
#      x y z
#    x 1.844130 0.000000 0.000000 
#    y 0.000000 1.821240 0.000000 
#    z 0.000000 0.000000 2.040100 
# 
# From -- ./inp_files/36388.got.cif
#   From: 2010.05.17/outbox.cif.g08.bks.cpg/sg70_19_cif.got.tgz:36388.got - 2010.06.03 15:57:51.
