data_PCOD9516680
_publ_section_title
;
Structure prediction by ZEFSAII (Michael W. Deem and Ramdas Pophale) SiO2 
 PCOD9516680
Probable space group: F D D D
;
_chemical_formula_sum "Si O2"
_cell_formula_units_Z 168
_cell_length_a 14.807358
_cell_length_b 19.978974
_cell_length_c 28.309011
_cell_angle_alpha 90.000000
_cell_angle_beta 90.000000
_cell_angle_gamma 90.000000
_cell_volume 8374.819496
_symmetry_space_group_name_H-M "F D D D"
_symmetry_group_IT_number 70
_space_group.IT_coordinate_system_code '2'
_symmetry_cell_setting 'orthorhombic'
loop_
_space_group_symop_operation_xyz
x,y,z
1/4-x,1/4-y,z
x,1/4-y,1/4-z
1/4-x,y,1/4-z
-x,-y,-z
3/4+x,3/4+y,-z
-x,3/4+y,3/4+z
3/4+x,-y,3/4+z
x,1/2+y,1/2+z
1/4-x,3/4-y,1/2+z
x,3/4-y,3/4-z
1/4-x,1/2+y,3/4-z
-x,1/2-y,1/2-z
3/4+x,1/4+y,1/2-z
-x,1/4+y,1/4+z
3/4+x,1/2-y,1/4+z
1/2+x,y,1/2+z
3/4-x,1/4-y,1/2+z
1/2+x,1/4-y,3/4-z
3/4-x,y,3/4-z
1/2-x,-y,1/2-z
1/4+x,3/4+y,1/2-z
1/2-x,3/4+y,1/4+z
1/4+x,-y,1/4+z
1/2+x,1/2+y,z
3/4-x,3/4-y,z
1/2+x,3/4-y,1/4-z
3/4-x,1/2+y,1/4-z
1/2-x,1/2-y,-z
1/4+x,1/4+y,-z
1/2-x,1/4+y,3/4+z
1/4+x,1/2-y,3/4+z
loop_
_atom_site_type_symbol
_atom_site_label
_atom_site_fract_x
_atom_site_fract_y
_atom_site_fract_z
Si Si1 0.628435 0.426259 0.236690
Si Si2 0.676750 0.696630 0.750439
Si Si3 0.493604 0.530864 0.068894
Si Si4 0.081159 0.455681 0.073529
Si Si5 0.875000 0.875000 0.875000
Si Si6 0.125561 0.545113 0.353749
O O1 0.532987 0.447168 0.260069
O O2 0.688783 0.477267 0.205657
O O3 0.693692 0.420602 0.281617
O O4 0.600343 0.363960 0.203743
O O5 0.625000 0.625000 0.750661
O O6 0.623011 0.740653 0.712579
O O7 0.677206 0.719523 0.805162
O O8 0.559707 0.577398 0.096843
O O9 0.420665 0.493682 0.102822
O O10 0.125000 0.454103 0.125000
O O11 0.977305 0.470161 0.086541
O O12 0.125000 0.625000 0.364323
#
# Coordination Sequence:
#
# PCOD9516680 Si02
#       6
#    32  32  32  32   8  32
#     4  11  25  46  67 103 138 184 239 287 344 431
#     4  11  24  42  69  99 136 176 230 290 352 417
#     4  11  27  44  69 104 143 188 236 291 352 426
#     4  12  25  42  71 100 132 183 226 293 351 415
#     4  12  28  44  72 104 146 192 218 304 352 428
#     4  11  22  44  71  99 133 185 233 285 349 416
#
# _framework density 20.060133
#
# number of rings (size 3 to 8) (size 9 to 14) (size 15 to 20)
#    0.000    0.762    3.810    4.000    6.667    0.381 
#    3.429    0.000    0.000    0.000    0.000    0.000 
#    0.000    0.000    0.000    0.000    0.000    0.000 
#
# Total GULP energy -234180.017671 kJ/mol
# GULP energy per Si atom -5575.714706 kJ/mol
# Density = 2.001448 g / cm^3
# Si number density = 20.060133 Si / 1000 Ang^3
#
#
#
# Elastic Constant Matrix: (Units=GPa)
#
#
# Indices 1 2 3 4 5 6 
#
# 1 109.9964 17.0459 26.5365 0.0000 0.0000 0.0000
# 2 17.0459 39.9723 34.3231 0.0000 0.0000 0.0000
# 3 26.5365 34.3231 94.6445 0.0000 0.0000 0.0000
# 4 0.0000 0.0000 0.0000 -90.0660 0.0000 0.0000
# 5 0.0000 0.0000 0.0000 0.0000 80.1105 0.0000
# 6 0.0000 0.0000 0.0000 0.0000 0.0000 30.2695
#
#
#
# Elastic Compliance Matrix: (Units=1/GPa)
#
#
# Indices 1 2 3 4 5 6 
#
# 1 0.009945 -0.002682 -0.001816 0.000000 0.000000 0.000000
# 2 -0.002682 0.037054 -0.012686 0.000000 0.000000 0.000000
# 3 -0.001816 -0.012686 0.015675 0.000000 0.000000 0.000000
# 4 0.000000 0.000000 0.000000 -0.011103 0.000000 0.000000
# 5 0.000000 0.000000 0.000000 0.000000 0.012483 0.000000
# 6 0.000000 0.000000 0.000000 0.000000 0.000000 0.033037
#
#
# Mechanical properties :
#
#
# Convention : Reuss Voigt Hill
#
# Bulk Modulus (GPa) = 35.32625 44.49158 39.90892
# Shear Modulus (GPa) = 35.48796 15.17664 25.33230
#
# Velocity S-wave (km/s) = 4.21060 2.75354 3.55747
# Velocity P-wave (km/s) = 6.42552 5.68653 6.06729
#
# Compressibility (1/GPa) = 0.02830756
#
# Stress axis : x y z
#
# Youngs Moduli (GPa) = 100.55464 26.98780 63.79388
#
# Poissons Ratio (x) = 0.07237 0.11584
# Poissons Ratio (y) = 0.26966 0.80927
# Poissons Ratio (z) = 0.18259 0.34236
#
# Static dielectric constant tensor:
#      x y z
#    x 1.866330 0.000000 0.000000 
#    y 0.000000 1.710770 0.000000 
#    z 0.000000 0.000000 1.353890 
# 
# From -- ./inp_files/29877.got.cif
#   From: 2010.05.17/outbox.cif.g08.bks.cpg/sg70_15_cif.got.tgz:29877.got - 2010.06.03 15:57:51.
