data_PCOD9516158
_publ_section_title
;
Structure prediction by ZEFSAII (Michael W. Deem and Ramdas Pophale) SiO2 
 PCOD9516158
Probable space group: F D D D
;
_chemical_formula_sum "Si O2"
_cell_formula_units_Z 160
_cell_length_a 17.930361
_cell_length_b 21.320382
_cell_length_c 19.444994
_cell_angle_alpha 90.000000
_cell_angle_beta 90.000000
_cell_angle_gamma 90.000000
_cell_volume 7433.474034
_symmetry_space_group_name_H-M "F D D D"
_symmetry_group_IT_number 70
_space_group.IT_coordinate_system_code '2'
_symmetry_cell_setting 'orthorhombic'
loop_
_space_group_symop_operation_xyz
x,y,z
1/4-x,1/4-y,z
x,1/4-y,1/4-z
1/4-x,y,1/4-z
-x,-y,-z
3/4+x,3/4+y,-z
-x,3/4+y,3/4+z
3/4+x,-y,3/4+z
x,1/2+y,1/2+z
1/4-x,3/4-y,1/2+z
x,3/4-y,3/4-z
1/4-x,1/2+y,3/4-z
-x,1/2-y,1/2-z
3/4+x,1/4+y,1/2-z
-x,1/4+y,1/4+z
3/4+x,1/2-y,1/4+z
1/2+x,y,1/2+z
3/4-x,1/4-y,1/2+z
1/2+x,1/4-y,3/4-z
3/4-x,y,3/4-z
1/2-x,-y,1/2-z
1/4+x,3/4+y,1/2-z
1/2-x,3/4+y,1/4+z
1/4+x,-y,1/4+z
1/2+x,1/2+y,z
3/4-x,3/4-y,z
1/2+x,3/4-y,1/4-z
3/4-x,1/2+y,1/4-z
1/2-x,1/2-y,-z
1/4+x,1/4+y,-z
1/2-x,1/4+y,3/4+z
1/4+x,1/2-y,3/4+z
loop_
_atom_site_type_symbol
_atom_site_label
_atom_site_fract_x
_atom_site_fract_y
_atom_site_fract_z
Si Si1 0.639408 0.751153 0.050844
Si Si2 0.158985 0.057109 0.774571
Si Si3 0.273979 0.724735 0.744726
Si Si4 0.294492 0.232404 0.392132
Si Si5 0.220144 0.841844 0.448957
O O1 0.625000 0.784083 0.125000
O O2 0.700583 0.694894 0.057109
O O3 0.556629 0.727850 0.037308
O O4 0.665855 0.791851 0.985455
O O5 0.125000 0.125000 0.768895
O O6 0.227330 0.057910 0.827662
O O7 0.093067 0.007804 0.794040
O O8 0.189872 0.033304 0.701181
O O9 0.270731 0.758439 0.818521
O O10 0.284808 0.650472 0.751068
O O11 0.375000 0.202154 0.375000
O O12 0.203205 0.875000 0.375000
#
# Coordination Sequence:
#
# PCOD9516158 Si02
#       5
#    32  32  32  32  32
#     4  11  25  44  72 105 142 192 246 302 376 441
#     4  10  23  43  68  99 143 190 242 294 374 445
#     4  11  24  39  68 101 137 187 238 307 366 434
#     4   9  22  43  64  96 140 185 234 300 359 431
#     4  11  25  46  71 102 148 192 243 306 369 443
#
# _framework density 21.524256000000001
#
# number of rings (size 3 to 8) (size 9 to 14) (size 15 to 20)
#    0.000    1.600    2.000    0.600    2.800   14.000 
#    0.000    0.000    0.000    0.000    0.000    0.000 
#    0.000    0.000    0.000    0.000    0.000    0.000 
#
# Total GULP energy -222814.923410 kJ/mol
# GULP energy per Si atom -5570.373085 kJ/mol
# Density = 2.147527 g / cm^3
# Si number density = 21.524256 Si / 1000 Ang^3
#
#
#
# Elastic Constant Matrix: (Units=GPa)
#
#
# Indices 1 2 3 4 5 6 
#
# 1 92.2153 41.1099 36.5711 0.0000 0.0000 0.0000
# 2 41.1099 93.2350 17.4947 0.0000 0.0000 0.0000
# 3 36.5711 17.4947 81.1066 0.0000 0.0000 0.0000
# 4 0.0000 0.0000 0.0000 23.4640 0.0000 0.0000
# 5 0.0000 0.0000 0.0000 0.0000 24.6770 0.0000
# 6 0.0000 0.0000 0.0000 0.0000 0.0000 21.6622
#
#
#
# Elastic Compliance Matrix: (Units=1/GPa)
#
#
# Indices 1 2 3 4 5 6 
#
# 1 0.015776 -0.005858 -0.005850 0.000000 0.000000 0.000000
# 2 -0.005858 0.013353 -0.000239 0.000000 0.000000 0.000000
# 3 -0.005850 -0.000239 0.015019 0.000000 0.000000 0.000000
# 4 0.000000 0.000000 0.000000 0.042618 0.000000 0.000000
# 5 0.000000 0.000000 0.000000 0.000000 0.040524 0.000000
# 6 0.000000 0.000000 0.000000 0.000000 0.000000 0.046163
#
#
# Mechanical properties :
#
#
# Convention : Reuss Voigt Hill
#
# Bulk Modulus (GPa) = 49.37247 50.76757 50.07002
# Shear Modulus (GPa) = 24.49800 25.38605 24.94203
#
# Velocity S-wave (km/s) = 3.37732 3.43799 3.40779
# Velocity P-wave (km/s) = 6.18031 6.27671 6.22870
#
# Compressibility (1/GPa) = 0.02025420
#
# Stress axis : x y z
#
# Youngs Moduli (GPa) = 63.38854 74.88679 66.58414
#
# Poissons Ratio (x) = 0.43871 0.38949
# Poissons Ratio (y) = 0.37135 0.01590
# Poissons Ratio (z) = 0.37080 0.01789
#
# Static dielectric constant tensor:
#      x y z
#    x 1.924280 0.000000 0.000000 
#    y 0.000000 1.780450 0.000000 
#    z 0.000000 0.000000 1.888690 
# 
# From -- ./inp_files/43642.got.cif
#   From: 2010.05.17/outbox.cif.g08.bks.cpg/sg70_22_cif.got.tgz:43642.got - 2010.06.03 15:57:51.
