data_PCOD9516528
_publ_section_title
;
Structure prediction by ZEFSAII (Michael W. Deem and Ramdas Pophale) SiO2 
 PCOD9516528
Probable space group: F D D D
;
_chemical_formula_sum "Si O2"
_cell_formula_units_Z 96
_cell_length_a 31.923257
_cell_length_b 17.806149
_cell_length_c 8.282173
_cell_angle_alpha 90.000000
_cell_angle_beta 90.000000
_cell_angle_gamma 90.000000
_cell_volume 4707.837840
_symmetry_space_group_name_H-M "F D D D"
_symmetry_group_IT_number 70
_space_group.IT_coordinate_system_code '2'
_symmetry_cell_setting 'orthorhombic'
loop_
_space_group_symop_operation_xyz
x,y,z
1/4-x,1/4-y,z
x,1/4-y,1/4-z
1/4-x,y,1/4-z
-x,-y,-z
3/4+x,3/4+y,-z
-x,3/4+y,3/4+z
3/4+x,-y,3/4+z
x,1/2+y,1/2+z
1/4-x,3/4-y,1/2+z
x,3/4-y,3/4-z
1/4-x,1/2+y,3/4-z
-x,1/2-y,1/2-z
3/4+x,1/4+y,1/2-z
-x,1/4+y,1/4+z
3/4+x,1/2-y,1/4+z
1/2+x,y,1/2+z
3/4-x,1/4-y,1/2+z
1/2+x,1/4-y,3/4-z
3/4-x,y,3/4-z
1/2-x,-y,1/2-z
1/4+x,3/4+y,1/2-z
1/2-x,3/4+y,1/4+z
1/4+x,-y,1/4+z
1/2+x,1/2+y,z
3/4-x,3/4-y,z
1/2+x,3/4-y,1/4-z
3/4-x,1/2+y,1/4-z
1/2-x,1/2-y,-z
1/4+x,1/4+y,-z
1/2-x,1/4+y,3/4+z
1/4+x,1/2-y,3/4+z
loop_
_atom_site_type_symbol
_atom_site_label
_atom_site_fract_x
_atom_site_fract_y
_atom_site_fract_z
Si Si1 0.712848 0.645901 0.311149
Si Si2 0.037884 0.433921 0.730873
Si Si3 0.375000 0.510919 0.875000
Si Si4 0.125000 0.625000 0.872088
O O1 0.751684 0.595715 0.363760
O O2 0.722936 0.734040 0.302360
O O3 0.673154 0.631222 0.429768
O O4 0.700650 0.625000 0.125000
O O5 0.082537 0.442472 0.641873
O O6 0.041869 0.375000 0.875000
O O7 0.373029 0.453686 0.725156
#
# Coordination Sequence:
#
# PCOD9516528 Si02
#       4
#    32  32  16  16
#     4  11  20  38  63  85 113 158 198 229 282 351
#     4  11  23  38  58  89 123 146 187 250 294 332
#     4   9  18  36  56  80 113 154 192 228 277 340
#     4   9  16  36  61  80 107 154 203 230 257 350
#
# _framework density 20.391527
#
# number of rings (size 3 to 8) (size 9 to 14) (size 15 to 20)
#    0.000    1.667    6.667    2.000    0.000    1.333 
#    6.000    0.833    0.000    0.000    0.000    0.000 
#    0.000    0.000    0.000    0.000    0.000    0.000 
#
# Total GULP energy -133660.886199 kJ/mol
# GULP energy per Si atom -5569.203592 kJ/mol
# Density = 2.034511 g / cm^3
# Si number density = 20.391527 Si / 1000 Ang^3
#
#
#
# Elastic Constant Matrix: (Units=GPa)
#
#
# Indices 1 2 3 4 5 6 
#
# 1 202.8128 57.4336 30.9102 0.0000 0.0000 0.0000
# 2 57.4336 124.6187 15.4407 0.0000 0.0000 0.0000
# 3 30.9102 15.4407 45.9700 0.0000 0.0000 0.0000
# 4 0.0000 0.0000 0.0000 -4.8824 0.0000 0.0000
# 5 0.0000 0.0000 0.0000 0.0000 0.4918 0.0000
# 6 0.0000 0.0000 0.0000 0.0000 0.0000 48.0811
#
#
#
# Elastic Compliance Matrix: (Units=1/GPa)
#
#
# Indices 1 2 3 4 5 6 
#
# 1 0.006116 -0.002410 -0.003303 0.000000 0.000000 0.000000
# 2 -0.002410 0.009322 -0.001511 0.000000 0.000000 0.000000
# 3 -0.003303 -0.001511 0.024482 0.000000 0.000000 0.000000
# 4 0.000000 0.000000 0.000000 -0.204815 0.000000 0.000000
# 5 0.000000 0.000000 0.000000 0.000000 2.033544 0.000000
# 6 0.000000 0.000000 0.000000 0.000000 0.000000 0.020798
#
#
# Mechanical properties :
#
#
# Convention : Reuss Voigt Hill
#
# Bulk Modulus (GPa) = 39.25758 64.55230 51.90494
# Shear Modulus (GPa) = 2.61453 26.71254 14.66354
#
# Velocity S-wave (km/s) = 1.13356 3.62329 2.68451
# Velocity P-wave (km/s) = 4.58334 7.01637 5.92606
#
# Compressibility (1/GPa) = 0.02547279
#
# Stress axis : x y z
#
# Youngs Moduli (GPa) = 163.49252 107.27043 40.84633
#
# Poissons Ratio (x) = 0.25848 0.13493
# Poissons Ratio (y) = 0.39396 0.06172
# Poissons Ratio (z) = 0.54008 0.16208
#
# Static dielectric constant tensor:
#      x y z
#    x 1.797040 0.000000 0.000000 
#    y 0.000000 1.695230 0.000000 
#    z 0.000000 0.000000 1.791970 
# 
# From -- ./inp_files/21689.got.cif
#   From: 2010.05.17/outbox.cif.g08.bks.cpg/sg70_11_cif.got.tgz:21689.got - 2010.06.03 15:57:51.
