data_PCOD9516804
_publ_section_title
;
Structure prediction by ZEFSAII (Michael W. Deem and Ramdas Pophale) SiO2 
 PCOD9516804
Probable space group: F D D D
;
_chemical_formula_sum "Si O2"
_cell_formula_units_Z 208
_cell_length_a 25.915575
_cell_length_b 22.149830
_cell_length_c 16.522225
_cell_angle_alpha 90.000000
_cell_angle_beta 90.000000
_cell_angle_gamma 90.000000
_cell_volume 9484.179798
_symmetry_space_group_name_H-M "F D D D"
_symmetry_group_IT_number 70
_space_group.IT_coordinate_system_code '2'
_symmetry_cell_setting 'orthorhombic'
loop_
_space_group_symop_operation_xyz
x,y,z
1/4-x,1/4-y,z
x,1/4-y,1/4-z
1/4-x,y,1/4-z
-x,-y,-z
3/4+x,3/4+y,-z
-x,3/4+y,3/4+z
3/4+x,-y,3/4+z
x,1/2+y,1/2+z
1/4-x,3/4-y,1/2+z
x,3/4-y,3/4-z
1/4-x,1/2+y,3/4-z
-x,1/2-y,1/2-z
3/4+x,1/4+y,1/2-z
-x,1/4+y,1/4+z
3/4+x,1/2-y,1/4+z
1/2+x,y,1/2+z
3/4-x,1/4-y,1/2+z
1/2+x,1/4-y,3/4-z
3/4-x,y,3/4-z
1/2-x,-y,1/2-z
1/4+x,3/4+y,1/2-z
1/2-x,3/4+y,1/4+z
1/4+x,-y,1/4+z
1/2+x,1/2+y,z
3/4-x,3/4-y,z
1/2+x,3/4-y,1/4-z
3/4-x,1/2+y,1/4-z
1/2-x,1/2-y,-z
1/4+x,1/4+y,-z
1/2-x,1/4+y,3/4+z
1/4+x,1/2-y,3/4+z
loop_
_atom_site_type_symbol
_atom_site_label
_atom_site_fract_x
_atom_site_fract_y
_atom_site_fract_z
Si Si1 0.831687 0.692848 0.103078
Si Si2 0.723921 0.195367 0.845226
Si Si3 0.125000 0.125000 0.321429
Si Si4 0.066576 0.876268 0.593496
Si Si5 0.196830 0.816480 0.918792
Si Si6 0.336731 0.979019 0.297875
Si Si7 0.011733 0.503188 0.671295
O O1 0.814014 0.625000 0.125000
O O2 0.891703 0.694616 0.126211
O O3 0.799171 0.740260 0.157228
O O4 0.830287 0.712208 0.008854
O O5 0.674273 0.154026 0.867022
O O6 0.777706 0.160729 0.847673
O O7 0.726329 0.254413 0.902065
O O8 0.718449 0.216734 0.752891
O O9 0.103426 0.177132 0.262964
O O10 0.125000 0.872300 0.625000
O O11 0.064296 0.913396 0.509785
O O12 0.038046 0.812309 0.579747
O O13 0.221534 0.875000 0.875000
O O14 0.375000 0.984232 0.375000
O O15 0.283098 0.964055 0.340945
#
# Coordination Sequence:
#
# PCOD9516804 Si02
#       7
#    32  32  16  32  32  32  32
#     4  11  26  42  69 104 144 188 242 292 354 437
#     4  12  26  47  75 102 144 188 241 302 363 437
#     4  12  25  44  66 106 139 192 234 280 361 432
#     4  12  28  47  76 104 138 190 246 297 366 430
#     4  11  23  49  72 101 141 185 241 300 361 428
#     4  12  24  42  65  97 147 190 233 284 357 429
#     4  12  26  42  66 106 145 188 235 291 356 430
#
# _framework density 21.931259000000001
#
# number of rings (size 3 to 8) (size 9 to 14) (size 15 to 20)
#    0.000    0.308    4.615    3.462   10.769    0.000 
#    0.000    0.000    0.000    0.462    0.000    0.000 
#    0.000    0.000    0.000    0.000    0.000    0.000 
#
# Total GULP energy -290802.467376 kJ/mol
# GULP energy per Si atom -5592.355142 kJ/mol
# Density = 2.188134 g / cm^3
# Si number density = 21.931259 Si / 1000 Ang^3
#
#
#
# Elastic Constant Matrix: (Units=GPa)
#
#
# Indices 1 2 3 4 5 6 
#
# 1 80.3392 61.8017 6.1785 0.0000 0.0000 0.0000
# 2 61.8017 127.8084 34.6844 0.0000 0.0000 0.0000
# 3 6.1785 34.6844 79.2915 0.0000 0.0000 0.0000
# 4 0.0000 0.0000 0.0000 30.3616 0.0000 0.0000
# 5 0.0000 0.0000 0.0000 0.0000 27.6506 0.0000
# 6 0.0000 0.0000 0.0000 0.0000 0.0000 33.3312
#
#
#
# Elastic Compliance Matrix: (Units=1/GPa)
#
#
# Indices 1 2 3 4 5 6 
#
# 1 0.020471 -0.010741 0.003103 0.000000 0.000000 0.000000
# 2 -0.010741 0.014514 -0.005512 0.000000 0.000000 0.000000
# 3 0.003103 -0.005512 0.014781 0.000000 0.000000 0.000000
# 4 0.000000 0.000000 0.000000 0.032936 0.000000 0.000000
# 5 0.000000 0.000000 0.000000 0.000000 0.036166 0.000000
# 6 0.000000 0.000000 0.000000 0.000000 0.000000 0.030002
#
#
# Mechanical properties :
#
#
# Convention : Reuss Voigt Hill
#
# Bulk Modulus (GPa) = 42.61335 54.75203 48.68269
# Shear Modulus (GPa) = 27.32378 30.58701 28.95540
#
# Velocity S-wave (km/s) = 3.53354 3.73859 3.63751
# Velocity P-wave (km/s) = 6.01003 6.60723 6.31569
#
# Compressibility (1/GPa) = 0.02346683
#
# Stress axis : x y z
#
# Youngs Moduli (GPa) = 48.84927 68.90012 67.65496
#
# Poissons Ratio (x) = 0.74005 -0.20995
# Poissons Ratio (y) = 0.52469 0.37290
# Poissons Ratio (z) = -0.15159 0.37976
#
# Static dielectric constant tensor:
#      x y z
#    x 1.860510 0.000000 0.000000 
#    y 0.000000 1.872540 0.000000 
#    z 0.000000 0.000000 1.807250 
# 
# From -- ./inp_files/38708.got.cif
#   From: 2010.05.17/outbox.cif.g08.bks.cpg/sg70_20_cif.got.tgz:38708.got - 2010.06.03 15:57:51.
