data_PCOD9516148
_publ_section_title
;
Structure prediction by ZEFSAII (Michael W. Deem and Ramdas Pophale) SiO2 
 PCOD9516148
Probable space group: F D D D
;
_chemical_formula_sum "Si O2"
_cell_formula_units_Z 136
_cell_length_a 25.290197
_cell_length_b 23.029394
_cell_length_c 10.781947
_cell_angle_alpha 90.000000
_cell_angle_beta 90.000000
_cell_angle_gamma 90.000000
_cell_volume 6279.599049
_symmetry_space_group_name_H-M "F D D D"
_symmetry_group_IT_number 70
_space_group.IT_coordinate_system_code '2'
_symmetry_cell_setting 'orthorhombic'
loop_
_space_group_symop_operation_xyz
x,y,z
1/4-x,1/4-y,z
x,1/4-y,1/4-z
1/4-x,y,1/4-z
-x,-y,-z
3/4+x,3/4+y,-z
-x,3/4+y,3/4+z
3/4+x,-y,3/4+z
x,1/2+y,1/2+z
1/4-x,3/4-y,1/2+z
x,3/4-y,3/4-z
1/4-x,1/2+y,3/4-z
-x,1/2-y,1/2-z
3/4+x,1/4+y,1/2-z
-x,1/4+y,1/4+z
3/4+x,1/2-y,1/4+z
1/2+x,y,1/2+z
3/4-x,1/4-y,1/2+z
1/2+x,1/4-y,3/4-z
3/4-x,y,3/4-z
1/2-x,-y,1/2-z
1/4+x,3/4+y,1/2-z
1/2-x,3/4+y,1/4+z
1/4+x,-y,1/4+z
1/2+x,1/2+y,z
3/4-x,3/4-y,z
1/2+x,3/4-y,1/4-z
3/4-x,1/2+y,1/4-z
1/2-x,1/2-y,-z
1/4+x,1/4+y,-z
1/2-x,1/4+y,3/4+z
1/4+x,1/2-y,3/4+z
loop_
_atom_site_type_symbol
_atom_site_label
_atom_site_fract_x
_atom_site_fract_y
_atom_site_fract_z
Si Si1 0.625000 0.125000 0.625000
Si Si2 0.121967 0.055956 0.485598
Si Si3 0.114521 0.839555 0.491764
Si Si4 0.539928 0.981826 0.390849
Si Si5 0.944511 0.280837 0.521688
O O1 0.661315 0.082114 0.544169
O O2 0.125000 0.125000 0.489242
O O3 0.125000 0.032996 0.625000
O O4 0.068618 0.036889 0.416212
O O5 0.170684 0.032408 0.403910
O O6 0.125000 0.869324 0.625000
O O7 0.091391 0.875000 0.375000
O O8 0.170784 0.816712 0.441641
O O9 0.078901 0.782200 0.516656
O O10 0.503858 0.963927 0.275148
O O11 0.500000 0.000000 0.500000
#
# Coordination Sequence:
#
# PCOD9516148 Si02
#       5
#     8  32  32  32  32
#     4  12  20  40  78 104 136 172 244 316 344 380
#     4  10  23  43  65  98 146 181 220 295 360 421
#     4  11  24  44  65 101 150 178 222 298 360 420
#     4  11  23  42  73 101 127 177 255 284 339 419
#     4  11  22  42  72 102 131 181 241 296 345 411
#
# _framework density 21.657433000000001
#
# number of rings (size 3 to 8) (size 9 to 14) (size 15 to 20)
#    0.000    1.176    4.706    1.412    1.647    4.706 
#    4.235    0.000    0.000    0.000    0.000    0.000 
#    0.000    0.000    0.000    0.000    0.000    0.000 
#
# Total GULP energy -190002.855164 kJ/mol
# GULP energy per Si atom -5588.319270 kJ/mol
# Density = 2.160814 g / cm^3
# Si number density = 21.657433 Si / 1000 Ang^3
#
#
#
# Elastic Constant Matrix: (Units=GPa)
#
#
# Indices 1 2 3 4 5 6 
#
# 1 97.1090 15.4118 29.2466 -0.0001 0.0001 0.0000
# 2 15.4118 78.9616 30.6989 -0.0003 0.0002 0.0001
# 3 29.2466 30.6989 151.0636 -0.0007 0.0004 0.0003
# 4 -0.0001 -0.0003 -0.0007 29.4085 0.0002 0.0002
# 5 0.0001 0.0002 0.0004 0.0002 43.5527 -0.0001
# 6 0.0000 0.0001 0.0003 0.0002 -0.0001 4.5810
#
#
#
# Elastic Compliance Matrix: (Units=1/GPa)
#
#
# Indices 1 2 3 4 5 6 
#
# 1 0.011085 -0.001443 -0.001853 0.000000 0.000000 0.000000
# 2 -0.001443 0.013939 -0.002553 0.000000 0.000000 0.000000
# 3 -0.001853 -0.002553 0.007497 0.000000 0.000000 0.000000
# 4 0.000000 0.000000 0.000000 0.034004 0.000000 -0.000001
# 5 0.000000 0.000000 0.000000 0.000000 0.022961 0.000000
# 6 0.000000 0.000000 0.000000 -0.000001 0.000000 0.218291
#
#
# Mechanical properties :
#
#
# Convention : Reuss Voigt Hill
#
# Bulk Modulus (GPa) = 48.02519 53.09433 50.55976
# Shear Modulus (GPa) = 15.31792 32.29356 23.80574
#
# Velocity S-wave (km/s) = 2.66236 3.86568 3.31901
# Velocity P-wave (km/s) = 5.62796 6.67033 6.17120
#
# Compressibility (1/GPa) = 0.02082241
#
# Stress axis : x y z
#
# Youngs Moduli (GPa) = 90.21397 71.74263 133.38151
#
# Poissons Ratio (x) = 0.10354 0.24713
# Poissons Ratio (y) = 0.13020 0.34055
# Poissons Ratio (z) = 0.16715 0.18317
#
# Static dielectric constant tensor:
#      x y z
#    x 1.781470 0.000000 0.000000 
#    y 0.000000 1.804480 0.000000 
#    z 0.000000 0.000000 1.870130 
# 
# From -- ./inp_files/18945.got.cif
#   From: 2010.05.17/outbox.cif.g08.bks.cpg/sg70_10_cif.got.tgz:18945.got - 2010.06.03 15:57:51.
