data_PCOD9516961
_publ_section_title
;
Structure prediction by ZEFSAII (Michael W. Deem and Ramdas Pophale) SiO2 
 PCOD9516961
Probable space group: F D D D
;
_chemical_formula_sum "Si O2"
_cell_formula_units_Z 112
_cell_length_a 10.720816
_cell_length_b 13.674420
_cell_length_c 34.676131
_cell_angle_alpha 90.000000
_cell_angle_beta 90.000000
_cell_angle_gamma 90.000000
_cell_volume 5083.553425
_symmetry_space_group_name_H-M "F D D D"
_symmetry_group_IT_number 70
_space_group.IT_coordinate_system_code '2'
_symmetry_cell_setting 'orthorhombic'
loop_
_space_group_symop_operation_xyz
x,y,z
1/4-x,1/4-y,z
x,1/4-y,1/4-z
1/4-x,y,1/4-z
-x,-y,-z
3/4+x,3/4+y,-z
-x,3/4+y,3/4+z
3/4+x,-y,3/4+z
x,1/2+y,1/2+z
1/4-x,3/4-y,1/2+z
x,3/4-y,3/4-z
1/4-x,1/2+y,3/4-z
-x,1/2-y,1/2-z
3/4+x,1/4+y,1/2-z
-x,1/4+y,1/4+z
3/4+x,1/2-y,1/4+z
1/2+x,y,1/2+z
3/4-x,1/4-y,1/2+z
1/2+x,1/4-y,3/4-z
3/4-x,y,3/4-z
1/2-x,-y,1/2-z
1/4+x,3/4+y,1/2-z
1/2-x,3/4+y,1/4+z
1/4+x,-y,1/4+z
1/2+x,1/2+y,z
3/4-x,3/4-y,z
1/2+x,3/4-y,1/4-z
3/4-x,1/2+y,1/4-z
1/2-x,1/2-y,-z
1/4+x,1/4+y,-z
1/2-x,1/4+y,3/4+z
1/4+x,1/2-y,3/4+z
loop_
_atom_site_type_symbol
_atom_site_label
_atom_site_fract_x
_atom_site_fract_y
_atom_site_fract_z
Si Si1 0.333944 0.079397 0.772644
Si Si2 0.237769 0.763067 0.387130
Si Si3 0.625000 0.625000 0.831792
Si Si4 0.146907 0.233974 0.281766
O O1 0.245403 0.122252 0.805283
O O2 0.454800 0.024909 0.789746
O O3 0.368733 0.171779 0.745395
O O4 0.250000 0.000000 0.750000
O O5 0.242045 0.875000 0.375000
O O6 0.375000 0.722593 0.375000
O O7 0.134000 0.715944 0.359969
O O8 0.192555 0.745269 0.430931
O O9 0.125000 0.125000 0.264412
#
# Coordination Sequence:
#
# PCOD9516961 Si02
#       4
#    32  32  16  32
#     4  12  25  46  74 108 150 193 249 309 378 452
#     4  11  26  47  74 103 146 194 248 309 375 445
#     4  12  24  46  72 106 147 190 250 305 370 450
#     4  12  25  47  72 110 143 197 248 312 377 451
#
# _framework density 22.031834
#
# number of rings (size 3 to 8) (size 9 to 14) (size 15 to 20)
#    0.000    0.286    4.286    4.286    0.000    0.000 
#    0.000    1.429    0.000    0.000    0.000    0.000 
#    0.000    0.000    0.000    0.000    0.000    0.000 
#
# Total GULP energy -156423.413105 kJ/mol
# GULP energy per Si atom -5586.550468 kJ/mol
# Density = 2.198169 g / cm^3
# Si number density = 22.031834 Si / 1000 Ang^3
#
#
#
# Elastic Constant Matrix: (Units=GPa)
#
#
# Indices 1 2 3 4 5 6 
#
# 1 142.9122 21.4382 61.7242 0.0000 0.0000 0.0000
# 2 21.4382 122.7656 57.8016 0.0000 0.0000 0.0000
# 3 61.7242 57.8016 136.7487 0.0000 0.0000 0.0000
# 4 0.0000 0.0000 0.0000 38.9674 0.0000 0.0000
# 5 0.0000 0.0000 0.0000 0.0000 60.5656 0.0000
# 6 0.0000 0.0000 0.0000 0.0000 0.0000 46.5373
#
#
#
# Elastic Compliance Matrix: (Units=1/GPa)
#
#
# Indices 1 2 3 4 5 6 
#
# 1 0.008708 0.000412 -0.004105 0.000000 0.000000 0.000000
# 2 0.000412 0.010189 -0.004493 0.000000 0.000000 0.000000
# 3 -0.004105 -0.004493 0.011064 0.000000 0.000000 0.000000
# 4 0.000000 0.000000 0.000000 0.025662 0.000000 0.000000
# 5 0.000000 0.000000 0.000000 0.000000 0.016511 0.000000
# 6 0.000000 0.000000 0.000000 0.000000 0.000000 0.021488
#
#
# Mechanical properties :
#
#
# Convention : Reuss Voigt Hill
#
# Bulk Modulus (GPa) = 73.57957 76.03938 74.80947
# Shear Modulus (GPa) = 43.65870 46.64491 45.15180
#
# Velocity S-wave (km/s) = 4.45637 4.60625 4.53193
# Velocity P-wave (km/s) = 7.74263 7.92959 7.83667
#
# Compressibility (1/GPa) = 0.01359073
#
# Stress axis : x y z
#
# Youngs Moduli (GPa) = 114.83168 98.14565 90.37945
#
# Poissons Ratio (x) = -0.04043 0.37099
# Poissons Ratio (y) = -0.04731 0.40604
# Poissons Ratio (z) = 0.47137 0.44093
#
# Static dielectric constant tensor:
#      x y z
#    x 1.891610 0.000000 0.000000 
#    y 0.000000 1.751440 0.000000 
#    z 0.000000 0.000000 1.810560 
# 
# From -- ./inp_files/15003.got.cif
#   From: 2010.05.17/outbox.cif.g08.bks.cpg/sg70_8_cif.got.tgz:15003.got - 2010.06.03 15:57:51.
