data_PCOD9516082
_publ_section_title
;
Structure prediction by ZEFSAII (Michael W. Deem and Ramdas Pophale) SiO2 
 PCOD9516082
Probable space group: F D D D
;
_chemical_formula_sum "Si O2"
_cell_formula_units_Z 168
_cell_length_a 14.971600
_cell_length_b 22.767867
_cell_length_c 22.767872
_cell_angle_alpha 90.000000
_cell_angle_beta 90.000000
_cell_angle_gamma 90.000000
_cell_volume 7760.916348
_symmetry_space_group_name_H-M "F D D D"
_symmetry_group_IT_number 70
_space_group.IT_coordinate_system_code '2'
_symmetry_cell_setting 'orthorhombic'
loop_
_space_group_symop_operation_xyz
x,y,z
1/4-x,1/4-y,z
x,1/4-y,1/4-z
1/4-x,y,1/4-z
-x,-y,-z
3/4+x,3/4+y,-z
-x,3/4+y,3/4+z
3/4+x,-y,3/4+z
x,1/2+y,1/2+z
1/4-x,3/4-y,1/2+z
x,3/4-y,3/4-z
1/4-x,1/2+y,3/4-z
-x,1/2-y,1/2-z
3/4+x,1/4+y,1/2-z
-x,1/4+y,1/4+z
3/4+x,1/2-y,1/4+z
1/2+x,y,1/2+z
3/4-x,1/4-y,1/2+z
1/2+x,1/4-y,3/4-z
3/4-x,y,3/4-z
1/2-x,-y,1/2-z
1/4+x,3/4+y,1/2-z
1/2-x,3/4+y,1/4+z
1/4+x,-y,1/4+z
1/2+x,1/2+y,z
3/4-x,3/4-y,z
1/2+x,3/4-y,1/4-z
3/4-x,1/2+y,1/4-z
1/2-x,1/2-y,-z
1/4+x,1/4+y,-z
1/2-x,1/4+y,3/4+z
1/4+x,1/2-y,3/4+z
loop_
_atom_site_type_symbol
_atom_site_label
_atom_site_fract_x
_atom_site_fract_y
_atom_site_fract_z
Si Si1 0.875000 0.194729 0.875000
Si Si2 0.125000 0.625000 0.625000
Si Si3 0.828705 0.669095 0.169096
Si Si4 0.907272 0.278488 0.471512
Si Si5 0.429202 0.143911 0.978174
Si Si6 0.929202 0.478175 0.143911
Si Si7 0.875000 0.375000 0.694729
O O1 0.849912 0.152066 0.928570
O O2 0.786813 0.230651 0.857498
O O3 0.141964 0.677526 0.572474
O O4 0.775283 0.625000 0.125000
O O5 0.760141 0.706665 0.206665
O O6 0.887445 0.629858 0.211977
O O7 0.887446 0.711976 0.129858
O O8 0.894216 0.208874 0.462240
O O9 0.894216 0.287759 0.541126
O O10 0.536813 0.142502 0.980651
O O11 0.900087 0.428570 0.097934
#
# Coordination Sequence:
#
# PCOD9516082 Si02
#       7
#    16   8  32  32  32  32  16
#     4  10  23  40  65  99 130 179 224 272 344 410
#     4  12  28  44  72 100 132 174 244 280 356 408
#     4  12  24  44  68  97 133 177 227 280 343 409
#     4  12  24  45  67  99 133 177 229 291 339 416
#     4  11  23  42  67  97 138 176 226 280 342 412
#     4  11  23  42  67  97 138 176 226 280 342 412
#     4  10  23  40  65  99 130 179 224 272 344 410
#
# _framework density 21.646929
#
# number of rings (size 3 to 8) (size 9 to 14) (size 15 to 20)
#    0.000    0.762    6.667    1.143    0.000    4.571 
#    0.000    1.905    0.000    0.000    0.000    0.000 
#    0.000    0.000    0.000    0.000    0.000    0.000 
#
# Total GULP energy -234487.307934 kJ/mol
# GULP energy per Si atom -5583.031141 kJ/mol
# Density = 2.159766 g / cm^3
# Si number density = 21.646929 Si / 1000 Ang^3
#
#
#
# Elastic Constant Matrix: (Units=GPa)
#
#
# Indices 1 2 3 4 5 6 
#
# 1 95.3241 40.1761 40.1760 0.0000 0.0000 0.0000
# 2 40.1761 139.3261 64.1734 0.0000 0.0000 0.0000
# 3 40.1760 64.1734 139.3257 0.0000 0.0000 0.0000
# 4 0.0000 0.0000 0.0000 43.8385 0.0000 0.0000
# 5 0.0000 0.0000 0.0000 0.0000 36.6140 0.0000
# 6 0.0000 0.0000 0.0000 0.0000 0.0000 36.6139
#
#
#
# Elastic Compliance Matrix: (Units=1/GPa)
#
#
# Indices 1 2 3 4 5 6 
#
# 1 0.012585 -0.002485 -0.002485 0.000000 0.000000 0.000000
# 2 -0.002485 0.009601 -0.003706 0.000000 0.000000 0.000000
# 3 -0.002485 -0.003706 0.009601 0.000000 0.000000 0.000000
# 4 0.000000 0.000000 0.000000 0.022811 0.000000 0.000000
# 5 0.000000 0.000000 0.000000 0.000000 0.027312 0.000000
# 6 0.000000 0.000000 0.000000 0.000000 0.000000 0.027312
#
#
# Mechanical properties :
#
#
# Convention : Reuss Voigt Hill
#
# Bulk Modulus (GPa) = 69.26802 73.66965 71.46883
# Shear Modulus (GPa) = 38.05666 38.70995 38.38331
#
# Velocity S-wave (km/s) = 4.19747 4.23335 4.21545
# Velocity P-wave (km/s) = 7.45387 7.61586 7.53530
#
# Compressibility (1/GPa) = 0.01443668
#
# Stress axis : x y z
#
# Youngs Moduli (GPa) = 79.46045 104.15951 104.15922
#
# Poissons Ratio (x) = 0.25879 0.25879
# Poissons Ratio (y) = 0.19743 0.38597
# Poissons Ratio (z) = 0.19743 0.38597
#
# Static dielectric constant tensor:
#      x y z
#    x 1.670630 0.000000 0.000000 
#    y 0.000000 1.767660 0.000000 
#    z 0.000000 0.000000 1.767660 
# 
# From -- ./inp_files/37570.got.cif
#   From: 2010.05.17/outbox.cif.g08.bks.cpg/sg70_19_cif.got.tgz:37570.got - 2010.06.03 15:57:51.
