data_PCOD9516399
_publ_section_title
;
Structure prediction by ZEFSAII (Michael W. Deem and Ramdas Pophale) SiO2 
 PCOD9516399
Probable space group: F D D D
;
_chemical_formula_sum "Si O2"
_cell_formula_units_Z 176
_cell_length_a 23.455064
_cell_length_b 13.505749
_cell_length_c 26.103204
_cell_angle_alpha 90.000000
_cell_angle_beta 90.000000
_cell_angle_gamma 90.000000
_cell_volume 8268.926164
_symmetry_space_group_name_H-M "F D D D"
_symmetry_group_IT_number 70
_space_group.IT_coordinate_system_code '2'
_symmetry_cell_setting 'orthorhombic'
loop_
_space_group_symop_operation_xyz
x,y,z
1/4-x,1/4-y,z
x,1/4-y,1/4-z
1/4-x,y,1/4-z
-x,-y,-z
3/4+x,3/4+y,-z
-x,3/4+y,3/4+z
3/4+x,-y,3/4+z
x,1/2+y,1/2+z
1/4-x,3/4-y,1/2+z
x,3/4-y,3/4-z
1/4-x,1/2+y,3/4-z
-x,1/2-y,1/2-z
3/4+x,1/4+y,1/2-z
-x,1/4+y,1/4+z
3/4+x,1/2-y,1/4+z
1/2+x,y,1/2+z
3/4-x,1/4-y,1/2+z
1/2+x,1/4-y,3/4-z
3/4-x,y,3/4-z
1/2-x,-y,1/2-z
1/4+x,3/4+y,1/2-z
1/2-x,3/4+y,1/4+z
1/4+x,-y,1/4+z
1/2+x,1/2+y,z
3/4-x,3/4-y,z
1/2+x,3/4-y,1/4-z
3/4-x,1/2+y,1/4-z
1/2-x,1/2-y,-z
1/4+x,1/4+y,-z
1/2-x,1/4+y,3/4+z
1/4+x,1/2-y,3/4+z
loop_
_atom_site_type_symbol
_atom_site_label
_atom_site_fract_x
_atom_site_fract_y
_atom_site_fract_z
Si Si1 0.125000 0.125000 0.040789
Si Si2 0.598347 0.911142 0.675107
Si Si3 0.251389 0.382767 0.745827
Si Si4 0.367788 0.168191 0.214890
Si Si5 0.007342 0.160120 0.879009
Si Si6 0.553048 0.875000 0.875000
Si Si7 0.625000 0.125000 0.337117
O O1 0.126618 0.229299 0.070939
O O2 0.066364 0.142483 0.010037
O O3 0.625000 0.859434 0.625000
O O4 0.610257 0.860190 0.729007
O O5 0.532184 0.900544 0.660330
O O6 0.250000 0.500000 0.750000
O O7 0.200546 0.346048 0.782760
O O8 0.238472 0.350622 0.687782
O O9 0.404092 0.106626 0.172937
O O10 0.380582 0.279751 0.198527
O O11 0.015041 0.277044 0.866730
O O12 0.070124 0.115309 0.872656
#
# Coordination Sequence:
#
# PCOD9516399 Si02
#       7
#    16  32  32  32  32  16  16
#     4  12  24  42  68  99 142 187 225 291 350 430
#     4  12  24  45  65 100 140 179 230 287 355 414
#     4  12  24  41  71 103 140 182 230 293 355 424
#     4  11  24  46  68 104 138 180 241 287 357 424
#     4  11  24  45  70 102 140 182 236 290 356 425
#     4  10  26  46  75  99 138 188 236 296 350 424
#     4  10  25  42  69  99 136 188 231 294 344 428
#
# _framework density 21.284504999999999
#
# number of rings (size 3 to 8) (size 9 to 14) (size 15 to 20)
#    0.000    0.727    3.636    3.000    5.091    4.364 
#    3.273    0.000    0.000    0.000    0.000    0.000 
#    0.000    0.000    0.000    0.000    0.000    0.000 
#
# Total GULP energy -245591.853177 kJ/mol
# GULP energy per Si atom -5581.633027 kJ/mol
# Density = 2.123606 g / cm^3
# Si number density = 21.284505 Si / 1000 Ang^3
#
#
#
# Elastic Constant Matrix: (Units=GPa)
#
#
# Indices 1 2 3 4 5 6 
#
# 1 103.9235 -6.4443 13.7566 0.0000 0.0000 0.0000
# 2 -6.4443 64.9477 5.0992 0.0000 0.0000 0.0000
# 3 13.7566 5.0992 96.3104 0.0000 0.0000 0.0000
# 4 0.0000 0.0000 0.0000 18.9214 0.0000 0.0000
# 5 0.0000 0.0000 0.0000 0.0000 -6.3515 0.0000
# 6 0.0000 0.0000 0.0000 0.0000 0.0000 31.1329
#
#
#
# Elastic Compliance Matrix: (Units=1/GPa)
#
#
# Indices 1 2 3 4 5 6 
#
# 1 0.009885 0.001096 -0.001470 0.000000 0.000000 0.000000
# 2 0.001096 0.015583 -0.000982 0.000000 0.000000 0.000000
# 3 -0.001470 -0.000982 0.010645 0.000000 0.000000 0.000000
# 4 0.000000 0.000000 0.000000 0.052850 0.000000 0.000000
# 5 0.000000 0.000000 0.000000 0.000000 -0.157444 0.000000
# 6 0.000000 0.000000 0.000000 0.000000 0.000000 0.032120
#
#
# Mechanical properties :
#
#
# Convention : Reuss Voigt Hill
#
# Bulk Modulus (GPa) = 29.93820 32.22275 31.08048
# Shear Modulus (GPa) = -222.06673 25.59190 -98.23742
#
# Velocity S-wave (km/s) = -10.22541 3.47129 -6.80108
# Velocity P-wave (km/s) = 11.19446 5.58913 6.85848
#
# Compressibility (1/GPa) = 0.03340214
#
# Stress axis : x y z
#
# Youngs Moduli (GPa) = 101.16318 64.17318 93.94052
#
# Poissons Ratio (x) = -0.07035 0.13809
# Poissons Ratio (y) = -0.11090 0.09221
# Poissons Ratio (z) = 0.14871 0.06299
#
# Static dielectric constant tensor:
#      x y z
#    x 1.868420 0.000000 0.000000 
#    y 0.000000 1.803780 0.000000 
#    z 0.000000 0.000000 1.784970 
# 
# From -- ./inp_files/30039.got.cif
#   From: 2010.05.17/outbox.cif.g08.bks.cpg/sg70_16_cif.got.tgz:30039.got - 2010.06.03 15:57:51.
