data_PCOD9516701
_publ_section_title
;
Structure prediction by ZEFSAII (Michael W. Deem and Ramdas Pophale) SiO2 
 PCOD9516701
Probable space group: F D D D
;
_chemical_formula_sum "Si O2"
_cell_formula_units_Z 104
_cell_length_a 31.938940
_cell_length_b 22.833593
_cell_length_c 6.451090
_cell_angle_alpha 90.000000
_cell_angle_beta 90.000000
_cell_angle_gamma 90.000000
_cell_volume 4704.655797
_symmetry_space_group_name_H-M "F D D D"
_symmetry_group_IT_number 70
_space_group.IT_coordinate_system_code '2'
_symmetry_cell_setting 'orthorhombic'
loop_
_space_group_symop_operation_xyz
x,y,z
1/4-x,1/4-y,z
x,1/4-y,1/4-z
1/4-x,y,1/4-z
-x,-y,-z
3/4+x,3/4+y,-z
-x,3/4+y,3/4+z
3/4+x,-y,3/4+z
x,1/2+y,1/2+z
1/4-x,3/4-y,1/2+z
x,3/4-y,3/4-z
1/4-x,1/2+y,3/4-z
-x,1/2-y,1/2-z
3/4+x,1/4+y,1/2-z
-x,1/4+y,1/4+z
3/4+x,1/2-y,1/4+z
1/2+x,y,1/2+z
3/4-x,1/4-y,1/2+z
1/2+x,1/4-y,3/4-z
3/4-x,y,3/4-z
1/2-x,-y,1/2-z
1/4+x,3/4+y,1/2-z
1/2-x,3/4+y,1/4+z
1/4+x,-y,1/4+z
1/2+x,1/2+y,z
3/4-x,3/4-y,z
1/2+x,3/4-y,1/4-z
3/4-x,1/2+y,1/4-z
1/2-x,1/2-y,-z
1/4+x,1/4+y,-z
1/2-x,1/4+y,3/4+z
1/4+x,1/2-y,3/4+z
loop_
_atom_site_type_symbol
_atom_site_label
_atom_site_fract_x
_atom_site_fract_y
_atom_site_fract_z
Si Si1 0.157911 0.309438 0.946200
Si Si2 0.625000 0.125000 0.125000
Si Si3 0.684995 0.026689 0.156642
Si Si4 0.975234 0.562572 0.228009
O O1 0.125000 0.292024 0.125000
O O2 0.203973 0.311981 0.048604
O O3 0.146302 0.375000 0.875000
O O4 0.161018 0.264737 0.756938
O O5 0.656374 0.079972 0.237271
O O6 0.725310 0.052409 0.035522
O O7 0.703066 0.987267 0.340459
O O8 0.965518 0.625000 0.125000
#
# Coordination Sequence:
#
# PCOD9516701 Si02
#       4
#    32   8  32  32
#     4  12  25  41  67 101 133 177 234 285 337 408
#     4  12  24  44  66 100 136 186 212 278 358 404
#     4  11  25  44  70  97 143 175 224 288 346 420
#     4  11  22  46  71 102 130 183 234 281 350 409
#
# _framework density 22.105763
#
# number of rings (size 3 to 8) (size 9 to 14) (size 15 to 20)
#    0.000    0.615    4.615    3.692    2.154    0.000 
#    0.000    6.923    0.000    0.000    0.000    0.000 
#    0.000    0.000    0.000    0.000    0.000    0.000 
#
# Total GULP energy -145428.377752 kJ/mol
# GULP energy per Si atom -5593.399144 kJ/mol
# Density = 2.205545 g / cm^3
# Si number density = 22.105763 Si / 1000 Ang^3
#
#
#
# Elastic Constant Matrix: (Units=GPa)
#
#
# Indices 1 2 3 4 5 6 
#
# 1 125.9302 48.0314 27.5073 0.0005 -0.0003 0.0027
# 2 48.0314 128.2005 14.9026 0.0057 -0.0004 -0.0047
# 3 27.5073 14.9026 54.6962 0.0111 -0.0015 -0.0067
# 4 0.0005 0.0057 0.0111 19.9142 -0.0006 -0.0029
# 5 -0.0003 -0.0004 -0.0015 -0.0006 43.1571 0.0014
# 6 0.0027 -0.0047 -0.0067 -0.0029 0.0014 27.9976
#
#
#
# Elastic Compliance Matrix: (Units=1/GPa)
#
#
# Indices 1 2 3 4 5 6 
#
# 1 0.010115 -0.003303 -0.004187 0.000003 0.000000 -0.000003
# 2 -0.003303 0.009134 -0.000828 -0.000002 0.000000 0.000002
# 3 -0.004187 -0.000828 0.020614 -0.000011 0.000001 0.000005
# 4 0.000003 -0.000002 -0.000011 0.050215 0.000001 0.000005
# 5 0.000000 0.000000 0.000001 0.000001 0.023171 -0.000001
# 6 -0.000003 0.000002 0.000005 0.000005 -0.000001 0.035717
#
#
# Mechanical properties :
#
#
# Convention : Reuss Voigt Hill
#
# Bulk Modulus (GPa) = 43.05166 54.41218 48.73192
# Shear Modulus (GPa) = 28.84412 32.77281 30.80847
#
# Velocity S-wave (km/s) = 3.61615 3.85456 3.73726
# Velocity P-wave (km/s) = 6.07890 6.66919 6.38087
#
# Compressibility (1/GPa) = 0.02322791
#
# Stress axis : x y z
#
# Youngs Moduli (GPa) = 98.85964 109.48107 48.51061
#
# Poissons Ratio (x) = 0.36162 0.20312
# Poissons Ratio (y) = 0.32654 0.04014
# Poissons Ratio (z) = 0.41394 0.09060
#
# Static dielectric constant tensor:
#      x y z
#    x 1.881350 0.000000 0.000000 
#    y 0.000000 1.796390 -0.000010 
#    z 0.000000 -0.000010 1.798620 
# 
# From -- ./inp_files/11703.got.cif
#   From: 2010.05.17/outbox.cif.g08.bks.cpg/sg70_6_cif.got.tgz:11703.got - 2010.06.03 15:57:51.
