data_PCOD9516084
_publ_section_title
;
Structure prediction by ZEFSAII (Michael W. Deem and Ramdas Pophale) SiO2 
 PCOD9516084
Probable space group: F D D D
;
_chemical_formula_sum "Si O2"
_cell_formula_units_Z 168
_cell_length_a 20.828523
_cell_length_b 27.883691
_cell_length_c 14.093737
_cell_angle_alpha 90.000000
_cell_angle_beta 90.000000
_cell_angle_gamma 90.000000
_cell_volume 8185.305600
_symmetry_space_group_name_H-M "F D D D"
_symmetry_group_IT_number 70
_space_group.IT_coordinate_system_code '2'
_symmetry_cell_setting 'orthorhombic'
loop_
_space_group_symop_operation_xyz
x,y,z
1/4-x,1/4-y,z
x,1/4-y,1/4-z
1/4-x,y,1/4-z
-x,-y,-z
3/4+x,3/4+y,-z
-x,3/4+y,3/4+z
3/4+x,-y,3/4+z
x,1/2+y,1/2+z
1/4-x,3/4-y,1/2+z
x,3/4-y,3/4-z
1/4-x,1/2+y,3/4-z
-x,1/2-y,1/2-z
3/4+x,1/4+y,1/2-z
-x,1/4+y,1/4+z
3/4+x,1/2-y,1/4+z
1/2+x,y,1/2+z
3/4-x,1/4-y,1/2+z
1/2+x,1/4-y,3/4-z
3/4-x,y,3/4-z
1/2-x,-y,1/2-z
1/4+x,3/4+y,1/2-z
1/2-x,3/4+y,1/4+z
1/4+x,-y,1/4+z
1/2+x,1/2+y,z
3/4-x,3/4-y,z
1/2+x,3/4-y,1/4-z
3/4-x,1/2+y,1/4-z
1/2-x,1/2-y,-z
1/4+x,1/4+y,-z
1/2-x,1/4+y,3/4+z
1/4+x,1/2-y,3/4+z
loop_
_atom_site_type_symbol
_atom_site_label
_atom_site_fract_x
_atom_site_fract_y
_atom_site_fract_z
Si Si1 0.151969 0.458471 0.224992
Si Si2 0.788457 0.822545 0.016630
Si Si3 0.875000 0.875000 0.375000
Si Si4 0.286536 0.942066 0.755932
Si Si5 0.279102 0.735423 0.650675
Si Si6 0.561561 0.183179 0.465215
O O1 0.125000 0.439375 0.125000
O O2 0.211666 0.428962 0.265928
O O3 0.191163 0.507248 0.200191
O O4 0.096379 0.470410 0.300335
O O5 0.778443 0.789737 0.110735
O O6 0.865063 0.816941 0.998835
O O7 0.780585 0.880037 0.020849
O O8 0.743242 0.798861 0.936636
O O9 0.920141 0.904744 0.442126
O O10 0.306523 0.942727 0.646037
O O11 0.226641 0.724124 0.730202
#
# Coordination Sequence:
#
# PCOD9516084 Si02
#       6
#    32  32   8  32  32  32
#     4  11  22  43  64  93 127 172 216 275 339 407
#     4  10  23  40  66 101 129 177 226 271 338 415
#     4  12  24  44  64  96 126 172 230 284 324 412
#     4  11  24  40  67  91 124 171 224 274 334 406
#     4  11  22  40  67  95 134 170 222 276 341 412
#     4  11  21  42  68  93 134 177 224 280 335 412
#
# _framework density 20.524584999999998
#
# number of rings (size 3 to 8) (size 9 to 14) (size 15 to 20)
#    0.000    1.143    4.762    2.286    0.000    1.524 
#    3.429    0.000   12.571    0.000    0.000    0.000 
#    0.000    0.000    0.000    0.000    0.000    0.000 
#
# Total GULP energy -234392.988128 kJ/mol
# GULP energy per Si atom -5580.785432 kJ/mol
# Density = 2.047787 g / cm^3
# Si number density = 20.524585 Si / 1000 Ang^3
#
#
#
# Elastic Constant Matrix: (Units=GPa)
#
#
# Indices 1 2 3 4 5 6 
#
# 1 124.1095 21.3068 45.7664 0.0000 0.0000 0.0000
# 2 21.3068 67.9813 21.3009 0.0000 0.0000 0.0000
# 3 45.7664 21.3009 105.7145 0.0000 0.0000 0.0000
# 4 0.0000 0.0000 0.0000 13.2567 0.0000 0.0000
# 5 0.0000 0.0000 0.0000 0.0000 39.5602 0.0000
# 6 0.0000 0.0000 0.0000 0.0000 0.0000 30.9570
#
#
#
# Elastic Compliance Matrix: (Units=1/GPa)
#
#
# Indices 1 2 3 4 5 6 
#
# 1 0.009804 -0.001860 -0.003869 0.000000 0.000000 0.000000
# 2 -0.001860 0.016054 -0.002429 0.000000 0.000000 0.000000
# 3 -0.003869 -0.002429 0.011624 0.000000 0.000000 0.000000
# 4 0.000000 0.000000 0.000000 0.075433 0.000000 0.000000
# 5 0.000000 0.000000 0.000000 0.000000 0.025278 0.000000
# 6 0.000000 0.000000 0.000000 0.000000 0.000000 0.032303
#
#
# Mechanical properties :
#
#
# Convention : Reuss Voigt Hill
#
# Bulk Modulus (GPa) = 47.25073 52.72816 49.98945
# Shear Modulus (GPa) = 25.79061 30.71687 28.25374
#
# Velocity S-wave (km/s) = 3.54866 3.87277 3.71425
# Velocity P-wave (km/s) = 6.31365 6.76342 6.54240
#
# Compressibility (1/GPa) = 0.02116369
#
# Stress axis : x y z
#
# Youngs Moduli (GPa) = 102.00294 62.28900 86.02795
#
# Poissons Ratio (x) = 0.11587 0.33288
# Poissons Ratio (y) = 0.18975 0.20900
# Poissons Ratio (z) = 0.39469 0.15133
#
# Static dielectric constant tensor:
#      x y z
#    x 1.692460 0.000000 0.000000 
#    y 0.000000 1.692070 0.000000 
#    z 0.000000 0.000000 1.731390 
# 
# From -- ./inp_files/27681.got.cif
#   From: 2010.05.17/outbox.cif.g08.bks.cpg/sg70_14_cif.got.tgz:27681.got - 2010.06.03 15:57:51.
