data_PCOD9516415
_publ_section_title
;
Structure prediction by ZEFSAII (Michael W. Deem and Ramdas Pophale) SiO2 
 PCOD9516415
Probable space group: F D D D
;
_chemical_formula_sum "Si O2"
_cell_formula_units_Z 160
_cell_length_a 18.680209
_cell_length_b 18.353403
_cell_length_c 18.703841
_cell_angle_alpha 90.000000
_cell_angle_beta 90.000000
_cell_angle_gamma 90.000000
_cell_volume 6412.525922
_symmetry_space_group_name_H-M "F D D D"
_symmetry_group_IT_number 70
_space_group.IT_coordinate_system_code '2'
_symmetry_cell_setting 'orthorhombic'
loop_
_space_group_symop_operation_xyz
x,y,z
1/4-x,1/4-y,z
x,1/4-y,1/4-z
1/4-x,y,1/4-z
-x,-y,-z
3/4+x,3/4+y,-z
-x,3/4+y,3/4+z
3/4+x,-y,3/4+z
x,1/2+y,1/2+z
1/4-x,3/4-y,1/2+z
x,3/4-y,3/4-z
1/4-x,1/2+y,3/4-z
-x,1/2-y,1/2-z
3/4+x,1/4+y,1/2-z
-x,1/4+y,1/4+z
3/4+x,1/2-y,1/4+z
1/2+x,y,1/2+z
3/4-x,1/4-y,1/2+z
1/2+x,1/4-y,3/4-z
3/4-x,y,3/4-z
1/2-x,-y,1/2-z
1/4+x,3/4+y,1/2-z
1/2-x,3/4+y,1/4+z
1/4+x,-y,1/4+z
1/2+x,1/2+y,z
3/4-x,3/4-y,z
1/2+x,3/4-y,1/4-z
3/4-x,1/2+y,1/4-z
1/2-x,1/2-y,-z
1/4+x,1/4+y,-z
1/2-x,1/4+y,3/4+z
1/4+x,1/2-y,3/4+z
loop_
_atom_site_type_symbol
_atom_site_label
_atom_site_fract_x
_atom_site_fract_y
_atom_site_fract_z
Si Si1 0.131282 0.549037 0.504544
Si Si2 0.542409 0.875000 0.875000
Si Si3 0.422573 0.993872 0.034695
Si Si4 0.033488 0.147919 0.376761
Si Si5 0.721006 0.015235 0.019479
Si Si6 0.625000 0.926580 0.625000
O O1 0.125000 0.625000 0.546194
O O2 0.176383 0.685593 0.441110
O O3 0.212748 0.540663 0.474098
O O4 0.121030 0.479533 0.554972
O O5 0.588026 0.935920 0.915091
O O6 0.494174 0.832622 0.931876
O O7 0.429847 0.920934 0.082678
O O8 0.500000 0.000000 0.000000
O O9 0.363002 0.998454 0.972995
O O10 0.030331 0.211369 0.436556
O O11 0.948538 0.131987 0.369369
#
# Coordination Sequence:
#
# PCOD9516415 Si02
#       6
#    32  16  32  32  32  16
#     4  11  23  46  75 108 157 201 249 315 385 457
#     4  12  26  49  76 108 143 200 254 308 395 456
#     4  12  27  48  74 109 150 195 261 319 386 465
#     4  11  23  47  74 106 160 197 248 326 386 453
#     4  11  25  46  74 108 146 197 252 313 385 459
#     4  10  25  44  76 121 146 204 258 302 394 483
#
# _framework density 24.951166000000001
#
# number of rings (size 3 to 8) (size 9 to 14) (size 15 to 20)
#    0.000    0.800    2.000    5.100    0.000    4.800 
#   10.800    0.000    0.000    0.000    0.000    0.000 
#    0.000    0.000    0.000    0.000    0.000    0.000 
#
# Total GULP energy -223460.533864 kJ/mol
# GULP energy per Si atom -5586.513347 kJ/mol
# Density = 2.489438 g / cm^3
# Si number density = 24.951166 Si / 1000 Ang^3
#
#
#
# Elastic Constant Matrix: (Units=GPa)
#
#
# Indices 1 2 3 4 5 6 
#
# 1 204.6971 76.6149 50.5232 0.0000 0.0000 0.0000
# 2 76.6149 133.6102 40.4090 0.0000 0.0000 0.0000
# 3 50.5232 40.4090 119.2337 0.0000 0.0000 0.0000
# 4 0.0000 0.0000 0.0000 45.8235 0.0000 0.0000
# 5 0.0000 0.0000 0.0000 0.0000 47.0783 0.0000
# 6 0.0000 0.0000 0.0000 0.0000 0.0000 38.4954
#
#
#
# Elastic Compliance Matrix: (Units=1/GPa)
#
#
# Indices 1 2 3 4 5 6 
#
# 1 0.006503 -0.003226 -0.001662 0.000000 0.000000 0.000000
# 2 -0.003226 0.009940 -0.002002 0.000000 0.000000 0.000000
# 3 -0.001662 -0.002002 0.009770 0.000000 0.000000 0.000000
# 4 0.000000 0.000000 0.000000 0.021823 0.000000 0.000000
# 5 0.000000 0.000000 0.000000 0.000000 0.021241 0.000000
# 6 0.000000 0.000000 0.000000 0.000000 0.000000 0.025977
#
#
# Mechanical properties :
#
#
# Convention : Reuss Voigt Hill
#
# Bulk Modulus (GPa) = 80.43502 88.07057 84.25279
# Shear Modulus (GPa) = 44.17823 45.61235 44.89529
#
# Velocity S-wave (km/s) = 4.21240 4.28023 4.24645
# Velocity P-wave (km/s) = 7.48105 7.73310 7.60812
#
# Compressibility (1/GPa) = 0.01243240
#
# Stress axis : x y z
#
# Youngs Moduli (GPa) = 153.77349 100.60523 102.35889
#
# Poissons Ratio (x) = 0.32458 0.17014
# Poissons Ratio (y) = 0.49612 0.20488
# Poissons Ratio (z) = 0.25560 0.20137
#
# Static dielectric constant tensor:
#      x y z
#    x 2.191780 0.000000 0.000000 
#    y 0.000000 1.998090 0.000000 
#    z 0.000000 0.000000 2.189350 
# 
# From -- ./inp_files/43703.got.cif
#   From: 2010.05.17/outbox.cif.g08.bks.cpg/sg70_22_cif.got.tgz:43703.got - 2010.06.03 15:57:51.
