data_PCOD9516338
_publ_section_title
;
Structure prediction by ZEFSAII (Michael W. Deem and Ramdas Pophale) SiO2 
 PCOD9516338
Probable space group: F D D D
;
_chemical_formula_sum "Si O2"
_cell_formula_units_Z 128
_cell_length_a 25.916621
_cell_length_b 18.399756
_cell_length_c 13.032050
_cell_angle_alpha 90.000000
_cell_angle_beta 90.000000
_cell_angle_gamma 90.000000
_cell_volume 6214.456883
_symmetry_space_group_name_H-M "F D D D"
_symmetry_group_IT_number 70
_space_group.IT_coordinate_system_code '2'
_symmetry_cell_setting 'orthorhombic'
loop_
_space_group_symop_operation_xyz
x,y,z
1/4-x,1/4-y,z
x,1/4-y,1/4-z
1/4-x,y,1/4-z
-x,-y,-z
3/4+x,3/4+y,-z
-x,3/4+y,3/4+z
3/4+x,-y,3/4+z
x,1/2+y,1/2+z
1/4-x,3/4-y,1/2+z
x,3/4-y,3/4-z
1/4-x,1/2+y,3/4-z
-x,1/2-y,1/2-z
3/4+x,1/4+y,1/2-z
-x,1/4+y,1/4+z
3/4+x,1/2-y,1/4+z
1/2+x,y,1/2+z
3/4-x,1/4-y,1/2+z
1/2+x,1/4-y,3/4-z
3/4-x,y,3/4-z
1/2-x,-y,1/2-z
1/4+x,3/4+y,1/2-z
1/2-x,3/4+y,1/4+z
1/4+x,-y,1/4+z
1/2+x,1/2+y,z
3/4-x,3/4-y,z
1/2+x,3/4-y,1/4-z
3/4-x,1/2+y,1/4-z
1/2-x,1/2-y,-z
1/4+x,1/4+y,-z
1/2-x,1/4+y,3/4+z
1/4+x,1/2-y,3/4+z
loop_
_atom_site_type_symbol
_atom_site_label
_atom_site_fract_x
_atom_site_fract_y
_atom_site_fract_z
Si Si1 0.028238 0.034401 0.815644
Si Si2 0.823947 0.642525 0.898547
Si Si3 0.375000 0.875000 0.035644
Si Si4 0.201976 0.237463 0.576139
Si Si5 0.297295 0.625000 0.625000
O O1 0.083098 0.073148 0.843037
O O2 0.028709 0.034231 0.690683
O O3 0.980675 0.076769 0.863915
O O4 0.020533 0.952500 0.856422
O O5 0.875000 0.687978 0.875000
O O6 0.825073 0.565037 0.841308
O O7 0.827249 0.632492 0.019676
O O8 0.338326 0.820354 0.970494
O O9 0.250000 0.250000 0.500000
#
# Coordination Sequence:
#
# PCOD9516338 Si02
#       5
#    32  32  16  32  16
#     4  11  23  41  69  93 138 182 223 282 343 413
#     4  11  24  43  66  96 132 175 224 279 340 412
#     4  12  23  42  70 107 140 171 224 302 354 409
#     4  11  22  39  67 106 135 172 226 280 355 406
#     4  10  24  46  63  90 138 173 220 278 338 394
#
# _framework density 20.597134
#
# number of rings (size 3 to 8) (size 9 to 14) (size 15 to 20)
#    0.000    1.000    2.500    6.000    0.000    4.000 
#    0.000    0.625    0.000    0.000    0.000    0.000 
#    0.000    0.000    0.000    0.000    0.000    0.000 
#
# Total GULP energy -178406.100170 kJ/mol
# GULP energy per Si atom -5575.190630 kJ/mol
# Density = 2.055025 g / cm^3
# Si number density = 20.597134 Si / 1000 Ang^3
#
#
#
# Elastic Constant Matrix: (Units=GPa)
#
#
# Indices 1 2 3 4 5 6 
#
# 1 164.8733 54.9498 55.0552 0.0000 0.0000 0.0000
# 2 54.9498 132.3666 32.7358 0.0000 0.0000 0.0000
# 3 55.0552 32.7358 44.1404 0.0000 0.0000 0.0000
# 4 0.0000 0.0000 0.0000 14.0364 0.0000 0.0000
# 5 0.0000 0.0000 0.0000 0.0000 9.1797 0.0000
# 6 0.0000 0.0000 0.0000 0.0000 0.0000 -18.7289
#
#
#
# Elastic Compliance Matrix: (Units=1/GPa)
#
#
# Indices 1 2 3 4 5 6 
#
# 1 0.010598 -0.001384 -0.012192 0.000000 0.000000 0.000000
# 2 -0.001384 0.009432 -0.005269 0.000000 0.000000 0.000000
# 3 -0.012192 -0.005269 0.041769 0.000000 0.000000 0.000000
# 4 0.000000 0.000000 0.000000 0.071243 0.000000 0.000000
# 5 0.000000 0.000000 0.000000 0.000000 0.108936 0.000000
# 6 0.000000 0.000000 0.000000 0.000000 0.000000 -0.053393
#
#
# Mechanical properties :
#
#
# Convention : Reuss Voigt Hill
#
# Bulk Modulus (GPa) = 41.47738 69.65133 55.56435
# Shear Modulus (GPa) = 21.33919 14.14008 17.73963
#
# Velocity S-wave (km/s) = 3.22223 2.62297 2.93792
# Velocity P-wave (km/s) = 5.83308 6.56222 6.20837
#
# Compressibility (1/GPa) = 0.02410953
#
# Stress axis : x y z
#
# Youngs Moduli (GPa) = 94.35994 106.01664 23.94138
#
# Poissons Ratio (x) = 0.14676 0.29188
# Poissons Ratio (y) = 0.13063 0.12614
# Poissons Ratio (z) = 1.15040 0.55857
#
# Static dielectric constant tensor:
#      x y z
#    x 1.813610 0.000000 0.000000 
#    y 0.000000 1.840500 0.000000 
#    z 0.000000 0.000000 1.743090 
# 
# From -- ./inp_files/29663.got.cif
#   From: 2010.05.17/outbox.cif.g08.bks.cpg/sg70_15_cif.got.tgz:29663.got - 2010.06.03 15:57:51.
