data_PCOD9516679
_publ_section_title
;
Structure prediction by ZEFSAII (Michael W. Deem and Ramdas Pophale) SiO2 
 PCOD9516679
Probable space group: F D D D
;
_chemical_formula_sum "Si O2"
_cell_formula_units_Z 176
_cell_length_a 24.714689
_cell_length_b 25.753279
_cell_length_c 11.865714
_cell_angle_alpha 90.000000
_cell_angle_beta 90.000000
_cell_angle_gamma 90.000000
_cell_volume 7552.340446
_symmetry_space_group_name_H-M "F D D D"
_symmetry_group_IT_number 70
_space_group.IT_coordinate_system_code '2'
_symmetry_cell_setting 'orthorhombic'
loop_
_space_group_symop_operation_xyz
x,y,z
1/4-x,1/4-y,z
x,1/4-y,1/4-z
1/4-x,y,1/4-z
-x,-y,-z
3/4+x,3/4+y,-z
-x,3/4+y,3/4+z
3/4+x,-y,3/4+z
x,1/2+y,1/2+z
1/4-x,3/4-y,1/2+z
x,3/4-y,3/4-z
1/4-x,1/2+y,3/4-z
-x,1/2-y,1/2-z
3/4+x,1/4+y,1/2-z
-x,1/4+y,1/4+z
3/4+x,1/2-y,1/4+z
1/2+x,y,1/2+z
3/4-x,1/4-y,1/2+z
1/2+x,1/4-y,3/4-z
3/4-x,y,3/4-z
1/2-x,-y,1/2-z
1/4+x,3/4+y,1/2-z
1/2-x,3/4+y,1/4+z
1/4+x,-y,1/4+z
1/2+x,1/2+y,z
3/4-x,3/4-y,z
1/2+x,3/4-y,1/4-z
3/4-x,1/2+y,1/4-z
1/2-x,1/2-y,-z
1/4+x,1/4+y,-z
1/2-x,1/4+y,3/4+z
1/4+x,1/2-y,3/4+z
loop_
_atom_site_type_symbol
_atom_site_label
_atom_site_fract_x
_atom_site_fract_y
_atom_site_fract_z
Si Si1 0.570182 0.483536 0.275673
Si Si2 0.332921 0.730384 0.669521
Si Si3 0.760111 0.832798 0.708168
Si Si4 0.625000 0.030558 0.125000
Si Si5 0.758805 0.927181 0.312503
Si Si6 0.748312 0.050560 0.829629
O O1 0.630187 0.467499 0.312701
O O2 0.561399 0.545815 0.261402
O O3 0.528352 0.470075 0.376914
O O4 0.548334 0.454043 0.165598
O O5 0.288114 0.691416 0.716644
O O6 0.372457 0.741654 0.770702
O O7 0.304469 0.786222 0.651928
O O8 0.752225 0.828035 0.572020
O O9 0.760395 0.894450 0.728022
O O10 0.570997 0.062829 0.098312
O O11 0.740589 0.875000 0.375000
O O12 0.750000 0.000000 0.750000
#
# Coordination Sequence:
#
# PCOD9516679 Si02
#       6
#    32  32  32  16  32  32
#     4  11  23  43  69 105 143 183 248 300 360 438
#     4  11  24  41  70 105 133 185 238 298 368 435
#     4  11  22  44  70  96 148 186 227 309 364 432
#     4  12  19  38  68 110 142 176 234 293 370 438
#     4  12  21  38  67 107 148 189 229 301 369 445
#     4  11  26  48  68  97 146 196 246 294 357 440
#
# _framework density 23.304034000000001
#
# number of rings (size 3 to 8) (size 9 to 14) (size 15 to 20)
#    0.000    0.727    7.273    1.909    0.000    4.364 
#    3.273    1.818    0.000    4.364    0.000    0.000 
#    0.000    0.000    0.000    0.000    0.000    0.000 
#
# Total GULP energy -245747.798638 kJ/mol
# GULP energy per Si atom -5585.177242 kJ/mol
# Density = 2.325099 g / cm^3
# Si number density = 23.304034 Si / 1000 Ang^3
#
#
#
# Elastic Constant Matrix: (Units=GPa)
#
#
# Indices 1 2 3 4 5 6 
#
# 1 104.6457 19.0822 40.8722 0.0000 0.0000 0.0000
# 2 19.0822 140.1353 4.6667 0.0000 0.0000 0.0000
# 3 40.8722 4.6667 66.8838 0.0000 0.0000 0.0000
# 4 0.0000 0.0000 0.0000 38.2685 0.0000 0.0000
# 5 0.0000 0.0000 0.0000 0.0000 47.9775 0.0000
# 6 0.0000 0.0000 0.0000 0.0000 0.0000 7.1719
#
#
#
# Elastic Compliance Matrix: (Units=1/GPa)
#
#
# Indices 1 2 3 4 5 6 
#
# 1 0.012856 -0.001492 -0.007752 0.000000 0.000000 0.000000
# 2 -0.001492 0.007326 0.000401 0.000000 0.000000 0.000000
# 3 -0.007752 0.000401 0.019661 0.000000 0.000000 0.000000
# 4 0.000000 0.000000 0.000000 0.026131 0.000000 0.000000
# 5 0.000000 0.000000 0.000000 0.000000 0.020843 0.000000
# 6 0.000000 0.000000 0.000000 0.000000 0.000000 0.139433
#
#
# Mechanical properties :
#
#
# Convention : Reuss Voigt Hill
#
# Bulk Modulus (GPa) = 45.13630 48.98967 47.06299
# Shear Modulus (GPa) = 19.89477 35.15317 27.52397
#
# Velocity S-wave (km/s) = 2.92499 3.88810 3.44042
# Velocity P-wave (km/s) = 5.55139 6.42060 6.00175
#
# Compressibility (1/GPa) = 0.02215512
#
# Stress axis : x y z
#
# Youngs Moduli (GPa) = 77.78477 136.50322 50.86319
#
# Poissons Ratio (x) = 0.20372 0.39430
# Poissons Ratio (y) = 0.11609 -0.02039
# Poissons Ratio (z) = 0.60299 -0.05472
#
# Static dielectric constant tensor:
#      x y z
#    x 1.951980 0.000000 0.000000 
#    y 0.000000 1.937090 0.000000 
#    z 0.000000 0.000000 2.053440 
# 
# From -- ./inp_files/20956.got.cif
#   From: 2010.05.17/outbox.cif.g08.bks.cpg/sg70_11_cif.got.tgz:20956.got - 2010.06.03 15:57:51.
