data_PCOD9516435
_publ_section_title
;
Structure prediction by ZEFSAII (Michael W. Deem and Ramdas Pophale) SiO2 
 PCOD9516435
Probable space group: F D D D
;
_chemical_formula_sum "Si O2"
_cell_formula_units_Z 208
_cell_length_a 20.612593
_cell_length_b 18.164963
_cell_length_c 24.976330
_cell_angle_alpha 90.000000
_cell_angle_beta 90.000000
_cell_angle_gamma 90.000000
_cell_volume 9351.812043
_symmetry_space_group_name_H-M "F D D D"
_symmetry_group_IT_number 70
_space_group.IT_coordinate_system_code '2'
_symmetry_cell_setting 'orthorhombic'
loop_
_space_group_symop_operation_xyz
x,y,z
1/4-x,1/4-y,z
x,1/4-y,1/4-z
1/4-x,y,1/4-z
-x,-y,-z
3/4+x,3/4+y,-z
-x,3/4+y,3/4+z
3/4+x,-y,3/4+z
x,1/2+y,1/2+z
1/4-x,3/4-y,1/2+z
x,3/4-y,3/4-z
1/4-x,1/2+y,3/4-z
-x,1/2-y,1/2-z
3/4+x,1/4+y,1/2-z
-x,1/4+y,1/4+z
3/4+x,1/2-y,1/4+z
1/2+x,y,1/2+z
3/4-x,1/4-y,1/2+z
1/2+x,1/4-y,3/4-z
3/4-x,y,3/4-z
1/2-x,-y,1/2-z
1/4+x,3/4+y,1/2-z
1/2-x,3/4+y,1/4+z
1/4+x,-y,1/4+z
1/2+x,1/2+y,z
3/4-x,3/4-y,z
1/2+x,3/4-y,1/4-z
3/4-x,1/2+y,1/4-z
1/2-x,1/2-y,-z
1/4+x,1/4+y,-z
1/2-x,1/4+y,3/4+z
1/4+x,1/2-y,3/4+z
loop_
_atom_site_type_symbol
_atom_site_label
_atom_site_fract_x
_atom_site_fract_y
_atom_site_fract_z
Si Si1 0.542160 0.375000 0.875000
Si Si2 0.016382 0.925069 0.171814
Si Si3 0.485119 0.311394 0.081687
Si Si4 0.402348 0.953275 0.815724
Si Si5 0.059661 0.171342 0.040431
Si Si6 0.811038 0.053787 0.249163
Si Si7 0.130477 0.503247 0.899644
O O1 0.497961 0.364503 0.926277
O O2 0.583742 0.446349 0.888261
O O3 0.035146 0.876207 0.222852
O O4 0.022492 0.875106 0.117207
O O5 0.060145 0.997787 0.181219
O O6 0.940546 0.951257 0.175227
O O7 0.524781 0.234211 0.074225
O O8 0.422110 0.299413 0.118381
O O9 0.461524 0.329423 0.021841
O O10 0.375000 0.951754 0.875000
O O11 0.375000 0.875000 0.792157
O O12 0.367308 0.018582 0.784803
O O13 0.125000 0.125000 0.046998
O O14 0.841824 0.048983 0.190880
O O15 0.750000 0.000000 0.250000
#
# Coordination Sequence:
#
# PCOD9516435 Si02
#       7
#    16  32  32  32  32  32  32
#     4  10  25  50  70 108 141 196 252 318 382 468
#     4  11  25  49  75 110 153 202 249 328 378 467
#     4  12  25  49  76 115 152 205 256 313 395 463
#     4  11  24  42  65 106 157 197 253 312 374 462
#     4  11  26  52  80 108 146 200 267 328 391 459
#     4  12  25  42  72 110 151 202 250 306 393 459
#     4  11  25  45  75 105 156 196 257 303 395 461
#
# _framework density 22.241679000000001
#
# number of rings (size 3 to 8) (size 9 to 14) (size 15 to 20)
#    0.000    0.769    3.077    3.462    6.462    1.231 
#   11.077    3.846    0.000    0.000    0.000    0.000 
#    0.000    0.000    0.000    0.000    0.000    0.000 
#
# Total GULP energy -290108.143628 kJ/mol
# GULP energy per Si atom -5579.002762 kJ/mol
# Density = 2.219106 g / cm^3
# Si number density = 22.241679 Si / 1000 Ang^3
#
#
#
# Elastic Constant Matrix: (Units=GPa)
#
#
# Indices 1 2 3 4 5 6 
#
# 1 79.4825 61.4159 10.3026 0.0000 0.0000 0.0000
# 2 61.4159 143.8610 49.5916 0.0000 0.0000 0.0000
# 3 10.3026 49.5916 87.6591 0.0000 0.0000 0.0000
# 4 0.0000 0.0000 0.0000 33.2558 0.0000 0.0000
# 5 0.0000 0.0000 0.0000 0.0000 66.7125 0.0000
# 6 0.0000 0.0000 0.0000 0.0000 0.0000 39.5197
#
#
#
# Elastic Compliance Matrix: (Units=1/GPa)
#
#
# Indices 1 2 3 4 5 6 
#
# 1 0.019384 -0.009304 0.002986 0.000000 0.000000 0.000000
# 2 -0.009304 0.013101 -0.006318 0.000000 0.000000 0.000000
# 3 0.002986 -0.006318 0.014631 0.000000 0.000000 0.000000
# 4 0.000000 0.000000 0.000000 0.030070 0.000000 0.000000
# 5 0.000000 0.000000 0.000000 0.000000 0.014990 0.000000
# 6 0.000000 0.000000 0.000000 0.000000 0.000000 0.025304
#
#
# Mechanical properties :
#
#
# Convention : Reuss Voigt Hill
#
# Bulk Modulus (GPa) = 45.78247 61.51364 53.64806
# Shear Modulus (GPa) = 33.32555 40.54378 36.93466
#
# Velocity S-wave (km/s) = 3.87504 4.27414 4.07947
# Velocity P-wave (km/s) = 6.37573 7.21628 6.80899
#
# Compressibility (1/GPa) = 0.02184242
#
# Stress axis : x y z
#
# Youngs Moduli (GPa) = 51.58930 76.32802 68.34619
#
# Poissons Ratio (x) = 0.71019 -0.20405
# Poissons Ratio (y) = 0.48001 0.43183
# Poissons Ratio (z) = -0.15403 0.48226
#
# Static dielectric constant tensor:
#      x y z
#    x 1.928030 0.000000 0.000000 
#    y 0.000000 1.977350 0.000000 
#    z 0.000000 0.000000 1.403570 
# 
# From -- ./inp_files/60437.got.cif
#   From: 2010.05.17/outbox.cif.g08.bks.cpg/sg70_31_cif.got.tgz:60437.got - 2010.06.03 15:57:51.
