data_PCOD9516869
_publ_section_title
;
Structure prediction by ZEFSAII (Michael W. Deem and Ramdas Pophale) SiO2 
 PCOD9516869
Probable space group: F D D D
;
_chemical_formula_sum "Si O2"
_cell_formula_units_Z 176
_cell_length_a 25.283642
_cell_length_b 21.355644
_cell_length_c 14.834543
_cell_angle_alpha 90.000000
_cell_angle_beta 90.000000
_cell_angle_gamma 90.000000
_cell_volume 8009.888612
_symmetry_space_group_name_H-M "F D D D"
_symmetry_group_IT_number 70
_space_group.IT_coordinate_system_code '2'
_symmetry_cell_setting 'orthorhombic'
loop_
_space_group_symop_operation_xyz
x,y,z
1/4-x,1/4-y,z
x,1/4-y,1/4-z
1/4-x,y,1/4-z
-x,-y,-z
3/4+x,3/4+y,-z
-x,3/4+y,3/4+z
3/4+x,-y,3/4+z
x,1/2+y,1/2+z
1/4-x,3/4-y,1/2+z
x,3/4-y,3/4-z
1/4-x,1/2+y,3/4-z
-x,1/2-y,1/2-z
3/4+x,1/4+y,1/2-z
-x,1/4+y,1/4+z
3/4+x,1/2-y,1/4+z
1/2+x,y,1/2+z
3/4-x,1/4-y,1/2+z
1/2+x,1/4-y,3/4-z
3/4-x,y,3/4-z
1/2-x,-y,1/2-z
1/4+x,3/4+y,1/2-z
1/2-x,3/4+y,1/4+z
1/4+x,-y,1/4+z
1/2+x,1/2+y,z
3/4-x,3/4-y,z
1/2+x,3/4-y,1/4-z
3/4-x,1/2+y,1/4-z
1/2-x,1/2-y,-z
1/4+x,1/4+y,-z
1/2-x,1/4+y,3/4+z
1/4+x,1/2-y,3/4+z
loop_
_atom_site_type_symbol
_atom_site_label
_atom_site_fract_x
_atom_site_fract_y
_atom_site_fract_z
Si Si1 0.644567 0.375000 0.875000
Si Si2 0.219656 0.125000 0.125000
Si Si3 0.875000 0.875000 0.011077
Si Si4 0.637795 0.232035 0.350080
Si Si5 0.750768 0.750943 0.792426
Si Si6 0.931734 0.610847 0.326001
Si Si7 0.770149 0.463214 0.662628
O O1 0.617577 0.306260 0.880567
O O2 0.674865 0.372486 0.780359
O O3 0.178258 0.133222 0.205821
O O4 0.253269 0.186658 0.145725
O O5 0.860757 0.811650 0.063014
O O6 0.691696 0.222186 0.294976
O O7 0.581982 0.206135 0.311830
O O8 0.795667 0.708571 0.839123
O O9 0.767532 0.756095 0.687283
O O10 0.875000 0.621362 0.375000
O O11 0.980070 0.655673 0.353539
O O12 0.750000 0.500000 0.750000
#
# Coordination Sequence:
#
# PCOD9516869 Si02
#       7
#    16  16  16  32  32  32  32
#     4  12  23  48  71 105 145 185 254 303 358 440
#     4  11  25  46  71 108 150 193 241 305 380 456
#     4  11  24  46  72 105 154 194 239 314 376 443
#     4  12  25  47  73 105 151 192 248 308 369 454
#     4  12  27  45  74 110 146 199 247 305 384 448
#     4  12  26  46  76 107 143 194 245 306 373 446
#     4  12  25  48  72 105 148 188 249 312 368 440
#
# _framework density 21.972839
#
# number of rings (size 3 to 8) (size 9 to 14) (size 15 to 20)
#    0.000    0.182    5.455    2.727    5.091    0.727 
#    0.000    0.000    0.000    4.364    0.000    0.000 
#    0.000    0.000    0.000    0.000    0.000    0.000 
#
# Total GULP energy -245093.389032 kJ/mol
# GULP energy per Si atom -5570.304296 kJ/mol
# Density = 2.192283 g / cm^3
# Si number density = 21.972839 Si / 1000 Ang^3
#
#
#
# Elastic Constant Matrix: (Units=GPa)
#
#
# Indices 1 2 3 4 5 6 
#
# 1 167.6935 23.5054 27.1641 0.0000 0.0000 0.0000
# 2 23.5054 118.7971 21.2039 0.0000 0.0000 0.0000
# 3 27.1641 21.2039 54.5726 0.0000 0.0000 0.0000
# 4 0.0000 0.0000 0.0000 17.4861 0.0000 0.0000
# 5 0.0000 0.0000 0.0000 0.0000 -20.4677 0.0000
# 6 0.0000 0.0000 0.0000 0.0000 0.0000 19.5520
#
#
#
# Elastic Compliance Matrix: (Units=1/GPa)
#
#
# Indices 1 2 3 4 5 6 
#
# 1 0.006551 -0.000767 -0.002963 0.000000 0.000000 0.000000
# 2 -0.000767 0.009135 -0.003167 0.000000 0.000000 0.000000
# 3 -0.002963 -0.003167 0.021030 0.000000 0.000000 0.000000
# 4 0.000000 0.000000 0.000000 0.057188 0.000000 0.000000
# 5 0.000000 0.000000 0.000000 0.000000 -0.048857 0.000000
# 6 0.000000 0.000000 0.000000 0.000000 0.000000 0.051146
#
#
# Mechanical properties :
#
#
# Convention : Reuss Voigt Hill
#
# Bulk Modulus (GPa) = 43.62884 53.86777 48.74831
# Shear Modulus (GPa) = 42.50744 21.26005 31.88375
#
# Velocity S-wave (km/s) = 4.40312 3.11394 3.81340
# Velocity P-wave (km/s) = 6.76379 6.12353 6.45161
#
# Compressibility (1/GPa) = 0.02292062
#
# Stress axis : x y z
#
# Youngs Moduli (GPa) = 152.65520 109.47052 47.55224
#
# Poissons Ratio (x) = 0.08400 0.14087
# Poissons Ratio (y) = 0.11714 0.15061
# Poissons Ratio (z) = 0.45225 0.34673
#
# Static dielectric constant tensor:
#      x y z
#    x -0.968910 0.000000 0.000000 
#    y 0.000000 1.862720 0.000000 
#    z 0.000000 0.000000 1.320720 
# 
# From -- ./inp_files/28806.got.cif
#   From: 2010.05.17/outbox.cif.g08.bks.cpg/sg70_15_cif.got.tgz:28806.got - 2010.06.03 15:57:51.
