data_PCOD9516650
_publ_section_title
;
Structure prediction by ZEFSAII (Michael W. Deem and Ramdas Pophale) SiO2 
 PCOD9516650
Probable space group: F D D D
;
_chemical_formula_sum "Si O2"
_cell_formula_units_Z 216
_cell_length_a 33.163830
_cell_length_b 11.528907
_cell_length_c 29.024121
_cell_angle_alpha 90.000000
_cell_angle_beta 90.000000
_cell_angle_gamma 90.000000
_cell_volume 11097.161132
_symmetry_space_group_name_H-M "F D D D"
_symmetry_group_IT_number 70
_space_group.IT_coordinate_system_code '2'
_symmetry_cell_setting 'orthorhombic'
loop_
_space_group_symop_operation_xyz
x,y,z
1/4-x,1/4-y,z
x,1/4-y,1/4-z
1/4-x,y,1/4-z
-x,-y,-z
3/4+x,3/4+y,-z
-x,3/4+y,3/4+z
3/4+x,-y,3/4+z
x,1/2+y,1/2+z
1/4-x,3/4-y,1/2+z
x,3/4-y,3/4-z
1/4-x,1/2+y,3/4-z
-x,1/2-y,1/2-z
3/4+x,1/4+y,1/2-z
-x,1/4+y,1/4+z
3/4+x,1/2-y,1/4+z
1/2+x,y,1/2+z
3/4-x,1/4-y,1/2+z
1/2+x,1/4-y,3/4-z
3/4-x,y,3/4-z
1/2-x,-y,1/2-z
1/4+x,3/4+y,1/2-z
1/2-x,3/4+y,1/4+z
1/4+x,-y,1/4+z
1/2+x,1/2+y,z
3/4-x,3/4-y,z
1/2+x,3/4-y,1/4-z
3/4-x,1/2+y,1/4-z
1/2-x,1/2-y,-z
1/4+x,1/4+y,-z
1/2-x,1/4+y,3/4+z
1/4+x,1/2-y,3/4+z
loop_
_atom_site_type_symbol
_atom_site_label
_atom_site_fract_x
_atom_site_fract_y
_atom_site_fract_z
Si Si1 0.087746 0.954600 0.050280
Si Si2 0.234901 0.006343 0.683666
Si Si3 0.423104 0.102545 0.257898
Si Si4 0.196733 0.642271 0.469538
Si Si5 0.273329 0.026006 0.924380
Si Si6 0.875000 0.375000 0.375000
Si Si7 0.125000 0.125000 0.351644
Si Si8 0.321016 0.035000 0.663389
O O1 0.132308 0.918567 0.035011
O O2 0.064428 0.837919 0.062260
O O3 0.096510 0.045099 0.092076
O O4 0.061520 0.012164 0.008796
O O5 0.232894 0.145120 0.693764
O O6 0.282040 0.968901 0.683595
O O7 0.205229 0.933688 0.716044
O O8 0.224087 0.986312 0.630554
O O9 0.411724 0.151541 0.207655
O O10 0.440867 0.976863 0.247376
O O11 0.237605 0.613317 0.441256
O O12 0.161305 0.661799 0.432081
O O13 0.145268 0.217558 0.385504
O O14 0.304144 0.125000 0.625000
#
# Coordination Sequence:
#
# PCOD9516650 Si02
#       8
#    32  32  32  32  32   8  16  32
#     4  12  25  42  66  98 133 176 226 273 324 391
#     4  11  22  42  66  97 130 176 211 268 339 390
#     4  12  23  41  69  96 134 174 219 269 332 399
#     4  12  21  45  69  96 132 174 221 275 338 387
#     4  11  24  42  69  95 134 172 219 274 332 396
#     4  12  22  44  68  94 128 188 224 264 328 396
#     4  12  21  40  74  93 128 173 218 268 329 400
#     4  12  21  41  67  94 129 172 215 268 335 392
#
# _framework density 19.464438000000001
#
# number of rings (size 3 to 8) (size 9 to 14) (size 15 to 20)
#    0.000    0.296    8.889    1.778    0.000    1.778 
#    0.000    1.481    4.889    0.000    0.000    0.000 
#    0.000    0.000    0.000    0.000    0.000    0.000 
#
# Total GULP energy -301179.966492 kJ/mol
# GULP energy per Si atom -5577.406787 kJ/mol
# Density = 1.942014 g / cm^3
# Si number density = 19.464438 Si / 1000 Ang^3
#
#
#
# Elastic Constant Matrix: (Units=GPa)
#
#
# Indices 1 2 3 4 5 6 
#
# 1 69.5444 36.9817 51.8610 0.0000 0.0000 0.0000
# 2 36.9817 60.4098 30.9279 0.0000 0.0000 0.0000
# 3 51.8610 30.9279 95.7894 0.0000 0.0000 0.0000
# 4 0.0000 0.0000 0.0000 29.1270 0.0000 0.0000
# 5 0.0000 0.0000 0.0000 0.0000 -19.2645 0.0000
# 6 0.0000 0.0000 0.0000 0.0000 0.0000 35.8954
#
#
#
# Elastic Compliance Matrix: (Units=1/GPa)
#
#
# Indices 1 2 3 4 5 6 
#
# 1 0.029990 -0.012036 -0.012351 0.000000 0.000000 0.000000
# 2 -0.012036 0.024662 -0.001446 0.000000 0.000000 0.000000
# 3 -0.012351 -0.001446 0.017593 0.000000 0.000000 0.000000
# 4 0.000000 0.000000 0.000000 0.034332 0.000000 0.000000
# 5 0.000000 0.000000 0.000000 0.000000 -0.051909 0.000000
# 6 0.000000 0.000000 0.000000 0.000000 0.000000 0.027859
#
#
# Mechanical properties :
#
#
# Convention : Reuss Voigt Hill
#
# Bulk Modulus (GPa) = 48.59244 51.69833 50.14538
# Shear Modulus (GPa) = 35.44746 16.21644 25.83195
#
# Velocity S-wave (km/s) = 4.27211 2.88953 3.64694
# Velocity P-wave (km/s) = 7.02520 6.14415 6.59940
#
# Compressibility (1/GPa) = 0.02057933
#
# Stress axis : x y z
#
# Youngs Moduli (GPa) = 33.34454 40.54750 56.83999
#
# Poissons Ratio (x) = 0.48804 0.70201
# Poissons Ratio (y) = 0.40134 0.08221
# Poissons Ratio (z) = 0.41182 0.05865
#
# Static dielectric constant tensor:
#      x y z
#    x 1.711160 0.000000 0.000000 
#    y 0.000000 1.671340 0.000000 
#    z 0.000000 0.000000 1.749660 
# 
# From -- ./inp_files/69029.got.cif
#   From: 2010.05.17/outbox.cif.g08.bks.cpg/sg70_35_cif.got.tgz:69029.got - 2010.06.03 15:57:51.
