data_PCOD9516778
_publ_section_title
;
Structure prediction by ZEFSAII (Michael W. Deem and Ramdas Pophale) SiO2 
 PCOD9516778
Probable space group: F D D D
;
_chemical_formula_sum "Si O2"
_cell_formula_units_Z 104
_cell_length_a 27.616763
_cell_length_b 7.338871
_cell_length_c 24.149896
_cell_angle_alpha 90.000000
_cell_angle_beta 90.000000
_cell_angle_gamma 90.000000
_cell_volume 4894.600967
_symmetry_space_group_name_H-M "F D D D"
_symmetry_group_IT_number 70
_space_group.IT_coordinate_system_code '2'
_symmetry_cell_setting 'orthorhombic'
loop_
_space_group_symop_operation_xyz
x,y,z
1/4-x,1/4-y,z
x,1/4-y,1/4-z
1/4-x,y,1/4-z
-x,-y,-z
3/4+x,3/4+y,-z
-x,3/4+y,3/4+z
3/4+x,-y,3/4+z
x,1/2+y,1/2+z
1/4-x,3/4-y,1/2+z
x,3/4-y,3/4-z
1/4-x,1/2+y,3/4-z
-x,1/2-y,1/2-z
3/4+x,1/4+y,1/2-z
-x,1/4+y,1/4+z
3/4+x,1/2-y,1/4+z
1/2+x,y,1/2+z
3/4-x,1/4-y,1/2+z
1/2+x,1/4-y,3/4-z
3/4-x,y,3/4-z
1/2-x,-y,1/2-z
1/4+x,3/4+y,1/2-z
1/2-x,3/4+y,1/4+z
1/4+x,-y,1/4+z
1/2+x,1/2+y,z
3/4-x,3/4-y,z
1/2+x,3/4-y,1/4-z
3/4-x,1/2+y,1/4-z
1/2-x,1/2-y,-z
1/4+x,1/4+y,-z
1/2-x,1/4+y,3/4+z
1/4+x,1/2-y,3/4+z
loop_
_atom_site_type_symbol
_atom_site_label
_atom_site_fract_x
_atom_site_fract_y
_atom_site_fract_z
Si Si1 0.055215 0.284870 0.710428
Si Si2 0.125000 0.125000 0.625000
Si Si3 0.127485 0.409985 0.439023
Si Si4 0.271823 0.192565 0.230827
O O1 0.093548 0.254721 0.663215
O O2 0.083992 0.330325 0.767315
O O3 0.017742 0.444435 0.696124
O O4 0.029935 0.088417 0.719538
O O5 0.125000 0.625000 0.448410
O O6 0.140434 0.375000 0.375000
O O7 0.073653 0.334222 0.451802
O O8 0.250000 0.000000 0.250000
#
# Coordination Sequence:
#
# PCOD9516778 Si02
#       4
#    32   8  32  32
#     4  11  25  46  70 104 148 190 237 294 362 434
#     4  12  24  48  74 100 156 198 232 298 370 436
#     4  12  24  46  73 103 143 188 242 301 359 428
#     4  11  23  45  70 104 140 185 248 293 358 428
#
# _framework density 21.247902
#
# number of rings (size 3 to 8) (size 9 to 14) (size 15 to 20)
#    0.000    0.615    6.154    1.846    0.000    2.462 
#   11.077    5.385    0.000    0.000    0.000    0.000 
#    0.000    0.000    0.000    0.000    0.000    0.000 
#
# Total GULP energy -145371.109562 kJ/mol
# GULP energy per Si atom -5591.196522 kJ/mol
# Density = 2.119954 g / cm^3
# Si number density = 21.247902 Si / 1000 Ang^3
#
#
#
# Elastic Constant Matrix: (Units=GPa)
#
#
# Indices 1 2 3 4 5 6 
#
# 1 132.2277 47.5353 34.2033 0.0000 0.0001 0.0000
# 2 47.5353 174.3927 24.3926 0.0001 0.0014 0.0005
# 3 34.2033 24.3926 70.0835 0.0000 0.0000 0.0000
# 4 0.0000 0.0001 0.0000 13.7072 -0.0001 0.0000
# 5 0.0001 0.0014 0.0000 -0.0001 735.8075 -0.0006
# 6 0.0000 0.0005 0.0000 0.0000 -0.0006 37.3234
#
#
#
# Elastic Compliance Matrix: (Units=1/GPa)
#
#
# Indices 1 2 3 4 5 6 
#
# 1 0.009269 -0.001991 -0.003831 0.000000 0.000000 0.000000
# 2 -0.001991 0.006455 -0.001275 0.000000 0.000000 0.000000
# 3 -0.003831 -0.001275 0.016582 0.000000 0.000000 0.000000
# 4 0.000000 0.000000 0.000000 0.072954 0.000000 0.000000
# 5 0.000000 0.000000 0.000000 0.000000 0.001359 0.000000
# 6 0.000000 0.000000 0.000000 0.000000 0.000000 0.026793
#
#
# Mechanical properties :
#
#
# Convention : Reuss Voigt Hill
#
# Bulk Modulus (GPa) = 55.20893 65.44068 60.32480
# Shear Modulus (GPa) = 32.54271 175.40579 103.97425
#
# Velocity S-wave (km/s) = 3.91778 9.09567 7.00287
# Velocity P-wave (km/s) = 6.81945 11.88166 9.68707
#
# Compressibility (1/GPa) = 0.01811301
#
# Stress axis : x y z
#
# Youngs Moduli (GPa) = 107.88288 154.91437 60.30594
#
# Poissons Ratio (x) = 0.30840 0.23102
# Poissons Ratio (y) = 0.21477 0.07690
# Poissons Ratio (z) = 0.41329 0.19754
#
# Static dielectric constant tensor:
#      x y z
#    x 1.847540 0.000000 0.000000 
#    y 0.000000 1.756230 0.000000 
#    z 0.000000 0.000000 1.761120 
# 
# From -- ./inp_files/54708.got.cif
#   From: 2010.05.17/outbox.cif.g08.bks.cpg/sg70_28_cif.got.tgz:54708.got - 2010.06.03 15:57:51.
