data_PCOD9516534
_publ_section_title
;
Structure prediction by ZEFSAII (Michael W. Deem and Ramdas Pophale) SiO2 
 PCOD9516534
Probable space group: F D D D
;
_chemical_formula_sum "Si O2"
_cell_formula_units_Z 176
_cell_length_a 29.437271
_cell_length_b 25.279452
_cell_length_c 11.311636
_cell_angle_alpha 90.000000
_cell_angle_beta 90.000000
_cell_angle_gamma 90.000000
_cell_volume 8417.645319
_symmetry_space_group_name_H-M "F D D D"
_symmetry_group_IT_number 70
_space_group.IT_coordinate_system_code '2'
_symmetry_cell_setting 'orthorhombic'
loop_
_space_group_symop_operation_xyz
x,y,z
1/4-x,1/4-y,z
x,1/4-y,1/4-z
1/4-x,y,1/4-z
-x,-y,-z
3/4+x,3/4+y,-z
-x,3/4+y,3/4+z
3/4+x,-y,3/4+z
x,1/2+y,1/2+z
1/4-x,3/4-y,1/2+z
x,3/4-y,3/4-z
1/4-x,1/2+y,3/4-z
-x,1/2-y,1/2-z
3/4+x,1/4+y,1/2-z
-x,1/4+y,1/4+z
3/4+x,1/2-y,1/4+z
1/2+x,y,1/2+z
3/4-x,1/4-y,1/2+z
1/2+x,1/4-y,3/4-z
3/4-x,y,3/4-z
1/2-x,-y,1/2-z
1/4+x,3/4+y,1/2-z
1/2-x,3/4+y,1/4+z
1/4+x,-y,1/4+z
1/2+x,1/2+y,z
3/4-x,3/4-y,z
1/2+x,3/4-y,1/4-z
3/4-x,1/2+y,1/4-z
1/2-x,1/2-y,-z
1/4+x,1/4+y,-z
1/2-x,1/4+y,3/4+z
1/4+x,1/2-y,3/4+z
loop_
_atom_site_type_symbol
_atom_site_label
_atom_site_fract_x
_atom_site_fract_y
_atom_site_fract_z
Si Si1 0.001812 0.977014 0.177850
Si Si2 0.571171 0.768225 0.622518
Si Si3 0.202665 0.873491 0.003323
Si Si4 0.375000 0.375000 0.684548
Si Si5 0.943461 0.337531 0.763942
Si Si6 0.045470 0.177316 0.197033
O O1 0.038256 0.934883 0.224076
O O2 0.960435 0.998950 0.261225
O O3 0.979703 0.945318 0.067425
O O4 0.032239 0.025942 0.139431
O O5 0.625000 0.756714 0.625000
O O6 0.567238 0.830148 0.656468
O O7 0.555344 0.725311 0.718593
O O8 0.179139 0.875000 0.875000
O O9 0.254463 0.853250 0.996472
O O10 0.337137 0.350274 0.598630
O O11 0.402972 0.333571 0.763102
O O12 0.927263 0.375000 0.875000
O O13 0.030472 0.125000 0.125000
#
# Coordination Sequence:
#
# PCOD9516534 Si02
#       6
#    32  32  32  16  32  32
#     4  11  23  44  67  93 134 186 223 278 350 416
#     4  12  24  42  69 102 133 173 231 291 345 407
#     4  11  23  42  68 100 133 176 217 277 359 419
#     4  12  22  38  66 108 132 168 232 286 326 398
#     4  11  20  38  70 105 130 167 219 292 343 400
#     4  11  24  41  63  96 135 182 229 274 336 408
#
# _framework density 20.908459000000001
#
# number of rings (size 3 to 8) (size 9 to 14) (size 15 to 20)
#    0.000    0.727    5.455    4.364    0.000    0.000 
#    0.000   10.000    0.000    0.000    0.000    0.000 
#    0.000    0.000    0.000    0.000    0.000    0.000 
#
# Total GULP energy -244949.496740 kJ/mol
# GULP energy per Si atom -5567.034017 kJ/mol
# Density = 2.086087 g / cm^3
# Si number density = 20.908459 Si / 1000 Ang^3
#
#
#
# Elastic Constant Matrix: (Units=GPa)
#
#
# Indices 1 2 3 4 5 6 
#
# 1 49.6954 25.9702 15.7727 0.0003 0.0023 0.0001
# 2 25.9702 117.3583 55.0953 0.0003 -0.0014 -0.0001
# 3 15.7727 55.0953 77.8980 0.0011 0.0011 0.0000
# 4 0.0003 0.0003 0.0011 29.1756 0.0019 0.0000
# 5 0.0023 -0.0014 0.0011 0.0019 196.0279 -0.0033
# 6 0.0001 -0.0001 0.0000 0.0000 -0.0033 23.7703
#
#
#
# Elastic Compliance Matrix: (Units=1/GPa)
#
#
# Indices 1 2 3 4 5 6 
#
# 1 0.022882 -0.004324 -0.001575 0.000000 0.000000 0.000000
# 2 -0.004324 0.013574 -0.008725 0.000000 0.000000 0.000000
# 3 -0.001575 -0.008725 0.019327 -0.000001 0.000000 0.000000
# 4 0.000000 0.000000 -0.000001 0.034275 0.000000 0.000000
# 5 0.000000 0.000000 0.000000 0.000000 0.005101 0.000001
# 6 0.000000 0.000000 0.000000 0.000000 0.000001 0.042069
#
#
# Mechanical properties :
#
#
# Convention : Reuss Voigt Hill
#
# Bulk Modulus (GPa) = 37.68563 48.73646 43.21105
# Shear Modulus (GPa) = 28.51903 59.66902 44.09402
#
# Velocity S-wave (km/s) = 3.69724 5.34791 4.59727
# Velocity P-wave (km/s) = 6.02406 7.84179 6.99224
#
# Compressibility (1/GPa) = 0.02653531
#
# Stress axis : x y z
#
# Youngs Moduli (GPa) = 43.70209 73.67122 51.74117
#
# Poissons Ratio (x) = 0.31858 0.08148
# Poissons Ratio (y) = 0.18898 0.45143
# Poissons Ratio (z) = 0.06882 0.64277
#
# Static dielectric constant tensor:
#      x y z
#    x 1.743060 0.000000 0.000000 
#    y 0.000000 1.950020 0.000000 
#    z 0.000000 0.000000 1.855500 
# 
# From -- ./inp_files/22292.got.cif
#   From: 2010.05.17/outbox.cif.g08.bks.cpg/sg70_12_cif.got.tgz:22292.got - 2010.06.03 15:57:51.
