data_PCOD9516539
_publ_section_title
;
Structure prediction by ZEFSAII (Michael W. Deem and Ramdas Pophale) SiO2 
 PCOD9516539
Probable space group: F D D D
;
_chemical_formula_sum "Si O2"
_cell_formula_units_Z 176
_cell_length_a 25.888543
_cell_length_b 13.722417
_cell_length_c 20.922214
_cell_angle_alpha 90.000000
_cell_angle_beta 90.000000
_cell_angle_gamma 90.000000
_cell_volume 7432.687294
_symmetry_space_group_name_H-M "F D D D"
_symmetry_group_IT_number 70
_space_group.IT_coordinate_system_code '2'
_symmetry_cell_setting 'orthorhombic'
loop_
_space_group_symop_operation_xyz
x,y,z
1/4-x,1/4-y,z
x,1/4-y,1/4-z
1/4-x,y,1/4-z
-x,-y,-z
3/4+x,3/4+y,-z
-x,3/4+y,3/4+z
3/4+x,-y,3/4+z
x,1/2+y,1/2+z
1/4-x,3/4-y,1/2+z
x,3/4-y,3/4-z
1/4-x,1/2+y,3/4-z
-x,1/2-y,1/2-z
3/4+x,1/4+y,1/2-z
-x,1/4+y,1/4+z
3/4+x,1/2-y,1/4+z
1/2+x,y,1/2+z
3/4-x,1/4-y,1/2+z
1/2+x,1/4-y,3/4-z
3/4-x,y,3/4-z
1/2-x,-y,1/2-z
1/4+x,3/4+y,1/2-z
1/2-x,3/4+y,1/4+z
1/4+x,-y,1/4+z
1/2+x,1/2+y,z
3/4-x,3/4-y,z
1/2+x,3/4-y,1/4-z
3/4-x,1/2+y,1/4-z
1/2-x,1/2-y,-z
1/4+x,1/4+y,-z
1/2-x,1/4+y,3/4+z
1/4+x,1/2-y,3/4+z
loop_
_atom_site_type_symbol
_atom_site_label
_atom_site_fract_x
_atom_site_fract_y
_atom_site_fract_z
Si Si1 0.971240 0.333251 0.107989
Si Si2 0.875000 0.875000 0.688926
Si Si3 0.575918 0.874735 0.170404
Si Si4 0.777240 0.054923 0.185144
Si Si5 0.872951 0.662519 0.699732
Si Si6 0.318285 0.828640 0.772830
O O1 0.922418 0.321863 0.153537
O O2 0.969752 0.446790 0.089152
O O3 0.955716 0.282412 0.041925
O O4 0.026171 0.320391 0.140848
O O5 0.850170 0.772639 0.711772
O O6 0.625000 0.854787 0.125000
O O7 0.584692 0.844179 0.244156
O O8 0.568778 0.992722 0.175034
O O9 0.782499 0.125000 0.125000
O O10 0.827908 0.087740 0.223706
O O11 0.722152 0.085433 0.212125
O O12 0.884774 0.625000 0.625000
O O13 0.375000 0.875000 0.763502
#
# Coordination Sequence:
#
# PCOD9516539 Si02
#       6
#    32  16  32  32  32  32
#     4  12  23  41  63  98 136 182 229 282 351 413
#     4  12  22  42  69  90 129 186 238 276 340 416
#     4  12  26  43  68 102 142 177 231 300 344 407
#     4  11  20  40  61  93 141 180 215 285 351 413
#     4  11  23  45  70 100 135 187 234 286 348 416
#     4  12  23  37  65 101 139 181 225 274 350 431
#
# _framework density 23.679188
#
# number of rings (size 3 to 8) (size 9 to 14) (size 15 to 20)
#    0.000    0.364    6.364    4.909    0.000    0.727 
#    0.000    0.455    0.000    0.000    0.000    0.000 
#    0.000    0.000    0.000    0.000    0.000    0.000 
#
# Total GULP energy -245222.465805 kJ/mol
# GULP energy per Si atom -5573.237859 kJ/mol
# Density = 2.362529 g / cm^3
# Si number density = 23.679188 Si / 1000 Ang^3
#
#
#
# Elastic Constant Matrix: (Units=GPa)
#
#
# Indices 1 2 3 4 5 6 
#
# 1 130.2707 -39.7203 29.4265 0.0000 0.0000 0.0000
# 2 -39.7203 62.1820 -8.1307 0.0000 0.0000 0.0000
# 3 29.4265 -8.1307 78.8822 0.0000 0.0000 0.0000
# 4 0.0000 0.0000 0.0000 18.9499 0.0000 0.0000
# 5 0.0000 0.0000 0.0000 0.0000 50.2867 0.0000
# 6 0.0000 0.0000 0.0000 0.0000 0.0000 68.8183
#
#
#
# Elastic Compliance Matrix: (Units=1/GPa)
#
#
# Indices 1 2 3 4 5 6 
#
# 1 0.010272 0.006143 -0.003199 0.000000 0.000000 0.000000
# 2 0.006143 0.019976 -0.000233 0.000000 0.000000 0.000000
# 3 -0.003199 -0.000233 0.013846 0.000000 0.000000 0.000000
# 4 0.000000 0.000000 0.000000 0.052771 0.000000 0.000000
# 5 0.000000 0.000000 0.000000 0.000000 0.019886 0.000000
# 6 0.000000 0.000000 0.000000 0.000000 0.000000 0.014531
#
#
# Mechanical properties :
#
#
# Convention : Reuss Voigt Hill
#
# Bulk Modulus (GPa) = 20.19489 26.05400 23.12444
# Shear Modulus (GPa) = 35.12125 46.92826 41.02476
#
# Velocity S-wave (km/s) = 3.85543 4.45661 4.16688
# Velocity P-wave (km/s) = 5.32599 6.12443 5.73911
#
# Compressibility (1/GPa) = 0.04951747
#
# Stress axis : x y z
#
# Youngs Moduli (GPa) = 97.35226 50.06128 72.22096
#
# Poissons Ratio (x) = -0.30754 0.23101
# Poissons Ratio (y) = -0.59806 0.01681
# Poissons Ratio (z) = 0.31140 0.01165
#
# Static dielectric constant tensor:
#      x y z
#    x 2.179740 0.000000 0.000000 
#    y 0.000000 1.971430 0.000000 
#    z 0.000000 0.000000 2.085190 
# 
# From -- ./inp_files/53609.got.cif
#   From: 2010.05.17/outbox.cif.g08.bks.cpg/sg70_27_cif.got.tgz:53609.got - 2010.06.03 15:57:51.
