data_PCOD9516673
_publ_section_title
;
Structure prediction by ZEFSAII (Michael W. Deem and Ramdas Pophale) SiO2 
 PCOD9516673
Probable space group: F D D D
;
_chemical_formula_sum "Si O2"
_cell_formula_units_Z 240
_cell_length_a 26.544773
_cell_length_b 19.554601
_cell_length_c 19.238850
_cell_angle_alpha 90.000000
_cell_angle_beta 90.000000
_cell_angle_gamma 90.000000
_cell_volume 9986.356902
_symmetry_space_group_name_H-M "F D D D"
_symmetry_group_IT_number 70
_space_group.IT_coordinate_system_code '2'
_symmetry_cell_setting 'orthorhombic'
loop_
_space_group_symop_operation_xyz
x,y,z
1/4-x,1/4-y,z
x,1/4-y,1/4-z
1/4-x,y,1/4-z
-x,-y,-z
3/4+x,3/4+y,-z
-x,3/4+y,3/4+z
3/4+x,-y,3/4+z
x,1/2+y,1/2+z
1/4-x,3/4-y,1/2+z
x,3/4-y,3/4-z
1/4-x,1/2+y,3/4-z
-x,1/2-y,1/2-z
3/4+x,1/4+y,1/2-z
-x,1/4+y,1/4+z
3/4+x,1/2-y,1/4+z
1/2+x,y,1/2+z
3/4-x,1/4-y,1/2+z
1/2+x,1/4-y,3/4-z
3/4-x,y,3/4-z
1/2-x,-y,1/2-z
1/4+x,3/4+y,1/2-z
1/2-x,3/4+y,1/4+z
1/4+x,-y,1/4+z
1/2+x,1/2+y,z
3/4-x,3/4-y,z
1/2+x,3/4-y,1/4-z
3/4-x,1/2+y,1/4-z
1/2-x,1/2-y,-z
1/4+x,1/4+y,-z
1/2-x,1/4+y,3/4+z
1/4+x,1/2-y,3/4+z
loop_
_atom_site_type_symbol
_atom_site_label
_atom_site_fract_x
_atom_site_fract_y
_atom_site_fract_z
Si Si1 0.568973 0.142472 0.279587
Si Si2 0.471395 0.500809 0.630778
Si Si3 0.109542 0.915152 0.045837
Si Si4 0.837601 0.809717 0.013132
Si Si5 0.748318 0.851401 0.753907
Si Si6 0.382501 0.171713 0.177948
Si Si7 0.202578 0.125000 0.625000
Si Si8 0.297786 0.260267 0.162152
O O1 0.625000 0.125000 0.309797
O O2 0.541096 0.208214 0.310729
O O3 0.573769 0.141116 0.197414
O O4 0.532623 0.080756 0.303108
O O5 0.478302 0.445569 0.691675
O O6 0.423159 0.550332 0.625970
O O7 0.515923 0.555019 0.635056
O O8 0.125000 0.904338 0.125000
O O9 0.053545 0.885861 0.025291
O O10 0.145933 0.870816 0.995624
O O11 0.111203 0.995459 0.026972
O O12 0.875000 0.875000 0.022890
O O13 0.788135 0.840631 0.977313
O O14 0.815752 0.777799 0.084947
O O15 0.739801 0.799755 0.817889
O O16 0.349517 0.125000 0.125000
O O17 0.348356 0.234416 0.201610
#
# Coordination Sequence:
#
# PCOD9516673 Si02
#       8
#    32  32  32  32  32  32  16  32
#     4  12  24  44  68  96 140 191 240 298 365 444
#     4  12  24  43  70 103 140 191 239 305 367 440
#     4  11  28  50  75 112 154 196 249 319 383 447
#     4  12  25  48  83 110 148 198 259 311 378 457
#     4  11  26  46  75 111 151 197 249 313 382 450
#     4  11  22  43  76 100 142 192 244 296 367 442
#     4  12  27  42  60 106 146 180 240 300 373 438
#     4  11  22  44  71 106 138 191 246 296 366 441
#
# _framework density 24.032789000000001
#
# number of rings (size 3 to 8) (size 9 to 14) (size 15 to 20)
#    0.000    0.533    6.000    2.200    0.000    3.467 
#    0.000    1.333    0.000    0.000    0.000    0.000 
#    0.000    0.000    0.000    0.000    0.000    0.000 
#
# Total GULP energy -334924.111911 kJ/mol
# GULP energy per Si atom -5582.068532 kJ/mol
# Density = 2.397809 g / cm^3
# Si number density = 24.032789 Si / 1000 Ang^3
#
#
#
# Elastic Constant Matrix: (Units=GPa)
#
#
# Indices 1 2 3 4 5 6 
#
# 1 58.5947 25.1672 12.0642 0.0000 0.0000 0.0000
# 2 25.1672 141.4578 41.5528 0.0000 0.0000 0.0000
# 3 12.0642 41.5528 131.6568 0.0000 0.0000 0.0000
# 4 0.0000 0.0000 0.0000 39.3159 0.0000 0.0000
# 5 0.0000 0.0000 0.0000 0.0000 -41.3418 0.0000
# 6 0.0000 0.0000 0.0000 0.0000 0.0000 29.4110
#
#
#
# Elastic Compliance Matrix: (Units=1/GPa)
#
#
# Indices 1 2 3 4 5 6 
#
# 1 0.018541 -0.003086 -0.000725 0.000000 0.000000 0.000000
# 2 -0.003086 0.008305 -0.002338 0.000000 0.000000 0.000000
# 3 -0.000725 -0.002338 0.008400 0.000000 0.000000 0.000000
# 4 0.000000 0.000000 0.000000 0.025435 0.000000 0.000000
# 5 0.000000 0.000000 0.000000 0.000000 -0.024189 0.000000
# 6 0.000000 0.000000 0.000000 0.000000 0.000000 0.034001
#
#
# Mechanical properties :
#
#
# Convention : Reuss Voigt Hill
#
# Bulk Modulus (GPa) = 43.57745 54.36419 48.97082
# Shear Modulus (GPa) = 55.28449 22.33868 38.81159
#
# Velocity S-wave (km/s) = 4.80143 3.05209 4.02300
# Velocity P-wave (km/s) = 6.99358 5.92371 6.48076
#
# Compressibility (1/GPa) = 0.02294765
#
# Stress axis : x y z
#
# Youngs Moduli (GPa) = 53.93447 120.40724 119.04756
#
# Poissons Ratio (x) = 0.37154 0.08632
# Poissons Ratio (y) = 0.16643 0.27839
# Poissons Ratio (z) = 0.03911 0.28157
#
# Static dielectric constant tensor:
#      x y z
#    x 1.989060 0.000000 0.000000 
#    y 0.000000 2.006010 0.000000 
#    z 0.000000 0.000000 1.897230 
# 
# From -- ./inp_files/47149.got.cif
#   From: 2010.05.17/outbox.cif.g08.bks.cpg/sg70_24_cif.got.tgz:47149.got - 2010.06.03 15:57:51.
