data_PCOD9516409
_publ_section_title
;
Structure prediction by ZEFSAII (Michael W. Deem and Ramdas Pophale) SiO2 
 PCOD9516409
Probable space group: F D D D
;
_chemical_formula_sum "Si O2"
_cell_formula_units_Z 104
_cell_length_a 6.821681
_cell_length_b 21.765505
_cell_length_c 30.441802
_cell_angle_alpha 90.000000
_cell_angle_beta 90.000000
_cell_angle_gamma 90.000000
_cell_volume 4519.917540
_symmetry_space_group_name_H-M "F D D D"
_symmetry_group_IT_number 70
_space_group.IT_coordinate_system_code '2'
_symmetry_cell_setting 'orthorhombic'
loop_
_space_group_symop_operation_xyz
x,y,z
1/4-x,1/4-y,z
x,1/4-y,1/4-z
1/4-x,y,1/4-z
-x,-y,-z
3/4+x,3/4+y,-z
-x,3/4+y,3/4+z
3/4+x,-y,3/4+z
x,1/2+y,1/2+z
1/4-x,3/4-y,1/2+z
x,3/4-y,3/4-z
1/4-x,1/2+y,3/4-z
-x,1/2-y,1/2-z
3/4+x,1/4+y,1/2-z
-x,1/4+y,1/4+z
3/4+x,1/2-y,1/4+z
1/2+x,y,1/2+z
3/4-x,1/4-y,1/2+z
1/2+x,1/4-y,3/4-z
3/4-x,y,3/4-z
1/2-x,-y,1/2-z
1/4+x,3/4+y,1/2-z
1/2-x,3/4+y,1/4+z
1/4+x,-y,1/4+z
1/2+x,1/2+y,z
3/4-x,3/4-y,z
1/2+x,3/4-y,1/4-z
3/4-x,1/2+y,1/4-z
1/2-x,1/2-y,-z
1/4+x,1/4+y,-z
1/2-x,1/4+y,3/4+z
1/4+x,1/2-y,3/4+z
loop_
_atom_site_type_symbol
_atom_site_label
_atom_site_fract_x
_atom_site_fract_y
_atom_site_fract_z
Si Si1 0.881730 0.710515 0.561289
Si Si2 0.375000 0.875000 0.875000
Si Si3 0.687630 0.800187 0.075938
Si Si4 0.127208 0.322878 0.709203
O O1 0.768781 0.665705 0.594186
O O2 0.874189 0.688406 0.511234
O O3 0.771991 0.776117 0.563252
O O4 0.105399 0.731349 0.569818
O O5 0.625000 0.817772 0.125000
O O6 0.596896 0.854804 0.046818
O O7 0.915078 0.804817 0.063198
#
# Coordination Sequence:
#
# PCOD9516409 Si02
#       4
#    32   8  32  32
#     4  11  25  47  68 100 150 183 239 291 367 424
#     4  12  28  44  74 112 148 202 236 302 362 448
#     4  11  24  44  73 105 134 183 247 299 353 430
#     4  10  25  43  74 100 136 189 238 296 362 427
#
# _framework density 23.009269
#
# number of rings (size 3 to 8) (size 9 to 14) (size 15 to 20)
#    0.000    1.231    0.000    3.692   19.385    0.000 
#   11.077    1.538    0.000    0.000    0.000    0.000 
#    0.000    0.000    0.000    0.000    0.000    0.000 
#
# Total GULP energy -145322.159200 kJ/mol
# GULP energy per Si atom -5589.313815 kJ/mol
# Density = 2.295690 g / cm^3
# Si number density = 23.009269 Si / 1000 Ang^3
#
#
#
# Elastic Constant Matrix: (Units=GPa)
#
#
# Indices 1 2 3 4 5 6 
#
# 1 109.0954 51.6962 39.5121 0.0000 0.0000 0.0000
# 2 51.6962 98.0136 32.9937 0.0000 0.0000 0.0000
# 3 39.5121 32.9937 82.8254 0.0000 0.0000 0.0000
# 4 0.0000 0.0000 0.0000 46.0026 0.0000 0.0000
# 5 0.0000 0.0000 0.0000 0.0000 29.6876 0.0000
# 6 0.0000 0.0000 0.0000 0.0000 0.0000 167.8502
#
#
#
# Elastic Compliance Matrix: (Units=1/GPa)
#
#
# Indices 1 2 3 4 5 6 
#
# 1 0.013331 -0.005648 -0.004110 0.000000 0.000000 0.000000
# 2 -0.005648 0.014175 -0.002952 0.000000 0.000000 0.000000
# 3 -0.004110 -0.002952 0.015210 0.000000 0.000000 0.000000
# 4 0.000000 0.000000 0.000000 0.021738 0.000000 0.000000
# 5 0.000000 0.000000 0.000000 0.000000 0.033684 0.000000
# 6 0.000000 0.000000 0.000000 0.000000 0.000000 0.005958
#
#
# Mechanical properties :
#
#
# Convention : Reuss Voigt Hill
#
# Bulk Modulus (GPa) = 57.81506 59.81539 58.81522
# Shear Modulus (GPa) = 36.95973 59.75691 48.35832
#
# Velocity S-wave (km/s) = 4.01221 5.10168 4.58939
# Velocity P-wave (km/s) = 6.82973 7.79459 7.32805
#
# Compressibility (1/GPa) = 0.01729653
#
# Stress axis : x y z
#
# Youngs Moduli (GPa) = 75.01256 70.54443 65.74491
#
# Poissons Ratio (x) = 0.39843 0.27020
# Poissons Ratio (y) = 0.42366 0.19411
# Poissons Ratio (z) = 0.30829 0.20828
#
# Static dielectric constant tensor:
#      x y z
#    x 1.974690 0.000000 0.000000 
#    y 0.000000 1.840790 0.000000 
#    z 0.000000 0.000000 1.831240 
# 
# From -- ./inp_files/46454.got.cif
#   From: 2010.05.17/outbox.cif.g08.bks.cpg/sg70_24_cif.got.tgz:46454.got - 2010.06.03 15:57:51.
