data_PCOD9516286
_publ_section_title
;
Structure prediction by ZEFSAII (Michael W. Deem and Ramdas Pophale) SiO2 
 PCOD9516286
Probable space group: F D D D
;
_chemical_formula_sum "Si O2"
_cell_formula_units_Z 112
_cell_length_a 27.013017
_cell_length_b 7.575748
_cell_length_c 24.367237
_cell_angle_alpha 90.000000
_cell_angle_beta 90.000000
_cell_angle_gamma 90.000000
_cell_volume 4986.604207
_symmetry_space_group_name_H-M "F D D D"
_symmetry_group_IT_number 70
_space_group.IT_coordinate_system_code '2'
_symmetry_cell_setting 'orthorhombic'
loop_
_space_group_symop_operation_xyz
x,y,z
1/4-x,1/4-y,z
x,1/4-y,1/4-z
1/4-x,y,1/4-z
-x,-y,-z
3/4+x,3/4+y,-z
-x,3/4+y,3/4+z
3/4+x,-y,3/4+z
x,1/2+y,1/2+z
1/4-x,3/4-y,1/2+z
x,3/4-y,3/4-z
1/4-x,1/2+y,3/4-z
-x,1/2-y,1/2-z
3/4+x,1/4+y,1/2-z
-x,1/4+y,1/4+z
3/4+x,1/2-y,1/4+z
1/2+x,y,1/2+z
3/4-x,1/4-y,1/2+z
1/2+x,1/4-y,3/4-z
3/4-x,y,3/4-z
1/2-x,-y,1/2-z
1/4+x,3/4+y,1/2-z
1/2-x,3/4+y,1/4+z
1/4+x,-y,1/4+z
1/2+x,1/2+y,z
3/4-x,3/4-y,z
1/2+x,3/4-y,1/4-z
3/4-x,1/2+y,1/4-z
1/2-x,1/2-y,-z
1/4+x,1/4+y,-z
1/2-x,1/4+y,3/4+z
1/4+x,1/2-y,3/4+z
loop_
_atom_site_type_symbol
_atom_site_label
_atom_site_fract_x
_atom_site_fract_y
_atom_site_fract_z
Si Si1 0.745040 0.085237 0.834441
Si Si2 0.229001 0.999401 0.811289
Si Si3 0.625000 0.625000 0.780148
Si Si4 0.418023 0.231243 0.753201
O O1 0.750890 0.094150 0.900199
O O2 0.739145 0.296261 0.825875
O O3 0.791198 0.010197 0.800915
O O4 0.696529 0.004601 0.805157
O O5 0.170513 0.040957 0.813177
O O6 0.250000 0.000000 0.750000
O O7 0.603808 0.464730 0.744898
O O8 0.375000 0.375000 0.757942
#
# Coordination Sequence:
#
# PCOD9516286 Si02
#       4
#    32  32  16  32
#     4  10  24  43  71  98 144 184 232 300 354 425
#     4  11  23  44  70 101 140 184 233 297 358 420
#     4  12  24  40  75 102 138 184 241 292 354 430
#     4  11  23  45  69 106 142 184 240 292 362 432
#
# _framework density 22.460175
#
# number of rings (size 3 to 8) (size 9 to 14) (size 15 to 20)
#    0.000    1.143    5.714    0.000    2.000    1.143 
#    0.000    2.857    6.286    0.000    0.000    0.000 
#    0.000    0.000    0.000    0.000    0.000    0.000 
#
# Total GULP energy -156334.199725 kJ/mol
# GULP energy per Si atom -5583.364276 kJ/mol
# Density = 2.240905 g / cm^3
# Si number density = 22.460175 Si / 1000 Ang^3
#
#
#
# Elastic Constant Matrix: (Units=GPa)
#
#
# Indices 1 2 3 4 5 6 
#
# 1 112.8192 71.7450 41.7894 0.0000 0.0000 -0.0002
# 2 71.7450 123.4558 34.8520 0.0002 0.0000 -0.0002
# 3 41.7894 34.8520 121.4478 0.0000 0.0000 0.0000
# 4 0.0000 0.0002 0.0000 34.6183 0.0000 -0.0001
# 5 0.0000 0.0000 0.0000 0.0000 9.2557 0.0000
# 6 -0.0002 -0.0002 0.0000 -0.0001 0.0000 47.0420
#
#
#
# Elastic Compliance Matrix: (Units=1/GPa)
#
#
# Indices 1 2 3 4 5 6 
#
# 1 0.014932 -0.007864 -0.002881 0.000000 0.000000 0.000000
# 2 -0.007864 0.012956 -0.001012 0.000000 0.000000 0.000000
# 3 -0.002881 -0.001012 0.009516 0.000000 0.000000 0.000000
# 4 0.000000 0.000000 0.000000 0.028886 0.000000 0.000000
# 5 0.000000 0.000000 0.000000 0.000000 0.108042 0.000000
# 6 0.000000 0.000000 0.000000 0.000000 0.000000 0.021258
#
#
# Mechanical properties :
#
#
# Convention : Reuss Voigt Hill
#
# Bulk Modulus (GPa) = 71.99937 72.72175 72.36056
# Shear Modulus (GPa) = 22.34793 32.13894 27.24343
#
# Velocity S-wave (km/s) = 3.15779 3.78687 3.48654
# Velocity P-wave (km/s) = 6.73955 7.18115 6.96385
#
# Compressibility (1/GPa) = 0.01388901
#
# Stress axis : x y z
#
# Youngs Moduli (GPa) = 66.96989 77.18452 105.08833
#
# Poissons Ratio (x) = 0.60700 0.30278
# Poissons Ratio (y) = 0.52667 0.10634
# Poissons Ratio (z) = 0.19296 0.07811
#
# Static dielectric constant tensor:
#      x y z
#    x 1.841170 0.000000 0.000000 
#    y 0.000000 1.797050 0.000000 
#    z 0.000000 0.000000 2.154890 
# 
# From -- ./inp_files/10685.got.cif
#   From: 2010.05.17/outbox.cif.g08.bks.cpg/sg70_6_cif.got.tgz:10685.got - 2010.06.03 15:57:51.
