data_PCOD9516594
_publ_section_title
;
Structure prediction by ZEFSAII (Michael W. Deem and Ramdas Pophale) SiO2 
 PCOD9516594
Probable space group: F D D D
;
_chemical_formula_sum "Si O2"
_cell_formula_units_Z 160
_cell_length_a 11.831468
_cell_length_b 24.399259
_cell_length_c 24.902032
_cell_angle_alpha 90.000000
_cell_angle_beta 90.000000
_cell_angle_gamma 90.000000
_cell_volume 7188.694993
_symmetry_space_group_name_H-M "F D D D"
_symmetry_group_IT_number 70
_space_group.IT_coordinate_system_code '2'
_symmetry_cell_setting 'orthorhombic'
loop_
_space_group_symop_operation_xyz
x,y,z
1/4-x,1/4-y,z
x,1/4-y,1/4-z
1/4-x,y,1/4-z
-x,-y,-z
3/4+x,3/4+y,-z
-x,3/4+y,3/4+z
3/4+x,-y,3/4+z
x,1/2+y,1/2+z
1/4-x,3/4-y,1/2+z
x,3/4-y,3/4-z
1/4-x,1/2+y,3/4-z
-x,1/2-y,1/2-z
3/4+x,1/4+y,1/2-z
-x,1/4+y,1/4+z
3/4+x,1/2-y,1/4+z
1/2+x,y,1/2+z
3/4-x,1/4-y,1/2+z
1/2+x,1/4-y,3/4-z
3/4-x,y,3/4-z
1/2-x,-y,1/2-z
1/4+x,3/4+y,1/2-z
1/2-x,3/4+y,1/4+z
1/4+x,-y,1/4+z
1/2+x,1/2+y,z
3/4-x,3/4-y,z
1/2+x,3/4-y,1/4-z
3/4-x,1/2+y,1/4-z
1/2-x,1/2-y,-z
1/4+x,1/4+y,-z
1/2-x,1/4+y,3/4+z
1/4+x,1/2-y,3/4+z
loop_
_atom_site_type_symbol
_atom_site_label
_atom_site_fract_x
_atom_site_fract_y
_atom_site_fract_z
Si Si1 0.351944 0.633852 0.563851
Si Si2 0.877302 0.312538 0.627781
Si Si3 0.321223 0.445829 0.743454
Si Si4 0.072988 0.269735 0.471777
Si Si5 0.955804 0.775806 0.418832
O O1 0.314610 0.625000 0.625000
O O2 0.246628 0.652188 0.528061
O O3 0.391293 0.574679 0.542639
O O4 0.445520 0.681741 0.564911
O O5 0.875000 0.375000 0.649195
O O6 0.818004 0.318075 0.569614
O O7 0.824001 0.272346 0.672221
O O8 0.990210 0.278749 0.609515
O O9 0.250000 0.500000 0.750000
O O10 0.445344 0.460477 0.764849
O O11 0.109053 0.241827 0.527367
O O12 0.875000 0.802182 0.375000
#
# Coordination Sequence:
#
# PCOD9516594 Si02
#       5
#    32  32  32  32  32
#     4  12  23  46  72 107 143 186 239 293 365 435
#     4  11  24  47  67 105 142 180 236 294 362 421
#     4  11  21  43  73 105 144 176 226 299 364 429
#     4  11  24  45  73 105 140 187 240 294 365 429
#     4  11  26  50  69 101 147 193 243 299 350 434
#
# _framework density 22.257168
#
# number of rings (size 3 to 8) (size 9 to 14) (size 15 to 20)
#    0.000    0.800    6.000    3.000    0.000    6.800 
#    7.200    0.000    0.000    0.000    0.000    0.000 
#    0.000    0.000    0.000    0.000    0.000    0.000 
#
# Total GULP energy -223466.896787 kJ/mol
# GULP energy per Si atom -5586.672420 kJ/mol
# Density = 2.220651 g / cm^3
# Si number density = 22.257168 Si / 1000 Ang^3
#
#
#
# Elastic Constant Matrix: (Units=GPa)
#
#
# Indices 1 2 3 4 5 6 
#
# 1 49.1297 25.8747 29.5489 0.0000 0.0000 0.0000
# 2 25.8747 164.5906 46.9896 0.0000 0.0000 0.0000
# 3 29.5489 46.9896 174.7525 0.0000 0.0000 0.0000
# 4 0.0000 0.0000 0.0000 31.1124 0.0000 0.0000
# 5 0.0000 0.0000 0.0000 0.0000 39.7456 0.0000
# 6 0.0000 0.0000 0.0000 0.0000 0.0000 18.6783
#
#
#
# Elastic Compliance Matrix: (Units=1/GPa)
#
#
# Indices 1 2 3 4 5 6 
#
# 1 0.023799 -0.002808 -0.003269 0.000000 0.000000 0.000000
# 2 -0.002808 0.006912 -0.001384 0.000000 0.000000 0.000000
# 3 -0.003269 -0.001384 0.006647 0.000000 0.000000 0.000000
# 4 0.000000 0.000000 0.000000 0.032142 0.000000 0.000000
# 5 0.000000 0.000000 0.000000 0.000000 0.025160 0.000000
# 6 0.000000 0.000000 0.000000 0.000000 0.000000 0.053538
#
#
# Mechanical properties :
#
#
# Convention : Reuss Voigt Hill
#
# Bulk Modulus (GPa) = 44.56978 65.92213 55.24595
# Shear Modulus (GPa) = 29.30840 36.97790 33.14315
#
# Velocity S-wave (km/s) = 3.63272 4.08044 3.86307
# Velocity P-wave (km/s) = 6.13709 7.20296 6.69129
#
# Compressibility (1/GPa) = 0.02243673
#
# Stress axis : x y z
#
# Youngs Moduli (GPa) = 42.01783 144.67165 150.43798
#
# Poissons Ratio (x) = 0.40625 0.49181
# Poissons Ratio (y) = 0.11799 0.20818
# Poissons Ratio (z) = 0.13736 0.20020
#
# Static dielectric constant tensor:
#      x y z
#    x 1.830130 0.000000 0.000000 
#    y 0.000000 1.863780 0.000000 
#    z 0.000000 0.000000 1.807390 
# 
# From -- ./inp_files/51128.got.cif
#   From: 2010.05.17/outbox.cif.g08.bks.cpg/sg70_26_cif.got.tgz:51128.got - 2010.06.03 15:57:51.
