data_PCOD9516265
_publ_section_title
;
Structure prediction by ZEFSAII (Michael W. Deem and Ramdas Pophale) SiO2 
 PCOD9516265
Probable space group: F D D D
;
_chemical_formula_sum "Si O2"
_cell_formula_units_Z 176
_cell_length_a 28.935368
_cell_length_b 21.395851
_cell_length_c 14.463541
_cell_angle_alpha 90.000000
_cell_angle_beta 90.000000
_cell_angle_gamma 90.000000
_cell_volume 8954.332273
_symmetry_space_group_name_H-M "F D D D"
_symmetry_group_IT_number 70
_space_group.IT_coordinate_system_code '2'
_symmetry_cell_setting 'orthorhombic'
loop_
_space_group_symop_operation_xyz
x,y,z
1/4-x,1/4-y,z
x,1/4-y,1/4-z
1/4-x,y,1/4-z
-x,-y,-z
3/4+x,3/4+y,-z
-x,3/4+y,3/4+z
3/4+x,-y,3/4+z
x,1/2+y,1/2+z
1/4-x,3/4-y,1/2+z
x,3/4-y,3/4-z
1/4-x,1/2+y,3/4-z
-x,1/2-y,1/2-z
3/4+x,1/4+y,1/2-z
-x,1/4+y,1/4+z
3/4+x,1/2-y,1/4+z
1/2+x,y,1/2+z
3/4-x,1/4-y,1/2+z
1/2+x,1/4-y,3/4-z
3/4-x,y,3/4-z
1/2-x,-y,1/2-z
1/4+x,3/4+y,1/2-z
1/2-x,3/4+y,1/4+z
1/4+x,-y,1/4+z
1/2+x,1/2+y,z
3/4-x,3/4-y,z
1/2+x,3/4-y,1/4-z
3/4-x,1/2+y,1/4-z
1/2-x,1/2-y,-z
1/4+x,1/4+y,-z
1/2-x,1/4+y,3/4+z
1/4+x,1/2-y,3/4+z
loop_
_atom_site_type_symbol
_atom_site_label
_atom_site_fract_x
_atom_site_fract_y
_atom_site_fract_z
Si Si1 0.526002 0.122908 0.481610
Si Si2 0.138428 0.757509 0.326139
Si Si3 0.463399 0.643318 0.426270
Si Si4 0.746223 0.976499 0.874400
Si Si5 0.625000 0.125000 0.837161
Si Si6 0.375000 0.187210 0.375000
Si Si7 0.074285 0.375000 0.875000
O O1 0.507379 0.133980 0.378071
O O2 0.507417 0.059409 0.528891
O O3 0.507168 0.176414 0.546341
O O4 0.580419 0.120263 0.476898
O O5 0.191534 0.759723 0.362491
O O6 0.121379 0.688483 0.353181
O O7 0.133762 0.771776 0.216686
O O8 0.107581 0.813826 0.369761
O O9 0.470297 0.715799 0.400289
O O10 0.418766 0.608745 0.385189
O O11 0.457604 0.631936 0.534748
#
# Coordination Sequence:
#
# PCOD9516265 Si02
#       7
#    32  32  32  32  16  16  16
#     4  11  24  41  66 100 132 179 214 273 341 410
#     4  11  23  44  66 100 132 175 220 282 333 399
#     4  11  22  42  66  97 124 174 221 278 322 399
#     4  11  23  41  68  96 137 169 220 276 340 398
#     4  12  26  42  64  98 146 170 220 281 347 388
#     4  10  24  43  72  91 124 178 238 262 328 409
#     4  10  24  42  68  95 128 175 234 268 320 414
#
# _framework density 19.655290000000001
#
# number of rings (size 3 to 8) (size 9 to 14) (size 15 to 20)
#    0.000    1.091    3.636    2.727    2.545    3.273 
#    3.273    2.727    0.000    0.000    0.000    0.000 
#    0.000    0.000    0.000    0.000    0.000    0.000 
#
# Total GULP energy -245492.828696 kJ/mol
# GULP energy per Si atom -5579.382470 kJ/mol
# Density = 1.961055 g / cm^3
# Si number density = 19.655290 Si / 1000 Ang^3
#
#
#
# Elastic Constant Matrix: (Units=GPa)
#
#
# Indices 1 2 3 4 5 6 
#
# 1 103.3167 31.1062 40.5417 0.0000 0.0000 0.0000
# 2 31.1062 142.8122 36.3167 0.0000 0.0000 0.0000
# 3 40.5417 36.3167 105.5420 0.0000 0.0000 0.0000
# 4 0.0000 0.0000 0.0000 1.5575 0.0000 0.0000
# 5 0.0000 0.0000 0.0000 0.0000 22.3472 0.0000
# 6 0.0000 0.0000 0.0000 0.0000 0.0000 61.3181
#
#
#
# Elastic Compliance Matrix: (Units=1/GPa)
#
#
# Indices 1 2 3 4 5 6 
#
# 1 0.011698 -0.001540 -0.003964 0.000000 0.000000 0.000000
# 2 -0.001540 0.007876 -0.002119 0.000000 0.000000 0.000000
# 3 -0.003964 -0.002119 0.011726 0.000000 0.000000 0.000000
# 4 0.000000 0.000000 0.000000 0.642048 0.000000 0.000000
# 5 0.000000 0.000000 0.000000 0.000000 0.044748 0.000000
# 6 0.000000 0.000000 0.000000 0.000000 0.000000 0.016308
#
#
# Mechanical properties :
#
#
# Convention : Reuss Voigt Hill
#
# Bulk Modulus (GPa) = 62.28117 63.06669 62.67393
# Shear Modulus (GPa) = 6.62250 33.29167 19.95708
#
# Velocity S-wave (km/s) = 1.83756 4.12002 3.18992
# Velocity P-wave (km/s) = 6.02144 7.40194 6.74709
#
# Compressibility (1/GPa) = 0.01605622
#
# Stress axis : x y z
#
# Youngs Moduli (GPa) = 85.48495 126.96133 85.27717
#
# Poissons Ratio (x) = 0.19552 0.33801
# Poissons Ratio (y) = 0.13165 0.18068
# Poissons Ratio (z) = 0.33883 0.26899
#
# Static dielectric constant tensor:
#      x y z
#    x 1.669850 0.000000 0.000000 
#    y 0.000000 1.720790 0.000000 
#    z 0.000000 0.000000 1.713360 
# 
# From -- ./inp_files/28814.got.cif
#   From: 2010.05.17/outbox.cif.g08.bks.cpg/sg70_15_cif.got.tgz:28814.got - 2010.06.03 15:57:51.
