data_PCOD9516692
_publ_section_title
;
Structure prediction by ZEFSAII (Michael W. Deem and Ramdas Pophale) SiO2 
 PCOD9516692
Probable space group: F D D D
;
_chemical_formula_sum "Si O2"
_cell_formula_units_Z 176
_cell_length_a 21.858314
_cell_length_b 20.695731
_cell_length_c 15.256025
_cell_angle_alpha 90.000000
_cell_angle_beta 90.000000
_cell_angle_gamma 90.000000
_cell_volume 6901.425799
_symmetry_space_group_name_H-M "F D D D"
_symmetry_group_IT_number 70
_space_group.IT_coordinate_system_code '2'
_symmetry_cell_setting 'orthorhombic'
loop_
_space_group_symop_operation_xyz
x,y,z
1/4-x,1/4-y,z
x,1/4-y,1/4-z
1/4-x,y,1/4-z
-x,-y,-z
3/4+x,3/4+y,-z
-x,3/4+y,3/4+z
3/4+x,-y,3/4+z
x,1/2+y,1/2+z
1/4-x,3/4-y,1/2+z
x,3/4-y,3/4-z
1/4-x,1/2+y,3/4-z
-x,1/2-y,1/2-z
3/4+x,1/4+y,1/2-z
-x,1/4+y,1/4+z
3/4+x,1/2-y,1/4+z
1/2+x,y,1/2+z
3/4-x,1/4-y,1/2+z
1/2+x,1/4-y,3/4-z
3/4-x,y,3/4-z
1/2-x,-y,1/2-z
1/4+x,3/4+y,1/2-z
1/2-x,3/4+y,1/4+z
1/4+x,-y,1/4+z
1/2+x,1/2+y,z
3/4-x,3/4-y,z
1/2+x,3/4-y,1/4-z
3/4-x,1/2+y,1/4-z
1/2-x,1/2-y,-z
1/4+x,1/4+y,-z
1/2-x,1/4+y,3/4+z
1/4+x,1/2-y,3/4+z
loop_
_atom_site_type_symbol
_atom_site_label
_atom_site_fract_x
_atom_site_fract_y
_atom_site_fract_z
Si Si1 0.573528 0.991584 0.557491
Si Si2 0.347332 0.232214 0.280152
Si Si3 0.375000 0.875000 0.264063
Si Si4 0.861619 0.194882 0.143511
Si Si5 0.004538 0.631935 0.410896
Si Si6 0.984752 0.849728 0.470156
O O1 0.625000 0.965300 0.625000
O O2 0.583683 0.069448 0.563917
O O3 0.593630 0.980452 0.458029
O O4 0.516437 0.943703 0.575309
O O5 0.375000 0.242016 0.375000
O O6 0.396250 0.220965 0.203869
O O7 0.298071 0.174714 0.293333
O O8 0.311877 0.295430 0.250380
O O9 0.429957 0.901500 0.202199
O O10 0.889950 0.125000 0.125000
O O11 0.798929 0.183342 0.194494
O O12 0.005982 0.643477 0.305852
O O13 0.963308 0.875000 0.375000
#
# Coordination Sequence:
#
# PCOD9516692 Si02
#       6
#    32  32  16  32  32  32
#     4  12  24  49  77 110 155 201 258 328 396 474
#     4  12  26  46  76 111 145 201 264 313 391 478
#     4  12  29  46  75 116 160 198 255 328 410 479
#     4  11  22  45  76 107 139 198 262 315 380 476
#     4  12  26  50  78 112 155 207 258 328 399 478
#     4  11  26  45  74 109 157 199 256 329 394 469
#
# _framework density 25.501978000000001
#
# number of rings (size 3 to 8) (size 9 to 14) (size 15 to 20)
#    0.000    0.364    3.636    5.727    0.000    6.182 
#    3.273    0.000    0.000    0.000    0.000    0.000 
#    0.000    0.000    0.000    0.000    0.000    0.000 
#
# Total GULP energy -245766.772124 kJ/mol
# GULP energy per Si atom -5585.608457 kJ/mol
# Density = 2.544393 g / cm^3
# Si number density = 25.501978 Si / 1000 Ang^3
#
#
#
# Elastic Constant Matrix: (Units=GPa)
#
#
# Indices 1 2 3 4 5 6 
#
# 1 90.2617 10.4968 8.5638 0.0000 0.0000 0.0000
# 2 10.4968 58.4774 -41.6859 0.0000 0.0000 0.0000
# 3 8.5638 -41.6859 79.4908 0.0000 0.0000 0.0000
# 4 0.0000 0.0000 0.0000 28.4053 0.0000 0.0000
# 5 0.0000 0.0000 0.0000 0.0000 -9.4522 0.0000
# 6 0.0000 0.0000 0.0000 0.0000 0.0000 -113.3070
#
#
#
# Elastic Compliance Matrix: (Units=1/GPa)
#
#
# Indices 1 2 3 4 5 6 
#
# 1 0.012019 -0.004919 -0.003875 0.000000 0.000000 0.000000
# 2 -0.004919 0.029323 0.015907 0.000000 0.000000 0.000000
# 3 -0.003875 0.015907 0.021340 0.000000 0.000000 0.000000
# 4 0.000000 0.000000 0.000000 0.035205 0.000000 0.000000
# 5 0.000000 0.000000 0.000000 0.000000 -0.105795 0.000000
# 6 0.000000 0.000000 0.000000 0.000000 0.000000 -0.008826
#
#
# Mechanical properties :
#
#
# Convention : Reuss Voigt Hill
#
# Bulk Modulus (GPa) = 13.00245 20.33106 16.66675
# Shear Modulus (GPa) = -938.84941 -2.14710 -470.49825
#
# Velocity S-wave (km/s) = -19.20799 -0.91857 -13.59762
# Velocity P-wave (km/s) = 22.06399 2.62005 15.49121
#
# Compressibility (1/GPa) = 0.07690859
#
# Stress axis : x y z
#
# Youngs Moduli (GPa) = 83.20432 34.10248 46.86130
#
# Poissons Ratio (x) = 0.16776 0.18157
# Poissons Ratio (y) = 0.40931 -0.74545
# Poissons Ratio (z) = 0.32238 -0.54249
#
# Static dielectric constant tensor:
#      x y z
#    x 1.970040 0.000000 0.000000 
#    y 0.000000 2.110420 0.000000 
#    z 0.000000 0.000000 2.040470 
# 
# From -- ./inp_files/28730.got.cif
#   From: 2010.05.17/outbox.cif.g08.bks.cpg/sg70_15_cif.got.tgz:28730.got - 2010.06.03 15:57:51.
