data_PCOD9516168
_publ_section_title
;
Structure prediction by ZEFSAII (Michael W. Deem and Ramdas Pophale) SiO2 
 PCOD9516168
Probable space group: F D D D
;
_chemical_formula_sum "Si O2"
_cell_formula_units_Z 168
_cell_length_a 26.416049
_cell_length_b 13.732907
_cell_length_c 22.247632
_cell_angle_alpha 90.000000
_cell_angle_beta 90.000000
_cell_angle_gamma 90.000000
_cell_volume 8070.754422
_symmetry_space_group_name_H-M "F D D D"
_symmetry_group_IT_number 70
_space_group.IT_coordinate_system_code '2'
_symmetry_cell_setting 'orthorhombic'
loop_
_space_group_symop_operation_xyz
x,y,z
1/4-x,1/4-y,z
x,1/4-y,1/4-z
1/4-x,y,1/4-z
-x,-y,-z
3/4+x,3/4+y,-z
-x,3/4+y,3/4+z
3/4+x,-y,3/4+z
x,1/2+y,1/2+z
1/4-x,3/4-y,1/2+z
x,3/4-y,3/4-z
1/4-x,1/2+y,3/4-z
-x,1/2-y,1/2-z
3/4+x,1/4+y,1/2-z
-x,1/4+y,1/4+z
3/4+x,1/2-y,1/4+z
1/2+x,y,1/2+z
3/4-x,1/4-y,1/2+z
1/2+x,1/4-y,3/4-z
3/4-x,y,3/4-z
1/2-x,-y,1/2-z
1/4+x,3/4+y,1/2-z
1/2-x,3/4+y,1/4+z
1/4+x,-y,1/4+z
1/2+x,1/2+y,z
3/4-x,3/4-y,z
1/2+x,3/4-y,1/4-z
3/4-x,1/2+y,1/4-z
1/2-x,1/2-y,-z
1/4+x,1/4+y,-z
1/2-x,1/4+y,3/4+z
1/4+x,1/2-y,3/4+z
loop_
_atom_site_type_symbol
_atom_site_label
_atom_site_fract_x
_atom_site_fract_y
_atom_site_fract_z
Si Si1 0.306370 0.026686 0.665494
Si Si2 0.306939 0.718143 0.517885
Si Si3 0.927369 0.218699 0.364964
Si Si4 0.014663 0.875000 0.875000
Si Si5 0.375000 0.875000 0.160567
Si Si6 0.625000 0.625000 0.625000
Si Si7 0.940296 0.031216 0.444678
O O1 0.307324 0.125000 0.625000
O O2 0.322442 0.043999 0.734796
O O3 0.339752 0.945013 0.630815
O O4 0.248859 0.990819 0.677389
O O5 0.250000 0.750000 0.500000
O O6 0.326176 0.684438 0.453809
O O7 0.300017 0.634982 0.567293
O O8 0.339538 0.805414 0.547580
O O9 0.875000 0.274088 0.375000
O O10 0.976909 0.283477 0.376523
O O11 0.928491 0.129114 0.409356
O O12 0.658705 0.693028 0.582793
#
# Coordination Sequence:
#
# PCOD9516168 Si02
#       7
#    32  32  32  16  16   8  32
#     4  11  26  46  70 102 139 190 236 294 350 420
#     4  10  25  44  67 101 138 186 228 288 353 414
#     4  11  24  40  68 103 132 174 229 286 352 415
#     4  10  23  44  65  96 142 181 222 285 350 418
#     4  12  27  46  71 105 147 186 240 292 354 431
#     4  12  22  48  70  98 142 190 236 294 344 426
#     4  11  25  46  70 104 139 187 241 292 353 412
#
# _framework density 20.815898000000001
#
# number of rings (size 3 to 8) (size 9 to 14) (size 15 to 20)
#    0.000    1.143    1.905    3.143    9.333    1.524 
#    3.429    0.000    0.000    0.000    0.000    0.000 
#    0.000    0.000    0.000    0.000    0.000    0.000 
#
# Total GULP energy -234499.878326 kJ/mol
# GULP energy per Si atom -5583.330436 kJ/mol
# Density = 2.076852 g / cm^3
# Si number density = 20.815898 Si / 1000 Ang^3
#
#
#
# Elastic Constant Matrix: (Units=GPa)
#
#
# Indices 1 2 3 4 5 6 
#
# 1 100.2006 40.5225 58.3725 0.0000 0.0000 0.0000
# 2 40.5225 118.3279 72.5150 0.0000 0.0000 0.0000
# 3 58.3725 72.5150 186.3298 0.0000 0.0000 0.0000
# 4 0.0000 0.0000 0.0000 -204.1533 0.0000 0.0000
# 5 0.0000 0.0000 0.0000 0.0000 47.3374 0.0000
# 6 0.0000 0.0000 0.0000 0.0000 0.0000 57.8537
#
#
#
# Elastic Compliance Matrix: (Units=1/GPa)
#
#
# Indices 1 2 3 4 5 6 
#
# 1 0.012756 -0.002521 -0.003015 0.000000 0.000000 0.000000
# 2 -0.002521 0.011596 -0.003723 0.000000 0.000000 0.000000
# 3 -0.003015 -0.003723 0.007760 0.000000 0.000000 0.000000
# 4 0.000000 0.000000 0.000000 -0.004898 0.000000 0.000000
# 5 0.000000 0.000000 0.000000 0.000000 0.021125 0.000000
# 6 0.000000 0.000000 0.000000 0.000000 0.000000 0.017285
#
#
# Mechanical properties :
#
#
# Convention : Reuss Voigt Hill
#
# Bulk Modulus (GPa) = 73.56026 83.07537 78.31781
# Shear Modulus (GPa) = 56.38678 -4.22924 26.07877
#
# Velocity S-wave (km/s) = 5.21029 -1.42694 3.54337
# Velocity P-wave (km/s) = 8.46235 6.10585 7.37878
#
# Compressibility (1/GPa) = 0.01359430
#
# Stress axis : x y z
#
# Youngs Moduli (GPa) = 78.39552 86.23655 128.85939
#
# Poissons Ratio (x) = 0.21737 0.38853
# Poissons Ratio (y) = 0.19760 0.47978
# Poissons Ratio (z) = 0.23637 0.32108
#
# Static dielectric constant tensor:
#      x y z
#    x 1.748300 0.000000 0.000000 
#    y 0.000000 1.704640 0.000000 
#    z 0.000000 0.000000 1.702650 
# 
# From -- ./inp_files/46799.got.cif
#   From: 2010.05.17/outbox.cif.g08.bks.cpg/sg70_24_cif.got.tgz:46799.got - 2010.06.03 15:57:51.
