data_PCOD9516741
_publ_section_title
;
Structure prediction by ZEFSAII (Michael W. Deem and Ramdas Pophale) SiO2 
 PCOD9516741
Probable space group: F D D D
;
_chemical_formula_sum "Si O2"
_cell_formula_units_Z 192
_cell_length_a 28.556164
_cell_length_b 11.023909
_cell_length_c 26.672733
_cell_angle_alpha 90.000000
_cell_angle_beta 90.000000
_cell_angle_gamma 90.000000
_cell_volume 8396.591107
_symmetry_space_group_name_H-M "F D D D"
_symmetry_group_IT_number 70
_space_group.IT_coordinate_system_code '2'
_symmetry_cell_setting 'orthorhombic'
loop_
_space_group_symop_operation_xyz
x,y,z
1/4-x,1/4-y,z
x,1/4-y,1/4-z
1/4-x,y,1/4-z
-x,-y,-z
3/4+x,3/4+y,-z
-x,3/4+y,3/4+z
3/4+x,-y,3/4+z
x,1/2+y,1/2+z
1/4-x,3/4-y,1/2+z
x,3/4-y,3/4-z
1/4-x,1/2+y,3/4-z
-x,1/2-y,1/2-z
3/4+x,1/4+y,1/2-z
-x,1/4+y,1/4+z
3/4+x,1/2-y,1/4+z
1/2+x,y,1/2+z
3/4-x,1/4-y,1/2+z
1/2+x,1/4-y,3/4-z
3/4-x,y,3/4-z
1/2-x,-y,1/2-z
1/4+x,3/4+y,1/2-z
1/2-x,3/4+y,1/4+z
1/4+x,-y,1/4+z
1/2+x,1/2+y,z
3/4-x,3/4-y,z
1/2+x,3/4-y,1/4-z
3/4-x,1/2+y,1/4-z
1/2-x,1/2-y,-z
1/4+x,1/4+y,-z
1/2-x,1/4+y,3/4+z
1/4+x,1/2-y,3/4+z
loop_
_atom_site_type_symbol
_atom_site_label
_atom_site_fract_x
_atom_site_fract_y
_atom_site_fract_z
Si Si1 0.798687 0.266392 0.138045
Si Si2 0.625000 0.125000 0.125000
Si Si3 0.439515 0.547249 0.808836
Si Si4 0.375000 0.875000 0.552056
Si Si5 0.791511 0.227089 0.670324
Si Si6 0.149920 0.337197 0.001006
Si Si7 0.625000 0.125000 0.625000
Si Si8 0.947518 0.692815 0.408017
O O1 0.847661 0.278994 0.165548
O O2 0.800283 0.386317 0.101528
O O3 0.751368 0.285734 0.169864
O O4 0.794526 0.125000 0.125000
O O5 0.660238 0.199450 0.160115
O O6 0.490867 0.490106 0.802325
O O7 0.405906 0.591587 0.763785
O O8 0.408013 0.453176 0.839451
O O9 0.446073 0.654447 0.849692
O O10 0.339786 0.796882 0.519571
O O11 0.789195 0.125000 0.625000
O O12 0.829908 0.182265 0.710680
O O13 0.176784 0.348253 0.053318
#
# Coordination Sequence:
#
# PCOD9516741 Si02
#       8
#    32   8  32  16  32  32   8  32
#     4  11  27  51  75 101 148 210 252 304 384 455
#     4  12  18  48  74 110 148 192 236 312 398 446
#     4  11  23  42  69 109 154 193 246 314 383 445
#     4  12  29  44  74 102 154 196 262 302 377 452
#     4  11  25  49  74 111 156 199 250 319 382 453
#     4  12  25  45  72 118 141 196 254 315 375 457
#     4  12  16  36  64 102 148 192 234 300 372 436
#     4  11  24  45  76 108 151 194 249 317 386 454
#
# _framework density 22.866422
#
# number of rings (size 3 to 8) (size 9 to 14) (size 15 to 20)
#    0.000    0.667    6.667    0.500    4.667    0.667 
#    3.000    0.833    0.000    0.000    0.000    0.000 
#    0.000    0.000    0.000    0.000    0.000    0.000 
#
# Total GULP energy -267803.135760 kJ/mol
# GULP energy per Si atom -5579.231995 kJ/mol
# Density = 2.281438 g / cm^3
# Si number density = 22.866422 Si / 1000 Ang^3
#
#
#
# Elastic Constant Matrix: (Units=GPa)
#
#
# Indices 1 2 3 4 5 6 
#
# 1 127.1495 40.4579 51.3494 0.0000 0.0000 0.0000
# 2 40.4579 116.0096 28.1000 0.0000 0.0000 0.0000
# 3 51.3494 28.1000 72.7758 0.0000 0.0000 0.0000
# 4 0.0000 0.0000 0.0000 12.9308 0.0000 0.0000
# 5 0.0000 0.0000 0.0000 0.0000 10.5274 0.0000
# 6 0.0000 0.0000 0.0000 0.0000 0.0000 233.9935
#
#
#
# Elastic Compliance Matrix: (Units=1/GPa)
#
#
# Indices 1 2 3 4 5 6 
#
# 1 0.011511 -0.002258 -0.007250 0.000000 0.000000 0.000000
# 2 -0.002258 0.009952 -0.002249 0.000000 0.000000 0.000000
# 3 -0.007250 -0.002249 0.019725 0.000000 0.000000 0.000000
# 4 0.000000 0.000000 0.000000 0.077335 0.000000 0.000000
# 5 0.000000 0.000000 0.000000 0.000000 0.094990 0.000000
# 6 0.000000 0.000000 0.000000 0.000000 0.000000 0.004274
#
#
# Mechanical properties :
#
#
# Convention : Reuss Voigt Hill
#
# Bulk Modulus (GPa) = 56.58387 61.74994 59.16690
# Shear Modulus (GPa) = 20.22699 64.55884 42.39291
#
# Velocity S-wave (km/s) = 2.97740 5.31924 4.31041
# Velocity P-wave (km/s) = 6.05136 8.04916 7.12068
#
# Compressibility (1/GPa) = 0.01767288
#
# Stress axis : x y z
#
# Youngs Moduli (GPa) = 86.87062 100.47811 50.69715
#
# Poissons Ratio (x) = 0.22692 0.36757
# Poissons Ratio (y) = 0.19619 0.11403
# Poissons Ratio (z) = 0.62983 0.22601
#
# Static dielectric constant tensor:
#      x y z
#    x 1.845240 0.000000 0.000000 
#    y 0.000000 1.978650 0.000000 
#    z 0.000000 0.000000 1.896900 
# 
# From -- ./inp_files/62285.got.cif
#   From: 2010.05.17/outbox.cif.g08.bks.cpg/sg70_32_cif.got.tgz:62285.got - 2010.06.03 15:57:51.
