data_PCOD9516874
_publ_section_title
;
Structure prediction by ZEFSAII (Michael W. Deem and Ramdas Pophale) SiO2 
 PCOD9516874
Probable space group: F D D D
;
_chemical_formula_sum "Si O2"
_cell_formula_units_Z 80
_cell_length_a 25.787336
_cell_length_b 23.814243
_cell_length_c 5.255051
_cell_angle_alpha 90.000000
_cell_angle_beta 90.000000
_cell_angle_gamma 90.000000
_cell_volume 3227.157749
_symmetry_space_group_name_H-M "F D D D"
_symmetry_group_IT_number 70
_space_group.IT_coordinate_system_code '2'
_symmetry_cell_setting 'orthorhombic'
loop_
_space_group_symop_operation_xyz
x,y,z
1/4-x,1/4-y,z
x,1/4-y,1/4-z
1/4-x,y,1/4-z
-x,-y,-z
3/4+x,3/4+y,-z
-x,3/4+y,3/4+z
3/4+x,-y,3/4+z
x,1/2+y,1/2+z
1/4-x,3/4-y,1/2+z
x,3/4-y,3/4-z
1/4-x,1/2+y,3/4-z
-x,1/2-y,1/2-z
3/4+x,1/4+y,1/2-z
-x,1/4+y,1/4+z
3/4+x,1/2-y,1/4+z
1/2+x,y,1/2+z
3/4-x,1/4-y,1/2+z
1/2+x,1/4-y,3/4-z
3/4-x,y,3/4-z
1/2-x,-y,1/2-z
1/4+x,3/4+y,1/2-z
1/2-x,3/4+y,1/4+z
1/4+x,-y,1/4+z
1/2+x,1/2+y,z
3/4-x,3/4-y,z
1/2+x,3/4-y,1/4-z
3/4-x,1/2+y,1/4-z
1/2-x,1/2-y,-z
1/4+x,1/4+y,-z
1/2-x,1/4+y,3/4+z
1/4+x,1/2-y,3/4+z
loop_
_atom_site_type_symbol
_atom_site_label
_atom_site_fract_x
_atom_site_fract_y
_atom_site_fract_z
Si Si1 0.684376 0.818693 0.217401
Si Si2 0.839198 0.299997 0.121540
Si Si3 0.510361 0.625000 0.125000
O O1 0.625000 0.821237 0.125000
O O2 0.693024 0.875000 0.375000
O O3 0.688159 0.760952 0.370699
O O4 0.724273 0.825639 0.985961
O O5 0.875000 0.302214 0.375000
O O6 0.797238 0.348392 0.161033
O O7 0.875000 0.305003 0.875000
#
# Coordination Sequence:
#
# PCOD9516874 Si02
#       3
#    32  32  16
#     4  11  24  46  76 111 158 204 261 321 384 462
#     4  11  28  50  76 112 157 207 257 320 389 461
#     4  12  27  46  80 114 152 210 263 318 388 462
#
# _framework density 24.789615000000001
#
# number of rings (size 3 to 8) (size 9 to 14) (size 15 to 20)
#    0.000    0.800    2.000    3.000   11.200    3.200 
#    0.000    0.000    0.000    0.000    0.000    0.000 
#    0.000    0.000    0.000    0.000    0.000    0.000 
#
# Total GULP energy -112147.218451 kJ/mol
# GULP energy per Si atom -5607.360923 kJ/mol
# Density = 2.473319 g / cm^3
# Si number density = 24.789615 Si / 1000 Ang^3
#
#
#
# Elastic Constant Matrix: (Units=GPa)
#
#
# Indices 1 2 3 4 5 6 
#
# 1 149.1706 73.6264 86.6610 -0.0423 0.0031 0.0064
# 2 73.6264 144.4159 48.3203 0.1586 0.0336 -0.0047
# 3 86.6610 48.3203 158.9978 0.0597 0.0246 0.0897
# 4 -0.0423 0.1586 0.0597 35.7613 0.0201 0.0375
# 5 0.0031 0.0336 0.0246 0.0201 47.2834 -0.0378
# 6 0.0064 -0.0047 0.0897 0.0375 -0.0378 -13.6595
#
#
#
# Elastic Compliance Matrix: (Units=1/GPa)
#
#
# Indices 1 2 3 4 5 6 
#
# 1 0.011807 -0.004304 -0.005127 0.000042 0.000005 -0.000027
# 2 -0.004304 0.009277 -0.000474 -0.000045 -0.000006 -0.000008
# 3 -0.005127 -0.000474 0.009228 -0.000019 -0.000004 0.000058
# 4 0.000042 -0.000045 -0.000019 0.027963 -0.000012 0.000077
# 5 0.000005 -0.000006 -0.000004 -0.000012 0.021149 -0.000059
# 6 -0.000027 -0.000008 0.000058 0.000077 -0.000059 -0.073208
#
#
# Mechanical properties :
#
#
# Convention : Reuss Voigt Hill
#
# Bulk Modulus (GPa) = 95.21598 96.64440 95.93019
# Shear Modulus (GPa) = 169.34400 30.14214 99.74307
#
# Velocity S-wave (km/s) = 8.27410 3.49078 6.35005
# Velocity P-wave (km/s) = 11.39184 7.43760 9.62008
#
# Compressibility (1/GPa) = 0.01050244
#
# Stress axis : x y z
#
# Youngs Moduli (GPa) = 84.69803 107.79192 108.36761
#
# Poissons Ratio (x) = 0.46392 0.55562
# Poissons Ratio (y) = 0.36452 0.05132
# Poissons Ratio (z) = 0.43426 0.05105
#
# Static dielectric constant tensor:
#      x y z
#    x 1.939270 0.000030 0.000010 
#    y 0.000030 1.947300 0.000150 
#    z 0.000010 0.000150 2.118840 
# 
# From -- ./inp_files/2478.got.cif
#   From: 2010.05.17/outbox.cif.g08.bks.cpg/sg70_2_cif.got.tgz:2478.got - 2010.06.03 15:57:51.
