data_PCOD9516453
_publ_section_title
;
Structure prediction by ZEFSAII (Michael W. Deem and Ramdas Pophale) SiO2 
 PCOD9516453
Probable space group: F D D D
;
_chemical_formula_sum "Si O2"
_cell_formula_units_Z 112
_cell_length_a 4.823475
_cell_length_b 27.711440
_cell_length_c 31.675996
_cell_angle_alpha 90.000000
_cell_angle_beta 90.000000
_cell_angle_gamma 90.000000
_cell_volume 4233.985881
_symmetry_space_group_name_H-M "F D D D"
_symmetry_group_IT_number 70
_space_group.IT_coordinate_system_code '2'
_symmetry_cell_setting 'orthorhombic'
loop_
_space_group_symop_operation_xyz
x,y,z
1/4-x,1/4-y,z
x,1/4-y,1/4-z
1/4-x,y,1/4-z
-x,-y,-z
3/4+x,3/4+y,-z
-x,3/4+y,3/4+z
3/4+x,-y,3/4+z
x,1/2+y,1/2+z
1/4-x,3/4-y,1/2+z
x,3/4-y,3/4-z
1/4-x,1/2+y,3/4-z
-x,1/2-y,1/2-z
3/4+x,1/4+y,1/2-z
-x,1/4+y,1/4+z
3/4+x,1/2-y,1/4+z
1/2+x,y,1/2+z
3/4-x,1/4-y,1/2+z
1/2+x,1/4-y,3/4-z
3/4-x,y,3/4-z
1/2-x,-y,1/2-z
1/4+x,3/4+y,1/2-z
1/2-x,3/4+y,1/4+z
1/4+x,-y,1/4+z
1/2+x,1/2+y,z
3/4-x,3/4-y,z
1/2+x,3/4-y,1/4-z
3/4-x,1/2+y,1/4-z
1/2-x,1/2-y,-z
1/4+x,1/4+y,-z
1/2-x,1/4+y,3/4+z
1/4+x,1/2-y,3/4+z
loop_
_atom_site_type_symbol
_atom_site_label
_atom_site_fract_x
_atom_site_fract_y
_atom_site_fract_z
Si Si1 0.403633 0.048590 0.474286
Si Si2 0.939114 0.080733 0.686584
Si Si3 0.125000 0.125000 0.908314
Si Si4 0.320787 0.019709 0.087236
O O1 0.304890 0.081081 0.512888
O O2 0.580499 0.080256 0.441218
O O3 0.500000 0.000000 0.500000
O O4 0.174577 0.024075 0.445475
O O5 0.125000 0.125000 0.671364
O O6 0.114854 0.037178 0.666343
O O7 0.620534 0.067280 0.675640
O O8 0.375000 0.117737 0.875000
O O9 0.125000 0.001308 0.125000
#
# Coordination Sequence:
#
# PCOD9516453 Si02
#       4
#    32  32  16  32
#     4  10  26  47  76 107 150 202 255 313 390 477
#     4  11  25  42  72 101 139 190 246 298 365 461
#     4  12  30  50  80 120 159 204 271 346 404 470
#     4  11  24  44  68 102 144 186 238 306 378 441
#
# _framework density 26.452614000000001
#
# number of rings (size 3 to 8) (size 9 to 14) (size 15 to 20)
#    0.000    1.143    0.000    3.429   10.000   12.571 
#    0.000    0.000    0.000    0.000    0.000    0.000 
#    0.000    0.000    0.000    0.000    0.000    0.000 
#
# Total GULP energy -155937.086919 kJ/mol
# GULP energy per Si atom -5569.181676 kJ/mol
# Density = 2.639241 g / cm^3
# Si number density = 26.452614 Si / 1000 Ang^3
#
#
#
# Elastic Constant Matrix: (Units=GPa)
#
#
# Indices 1 2 3 4 5 6 
#
# 1 163.3029 23.1821 28.2454 0.0000 0.0000 0.0000
# 2 23.1821 97.6205 28.0275 0.0000 0.0000 0.0000
# 3 28.2454 28.0275 194.1252 0.0000 0.0000 0.0000
# 4 0.0000 0.0000 0.0000 26.1207 0.0000 0.0000
# 5 0.0000 0.0000 0.0000 0.0000 20.3531 0.0000
# 6 0.0000 0.0000 0.0000 0.0000 0.0000 -3.4903
#
#
#
# Elastic Compliance Matrix: (Units=1/GPa)
#
#
# Indices 1 2 3 4 5 6 
#
# 1 0.006439 -0.001315 -0.000747 0.000000 0.000000 0.000000
# 2 -0.001315 0.010955 -0.001390 0.000000 0.000000 0.000000
# 3 -0.000747 -0.001390 0.005461 0.000000 0.000000 0.000000
# 4 0.000000 0.000000 0.000000 0.038284 0.000000 0.000000
# 5 0.000000 0.000000 0.000000 0.000000 0.049133 0.000000
# 6 0.000000 0.000000 0.000000 0.000000 0.000000 -0.286506
#
#
# Mechanical properties :
#
#
# Convention : Reuss Voigt Hill
#
# Bulk Modulus (GPa) = 62.69227 68.21762 65.45494
# Shear Modulus (GPa) = -30.48546 33.63627 1.57540
#
# Velocity S-wave (km/s) = -3.39847 3.56977 0.77256
# Velocity P-wave (km/s) = 2.88996 6.54489 5.05903
#
# Compressibility (1/GPa) = 0.01595093
#
# Stress axis : x y z
#
# Youngs Moduli (GPa) = 155.29287 91.28137 183.12450
#
# Poissons Ratio (x) = 0.12001 0.13682
# Poissons Ratio (y) = 0.20416 0.25462
# Poissons Ratio (z) = 0.11602 0.12692
#
# Static dielectric constant tensor:
#      x y z
#    x 2.066590 0.000000 0.000000 
#    y 0.000000 2.222820 0.000000 
#    z 0.000000 0.000000 2.272340 
# 
# From -- ./inp_files/62942.got.cif
#   From: 2010.05.17/outbox.cif.g08.bks.cpg/sg70_32_cif.got.tgz:62942.got - 2010.06.03 15:57:51.
