data_PCOD9516782
_publ_section_title
;
Structure prediction by ZEFSAII (Michael W. Deem and Ramdas Pophale) SiO2 
 PCOD9516782
Probable space group: F D D D
;
_chemical_formula_sum "Si O2"
_cell_formula_units_Z 160
_cell_length_a 27.630162
_cell_length_b 22.400286
_cell_length_c 12.328053
_cell_angle_alpha 90.000000
_cell_angle_beta 90.000000
_cell_angle_gamma 90.000000
_cell_volume 7630.122093
_symmetry_space_group_name_H-M "F D D D"
_symmetry_group_IT_number 70
_space_group.IT_coordinate_system_code '2'
_symmetry_cell_setting 'orthorhombic'
loop_
_space_group_symop_operation_xyz
x,y,z
1/4-x,1/4-y,z
x,1/4-y,1/4-z
1/4-x,y,1/4-z
-x,-y,-z
3/4+x,3/4+y,-z
-x,3/4+y,3/4+z
3/4+x,-y,3/4+z
x,1/2+y,1/2+z
1/4-x,3/4-y,1/2+z
x,3/4-y,3/4-z
1/4-x,1/2+y,3/4-z
-x,1/2-y,1/2-z
3/4+x,1/4+y,1/2-z
-x,1/4+y,1/4+z
3/4+x,1/2-y,1/4+z
1/2+x,y,1/2+z
3/4-x,1/4-y,1/2+z
1/2+x,1/4-y,3/4-z
3/4-x,y,3/4-z
1/2-x,-y,1/2-z
1/4+x,3/4+y,1/2-z
1/2-x,3/4+y,1/4+z
1/4+x,-y,1/4+z
1/2+x,1/2+y,z
3/4-x,3/4-y,z
1/2+x,3/4-y,1/4-z
3/4-x,1/2+y,1/4-z
1/2-x,1/2-y,-z
1/4+x,1/4+y,-z
1/2-x,1/4+y,3/4+z
1/4+x,1/2-y,3/4+z
loop_
_atom_site_type_symbol
_atom_site_label
_atom_site_fract_x
_atom_site_fract_y
_atom_site_fract_z
Si Si1 0.125000 0.818742 0.625000
Si Si2 0.632349 0.531459 0.298500
Si Si3 0.838282 0.491448 0.783238
Si Si4 0.034857 0.125000 0.625000
Si Si5 0.531035 0.893749 0.064856
Si Si6 0.794208 0.866460 0.752556
O O1 0.111557 0.777329 0.727415
O O2 0.078764 0.857519 0.593755
O O3 0.616810 0.519625 0.421935
O O4 0.587179 0.567797 0.246965
O O5 0.679270 0.573506 0.289654
O O6 0.875000 0.513800 0.875000
O O7 0.816373 0.429724 0.829410
O O8 0.797678 0.542056 0.768870
O O9 0.000198 0.141216 0.524843
O O10 0.497411 0.901997 0.169807
O O11 0.776510 0.875000 0.875000
#
# Coordination Sequence:
#
# PCOD9516782 Si02
#       6
#    16  32  32  16  32  32
#     4  12  26  47  70  99 142 190 226 284 368 402
#     4  11  23  46  73  98 142 179 231 288 345 417
#     4  12  26  45  70 108 143 180 232 287 348 421
#     4  12  25  44  76  98 142 190 234 283 348 420
#     4  12  27  45  68 107 142 182 234 290 351 411
#     4  11  23  45  73 105 132 179 238 291 335 417
#
# _framework density 20.969521
#
# number of rings (size 3 to 8) (size 9 to 14) (size 15 to 20)
#    0.000    0.400    5.000    3.900    5.600    2.400 
#    1.800    0.000    0.000    0.000    0.000    0.000 
#    0.000    0.000    0.000    0.000    0.000    0.000 
#
# Total GULP energy -223911.565288 kJ/mol
# GULP energy per Si atom -5597.789132 kJ/mol
# Density = 2.092179 g / cm^3
# Si number density = 20.969521 Si / 1000 Ang^3
#
#
#
# Elastic Constant Matrix: (Units=GPa)
#
#
# Indices 1 2 3 4 5 6 
#
# 1 60.2564 19.9983 18.9176 0.0000 0.0000 0.0000
# 2 19.9983 100.1395 24.4935 0.0000 0.0000 0.0000
# 3 18.9176 24.4935 147.6176 -0.0001 0.0000 0.0000
# 4 0.0000 0.0000 -0.0001 20.4069 0.0000 0.0000
# 5 0.0000 0.0000 0.0000 0.0000 8.9023 0.0000
# 6 0.0000 0.0000 0.0000 0.0000 0.0000 10.8599
#
#
#
# Elastic Compliance Matrix: (Units=1/GPa)
#
#
# Indices 1 2 3 4 5 6 
#
# 1 0.018224 -0.003198 -0.001805 0.000000 0.000000 0.000000
# 2 -0.003198 0.010970 -0.001410 0.000000 0.000000 0.000000
# 3 -0.001805 -0.001410 0.007240 0.000000 0.000000 0.000000
# 4 0.000000 0.000000 0.000000 0.049003 0.000000 0.000000
# 5 0.000000 0.000000 0.000000 0.000000 0.112330 0.000000
# 6 0.000000 0.000000 0.000000 0.000000 0.000000 0.092082
#
#
# Mechanical properties :
#
#
# Convention : Reuss Voigt Hill
#
# Bulk Modulus (GPa) = 42.36057 48.31470 45.33764
# Shear Modulus (GPa) = 16.10083 24.34077 20.22080
#
# Velocity S-wave (km/s) = 2.77396 3.41070 3.10868
# Velocity P-wave (km/s) = 5.52311 6.21297 5.87817
#
# Compressibility (1/GPa) = 0.02360686
#
# Stress axis : x y z
#
# Youngs Moduli (GPa) = 54.87357 91.16055 138.12995
#
# Poissons Ratio (x) = 0.29152 0.24930
# Poissons Ratio (y) = 0.17548 0.19481
# Poissons Ratio (z) = 0.09904 0.12857
#
# Static dielectric constant tensor:
#      x y z
#    x 1.767700 0.000000 0.000000 
#    y 0.000000 1.753240 0.000000 
#    z 0.000000 0.000000 1.886370 
# 
# From -- ./inp_files/22198.got.cif
#   From: 2010.05.17/outbox.cif.g08.bks.cpg/sg70_12_cif.got.tgz:22198.got - 2010.06.03 15:57:51.
