data_PCOD9516872
_publ_section_title
;
Structure prediction by ZEFSAII (Michael W. Deem and Ramdas Pophale) SiO2 
 PCOD9516872
Probable space group: F D D D
;
_chemical_formula_sum "Si O2"
_cell_formula_units_Z 208
_cell_length_a 18.605274
_cell_length_b 20.453042
_cell_length_c 24.939809
_cell_angle_alpha 90.000000
_cell_angle_beta 90.000000
_cell_angle_gamma 90.000000
_cell_volume 9490.456514
_symmetry_space_group_name_H-M "F D D D"
_symmetry_group_IT_number 70
_space_group.IT_coordinate_system_code '2'
_symmetry_cell_setting 'orthorhombic'
loop_
_space_group_symop_operation_xyz
x,y,z
1/4-x,1/4-y,z
x,1/4-y,1/4-z
1/4-x,y,1/4-z
-x,-y,-z
3/4+x,3/4+y,-z
-x,3/4+y,3/4+z
3/4+x,-y,3/4+z
x,1/2+y,1/2+z
1/4-x,3/4-y,1/2+z
x,3/4-y,3/4-z
1/4-x,1/2+y,3/4-z
-x,1/2-y,1/2-z
3/4+x,1/4+y,1/2-z
-x,1/4+y,1/4+z
3/4+x,1/2-y,1/4+z
1/2+x,y,1/2+z
3/4-x,1/4-y,1/2+z
1/2+x,1/4-y,3/4-z
3/4-x,y,3/4-z
1/2-x,-y,1/2-z
1/4+x,3/4+y,1/2-z
1/2-x,3/4+y,1/4+z
1/4+x,-y,1/4+z
1/2+x,1/2+y,z
3/4-x,3/4-y,z
1/2+x,3/4-y,1/4-z
3/4-x,1/2+y,1/4-z
1/2-x,1/2-y,-z
1/4+x,1/4+y,-z
1/2-x,1/4+y,3/4+z
1/4+x,1/2-y,3/4+z
loop_
_atom_site_type_symbol
_atom_site_label
_atom_site_fract_x
_atom_site_fract_y
_atom_site_fract_z
Si Si1 0.875000 0.063710 0.375000
Si Si2 0.101670 0.264298 0.925761
Si Si3 0.776275 0.382270 0.618411
Si Si4 0.186435 0.529825 0.213277
Si Si5 0.891007 0.952019 0.790884
Si Si6 0.625000 0.125000 0.285210
Si Si7 0.998384 0.125000 0.625000
Si Si8 0.747543 0.233026 0.612247
O O1 0.805843 0.102603 0.392163
O O2 0.847464 0.022978 0.325068
O O3 0.073850 0.192581 0.903703
O O4 0.044069 0.316773 0.904817
O O5 0.176262 0.297795 0.904490
O O6 0.103778 0.248379 0.989031
O O7 0.803770 0.378999 0.679326
O O8 0.776576 0.306802 0.602576
O O9 0.250000 0.500000 0.250000
O O10 0.125886 0.559788 0.251106
O O11 0.210834 0.587465 0.172978
O O12 0.875000 0.875000 0.777169
O O13 0.960848 0.963666 0.830205
O O14 0.819118 0.970817 0.823198
#
# Coordination Sequence:
#
# PCOD9516872 Si02
#       8
#    16  32  32  32  32  16  16  32
#     4  12  24  47  66 112 149 192 252 314 370 478
#     4  12  26  47  72 106 150 194 251 311 380 454
#     4  12  25  46  73 106 148 196 249 311 374 460
#     4  12  26  47  75 109 151 204 254 319 394 459
#     4  11  26  47  75 111 147 198 249 311 392 451
#     4  12  24  45  74 100 146 197 252 304 384 450
#     4  12  28  47  70 115 148 200 256 318 386 461
#     4  11  24  46  75 107 147 193 247 316 369 464
#
# _framework density 21.916754000000001
#
# number of rings (size 3 to 8) (size 9 to 14) (size 15 to 20)
#    0.000    0.308    4.615    4.154    4.308    1.231 
#    0.000    0.000    0.000    0.000    0.000    0.000 
#    0.000    0.000    0.000    0.000    0.000    0.000 
#
# Total GULP energy -289812.024536 kJ/mol
# GULP energy per Si atom -5573.308164 kJ/mol
# Density = 2.186687 g / cm^3
# Si number density = 21.916754 Si / 1000 Ang^3
#
#
#
# Elastic Constant Matrix: (Units=GPa)
#
#
# Indices 1 2 3 4 5 6 
#
# 1 108.4466 10.2096 37.2397 0.0000 0.0000 0.0000
# 2 10.2096 69.8393 18.6123 0.0000 0.0000 0.0000
# 3 37.2397 18.6123 94.9316 0.0000 0.0000 0.0000
# 4 0.0000 0.0000 0.0000 32.0274 0.0000 0.0000
# 5 0.0000 0.0000 0.0000 0.0000 27.9238 0.0000
# 6 0.0000 0.0000 0.0000 0.0000 0.0000 20.2737
#
#
#
# Elastic Compliance Matrix: (Units=1/GPa)
#
#
# Indices 1 2 3 4 5 6 
#
# 1 0.010671 -0.000469 -0.004094 0.000000 0.000000 0.000000
# 2 -0.000469 0.015129 -0.002782 0.000000 0.000000 0.000000
# 3 -0.004094 -0.002782 0.012685 0.000000 0.000000 0.000000
# 4 0.000000 0.000000 0.000000 0.031223 0.000000 0.000000
# 5 0.000000 0.000000 0.000000 0.000000 0.035812 0.000000
# 6 0.000000 0.000000 0.000000 0.000000 0.000000 0.049325
#
#
# Mechanical properties :
#
#
# Convention : Reuss Voigt Hill
#
# Bulk Modulus (GPa) = 42.02607 45.03784 43.53195
# Shear Modulus (GPa) = 28.17423 29.85538 29.01480
#
# Velocity S-wave (km/s) = 3.58929 3.69483 3.64244
# Velocity P-wave (km/s) = 6.03277 6.22868 6.13151
#
# Compressibility (1/GPa) = 0.02379475
#
# Stress axis : x y z
#
# Youngs Moduli (GPa) = 93.71043 66.10008 78.83062
#
# Poissons Ratio (x) = 0.03099 0.32274
# Poissons Ratio (y) = 0.04394 0.21932
# Poissons Ratio (z) = 0.38366 0.18390
#
# Static dielectric constant tensor:
#      x y z
#    x 1.686960 0.000000 0.000000 
#    y 0.000000 1.012360 0.000000 
#    z 0.000000 0.000000 1.797950 
# 
# From -- ./inp_files/59650.got.cif
#   From: 2010.05.17/outbox.cif.g08.bks.cpg/sg70_30_cif.got.tgz:59650.got - 2010.06.03 15:57:51.
