data_PCOD9516259
_publ_section_title
;
Structure prediction by ZEFSAII (Michael W. Deem and Ramdas Pophale) SiO2 
 PCOD9516259
Probable space group: F D D D
;
_chemical_formula_sum "Si O2"
_cell_formula_units_Z 128
_cell_length_a 20.873917
_cell_length_b 28.620497
_cell_length_c 10.588993
_cell_angle_alpha 90.000000
_cell_angle_beta 90.000000
_cell_angle_gamma 90.000000
_cell_volume 6326.096093
_symmetry_space_group_name_H-M "F D D D"
_symmetry_group_IT_number 70
_space_group.IT_coordinate_system_code '2'
_symmetry_cell_setting 'orthorhombic'
loop_
_space_group_symop_operation_xyz
x,y,z
1/4-x,1/4-y,z
x,1/4-y,1/4-z
1/4-x,y,1/4-z
-x,-y,-z
3/4+x,3/4+y,-z
-x,3/4+y,3/4+z
3/4+x,-y,3/4+z
x,1/2+y,1/2+z
1/4-x,3/4-y,1/2+z
x,3/4-y,3/4-z
1/4-x,1/2+y,3/4-z
-x,1/2-y,1/2-z
3/4+x,1/4+y,1/2-z
-x,1/4+y,1/4+z
3/4+x,1/2-y,1/4+z
1/2+x,y,1/2+z
3/4-x,1/4-y,1/2+z
1/2+x,1/4-y,3/4-z
3/4-x,y,3/4-z
1/2-x,-y,1/2-z
1/4+x,3/4+y,1/2-z
1/2-x,3/4+y,1/4+z
1/4+x,-y,1/4+z
1/2+x,1/2+y,z
3/4-x,3/4-y,z
1/2+x,3/4-y,1/4-z
3/4-x,1/2+y,1/4-z
1/2-x,1/2-y,-z
1/4+x,1/4+y,-z
1/2-x,1/4+y,3/4+z
1/4+x,1/2-y,3/4+z
loop_
_atom_site_type_symbol
_atom_site_label
_atom_site_fract_x
_atom_site_fract_y
_atom_site_fract_z
Si Si1 0.454975 0.506516 0.199148
Si Si2 0.950992 0.090448 0.369941
Si Si3 0.484891 0.375000 0.375000
Si Si4 0.055204 0.309914 0.188095
Si Si5 0.625000 0.048015 0.125000
O O1 0.478549 0.543221 0.307112
O O2 0.506845 0.467878 0.154994
O O3 0.389649 0.483884 0.253690
O O4 0.441349 0.534592 0.071801
O O5 0.875000 0.083157 0.375000
O O6 0.966162 0.136751 0.288995
O O7 0.972686 0.109017 0.506844
O O8 0.436458 0.418777 0.369681
O O9 0.125000 0.310734 0.125000
#
# Coordination Sequence:
#
# PCOD9516259 Si02
#       5
#    32  32  16  32  16
#     4  11  23  41  67  97 126 178 221 268 341 407
#     4  11  24  39  67  94 128 170 219 274 333 395
#     4  11  26  44  64  96 136 171 220 288 326 397
#     4  10  24  42  63  95 137 168 218 280 327 398
#     4  11  24  44  66  96 132 172 224 272 335 402
#
# _framework density 20.233647999999999
#
# number of rings (size 3 to 8) (size 9 to 14) (size 15 to 20)
#    0.000    1.250    3.750    0.750   10.500    1.000 
#    0.000    0.000    0.000    1.500    0.000    0.000 
#    0.000    0.000    0.000    0.000    0.000    0.000 
#
# Total GULP energy -178311.159514 kJ/mol
# GULP energy per Si atom -5572.223735 kJ/mol
# Density = 2.018759 g / cm^3
# Si number density = 20.233648 Si / 1000 Ang^3
#
#
#
# Elastic Constant Matrix: (Units=GPa)
#
#
# Indices 1 2 3 4 5 6 
#
# 1 57.1474 17.8423 45.4030 0.0000 0.0000 0.0000
# 2 17.8423 111.4888 37.0656 0.0000 0.0000 0.0000
# 3 45.4030 37.0656 115.0830 0.0000 0.0000 0.0001
# 4 0.0000 0.0000 0.0000 45.6371 0.0000 0.0003
# 5 0.0000 0.0000 0.0000 0.0000 35.7284 0.0000
# 6 0.0000 0.0000 0.0001 0.0003 0.0000 -819.5638
#
#
#
# Elastic Compliance Matrix: (Units=1/GPa)
#
#
# Indices 1 2 3 4 5 6 
#
# 1 0.025555 -0.000826 -0.009816 0.000000 0.000000 0.000000
# 2 -0.000826 0.010072 -0.002918 0.000000 0.000000 0.000000
# 3 -0.009816 -0.002918 0.013502 0.000000 0.000000 0.000000
# 4 0.000000 0.000000 0.000000 0.021912 0.000000 0.000000
# 5 0.000000 0.000000 0.000000 0.000000 0.027989 0.000000
# 6 0.000000 0.000000 0.000000 0.000000 0.000000 -0.001220
#
#
# Mechanical properties :
#
#
# Convention : Reuss Voigt Hill
#
# Bulk Modulus (GPa) = 45.43712 53.81567 49.62640
# Shear Modulus (GPa) = 37.80246 -135.41243 -48.80499
#
# Velocity S-wave (km/s) = 4.32707 -8.18961 -4.91661
# Velocity P-wave (km/s) = 6.88982 7.92284 2.76602
#
# Compressibility (1/GPa) = 0.02200844
#
# Stress axis : x y z
#
# Youngs Moduli (GPa) = 39.13073 99.28678 74.06396
#
# Poissons Ratio (x) = 0.08205 0.72702
# Poissons Ratio (y) = 0.03234 0.21611
# Poissons Ratio (z) = 0.38411 0.28971
#
# Static dielectric constant tensor:
#      x y z
#    x 1.694990 0.000000 0.000000 
#    y 0.000000 1.804660 0.000000 
#    z 0.000000 0.000000 1.736450 
# 
# From -- ./inp_files/19151.got.cif
#   From: 2010.05.17/outbox.cif.g08.bks.cpg/sg70_10_cif.got.tgz:19151.got - 2010.06.03 15:57:51.
