data_PCOD9516301
_publ_section_title
;
Structure prediction by ZEFSAII (Michael W. Deem and Ramdas Pophale) SiO2 
 PCOD9516301
Probable space group: F D D D
;
_chemical_formula_sum "Si O2"
_cell_formula_units_Z 176
_cell_length_a 10.810206
_cell_length_b 30.041990
_cell_length_c 25.646827
_cell_angle_alpha 90.000000
_cell_angle_beta 90.000000
_cell_angle_gamma 90.000000
_cell_volume 8329.066115
_symmetry_space_group_name_H-M "F D D D"
_symmetry_group_IT_number 70
_space_group.IT_coordinate_system_code '2'
_symmetry_cell_setting 'orthorhombic'
loop_
_space_group_symop_operation_xyz
x,y,z
1/4-x,1/4-y,z
x,1/4-y,1/4-z
1/4-x,y,1/4-z
-x,-y,-z
3/4+x,3/4+y,-z
-x,3/4+y,3/4+z
3/4+x,-y,3/4+z
x,1/2+y,1/2+z
1/4-x,3/4-y,1/2+z
x,3/4-y,3/4-z
1/4-x,1/2+y,3/4-z
-x,1/2-y,1/2-z
3/4+x,1/4+y,1/2-z
-x,1/4+y,1/4+z
3/4+x,1/2-y,1/4+z
1/2+x,y,1/2+z
3/4-x,1/4-y,1/2+z
1/2+x,1/4-y,3/4-z
3/4-x,y,3/4-z
1/2-x,-y,1/2-z
1/4+x,3/4+y,1/2-z
1/2-x,3/4+y,1/4+z
1/4+x,-y,1/4+z
1/2+x,1/2+y,z
3/4-x,3/4-y,z
1/2+x,3/4-y,1/4-z
3/4-x,1/2+y,1/4-z
1/2-x,1/2-y,-z
1/4+x,1/4+y,-z
1/2-x,1/4+y,3/4+z
1/4+x,1/2-y,3/4+z
loop_
_atom_site_type_symbol
_atom_site_label
_atom_site_fract_x
_atom_site_fract_y
_atom_site_fract_z
Si Si1 0.578654 0.875000 0.875000
Si Si2 0.496641 0.014148 0.355716
Si Si3 0.349704 0.496601 0.998010
Si Si4 0.762334 0.142212 0.411267
Si Si5 0.758381 0.527571 0.609190
Si Si6 0.000072 0.602880 0.723633
O O1 0.506161 0.830676 0.889673
O O2 0.654627 0.860786 0.822972
O O3 0.375000 0.986327 0.375000
O O4 0.500266 0.055801 0.395091
O O5 0.459034 0.027010 0.297403
O O6 0.626605 0.989627 0.356287
O O7 0.297210 0.512050 0.052419
O O8 0.500000 0.500000 0.000000
O O9 0.292996 0.447563 0.986676
O O10 0.625000 0.125000 0.398338
O O11 0.875000 0.125086 0.375000
O O12 0.783942 0.127923 0.471570
O O13 0.625000 0.509376 0.625000
O O14 0.125000 0.625000 0.703817
#
# Coordination Sequence:
#
# PCOD9516301 Si02
#       6
#    16  32  32  32  32  32
#     4  12  26  46  66 104 145 196 239 286 367 448
#     4  11  24  45  71 109 136 188 243 290 370 426
#     4  12  25  45  76 105 143 188 246 307 361 438
#     4  10  24  44  68 105 139 178 234 292 358 414
#     4  12  27  47  72 100 150 187 242 305 362 437
#     4  11  24  42  72 106 139 187 240 295 356 431
#
# _framework density 21.13082
#
# number of rings (size 3 to 8) (size 9 to 14) (size 15 to 20)
#    0.000    0.727    3.636    3.818   10.182    3.636 
#    3.273    0.000    0.000    0.000    0.000    0.000 
#    0.000    0.000    0.000    0.000    0.000    0.000 
#
# Total GULP energy -245541.704088 kJ/mol
# GULP energy per Si atom -5580.493275 kJ/mol
# Density = 2.108273 g / cm^3
# Si number density = 21.130820 Si / 1000 Ang^3
#
#
#
# Elastic Constant Matrix: (Units=GPa)
#
#
# Indices 1 2 3 4 5 6 
#
# 1 183.0593 40.5367 80.8247 0.0000 0.0000 0.0000
# 2 40.5367 105.3268 39.7970 0.0000 0.0000 0.0000
# 3 80.8247 39.7970 137.8660 0.0000 0.0000 0.0000
# 4 0.0000 0.0000 0.0000 25.2335 0.0000 0.0000
# 5 0.0000 0.0000 0.0000 0.0000 -3.5354 0.0000
# 6 0.0000 0.0000 0.0000 0.0000 0.0000 23.3505
#
#
#
# Elastic Compliance Matrix: (Units=1/GPa)
#
#
# Indices 1 2 3 4 5 6 
#
# 1 0.007546 -0.001384 -0.004024 0.000000 0.000000 0.000000
# 2 -0.001384 0.010910 -0.002338 0.000000 0.000000 0.000000
# 3 -0.004024 -0.002338 0.010288 0.000000 0.000000 0.000000
# 4 0.000000 0.000000 0.000000 0.039630 0.000000 0.000000
# 5 0.000000 0.000000 0.000000 0.000000 -0.282851 0.000000
# 6 0.000000 0.000000 0.000000 0.000000 0.000000 0.042826
#
#
# Mechanical properties :
#
#
# Convention : Reuss Voigt Hill
#
# Bulk Modulus (GPa) = 75.46402 83.17431 79.31917
# Shear Modulus (GPa) = -32.95068 26.68263 -3.13403
#
# Velocity S-wave (km/s) = -3.95316 3.55735 -1.21917
# Velocity P-wave (km/s) = 3.86699 7.50467 5.96966
#
# Compressibility (1/GPa) = 0.01325135
#
# Stress axis : x y z
#
# Youngs Moduli (GPa) = 132.52063 91.65691 97.20265
#
# Poissons Ratio (x) = 0.12681 0.39119
# Poissons Ratio (y) = 0.18335 0.22729
# Poissons Ratio (z) = 0.53333 0.21432
#
# Static dielectric constant tensor:
#      x y z
#    x 2.050550 0.000000 0.000000 
#    y 0.000000 1.844340 0.000000 
#    z 0.000000 0.000000 1.899050 
# 
# From -- ./inp_files/57768.got.cif
#   From: 2010.05.17/outbox.cif.g08.bks.cpg/sg70_29_cif.got.tgz:57768.got - 2010.06.03 15:57:51.
