data_PCOD9516376
_publ_section_title
;
Structure prediction by ZEFSAII (Michael W. Deem and Ramdas Pophale) SiO2 
 PCOD9516376
Probable space group: F D D D
;
_chemical_formula_sum "Si O2"
_cell_formula_units_Z 136
_cell_length_a 12.366419
_cell_length_b 14.128878
_cell_length_c 28.384003
_cell_angle_alpha 90.000000
_cell_angle_beta 90.000000
_cell_angle_gamma 90.000000
_cell_volume 4959.355906
_symmetry_space_group_name_H-M "F D D D"
_symmetry_group_IT_number 70
_space_group.IT_coordinate_system_code '2'
_symmetry_cell_setting 'orthorhombic'
loop_
_space_group_symop_operation_xyz
x,y,z
1/4-x,1/4-y,z
x,1/4-y,1/4-z
1/4-x,y,1/4-z
-x,-y,-z
3/4+x,3/4+y,-z
-x,3/4+y,3/4+z
3/4+x,-y,3/4+z
x,1/2+y,1/2+z
1/4-x,3/4-y,1/2+z
x,3/4-y,3/4-z
1/4-x,1/2+y,3/4-z
-x,1/2-y,1/2-z
3/4+x,1/4+y,1/2-z
-x,1/4+y,1/4+z
3/4+x,1/2-y,1/4+z
1/2+x,y,1/2+z
3/4-x,1/4-y,1/2+z
1/2+x,1/4-y,3/4-z
3/4-x,y,3/4-z
1/2-x,-y,1/2-z
1/4+x,3/4+y,1/2-z
1/2-x,3/4+y,1/4+z
1/4+x,-y,1/4+z
1/2+x,1/2+y,z
3/4-x,3/4-y,z
1/2+x,3/4-y,1/4-z
3/4-x,1/2+y,1/4-z
1/2-x,1/2-y,-z
1/4+x,1/4+y,-z
1/2-x,1/4+y,3/4+z
1/4+x,1/2-y,3/4+z
loop_
_atom_site_type_symbol
_atom_site_label
_atom_site_fract_x
_atom_site_fract_y
_atom_site_fract_z
Si Si1 0.160922 0.417501 0.723012
Si Si2 0.625000 0.125000 0.692620
Si Si3 0.791215 0.199033 0.046129
Si Si4 0.125000 0.125000 0.625000
Si Si5 0.016062 0.716802 0.904602
Si Si6 0.375000 0.875000 0.566885
O O1 0.325336 0.467679 0.780654
O O2 0.102258 0.390739 0.771959
O O3 0.075785 0.401707 0.678991
O O4 0.266649 0.351826 0.713296
O O5 0.712449 0.181039 0.662271
O O6 0.706990 0.175452 0.087674
O O7 0.877650 0.272517 0.065344
O O8 0.750000 0.250000 0.000000
O O9 0.062325 0.694659 0.853247
#
# Coordination Sequence:
#
# PCOD9516376 Si02
#       6
#    32  16  32   8  32  16
#     4  10  25  51  84 127 180 246 307 402 484 577
#     4   8  24  50  80 126 182 237 310 389 482 576
#     4  12  27  52  86 131 191 243 320 405 494 593
#     4  12  32  54  92 132 184 264 322 388 518 578
#     4  10  24  48  81 124 180 238 313 398 475 592
#     4  12  24  44  88 126 172 241 317 385 488 561
#
# _framework density 27.422915
#
# number of rings (size 3 to 8) (size 9 to 14) (size 15 to 20)
#    1.412    0.000    0.000    3.529    3.294    5.647 
#    4.235    0.000    0.000    1.412    0.000    0.000 
#    0.000    0.000    0.000    0.000    0.000    0.000 
#
# Total GULP energy -189696.060459 kJ/mol
# GULP energy per Si atom -5579.295896 kJ/mol
# Density = 2.736050 g / cm^3
# Si number density = 27.422915 Si / 1000 Ang^3
#
#
#
# Elastic Constant Matrix: (Units=GPa)
#
#
# Indices 1 2 3 4 5 6 
#
# 1 238.4194 74.1837 92.0996 0.0000 0.0000 0.0000
# 2 74.1837 150.6282 58.4238 0.0000 0.0000 0.0000
# 3 92.0996 58.4238 172.7377 0.0000 0.0000 0.0000
# 4 0.0000 0.0000 0.0000 75.8117 0.0000 0.0000
# 5 0.0000 0.0000 0.0000 0.0000 64.5463 0.0000
# 6 0.0000 0.0000 0.0000 0.0000 0.0000 42.8262
#
#
#
# Elastic Compliance Matrix: (Units=1/GPa)
#
#
# Indices 1 2 3 4 5 6 
#
# 1 0.005709 -0.001877 -0.002409 0.000000 0.000000 0.000000
# 2 -0.001877 0.008259 -0.001792 0.000000 0.000000 0.000000
# 3 -0.002409 -0.001792 0.007680 0.000000 0.000000 0.000000
# 4 0.000000 0.000000 0.000000 0.013191 0.000000 0.000000
# 5 0.000000 0.000000 0.000000 0.000000 0.015493 0.000000
# 6 0.000000 0.000000 0.000000 0.000000 0.000000 0.023350
#
#
# Mechanical properties :
#
#
# Convention : Reuss Voigt Hill
#
# Bulk Modulus (GPa) = 105.37208 112.35551 108.86379
# Shear Modulus (GPa) = 56.17897 59.10872 57.64384
#
# Velocity S-wave (km/s) = 4.53107 4.64772 4.58977
# Velocity P-wave (km/s) = 8.11680 8.35835 8.23846
#
# Compressibility (1/GPa) = 0.00949018
#
# Stress axis : x y z
#
# Youngs Moduli (GPa) = 175.16335 121.08588 130.21309
#
# Poissons Ratio (x) = 0.22731 0.31368
# Poissons Ratio (y) = 0.32883 0.23338
# Poissons Ratio (z) = 0.42196 0.21703
#
# Static dielectric constant tensor:
#      x y z
#    x 2.670120 0.000000 0.000000 
#    y 0.000000 2.216400 0.000000 
#    z 0.000000 0.000000 2.226360 
# 
# From -- ./inp_files/57284.got.cif
#   From: 2010.05.17/outbox.cif.g08.bks.cpg/sg70_29_cif.got.tgz:57284.got - 2010.06.03 15:57:51.
