data_PCOD9516628
_publ_section_title
;
Structure prediction by ZEFSAII (Michael W. Deem and Ramdas Pophale) SiO2 
 PCOD9516628
Probable space group: F D D D
;
_chemical_formula_sum "Si O2"
_cell_formula_units_Z 160
_cell_length_a 22.487631
_cell_length_b 18.279381
_cell_length_c 17.917748
_cell_angle_alpha 90.000000
_cell_angle_beta 90.000000
_cell_angle_gamma 90.000000
_cell_volume 7365.269042
_symmetry_space_group_name_H-M "F D D D"
_symmetry_group_IT_number 70
_space_group.IT_coordinate_system_code '2'
_symmetry_cell_setting 'orthorhombic'
loop_
_space_group_symop_operation_xyz
x,y,z
1/4-x,1/4-y,z
x,1/4-y,1/4-z
1/4-x,y,1/4-z
-x,-y,-z
3/4+x,3/4+y,-z
-x,3/4+y,3/4+z
3/4+x,-y,3/4+z
x,1/2+y,1/2+z
1/4-x,3/4-y,1/2+z
x,3/4-y,3/4-z
1/4-x,1/2+y,3/4-z
-x,1/2-y,1/2-z
3/4+x,1/4+y,1/2-z
-x,1/4+y,1/4+z
3/4+x,1/2-y,1/4+z
1/2+x,y,1/2+z
3/4-x,1/4-y,1/2+z
1/2+x,1/4-y,3/4-z
3/4-x,y,3/4-z
1/2-x,-y,1/2-z
1/4+x,3/4+y,1/2-z
1/2-x,3/4+y,1/4+z
1/4+x,-y,1/4+z
1/2+x,1/2+y,z
3/4-x,3/4-y,z
1/2+x,3/4-y,1/4-z
3/4-x,1/2+y,1/4-z
1/2-x,1/2-y,-z
1/4+x,1/4+y,-z
1/2-x,1/4+y,3/4+z
1/4+x,1/2-y,3/4+z
loop_
_atom_site_type_symbol
_atom_site_label
_atom_site_fract_x
_atom_site_fract_y
_atom_site_fract_z
Si Si1 0.783236 0.886588 0.786078
Si Si2 0.556659 0.139357 0.036259
Si Si3 0.439350 0.099785 0.959697
Si Si4 0.316369 0.694197 0.785659
Si Si5 0.869708 0.492458 0.464888
O O1 0.784384 0.875000 0.875000
O O2 0.717671 0.867767 0.759818
O O3 0.824708 0.820075 0.756965
O O4 0.815155 0.961854 0.761611
O O5 0.625000 0.125000 0.012398
O O6 0.554388 0.125000 0.125000
O O7 0.541759 0.224822 0.024401
O O8 0.504178 0.095204 0.995432
O O9 0.385737 0.048099 0.985845
O O10 0.441365 0.082396 0.871304
O O11 0.409576 0.178934 0.977745
O O12 0.875000 0.489035 0.375000
#
# Coordination Sequence:
#
# PCOD9516628 Si02
#       5
#    32  32  32  32  32
#     4   9  19  35  62  93 128 160 196 239 304 382
#     4  11  25  46  66  86 121 168 217 271 312 354
#     4  11  22  40  64  91 123 160 212 255 311 372
#     4  11  23  40  67  94 124 163 203 256 321 375
#     4   9  16  36  61  87 125 163 187 240 306 374
#
# _framework density 21.723579000000001
#
# number of rings (size 3 to 8) (size 9 to 14) (size 15 to 20)
#    0.000    1.800    4.000    3.600    0.000    4.800 
#    3.600    2.000    0.000    0.000    0.000    0.000 
#    0.000    0.000    0.000    0.000    0.000    0.000 
#
# Total GULP energy -222862.370667 kJ/mol
# GULP energy per Si atom -5571.559267 kJ/mol
# Density = 2.167413 g / cm^3
# Si number density = 21.723579 Si / 1000 Ang^3
#
#
#
# Elastic Constant Matrix: (Units=GPa)
#
#
# Indices 1 2 3 4 5 6 
#
# 1 174.9806 9.7844 40.1451 0.0000 0.0000 0.0000
# 2 9.7844 78.6584 -1.5290 0.0000 0.0000 0.0000
# 3 40.1451 -1.5290 13.3790 0.0000 0.0000 0.0000
# 4 0.0000 0.0000 0.0000 14.8271 0.0000 0.0000
# 5 0.0000 0.0000 0.0000 0.0000 24.8562 0.0000
# 6 0.0000 0.0000 0.0000 0.0000 0.0000 35.9679
#
#
#
# Elastic Compliance Matrix: (Units=1/GPa)
#
#
# Indices 1 2 3 4 5 6 
#
# 1 0.019272 -0.003529 -0.058231 0.000000 0.000000 0.000000
# 2 -0.003529 0.013388 0.012120 0.000000 0.000000 0.000000
# 3 -0.058231 0.012120 0.250859 0.000000 0.000000 0.000000
# 4 0.000000 0.000000 0.000000 0.067444 0.000000 0.000000
# 5 0.000000 0.000000 0.000000 0.000000 0.040231 0.000000
# 6 0.000000 0.000000 0.000000 0.000000 0.000000 0.027803
#
#
# Mechanical properties :
#
#
# Convention : Reuss Voigt Hill
#
# Bulk Modulus (GPa) = 5.42779 40.42434 22.92606
# Shear Modulus (GPa) = 8.62530 29.70475 19.16503
#
# Velocity S-wave (km/s) = 1.99477 3.70184 2.97345
# Velocity P-wave (km/s) = 2.79454 6.07622 4.72916
#
# Compressibility (1/GPa) = 0.18423697
#
# Stress axis : x y z
#
# Youngs Moduli (GPa) = 51.88878 74.69503 3.98631
#
# Poissons Ratio (x) = 0.26361 0.23213
# Poissons Ratio (y) = 0.18312 -0.04831
# Poissons Ratio (z) = 3.02154 -0.90528
#
# Static dielectric constant tensor:
#      x y z
#    x 1.871680 0.000000 0.000000 
#    y 0.000000 1.847620 0.000000 
#    z 0.000000 0.000000 1.740830 
# 
# From -- ./inp_files/44731.got.cif
#   From: 2010.05.17/outbox.cif.g08.bks.cpg/sg70_23_cif.got.tgz:44731.got - 2010.06.03 15:57:51.
