data_PCOD9516475
_publ_section_title
;
Structure prediction by ZEFSAII (Michael W. Deem and Ramdas Pophale) SiO2 
 PCOD9516475
Probable space group: F D D D
;
_chemical_formula_sum "Si O2"
_cell_formula_units_Z 136
_cell_length_a 16.629650
_cell_length_b 22.790987
_cell_length_c 16.702602
_cell_angle_alpha 90.000000
_cell_angle_beta 90.000000
_cell_angle_gamma 90.000000
_cell_volume 6330.388661
_symmetry_space_group_name_H-M "F D D D"
_symmetry_group_IT_number 70
_space_group.IT_coordinate_system_code '2'
_symmetry_cell_setting 'orthorhombic'
loop_
_space_group_symop_operation_xyz
x,y,z
1/4-x,1/4-y,z
x,1/4-y,1/4-z
1/4-x,y,1/4-z
-x,-y,-z
3/4+x,3/4+y,-z
-x,3/4+y,3/4+z
3/4+x,-y,3/4+z
x,1/2+y,1/2+z
1/4-x,3/4-y,1/2+z
x,3/4-y,3/4-z
1/4-x,1/2+y,3/4-z
-x,1/2-y,1/2-z
3/4+x,1/4+y,1/2-z
-x,1/4+y,1/4+z
3/4+x,1/2-y,1/4+z
1/2+x,y,1/2+z
3/4-x,1/4-y,1/2+z
1/2+x,1/4-y,3/4-z
3/4-x,y,3/4-z
1/2-x,-y,1/2-z
1/4+x,3/4+y,1/2-z
1/2-x,3/4+y,1/4+z
1/4+x,-y,1/4+z
1/2+x,1/2+y,z
3/4-x,3/4-y,z
1/2+x,3/4-y,1/4-z
3/4-x,1/2+y,1/4-z
1/2-x,1/2-y,-z
1/4+x,1/4+y,-z
1/2-x,1/4+y,3/4+z
1/4+x,1/2-y,3/4+z
loop_
_atom_site_type_symbol
_atom_site_label
_atom_site_fract_x
_atom_site_fract_y
_atom_site_fract_z
Si Si1 0.598247 0.875000 0.375000
Si Si2 0.005178 0.595305 0.487120
Si Si3 0.668607 0.027646 0.478701
Si Si4 0.625000 0.125000 0.125000
Si Si5 0.016919 0.457549 0.926351
Si Si6 0.125000 0.302900 0.125000
O O1 0.542597 0.915703 0.430307
O O2 0.657175 0.836943 0.431642
O O3 0.076596 0.550119 0.468946
O O4 0.036670 0.661295 0.494903
O O5 0.942608 0.591331 0.415991
O O6 0.709932 0.994416 0.404017
O O7 0.665544 0.986715 0.556382
O O8 0.687006 0.167897 0.080242
O O9 0.000000 0.500000 0.000000
#
# Coordination Sequence:
#
# PCOD9516475 Si02
#       6
#    16  32  32   8  32  16
#     4  11  24  48  70 109 144 192 244 309 360 450
#     4  11  26  44  71 108 143 178 254 296 365 445
#     4  11  26  45  71 107 141 193 234 311 367 429
#     4  10  28  50  68 110 144 194 252 302 356 458
#     4  11  27  46  74 101 150 198 241 301 374 440
#     4  12  24  44  74 100 142 192 236 302 364 438
#
# _framework density 21.483671999999999
#
# number of rings (size 3 to 8) (size 9 to 14) (size 15 to 20)
#    0.000    0.941    2.353    2.118    9.882    3.765 
#    0.000    0.000    0.000    0.000    0.000    0.000 
#    0.000    0.000    0.000    0.000    0.000    0.000 
#
# Total GULP energy -190062.460784 kJ/mol
# GULP energy per Si atom -5590.072376 kJ/mol
# Density = 2.143477 g / cm^3
# Si number density = 21.483672 Si / 1000 Ang^3
#
#
#
# Elastic Constant Matrix: (Units=GPa)
#
#
# Indices 1 2 3 4 5 6 
#
# 1 149.3115 50.0373 59.1903 0.0000 0.0000 0.0000
# 2 50.0373 90.7279 34.5311 0.0000 0.0000 0.0000
# 3 59.1903 34.5311 121.1329 0.0000 0.0000 0.0000
# 4 0.0000 0.0000 0.0000 169.6150 0.0000 0.0000
# 5 0.0000 0.0000 0.0000 0.0000 23.5948 0.0000
# 6 0.0000 0.0000 0.0000 0.0000 0.0000 32.2114
#
#
#
# Elastic Compliance Matrix: (Units=1/GPa)
#
#
# Indices 1 2 3 4 5 6 
#
# 1 0.009364 -0.003839 -0.003481 0.000000 0.000000 0.000000
# 2 -0.003839 0.013938 -0.002097 0.000000 0.000000 0.000000
# 3 -0.003481 -0.002097 0.010554 0.000000 0.000000 0.000000
# 4 0.000000 0.000000 0.000000 0.005896 0.000000 0.000000
# 5 0.000000 0.000000 0.000000 0.000000 0.042382 0.000000
# 6 0.000000 0.000000 0.000000 0.000000 0.000000 0.031045
#
#
# Mechanical properties :
#
#
# Convention : Reuss Voigt Hill
#
# Bulk Modulus (GPa) = 66.57529 72.07663 69.32596
# Shear Modulus (GPa) = 36.49077 59.57846 48.03461
#
# Velocity S-wave (km/s) = 4.12580 5.27183 4.73362
# Velocity P-wave (km/s) = 7.33160 8.40705 7.88768
#
# Compressibility (1/GPa) = 0.01502059
#
# Stress axis : x y z
#
# Youngs Moduli (GPa) = 106.79090 71.74833 94.74872
#
# Poissons Ratio (x) = 0.27547 0.32984
# Poissons Ratio (y) = 0.41002 0.19869
# Poissons Ratio (z) = 0.37176 0.15046
#
# Static dielectric constant tensor:
#      x y z
#    x 1.806500 0.000000 0.000000 
#    y 0.000000 1.818500 0.000000 
#    z 0.000000 0.000000 1.764370 
# 
# From -- ./inp_files/34958.got.cif
#   From: 2010.05.17/outbox.cif.g08.bks.cpg/sg70_18_cif.got.tgz:34958.got - 2010.06.03 15:57:51.
