data_PCOD9516814
_publ_section_title
;
Structure prediction by ZEFSAII (Michael W. Deem and Ramdas Pophale) SiO2 
 PCOD9516814
Probable space group: F D D D
;
_chemical_formula_sum "Si O2"
_cell_formula_units_Z 144
_cell_length_a 10.096993
_cell_length_b 28.782539
_cell_length_c 25.606752
_cell_angle_alpha 90.000000
_cell_angle_beta 90.000000
_cell_angle_gamma 90.000000
_cell_volume 7441.759874
_symmetry_space_group_name_H-M "F D D D"
_symmetry_group_IT_number 70
_space_group.IT_coordinate_system_code '2'
_symmetry_cell_setting 'orthorhombic'
loop_
_space_group_symop_operation_xyz
x,y,z
1/4-x,1/4-y,z
x,1/4-y,1/4-z
1/4-x,y,1/4-z
-x,-y,-z
3/4+x,3/4+y,-z
-x,3/4+y,3/4+z
3/4+x,-y,3/4+z
x,1/2+y,1/2+z
1/4-x,3/4-y,1/2+z
x,3/4-y,3/4-z
1/4-x,1/2+y,3/4-z
-x,1/2-y,1/2-z
3/4+x,1/4+y,1/2-z
-x,1/4+y,1/4+z
3/4+x,1/2-y,1/4+z
1/2+x,y,1/2+z
3/4-x,1/4-y,1/2+z
1/2+x,1/4-y,3/4-z
3/4-x,y,3/4-z
1/2-x,-y,1/2-z
1/4+x,3/4+y,1/2-z
1/2-x,3/4+y,1/4+z
1/4+x,-y,1/4+z
1/2+x,1/2+y,z
3/4-x,3/4-y,z
1/2+x,3/4-y,1/4-z
3/4-x,1/2+y,1/4-z
1/2-x,1/2-y,-z
1/4+x,1/4+y,-z
1/2-x,1/4+y,3/4+z
1/4+x,1/2-y,3/4+z
loop_
_atom_site_type_symbol
_atom_site_label
_atom_site_fract_x
_atom_site_fract_y
_atom_site_fract_z
Si Si1 0.125000 0.194228 0.625000
Si Si2 0.115381 0.494870 0.818711
Si Si3 0.503370 0.096859 0.836442
Si Si4 0.893289 0.577139 0.273744
Si Si5 0.625000 0.625000 0.538232
Si Si6 0.125000 0.269752 0.125000
O O1 0.243975 0.222254 0.650163
O O2 0.182978 0.162897 0.578230
O O3 0.065998 0.548642 0.814686
O O4 0.142044 0.464298 0.766792
O O5 0.249513 0.493096 0.852197
O O6 0.625000 0.125000 0.863370
O O7 0.375000 0.089551 0.875000
O O8 0.456912 0.131600 0.790050
O O9 0.924691 0.551967 0.327940
O O10 0.016477 0.601763 0.247315
#
# Coordination Sequence:
#
# PCOD9516814 Si02
#       6
#    16  32  32  32  16  16
#     4   9  20  45  66  93 128 169 216 273 319 402
#     4  11  24  43  66  95 131 175 218 272 335 389
#     4  12  24  41  68  95 132 171 220 274 331 387
#     4  11  24  41  65  97 132 170 218 276 325 398
#     4   9  22  40  68  94 128 168 220 267 328 386
#     4  12  24  39  64  90 138 165 218 274 330 386
#
# _framework density 19.350259999999999
#
# number of rings (size 3 to 8) (size 9 to 14) (size 15 to 20)
#    0.000    1.111    4.444    0.667    4.667    1.778 
#    0.000    4.444    0.000    1.333    0.000    0.000 
#    0.000    0.000    0.000    0.000    0.000    0.000 
#
# Total GULP energy -200686.241756 kJ/mol
# GULP energy per Si atom -5574.617827 kJ/mol
# Density = 1.930622 g / cm^3
# Si number density = 19.350260 Si / 1000 Ang^3
#
#
#
# Elastic Constant Matrix: (Units=GPa)
#
#
# Indices 1 2 3 4 5 6 
#
# 1 95.0411 54.5434 58.6449 0.0000 0.0000 0.0000
# 2 54.5434 128.0724 67.9468 0.0000 0.0000 0.0000
# 3 58.6449 67.9468 136.8141 0.0000 0.0000 0.0000
# 4 0.0000 0.0000 0.0000 -6.2553 0.0000 0.0000
# 5 0.0000 0.0000 0.0000 0.0000 27.6269 0.0000
# 6 0.0000 0.0000 0.0000 0.0000 0.0000 26.7228
#
#
#
# Elastic Compliance Matrix: (Units=1/GPa)
#
#
# Indices 1 2 3 4 5 6 
#
# 1 0.015859 -0.004274 -0.004676 0.000000 0.000000 0.000000
# 2 -0.004274 0.011753 -0.004005 0.000000 0.000000 0.000000
# 3 -0.004676 -0.004005 0.011302 0.000000 0.000000 0.000000
# 4 0.000000 0.000000 0.000000 -0.159863 0.000000 0.000000
# 5 0.000000 0.000000 0.000000 0.000000 0.036197 0.000000
# 6 0.000000 0.000000 0.000000 0.000000 0.000000 0.037421
#
#
# Mechanical properties :
#
#
# Convention : Reuss Voigt Hill
#
# Bulk Modulus (GPa) = 76.88660 80.24419 78.56540
# Shear Modulus (GPa) = -292.62924 21.53838 -135.54543
#
# Velocity S-wave (km/s) = -12.31080 3.33990 -8.37857
# Velocity P-wave (km/s) = 12.73790 7.51216 7.27398
#
# Compressibility (1/GPa) = 0.01300617
#
# Stress axis : x y z
#
# Youngs Moduli (GPa) = 63.05377 85.08497 88.47638
#
# Poissons Ratio (x) = 0.36362 0.41369
# Poissons Ratio (y) = 0.26947 0.35435
# Poissons Ratio (z) = 0.29482 0.34077
#
# Static dielectric constant tensor:
#      x y z
#    x 1.680900 0.000000 0.000000 
#    y 0.000000 1.735000 0.000000 
#    z 0.000000 0.000000 1.659970 
# 
# From -- ./inp_files/50178.got.cif
#   From: 2010.05.17/outbox.cif.g08.bks.cpg/sg70_26_cif.got.tgz:50178.got - 2010.06.03 15:57:51.
