data_PCOD9516677
_publ_section_title
;
Structure prediction by ZEFSAII (Michael W. Deem and Ramdas Pophale) SiO2 
 PCOD9516677
Probable space group: F D D D
;
_chemical_formula_sum "Si O2"
_cell_formula_units_Z 176
_cell_length_a 16.995898
_cell_length_b 16.700341
_cell_length_c 26.106589
_cell_angle_alpha 90.000000
_cell_angle_beta 90.000000
_cell_angle_gamma 90.000000
_cell_volume 7410.023530
_symmetry_space_group_name_H-M "F D D D"
_symmetry_group_IT_number 70
_space_group.IT_coordinate_system_code '2'
_symmetry_cell_setting 'orthorhombic'
loop_
_space_group_symop_operation_xyz
x,y,z
1/4-x,1/4-y,z
x,1/4-y,1/4-z
1/4-x,y,1/4-z
-x,-y,-z
3/4+x,3/4+y,-z
-x,3/4+y,3/4+z
3/4+x,-y,3/4+z
x,1/2+y,1/2+z
1/4-x,3/4-y,1/2+z
x,3/4-y,3/4-z
1/4-x,1/2+y,3/4-z
-x,1/2-y,1/2-z
3/4+x,1/4+y,1/2-z
-x,1/4+y,1/4+z
3/4+x,1/2-y,1/4+z
1/2+x,y,1/2+z
3/4-x,1/4-y,1/2+z
1/2+x,1/4-y,3/4-z
3/4-x,y,3/4-z
1/2-x,-y,1/2-z
1/4+x,3/4+y,1/2-z
1/2-x,3/4+y,1/4+z
1/4+x,-y,1/4+z
1/2+x,1/2+y,z
3/4-x,3/4-y,z
1/2+x,3/4-y,1/4-z
3/4-x,1/2+y,1/4-z
1/2-x,1/2-y,-z
1/4+x,1/4+y,-z
1/2-x,1/4+y,3/4+z
1/4+x,1/2-y,3/4+z
loop_
_atom_site_type_symbol
_atom_site_label
_atom_site_fract_x
_atom_site_fract_y
_atom_site_fract_z
Si Si1 0.755637 0.493356 0.374522
Si Si2 0.625000 0.379445 0.625000
Si Si3 0.701890 0.797761 0.717242
Si Si4 0.678080 0.969306 0.390082
Si Si5 0.924121 0.461136 0.031498
Si Si6 0.541535 0.111804 0.537548
O O1 0.798244 0.575676 0.387094
O O2 0.665229 0.487264 0.356774
O O3 0.770835 0.431587 0.421044
O O4 0.799613 0.463429 0.323701
O O5 0.606802 0.434977 0.672137
O O6 0.771578 0.745113 0.690388
O O7 0.649875 0.763165 0.762787
O O8 0.732652 0.880689 0.741031
O O9 0.688882 0.875000 0.375000
O O10 0.698516 0.022089 0.340078
O O11 0.875000 0.375000 0.026928
O O12 0.000000 0.500000 0.000000
O O13 0.625000 0.125000 0.512600
#
# Coordination Sequence:
#
# PCOD9516677 Si02
#       6
#    32  16  32  32  32  32
#     4  11  22  45  71 101 148 192 243 316 393 472
#     4  12  28  43  69 106 152 196 250 314 392 472
#     4  12  29  45  72 112 150 197 265 323 397 483
#     4  12  26  48  77 108 154 203 266 332 408 485
#     4  12  28  51  81 111 161 222 280 344 420 497
#     4  11  22  44  69 106 140 190 242 311 398 471
#
# _framework density 23.751611
#
# number of rings (size 3 to 8) (size 9 to 14) (size 15 to 20)
#    0.000    0.364    5.455    2.727    7.636    3.636 
#    0.000    1.818    0.000    0.000    0.000    0.000 
#    0.000    0.000    0.000    0.000    0.000    0.000 
#
# Total GULP energy -245159.571361 kJ/mol
# GULP energy per Si atom -5571.808440 kJ/mol
# Density = 2.369755 g / cm^3
# Si number density = 23.751611 Si / 1000 Ang^3
#
#
#
# Elastic Constant Matrix: (Units=GPa)
#
#
# Indices 1 2 3 4 5 6 
#
# 1 121.6876 31.0764 12.6802 0.0000 0.0000 0.0000
# 2 31.0764 73.2838 -7.5522 0.0000 0.0000 0.0000
# 3 12.6802 -7.5522 49.8750 0.0000 0.0000 0.0000
# 4 0.0000 0.0000 0.0000 58.0831 0.0000 0.0000
# 5 0.0000 0.0000 0.0000 0.0000 22.2964 0.0000
# 6 0.0000 0.0000 0.0000 0.0000 0.0000 43.0833
#
#
#
# Elastic Compliance Matrix: (Units=1/GPa)
#
#
# Indices 1 2 3 4 5 6 
#
# 1 0.009674 -0.004425 -0.003129 0.000000 0.000000 0.000000
# 2 -0.004425 0.015886 0.003530 0.000000 0.000000 0.000000
# 3 -0.003129 0.003530 0.021380 0.000000 0.000000 0.000000
# 4 0.000000 0.000000 0.000000 0.017217 0.000000 0.000000
# 5 0.000000 0.000000 0.000000 0.000000 0.044850 0.000000
# 6 0.000000 0.000000 0.000000 0.000000 0.000000 0.023211
#
#
# Mechanical properties :
#
#
# Convention : Reuss Voigt Hill
#
# Bulk Modulus (GPa) = 25.71204 35.25056 30.48130
# Shear Modulus (GPa) = 32.63080 38.60205 35.61642
#
# Velocity S-wave (km/s) = 3.71055 4.03580 3.87659
# Velocity P-wave (km/s) = 5.40430 6.04900 5.73572
#
# Compressibility (1/GPa) = 0.03889229
#
# Stress axis : x y z
#
# Youngs Moduli (GPa) = 103.37148 62.94957 46.77191
#
# Poissons Ratio (x) = 0.27854 0.14637
# Poissons Ratio (y) = 0.45739 -0.16512
# Poissons Ratio (z) = 0.32350 -0.22224
#
# Static dielectric constant tensor:
#      x y z
#    x 1.939210 0.000000 0.000000 
#    y 0.000000 1.982440 0.000000 
#    z 0.000000 0.000000 1.655460 
# 
# From -- ./inp_files/59452.got.cif
#   From: 2010.05.17/outbox.cif.g08.bks.cpg/sg70_30_cif.got.tgz:59452.got - 2010.06.03 15:57:51.
