data_PCOD9516231
_publ_section_title
;
Structure prediction by ZEFSAII (Michael W. Deem and Ramdas Pophale) SiO2 
 PCOD9516231
Probable space group: F D D D
;
_chemical_formula_sum "Si O2"
_cell_formula_units_Z 88
_cell_length_a 4.731978
_cell_length_b 27.038317
_cell_length_c 27.265359
_cell_angle_alpha 90.000000
_cell_angle_beta 90.000000
_cell_angle_gamma 90.000000
_cell_volume 3488.458756
_symmetry_space_group_name_H-M "F D D D"
_symmetry_group_IT_number 70
_space_group.IT_coordinate_system_code '2'
_symmetry_cell_setting 'orthorhombic'
loop_
_space_group_symop_operation_xyz
x,y,z
1/4-x,1/4-y,z
x,1/4-y,1/4-z
1/4-x,y,1/4-z
-x,-y,-z
3/4+x,3/4+y,-z
-x,3/4+y,3/4+z
3/4+x,-y,3/4+z
x,1/2+y,1/2+z
1/4-x,3/4-y,1/2+z
x,3/4-y,3/4-z
1/4-x,1/2+y,3/4-z
-x,1/2-y,1/2-z
3/4+x,1/4+y,1/2-z
-x,1/4+y,1/4+z
3/4+x,1/2-y,1/4+z
1/2+x,y,1/2+z
3/4-x,1/4-y,1/2+z
1/2+x,1/4-y,3/4-z
3/4-x,y,3/4-z
1/2-x,-y,1/2-z
1/4+x,3/4+y,1/2-z
1/2-x,3/4+y,1/4+z
1/4+x,-y,1/4+z
1/2+x,1/2+y,z
3/4-x,3/4-y,z
1/2+x,3/4-y,1/4-z
3/4-x,1/2+y,1/4-z
1/2-x,1/2-y,-z
1/4+x,1/4+y,-z
1/2-x,1/4+y,3/4+z
1/4+x,1/2-y,3/4+z
loop_
_atom_site_type_symbol
_atom_site_label
_atom_site_fract_x
_atom_site_fract_y
_atom_site_fract_z
Si Si1 0.736610 0.805065 0.291158
Si Si2 0.375000 0.875000 0.875000
Si Si3 0.625000 0.125000 0.906017
Si Si4 0.742667 0.556762 0.973672
O O1 0.706794 0.838780 0.338525
O O2 0.666535 0.747378 0.297379
O O3 0.548397 0.826596 0.246548
O O4 0.057490 0.803406 0.271756
O O5 0.375000 0.151809 0.875000
O O6 0.430201 0.086334 0.935210
#
# Coordination Sequence:
#
# PCOD9516231 Si02
#       4
#    32   8  16  32
#     4  10  24  44  72  98 149 191 242 301 384 447
#     4  12  26  42  76 122 132 190 264 330 338 456
#     4  12  25  40  74 111 140 191 260 310 349 458
#     4  10  23  48  67 100 148 203 228 302 394 447
#
# _framework density 25.226040999999999
#
# number of rings (size 3 to 8) (size 9 to 14) (size 15 to 20)
#    0.000    1.455    0.000    3.273    2.545    7.273 
#    0.000    0.000    0.000    0.000    0.000    0.000 
#    0.000    0.000    0.000    0.000    0.000    0.000 
#
# Total GULP energy -123055.054322 kJ/mol
# GULP energy per Si atom -5593.411560 kJ/mol
# Density = 2.516863 g / cm^3
# Si number density = 25.226041 Si / 1000 Ang^3
#
#
#
# Elastic Constant Matrix: (Units=GPa)
#
#
# Indices 1 2 3 4 5 6 
#
# 1 145.9900 41.1403 45.6581 0.0000 0.0000 0.0000
# 2 41.1403 151.7865 91.6257 0.0000 0.0000 0.0000
# 3 45.6581 91.6257 130.9467 0.0000 0.0000 0.0000
# 4 0.0000 0.0000 0.0000 48.9278 0.0000 0.0000
# 5 0.0000 0.0000 0.0000 0.0000 40.1268 0.0000
# 6 0.0000 0.0000 0.0000 0.0000 0.0000 30.2979
#
#
#
# Elastic Compliance Matrix: (Units=1/GPa)
#
#
# Indices 1 2 3 4 5 6 
#
# 1 0.007746 -0.000812 -0.002132 0.000000 0.000000 0.000000
# 2 -0.000812 0.011491 -0.007757 0.000000 0.000000 0.000000
# 3 -0.002132 -0.007757 0.013808 0.000000 0.000000 0.000000
# 4 0.000000 0.000000 0.000000 0.020438 0.000000 0.000000
# 5 0.000000 0.000000 0.000000 0.000000 0.024921 0.000000
# 6 0.000000 0.000000 0.000000 0.000000 0.000000 0.033006
#
#
# Mechanical properties :
#
#
# Convention : Reuss Voigt Hill
#
# Bulk Modulus (GPa) = 85.90328 87.28571 86.59449
# Shear Modulus (GPa) = 36.57816 40.55711 38.56764
#
# Velocity S-wave (km/s) = 3.81204 4.01402 3.91433
# Velocity P-wave (km/s) = 7.31456 7.49398 7.40482
#
# Compressibility (1/GPa) = 0.01164100
#
# Stress axis : x y z
#
# Youngs Moduli (GPa) = 129.10624 87.02466 72.42103
#
# Poissons Ratio (x) = 0.07067 0.15443
# Poissons Ratio (y) = 0.10485 0.56179
# Poissons Ratio (z) = 0.27531 0.67508
#
# Static dielectric constant tensor:
#      x y z
#    x 1.963820 0.000000 0.000000 
#    y 0.000000 2.030500 0.000000 
#    z 0.000000 0.000000 2.097410 
# 
# From -- ./inp_files/62810.got.cif
#   From: 2010.05.17/outbox.cif.g08.bks.cpg/sg70_32_cif.got.tgz:62810.got - 2010.06.03 15:57:51.
