data_PCOD9516413
_publ_section_title
;
Structure prediction by ZEFSAII (Michael W. Deem and Ramdas Pophale) SiO2 
 PCOD9516413
Probable space group: F D D D
;
_chemical_formula_sum "Si O2"
_cell_formula_units_Z 144
_cell_length_a 24.550914
_cell_length_b 21.502715
_cell_length_c 12.477146
_cell_angle_alpha 90.000000
_cell_angle_beta 90.000000
_cell_angle_gamma 90.000000
_cell_volume 6586.826449
_symmetry_space_group_name_H-M "F D D D"
_symmetry_group_IT_number 70
_space_group.IT_coordinate_system_code '2'
_symmetry_cell_setting 'orthorhombic'
loop_
_space_group_symop_operation_xyz
x,y,z
1/4-x,1/4-y,z
x,1/4-y,1/4-z
1/4-x,y,1/4-z
-x,-y,-z
3/4+x,3/4+y,-z
-x,3/4+y,3/4+z
3/4+x,-y,3/4+z
x,1/2+y,1/2+z
1/4-x,3/4-y,1/2+z
x,3/4-y,3/4-z
1/4-x,1/2+y,3/4-z
-x,1/2-y,1/2-z
3/4+x,1/4+y,1/2-z
-x,1/4+y,1/4+z
3/4+x,1/2-y,1/4+z
1/2+x,y,1/2+z
3/4-x,1/4-y,1/2+z
1/2+x,1/4-y,3/4-z
3/4-x,y,3/4-z
1/2-x,-y,1/2-z
1/4+x,3/4+y,1/2-z
1/2-x,3/4+y,1/4+z
1/4+x,-y,1/4+z
1/2+x,1/2+y,z
3/4-x,3/4-y,z
1/2+x,3/4-y,1/4-z
3/4-x,1/2+y,1/4-z
1/2-x,1/2-y,-z
1/4+x,1/4+y,-z
1/2-x,1/4+y,3/4+z
1/4+x,1/2-y,3/4+z
loop_
_atom_site_type_symbol
_atom_site_label
_atom_site_fract_x
_atom_site_fract_y
_atom_site_fract_z
Si Si1 0.485842 0.940757 0.316024
Si Si2 0.625000 0.489471 0.125000
Si Si3 0.125000 0.625000 0.937027
Si Si4 0.030170 0.489973 0.890877
Si Si5 0.648736 0.491168 0.357009
Si Si6 0.960791 0.875000 0.375000
O O1 0.487134 0.875000 0.375000
O O2 0.430771 0.973003 0.357557
O O3 0.477862 0.951178 0.188482
O O4 0.543336 0.971967 0.347413
O O5 0.638267 0.460380 0.240276
O O6 0.144146 0.566799 0.864500
O O7 0.077147 0.608370 0.022740
O O8 0.092751 0.473566 0.915899
O O9 0.999146 0.431539 0.838696
O O10 0.000000 0.500000 0.000000
#
# Coordination Sequence:
#
# PCOD9516413 Si02
#       6
#    32  16  16  32  32  16
#     4  11  25  45  67 100 139 180 229 290 356 421
#     4  10  25  44  66  90 130 182 232 269 340 428
#     4  11  22  39  74  92 132 181 230 283 344 426
#     4  11  24  43  69 101 137 178 233 287 352 419
#     4  11  24  43  66  99 133 183 226 286 347 420
#     4  11  22  42  66 100 134 179 232 284 348 425
#
# _framework density 21.861818
#
# number of rings (size 3 to 8) (size 9 to 14) (size 15 to 20)
#    0.000    1.111    4.444    1.000    7.778    0.889 
#    8.000    0.000    0.000    0.000    0.000    0.000 
#    0.000    0.000    0.000    0.000    0.000    0.000 
#
# Total GULP energy -200595.388277 kJ/mol
# GULP energy per Si atom -5572.094119 kJ/mol
# Density = 2.181206 g / cm^3
# Si number density = 21.861818 Si / 1000 Ang^3
#
#
#
# Elastic Constant Matrix: (Units=GPa)
#
#
# Indices 1 2 3 4 5 6 
#
# 1 204.2111 8.9058 43.8931 0.0000 0.0000 0.0000
# 2 8.9058 10.7718 -6.2337 0.0000 0.0000 0.0000
# 3 43.8931 -6.2337 88.9099 0.0000 0.0000 0.0000
# 4 0.0000 0.0000 0.0000 23.9655 0.0000 0.0000
# 5 0.0000 0.0000 0.0000 0.0000 32.4336 0.0000
# 6 0.0000 0.0000 0.0000 0.0000 0.0000 4.4201
#
#
#
# Elastic Compliance Matrix: (Units=1/GPa)
#
#
# Indices 1 2 3 4 5 6 
#
# 1 0.005930 -0.006875 -0.003409 0.000000 0.000000 0.000000
# 2 -0.006875 0.104733 0.010737 0.000000 0.000000 0.000000
# 3 -0.003409 0.010737 0.013683 0.000000 0.000000 0.000000
# 4 0.000000 0.000000 0.000000 0.041727 0.000000 0.000000
# 5 0.000000 0.000000 0.000000 0.000000 0.030832 0.000000
# 6 0.000000 0.000000 0.000000 0.000000 0.000000 0.226239
#
#
# Mechanical properties :
#
#
# Convention : Reuss Voigt Hill
#
# Bulk Modulus (GPa) = 7.98395 44.11368 26.04882
# Shear Modulus (GPa) = 10.77611 29.31901 20.04756
#
# Velocity S-wave (km/s) = 2.22259 3.66608 3.03151
# Velocity P-wave (km/s) = 3.20101 6.17596 4.91879
#
# Compressibility (1/GPa) = 0.12525127
#
# Stress axis : x y z
#
# Youngs Moduli (GPa) = 168.64706 9.54807 73.08174
#
# Poissons Ratio (x) = 0.06565 0.24916
# Poissons Ratio (y) = 1.15952 -0.78471
# Poissons Ratio (z) = 0.57498 -0.10252
#
# Static dielectric constant tensor:
#      x y z
#    x 1.816380 0.000000 0.000000 
#    y 0.000000 1.896910 0.000000 
#    z 0.000000 0.000000 1.861570 
# 
# From -- ./inp_files/20707.got.cif
#   From: 2010.05.17/outbox.cif.g08.bks.cpg/sg70_11_cif.got.tgz:20707.got - 2010.06.03 15:57:51.
