data_PCOD9516210
_publ_section_title
;
Structure prediction by ZEFSAII (Michael W. Deem and Ramdas Pophale) SiO2 
 PCOD9516210
Probable space group: F D D D
;
_chemical_formula_sum "Si O2"
_cell_formula_units_Z 176
_cell_length_a 15.668354
_cell_length_b 24.996480
_cell_length_c 22.012248
_cell_angle_alpha 90.000000
_cell_angle_beta 90.000000
_cell_angle_gamma 90.000000
_cell_volume 8621.178317
_symmetry_space_group_name_H-M "F D D D"
_symmetry_group_IT_number 70
_space_group.IT_coordinate_system_code '2'
_symmetry_cell_setting 'orthorhombic'
loop_
_space_group_symop_operation_xyz
x,y,z
1/4-x,1/4-y,z
x,1/4-y,1/4-z
1/4-x,y,1/4-z
-x,-y,-z
3/4+x,3/4+y,-z
-x,3/4+y,3/4+z
3/4+x,-y,3/4+z
x,1/2+y,1/2+z
1/4-x,3/4-y,1/2+z
x,3/4-y,3/4-z
1/4-x,1/2+y,3/4-z
-x,1/2-y,1/2-z
3/4+x,1/4+y,1/2-z
-x,1/4+y,1/4+z
3/4+x,1/2-y,1/4+z
1/2+x,y,1/2+z
3/4-x,1/4-y,1/2+z
1/2+x,1/4-y,3/4-z
3/4-x,y,3/4-z
1/2-x,-y,1/2-z
1/4+x,3/4+y,1/2-z
1/2-x,3/4+y,1/4+z
1/4+x,-y,1/4+z
1/2+x,1/2+y,z
3/4-x,3/4-y,z
1/2+x,3/4-y,1/4-z
3/4-x,1/2+y,1/4-z
1/2-x,1/2-y,-z
1/4+x,1/4+y,-z
1/2-x,1/4+y,3/4+z
1/4+x,1/2-y,3/4+z
loop_
_atom_site_type_symbol
_atom_site_label
_atom_site_fract_x
_atom_site_fract_y
_atom_site_fract_z
Si Si1 0.408308 0.026512 0.488812
Si Si2 0.125000 0.037804 0.125000
Si Si3 0.767342 0.547761 0.796622
Si Si4 0.375000 0.375000 0.582764
Si Si5 0.928027 0.289527 0.583405
Si Si6 0.061488 0.398396 0.242260
Si Si7 0.984196 0.125000 0.125000
O O1 0.423597 0.087604 0.473111
O O2 0.500000 0.000000 0.500000
O O3 0.359422 0.998448 0.433375
O O4 0.357264 0.012345 0.550154
O O5 0.203254 0.076266 0.142390
O O6 0.750000 0.500000 0.750000
O O7 0.702639 0.599658 0.794102
O O8 0.747341 0.527498 0.864615
O O9 0.862153 0.567207 0.784752
O O10 0.391893 0.324946 0.629012
O O11 0.973225 0.327660 0.533493
O O12 0.063815 0.395324 0.315435
#
# Coordination Sequence:
#
# PCOD9516210 Si02
#       7
#    32  16  32  16  32  32  16
#     4  12  25  39  69 102 140 185 226 273 357 428
#     4  11  24  40  62 102 144 178 210 287 350 412
#     4  10  25  44  71  93 136 185 239 285 349 406
#     4   8  22  40  74  92 136 174 226 288 342 406
#     4  10  23  46  65 102 143 179 228 293 343 420
#     4  12  25  43  69 102 135 183 232 284 353 428
#     4  11  24  40  66  97 142 172 222 293 342 412
#
# _framework density 20.414843000000001
#
# number of rings (size 3 to 8) (size 9 to 14) (size 15 to 20)
#    1.091    0.182    3.636    1.636    5.091    1.455 
#    0.000    0.000    0.000    0.000    0.000    0.000 
#    0.000    0.000    0.000    0.000    0.000    0.000 
#
# Total GULP energy -245260.137018 kJ/mol
# GULP energy per Si atom -5574.094023 kJ/mol
# Density = 2.036838 g / cm^3
# Si number density = 20.414843 Si / 1000 Ang^3
#
#
#
# Elastic Constant Matrix: (Units=GPa)
#
#
# Indices 1 2 3 4 5 6 
#
# 1 66.7713 19.1097 23.0308 0.0000 0.0000 0.0000
# 2 19.1097 77.0571 13.6095 0.0000 0.0000 0.0000
# 3 23.0308 13.6095 114.3881 0.0000 0.0000 0.0000
# 4 0.0000 0.0000 0.0000 27.3247 0.0000 0.0000
# 5 0.0000 0.0000 0.0000 0.0000 34.5865 0.0000
# 6 0.0000 0.0000 0.0000 0.0000 0.0000 30.5859
#
#
#
# Elastic Compliance Matrix: (Units=1/GPa)
#
#
# Indices 1 2 3 4 5 6 
#
# 1 0.017070 -0.003704 -0.002996 0.000000 0.000000 0.000000
# 2 -0.003704 0.014060 -0.000927 0.000000 0.000000 0.000000
# 3 -0.002996 -0.000927 0.009456 0.000000 0.000000 0.000000
# 4 0.000000 0.000000 0.000000 0.036597 0.000000 0.000000
# 5 0.000000 0.000000 0.000000 0.000000 0.028913 0.000000
# 6 0.000000 0.000000 0.000000 0.000000 0.000000 0.032695
#
#
# Mechanical properties :
#
#
# Convention : Reuss Voigt Hill
#
# Bulk Modulus (GPa) = 39.47743 41.07961 40.27852
# Shear Modulus (GPa) = 30.77144 31.99718 31.38431
#
# Velocity S-wave (km/s) = 3.88662 3.96327 3.92513
# Velocity P-wave (km/s) = 6.28655 6.41167 6.34941
#
# Compressibility (1/GPa) = 0.02533093
#
# Stress axis : x y z
#
# Youngs Moduli (GPa) = 58.58224 71.12519 105.75629
#
# Poissons Ratio (x) = 0.26345 0.31686
# Poissons Ratio (y) = 0.21699 0.09804
# Poissons Ratio (z) = 0.17552 0.06593
#
# Static dielectric constant tensor:
#      x y z
#    x 1.681590 0.000000 0.000000 
#    y 0.000000 1.726060 0.000000 
#    z 0.000000 0.000000 1.764100 
# 
# From -- ./inp_files/58622.got.cif
#   From: 2010.05.17/outbox.cif.g08.bks.cpg/sg70_30_cif.got.tgz:58622.got - 2010.06.03 15:57:51.
