data_PCOD9516821
_publ_section_title
;
Structure prediction by ZEFSAII (Michael W. Deem and Ramdas Pophale) SiO2 
 PCOD9516821
Probable space group: F D D D
;
_chemical_formula_sum "Si O2"
_cell_formula_units_Z 160
_cell_length_a 27.282680
_cell_length_b 8.295789
_cell_length_c 29.109385
_cell_angle_alpha 90.000000
_cell_angle_beta 90.000000
_cell_angle_gamma 90.000000
_cell_volume 6588.366598
_symmetry_space_group_name_H-M "F D D D"
_symmetry_group_IT_number 70
_space_group.IT_coordinate_system_code '2'
_symmetry_cell_setting 'orthorhombic'
loop_
_space_group_symop_operation_xyz
x,y,z
1/4-x,1/4-y,z
x,1/4-y,1/4-z
1/4-x,y,1/4-z
-x,-y,-z
3/4+x,3/4+y,-z
-x,3/4+y,3/4+z
3/4+x,-y,3/4+z
x,1/2+y,1/2+z
1/4-x,3/4-y,1/2+z
x,3/4-y,3/4-z
1/4-x,1/2+y,3/4-z
-x,1/2-y,1/2-z
3/4+x,1/4+y,1/2-z
-x,1/4+y,1/4+z
3/4+x,1/2-y,1/4+z
1/2+x,y,1/2+z
3/4-x,1/4-y,1/2+z
1/2+x,1/4-y,3/4-z
3/4-x,y,3/4-z
1/2-x,-y,1/2-z
1/4+x,3/4+y,1/2-z
1/2-x,3/4+y,1/4+z
1/4+x,-y,1/4+z
1/2+x,1/2+y,z
3/4-x,3/4-y,z
1/2+x,3/4-y,1/4-z
3/4-x,1/2+y,1/4-z
1/2-x,1/2-y,-z
1/4+x,1/4+y,-z
1/2-x,1/4+y,3/4+z
1/4+x,1/2-y,3/4+z
loop_
_atom_site_type_symbol
_atom_site_label
_atom_site_fract_x
_atom_site_fract_y
_atom_site_fract_z
Si Si1 0.125000 0.125000 0.269225
Si Si2 0.986749 0.902806 0.045905
Si Si3 0.977657 0.823218 0.329426
Si Si4 0.767298 0.125000 0.625000
Si Si5 0.177465 0.640624 0.918643
Si Si6 0.151945 0.464833 0.231984
O O1 0.072757 0.127769 0.296246
O O2 0.125977 0.293589 0.240368
O O3 0.010861 0.726103 0.047399
O O4 0.007209 0.995905 0.091245
O O5 0.000000 0.000000 0.000000
O O6 0.949288 0.875000 0.375000
O O7 0.949232 0.691668 0.299719
O O8 0.028186 0.748488 0.347969
O O9 0.800773 0.213971 0.663033
O O10 0.125000 0.625000 0.894688
O O11 0.167422 0.716924 0.968215
O O12 0.125000 0.625000 0.211916
#
# Coordination Sequence:
#
# PCOD9516821 Si02
#       6
#    16  32  32  16  32  32
#     4  12  26  46  78 103 142 200 242 306 383 428
#     4  12  27  46  71 108 145 196 247 304 373 455
#     4  12  25  46  72 105 148 194 244 305 373 439
#     4  12  26  38  72 107 152 186 243 302 370 446
#     4  11  24  42  69 106 148 186 233 300 369 445
#     4  11  25  49  74 107 144 194 256 307 363 444
#
# _framework density 24.285229000000001
#
# number of rings (size 3 to 8) (size 9 to 14) (size 15 to 20)
#    0.000    0.400    4.000    5.400    5.600    0.400 
#    0.000    0.000    0.000    5.400    0.000    0.000 
#    0.000    0.000    0.000    0.000    0.000    0.000 
#
# Total GULP energy -223169.698683 kJ/mol
# GULP energy per Si atom -5579.242467 kJ/mol
# Density = 2.422995 g / cm^3
# Si number density = 24.285229 Si / 1000 Ang^3
#
#
#
# Elastic Constant Matrix: (Units=GPa)
#
#
# Indices 1 2 3 4 5 6 
#
# 1 57.7009 20.4504 24.2270 0.0000 0.0000 0.0005
# 2 20.4504 127.5749 31.0309 0.0000 -0.0002 0.0007
# 3 24.2270 31.0309 92.9091 0.0000 -0.0001 0.0000
# 4 0.0000 0.0000 0.0000 30.8116 0.0000 0.0000
# 5 0.0000 -0.0002 -0.0001 0.0000 -2.4977 0.0000
# 6 0.0005 0.0007 0.0000 0.0000 0.0000 46.0308
#
#
#
# Elastic Compliance Matrix: (Units=1/GPa)
#
#
# Indices 1 2 3 4 5 6 
#
# 1 0.019968 -0.002105 -0.004504 0.000000 0.000000 0.000000
# 2 -0.002105 0.008754 -0.002375 0.000000 -0.000001 0.000000
# 3 -0.004504 -0.002375 0.012731 0.000000 0.000000 0.000000
# 4 0.000000 0.000000 0.000000 0.032455 0.000000 0.000000
# 5 0.000000 -0.000001 0.000000 0.000000 -0.400367 0.000000
# 6 0.000000 0.000000 0.000000 0.000000 0.000000 0.021725
#
#
# Mechanical properties :
#
#
# Convention : Reuss Voigt Hill
#
# Bulk Modulus (GPa) = 42.58068 47.73349 45.15709
# Shear Modulus (GPa) = -17.92503 28.36737 5.22117
#
# Velocity S-wave (km/s) = -2.71976 3.42144 1.46786
# Velocity P-wave (km/s) = 2.77649 5.94192 4.63763
#
# Compressibility (1/GPa) = 0.02348483
#
# Stress axis : x y z
#
# Youngs Moduli (GPa) = 50.08039 114.23831 78.55033
#
# Poissons Ratio (x) = 0.24052 0.35376
# Poissons Ratio (y) = 0.10544 0.18653
# Poissons Ratio (z) = 0.22554 0.27127
#
# Static dielectric constant tensor:
#      x y z
#    x 2.072680 0.000000 0.000000 
#    y 0.000000 2.062280 0.000000 
#    z 0.000000 0.000000 1.900110 
# 
# From -- ./inp_files/68854.got.cif
#   From: 2010.05.17/outbox.cif.g08.bks.cpg/sg70_35_cif.got.tgz:68854.got - 2010.06.03 15:57:51.
