data_PCOD9516213
_publ_section_title
;
Structure prediction by ZEFSAII (Michael W. Deem and Ramdas Pophale) SiO2 
 PCOD9516213
Probable space group: F D D D
;
_chemical_formula_sum "Si O2"
_cell_formula_units_Z 88
_cell_length_a 26.953484
_cell_length_b 8.002807
_cell_length_c 16.077689
_cell_angle_alpha 90.000000
_cell_angle_beta 90.000000
_cell_angle_gamma 90.000000
_cell_volume 3468.014278
_symmetry_space_group_name_H-M "F D D D"
_symmetry_group_IT_number 70
_space_group.IT_coordinate_system_code '2'
_symmetry_cell_setting 'orthorhombic'
loop_
_space_group_symop_operation_xyz
x,y,z
1/4-x,1/4-y,z
x,1/4-y,1/4-z
1/4-x,y,1/4-z
-x,-y,-z
3/4+x,3/4+y,-z
-x,3/4+y,3/4+z
3/4+x,-y,3/4+z
x,1/2+y,1/2+z
1/4-x,3/4-y,1/2+z
x,3/4-y,3/4-z
1/4-x,1/2+y,3/4-z
-x,1/2-y,1/2-z
3/4+x,1/4+y,1/2-z
-x,1/4+y,1/4+z
3/4+x,1/2-y,1/4+z
1/2+x,y,1/2+z
3/4-x,1/4-y,1/2+z
1/2+x,1/4-y,3/4-z
3/4-x,y,3/4-z
1/2-x,-y,1/2-z
1/4+x,3/4+y,1/2-z
1/2-x,3/4+y,1/4+z
1/4+x,-y,1/4+z
1/2+x,1/2+y,z
3/4-x,3/4-y,z
1/2+x,3/4-y,1/4-z
3/4-x,1/2+y,1/4-z
1/2-x,1/2-y,-z
1/4+x,1/4+y,-z
1/2-x,1/4+y,3/4+z
1/4+x,1/2-y,3/4+z
loop_
_atom_site_type_symbol
_atom_site_label
_atom_site_fract_x
_atom_site_fract_y
_atom_site_fract_z
Si Si1 0.875000 0.875000 0.375000
Si Si2 0.625000 0.125000 0.402453
Si Si3 0.805978 0.718353 0.237486
Si Si4 0.303087 0.832881 0.278458
O O1 0.837304 0.770187 0.317973
O O2 0.585895 0.044373 0.339099
O O3 0.654795 0.005654 0.468352
O O4 0.747901 0.768748 0.230533
O O5 0.800274 0.518662 0.239841
O O6 0.314050 0.875000 0.375000
#
# Coordination Sequence:
#
# PCOD9516213 Si02
#       4
#     8  16  32  32
#     4  10  24  44  72 104 146 188 234 314 352 416
#     4  11  23  43  73 106 140 190 241 295 347 427
#     4  10  23  46  68 103 146 185 241 292 356 429
#     4  11  23  44  72 101 141 192 237 290 358 429
#
# _framework density 25.374751
#
# number of rings (size 3 to 8) (size 9 to 14) (size 15 to 20)
#    0.000    1.455    0.000    6.000    5.091    0.000 
#    6.545    5.455    0.000    0.000    0.000    0.000 
#    0.000    0.000    0.000    0.000    0.000    0.000 
#
# Total GULP energy -122891.779268 kJ/mol
# GULP energy per Si atom -5585.989967 kJ/mol
# Density = 2.531700 g / cm^3
# Si number density = 25.374751 Si / 1000 Ang^3
#
#
#
# Elastic Constant Matrix: (Units=GPa)
#
#
# Indices 1 2 3 4 5 6 
#
# 1 270.6370 34.4667 120.3497 0.0000 0.0000 0.0000
# 2 34.4667 46.2165 24.3369 0.0000 0.0000 0.0000
# 3 120.3497 24.3369 234.4267 0.0000 0.0000 0.0000
# 4 0.0000 0.0000 0.0000 26.2173 0.0000 0.0000
# 5 0.0000 0.0000 0.0000 0.0000 164.2715 0.0000
# 6 0.0000 0.0000 0.0000 0.0000 0.0000 34.7140
#
#
#
# Elastic Compliance Matrix: (Units=1/GPa)
#
#
# Indices 1 2 3 4 5 6 
#
# 1 0.005056 -0.002543 -0.002331 0.000000 0.000000 0.000000
# 2 -0.002543 0.024167 -0.001204 0.000000 0.000000 0.000000
# 3 -0.002331 -0.001204 0.005588 0.000000 0.000000 0.000000
# 4 0.000000 0.000000 0.000000 0.038143 0.000000 0.000000
# 5 0.000000 0.000000 0.000000 0.000000 0.006087 0.000000
# 6 0.000000 0.000000 0.000000 0.000000 0.000000 0.028807
#
#
# Mechanical properties :
#
#
# Convention : Reuss Voigt Hill
#
# Bulk Modulus (GPa) = 44.14010 101.06518 72.60264
# Shear Modulus (GPa) = 39.19892 69.84901 54.52396
#
# Velocity S-wave (km/s) = 3.93466 5.25231 4.64049
# Velocity P-wave (km/s) = 6.17050 8.75773 7.57538
#
# Compressibility (1/GPa) = 0.02265514
#
# Stress axis : x y z
#
# Youngs Moduli (GPa) = 197.80152 41.37833 178.96756
#
# Poissons Ratio (x) = 0.10521 0.41726
# Poissons Ratio (y) = 0.50292 0.21541
# Poissons Ratio (z) = 0.46117 0.04980
#
# Static dielectric constant tensor:
#      x y z
#    x 2.333950 0.000000 0.000000 
#    y 0.000000 2.175820 0.000000 
#    z 0.000000 0.000000 1.983950 
# 
# From -- ./inp_files/39214.got.cif
#   From: 2010.05.17/outbox.cif.g08.bks.cpg/sg70_20_cif.got.tgz:39214.got - 2010.06.03 15:57:51.
