data_PCOD9516390
_publ_section_title
;
Structure prediction by ZEFSAII (Michael W. Deem and Ramdas Pophale) SiO2 
 PCOD9516390
Probable space group: F D D D
;
_chemical_formula_sum "Si O2"
_cell_formula_units_Z 104
_cell_length_a 15.594416
_cell_length_b 11.871140
_cell_length_c 24.205950
_cell_angle_alpha 90.000000
_cell_angle_beta 90.000000
_cell_angle_gamma 90.000000
_cell_volume 4481.090077
_symmetry_space_group_name_H-M "F D D D"
_symmetry_group_IT_number 70
_space_group.IT_coordinate_system_code '2'
_symmetry_cell_setting 'orthorhombic'
loop_
_space_group_symop_operation_xyz
x,y,z
1/4-x,1/4-y,z
x,1/4-y,1/4-z
1/4-x,y,1/4-z
-x,-y,-z
3/4+x,3/4+y,-z
-x,3/4+y,3/4+z
3/4+x,-y,3/4+z
x,1/2+y,1/2+z
1/4-x,3/4-y,1/2+z
x,3/4-y,3/4-z
1/4-x,1/2+y,3/4-z
-x,1/2-y,1/2-z
3/4+x,1/4+y,1/2-z
-x,1/4+y,1/4+z
3/4+x,1/2-y,1/4+z
1/2+x,y,1/2+z
3/4-x,1/4-y,1/2+z
1/2+x,1/4-y,3/4-z
3/4-x,y,3/4-z
1/2-x,-y,1/2-z
1/4+x,3/4+y,1/2-z
1/2-x,3/4+y,1/4+z
1/4+x,-y,1/4+z
1/2+x,1/2+y,z
3/4-x,3/4-y,z
1/2+x,3/4-y,1/4-z
3/4-x,1/2+y,1/4-z
1/2-x,1/2-y,-z
1/4+x,1/4+y,-z
1/2-x,1/4+y,3/4+z
1/4+x,1/2-y,3/4+z
loop_
_atom_site_type_symbol
_atom_site_label
_atom_site_fract_x
_atom_site_fract_y
_atom_site_fract_z
Si Si1 0.442781 0.737989 0.424885
Si Si2 0.413806 0.625000 0.125000
Si Si3 0.511976 0.702600 0.894307
Si Si4 0.125000 0.125000 0.980700
Si Si5 0.875000 0.375000 0.875000
O O1 0.375000 0.752719 0.375000
O O2 0.520494 0.827152 0.420488
O O3 0.483296 0.616528 0.409934
O O4 0.393193 0.767106 0.480621
O O5 0.348213 0.523902 0.113552
O O6 0.437575 0.791593 0.908330
O O7 0.539386 0.618923 0.943032
#
# Coordination Sequence:
#
# PCOD9516390 Si02
#       5
#    32  16  32  16   8
#     4  12  23  43  68 105 144 179 244 300 343 424
#     4  11  21  45  67  98 146 186 227 307 347 413
#     4  11  25  45  70  99 146 190 239 297 361 424
#     4  12  25  44  79 108 136 203 234 295 372 424
#     4  10  24  52  64  94 150 194 226 316 352 416
#
# _framework density 23.208638000000001
#
# number of rings (size 3 to 8) (size 9 to 14) (size 15 to 20)
#    0.000    0.615    7.692    0.000    0.000    4.923 
#    5.538    3.077    0.000    0.000    0.000    0.000 
#    0.000    0.000    0.000    0.000    0.000    0.000 
#
# Total GULP energy -145002.143552 kJ/mol
# GULP energy per Si atom -5577.005521 kJ/mol
# Density = 2.315581 g / cm^3
# Si number density = 23.208638 Si / 1000 Ang^3
#
#
#
# Elastic Constant Matrix: (Units=GPa)
#
#
# Indices 1 2 3 4 5 6 
#
# 1 170.8691 68.0898 42.4160 0.0000 0.0000 0.0000
# 2 68.0898 132.8229 33.3010 0.0000 0.0000 0.0000
# 3 42.4160 33.3010 67.4832 0.0000 0.0000 0.0000
# 4 0.0000 0.0000 0.0000 16.6078 0.0000 0.0000
# 5 0.0000 0.0000 0.0000 0.0000 4.7553 0.0000
# 6 0.0000 0.0000 0.0000 0.0000 0.0000 82.9177
#
#
#
# Elastic Compliance Matrix: (Units=1/GPa)
#
#
# Indices 1 2 3 4 5 6 
#
# 1 0.007994 -0.003239 -0.003426 0.000000 0.000000 0.000000
# 2 -0.003239 0.009904 -0.002852 0.000000 0.000000 0.000000
# 3 -0.003426 -0.002852 0.018379 0.000000 0.000000 0.000000
# 4 0.000000 0.000000 0.000000 0.060213 0.000000 0.000000
# 5 0.000000 0.000000 0.000000 0.000000 0.210294 0.000000
# 6 0.000000 0.000000 0.000000 0.000000 0.000000 0.012060
#
#
# Mechanical properties :
#
#
# Convention : Reuss Voigt Hill
#
# Bulk Modulus (GPa) = 57.99189 73.19874 65.59532
# Shear Modulus (GPa) = 14.55078 36.01404 25.28241
#
# Velocity S-wave (km/s) = 2.50662 3.94350 3.30412
# Velocity P-wave (km/s) = 5.78092 7.23484 6.54835
#
# Compressibility (1/GPa) = 0.01724379
#
# Stress axis : x y z
#
# Youngs Moduli (GPa) = 125.10109 100.96809 54.40962
#
# Poissons Ratio (x) = 0.32702 0.18641
# Poissons Ratio (y) = 0.40518 0.15516
# Poissons Ratio (z) = 0.42860 0.28793
#
# Static dielectric constant tensor:
#      x y z
#    x 1.861830 0.000000 0.000000 
#    y 0.000000 1.969210 0.000000 
#    z 0.000000 0.000000 1.930650 
# 
# From -- ./inp_files/20211.got.cif
#   From: 2010.05.17/outbox.cif.g08.bks.cpg/sg70_11_cif.got.tgz:20211.got - 2010.06.03 15:57:51.
