data_PCOD9516145
_publ_section_title
;
Structure prediction by ZEFSAII (Michael W. Deem and Ramdas Pophale) SiO2 
 PCOD9516145
Probable space group: F D D D
;
_chemical_formula_sum "Si O2"
_cell_formula_units_Z 168
_cell_length_a 18.503949
_cell_length_b 15.402055
_cell_length_c 26.937433
_cell_angle_alpha 90.000000
_cell_angle_beta 90.000000
_cell_angle_gamma 90.000000
_cell_volume 7677.137163
_symmetry_space_group_name_H-M "F D D D"
_symmetry_group_IT_number 70
_space_group.IT_coordinate_system_code '2'
_symmetry_cell_setting 'orthorhombic'
loop_
_space_group_symop_operation_xyz
x,y,z
1/4-x,1/4-y,z
x,1/4-y,1/4-z
1/4-x,y,1/4-z
-x,-y,-z
3/4+x,3/4+y,-z
-x,3/4+y,3/4+z
3/4+x,-y,3/4+z
x,1/2+y,1/2+z
1/4-x,3/4-y,1/2+z
x,3/4-y,3/4-z
1/4-x,1/2+y,3/4-z
-x,1/2-y,1/2-z
3/4+x,1/4+y,1/2-z
-x,1/4+y,1/4+z
3/4+x,1/2-y,1/4+z
1/2+x,y,1/2+z
3/4-x,1/4-y,1/2+z
1/2+x,1/4-y,3/4-z
3/4-x,y,3/4-z
1/2-x,-y,1/2-z
1/4+x,3/4+y,1/2-z
1/2-x,3/4+y,1/4+z
1/4+x,-y,1/4+z
1/2+x,1/2+y,z
3/4-x,3/4-y,z
1/2+x,3/4-y,1/4-z
3/4-x,1/2+y,1/4-z
1/2-x,1/2-y,-z
1/4+x,1/4+y,-z
1/2-x,1/4+y,3/4+z
1/4+x,1/2-y,3/4+z
loop_
_atom_site_type_symbol
_atom_site_label
_atom_site_fract_x
_atom_site_fract_y
_atom_site_fract_z
Si Si1 0.875000 0.375000 0.461636
Si Si2 0.375000 0.995283 0.375000
Si Si3 0.375000 0.875000 0.875000
Si Si4 0.001353 0.576567 0.310818
Si Si5 0.488436 0.239290 0.142126
Si Si6 0.068455 0.478335 0.781262
Si Si7 0.907260 0.155383 0.073249
O O1 0.840217 0.310275 0.420633
O O2 0.921689 0.315119 0.498145
O O3 0.314223 0.049063 0.403029
O O4 0.433639 0.807679 0.850370
O O5 0.024257 0.667907 0.332770
O O6 0.055085 0.494506 0.308480
O O7 0.975015 0.585850 0.254613
O O8 0.470874 0.248252 0.083144
O O9 0.425536 0.180633 0.165010
O O10 0.145806 0.430527 0.790162
O O11 0.941259 0.125000 0.125000
#
# Coordination Sequence:
#
# PCOD9516145 Si02
#       7
#    16  16   8  32  32  32  32
#     4   9  20  38  66  87 146 167 220 288 323 426
#     4   9  21  42  57 105 132 178 231 277 354 405
#     4  12  22  48  74  94 146 180 224 310 336 438
#     4  11  24  41  75  97 139 187 233 293 351 424
#     4  11  24  46  67  97 135 184 226 291 365 407
#     4  10  23  43  63 105 130 182 242 274 362 414
#     4  10  23  43  64 101 137 178 235 289 346 414
#
# _framework density 21.883157000000001
#
# number of rings (size 3 to 8) (size 9 to 14) (size 15 to 20)
#    0.000    1.714    2.857    1.143   10.667    5.333 
#    3.429    4.762    0.000    0.000    0.000    0.000 
#    0.000    0.000    0.000    0.000    0.000    0.000 
#
# Total GULP energy -233839.282979 kJ/mol
# GULP energy per Si atom -5567.601976 kJ/mol
# Density = 2.183335 g / cm^3
# Si number density = 21.883157 Si / 1000 Ang^3
#
#
#
# Elastic Constant Matrix: (Units=GPa)
#
#
# Indices 1 2 3 4 5 6 
#
# 1 74.4625 3.1700 -0.0255 0.0000 0.0000 0.0000
# 2 3.1700 100.9040 30.2930 0.0000 0.0000 0.0000
# 3 -0.0255 30.2930 126.0906 0.0000 0.0000 0.0000
# 4 0.0000 0.0000 0.0000 3.4051 0.0000 0.0000
# 5 0.0000 0.0000 0.0000 0.0000 14.5491 0.0000
# 6 0.0000 0.0000 0.0000 0.0000 0.0000 29.6042
#
#
#
# Elastic Compliance Matrix: (Units=1/GPa)
#
#
# Indices 1 2 3 4 5 6 
#
# 1 0.013449 -0.000456 0.000112 0.000000 0.000000 0.000000
# 2 -0.000456 0.010696 -0.002570 0.000000 0.000000 0.000000
# 3 0.000112 -0.002570 0.008548 0.000000 0.000000 0.000000
# 4 0.000000 0.000000 0.000000 0.293673 0.000000 0.000000
# 5 0.000000 0.000000 0.000000 0.000000 0.068733 0.000000
# 6 0.000000 0.000000 0.000000 0.000000 0.000000 0.033779
#
#
# Mechanical properties :
#
#
# Convention : Reuss Voigt Hill
#
# Bulk Modulus (GPa) = 37.22177 40.92581 39.07379
# Shear Modulus (GPa) = 11.26986 27.37966 19.32476
#
# Velocity S-wave (km/s) = 2.27183 3.54103 2.97490
# Velocity P-wave (km/s) = 4.89161 5.95492 5.44926
#
# Compressibility (1/GPa) = 0.02686600
#
# Stress axis : x y z
#
# Youngs Moduli (GPa) = 74.35479 93.49066 116.98331
#
# Poissons Ratio (x) = 0.04265 -0.01314
# Poissons Ratio (y) = 0.03392 0.30063
# Poissons Ratio (z) = -0.00835 0.24026
#
# Static dielectric constant tensor:
#      x y z
#    x 1.850010 0.000000 0.000000 
#    y 0.000000 1.856220 0.000000 
#    z 0.000000 0.000000 1.853910 
# 
# From -- ./inp_files/60330.got.cif
#   From: 2010.05.17/outbox.cif.g08.bks.cpg/sg70_31_cif.got.tgz:60330.got - 2010.06.03 15:57:51.
