data_PCOD9516728
_publ_section_title
;
Structure prediction by ZEFSAII (Michael W. Deem and Ramdas Pophale) SiO2 
 PCOD9516728
Probable space group: F D D D
;
_chemical_formula_sum "Si O2"
_cell_formula_units_Z 216
_cell_length_a 23.413641
_cell_length_b 14.301096
_cell_length_c 29.683350
_cell_angle_alpha 90.000000
_cell_angle_beta 90.000000
_cell_angle_gamma 90.000000
_cell_volume 9939.194513
_symmetry_space_group_name_H-M "F D D D"
_symmetry_group_IT_number 70
_space_group.IT_coordinate_system_code '2'
_symmetry_cell_setting 'orthorhombic'
loop_
_space_group_symop_operation_xyz
x,y,z
1/4-x,1/4-y,z
x,1/4-y,1/4-z
1/4-x,y,1/4-z
-x,-y,-z
3/4+x,3/4+y,-z
-x,3/4+y,3/4+z
3/4+x,-y,3/4+z
x,1/2+y,1/2+z
1/4-x,3/4-y,1/2+z
x,3/4-y,3/4-z
1/4-x,1/2+y,3/4-z
-x,1/2-y,1/2-z
3/4+x,1/4+y,1/2-z
-x,1/4+y,1/4+z
3/4+x,1/2-y,1/4+z
1/2+x,y,1/2+z
3/4-x,1/4-y,1/2+z
1/2+x,1/4-y,3/4-z
3/4-x,y,3/4-z
1/2-x,-y,1/2-z
1/4+x,3/4+y,1/2-z
1/2-x,3/4+y,1/4+z
1/4+x,-y,1/4+z
1/2+x,1/2+y,z
3/4-x,3/4-y,z
1/2+x,3/4-y,1/4-z
3/4-x,1/2+y,1/4-z
1/2-x,1/2-y,-z
1/4+x,1/4+y,-z
1/2-x,1/4+y,3/4+z
1/4+x,1/2-y,3/4+z
loop_
_atom_site_type_symbol
_atom_site_label
_atom_site_fract_x
_atom_site_fract_y
_atom_site_fract_z
Si Si1 0.187597 0.263620 0.880902
Si Si2 0.250734 0.500561 0.470735
Si Si3 0.803415 0.434996 0.757812
Si Si4 0.454204 0.230050 0.925448
Si Si5 0.625661 0.020125 0.468642
Si Si6 0.375000 0.875000 0.375000
Si Si7 0.125000 0.125000 0.427246
Si Si8 0.115465 0.348588 0.538029
O O1 0.188825 0.375000 0.875000
O O2 0.245512 0.221894 0.860737
O O3 0.173698 0.237240 0.931804
O O4 0.137571 0.215643 0.852055
O O5 0.280731 0.400575 0.462512
O O6 0.232198 0.501728 0.524765
O O7 0.189186 0.509332 0.447614
O O8 0.298547 0.575540 0.456463
O O9 0.750000 0.500000 0.750000
O O10 0.822562 0.392702 0.710342
O O11 0.855396 0.500762 0.773241
O O12 0.415118 0.313805 0.907276
O O13 0.411130 0.141639 0.926871
O O14 0.625000 0.125000 0.488776
O O15 0.617771 0.932097 0.501309
#
# Coordination Sequence:
#
# PCOD9516728 Si02
#       8
#    32  32  32  32  32   8  16  32
#     4  12  23  43  66  92 135 174 223 275 343 408
#     4  11  23  41  68 102 134 174 230 289 342 388
#     4  12  19  38  68  98 130 164 230 287 329 415
#     4  11  24  43  67  93 132 183 223 278 342 410
#     4  11  25  40  61  98 134 175 224 275 336 403
#     4  12  28  44  62  96 134 184 244 260 346 430
#     4  12  22  38  67 100 122 175 222 281 340 397
#     4  11  23  42  69 100 133 180 228 285 348 393
#
# _framework density 21.732143000000001
#
# number of rings (size 3 to 8) (size 9 to 14) (size 15 to 20)
#    0.000    0.593    7.407    1.778    4.148    1.778 
#    0.000    0.000    0.000    0.000    0.000    1.037 
#    0.000    0.000    0.000    0.000    0.000    0.000 
#
# Total GULP energy -301342.827048 kJ/mol
# GULP energy per Si atom -5580.422723 kJ/mol
# Density = 2.168268 g / cm^3
# Si number density = 21.732143 Si / 1000 Ang^3
#
#
#
# Elastic Constant Matrix: (Units=GPa)
#
#
# Indices 1 2 3 4 5 6 
#
# 1 120.4213 32.9508 22.9311 0.0000 0.0000 0.0000
# 2 32.9508 119.9268 19.2008 0.0000 0.0000 0.0000
# 3 22.9311 19.2008 44.4248 0.0000 0.0000 0.0000
# 4 0.0000 0.0000 0.0000 17.2490 0.0000 0.0000
# 5 0.0000 0.0000 0.0000 0.0000 25.6967 0.0000
# 6 0.0000 0.0000 0.0000 0.0000 0.0000 58.9860
#
#
#
# Elastic Compliance Matrix: (Units=1/GPa)
#
#
# Indices 1 2 3 4 5 6 
#
# 1 0.009631 -0.001988 -0.004112 0.000000 0.000000 0.000000
# 2 -0.001988 0.009369 -0.003023 0.000000 0.000000 0.000000
# 3 -0.004112 -0.003023 0.025939 0.000000 0.000000 0.000000
# 4 0.000000 0.000000 0.000000 0.057974 0.000000 0.000000
# 5 0.000000 0.000000 0.000000 0.000000 0.038915 0.000000
# 6 0.000000 0.000000 0.000000 0.000000 0.000000 0.016953
#
#
# Mechanical properties :
#
#
# Convention : Reuss Voigt Hill
#
# Bulk Modulus (GPa) = 37.46354 48.32647 42.89501
# Shear Modulus (GPa) = 26.89242 34.36569 30.62906
#
# Velocity S-wave (km/s) = 3.52156 3.98091 3.75826
# Velocity P-wave (km/s) = 5.81475 6.58906 6.21398
#
# Compressibility (1/GPa) = 0.02669262
#
# Stress axis : x y z
#
# Youngs Moduli (GPa) = 103.82935 106.73941 38.55165
#
# Poissons Ratio (x) = 0.21218 0.15853
# Poissons Ratio (y) = 0.20640 0.11655
# Poissons Ratio (z) = 0.42697 0.32268
#
# Static dielectric constant tensor:
#      x y z
#    x 1.830980 0.000000 0.000000 
#    y 0.000000 1.986710 0.000000 
#    z 0.000000 0.000000 1.836780 
# 
# From -- ./inp_files/67995.got.cif
#   From: 2010.05.17/outbox.cif.g08.bks.cpg/sg70_34_cif.got.tgz:67995.got - 2010.06.03 15:57:51.
