data_PCOD9516938
_publ_section_title
;
Structure prediction by ZEFSAII (Michael W. Deem and Ramdas Pophale) SiO2 
 PCOD9516938
Probable space group: F D D D
;
_chemical_formula_sum "Si O2"
_cell_formula_units_Z 72
_cell_length_a 16.526814
_cell_length_b 25.034771
_cell_length_c 7.055207
_cell_angle_alpha 90.000000
_cell_angle_beta 90.000000
_cell_angle_gamma 90.000000
_cell_volume 2919.056647
_symmetry_space_group_name_H-M "F D D D"
_symmetry_group_IT_number 70
_space_group.IT_coordinate_system_code '2'
_symmetry_cell_setting 'orthorhombic'
loop_
_space_group_symop_operation_xyz
x,y,z
1/4-x,1/4-y,z
x,1/4-y,1/4-z
1/4-x,y,1/4-z
-x,-y,-z
3/4+x,3/4+y,-z
-x,3/4+y,3/4+z
3/4+x,-y,3/4+z
x,1/2+y,1/2+z
1/4-x,3/4-y,1/2+z
x,3/4-y,3/4-z
1/4-x,1/2+y,3/4-z
-x,1/2-y,1/2-z
3/4+x,1/4+y,1/2-z
-x,1/4+y,1/4+z
3/4+x,1/2-y,1/4+z
1/2+x,y,1/2+z
3/4-x,1/4-y,1/2+z
1/2+x,1/4-y,3/4-z
3/4-x,y,3/4-z
1/2-x,-y,1/2-z
1/4+x,3/4+y,1/2-z
1/2-x,3/4+y,1/4+z
1/4+x,-y,1/4+z
1/2+x,1/2+y,z
3/4-x,3/4-y,z
1/2+x,3/4-y,1/4-z
3/4-x,1/2+y,1/4-z
1/2-x,1/2-y,-z
1/4+x,1/4+y,-z
1/2-x,1/4+y,3/4+z
1/4+x,1/2-y,3/4+z
loop_
_atom_site_type_symbol
_atom_site_label
_atom_site_fract_x
_atom_site_fract_y
_atom_site_fract_z
Si Si1 0.867053 0.287578 0.601516
Si Si2 0.805419 0.682003 0.721889
Si Si3 0.625000 0.625000 0.625000
O O1 0.875000 0.295218 0.375000
O O2 0.774507 0.295902 0.669436
O O3 0.907195 0.230802 0.648962
O O4 0.911946 0.333023 0.722542
O O5 0.793833 0.625000 0.625000
O O6 0.875000 0.672285 0.875000
#
# Coordination Sequence:
#
# PCOD9516938 Si02
#       3
#    32  32   8
#     4  11  25  48  76 114 159 203 260 326 396 463
#     4  11  25  47  78 118 155 208 263 326 393 473
#     4  12  26  44  80 114 148 208 252 318 400 478
#
# _framework density 24.665503000000001
#
# number of rings (size 3 to 8) (size 9 to 14) (size 15 to 20)
#    0.000    0.889    2.222    6.000    3.111    8.889 
#    0.000    0.000    0.000    0.000    0.000    0.000 
#    0.000    0.000    0.000    0.000    0.000    0.000 
#
# Total GULP energy -100513.894127 kJ/mol
# GULP energy per Si atom -5584.105229 kJ/mol
# Density = 2.460936 g / cm^3
# Si number density = 24.665503 Si / 1000 Ang^3
#
#
#
# Elastic Constant Matrix: (Units=GPa)
#
#
# Indices 1 2 3 4 5 6 
#
# 1 216.0416 103.4328 52.1666 -0.0001 0.0001 0.0000
# 2 103.4328 301.0795 106.8040 0.0000 0.0000 0.0000
# 3 52.1666 106.8040 144.5437 -0.0003 0.0005 0.0001
# 4 -0.0001 0.0000 -0.0003 30.0675 0.0002 0.0000
# 5 0.0001 0.0000 0.0005 0.0002 30.1837 0.0000
# 6 0.0000 0.0000 0.0001 0.0000 0.0000 51.8264
#
#
#
# Elastic Compliance Matrix: (Units=1/GPa)
#
#
# Indices 1 2 3 4 5 6 
#
# 1 0.005610 -0.001638 -0.000814 0.000000 0.000000 0.000000
# 2 -0.001638 0.004980 -0.003088 0.000000 0.000000 0.000000
# 3 -0.000814 -0.003088 0.009494 0.000000 0.000000 0.000000
# 4 0.000000 0.000000 0.000000 0.033259 0.000000 0.000000
# 5 0.000000 0.000000 0.000000 0.000000 0.033130 0.000000
# 6 0.000000 0.000000 0.000000 0.000000 0.000000 0.019295
#
#
# Mechanical properties :
#
#
# Convention : Reuss Voigt Hill
#
# Bulk Modulus (GPa) = 111.08343 131.83016 121.45679
# Shear Modulus (GPa) = 41.71897 49.03295 45.37596
#
# Velocity S-wave (km/s) = 4.11711 4.46344 4.29377
# Velocity P-wave (km/s) = 8.23010 8.95133 8.59828
#
# Compressibility (1/GPa) = 0.00900224
#
# Stress axis : x y z
#
# Youngs Moduli (GPa) = 178.26301 200.81281 105.32967
#
# Poissons Ratio (x) = 0.32902 0.08573
# Poissons Ratio (y) = 0.29207 0.32528
# Poissons Ratio (z) = 0.14509 0.62016
#
# Static dielectric constant tensor:
#      x y z
#    x 2.724550 0.000000 0.000000 
#    y 0.000000 2.003330 0.000000 
#    z 0.000000 0.000000 1.934420 
# 
# From -- ./inp_files/6758.got.cif
#   From: 2010.05.17/outbox.cif.g08.bks.cpg/sg70_4_cif.got.tgz:6758.got - 2010.06.03 15:57:51.
