data_PCOD9516059
_publ_section_title
;
Structure prediction by ZEFSAII (Michael W. Deem and Ramdas Pophale) SiO2 
 PCOD9516059
Probable space group: F D D D
;
_chemical_formula_sum "Si O2"
_cell_formula_units_Z 176
_cell_length_a 28.739586
_cell_length_b 26.419825
_cell_length_c 9.953559
_cell_angle_alpha 90.000000
_cell_angle_beta 90.000000
_cell_angle_gamma 90.000000
_cell_volume 7557.685916
_symmetry_space_group_name_H-M "F D D D"
_symmetry_group_IT_number 70
_space_group.IT_coordinate_system_code '2'
_symmetry_cell_setting 'orthorhombic'
loop_
_space_group_symop_operation_xyz
x,y,z
1/4-x,1/4-y,z
x,1/4-y,1/4-z
1/4-x,y,1/4-z
-x,-y,-z
3/4+x,3/4+y,-z
-x,3/4+y,3/4+z
3/4+x,-y,3/4+z
x,1/2+y,1/2+z
1/4-x,3/4-y,1/2+z
x,3/4-y,3/4-z
1/4-x,1/2+y,3/4-z
-x,1/2-y,1/2-z
3/4+x,1/4+y,1/2-z
-x,1/4+y,1/4+z
3/4+x,1/2-y,1/4+z
1/2+x,y,1/2+z
3/4-x,1/4-y,1/2+z
1/2+x,1/4-y,3/4-z
3/4-x,y,3/4-z
1/2-x,-y,1/2-z
1/4+x,3/4+y,1/2-z
1/2-x,3/4+y,1/4+z
1/4+x,-y,1/4+z
1/2+x,1/2+y,z
3/4-x,3/4-y,z
1/2+x,3/4-y,1/4-z
3/4-x,1/2+y,1/4-z
1/2-x,1/2-y,-z
1/4+x,1/4+y,-z
1/2-x,1/4+y,3/4+z
1/4+x,1/2-y,3/4+z
loop_
_atom_site_type_symbol
_atom_site_label
_atom_site_fract_x
_atom_site_fract_y
_atom_site_fract_z
Si Si1 0.271721 0.705693 0.169522
Si Si2 0.458789 0.207221 0.554728
Si Si3 0.452135 0.375000 0.375000
Si Si4 0.770492 0.643097 0.941589
Si Si5 0.830407 0.357037 0.142881
Si Si6 0.139199 0.499258 0.283151
O O1 0.243780 0.755222 0.224590
O O2 0.234415 0.672404 0.086908
O O3 0.280319 0.670647 0.300933
O O4 0.317727 0.713705 0.080469
O O5 0.447549 0.155713 0.471063
O O6 0.478451 0.185461 0.693699
O O7 0.410554 0.234107 0.593180
O O8 0.422946 0.389588 0.246009
O O9 0.719372 0.617993 0.952919
O O10 0.875000 0.375000 0.223396
O O11 0.841846 0.301132 0.095035
O O12 0.125000 0.501780 0.125000
#
# Coordination Sequence:
#
# PCOD9516059 Si02
#       6
#    32  32  16  32  32  32
#     4  11  24  44  71 104 147 195 240 309 384 446
#     4  11  24  48  70 105 147 197 248 314 374 460
#     4  10  23  38  70  98 142 186 236 312 371 442
#     4  10  24  46  73  99 150 197 247 305 386 455
#     4  11  21  42  68 105 133 184 249 308 368 441
#     4  12  26  40  72 107 148 190 250 311 379 461
#
# _framework density 23.287552000000002
#
# number of rings (size 3 to 8) (size 9 to 14) (size 15 to 20)
#    0.000    1.091    1.818    5.182    5.091    3.636 
#    0.000    1.818    0.000    0.000    0.000    0.000 
#    0.000    0.000    0.000    0.000    0.000    0.000 
#
# Total GULP energy -245679.989309 kJ/mol
# GULP energy per Si atom -5583.636121 kJ/mol
# Density = 2.323455 g / cm^3
# Si number density = 23.287552 Si / 1000 Ang^3
#
#
#
# Elastic Constant Matrix: (Units=GPa)
#
#
# Indices 1 2 3 4 5 6 
#
# 1 164.2478 59.3910 47.3003 0.0037 0.0006 -0.0004
# 2 59.3910 117.0707 45.7272 0.0035 -0.0005 -0.0007
# 3 47.3003 45.7272 100.1080 0.0125 -0.0032 -0.0021
# 4 0.0037 0.0035 0.0125 37.0295 -0.0009 -0.0010
# 5 0.0006 -0.0005 -0.0032 -0.0009 12.2956 -0.0001
# 6 -0.0004 -0.0007 -0.0021 -0.0010 -0.0001 51.3920
#
#
#
# Elastic Compliance Matrix: (Units=1/GPa)
#
#
# Indices 1 2 3 4 5 6 
#
# 1 0.007871 -0.003092 -0.002306 0.000000 -0.000001 0.000000
# 2 -0.003092 0.011611 -0.003843 0.000001 0.000000 0.000000
# 3 -0.002306 -0.003843 0.012834 -0.000004 0.000003 0.000000
# 4 0.000000 0.000001 -0.000004 0.027005 0.000002 0.000001
# 5 -0.000001 0.000000 0.000003 0.000002 0.081330 0.000000
# 6 0.000000 0.000000 0.000000 0.000001 0.000000 0.019458
#
#
# Mechanical properties :
#
#
# Convention : Reuss Voigt Hill
#
# Bulk Modulus (GPa) = 72.28710 76.25149 74.26930
# Shear Modulus (GPa) = 27.29196 35.41063 31.35130
#
# Velocity S-wave (km/s) = 3.42710 3.90369 3.67313
# Velocity P-wave (km/s) = 6.83875 7.28924 7.06758
#
# Compressibility (1/GPa) = 0.01383373
#
# Stress axis : x y z
#
# Youngs Moduli (GPa) = 127.05508 86.12195 77.91573
#
# Poissons Ratio (x) = 0.26628 0.17971
# Poissons Ratio (y) = 0.39284 0.29943
# Poissons Ratio (z) = 0.29305 0.33096
#
# Static dielectric constant tensor:
#      x y z
#    x 1.911930 0.000000 0.000000 
#    y 0.000000 1.999360 0.000000 
#    z 0.000000 0.000000 1.934790 
# 
# From -- ./inp_files/22440.got.cif
#   From: 2010.05.17/outbox.cif.g08.bks.cpg/sg70_12_cif.got.tgz:22440.got - 2010.06.03 15:57:51.
