data_PCOD9516478
_publ_section_title
;
Structure prediction by ZEFSAII (Michael W. Deem and Ramdas Pophale) SiO2 
 PCOD9516478
Probable space group: F D D D
;
_chemical_formula_sum "Si O2"
_cell_formula_units_Z 136
_cell_length_a 25.421697
_cell_length_b 25.003725
_cell_length_c 8.099494
_cell_angle_alpha 90.000000
_cell_angle_beta 90.000000
_cell_angle_gamma 90.000000
_cell_volume 5148.339046
_symmetry_space_group_name_H-M "F D D D"
_symmetry_group_IT_number 70
_space_group.IT_coordinate_system_code '2'
_symmetry_cell_setting 'orthorhombic'
loop_
_space_group_symop_operation_xyz
x,y,z
1/4-x,1/4-y,z
x,1/4-y,1/4-z
1/4-x,y,1/4-z
-x,-y,-z
3/4+x,3/4+y,-z
-x,3/4+y,3/4+z
3/4+x,-y,3/4+z
x,1/2+y,1/2+z
1/4-x,3/4-y,1/2+z
x,3/4-y,3/4-z
1/4-x,1/2+y,3/4-z
-x,1/2-y,1/2-z
3/4+x,1/4+y,1/2-z
-x,1/4+y,1/4+z
3/4+x,1/2-y,1/4+z
1/2+x,y,1/2+z
3/4-x,1/4-y,1/2+z
1/2+x,1/4-y,3/4-z
3/4-x,y,3/4-z
1/2-x,-y,1/2-z
1/4+x,3/4+y,1/2-z
1/2-x,3/4+y,1/4+z
1/4+x,-y,1/4+z
1/2+x,1/2+y,z
3/4-x,3/4-y,z
1/2+x,3/4-y,1/4-z
3/4-x,1/2+y,1/4-z
1/2-x,1/2-y,-z
1/4+x,1/4+y,-z
1/2-x,1/4+y,3/4+z
1/4+x,1/2-y,3/4+z
loop_
_atom_site_type_symbol
_atom_site_label
_atom_site_fract_x
_atom_site_fract_y
_atom_site_fract_z
Si Si1 0.950953 0.704768 0.932266
Si Si2 0.930834 0.759388 0.589290
Si Si3 0.032548 0.902265 0.687630
Si Si4 0.625000 0.625000 0.125000
Si Si5 0.824059 0.448464 0.635507
O O1 0.926868 0.735928 0.774457
O O2 0.014248 0.708984 0.913778
O O3 0.981718 0.829135 0.172794
O O4 0.937086 0.739945 0.089549
O O5 0.937643 0.707217 0.476750
O O6 0.882711 0.797216 0.540766
O O7 0.023082 0.875000 0.875000
O O8 0.062408 0.856951 0.585007
O O9 0.587782 0.586786 0.226717
#
# Coordination Sequence:
#
# PCOD9516478 Si02
#       5
#    32  32  32   8  32
#     4   9  16  26  34  53  82 110 137 163 194 243
#     4   9  16  24  35  54  77 109 141 159 189 249
#     4   9  17  26  36  53  83 111 133 166 199 234
#     4  12  16  20  36  60  76 112 140 150 184 250
#     4  11  17  24  38  55  83 115 138 156 196 252
#
# _framework density 26.416287000000001
#
# number of rings (size 3 to 8) (size 9 to 14) (size 15 to 20)
#    0.000    2.353    3.529    2.824    0.000    0.000 
#    0.000    0.000    0.000    0.000    0.000    0.000 
#    0.000   58.353    0.000    0.000    0.000    0.000 
#
# Total GULP energy -189774.990231 kJ/mol
# GULP energy per Si atom -5581.617360 kJ/mol
# Density = 2.635616 g / cm^3
# Si number density = 26.416287 Si / 1000 Ang^3
#
#
#
# Elastic Constant Matrix: (Units=GPa)
#
#
# Indices 1 2 3 4 5 6 
#
# 1 114.1456 10.7981 9.0082 0.0076 -0.0092 -0.0154
# 2 10.7981 129.0414 11.9970 0.0073 -0.0030 -0.0190
# 3 9.0082 11.9970 64.4942 0.0081 -0.0030 -0.0126
# 4 0.0076 0.0073 0.0081 -22.4972 -0.0035 -0.0053
# 5 -0.0092 -0.0030 -0.0030 -0.0035 -13.6900 0.0052
# 6 -0.0154 -0.0190 -0.0126 -0.0053 0.0052 14.1592
#
#
#
# Elastic Compliance Matrix: (Units=1/GPa)
#
#
# Indices 1 2 3 4 5 6 
#
# 1 0.008910 -0.000641 -0.001125 0.000002 -0.000006 0.000008
# 2 -0.000641 0.007932 -0.001386 0.000002 -0.000001 0.000009
# 3 -0.001125 -0.001386 0.015920 0.000005 -0.000002 0.000011
# 4 0.000002 0.000002 0.000005 -0.044450 0.000011 -0.000017
# 5 -0.000006 -0.000001 -0.000002 0.000011 -0.073046 0.000027
# 6 0.000008 0.000009 0.000011 -0.000017 0.000027 0.070625
#
#
# Mechanical properties :
#
#
# Convention : Reuss Voigt Hill
#
# Bulk Modulus (GPa) = 37.79583 41.25420 39.52502
# Shear Modulus (GPa) = 4923.65343 13.98626 2468.81985
#
# Velocity S-wave (km/s) = 43.21940 2.30349 30.60411
# Velocity P-wave (km/s) = 50.04892 4.76714 35.55011
#
# Compressibility (1/GPa) = 0.02645794
#
# Stress axis : x y z
#
# Youngs Moduli (GPa) = 112.23112 126.07255 62.81305
#
# Poissons Ratio (x) = 0.08081 0.07068
# Poissons Ratio (y) = 0.07194 0.08706
# Poissons Ratio (z) = 0.12629 0.17473
#
# Static dielectric constant tensor:
#      x y z
#    x 2.190430 0.000000 0.000000 
#    y 0.000000 1.974650 -0.000020 
#    z 0.000000 -0.000020 2.290990 
# 
# From -- ./inp_files/22328.got.cif
#   From: 2010.05.17/outbox.cif.g08.bks.cpg/sg70_12_cif.got.tgz:22328.got - 2010.06.03 15:57:51.
