data_PCOD9516946
_publ_section_title
;
Structure prediction by ZEFSAII (Michael W. Deem and Ramdas Pophale) SiO2 
 PCOD9516946
Probable space group: F D D D
;
_chemical_formula_sum "Si O2"
_cell_formula_units_Z 80
_cell_length_a 27.730576
_cell_length_b 17.246169
_cell_length_c 6.714355
_cell_angle_alpha 90.000000
_cell_angle_beta 90.000000
_cell_angle_gamma 90.000000
_cell_volume 3211.114765
_symmetry_space_group_name_H-M "F D D D"
_symmetry_group_IT_number 70
_space_group.IT_coordinate_system_code '2'
_symmetry_cell_setting 'orthorhombic'
loop_
_space_group_symop_operation_xyz
x,y,z
1/4-x,1/4-y,z
x,1/4-y,1/4-z
1/4-x,y,1/4-z
-x,-y,-z
3/4+x,3/4+y,-z
-x,3/4+y,3/4+z
3/4+x,-y,3/4+z
x,1/2+y,1/2+z
1/4-x,3/4-y,1/2+z
x,3/4-y,3/4-z
1/4-x,1/2+y,3/4-z
-x,1/2-y,1/2-z
3/4+x,1/4+y,1/2-z
-x,1/4+y,1/4+z
3/4+x,1/2-y,1/4+z
1/2+x,y,1/2+z
3/4-x,1/4-y,1/2+z
1/2+x,1/4-y,3/4-z
3/4-x,y,3/4-z
1/2-x,-y,1/2-z
1/4+x,3/4+y,1/2-z
1/2-x,3/4+y,1/4+z
1/4+x,-y,1/4+z
1/2+x,1/2+y,z
3/4-x,3/4-y,z
1/2+x,3/4-y,1/4-z
3/4-x,1/2+y,1/4-z
1/2-x,1/2-y,-z
1/4+x,1/4+y,-z
1/2-x,1/4+y,3/4+z
1/4+x,1/2-y,3/4+z
loop_
_atom_site_type_symbol
_atom_site_label
_atom_site_fract_x
_atom_site_fract_y
_atom_site_fract_z
Si Si1 0.573505 0.304145 0.722269
Si Si2 0.569563 0.140084 0.856554
Si Si3 0.508694 0.375000 0.375000
O O1 0.625000 0.283467 0.625000
O O2 0.577966 0.375000 0.875000
O O3 0.557815 0.231639 0.858684
O O4 0.541050 0.328127 0.532337
O O5 0.625000 0.125000 0.911432
O O6 0.563746 0.125000 0.625000
O O7 0.531817 0.087990 0.977321
#
# Coordination Sequence:
#
# PCOD9516946 Si02
#       3
#    32  32  16
#     4  12  26  47  72 107 151 193 246 307 368 435
#     4  11  25  49  74 106 149 193 244 304 367 444
#     4  12  27  46  78 110 144 194 253 300 372 432
#
# _framework density 24.913464999999999
#
# number of rings (size 3 to 8) (size 9 to 14) (size 15 to 20)
#    0.000    0.400    6.000    3.000    0.000    9.600 
#    0.000    0.000    0.000    0.000    0.000    0.000 
#    0.000    0.000    0.000    0.000    0.000    0.000 
#
# Total GULP energy -111715.248344 kJ/mol
# GULP energy per Si atom -5585.762417 kJ/mol
# Density = 2.485676 g / cm^3
# Si number density = 24.913465 Si / 1000 Ang^3
#
#
#
# Elastic Constant Matrix: (Units=GPa)
#
#
# Indices 1 2 3 4 5 6 
#
# 1 175.7465 -7.2744 57.8169 0.0000 0.0000 0.0000
# 2 -7.2744 105.2748 25.0438 -0.0001 0.0001 0.0000
# 3 57.8169 25.0438 169.0898 -0.0003 0.0003 0.0002
# 4 0.0000 -0.0001 -0.0003 33.6207 0.0001 0.0001
# 5 0.0000 0.0001 0.0003 0.0001 38.7515 -0.0001
# 6 0.0000 0.0000 0.0002 0.0001 -0.0001 12.2528
#
#
#
# Elastic Compliance Matrix: (Units=1/GPa)
#
#
# Indices 1 2 3 4 5 6 
#
# 1 0.006514 0.001016 -0.002378 0.000000 0.000000 0.000000
# 2 0.001016 0.010004 -0.001829 0.000000 0.000000 0.000000
# 3 -0.002378 -0.001829 0.006998 0.000000 0.000000 0.000000
# 4 0.000000 0.000000 0.000000 0.029744 0.000000 0.000000
# 5 0.000000 0.000000 0.000000 0.000000 0.025805 0.000000
# 6 0.000000 0.000000 0.000000 0.000000 0.000000 0.081614
#
#
# Mechanical properties :
#
#
# Convention : Reuss Voigt Hill
#
# Bulk Modulus (GPa) = 58.36248 66.80928 62.58588
# Shear Modulus (GPa) = 28.93963 41.89332 35.41647
#
# Velocity S-wave (km/s) = 3.41193 4.10512 3.77447
# Velocity P-wave (km/s) = 6.24489 7.02454 6.64616
#
# Compressibility (1/GPa) = 0.01713430
#
# Stress axis : x y z
#
# Youngs Moduli (GPa) = 153.50753 99.95746 142.89814
#
# Poissons Ratio (x) = -0.10154 0.33980
# Poissons Ratio (y) = -0.15594 0.26137
# Poissons Ratio (z) = 0.36503 0.18283
#
# Static dielectric constant tensor:
#      x y z
#    x 1.988560 0.000000 0.000000 
#    y 0.000000 2.702880 0.000000 
#    z 0.000000 0.000000 1.996070 
# 
# From -- ./inp_files/10181.got.cif
#   From: 2010.05.17/outbox.cif.g08.bks.cpg/sg70_6_cif.got.tgz:10181.got - 2010.06.03 15:57:51.
