data_PCOD9516150
_publ_section_title
;
Structure prediction by ZEFSAII (Michael W. Deem and Ramdas Pophale) SiO2 
 PCOD9516150
Probable space group: F D D D
;
_chemical_formula_sum "Si O2"
_cell_formula_units_Z 80
_cell_length_a 25.661301
_cell_length_b 12.259138
_cell_length_c 9.805041
_cell_angle_alpha 90.000000
_cell_angle_beta 90.000000
_cell_angle_gamma 90.000000
_cell_volume 3084.523041
_symmetry_space_group_name_H-M "F D D D"
_symmetry_group_IT_number 70
_space_group.IT_coordinate_system_code '2'
_symmetry_cell_setting 'orthorhombic'
loop_
_space_group_symop_operation_xyz
x,y,z
1/4-x,1/4-y,z
x,1/4-y,1/4-z
1/4-x,y,1/4-z
-x,-y,-z
3/4+x,3/4+y,-z
-x,3/4+y,3/4+z
3/4+x,-y,3/4+z
x,1/2+y,1/2+z
1/4-x,3/4-y,1/2+z
x,3/4-y,3/4-z
1/4-x,1/2+y,3/4-z
-x,1/2-y,1/2-z
3/4+x,1/4+y,1/2-z
-x,1/4+y,1/4+z
3/4+x,1/2-y,1/4+z
1/2+x,y,1/2+z
3/4-x,1/4-y,1/2+z
1/2+x,1/4-y,3/4-z
3/4-x,y,3/4-z
1/2-x,-y,1/2-z
1/4+x,3/4+y,1/2-z
1/2-x,3/4+y,1/4+z
1/4+x,-y,1/4+z
1/2+x,1/2+y,z
3/4-x,3/4-y,z
1/2+x,3/4-y,1/4-z
3/4-x,1/2+y,1/4-z
1/2-x,1/2-y,-z
1/4+x,1/4+y,-z
1/2-x,1/4+y,3/4+z
1/4+x,1/2-y,3/4+z
loop_
_atom_site_type_symbol
_atom_site_label
_atom_site_fract_x
_atom_site_fract_y
_atom_site_fract_z
Si Si1 0.580177 0.716792 0.991944
Si Si2 0.771097 0.320298 0.723820
Si Si3 0.908302 0.125000 0.125000
O O1 0.625000 0.625000 0.005999
O O2 0.533097 0.983137 0.667702
O O3 0.545328 0.665799 0.869628
O O4 0.617511 0.817591 0.973085
O O5 0.765853 0.375000 0.875000
O O6 0.809781 0.217761 0.704936
#
# Coordination Sequence:
#
# PCOD9516150 Si02
#       3
#    32  32  16
#     4  10  23  43  66 102 138 175 233 290 337 422
#     4  11  23  44  71  99 135 190 225 282 361 411
#     4  10  24  42  65 106 143 166 246 290 322 436
#
# _framework density 25.935939999999999
#
# number of rings (size 3 to 8) (size 9 to 14) (size 15 to 20)
#    0.000    1.600    2.000    1.200    0.000   13.600 
#    0.000    5.000    0.000    0.000    0.000    0.000 
#    0.000    0.000    0.000    0.000    0.000    0.000 
#
# Total GULP energy -111417.689999 kJ/mol
# GULP energy per Si atom -5570.884500 kJ/mol
# Density = 2.587691 g / cm^3
# Si number density = 25.935940 Si / 1000 Ang^3
#
#
#
# Elastic Constant Matrix: (Units=GPa)
#
#
# Indices 1 2 3 4 5 6 
#
# 1 236.7262 71.8697 39.5472 0.0000 0.0000 0.0000
# 2 71.8697 155.7266 35.3197 0.0000 0.0000 0.0000
# 3 39.5472 35.3197 77.3681 0.0000 0.0000 0.0000
# 4 0.0000 0.0000 0.0000 -46.3933 0.0000 0.0000
# 5 0.0000 0.0000 0.0000 0.0000 56.3274 0.0000
# 6 0.0000 0.0000 0.0000 0.0000 0.0000 600.7930
#
#
#
# Elastic Compliance Matrix: (Units=1/GPa)
#
#
# Indices 1 2 3 4 5 6 
#
# 1 0.005108 -0.001969 -0.001712 0.000000 0.000000 0.000000
# 2 -0.001969 0.007922 -0.002610 0.000000 0.000000 0.000000
# 3 -0.001712 -0.002610 0.014992 0.000000 0.000000 0.000000
# 4 0.000000 0.000000 0.000000 -0.021555 0.000000 0.000000
# 5 0.000000 0.000000 0.000000 0.000000 0.017753 0.000000
# 6 0.000000 0.000000 0.000000 0.000000 0.000000 0.001664
#
#
# Mechanical properties :
#
#
# Convention : Reuss Voigt Hill
#
# Bulk Modulus (GPa) = 64.76839 84.81046 74.78942
# Shear Modulus (GPa) = 114.64050 143.68438 129.16244
#
# Velocity S-wave (km/s) = 6.65563 7.45117 7.06461
# Velocity P-wave (km/s) = 9.17005 10.33429 9.76953
#
# Compressibility (1/GPa) = 0.01543963
#
# Stress axis : x y z
#
# Youngs Moduli (GPa) = 195.76579 126.22620 66.70253
#
# Poissons Ratio (x) = 0.24856 0.11420
# Poissons Ratio (y) = 0.38549 0.17410
# Poissons Ratio (z) = 0.33517 0.32946
#
# Static dielectric constant tensor:
#      x y z
#    x 1.965640 0.000000 0.000000 
#    y 0.000000 1.856460 0.000000 
#    z 0.000000 0.000000 2.239020 
# 
# From -- ./inp_files/13849.got.cif
#   From: 2010.05.17/outbox.cif.g08.bks.cpg/sg70_7_cif.got.tgz:13849.got - 2010.06.03 15:57:51.
