data_PCOD9516108
_publ_section_title
;
Structure prediction by ZEFSAII (Michael W. Deem and Ramdas Pophale) SiO2 
 PCOD9516108
Probable space group: F D D D
;
_chemical_formula_sum "Si O2"
_cell_formula_units_Z 176
_cell_length_a 16.779006
_cell_length_b 20.742582
_cell_length_c 24.487124
_cell_angle_alpha 90.000000
_cell_angle_beta 90.000000
_cell_angle_gamma 90.000000
_cell_volume 8522.496380
_symmetry_space_group_name_H-M "F D D D"
_symmetry_group_IT_number 70
_space_group.IT_coordinate_system_code '2'
_symmetry_cell_setting 'orthorhombic'
loop_
_space_group_symop_operation_xyz
x,y,z
1/4-x,1/4-y,z
x,1/4-y,1/4-z
1/4-x,y,1/4-z
-x,-y,-z
3/4+x,3/4+y,-z
-x,3/4+y,3/4+z
3/4+x,-y,3/4+z
x,1/2+y,1/2+z
1/4-x,3/4-y,1/2+z
x,3/4-y,3/4-z
1/4-x,1/2+y,3/4-z
-x,1/2-y,1/2-z
3/4+x,1/4+y,1/2-z
-x,1/4+y,1/4+z
3/4+x,1/2-y,1/4+z
1/2+x,y,1/2+z
3/4-x,1/4-y,1/2+z
1/2+x,1/4-y,3/4-z
3/4-x,y,3/4-z
1/2-x,-y,1/2-z
1/4+x,3/4+y,1/2-z
1/2-x,3/4+y,1/4+z
1/4+x,-y,1/4+z
1/2+x,1/2+y,z
3/4-x,3/4-y,z
1/2+x,3/4-y,1/4-z
3/4-x,1/2+y,1/4-z
1/2-x,1/2-y,-z
1/4+x,1/4+y,-z
1/2-x,1/4+y,3/4+z
1/4+x,1/2-y,3/4+z
loop_
_atom_site_type_symbol
_atom_site_label
_atom_site_fract_x
_atom_site_fract_y
_atom_site_fract_z
Si Si1 0.420252 0.065553 0.586181
Si Si2 0.098428 0.195170 0.187482
Si Si3 0.625000 0.826527 0.625000
Si Si4 0.155579 0.920106 0.025775
Si Si5 0.797003 0.904840 0.258691
Si Si6 0.715128 0.000575 0.340894
O O1 0.441828 0.125000 0.625000
O O2 0.504537 0.037806 0.565487
O O3 0.382435 0.095130 0.532169
O O4 0.355255 0.020583 0.617449
O O5 0.125000 0.125000 0.210526
O O6 0.125000 0.194507 0.125000
O O7 0.142377 0.254724 0.214963
O O8 0.620653 0.874162 0.572829
O O9 0.543655 0.784432 0.631821
O O10 0.247052 0.901765 0.019282
O O11 0.875000 0.875000 0.283936
O O12 0.814961 0.952994 0.208228
O O13 0.748543 0.940286 0.306236
#
# Coordination Sequence:
#
# PCOD9516108 Si02
#       6
#    32  32  16  32  32  32
#     4  12  24  42  66 100 136 173 225 280 340 403
#     4  11  24  44  70  96 130 179 226 280 343 404
#     4  10  24  44  68  96 136 180 226 276 344 406
#     4  11  24  45  68  97 135 177 224 286 337 409
#     4  10  23  41  68  97 134 181 226 277 343 406
#     4  10  24  42  63 102 137 174 228 281 334 411
#
# _framework density 20.651226000000001
#
# number of rings (size 3 to 8) (size 9 to 14) (size 15 to 20)
#    0.000    1.273    4.545    0.545    5.091    1.455 
#    0.000    0.909    0.000    0.000    0.000    0.000 
#    0.000    0.000    0.000    0.000    0.000    0.000 
#
# Total GULP energy -245443.281005 kJ/mol
# GULP energy per Si atom -5578.256386 kJ/mol
# Density = 2.060422 g / cm^3
# Si number density = 20.651226 Si / 1000 Ang^3
#
#
#
# Elastic Constant Matrix: (Units=GPa)
#
#
# Indices 1 2 3 4 5 6 
#
# 1 113.6471 64.9411 26.9755 0.0000 0.0000 0.0000
# 2 64.9411 128.3787 31.5420 0.0000 0.0000 0.0000
# 3 26.9755 31.5420 86.5260 0.0000 0.0000 0.0000
# 4 0.0000 0.0000 0.0000 -1.5540 0.0000 0.0000
# 5 0.0000 0.0000 0.0000 0.0000 4.6649 0.0000
# 6 0.0000 0.0000 0.0000 0.0000 0.0000 12.3746
#
#
#
# Elastic Compliance Matrix: (Units=1/GPa)
#
#
# Indices 1 2 3 4 5 6 
#
# 1 0.012618 -0.005949 -0.001765 0.000000 0.000000 0.000000
# 2 -0.005949 0.011361 -0.002287 0.000000 0.000000 0.000000
# 3 -0.001765 -0.002287 0.012941 0.000000 0.000000 0.000000
# 4 0.000000 0.000000 0.000000 -0.643515 0.000000 0.000000
# 5 0.000000 0.000000 0.000000 0.000000 0.214365 0.000000
# 6 0.000000 0.000000 0.000000 0.000000 0.000000 0.080811
#
#
# Mechanical properties :
#
#
# Convention : Reuss Voigt Hill
#
# Bulk Modulus (GPa) = 59.10946 63.94102 61.52524
# Shear Modulus (GPa) = -17.49605 16.76999 -0.36303
#
# Velocity S-wave (km/s) = -2.91386 2.85275 -0.41973
# Velocity P-wave (km/s) = 4.16703 6.47151 5.44264
#
# Compressibility (1/GPa) = 0.01691777
#
# Stress axis : x y z
#
# Youngs Moduli (GPa) = 79.25471 88.02330 77.27330
#
# Poissons Ratio (x) = 0.52365 0.13639
# Poissons Ratio (y) = 0.47149 0.17670
# Poissons Ratio (z) = 0.13989 0.20128
#
# Static dielectric constant tensor:
#      x y z
#    x 1.818880 0.000000 0.000000 
#    y 0.000000 1.777250 0.000000 
#    z 0.000000 0.000000 1.693600 
# 
# From -- ./inp_files/51195.got.cif
#   From: 2010.05.17/outbox.cif.g08.bks.cpg/sg70_26_cif.got.tgz:51195.got - 2010.06.03 15:57:51.
