data_PCOD9516459
_publ_section_title
;
Structure prediction by ZEFSAII (Michael W. Deem and Ramdas Pophale) SiO2 
 PCOD9516459
Probable space group: F D D D
;
_chemical_formula_sum "Si O2"
_cell_formula_units_Z 136
_cell_length_a 27.869240
_cell_length_b 9.877529
_cell_length_c 17.336748
_cell_angle_alpha 90.000000
_cell_angle_beta 90.000000
_cell_angle_gamma 90.000000
_cell_volume 4772.446576
_symmetry_space_group_name_H-M "F D D D"
_symmetry_group_IT_number 70
_space_group.IT_coordinate_system_code '2'
_symmetry_cell_setting 'orthorhombic'
loop_
_space_group_symop_operation_xyz
x,y,z
1/4-x,1/4-y,z
x,1/4-y,1/4-z
1/4-x,y,1/4-z
-x,-y,-z
3/4+x,3/4+y,-z
-x,3/4+y,3/4+z
3/4+x,-y,3/4+z
x,1/2+y,1/2+z
1/4-x,3/4-y,1/2+z
x,3/4-y,3/4-z
1/4-x,1/2+y,3/4-z
-x,1/2-y,1/2-z
3/4+x,1/4+y,1/2-z
-x,1/4+y,1/4+z
3/4+x,1/2-y,1/4+z
1/2+x,y,1/2+z
3/4-x,1/4-y,1/2+z
1/2+x,1/4-y,3/4-z
3/4-x,y,3/4-z
1/2-x,-y,1/2-z
1/4+x,3/4+y,1/2-z
1/2-x,3/4+y,1/4+z
1/4+x,-y,1/4+z
1/2+x,1/2+y,z
3/4-x,3/4-y,z
1/2+x,3/4-y,1/4-z
3/4-x,1/2+y,1/4-z
1/2-x,1/2-y,-z
1/4+x,1/4+y,-z
1/2-x,1/4+y,3/4+z
1/4+x,1/2-y,3/4+z
loop_
_atom_site_type_symbol
_atom_site_label
_atom_site_fract_x
_atom_site_fract_y
_atom_site_fract_z
Si Si1 0.829838 0.784192 0.473730
Si Si2 0.736688 0.852636 0.655537
Si Si3 0.125000 0.125000 0.125000
Si Si4 0.838462 0.491768 0.526886
Si Si5 0.954476 0.040300 0.186593
O O1 0.875000 0.875000 0.449623
O O2 0.705454 0.766029 0.594498
O O3 0.845447 0.653728 0.523282
O O4 0.805010 0.890777 0.529995
O O5 0.707841 0.875394 0.734932
O O6 0.714292 0.032371 0.437461
O O7 0.752231 0.992920 0.618843
O O8 0.156096 0.211001 0.184946
O O9 0.875000 0.375000 0.559694
O O10 0.923988 0.125000 0.125000
#
# Coordination Sequence:
#
# PCOD9516459 Si02
#       5
#    32  32   8  32  32
#     4  12  30  57  94 135 188 248 322 403 488 578
#     4  12  27  55  89 132 181 252 313 394 484 581
#     4   8  24  48  86 132 188 248 312 396 472 576
#     4  10  26  52  91 131 188 250 314 385 482 579
#     4  12  30  50  87 131 189 244 313 393 486 582
#
# _framework density 28.496914
#
# number of rings (size 3 to 8) (size 9 to 14) (size 15 to 20)
#    0.706    0.000    2.353    2.118    8.235    8.471 
#    0.000    0.000    0.000    0.000    0.000    0.000 
#    0.000    0.000    0.000    0.000    0.000    0.000 
#
# Total GULP energy -190159.232071 kJ/mol
# GULP energy per Si atom -5592.918590 kJ/mol
# Density = 2.843205 g / cm^3
# Si number density = 28.496914 Si / 1000 Ang^3
#
#
#
# Elastic Constant Matrix: (Units=GPa)
#
#
# Indices 1 2 3 4 5 6 
#
# 1 153.4343 74.0115 75.3962 0.0000 0.0000 0.0000
# 2 74.0115 227.0125 94.7337 0.0000 0.0000 0.0000
# 3 75.3962 94.7337 235.1852 0.0000 0.0000 0.0000
# 4 0.0000 0.0000 0.0000 -25.4736 0.0000 0.0000
# 5 0.0000 0.0000 0.0000 0.0000 77.4864 0.0000
# 6 0.0000 0.0000 0.0000 0.0000 0.0000 45.2996
#
#
#
# Elastic Compliance Matrix: (Units=1/GPa)
#
#
# Indices 1 2 3 4 5 6 
#
# 1 0.008391 -0.001939 -0.001909 0.000000 0.000000 0.000000
# 2 -0.001939 0.005743 -0.001692 0.000000 0.000000 0.000000
# 3 -0.001909 -0.001692 0.005545 0.000000 0.000000 0.000000
# 4 0.000000 0.000000 0.000000 -0.039256 0.000000 0.000000
# 5 0.000000 0.000000 0.000000 0.000000 0.012905 0.000000
# 6 0.000000 0.000000 0.000000 0.000000 0.000000 0.022075
#
#
# Mechanical properties :
#
#
# Convention : Reuss Voigt Hill
#
# Bulk Modulus (GPa) = 116.27901 122.65721 119.46811
# Shear Modulus (GPa) = 170.35921 44.22852 107.29387
#
# Velocity S-wave (km/s) = 7.74025 3.94388 6.14270
# Velocity P-wave (km/s) = 10.98975 7.99216 9.60857
#
# Compressibility (1/GPa) = 0.00860000
#
# Stress axis : x y z
#
# Youngs Moduli (GPa) = 119.17866 174.11923 180.33028
#
# Poissons Ratio (x) = 0.33762 0.34423
# Poissons Ratio (y) = 0.23109 0.30508
# Poissons Ratio (z) = 0.22750 0.29457
#
# Static dielectric constant tensor:
#      x y z
#    x 2.452000 0.000000 0.000000 
#    y 0.000000 2.252520 0.000000 
#    z 0.000000 0.000000 2.404900 
# 
# From -- ./inp_files/39574.got.cif
#   From: 2010.05.17/outbox.cif.g08.bks.cpg/sg70_20_cif.got.tgz:39574.got - 2010.06.03 15:57:51.
