data_PCOD9516486
_publ_section_title
;
Structure prediction by ZEFSAII (Michael W. Deem and Ramdas Pophale) SiO2 
 PCOD9516486
Probable space group: F D D D
;
_chemical_formula_sum "Si O2"
_cell_formula_units_Z 160
_cell_length_a 12.322147
_cell_length_b 26.414908
_cell_length_c 24.519726
_cell_angle_alpha 90.000000
_cell_angle_beta 90.000000
_cell_angle_gamma 90.000000
_cell_volume 7980.885878
_symmetry_space_group_name_H-M "F D D D"
_symmetry_group_IT_number 70
_space_group.IT_coordinate_system_code '2'
_symmetry_cell_setting 'orthorhombic'
loop_
_space_group_symop_operation_xyz
x,y,z
1/4-x,1/4-y,z
x,1/4-y,1/4-z
1/4-x,y,1/4-z
-x,-y,-z
3/4+x,3/4+y,-z
-x,3/4+y,3/4+z
3/4+x,-y,3/4+z
x,1/2+y,1/2+z
1/4-x,3/4-y,1/2+z
x,3/4-y,3/4-z
1/4-x,1/2+y,3/4-z
-x,1/2-y,1/2-z
3/4+x,1/4+y,1/2-z
-x,1/4+y,1/4+z
3/4+x,1/2-y,1/4+z
1/2+x,y,1/2+z
3/4-x,1/4-y,1/2+z
1/2+x,1/4-y,3/4-z
3/4-x,y,3/4-z
1/2-x,-y,1/2-z
1/4+x,3/4+y,1/2-z
1/2-x,3/4+y,1/4+z
1/4+x,-y,1/4+z
1/2+x,1/2+y,z
3/4-x,3/4-y,z
1/2+x,3/4-y,1/4-z
3/4-x,1/2+y,1/4-z
1/2-x,1/2-y,-z
1/4+x,1/4+y,-z
1/2-x,1/4+y,3/4+z
1/4+x,1/2-y,3/4+z
loop_
_atom_site_type_symbol
_atom_site_label
_atom_site_fract_x
_atom_site_fract_y
_atom_site_fract_z
Si Si1 0.992225 0.722403 0.981525
Si Si2 0.187545 0.360422 0.516036
Si Si3 0.675789 0.202175 0.899886
Si Si4 0.808649 0.924906 0.024307
Si Si5 0.927768 0.298882 0.820439
O O1 0.061127 0.716981 0.926299
O O2 0.926724 0.670556 0.986945
O O3 0.084297 0.719630 0.029006
O O4 0.926892 0.774113 0.988906
O O5 0.264695 0.342645 0.566114
O O6 0.248303 0.337866 0.463103
O O7 0.069286 0.337108 0.521542
O O8 0.665420 0.188010 0.837120
O O9 0.752270 0.250600 0.910805
O O10 0.875000 0.875000 0.007548
O O11 0.875000 0.319843 0.875000
#
# Coordination Sequence:
#
# PCOD9516486 Si02
#       5
#    32  32  32  32  32
#     4  11  22  37  59  92 123 165 205 261 323 374
#     4  11  22  37  59  91 131 161 203 269 321 373
#     4  11  19  39  63  92 125 161 209 266 321 372
#     4  12  24  40  61  88 124 172 219 257 310 381
#     4  11  18  35  62  93 128 156 200 262 330 371
#
# _framework density 20.047899999999998
#
# number of rings (size 3 to 8) (size 9 to 14) (size 15 to 20)
#    0.000    0.800    6.000    5.400    0.000    2.400 
#    0.000    0.000    0.000    0.000    0.000    2.800 
#    0.000    0.000    0.000    0.000    0.000    0.000 
#
# Total GULP energy -223687.970672 kJ/mol
# GULP energy per Si atom -5592.199267 kJ/mol
# Density = 2.000227 g / cm^3
# Si number density = 20.047900 Si / 1000 Ang^3
#
#
#
# Elastic Constant Matrix: (Units=GPa)
#
#
# Indices 1 2 3 4 5 6 
#
# 1 21.0264 18.3334 32.4918 0.0000 0.0000 0.0000
# 2 18.3334 178.7607 35.6292 0.0000 0.0000 0.0000
# 3 32.4918 35.6292 78.5762 0.0000 0.0000 0.0000
# 4 0.0000 0.0000 0.0000 0.4924 0.0000 0.0000
# 5 0.0000 0.0000 0.0000 0.0000 21.2583 0.0000
# 6 0.0000 0.0000 0.0000 0.0000 0.0000 35.0994
#
#
#
# Elastic Compliance Matrix: (Units=1/GPa)
#
#
# Indices 1 2 3 4 5 6 
#
# 1 0.133138 -0.002948 -0.053717 0.000000 0.000000 0.000000
# 2 -0.002948 0.006215 -0.001599 0.000000 0.000000 0.000000
# 3 -0.053717 -0.001599 0.035664 0.000000 0.000000 0.000000
# 4 0.000000 0.000000 0.000000 2.030722 0.000000 0.000000
# 5 0.000000 0.000000 0.000000 0.000000 0.047040 0.000000
# 6 0.000000 0.000000 0.000000 0.000000 0.000000 0.028491
#
#
# Mechanical properties :
#
#
# Convention : Reuss Voigt Hill
#
# Bulk Modulus (GPa) = 17.09724 50.14134 33.61929
# Shear Modulus (GPa) = 2.06843 24.16395 13.11619
#
# Velocity S-wave (km/s) = 1.01685 3.47552 2.56059
# Velocity P-wave (km/s) = 3.15045 6.41644 5.05451
#
# Compressibility (1/GPa) = 0.05848899
#
# Stress axis : x y z
#
# Youngs Moduli (GPa) = 7.51103 160.89734 28.03961
#
# Poissons Ratio (x) = 0.47433 1.50619
# Poissons Ratio (y) = 0.02214 0.04484
# Poissons Ratio (z) = 0.40347 0.25730
#
# Static dielectric constant tensor:
#      x y z
#    x 0.588700 0.000000 0.000000 
#    y 0.000000 1.776630 0.000000 
#    z 0.000000 0.000000 1.696590 
# 
# From -- ./inp_files/20846.got.cif
#   From: 2010.05.17/outbox.cif.g08.bks.cpg/sg70_11_cif.got.tgz:20846.got - 2010.06.03 15:57:51.
