data_PCOD9516805
_publ_section_title
;
Structure prediction by ZEFSAII (Michael W. Deem and Ramdas Pophale) SiO2 
 PCOD9516805
Probable space group: F D D D
;
_chemical_formula_sum "Si O2"
_cell_formula_units_Z 176
_cell_length_a 25.741121
_cell_length_b 11.552966
_cell_length_c 26.563936
_cell_angle_alpha 90.000000
_cell_angle_beta 90.000000
_cell_angle_gamma 90.000000
_cell_volume 7899.750527
_symmetry_space_group_name_H-M "F D D D"
_symmetry_group_IT_number 70
_space_group.IT_coordinate_system_code '2'
_symmetry_cell_setting 'orthorhombic'
loop_
_space_group_symop_operation_xyz
x,y,z
1/4-x,1/4-y,z
x,1/4-y,1/4-z
1/4-x,y,1/4-z
-x,-y,-z
3/4+x,3/4+y,-z
-x,3/4+y,3/4+z
3/4+x,-y,3/4+z
x,1/2+y,1/2+z
1/4-x,3/4-y,1/2+z
x,3/4-y,3/4-z
1/4-x,1/2+y,3/4-z
-x,1/2-y,1/2-z
3/4+x,1/4+y,1/2-z
-x,1/4+y,1/4+z
3/4+x,1/2-y,1/4+z
1/2+x,y,1/2+z
3/4-x,1/4-y,1/2+z
1/2+x,1/4-y,3/4-z
3/4-x,y,3/4-z
1/2-x,-y,1/2-z
1/4+x,3/4+y,1/2-z
1/2-x,3/4+y,1/4+z
1/4+x,-y,1/4+z
1/2+x,1/2+y,z
3/4-x,3/4-y,z
1/2+x,3/4-y,1/4-z
3/4-x,1/2+y,1/4-z
1/2-x,1/2-y,-z
1/4+x,1/4+y,-z
1/2-x,1/4+y,3/4+z
1/4+x,1/2-y,3/4+z
loop_
_atom_site_type_symbol
_atom_site_label
_atom_site_fract_x
_atom_site_fract_y
_atom_site_fract_z
Si Si1 0.838457 0.264577 0.800266
Si Si2 0.256706 0.724435 0.275393
Si Si3 0.026927 0.778448 0.802487
Si Si4 0.735450 0.836434 0.623095
Si Si5 0.612225 0.825659 0.976206
Si Si6 0.437426 0.125000 0.125000
O O1 0.875000 0.375000 0.805724
O O2 0.787244 0.297441 0.766789
O O3 0.817123 0.213081 0.852553
O O4 0.866809 0.163997 0.768422
O O5 0.236062 0.835286 0.306927
O O6 0.265006 0.621159 0.314876
O O7 0.312601 0.741497 0.248712
O O8 0.087874 0.756508 0.794020
O O9 0.000000 0.750000 0.750000
O O10 0.002337 0.697732 0.844493
O O11 0.777455 0.737205 0.631416
O O12 0.594294 0.892408 0.926088
#
# Coordination Sequence:
#
# PCOD9516805 Si02
#       6
#    32  32  32  32  32  16
#     4  11  25  48  70 104 149 195 240 308 360 439
#     4  11  25  47  74 107 146 187 244 307 365 441
#     4  11  23  50  74 105 145 189 240 304 366 429
#     4  12  26  47  73 105 147 193 244 301 365 438
#     4  11  25  46  73 105 142 188 242 297 368 430
#     4  12  26  44  71 108 142 199 242 296 368 436
#
# _framework density 22.279184999999998
#
# number of rings (size 3 to 8) (size 9 to 14) (size 15 to 20)
#    0.000    0.727    5.455    1.636    7.636    5.091 
#    0.000    0.000    4.000    0.000    0.000    0.000 
#    0.000    0.000    0.000    0.000    0.000    0.000 
#
# Total GULP energy -246209.063313 kJ/mol
# GULP energy per Si atom -5595.660530 kJ/mol
# Density = 2.222848 g / cm^3
# Si number density = 22.279185 Si / 1000 Ang^3
#
#
#
# Elastic Constant Matrix: (Units=GPa)
#
#
# Indices 1 2 3 4 5 6 
#
# 1 159.0157 35.7188 32.5798 0.0000 0.0000 0.0000
# 2 35.7188 64.9068 21.0484 0.0000 0.0000 0.0000
# 3 32.5798 21.0484 74.5869 0.0000 0.0000 0.0000
# 4 0.0000 0.0000 0.0000 39.4714 0.0000 0.0000
# 5 0.0000 0.0000 0.0000 0.0000 38.8195 0.0000
# 6 0.0000 0.0000 0.0000 0.0000 0.0000 30.7587
#
#
#
# Elastic Compliance Matrix: (Units=1/GPa)
#
#
# Indices 1 2 3 4 5 6 
#
# 1 0.007527 -0.003386 -0.002332 0.000000 0.000000 0.000000
# 2 -0.003386 0.018482 -0.003737 0.000000 0.000000 0.000000
# 3 -0.002332 -0.003737 0.015480 0.000000 0.000000 0.000000
# 4 0.000000 0.000000 0.000000 0.025335 0.000000 0.000000
# 5 0.000000 0.000000 0.000000 0.000000 0.025760 0.000000
# 6 0.000000 0.000000 0.000000 0.000000 0.000000 0.032511
#
#
# Mechanical properties :
#
#
# Convention : Reuss Voigt Hill
#
# Bulk Modulus (GPa) = 44.28777 53.02259 48.65518
# Shear Modulus (GPa) = 32.99643 35.75408 34.37526
#
# Velocity S-wave (km/s) = 3.85261 4.01037 3.93228
# Velocity P-wave (km/s) = 6.30173 6.73015 6.51946
#
# Compressibility (1/GPa) = 0.02257960
#
# Stress axis : x y z
#
# Youngs Moduli (GPa) = 132.85324 54.10756 64.59774
#
# Poissons Ratio (x) = 0.18320 0.15067
# Poissons Ratio (y) = 0.44982 0.24137
# Poissons Ratio (z) = 0.30986 0.20218
#
# Static dielectric constant tensor:
#      x y z
#    x 1.912870 0.000000 0.000000 
#    y 0.000000 1.762530 0.000000 
#    z 0.000000 0.000000 1.816680 
# 
# From -- ./inp_files/61654.got.cif
#   From: 2010.05.17/outbox.cif.g08.bks.cpg/sg70_31_cif.got.tgz:61654.got - 2010.06.03 15:57:51.
