data_PCOD9516071
_publ_section_title
;
Structure prediction by ZEFSAII (Michael W. Deem and Ramdas Pophale) SiO2 
 PCOD9516071
Probable space group: F D D D
;
_chemical_formula_sum "Si O2"
_cell_formula_units_Z 136
_cell_length_a 20.649613
_cell_length_b 26.683467
_cell_length_c 10.900141
_cell_angle_alpha 90.000000
_cell_angle_beta 90.000000
_cell_angle_gamma 90.000000
_cell_volume 6006.013302
_symmetry_space_group_name_H-M "F D D D"
_symmetry_group_IT_number 70
_space_group.IT_coordinate_system_code '2'
_symmetry_cell_setting 'orthorhombic'
loop_
_space_group_symop_operation_xyz
x,y,z
1/4-x,1/4-y,z
x,1/4-y,1/4-z
1/4-x,y,1/4-z
-x,-y,-z
3/4+x,3/4+y,-z
-x,3/4+y,3/4+z
3/4+x,-y,3/4+z
x,1/2+y,1/2+z
1/4-x,3/4-y,1/2+z
x,3/4-y,3/4-z
1/4-x,1/2+y,3/4-z
-x,1/2-y,1/2-z
3/4+x,1/4+y,1/2-z
-x,1/4+y,1/4+z
3/4+x,1/2-y,1/4+z
1/2+x,y,1/2+z
3/4-x,1/4-y,1/2+z
1/2+x,1/4-y,3/4-z
3/4-x,y,3/4-z
1/2-x,-y,1/2-z
1/4+x,3/4+y,1/2-z
1/2-x,3/4+y,1/4+z
1/4+x,-y,1/4+z
1/2+x,1/2+y,z
3/4-x,3/4-y,z
1/2+x,3/4-y,1/4-z
3/4-x,1/2+y,1/4-z
1/2-x,1/2-y,-z
1/4+x,1/4+y,-z
1/2-x,1/4+y,3/4+z
1/4+x,1/2-y,3/4+z
loop_
_atom_site_type_symbol
_atom_site_label
_atom_site_fract_x
_atom_site_fract_y
_atom_site_fract_z
Si Si1 0.318331 0.670558 0.793849
Si Si2 0.045153 0.813367 0.765968
Si Si3 0.653815 0.707994 0.002356
Si Si4 0.545371 0.547753 0.455054
Si Si5 0.375000 0.875000 0.875000
O O1 0.375000 0.694995 0.875000
O O2 0.334790 0.613081 0.763259
O O3 0.300364 0.694483 0.663303
O O4 0.256219 0.671174 0.878006
O O5 0.071541 0.763033 0.708606
O O6 0.970924 0.820025 0.723864
O O7 0.603054 0.714495 0.892061
O O8 0.625000 0.684074 0.125000
O O9 0.500000 0.500000 0.500000
O O10 0.578574 0.585710 0.551717
#
# Coordination Sequence:
#
# PCOD9516071 Si02
#       5
#    32  32  32  32   8
#     4  11  23  43  65 103 139 190 244 306 379 463
#     4  10  23  39  68 102 141 181 243 312 375 459
#     4  11  22  43  70 103 140 192 248 309 387 466
#     4  12  28  47  79 107 156 205 259 330 399 484
#     4  12  32  52  74 116 156 212 268 320 412 474
#
# _framework density 22.643972999999999
#
# number of rings (size 3 to 8) (size 9 to 14) (size 15 to 20)
#    0.000    0.941    2.353    3.529    4.941    5.647 
#    0.000    0.000    0.000    0.000    0.000    0.000 
#    0.000    0.000    0.000    0.000    0.000    0.000 
#
# Total GULP energy -189620.316627 kJ/mol
# GULP energy per Si atom -5577.068136 kJ/mol
# Density = 2.259243 g / cm^3
# Si number density = 22.643973 Si / 1000 Ang^3
#
#
#
# Elastic Constant Matrix: (Units=GPa)
#
#
# Indices 1 2 3 4 5 6 
#
# 1 153.6911 22.0719 74.4822 0.0000 0.0000 0.0000
# 2 22.0719 98.3863 33.1405 0.0000 0.0000 0.0000
# 3 74.4822 33.1405 111.9393 0.0000 0.0000 0.0000
# 4 0.0000 0.0000 0.0000 9.7980 0.0000 0.0000
# 5 0.0000 0.0000 0.0000 0.0000 60.5445 0.0000
# 6 0.0000 0.0000 0.0000 0.0000 0.0000 26.4871
#
#
#
# Elastic Compliance Matrix: (Units=1/GPa)
#
#
# Indices 1 2 3 4 5 6 
#
# 1 0.009603 -0.000002 -0.006389 0.000000 0.000000 0.000000
# 2 -0.000002 0.011290 -0.003341 0.000000 0.000000 0.000000
# 3 -0.006389 -0.003341 0.014174 0.000000 0.000000 0.000000
# 4 0.000000 0.000000 0.000000 0.102061 0.000000 0.000000
# 5 0.000000 0.000000 0.000000 0.000000 0.016517 0.000000
# 6 0.000000 0.000000 0.000000 0.000000 0.000000 0.037754
#
#
# Mechanical properties :
#
#
# Convention : Reuss Voigt Hill
#
# Bulk Modulus (GPa) = 64.09371 69.26733 66.68052
# Shear Modulus (GPa) = 23.14123 34.98740 29.06432
#
# Velocity S-wave (km/s) = 3.20028 3.93505 3.58653
# Velocity P-wave (km/s) = 6.48245 7.16256 6.83098
#
# Compressibility (1/GPa) = 0.01560215
#
# Stress axis : x y z
#
# Youngs Moduli (GPa) = 104.13209 88.57479 70.55318
#
# Poissons Ratio (x) = 0.00020 0.45077
# Poissons Ratio (y) = 0.00024 0.23571
# Poissons Ratio (z) = 0.66531 0.29592
#
# Static dielectric constant tensor:
#      x y z
#    x 1.873510 0.000000 0.000000 
#    y 0.000000 1.881960 0.000000 
#    z 0.000000 0.000000 1.916860 
# 
# From -- ./inp_files/17847.got.cif
#   From: 2010.05.17/outbox.cif.g08.bks.cpg/sg70_9_cif.got.tgz:17847.got - 2010.06.03 15:57:51.
