data_PCOD9516078
_publ_section_title
;
Structure prediction by ZEFSAII (Michael W. Deem and Ramdas Pophale) SiO2 
 PCOD9516078
Probable space group: F D D D
;
_chemical_formula_sum "Si O2"
_cell_formula_units_Z 176
_cell_length_a 24.030363
_cell_length_b 25.659729
_cell_length_c 11.755890
_cell_angle_alpha 90.000000
_cell_angle_beta 90.000000
_cell_angle_gamma 90.000000
_cell_volume 7248.829926
_symmetry_space_group_name_H-M "F D D D"
_symmetry_group_IT_number 70
_space_group.IT_coordinate_system_code '2'
_symmetry_cell_setting 'orthorhombic'
loop_
_space_group_symop_operation_xyz
x,y,z
1/4-x,1/4-y,z
x,1/4-y,1/4-z
1/4-x,y,1/4-z
-x,-y,-z
3/4+x,3/4+y,-z
-x,3/4+y,3/4+z
3/4+x,-y,3/4+z
x,1/2+y,1/2+z
1/4-x,3/4-y,1/2+z
x,3/4-y,3/4-z
1/4-x,1/2+y,3/4-z
-x,1/2-y,1/2-z
3/4+x,1/4+y,1/2-z
-x,1/4+y,1/4+z
3/4+x,1/2-y,1/4+z
1/2+x,y,1/2+z
3/4-x,1/4-y,1/2+z
1/2+x,1/4-y,3/4-z
3/4-x,y,3/4-z
1/2-x,-y,1/2-z
1/4+x,3/4+y,1/2-z
1/2-x,3/4+y,1/4+z
1/4+x,-y,1/4+z
1/2+x,1/2+y,z
3/4-x,3/4-y,z
1/2+x,3/4-y,1/4-z
3/4-x,1/2+y,1/4-z
1/2-x,1/2-y,-z
1/4+x,1/4+y,-z
1/2-x,1/4+y,3/4+z
1/4+x,1/2-y,3/4+z
loop_
_atom_site_type_symbol
_atom_site_label
_atom_site_fract_x
_atom_site_fract_y
_atom_site_fract_z
Si Si1 0.021252 0.875000 0.375000
Si Si2 0.960425 0.761403 0.628092
Si Si3 0.440076 0.458236 0.368731
Si Si4 0.388206 0.933093 0.240966
Si Si5 0.189503 0.921703 0.105458
Si Si6 0.518050 0.937067 0.197470
O O1 0.055064 0.906363 0.279207
O O2 0.979019 0.832788 0.317934
O O3 0.954714 0.797828 0.514095
O O4 0.905021 0.775975 0.692007
O O5 0.021965 0.782064 0.660440
O O6 0.961484 0.704357 0.573651
O O7 0.375000 0.449000 0.375000
O O8 0.455610 0.518879 0.385932
O O9 0.375000 0.931992 0.375000
O O10 0.375000 0.875000 0.197074
O O11 0.451664 0.944161 0.207438
O O12 0.125000 0.932531 0.125000
O O13 0.211286 0.869575 0.166962
#
# Coordination Sequence:
#
# PCOD9516078 Si02
#       6
#    16  32  32  32  32  32
#     4  10  23  40  64 102 130 189 226 274 354 406
#     4   9  23  43  64 102 130 179 233 277 357 410
#     4   9  20  38  63 102 132 170 223 282 349 413
#     4  11  23  43  70  96 136 184 237 288 340 418
#     4  11  23  44  66  96 148 178 225 294 348 413
#     4  10  23  41  68 101 128 185 227 283 353 409
#
# _framework density 24.279781
#
# number of rings (size 3 to 8) (size 9 to 14) (size 15 to 20)
#    1.091    0.909    1.818    0.818    2.545    3.636 
#    3.273    0.000    0.000    0.000    0.000    0.000 
#    0.000    0.000    0.000    0.000    0.000    0.000 
#
# Total GULP energy -245641.078534 kJ/mol
# GULP energy per Si atom -5582.751785 kJ/mol
# Density = 2.422452 g / cm^3
# Si number density = 24.279781 Si / 1000 Ang^3
#
#
#
# Elastic Constant Matrix: (Units=GPa)
#
#
# Indices 1 2 3 4 5 6 
#
# 1 154.9162 15.4208 10.2118 0.0000 0.0000 0.0000
# 2 15.4208 90.0787 -1.1677 0.0000 0.0000 0.0000
# 3 10.2118 -1.1677 16.1303 0.0001 -0.0001 0.0000
# 4 0.0000 0.0000 0.0001 37.0968 0.0000 0.0000
# 5 0.0000 0.0000 -0.0001 0.0000 17.6472 0.0000
# 6 0.0000 0.0000 0.0000 0.0000 0.0000 43.1321
#
#
#
# Elastic Compliance Matrix: (Units=1/GPa)
#
#
# Indices 1 2 3 4 5 6 
#
# 1 0.006871 -0.001234 -0.004439 0.000000 0.000000 0.000000
# 2 -0.001234 0.011333 0.001601 0.000000 0.000000 0.000000
# 3 -0.004439 0.001601 0.064921 0.000000 0.000000 0.000000
# 4 0.000000 0.000000 0.000000 0.026956 0.000000 0.000000
# 5 0.000000 0.000000 0.000000 0.000000 0.056666 0.000000
# 6 0.000000 0.000000 0.000000 0.000000 0.000000 0.023185
#
#
# Mechanical properties :
#
#
# Convention : Reuss Voigt Hill
#
# Bulk Modulus (GPa) = 13.33636 34.45056 23.89346
# Shear Modulus (GPa) = 22.41456 35.35257 28.88356
#
# Velocity S-wave (km/s) = 3.04168 3.81996 3.45282
# Velocity P-wave (km/s) = 4.22380 5.80310 5.07525
#
# Compressibility (1/GPa) = 0.07498297
#
# Stress axis : x y z
#
# Youngs Moduli (GPa) = 145.54945 88.23500 15.40323
#
# Poissons Ratio (x) = 0.10886 0.06837
# Poissons Ratio (y) = 0.17957 -0.02467
# Poissons Ratio (z) = 0.64609 -0.14131
#
# Static dielectric constant tensor:
#      x y z
#    x 1.977110 0.000000 0.000000 
#    y 0.000000 1.920840 0.000000 
#    z 0.000000 0.000000 2.110830 
# 
# From -- ./inp_files/19628.got.cif
#   From: 2010.05.17/outbox.cif.g08.bks.cpg/sg70_10_cif.got.tgz:19628.got - 2010.06.03 15:57:51.
