data_PCOD9516608
_publ_section_title
;
Structure prediction by ZEFSAII (Michael W. Deem and Ramdas Pophale) SiO2 
 PCOD9516608
Probable space group: F D D D
;
_chemical_formula_sum "Si O2"
_cell_formula_units_Z 136
_cell_length_a 20.877586
_cell_length_b 12.668542
_cell_length_c 20.709634
_cell_angle_alpha 90.000000
_cell_angle_beta 90.000000
_cell_angle_gamma 90.000000
_cell_volume 5477.461587
_symmetry_space_group_name_H-M "F D D D"
_symmetry_group_IT_number 70
_space_group.IT_coordinate_system_code '2'
_symmetry_cell_setting 'orthorhombic'
loop_
_space_group_symop_operation_xyz
x,y,z
1/4-x,1/4-y,z
x,1/4-y,1/4-z
1/4-x,y,1/4-z
-x,-y,-z
3/4+x,3/4+y,-z
-x,3/4+y,3/4+z
3/4+x,-y,3/4+z
x,1/2+y,1/2+z
1/4-x,3/4-y,1/2+z
x,3/4-y,3/4-z
1/4-x,1/2+y,3/4-z
-x,1/2-y,1/2-z
3/4+x,1/4+y,1/2-z
-x,1/4+y,1/4+z
3/4+x,1/2-y,1/4+z
1/2+x,y,1/2+z
3/4-x,1/4-y,1/2+z
1/2+x,1/4-y,3/4-z
3/4-x,y,3/4-z
1/2-x,-y,1/2-z
1/4+x,3/4+y,1/2-z
1/2-x,3/4+y,1/4+z
1/4+x,-y,1/4+z
1/2+x,1/2+y,z
3/4-x,3/4-y,z
1/2+x,3/4-y,1/4-z
3/4-x,1/2+y,1/4-z
1/2-x,1/2-y,-z
1/4+x,1/4+y,-z
1/2-x,1/4+y,3/4+z
1/4+x,1/2-y,3/4+z
loop_
_atom_site_type_symbol
_atom_site_label
_atom_site_fract_x
_atom_site_fract_y
_atom_site_fract_z
Si Si1 0.411257 0.984090 0.649567
Si Si2 0.361008 0.568020 0.281179
Si Si3 0.625000 0.625000 0.625000
Si Si4 0.044925 0.944579 0.315905
Si Si5 0.767706 0.175545 0.439768
O O1 0.375000 0.875000 0.660008
O O2 0.482332 0.975094 0.622296
O O3 0.403490 0.035611 0.718832
O O4 0.366663 0.030880 0.592239
O O5 0.348464 0.464452 0.323906
O O6 0.300005 0.623894 0.248150
O O7 0.407014 0.653981 0.314522
O O8 0.016391 0.875000 0.375000
O O9 0.012196 0.056974 0.306531
O O10 0.750000 0.250000 0.500000
#
# Coordination Sequence:
#
# PCOD9516608 Si02
#       5
#    32  32   8  32  32
#     4   9  18  40  63  89 126 170 215 269 335 406
#     4  11  23  42  62  91 137 176 224 285 338 402
#     4  12  28  44  60  94 136 188 228 286 330 392
#     4   9  20  39  66  96 132 178 222 276 342 412
#     4  11  22  36  68 104 129 168 230 283 341 413
#
# _framework density 24.829018999999999
#
# number of rings (size 3 to 8) (size 9 to 14) (size 15 to 20)
#    0.000    1.882    3.529    0.000    1.647    1.882 
#    0.000    2.353    0.000    0.000    0.000    0.000 
#    0.000    0.000    0.000    0.000    0.000    0.000 
#
# Total GULP energy -189767.882404 kJ/mol
# GULP energy per Si atom -5581.408306 kJ/mol
# Density = 2.477251 g / cm^3
# Si number density = 24.829019 Si / 1000 Ang^3
#
#
#
# Elastic Constant Matrix: (Units=GPa)
#
#
# Indices 1 2 3 4 5 6 
#
# 1 54.5196 19.9809 60.9025 0.0000 0.0000 0.0000
# 2 19.9809 144.4971 68.0989 0.0000 0.0000 0.0000
# 3 60.9025 68.0989 153.8386 0.0000 0.0000 0.0000
# 4 0.0000 0.0000 0.0000 64.8665 0.0000 0.0000
# 5 0.0000 0.0000 0.0000 0.0000 41.5889 0.0000
# 6 0.0000 0.0000 0.0000 0.0000 0.0000 18.4347
#
#
#
# Elastic Compliance Matrix: (Units=1/GPa)
#
#
# Indices 1 2 3 4 5 6 
#
# 1 0.033352 0.002035 -0.014105 0.000000 0.000000 0.000000
# 2 0.002035 0.008869 -0.004732 0.000000 0.000000 0.000000
# 3 -0.014105 -0.004732 0.014179 0.000000 0.000000 0.000000
# 4 0.000000 0.000000 0.000000 0.015416 0.000000 0.000000
# 5 0.000000 0.000000 0.000000 0.000000 0.024045 0.000000
# 6 0.000000 0.000000 0.000000 0.000000 0.000000 0.054246
#
#
# Mechanical properties :
#
#
# Convention : Reuss Voigt Hill
#
# Bulk Modulus (GPa) = 43.86400 72.31333 58.08866
# Shear Modulus (GPa) = 26.13591 38.56954 32.35272
#
# Velocity S-wave (km/s) = 3.24795 3.94560 3.61365
# Velocity P-wave (km/s) = 5.63652 7.06716 6.39199
#
# Compressibility (1/GPa) = 0.02279774
#
# Stress axis : x y z
#
# Youngs Moduli (GPa) = 29.98331 112.75070 70.52836
#
# Poissons Ratio (x) = -0.22948 0.99477
# Poissons Ratio (y) = -0.06103 0.33373
# Poissons Ratio (z) = 0.42290 0.53351
#
# Static dielectric constant tensor:
#      x y z
#    x 2.093280 0.000000 0.000000 
#    y 0.000000 1.842610 0.000000 
#    z 0.000000 0.000000 2.034730 
# 
# From -- ./inp_files/53525.got.cif
#   From: 2010.05.17/outbox.cif.g08.bks.cpg/sg70_27_cif.got.tgz:53525.got - 2010.06.03 15:57:51.
