data_PCOD9516755
_publ_section_title
;
Structure prediction by ZEFSAII (Michael W. Deem and Ramdas Pophale) SiO2 
 PCOD9516755
Probable space group: F D D D
;
_chemical_formula_sum "Si O2"
_cell_formula_units_Z 112
_cell_length_a 28.412865
_cell_length_b 15.524539
_cell_length_c 10.663713
_cell_angle_alpha 90.000000
_cell_angle_beta 90.000000
_cell_angle_gamma 90.000000
_cell_volume 4703.727876
_symmetry_space_group_name_H-M "F D D D"
_symmetry_group_IT_number 70
_space_group.IT_coordinate_system_code '2'
_symmetry_cell_setting 'orthorhombic'
loop_
_space_group_symop_operation_xyz
x,y,z
1/4-x,1/4-y,z
x,1/4-y,1/4-z
1/4-x,y,1/4-z
-x,-y,-z
3/4+x,3/4+y,-z
-x,3/4+y,3/4+z
3/4+x,-y,3/4+z
x,1/2+y,1/2+z
1/4-x,3/4-y,1/2+z
x,3/4-y,3/4-z
1/4-x,1/2+y,3/4-z
-x,1/2-y,1/2-z
3/4+x,1/4+y,1/2-z
-x,1/4+y,1/4+z
3/4+x,1/2-y,1/4+z
1/2+x,y,1/2+z
3/4-x,1/4-y,1/2+z
1/2+x,1/4-y,3/4-z
3/4-x,y,3/4-z
1/2-x,-y,1/2-z
1/4+x,3/4+y,1/2-z
1/2-x,3/4+y,1/4+z
1/4+x,-y,1/4+z
1/2+x,1/2+y,z
3/4-x,3/4-y,z
1/2+x,3/4-y,1/4-z
3/4-x,1/2+y,1/4-z
1/2-x,1/2-y,-z
1/4+x,1/4+y,-z
1/2-x,1/4+y,3/4+z
1/4+x,1/2-y,3/4+z
loop_
_atom_site_type_symbol
_atom_site_label
_atom_site_fract_x
_atom_site_fract_y
_atom_site_fract_z
Si Si1 0.926508 0.385134 0.024261
Si Si2 0.209810 0.295335 0.782363
Si Si3 0.125000 0.880477 0.125000
Si Si4 0.448772 0.036104 0.178263
O O1 0.875000 0.375000 0.077486
O O2 0.952032 0.302034 0.082262
O O3 0.935766 0.483705 0.054619
O O4 0.927589 0.375000 0.875000
O O5 0.212498 0.375000 0.875000
O O6 0.164793 0.323218 0.696377
O O7 0.261796 0.279189 0.728309
O O8 0.093706 0.937398 0.226126
O O9 0.469586 0.125000 0.125000
#
# Coordination Sequence:
#
# PCOD9516755 Si02
#       4
#    32  32  16  32
#     4  11  23  43  71  99 136 191 248 306 378 457
#     4  12  27  47  72 107 151 200 257 323 396 472
#     4  12  26  50  78 110 160 206 254 332 398 458
#     4  12  27  47  74 110 152 201 261 324 389 468
#
# _framework density 23.810901999999999
#
# number of rings (size 3 to 8) (size 9 to 14) (size 15 to 20)
#    0.000    0.286    0.000   10.286    0.000   10.286 
#    0.000    2.857    0.000    0.000    0.000    0.000 
#    0.000    0.000    0.000    0.000    0.000    0.000 
#
# Total GULP energy -156060.180288 kJ/mol
# GULP energy per Si atom -5573.577867 kJ/mol
# Density = 2.375671 g / cm^3
# Si number density = 23.810902 Si / 1000 Ang^3
#
#
#
# Elastic Constant Matrix: (Units=GPa)
#
#
# Indices 1 2 3 4 5 6 
#
# 1 102.1809 28.1441 47.7770 0.0000 0.0000 0.0000
# 2 28.1441 197.5879 71.6675 0.0000 0.0000 0.0000
# 3 47.7770 71.6675 83.6148 0.0000 0.0000 0.0000
# 4 0.0000 0.0000 0.0000 64.8354 0.0000 0.0000
# 5 0.0000 0.0000 0.0000 0.0000 -37.0982 0.0000
# 6 0.0000 0.0000 0.0000 0.0000 0.0000 73.4466
#
#
#
# Elastic Compliance Matrix: (Units=1/GPa)
#
#
# Indices 1 2 3 4 5 6 
#
# 1 0.013573 0.001277 -0.008850 0.000000 0.000000 0.000000
# 2 0.001277 0.007464 -0.007127 0.000000 0.000000 0.000000
# 3 -0.008850 -0.007127 0.023125 0.000000 0.000000 0.000000
# 4 0.000000 0.000000 0.000000 0.015424 0.000000 0.000000
# 5 0.000000 0.000000 0.000000 0.000000 -0.026955 0.000000
# 6 0.000000 0.000000 0.000000 0.000000 0.000000 0.013615
#
#
# Mechanical properties :
#
#
# Convention : Reuss Voigt Hill
#
# Bulk Modulus (GPa) = 67.74281 75.39564 71.56923
# Shear Modulus (GPa) = 62.06053 35.95642 49.00847
#
# Velocity S-wave (km/s) = 5.11082 3.89019 4.54170
# Velocity P-wave (km/s) = 7.95861 7.20494 7.59113
#
# Compressibility (1/GPa) = 0.01476171
#
# Stress axis : x y z
#
# Youngs Moduli (GPa) = 73.67703 133.97053 43.24328
#
# Poissons Ratio (x) = -0.17102 0.38268
# Poissons Ratio (y) = -0.09405 0.30820
# Poissons Ratio (z) = 0.65201 0.95483
#
# Static dielectric constant tensor:
#      x y z
#    x 2.063700 0.000000 0.000000 
#    y 0.000000 1.723980 0.000000 
#    z 0.000000 0.000000 2.104940 
# 
# From -- ./inp_files/21739.got.cif
#   From: 2010.05.17/outbox.cif.g08.bks.cpg/sg70_11_cif.got.tgz:21739.got - 2010.06.03 15:57:51.
