data_PCOD9516847
_publ_section_title
;
Structure prediction by ZEFSAII (Michael W. Deem and Ramdas Pophale) SiO2 
 PCOD9516847
Probable space group: F D D D
;
_chemical_formula_sum "Si O2"
_cell_formula_units_Z 136
_cell_length_a 24.008950
_cell_length_b 11.313762
_cell_length_c 20.727419
_cell_angle_alpha 90.000000
_cell_angle_beta 90.000000
_cell_angle_gamma 90.000000
_cell_volume 5630.220871
_symmetry_space_group_name_H-M "F D D D"
_symmetry_group_IT_number 70
_space_group.IT_coordinate_system_code '2'
_symmetry_cell_setting 'orthorhombic'
loop_
_space_group_symop_operation_xyz
x,y,z
1/4-x,1/4-y,z
x,1/4-y,1/4-z
1/4-x,y,1/4-z
-x,-y,-z
3/4+x,3/4+y,-z
-x,3/4+y,3/4+z
3/4+x,-y,3/4+z
x,1/2+y,1/2+z
1/4-x,3/4-y,1/2+z
x,3/4-y,3/4-z
1/4-x,1/2+y,3/4-z
-x,1/2-y,1/2-z
3/4+x,1/4+y,1/2-z
-x,1/4+y,1/4+z
3/4+x,1/2-y,1/4+z
1/2+x,y,1/2+z
3/4-x,1/4-y,1/2+z
1/2+x,1/4-y,3/4-z
3/4-x,y,3/4-z
1/2-x,-y,1/2-z
1/4+x,3/4+y,1/2-z
1/2-x,3/4+y,1/4+z
1/4+x,-y,1/4+z
1/2+x,1/2+y,z
3/4-x,3/4-y,z
1/2+x,3/4-y,1/4-z
3/4-x,1/2+y,1/4-z
1/2-x,1/2-y,-z
1/4+x,1/4+y,-z
1/2-x,1/4+y,3/4+z
1/4+x,1/2-y,3/4+z
loop_
_atom_site_type_symbol
_atom_site_label
_atom_site_fract_x
_atom_site_fract_y
_atom_site_fract_z
Si Si1 0.187293 0.261367 0.606396
Si Si2 0.591472 0.924402 0.968875
Si Si3 0.625000 0.125000 0.625000
Si Si4 0.184070 0.993121 0.245480
Si Si5 0.944683 0.938785 0.654617
O O1 0.125000 0.301626 0.625000
O O2 0.187867 0.270232 0.529991
O O3 0.240078 0.327660 0.636272
O O4 0.192576 0.125000 0.625000
O O5 0.560311 0.801872 0.951917
O O6 0.585838 0.013273 0.909510
O O7 0.653543 0.880652 0.988401
O O8 0.661002 0.048286 0.677646
O O9 0.172560 0.075281 0.308182
O O10 0.250000 0.000000 0.250000
#
# Coordination Sequence:
#
# PCOD9516847 Si02
#       5
#    32  32   8  32  32
#     4  11  24  44  71 113 148 198 246 312 392 456
#     4  11  24  48  73 109 162 186 255 329 375 465
#     4  12  28  52  72 112 166 192 274 332 378 500
#     4  12  28  51  80 112 152 215 262 322 405 474
#     4  11  24  46  77 111 149 199 254 314 390 465
#
# _framework density 24.155356999999999
#
# number of rings (size 3 to 8) (size 9 to 14) (size 15 to 20)
#    0.000    0.706    4.706    2.118    4.941    1.882 
#   16.941    2.353    0.000    0.000    0.000    0.000 
#    0.000    0.000    0.000    0.000    0.000    0.000 
#
# Total GULP energy -190089.526280 kJ/mol
# GULP energy per Si atom -5590.868420 kJ/mol
# Density = 2.410038 g / cm^3
# Si number density = 24.155357 Si / 1000 Ang^3
#
#
#
# Elastic Constant Matrix: (Units=GPa)
#
#
# Indices 1 2 3 4 5 6 
#
# 1 171.2131 10.6652 28.7751 0.0000 0.0000 0.0000
# 2 10.6652 65.5910 41.9762 0.0000 0.0000 0.0000
# 3 28.7751 41.9762 167.2653 0.0000 0.0000 0.0000
# 4 0.0000 0.0000 0.0000 25.7993 0.0000 0.0000
# 5 0.0000 0.0000 0.0000 0.0000 43.9243 0.0000
# 6 0.0000 0.0000 0.0000 0.0000 0.0000 10.4110
#
#
#
# Elastic Compliance Matrix: (Units=1/GPa)
#
#
# Indices 1 2 3 4 5 6 
#
# 1 0.006022 -0.000377 -0.000942 0.000000 0.000000 0.000000
# 2 -0.000377 0.018187 -0.004499 0.000000 0.000000 0.000000
# 3 -0.000942 -0.004499 0.007270 0.000000 0.000000 0.000000
# 4 0.000000 0.000000 0.000000 0.038761 0.000000 0.000000
# 5 0.000000 0.000000 0.000000 0.000000 0.022766 0.000000
# 6 0.000000 0.000000 0.000000 0.000000 0.000000 0.096052
#
#
# Mechanical properties :
#
#
# Convention : Reuss Voigt Hill
#
# Bulk Modulus (GPa) = 50.39384 62.98916 56.69150
# Shear Modulus (GPa) = 24.11873 37.53710 30.82792
#
# Velocity S-wave (km/s) = 3.16331 3.94634 3.57632
# Velocity P-wave (km/s) = 5.85232 6.84822 6.36976
#
# Compressibility (1/GPa) = 0.01984370
#
# Stress axis : x y z
#
# Youngs Moduli (GPa) = 166.04740 54.98544 137.55905
#
# Poissons Ratio (x) = 0.02071 0.12951
# Poissons Ratio (y) = 0.06255 0.61891
# Poissons Ratio (z) = 0.15633 0.24739
#
# Static dielectric constant tensor:
#      x y z
#    x 2.120500 0.000000 0.000000 
#    y 0.000000 1.919310 0.000000 
#    z 0.000000 0.000000 1.923050 
# 
# From -- ./inp_files/46645.got.cif
#   From: 2010.05.17/outbox.cif.g08.bks.cpg/sg70_24_cif.got.tgz:46645.got - 2010.06.03 15:57:51.
