data_PCOD9516669
_publ_section_title
;
Structure prediction by ZEFSAII (Michael W. Deem and Ramdas Pophale) SiO2 
 PCOD9516669
Probable space group: F D D D
;
_chemical_formula_sum "Si O2"
_cell_formula_units_Z 176
_cell_length_a 21.108772
_cell_length_b 12.107527
_cell_length_c 29.079122
_cell_angle_alpha 90.000000
_cell_angle_beta 90.000000
_cell_angle_gamma 90.000000
_cell_volume 7431.897388
_symmetry_space_group_name_H-M "F D D D"
_symmetry_group_IT_number 70
_space_group.IT_coordinate_system_code '2'
_symmetry_cell_setting 'orthorhombic'
loop_
_space_group_symop_operation_xyz
x,y,z
1/4-x,1/4-y,z
x,1/4-y,1/4-z
1/4-x,y,1/4-z
-x,-y,-z
3/4+x,3/4+y,-z
-x,3/4+y,3/4+z
3/4+x,-y,3/4+z
x,1/2+y,1/2+z
1/4-x,3/4-y,1/2+z
x,3/4-y,3/4-z
1/4-x,1/2+y,3/4-z
-x,1/2-y,1/2-z
3/4+x,1/4+y,1/2-z
-x,1/4+y,1/4+z
3/4+x,1/2-y,1/4+z
1/2+x,y,1/2+z
3/4-x,1/4-y,1/2+z
1/2+x,1/4-y,3/4-z
3/4-x,y,3/4-z
1/2-x,-y,1/2-z
1/4+x,3/4+y,1/2-z
1/2-x,3/4+y,1/4+z
1/4+x,-y,1/4+z
1/2+x,1/2+y,z
3/4-x,3/4-y,z
1/2+x,3/4-y,1/4-z
3/4-x,1/2+y,1/4-z
1/2-x,1/2-y,-z
1/4+x,1/4+y,-z
1/2-x,1/4+y,3/4+z
1/4+x,1/2-y,3/4+z
loop_
_atom_site_type_symbol
_atom_site_label
_atom_site_fract_x
_atom_site_fract_y
_atom_site_fract_z
Si Si1 0.259501 0.168766 0.429004
Si Si2 0.560510 0.805925 0.420415
Si Si3 0.199523 0.538836 0.695814
Si Si4 0.625000 0.915718 0.625000
Si Si5 0.058450 0.620685 0.796002
Si Si6 0.936889 0.615467 0.031851
O O1 0.316008 0.156353 0.392544
O O2 0.291690 0.154948 0.479441
O O3 0.224391 0.285415 0.433346
O O4 0.206546 0.073637 0.419419
O O5 0.581220 0.875000 0.375000
O O6 0.491665 0.857719 0.431217
O O7 0.612949 0.836454 0.458690
O O8 0.141191 0.499316 0.666342
O O9 0.180519 0.563513 0.747871
O O10 0.248447 0.438008 0.687494
O O11 0.125000 0.625000 0.822727
O O12 0.046071 0.492306 0.790575
#
# Coordination Sequence:
#
# PCOD9516669 Si02
#       6
#    32  32  32  16  32  32
#     4  11  26  46  72 103 148 197 239 295 371 443
#     4  12  24  45  72 107 142 185 241 311 362 423
#     4  11  25  40  71 108 139 182 238 305 367 422
#     4  12  26  47  71 112 150 186 241 313 372 438
#     4  11  22  43  72 102 140 186 247 298 356 434
#     4  11  25  47  71 102 144 196 244 292 364 450
#
# _framework density 23.681704
#
# number of rings (size 3 to 8) (size 9 to 14) (size 15 to 20)
#    0.000    0.727    5.455    1.636    2.545    2.182 
#    3.273    1.818    0.000    0.000    0.000    0.000 
#    0.000    0.000    0.000    0.000    0.000    0.000 
#
# Total GULP energy -246080.194426 kJ/mol
# GULP energy per Si atom -5592.731692 kJ/mol
# Density = 2.362780 g / cm^3
# Si number density = 23.681704 Si / 1000 Ang^3
#
#
#
# Elastic Constant Matrix: (Units=GPa)
#
#
# Indices 1 2 3 4 5 6 
#
# 1 102.8495 57.4205 27.5676 0.0000 0.0000 0.0000
# 2 57.4205 170.4119 25.9720 0.0000 0.0000 0.0000
# 3 27.5676 25.9720 82.7179 0.0000 0.0000 0.0000
# 4 0.0000 0.0000 0.0000 16.1965 0.0000 0.0000
# 5 0.0000 0.0000 0.0000 0.0000 -57.1908 0.0000
# 6 0.0000 0.0000 0.0000 0.0000 0.0000 36.9983
#
#
#
# Elastic Compliance Matrix: (Units=1/GPa)
#
#
# Indices 1 2 3 4 5 6 
#
# 1 0.012657 -0.003804 -0.003024 0.000000 0.000000 0.000000
# 2 -0.003804 0.007306 -0.001026 0.000000 0.000000 0.000000
# 3 -0.003024 -0.001026 0.013419 0.000000 0.000000 0.000000
# 4 0.000000 0.000000 0.000000 0.061742 0.000000 0.000000
# 5 0.000000 0.000000 0.000000 0.000000 -0.017485 0.000000
# 6 0.000000 0.000000 0.000000 0.000000 0.000000 0.027028
#
#
# Mechanical properties :
#
#
# Convention : Reuss Voigt Hill
#
# Bulk Modulus (GPa) = 56.57889 64.21106 60.39498
# Shear Modulus (GPa) = 39.59851 15.53543 27.56697
#
# Velocity S-wave (km/s) = 4.09359 2.56405 3.41554
# Velocity P-wave (km/s) = 6.80342 5.99490 6.41192
#
# Compressibility (1/GPa) = 0.01767444
#
# Stress axis : x y z
#
# Youngs Moduli (GPa) = 79.00624 136.86796 74.51956
#
# Poissons Ratio (x) = 0.52065 0.22534
# Poissons Ratio (y) = 0.30054 0.07648
# Poissons Ratio (z) = 0.23891 0.14047
#
# Static dielectric constant tensor:
#      x y z
#    x 1.937830 0.000000 0.000000 
#    y 0.000000 1.879120 0.000000 
#    z 0.000000 0.000000 1.971880 
# 
# From -- ./inp_files/67778.got.cif
#   From: 2010.05.17/outbox.cif.g08.bks.cpg/sg70_34_cif.got.tgz:67778.got - 2010.06.03 15:57:51.
