data_PCOD9516496
_publ_section_title
;
Structure prediction by ZEFSAII (Michael W. Deem and Ramdas Pophale) SiO2 
 PCOD9516496
Probable space group: F D D D
;
_chemical_formula_sum "Si O2"
_cell_formula_units_Z 192
_cell_length_a 19.230016
_cell_length_b 23.379621
_cell_length_c 19.880427
_cell_angle_alpha 90.000000
_cell_angle_beta 90.000000
_cell_angle_gamma 90.000000
_cell_volume 8938.050835
_symmetry_space_group_name_H-M "F D D D"
_symmetry_group_IT_number 70
_space_group.IT_coordinate_system_code '2'
_symmetry_cell_setting 'orthorhombic'
loop_
_space_group_symop_operation_xyz
x,y,z
1/4-x,1/4-y,z
x,1/4-y,1/4-z
1/4-x,y,1/4-z
-x,-y,-z
3/4+x,3/4+y,-z
-x,3/4+y,3/4+z
3/4+x,-y,3/4+z
x,1/2+y,1/2+z
1/4-x,3/4-y,1/2+z
x,3/4-y,3/4-z
1/4-x,1/2+y,3/4-z
-x,1/2-y,1/2-z
3/4+x,1/4+y,1/2-z
-x,1/4+y,1/4+z
3/4+x,1/2-y,1/4+z
1/2+x,y,1/2+z
3/4-x,1/4-y,1/2+z
1/2+x,1/4-y,3/4-z
3/4-x,y,3/4-z
1/2-x,-y,1/2-z
1/4+x,3/4+y,1/2-z
1/2-x,3/4+y,1/4+z
1/4+x,-y,1/4+z
1/2+x,1/2+y,z
3/4-x,3/4-y,z
1/2+x,3/4-y,1/4-z
3/4-x,1/2+y,1/4-z
1/2-x,1/2-y,-z
1/4+x,1/4+y,-z
1/2-x,1/4+y,3/4+z
1/4+x,1/2-y,3/4+z
loop_
_atom_site_type_symbol
_atom_site_label
_atom_site_fract_x
_atom_site_fract_y
_atom_site_fract_z
Si Si1 0.778233 0.164370 0.720957
Si Si2 0.737386 0.402473 0.946022
Si Si3 0.312630 0.827419 0.046506
Si Si4 0.580934 0.802867 0.323792
Si Si5 0.602214 0.500730 0.701065
Si Si6 0.653208 0.561175 0.944191
O O1 0.805250 0.189789 0.650376
O O2 0.780602 0.095705 0.716729
O O3 0.830823 0.187911 0.776494
O O4 0.704142 0.189605 0.742215
O O5 0.761439 0.375000 0.875000
O O6 0.657883 0.420373 0.936044
O O7 0.785765 0.457287 0.959373
O O8 0.750401 0.358739 0.007387
O O9 0.375000 0.875000 0.046941
O O10 0.304971 0.805783 0.122907
O O11 0.339202 0.775901 0.000187
O O12 0.593724 0.737022 0.305561
O O13 0.625000 0.503669 0.625000
O O14 0.625000 0.625000 0.943053
#
# Coordination Sequence:
#
# PCOD9516496 Si02
#       6
#    32  32  32  32  32  32
#     4  11  24  42  65  96 132 181 222 273 340 410
#     4  11  19  36  62  94 141 190 209 263 335 403
#     4   9  20  34  61  98 136 177 218 266 330 400
#     4  11  24  45  66  92 137 177 222 286 348 398
#     4  11  20  33  60 102 140 175 227 261 324 417
#     4  11  24  45  71  96 130 178 231 286 341 397
#
# _framework density 21.481193000000001
#
# number of rings (size 3 to 8) (size 9 to 14) (size 15 to 20)
#    0.000    1.333    6.667    0.000    0.000    2.000 
#    0.000    5.000    0.000    4.000    0.000    0.000 
#    0.000    0.000    0.000    0.000    0.000    0.000 
#
# Total GULP energy -268126.138262 kJ/mol
# GULP energy per Si atom -5585.961214 kJ/mol
# Density = 2.143230 g / cm^3
# Si number density = 21.481193 Si / 1000 Ang^3
#
#
#
# Elastic Constant Matrix: (Units=GPa)
#
#
# Indices 1 2 3 4 5 6 
#
# 1 38.8774 9.6764 31.2846 0.0000 0.0000 0.0000
# 2 9.6764 121.6889 20.8547 0.0000 0.0000 0.0000
# 3 31.2846 20.8547 67.6181 0.0000 0.0000 0.0000
# 4 0.0000 0.0000 0.0000 28.5558 0.0000 0.0000
# 5 0.0000 0.0000 0.0000 0.0000 36.3322 0.0000
# 6 0.0000 0.0000 0.0000 0.0000 0.0000 26.4035
#
#
#
# Elastic Compliance Matrix: (Units=1/GPa)
#
#
# Indices 1 2 3 4 5 6 
#
# 1 0.040979 -0.000010 -0.018956 0.000000 0.000000 0.000000
# 2 -0.000010 0.008676 -0.002671 0.000000 0.000000 0.000000
# 3 -0.018956 -0.002671 0.024383 0.000000 0.000000 0.000000
# 4 0.000000 0.000000 0.000000 0.035019 0.000000 0.000000
# 5 0.000000 0.000000 0.000000 0.000000 0.027524 0.000000
# 6 0.000000 0.000000 0.000000 0.000000 0.000000 0.037874
#
#
# Mechanical properties :
#
#
# Convention : Reuss Voigt Hill
#
# Bulk Modulus (GPa) = 32.50658 39.09065 35.79862
# Shear Modulus (GPa) = 21.93134 29.34955 25.64044
#
# Velocity S-wave (km/s) = 3.19871 3.70035 3.45863
# Velocity P-wave (km/s) = 5.36728 6.04102 5.71409
#
# Compressibility (1/GPa) = 0.03076300
#
# Stress axis : x y z
#
# Youngs Moduli (GPa) = 24.40302 115.25690 41.01167
#
# Poissons Ratio (x) = 0.00113 0.77743
# Poissons Ratio (y) = 0.00024 0.10956
# Poissons Ratio (z) = 0.46259 0.30790
#
# Static dielectric constant tensor:
#      x y z
#    x 1.818400 0.000000 0.000000 
#    y 0.000000 1.826910 0.000000 
#    z 0.000000 0.000000 1.758410 
# 
# From -- ./inp_files/44992.got.cif
#   From: 2010.05.17/outbox.cif.g08.bks.cpg/sg70_23_cif.got.tgz:44992.got - 2010.06.03 15:57:51.
