data_PCOD9516758
_publ_section_title
;
Structure prediction by ZEFSAII (Michael W. Deem and Ramdas Pophale) SiO2 
 PCOD9516758
Probable space group: F D D D
;
_chemical_formula_sum "Si O2"
_cell_formula_units_Z 176
_cell_length_a 28.226071
_cell_length_b 11.296791
_cell_length_c 24.281350
_cell_angle_alpha 90.000000
_cell_angle_beta 90.000000
_cell_angle_gamma 90.000000
_cell_volume 7742.448990
_symmetry_space_group_name_H-M "F D D D"
_symmetry_group_IT_number 70
_space_group.IT_coordinate_system_code '2'
_symmetry_cell_setting 'orthorhombic'
loop_
_space_group_symop_operation_xyz
x,y,z
1/4-x,1/4-y,z
x,1/4-y,1/4-z
1/4-x,y,1/4-z
-x,-y,-z
3/4+x,3/4+y,-z
-x,3/4+y,3/4+z
3/4+x,-y,3/4+z
x,1/2+y,1/2+z
1/4-x,3/4-y,1/2+z
x,3/4-y,3/4-z
1/4-x,1/2+y,3/4-z
-x,1/2-y,1/2-z
3/4+x,1/4+y,1/2-z
-x,1/4+y,1/4+z
3/4+x,1/2-y,1/4+z
1/2+x,y,1/2+z
3/4-x,1/4-y,1/2+z
1/2+x,1/4-y,3/4-z
3/4-x,y,3/4-z
1/2-x,-y,1/2-z
1/4+x,3/4+y,1/2-z
1/2-x,3/4+y,1/4+z
1/4+x,-y,1/4+z
1/2+x,1/2+y,z
3/4-x,3/4-y,z
1/2+x,3/4-y,1/4-z
3/4-x,1/2+y,1/4-z
1/2-x,1/2-y,-z
1/4+x,1/4+y,-z
1/2-x,1/4+y,3/4+z
1/4+x,1/2-y,3/4+z
loop_
_atom_site_type_symbol
_atom_site_label
_atom_site_fract_x
_atom_site_fract_y
_atom_site_fract_z
Si Si1 0.301408 0.989605 0.414900
Si Si2 0.954968 0.481911 0.734355
Si Si3 0.380010 0.154576 0.689024
Si Si4 0.710504 0.762920 0.452146
Si Si5 0.375000 0.875000 0.251486
Si Si6 0.710748 0.495879 0.613126
O O1 0.298746 0.875000 0.375000
O O2 0.341720 0.952145 0.458475
O O3 0.251523 0.999560 0.446973
O O4 0.309954 0.118328 0.384651
O O5 0.914187 0.573048 0.723386
O O6 0.933070 0.356964 0.715304
O O7 0.968411 0.497705 0.798050
O O8 0.386098 0.125000 0.625000
O O9 0.325515 0.121107 0.702981
O O10 0.396808 0.282712 0.708501
O O11 0.750000 0.750000 0.500000
O O12 0.739713 0.754380 0.396059
O O13 0.685992 0.625000 0.625000
#
# Coordination Sequence:
#
# PCOD9516758 Si02
#       6
#    32  32  32  32  16  32
#     4  11  26  48  72 103 155 199 255 306 387 470
#     4  11  25  44  74 111 147 194 253 314 380 461
#     4  12  28  46  72 110 151 193 257 319 387 468
#     4  11  23  45  74 108 149 193 247 321 389 458
#     4  12  29  46  74 102 146 210 249 316 388 470
#     4  11  23  43  79 110 144 199 254 316 386 452
#
# _framework density 22.731826000000002
#
# number of rings (size 3 to 8) (size 9 to 14) (size 15 to 20)
#    0.000    0.727    1.818    5.182    5.091    4.364 
#    0.000    2.727    0.000    0.000    0.000    0.000 
#    0.000    0.000    0.000    0.000    0.000    0.000 
#
# Total GULP energy -245579.030395 kJ/mol
# GULP energy per Si atom -5581.341600 kJ/mol
# Density = 2.268009 g / cm^3
# Si number density = 22.731826 Si / 1000 Ang^3
#
#
#
# Elastic Constant Matrix: (Units=GPa)
#
#
# Indices 1 2 3 4 5 6 
#
# 1 54.2629 -1.1536 24.0603 0.0000 0.0000 0.0000
# 2 -1.1536 164.7059 47.8445 0.0000 0.0000 0.0000
# 3 24.0603 47.8445 170.0792 0.0000 0.0000 0.0000
# 4 0.0000 0.0000 0.0000 40.8303 0.0000 0.0000
# 5 0.0000 0.0000 0.0000 0.0000 47.3357 0.0000
# 6 0.0000 0.0000 0.0000 0.0000 0.0000 64.2478
#
#
#
# Elastic Compliance Matrix: (Units=1/GPa)
#
#
# Indices 1 2 3 4 5 6 
#
# 1 0.019824 0.001038 -0.003096 0.000000 0.000000 0.000000
# 2 0.001038 0.006666 -0.002022 0.000000 0.000000 0.000000
# 3 -0.003096 -0.002022 0.006886 0.000000 0.000000 0.000000
# 4 0.000000 0.000000 0.000000 0.024492 0.000000 0.000000
# 5 0.000000 0.000000 0.000000 0.000000 0.021126 0.000000
# 6 0.000000 0.000000 0.000000 0.000000 0.000000 0.015565
#
#
# Mechanical properties :
#
#
# Convention : Reuss Voigt Hill
#
# Bulk Modulus (GPa) = 39.65748 58.95005 49.30377
# Shear Modulus (GPa) = 44.99464 51.70253 48.34858
#
# Velocity S-wave (km/s) = 4.45383 4.77430 4.61685
# Velocity P-wave (km/s) = 6.62816 7.50873 7.08215
#
# Compressibility (1/GPa) = 0.02521593
#
# Stress axis : x y z
#
# Youngs Moduli (GPa) = 50.44425 150.01294 145.21176
#
# Poissons Ratio (x) = -0.15576 0.44965
# Poissons Ratio (y) = -0.05238 0.29363
# Poissons Ratio (z) = 0.15620 0.30334
#
# Static dielectric constant tensor:
#      x y z
#    x 1.832070 0.000000 0.000000 
#    y 0.000000 2.369440 0.000000 
#    z 0.000000 0.000000 1.831670 
# 
# From -- ./inp_files/61666.got.cif
#   From: 2010.05.17/outbox.cif.g08.bks.cpg/sg70_31_cif.got.tgz:61666.got - 2010.06.03 15:57:51.
