data_PCOD9516759
_publ_section_title
;
Structure prediction by ZEFSAII (Michael W. Deem and Ramdas Pophale) SiO2 
 PCOD9516759
Probable space group: F D D D
;
_chemical_formula_sum "Si O2"
_cell_formula_units_Z 176
_cell_length_a 25.422958
_cell_length_b 12.093867
_cell_length_c 24.250600
_cell_angle_alpha 90.000000
_cell_angle_beta 90.000000
_cell_angle_gamma 90.000000
_cell_volume 7456.134892
_symmetry_space_group_name_H-M "F D D D"
_symmetry_group_IT_number 70
_space_group.IT_coordinate_system_code '2'
_symmetry_cell_setting 'orthorhombic'
loop_
_space_group_symop_operation_xyz
x,y,z
1/4-x,1/4-y,z
x,1/4-y,1/4-z
1/4-x,y,1/4-z
-x,-y,-z
3/4+x,3/4+y,-z
-x,3/4+y,3/4+z
3/4+x,-y,3/4+z
x,1/2+y,1/2+z
1/4-x,3/4-y,1/2+z
x,3/4-y,3/4-z
1/4-x,1/2+y,3/4-z
-x,1/2-y,1/2-z
3/4+x,1/4+y,1/2-z
-x,1/4+y,1/4+z
3/4+x,1/2-y,1/4+z
1/2+x,y,1/2+z
3/4-x,1/4-y,1/2+z
1/2+x,1/4-y,3/4-z
3/4-x,y,3/4-z
1/2-x,-y,1/2-z
1/4+x,3/4+y,1/2-z
1/2-x,3/4+y,1/4+z
1/4+x,-y,1/4+z
1/2+x,1/2+y,z
3/4-x,3/4-y,z
1/2+x,3/4-y,1/4-z
3/4-x,1/2+y,1/4-z
1/2-x,1/2-y,-z
1/4+x,1/4+y,-z
1/2-x,1/4+y,3/4+z
1/4+x,1/2-y,3/4+z
loop_
_atom_site_type_symbol
_atom_site_label
_atom_site_fract_x
_atom_site_fract_y
_atom_site_fract_z
Si Si1 0.296611 0.895059 0.986010
Si Si2 0.062510 0.593965 0.364878
Si Si3 0.493706 0.625000 0.125000
Si Si4 0.870942 0.538057 0.813265
Si Si5 0.803640 0.050312 0.075364
Si Si6 0.832646 0.781092 0.793523
O O1 0.331194 0.789669 0.969941
O O2 0.242139 0.881800 0.954404
O O3 0.323844 0.009044 0.965398
O O4 0.296548 0.903678 0.051209
O O5 0.125000 0.625000 0.369356
O O6 0.031863 0.693316 0.393614
O O7 0.044185 0.477799 0.390221
O O8 0.531032 0.578675 0.174712
O O9 0.875000 0.496076 0.875000
O O10 0.850887 0.662637 0.816259
O O11 0.828307 0.125000 0.125000
O O12 0.831937 0.996648 0.022198
O O13 0.875000 0.875000 0.803576
#
# Coordination Sequence:
#
# PCOD9516759 Si02
#       6
#    32  32  16  32  32  32
#     4  11  24  46  76 110 151 202 264 335 387 454
#     4  12  28  51  76 110 156 205 254 322 403 479
#     4  12  29  52  80 110 158 210 255 334 394 470
#     4  11  23  43  79 111 149 199 267 329 383 458
#     4  12  28  46  79 113 153 204 262 331 395 465
#     4  12  28  50  76 117 162 213 265 318 393 481
#
# _framework density 23.604723
#
# number of rings (size 3 to 8) (size 9 to 14) (size 15 to 20)
#    0.000    0.364    3.636    5.182    8.909    3.636 
#    0.000    0.000    0.000    0.000    0.000    0.000 
#    0.000    0.000    0.000    0.000    0.000    0.000 
#
# Total GULP energy -245887.156228 kJ/mol
# GULP energy per Si atom -5588.344460 kJ/mol
# Density = 2.355100 g / cm^3
# Si number density = 23.604723 Si / 1000 Ang^3
#
#
#
# Elastic Constant Matrix: (Units=GPa)
#
#
# Indices 1 2 3 4 5 6 
#
# 1 94.2737 47.0554 31.1935 0.0000 0.0000 0.0000
# 2 47.0554 184.9765 38.4927 0.0000 0.0000 0.0000
# 3 31.1935 38.4927 146.8127 0.0000 0.0000 0.0000
# 4 0.0000 0.0000 0.0000 206.5405 0.0000 0.0000
# 5 0.0000 0.0000 0.0000 0.0000 5.2341 0.0000
# 6 0.0000 0.0000 0.0000 0.0000 0.0000 43.4618
#
#
#
# Elastic Compliance Matrix: (Units=1/GPa)
#
#
# Indices 1 2 3 4 5 6 
#
# 1 0.012658 -0.002814 -0.001952 0.000000 0.000000 0.000000
# 2 -0.002814 0.006344 -0.001065 0.000000 0.000000 0.000000
# 3 -0.001952 -0.001065 0.007505 0.000000 0.000000 0.000000
# 4 0.000000 0.000000 0.000000 0.004842 0.000000 0.000000
# 5 0.000000 0.000000 0.000000 0.000000 0.191053 0.000000
# 6 0.000000 0.000000 0.000000 0.000000 0.000000 0.023009
#
#
# Mechanical properties :
#
#
# Convention : Reuss Voigt Hill
#
# Bulk Modulus (GPa) = 67.36271 73.28291 70.32281
# Shear Modulus (GPa) = 19.08249 71.66870 45.37559
#
# Velocity S-wave (km/s) = 2.84635 5.51615 4.38917
# Velocity P-wave (km/s) = 6.27711 8.46663 7.45271
#
# Compressibility (1/GPa) = 0.01484501
#
# Stress axis : x y z
#
# Youngs Moduli (GPa) = 79.00365 157.63973 133.23753
#
# Poissons Ratio (x) = 0.44357 0.26003
# Poissons Ratio (y) = 0.22230 0.14195
# Poissons Ratio (z) = 0.15419 0.16794
#
# Static dielectric constant tensor:
#      x y z
#    x 3.159660 0.000000 0.000000 
#    y 0.000000 1.888280 0.000000 
#    z 0.000000 0.000000 2.022150 
# 
# From -- ./inp_files/54997.got.cif
#   From: 2010.05.17/outbox.cif.g08.bks.cpg/sg70_28_cif.got.tgz:54997.got - 2010.06.03 15:57:51.
