data_PCOD9516429
_publ_section_title
;
Structure prediction by ZEFSAII (Michael W. Deem and Ramdas Pophale) SiO2 
 PCOD9516429
Probable space group: F D D D
;
_chemical_formula_sum "Si O2"
_cell_formula_units_Z 112
_cell_length_a 13.265697
_cell_length_b 26.696602
_cell_length_c 12.931615
_cell_angle_alpha 90.000000
_cell_angle_beta 90.000000
_cell_angle_gamma 90.000000
_cell_volume 4579.718948
_symmetry_space_group_name_H-M "F D D D"
_symmetry_group_IT_number 70
_space_group.IT_coordinate_system_code '2'
_symmetry_cell_setting 'orthorhombic'
loop_
_space_group_symop_operation_xyz
x,y,z
1/4-x,1/4-y,z
x,1/4-y,1/4-z
1/4-x,y,1/4-z
-x,-y,-z
3/4+x,3/4+y,-z
-x,3/4+y,3/4+z
3/4+x,-y,3/4+z
x,1/2+y,1/2+z
1/4-x,3/4-y,1/2+z
x,3/4-y,3/4-z
1/4-x,1/2+y,3/4-z
-x,1/2-y,1/2-z
3/4+x,1/4+y,1/2-z
-x,1/4+y,1/4+z
3/4+x,1/2-y,1/4+z
1/2+x,y,1/2+z
3/4-x,1/4-y,1/2+z
1/2+x,1/4-y,3/4-z
3/4-x,y,3/4-z
1/2-x,-y,1/2-z
1/4+x,3/4+y,1/2-z
1/2-x,3/4+y,1/4+z
1/4+x,-y,1/4+z
1/2+x,1/2+y,z
3/4-x,3/4-y,z
1/2+x,3/4-y,1/4-z
3/4-x,1/2+y,1/4-z
1/2-x,1/2-y,-z
1/4+x,1/4+y,-z
1/2-x,1/4+y,3/4+z
1/4+x,1/2-y,3/4+z
loop_
_atom_site_type_symbol
_atom_site_label
_atom_site_fract_x
_atom_site_fract_y
_atom_site_fract_z
Si Si1 0.680333 0.960600 0.805606
Si Si2 0.966970 0.239212 0.966450
Si Si3 0.849745 0.125000 0.125000
Si Si4 0.444043 0.825025 0.721030
O O1 0.669552 0.901835 0.788569
O O2 0.750000 0.000000 0.750000
O O3 0.569032 0.979399 0.782265
O O4 0.709716 0.960740 0.925533
O O5 0.990666 0.200562 0.871959
O O6 0.876927 0.280459 0.982641
O O7 0.772311 0.091250 0.191081
O O8 0.375000 0.875000 0.695810
#
# Coordination Sequence:
#
# PCOD9516429 Si02
#       4
#    32  32  16  32
#     4  11  25  47  72 109 155 206 261 325 409 483
#     4  10  25  46  78 111 158 200 261 344 397 483
#     4  12  27  46  81 110 154 212 269 336 410 499
#     4  11  24  49  81 120 157 207 278 336 416 487
#
# _framework density 24.455648
#
# number of rings (size 3 to 8) (size 9 to 14) (size 15 to 20)
#    0.000    1.143    2.857    1.286    0.000   12.571 
#    5.143    1.429    0.000    0.000    0.000    0.000 
#    0.000    0.000    0.000    0.000    0.000    0.000 
#
# Total GULP energy -156091.937954 kJ/mol
# GULP energy per Si atom -5574.712070 kJ/mol
# Density = 2.439999 g / cm^3
# Si number density = 24.455648 Si / 1000 Ang^3
#
#
#
# Elastic Constant Matrix: (Units=GPa)
#
#
# Indices 1 2 3 4 5 6 
#
# 1 132.8364 94.3754 90.7551 0.0000 0.0000 0.0000
# 2 94.3754 175.0818 46.3820 0.0000 0.0000 0.0000
# 3 90.7551 46.3820 96.3946 0.0000 0.0000 0.0000
# 4 0.0000 0.0000 0.0000 40.4153 0.0000 0.0000
# 5 0.0000 0.0000 0.0000 0.0000 43.0607 0.0000
# 6 0.0000 0.0000 0.0000 0.0000 0.0000 64.9548
#
#
#
# Elastic Compliance Matrix: (Units=1/GPa)
#
#
# Indices 1 2 3 4 5 6 
#
# 1 0.032723 -0.010862 -0.025582 0.000000 0.000000 0.000000
# 2 -0.010862 0.010151 0.005342 0.000000 0.000000 0.000000
# 3 -0.025582 0.005342 0.031889 0.000000 0.000000 0.000000
# 4 0.000000 0.000000 0.000000 0.024743 0.000000 0.000000
# 5 0.000000 0.000000 0.000000 0.000000 0.023223 0.000000
# 6 0.000000 0.000000 0.000000 0.000000 0.000000 0.015395
#
#
# Mechanical properties :
#
#
# Convention : Reuss Voigt Hill
#
# Bulk Modulus (GPa) = 79.62263 96.37086 87.99674
# Shear Modulus (GPa) = 24.44807 41.20618 32.82713
#
# Velocity S-wave (km/s) = 3.16522 4.10925 3.66773
# Velocity P-wave (km/s) = 6.78136 7.87442 7.34824
#
# Compressibility (1/GPa) = 0.01255924
#
# Stress axis : x y z
#
# Youngs Moduli (GPa) = 30.55978 98.50933 31.35860
#
# Poissons Ratio (x) = 1.06997 0.80222
# Poissons Ratio (y) = 0.33193 -0.16751
# Poissons Ratio (z) = 0.78178 -0.52621
#
# Static dielectric constant tensor:
#      x y z
#    x 2.005730 0.000000 0.000000 
#    y 0.000000 1.399080 0.000000 
#    z 0.000000 0.000000 2.051800 
# 
# From -- ./inp_files/25331.got.cif
#   From: 2010.05.17/outbox.cif.g08.bks.cpg/sg70_13_cif.got.tgz:25331.got - 2010.06.03 15:57:51.
