data_PCOD9516561
_publ_section_title
;
Structure prediction by ZEFSAII (Michael W. Deem and Ramdas Pophale) SiO2 
 PCOD9516561
Probable space group: F D D D
;
_chemical_formula_sum "Si O2"
_cell_formula_units_Z 168
_cell_length_a 28.214755
_cell_length_b 18.961209
_cell_length_c 11.969155
_cell_angle_alpha 90.000000
_cell_angle_beta 90.000000
_cell_angle_gamma 90.000000
_cell_volume 6403.328758
_symmetry_space_group_name_H-M "F D D D"
_symmetry_group_IT_number 70
_space_group.IT_coordinate_system_code '2'
_symmetry_cell_setting 'orthorhombic'
loop_
_space_group_symop_operation_xyz
x,y,z
1/4-x,1/4-y,z
x,1/4-y,1/4-z
1/4-x,y,1/4-z
-x,-y,-z
3/4+x,3/4+y,-z
-x,3/4+y,3/4+z
3/4+x,-y,3/4+z
x,1/2+y,1/2+z
1/4-x,3/4-y,1/2+z
x,3/4-y,3/4-z
1/4-x,1/2+y,3/4-z
-x,1/2-y,1/2-z
3/4+x,1/4+y,1/2-z
-x,1/4+y,1/4+z
3/4+x,1/2-y,1/4+z
1/2+x,y,1/2+z
3/4-x,1/4-y,1/2+z
1/2+x,1/4-y,3/4-z
3/4-x,y,3/4-z
1/2-x,-y,1/2-z
1/4+x,3/4+y,1/2-z
1/2-x,3/4+y,1/4+z
1/4+x,-y,1/4+z
1/2+x,1/2+y,z
3/4-x,3/4-y,z
1/2+x,3/4-y,1/4-z
3/4-x,1/2+y,1/4-z
1/2-x,1/2-y,-z
1/4+x,1/4+y,-z
1/2-x,1/4+y,3/4+z
1/4+x,1/2-y,3/4+z
loop_
_atom_site_type_symbol
_atom_site_label
_atom_site_fract_x
_atom_site_fract_y
_atom_site_fract_z
Si Si1 0.700775 0.241455 0.680956
Si Si2 0.799292 0.860027 0.506471
Si Si3 0.657518 0.473930 0.847983
Si Si4 0.556835 0.267868 0.921834
Si Si5 0.875000 0.875000 0.875000
Si Si6 0.054063 0.353949 0.647111
O O1 0.697879 0.271963 0.807363
O O2 0.752322 0.214378 0.641987
O O3 0.661773 0.179945 0.681455
O O4 0.691081 0.313961 0.615248
O O5 0.797516 0.875000 0.375000
O O6 0.836269 0.798743 0.534249
O O7 0.748462 0.838275 0.555918
O O8 0.808304 0.933657 0.567622
O O9 0.604562 0.464976 0.894888
O O10 0.664547 0.415582 0.753673
O O11 0.562986 0.303869 0.042709
#
# Coordination Sequence:
#
# PCOD9516561 Si02
#       6
#    32  32  32  32   8  32
#     4  11  28  51  71 101 135 198 244 304 364 430
#     4  11  21  36  66 108 150 193 224 284 364 438
#     4  12  23  41  74 107 147 186 237 297 363 436
#     4  11  24  41  73 109 145 183 241 296 364 435
#     4  12  32  56  76  84 142 198 260 304 352 426
#     4  11  22  43  69 108 149 182 233 294 366 430
#
# _framework density 26.236353000000001
#
# number of rings (size 3 to 8) (size 9 to 14) (size 15 to 20)
#    0.000    0.762    3.810    4.571    5.333    0.762 
#    3.429    1.905    0.000    0.000    0.000    0.000 
#    0.000    0.000    0.000    0.000    0.000    0.000 
#
# Total GULP energy -235110.569152 kJ/mol
# GULP energy per Si atom -5597.870694 kJ/mol
# Density = 2.617664 g / cm^3
# Si number density = 26.236353 Si / 1000 Ang^3
#
#
#
# Elastic Constant Matrix: (Units=GPa)
#
#
# Indices 1 2 3 4 5 6 
#
# 1 186.6179 41.9896 23.6773 0.0000 0.0000 0.0000
# 2 41.9896 132.3283 12.7585 0.0000 0.0000 0.0000
# 3 23.6773 12.7585 59.0944 0.0000 0.0000 0.0000
# 4 0.0000 0.0000 0.0000 25.5343 0.0000 0.0000
# 5 0.0000 0.0000 0.0000 0.0000 20.3702 0.0000
# 6 0.0000 0.0000 0.0000 0.0000 0.0000 37.8931
#
#
#
# Elastic Compliance Matrix: (Units=1/GPa)
#
#
# Indices 1 2 3 4 5 6 
#
# 1 0.006001 -0.001708 -0.002036 0.000000 0.000000 0.000000
# 2 -0.001708 0.008204 -0.001087 0.000000 0.000000 0.000000
# 3 -0.002036 -0.001087 0.017972 0.000000 0.000000 0.000000
# 4 0.000000 0.000000 0.000000 0.039163 0.000000 0.000000
# 5 0.000000 0.000000 0.000000 0.000000 0.049091 0.000000
# 6 0.000000 0.000000 0.000000 0.000000 0.000000 0.026390
#
#
# Mechanical properties :
#
#
# Convention : Reuss Voigt Hill
#
# Bulk Modulus (GPa) = 44.41259 59.43238 51.92248
# Shear Modulus (GPa) = 30.49004 36.73387 33.61195
#
# Velocity S-wave (km/s) = 3.41270 3.74587 3.58316
# Velocity P-wave (km/s) = 5.70029 6.43510 6.07881
#
# Compressibility (1/GPa) = 0.02251614
#
# Stress axis : x y z
#
# Youngs Moduli (GPa) = 166.63545 121.89600 55.64095
#
# Poissons Ratio (x) = 0.20819 0.11327
# Poissons Ratio (y) = 0.28461 0.06047
# Poissons Ratio (z) = 0.33922 0.13248
#
# Static dielectric constant tensor:
#      x y z
#    x 2.091250 0.000000 0.000000 
#    y 0.000000 2.077620 0.000000 
#    z 0.000000 0.000000 2.021630 
# 
# From -- ./inp_files/29864.got.cif
#   From: 2010.05.17/outbox.cif.g08.bks.cpg/sg70_15_cif.got.tgz:29864.got - 2010.06.03 15:57:51.
