data_PCOD9516191
_publ_section_title
;
Structure prediction by ZEFSAII (Michael W. Deem and Ramdas Pophale) SiO2 
 PCOD9516191
Probable space group: F D D D
;
_chemical_formula_sum "Si O2"
_cell_formula_units_Z 176
_cell_length_a 14.290944
_cell_length_b 22.885511
_cell_length_c 25.026288
_cell_angle_alpha 90.000000
_cell_angle_beta 90.000000
_cell_angle_gamma 90.000000
_cell_volume 8184.986539
_symmetry_space_group_name_H-M "F D D D"
_symmetry_group_IT_number 70
_space_group.IT_coordinate_system_code '2'
_symmetry_cell_setting 'orthorhombic'
loop_
_space_group_symop_operation_xyz
x,y,z
1/4-x,1/4-y,z
x,1/4-y,1/4-z
1/4-x,y,1/4-z
-x,-y,-z
3/4+x,3/4+y,-z
-x,3/4+y,3/4+z
3/4+x,-y,3/4+z
x,1/2+y,1/2+z
1/4-x,3/4-y,1/2+z
x,3/4-y,3/4-z
1/4-x,1/2+y,3/4-z
-x,1/2-y,1/2-z
3/4+x,1/4+y,1/2-z
-x,1/4+y,1/4+z
3/4+x,1/2-y,1/4+z
1/2+x,y,1/2+z
3/4-x,1/4-y,1/2+z
1/2+x,1/4-y,3/4-z
3/4-x,y,3/4-z
1/2-x,-y,1/2-z
1/4+x,3/4+y,1/2-z
1/2-x,3/4+y,1/4+z
1/4+x,-y,1/4+z
1/2+x,1/2+y,z
3/4-x,3/4-y,z
1/2+x,3/4-y,1/4-z
3/4-x,1/2+y,1/4-z
1/2-x,1/2-y,-z
1/4+x,1/4+y,-z
1/2-x,1/4+y,3/4+z
1/4+x,1/2-y,3/4+z
loop_
_atom_site_type_symbol
_atom_site_label
_atom_site_fract_x
_atom_site_fract_y
_atom_site_fract_z
Si Si1 0.722941 0.238248 0.779327
Si Si2 0.955285 0.624137 0.411816
Si Si3 0.625000 0.625000 0.843705
Si Si4 0.319448 0.998907 0.300099
Si Si5 0.404747 0.984302 0.029011
Si Si6 0.158586 0.804897 0.382986
O O1 0.752516 0.175800 0.803299
O O2 0.663422 0.224356 0.725851
O O3 0.817981 0.269941 0.761614
O O4 0.662613 0.276820 0.821896
O O5 0.875000 0.650935 0.375000
O O6 0.910439 0.566869 0.437588
O O7 0.043887 0.598402 0.379895
O O8 0.578439 0.673334 0.807926
O O9 0.250000 0.000000 0.250000
O O10 0.262353 0.965874 0.346713
O O11 0.373264 0.027767 0.076442
O O12 0.500000 0.000000 0.000000
O O13 0.155151 0.875000 0.375000
#
# Coordination Sequence:
#
# PCOD9516191 Si02
#       6
#    32  32  16  32  32  32
#     4  11  26  45  72 100 140 186 228 290 357 414
#     4  12  23  44  73  98 138 184 237 288 341 419
#     4  12  22  46  68  97 134 181 234 284 332 408
#     4  10  23  45  68 102 137 182 231 288 353 414
#     4  12  27  44  70 102 137 185 236 282 351 419
#     4  11  26  48  67 104 145 177 233 294 352 425
#
# _framework density 21.502783999999998
#
# number of rings (size 3 to 8) (size 9 to 14) (size 15 to 20)
#    0.000    0.727    3.636    3.273    7.636    0.000 
#    0.000    1.818    0.000    0.000    0.000    0.000 
#    0.000    0.000    0.000    0.000    0.000    0.000 
#
# Total GULP energy -245816.316269 kJ/mol
# GULP energy per Si atom -5586.734461 kJ/mol
# Density = 2.145384 g / cm^3
# Si number density = 21.502784 Si / 1000 Ang^3
#
#
#
# Elastic Constant Matrix: (Units=GPa)
#
#
# Indices 1 2 3 4 5 6 
#
# 1 132.0475 8.8794 54.8621 0.0000 0.0000 0.0000
# 2 8.8794 124.3204 49.3227 0.0000 0.0000 0.0000
# 3 54.8621 49.3227 99.5470 0.0000 0.0000 0.0000
# 4 0.0000 0.0000 0.0000 9.1548 0.0000 0.0000
# 5 0.0000 0.0000 0.0000 0.0000 31.3989 0.0000
# 6 0.0000 0.0000 0.0000 0.0000 0.0000 26.3955
#
#
#
# Elastic Compliance Matrix: (Units=1/GPa)
#
#
# Indices 1 2 3 4 5 6 
#
# 1 0.010157 0.001861 -0.006520 0.000000 0.000000 0.000000
# 2 0.001861 0.010353 -0.006155 0.000000 0.000000 0.000000
# 3 -0.006520 -0.006155 0.016688 0.000000 0.000000 0.000000
# 4 0.000000 0.000000 0.000000 0.109232 0.000000 0.000000
# 5 0.000000 0.000000 0.000000 0.000000 0.031848 0.000000
# 6 0.000000 0.000000 0.000000 0.000000 0.000000 0.037885
#
#
# Mechanical properties :
#
#
# Convention : Reuss Voigt Hill
#
# Bulk Modulus (GPa) = 64.22468 64.67146 64.44807
# Shear Modulus (GPa) = 20.57772 29.57989 25.07881
#
# Velocity S-wave (km/s) = 3.09686 3.71297 3.41883
# Velocity P-wave (km/s) = 6.53608 6.96582 6.75437
#
# Compressibility (1/GPa) = 0.01557034
#
# Stress axis : x y z
#
# Youngs Moduli (GPa) = 98.45803 96.59188 59.92202
#
# Poissons Ratio (x) = -0.17977 0.39067
# Poissons Ratio (y) = -0.18325 0.36884
# Poissons Ratio (z) = 0.64191 0.59455
#
# Static dielectric constant tensor:
#      x y z
#    x 1.747680 0.000000 0.000000 
#    y 0.000000 1.761040 0.000000 
#    z 0.000000 0.000000 1.884830 
# 
# From -- ./inp_files/51207.got.cif
#   From: 2010.05.17/outbox.cif.g08.bks.cpg/sg70_26_cif.got.tgz:51207.got - 2010.06.03 15:57:51.
