data_PCOD9516544
_publ_section_title
;
Structure prediction by ZEFSAII (Michael W. Deem and Ramdas Pophale) SiO2 
 PCOD9516544
Probable space group: F D D D
;
_chemical_formula_sum "Si O2"
_cell_formula_units_Z 192
_cell_length_a 30.817245
_cell_length_b 28.717029
_cell_length_c 11.080471
_cell_angle_alpha 90.000000
_cell_angle_beta 90.000000
_cell_angle_gamma 90.000000
_cell_volume 9805.992105
_symmetry_space_group_name_H-M "F D D D"
_symmetry_group_IT_number 70
_space_group.IT_coordinate_system_code '2'
_symmetry_cell_setting 'orthorhombic'
loop_
_space_group_symop_operation_xyz
x,y,z
1/4-x,1/4-y,z
x,1/4-y,1/4-z
1/4-x,y,1/4-z
-x,-y,-z
3/4+x,3/4+y,-z
-x,3/4+y,3/4+z
3/4+x,-y,3/4+z
x,1/2+y,1/2+z
1/4-x,3/4-y,1/2+z
x,3/4-y,3/4-z
1/4-x,1/2+y,3/4-z
-x,1/2-y,1/2-z
3/4+x,1/4+y,1/2-z
-x,1/4+y,1/4+z
3/4+x,1/2-y,1/4+z
1/2+x,y,1/2+z
3/4-x,1/4-y,1/2+z
1/2+x,1/4-y,3/4-z
3/4-x,y,3/4-z
1/2-x,-y,1/2-z
1/4+x,3/4+y,1/2-z
1/2-x,3/4+y,1/4+z
1/4+x,-y,1/4+z
1/2+x,1/2+y,z
3/4-x,3/4-y,z
1/2+x,3/4-y,1/4-z
3/4-x,1/2+y,1/4-z
1/2-x,1/2-y,-z
1/4+x,1/4+y,-z
1/2-x,1/4+y,3/4+z
1/4+x,1/2-y,3/4+z
loop_
_atom_site_type_symbol
_atom_site_label
_atom_site_fract_x
_atom_site_fract_y
_atom_site_fract_z
Si Si1 0.053572 0.125000 0.625000
Si Si2 0.828585 0.669398 0.933263
Si Si3 0.404459 0.833243 0.637236
Si Si4 0.283847 0.299356 0.803051
Si Si5 0.032088 0.375000 0.375000
Si Si6 0.918517 0.979814 0.038324
Si Si7 0.496273 0.950810 0.715748
O O1 0.081820 0.151878 0.727656
O O2 0.024945 0.085010 0.690092
O O3 0.875000 0.662952 0.875000
O O4 0.789663 0.678968 0.840581
O O5 0.812719 0.625954 0.010043
O O6 0.832065 0.714745 0.020217
O O7 0.375000 0.875000 0.588960
O O8 0.446883 0.828747 0.556322
O O9 0.374357 0.788603 0.607049
O O10 0.248493 0.330129 0.871655
O O11 0.262711 0.252503 0.749218
O O12 0.321483 0.287861 0.901308
O O13 0.959311 0.961645 0.115966
#
# Coordination Sequence:
#
# PCOD9516544 Si02
#       7
#    16  32  32  32  16  32  32
#     4  12  27  45  64  93 148 179 216 255 342 425
#     4  11  23  41  63  91 123 166 217 273 324 379
#     4  12  24  39  65 100 131 171 211 274 328 398
#     4  11  22  40  68  99 124 164 226 278 333 390
#     4  12  20  37  63  89 128 161 210 270 330 384
#     4  11  20  41  67  96 126 160 213 276 338 383
#     4  11  22  44  67  92 130 178 212 268 335 401
#
# _framework density 19.579865000000002
#
# number of rings (size 3 to 8) (size 9 to 14) (size 15 to 20)
#    0.000    0.667    5.000    5.750    0.000    2.000 
#    0.000    1.667    0.000    0.000    0.000    0.000 
#    0.000    0.000    0.000    0.000    0.000    0.000 
#
# Total GULP energy -267852.146982 kJ/mol
# GULP energy per Si atom -5580.253062 kJ/mol
# Density = 1.953530 g / cm^3
# Si number density = 19.579865 Si / 1000 Ang^3
#
#
#
# Elastic Constant Matrix: (Units=GPa)
#
#
# Indices 1 2 3 4 5 6 
#
# 1 112.2940 17.0239 42.7148 0.0005 -0.0013 -0.0007
# 2 17.0239 63.3859 31.4216 0.0026 -0.0021 -0.0019
# 3 42.7148 31.4216 84.8360 0.0066 -0.0060 -0.0036
# 4 0.0005 0.0026 0.0066 33.6500 -0.0033 -0.0026
# 5 -0.0013 -0.0021 -0.0060 -0.0033 37.9113 0.0021
# 6 -0.0007 -0.0019 -0.0036 -0.0026 0.0021 36.4801
#
#
#
# Elastic Compliance Matrix: (Units=1/GPa)
#
#
# Indices 1 2 3 4 5 6 
#
# 1 0.011018 -0.000256 -0.005453 0.000001 -0.000001 0.000000
# 2 -0.000256 0.019330 -0.007031 0.000000 0.000000 0.000000
# 3 -0.005453 -0.007031 0.017137 -0.000003 0.000002 0.000001
# 4 0.000001 0.000000 -0.000003 0.029718 0.000003 0.000002
# 5 -0.000001 0.000000 0.000002 0.000003 0.026377 -0.000002
# 6 0.000000 0.000000 0.000001 0.000002 -0.000002 0.027412
#
#
# Mechanical properties :
#
#
# Convention : Reuss Voigt Hill
#
# Bulk Modulus (GPa) = 45.44140 49.20408 47.32274
# Shear Modulus (GPa) = 30.52370 32.89867 31.71119
#
# Velocity S-wave (km/s) = 3.95262 4.10351 4.02877
# Velocity P-wave (km/s) = 6.63999 6.90190 6.77221
#
# Compressibility (1/GPa) = 0.02200637
#
# Stress axis : x y z
#
# Youngs Moduli (GPa) = 90.75923 51.73202 58.35364
#
# Poissons Ratio (x) = 0.01325 0.31819
# Poissons Ratio (y) = 0.02325 0.41026
# Poissons Ratio (z) = 0.49489 0.36371
#
# Static dielectric constant tensor:
#      x y z
#    x 1.710460 0.000000 0.000000 
#    y 0.000000 1.790470 0.000010 
#    z 0.000000 0.000010 1.684970 
# 
# From -- ./inp_files/22478.got.cif
#   From: 2010.05.17/outbox.cif.g08.bks.cpg/sg70_12_cif.got.tgz:22478.got - 2010.06.03 15:57:51.
