data_PCOD9516991
_publ_section_title
;
Structure prediction by ZEFSAII (Michael W. Deem and Ramdas Pophale) SiO2 
 PCOD9516991
Probable space group: F D D D
;
_chemical_formula_sum "Si O2"
_cell_formula_units_Z 152
_cell_length_a 13.525377
_cell_length_b 20.740336
_cell_length_c 23.383002
_cell_angle_alpha 90.000000
_cell_angle_beta 90.000000
_cell_angle_gamma 90.000000
_cell_volume 6559.419912
_symmetry_space_group_name_H-M "F D D D"
_symmetry_group_IT_number 70
_space_group.IT_coordinate_system_code '2'
_symmetry_cell_setting 'orthorhombic'
loop_
_space_group_symop_operation_xyz
x,y,z
1/4-x,1/4-y,z
x,1/4-y,1/4-z
1/4-x,y,1/4-z
-x,-y,-z
3/4+x,3/4+y,-z
-x,3/4+y,3/4+z
3/4+x,-y,3/4+z
x,1/2+y,1/2+z
1/4-x,3/4-y,1/2+z
x,3/4-y,3/4-z
1/4-x,1/2+y,3/4-z
-x,1/2-y,1/2-z
3/4+x,1/4+y,1/2-z
-x,1/4+y,1/4+z
3/4+x,1/2-y,1/4+z
1/2+x,y,1/2+z
3/4-x,1/4-y,1/2+z
1/2+x,1/4-y,3/4-z
3/4-x,y,3/4-z
1/2-x,-y,1/2-z
1/4+x,3/4+y,1/2-z
1/2-x,3/4+y,1/4+z
1/4+x,-y,1/4+z
1/2+x,1/2+y,z
3/4-x,3/4-y,z
1/2+x,3/4-y,1/4-z
3/4-x,1/2+y,1/4-z
1/2-x,1/2-y,-z
1/4+x,1/4+y,-z
1/2-x,1/4+y,3/4+z
1/4+x,1/2-y,3/4+z
loop_
_atom_site_type_symbol
_atom_site_label
_atom_site_fract_x
_atom_site_fract_y
_atom_site_fract_z
Si Si1 0.257146 0.366084 0.570540
Si Si2 0.002762 0.500823 0.164773
Si Si3 0.125000 0.125000 0.625000
Si Si4 0.875000 0.524084 0.375000
Si Si5 0.651066 0.291463 0.988686
Si Si6 0.191632 0.450880 0.864427
O O1 0.375000 0.375000 0.562980
O O2 0.239875 0.304903 0.614618
O O3 0.203915 0.428016 0.596537
O O4 0.199124 0.357768 0.510460
O O5 0.889187 0.516731 0.176479
O O6 0.050859 0.570967 0.151011
O O7 0.064076 0.474697 0.217781
O O8 0.798131 0.475993 0.345040
O O9 0.750000 0.250000 0.000000
O O10 0.606839 0.281382 0.926601
O O11 0.196585 0.375000 0.875000
#
# Coordination Sequence:
#
# PCOD9516991 Si02
#       6
#    32  32   8  16  32  32
#     4  12  23  45  75 107 144 189 245 308 372 450
#     4  12  23  43  70 108 148 186 236 308 375 440
#     4  12  18  40  68 104 152 184 222 316 356 424
#     4  12  24  50  72  94 146 198 236 302 370 454
#     4  12  24  45  72 112 143 190 254 307 384 437
#     4  12  28  48  70 105 150 193 243 317 371 448
#
# _framework density 23.172779999999999
#
# number of rings (size 3 to 8) (size 9 to 14) (size 15 to 20)
#    0.000    0.000    9.474    0.316    0.000    3.368 
#    1.895    8.421    0.000    0.000    0.000    0.000 
#    0.000    0.000    0.000    0.000    0.000    0.000 
#
# Total GULP energy -211704.772451 kJ/mol
# GULP energy per Si atom -5571.178222 kJ/mol
# Density = 2.312004 g / cm^3
# Si number density = 23.172780 Si / 1000 Ang^3
#
#
#
# Elastic Constant Matrix: (Units=GPa)
#
#
# Indices 1 2 3 4 5 6 
#
# 1 209.6876 43.5949 15.4138 0.0000 0.0000 0.0000
# 2 43.5949 97.5300 22.0260 0.0000 0.0000 0.0000
# 3 15.4138 22.0260 48.3514 0.0000 0.0000 0.0000
# 4 0.0000 0.0000 0.0000 3.4915 0.0000 0.0000
# 5 0.0000 0.0000 0.0000 0.0000 -29.1081 0.0000
# 6 0.0000 0.0000 0.0000 0.0000 0.0000 46.8095
#
#
#
# Elastic Compliance Matrix: (Units=1/GPa)
#
#
# Indices 1 2 3 4 5 6 
#
# 1 0.005277 -0.002206 -0.000677 0.000000 0.000000 0.000000
# 2 -0.002206 0.012351 -0.004923 0.000000 0.000000 0.000000
# 3 -0.000677 -0.004923 0.023141 0.000000 0.000000 0.000000
# 4 0.000000 0.000000 0.000000 0.286408 0.000000 0.000000
# 5 0.000000 0.000000 0.000000 0.000000 -0.034355 0.000000
# 6 0.000000 0.000000 0.000000 0.000000 0.000000 0.021363
#
#
# Mechanical properties :
#
#
# Convention : Reuss Voigt Hill
#
# Bulk Modulus (GPa) = 39.75211 57.51540 48.63376
# Shear Modulus (GPa) = 14.78484 22.54085 18.66285
#
# Velocity S-wave (km/s) = 2.52866 3.12225 2.84100
# Velocity P-wave (km/s) = 5.07123 6.15402 5.63868
#
# Compressibility (1/GPa) = 0.02515590
#
# Stress axis : x y z
#
# Youngs Moduli (GPa) = 189.48630 80.96413 43.21403
#
# Poissons Ratio (x) = 0.17860 0.02928
# Poissons Ratio (y) = 0.41800 0.21275
# Poissons Ratio (z) = 0.12837 0.39860
#
# Static dielectric constant tensor:
#      x y z
#    x 1.863790 0.000000 0.000000 
#    y 0.000000 1.983760 0.000000 
#    z 0.000000 0.000000 1.866500 
# 
# From -- ./inp_files/58408.got.cif
#   From: 2010.05.17/outbox.cif.g08.bks.cpg/sg70_30_cif.got.tgz:58408.got - 2010.06.03 15:57:51.
