data_PCOD9516878
_publ_section_title
;
Structure prediction by ZEFSAII (Michael W. Deem and Ramdas Pophale) SiO2 
 PCOD9516878
Probable space group: F D D D
;
_chemical_formula_sum "Si O2"
_cell_formula_units_Z 160
_cell_length_a 15.206333
_cell_length_b 14.340228
_cell_length_c 29.648111
_cell_angle_alpha 90.000000
_cell_angle_beta 90.000000
_cell_angle_gamma 90.000000
_cell_volume 6465.134749
_symmetry_space_group_name_H-M "F D D D"
_symmetry_group_IT_number 70
_space_group.IT_coordinate_system_code '2'
_symmetry_cell_setting 'orthorhombic'
loop_
_space_group_symop_operation_xyz
x,y,z
1/4-x,1/4-y,z
x,1/4-y,1/4-z
1/4-x,y,1/4-z
-x,-y,-z
3/4+x,3/4+y,-z
-x,3/4+y,3/4+z
3/4+x,-y,3/4+z
x,1/2+y,1/2+z
1/4-x,3/4-y,1/2+z
x,3/4-y,3/4-z
1/4-x,1/2+y,3/4-z
-x,1/2-y,1/2-z
3/4+x,1/4+y,1/2-z
-x,1/4+y,1/4+z
3/4+x,1/2-y,1/4+z
1/2+x,y,1/2+z
3/4-x,1/4-y,1/2+z
1/2+x,1/4-y,3/4-z
3/4-x,y,3/4-z
1/2-x,-y,1/2-z
1/4+x,3/4+y,1/2-z
1/2-x,3/4+y,1/4+z
1/4+x,-y,1/4+z
1/2+x,1/2+y,z
3/4-x,3/4-y,z
1/2+x,3/4-y,1/4-z
3/4-x,1/2+y,1/4-z
1/2-x,1/2-y,-z
1/4+x,1/4+y,-z
1/2-x,1/4+y,3/4+z
1/4+x,1/2-y,3/4+z
loop_
_atom_site_type_symbol
_atom_site_label
_atom_site_fract_x
_atom_site_fract_y
_atom_site_fract_z
Si Si1 0.771987 0.134618 0.906347
Si Si2 0.125000 0.125000 0.772330
Si Si3 0.325149 0.706063 0.782989
Si Si4 0.567662 0.965582 0.843592
Si Si5 0.480861 0.288124 0.841862
Si Si6 0.500000 0.250000 0.750000
O O1 0.711823 0.108383 0.948420
O O2 0.860835 0.178605 0.925631
O O3 0.711016 0.203227 0.877195
O O4 0.785245 0.046539 0.874879
O O5 0.116719 0.223852 0.746972
O O6 0.248601 0.773733 0.802389
O O7 0.281767 0.612771 0.761915
O O8 0.562340 0.875000 0.875000
O O9 0.666808 0.974822 0.825438
O O10 0.472746 0.375000 0.875000
O O11 0.438030 0.284867 0.793048
#
# Coordination Sequence:
#
# PCOD9516878 Si02
#       6
#    32  16  32  32  32  16
#     4  12  24  49  75 105 152 196 252 321 389 462
#     4  12  26  48  75 116 148 200 259 330 390 462
#     4  12  28  46  76 115 153 196 263 321 392 478
#     4  11  24  46  79 104 145 198 254 319 390 454
#     4  11  25  50  74 108 149 205 253 314 393 462
#     4  12  28  46  74 114 156 204 256 316 396 492
#
# _framework density 24.74813
#
# number of rings (size 3 to 8) (size 9 to 14) (size 15 to 20)
#    0.000    0.400    4.000    3.600    5.600    0.800 
#    3.600    1.000    0.000    0.000    0.000    0.000 
#    0.000    0.000    0.000    0.000    0.000    0.000 
#
# Total GULP energy -222831.172449 kJ/mol
# GULP energy per Si atom -5570.779311 kJ/mol
# Density = 2.469180 g / cm^3
# Si number density = 24.748130 Si / 1000 Ang^3
#
#
#
# Elastic Constant Matrix: (Units=GPa)
#
#
# Indices 1 2 3 4 5 6 
#
# 1 86.7254 -13.6539 -24.9220 0.0000 0.0000 0.0000
# 2 -13.6539 112.5290 -8.6421 0.0000 0.0000 0.0000
# 3 -24.9220 -8.6421 60.6100 0.0000 0.0000 0.0000
# 4 0.0000 0.0000 0.0000 31.4558 0.0000 0.0000
# 5 0.0000 0.0000 0.0000 0.0000 28.7911 0.0000
# 6 0.0000 0.0000 0.0000 0.0000 0.0000 26.6589
#
#
#
# Elastic Compliance Matrix: (Units=1/GPa)
#
#
# Indices 1 2 3 4 5 6 
#
# 1 0.013547 0.002094 0.005869 0.000000 0.000000 0.000000
# 2 0.002094 0.009309 0.002189 0.000000 0.000000 0.000000
# 3 0.005869 0.002189 0.019224 0.000000 0.000000 0.000000
# 4 0.000000 0.000000 0.000000 0.031791 0.000000 0.000000
# 5 0.000000 0.000000 0.000000 0.000000 0.034733 0.000000
# 6 0.000000 0.000000 0.000000 0.000000 0.000000 0.037511
#
#
# Mechanical properties :
#
#
# Convention : Reuss Voigt Hill
#
# Bulk Modulus (GPa) = 16.02981 18.38096 17.20539
# Shear Modulus (GPa) = 34.10517 37.85330 35.97923
#
# Velocity S-wave (km/s) = 3.71629 3.91518 3.81703
# Velocity P-wave (km/s) = 4.99056 5.28029 5.13747
#
# Compressibility (1/GPa) = 0.06238376
#
# Stress axis : x y z
#
# Youngs Moduli (GPa) = 73.81747 107.42519 52.01776
#
# Poissons Ratio (x) = -0.22500 -0.30529
# Poissons Ratio (y) = -0.15461 -0.11384
# Poissons Ratio (z) = -0.43323 -0.23510
#
# Static dielectric constant tensor:
#      x y z
#    x 2.004190 0.000000 0.000000 
#    y 0.000000 1.870690 0.000000 
#    z 0.000000 0.000000 3.387260 
# 
# From -- ./inp_files/66539.got.cif
#   From: 2010.05.17/outbox.cif.g08.bks.cpg/sg70_34_cif.got.tgz:66539.got - 2010.06.03 15:57:51.
