data_PCOD9516802
_publ_section_title
;
Structure prediction by ZEFSAII (Michael W. Deem and Ramdas Pophale) SiO2 
 PCOD9516802
Probable space group: F D D D
;
_chemical_formula_sum "Si O2"
_cell_formula_units_Z 176
_cell_length_a 11.336995
_cell_length_b 23.983504
_cell_length_c 27.204462
_cell_angle_alpha 90.000000
_cell_angle_beta 90.000000
_cell_angle_gamma 90.000000
_cell_volume 7396.916748
_symmetry_space_group_name_H-M "F D D D"
_symmetry_group_IT_number 70
_space_group.IT_coordinate_system_code '2'
_symmetry_cell_setting 'orthorhombic'
loop_
_space_group_symop_operation_xyz
x,y,z
1/4-x,1/4-y,z
x,1/4-y,1/4-z
1/4-x,y,1/4-z
-x,-y,-z
3/4+x,3/4+y,-z
-x,3/4+y,3/4+z
3/4+x,-y,3/4+z
x,1/2+y,1/2+z
1/4-x,3/4-y,1/2+z
x,3/4-y,3/4-z
1/4-x,1/2+y,3/4-z
-x,1/2-y,1/2-z
3/4+x,1/4+y,1/2-z
-x,1/4+y,1/4+z
3/4+x,1/2-y,1/4+z
1/2+x,y,1/2+z
3/4-x,1/4-y,1/2+z
1/2+x,1/4-y,3/4-z
3/4-x,y,3/4-z
1/2-x,-y,1/2-z
1/4+x,3/4+y,1/2-z
1/2-x,3/4+y,1/4+z
1/4+x,-y,1/4+z
1/2+x,1/2+y,z
3/4-x,3/4-y,z
1/2+x,3/4-y,1/4-z
3/4-x,1/2+y,1/4-z
1/2-x,1/2-y,-z
1/4+x,1/4+y,-z
1/2-x,1/4+y,3/4+z
1/4+x,1/2-y,3/4+z
loop_
_atom_site_type_symbol
_atom_site_label
_atom_site_fract_x
_atom_site_fract_y
_atom_site_fract_z
Si Si1 0.310684 0.010026 0.301892
Si Si2 0.875000 0.375000 0.099560
Si Si3 0.604677 0.377524 0.219517
Si Si4 0.894081 0.748945 0.121669
Si Si5 0.422868 0.018753 0.727671
Si Si6 0.701425 0.177646 0.198656
O O1 0.315630 0.076974 0.307591
O O2 0.230426 0.984565 0.344737
O O3 0.250000 0.000000 0.250000
O O4 0.444140 0.989268 0.293359
O O5 0.760510 0.375587 0.064394
O O6 0.893408 0.433708 0.127354
O O7 0.662949 0.319831 0.234881
O O8 0.563302 0.403183 0.271636
O O9 0.900496 0.728102 0.177665
O O10 0.998224 0.719441 0.091833
O O11 0.387677 0.964488 0.759294
O O12 0.625000 0.125000 0.182527
#
# Coordination Sequence:
#
# PCOD9516802 Si02
#       6
#    32  16  32  32  32  32
#     4  11  23  48  74 107 154 199 252 323 385 461
#     4  12  26  48  80 113 148 207 262 328 398 456
#     4  11  24  49  75 105 154 205 247 326 391 458
#     4  12  25  47  78 114 148 205 266 315 393 477
#     4  11  25  46  77 111 152 204 252 319 395 460
#     4  11  24  50  72 108 158 198 250 324 385 463
#
# _framework density 23.793697999999999
#
# number of rings (size 3 to 8) (size 9 to 14) (size 15 to 20)
#    0.000    0.727    8.182    0.545    2.545    4.364 
#    1.636    2.727    4.000    0.000    0.000    0.000 
#    0.000    0.000    0.000    0.000    0.000    0.000 
#
# Total GULP energy -246164.261654 kJ/mol
# GULP energy per Si atom -5594.642310 kJ/mol
# Density = 2.373954 g / cm^3
# Si number density = 23.793698 Si / 1000 Ang^3
#
#
#
# Elastic Constant Matrix: (Units=GPa)
#
#
# Indices 1 2 3 4 5 6 
#
# 1 69.9271 49.7313 68.5929 0.0000 0.0000 0.0000
# 2 49.7313 130.6813 48.9263 0.0000 0.0000 0.0000
# 3 68.5929 48.9263 135.3765 0.0000 0.0000 0.0000
# 4 0.0000 0.0000 0.0000 32.1522 0.0000 0.0000
# 5 0.0000 0.0000 0.0000 0.0000 46.7243 0.0000
# 6 0.0000 0.0000 0.0000 0.0000 0.0000 44.8355
#
#
#
# Elastic Compliance Matrix: (Units=1/GPa)
#
#
# Indices 1 2 3 4 5 6 
#
# 1 0.033707 -0.007440 -0.014390 0.000000 0.000000 0.000000
# 2 -0.007440 0.010492 -0.000022 0.000000 0.000000 0.000000
# 3 -0.014390 -0.000022 0.014686 0.000000 0.000000 0.000000
# 4 0.000000 0.000000 0.000000 0.031102 0.000000 0.000000
# 5 0.000000 0.000000 0.000000 0.000000 0.021402 0.000000
# 6 0.000000 0.000000 0.000000 0.000000 0.000000 0.022304
#
#
# Mechanical properties :
#
#
# Convention : Reuss Voigt Hill
#
# Bulk Modulus (GPa) = 65.87242 74.49842 70.18542
# Shear Modulus (GPa) = 27.40368 35.99136 31.69752
#
# Velocity S-wave (km/s) = 3.39738 3.89349 3.65387
# Velocity P-wave (km/s) = 6.56769 7.18265 6.88204
#
# Compressibility (1/GPa) = 0.01518086
#
# Stress axis : x y z
#
# Youngs Moduli (GPa) = 29.66727 95.31274 68.09221
#
# Poissons Ratio (x) = 0.70911 0.97985
# Poissons Ratio (y) = 0.22072 0.00151
# Poissons Ratio (z) = 0.42691 0.00211
#
# Static dielectric constant tensor:
#      x y z
#    x 1.940270 0.000000 0.000000 
#    y 0.000000 1.960130 0.000000 
#    z 0.000000 0.000000 1.898020 
# 
# From -- ./inp_files/64754.got.cif
#   From: 2010.05.17/outbox.cif.g08.bks.cpg/sg70_33_cif.got.tgz:64754.got - 2010.06.03 15:57:51.
