data_PCOD9516196
_publ_section_title
;
Structure prediction by ZEFSAII (Michael W. Deem and Ramdas Pophale) SiO2 
 PCOD9516196
Probable space group: F D D D
;
_chemical_formula_sum "Si O2"
_cell_formula_units_Z 240
_cell_length_a 20.125714
_cell_length_b 21.122848
_cell_length_c 25.827271
_cell_angle_alpha 90.000000
_cell_angle_beta 90.000000
_cell_angle_gamma 90.000000
_cell_volume 10979.493101
_symmetry_space_group_name_H-M "F D D D"
_symmetry_group_IT_number 70
_space_group.IT_coordinate_system_code '2'
_symmetry_cell_setting 'orthorhombic'
loop_
_space_group_symop_operation_xyz
x,y,z
1/4-x,1/4-y,z
x,1/4-y,1/4-z
1/4-x,y,1/4-z
-x,-y,-z
3/4+x,3/4+y,-z
-x,3/4+y,3/4+z
3/4+x,-y,3/4+z
x,1/2+y,1/2+z
1/4-x,3/4-y,1/2+z
x,3/4-y,3/4-z
1/4-x,1/2+y,3/4-z
-x,1/2-y,1/2-z
3/4+x,1/4+y,1/2-z
-x,1/4+y,1/4+z
3/4+x,1/2-y,1/4+z
1/2+x,y,1/2+z
3/4-x,1/4-y,1/2+z
1/2+x,1/4-y,3/4-z
3/4-x,y,3/4-z
1/2-x,-y,1/2-z
1/4+x,3/4+y,1/2-z
1/2-x,3/4+y,1/4+z
1/4+x,-y,1/4+z
1/2+x,1/2+y,z
3/4-x,3/4-y,z
1/2+x,3/4-y,1/4-z
3/4-x,1/2+y,1/4-z
1/2-x,1/2-y,-z
1/4+x,1/4+y,-z
1/2-x,1/4+y,3/4+z
1/4+x,1/2-y,3/4+z
loop_
_atom_site_type_symbol
_atom_site_label
_atom_site_fract_x
_atom_site_fract_y
_atom_site_fract_z
Si Si1 0.567765 0.770845 0.667142
Si Si2 0.012610 0.007006 0.207548
Si Si3 0.074794 0.238647 0.870553
Si Si4 0.046733 0.303828 0.353383
Si Si5 0.753529 0.850991 0.000650
Si Si6 0.633687 0.405596 0.063701
Si Si7 0.625000 0.625000 0.314594
Si Si8 0.120374 0.199720 0.489327
O O1 0.625000 0.772053 0.625000
O O2 0.502208 0.749282 0.637192
O O3 0.569635 0.842589 0.690354
O O4 0.587380 0.723889 0.712647
O O5 0.988465 0.010600 0.147157
O O6 0.017595 0.078398 0.228102
O O7 0.078759 0.965860 0.209755
O O8 0.955532 0.972957 0.240930
O O9 0.125491 0.285907 0.898741
O O10 0.083638 0.172463 0.899884
O O11 0.101189 0.231590 0.812290
O O12 0.042566 0.375000 0.375000
O O13 0.011307 0.305399 0.297900
O O14 0.687350 0.854538 0.036018
O O15 0.820579 0.836483 0.031795
O O16 0.625000 0.416375 0.125000
O O17 0.125000 0.125000 0.484159
#
# Coordination Sequence:
#
# PCOD9516196 Si02
#       8
#    32  32  32  32  32  32  16  32
#     4  11  24  43  65  98 137 174 234 294 343 416
#     4  10  23  45  69  99 136 184 227 286 350 420
#     4  11  24  43  68  95 134 182 226 284 347 418
#     4   9  23  46  69  95 138 179 231 284 351 422
#     4  11  25  46  68 104 139 178 233 291 352 421
#     4  11  24  41  70  99 140 183 234 289 358 424
#     4  12  26  42  71 102 135 176 230 290 342 424
#     4  11  22  42  67  97 135 179 232 283 344 414
#
# _framework density 21.858931999999999
#
# number of rings (size 3 to 8) (size 9 to 14) (size 15 to 20)
#    0.000    1.333    2.000    2.800    7.467    1.867 
#    2.400    2.333    0.000    0.000    0.000    0.000 
#    0.000    0.000    0.000    0.000    0.000    0.000 
#
# Total GULP energy -335616.272936 kJ/mol
# GULP energy per Si atom -5593.604549 kJ/mol
# Density = 2.180918 g / cm^3
# Si number density = 21.858932 Si / 1000 Ang^3
#
#
#
# Elastic Constant Matrix: (Units=GPa)
#
#
# Indices 1 2 3 4 5 6 
#
# 1 5.4666 -193.9131 -113.4238 0.0000 0.0000 0.0000
# 2 -193.9131 -353.9620 -280.7244 0.0000 0.0000 0.0000
# 3 -113.4238 -280.7244 -109.4314 0.0000 0.0000 0.0000
# 4 0.0000 0.0000 0.0000 42.3291 0.0000 0.0000
# 5 0.0000 0.0000 0.0000 0.0000 32.0248 0.0000
# 6 0.0000 0.0000 0.0000 0.0000 0.0000 34.6343
#
#
#
# Elastic Compliance Matrix: (Units=1/GPa)
#
#
# Indices 1 2 3 4 5 6 
#
# 1 0.010277 -0.002724 -0.003664 0.000000 0.000000 0.000000
# 2 -0.002724 0.003453 -0.006034 0.000000 0.000000 0.000000
# 3 -0.003664 -0.006034 0.010140 0.000000 0.000000 0.000000
# 4 0.000000 0.000000 0.000000 0.023624 0.000000 0.000000
# 5 0.000000 0.000000 0.000000 0.000000 0.031226 0.000000
# 6 0.000000 0.000000 0.000000 0.000000 0.000000 0.028873
#
#
# Mechanical properties :
#
#
# Convention : Reuss Voigt Hill
#
# Bulk Modulus (GPa) = -1025.02066 -181.56104 -603.29085
# Shear Modulus (GPa) = 37.84640 30.47327 34.15983
#
# Velocity S-wave (km/s) = 4.16551 3.73780 3.95744
# Velocity P-wave (km/s) = 21.13783 8.03819 15.99094
#
# Compressibility (1/GPa) = -0.00097559
#
# Stress axis : x y z
#
# Youngs Moduli (GPa) = 97.30536 289.61855 98.62047
#
# Poissons Ratio (x) = 0.78887 0.36139
# Poissons Ratio (y) = 0.26504 0.59511
# Poissons Ratio (z) = 0.35657 1.74765
#
# Static dielectric constant tensor:
#      x y z
#    x 1.807420 0.000000 0.000000 
#    y 0.000000 1.822790 0.000000 
#    z 0.000000 0.000000 1.803750 
# 
# From -- ./inp_files/60544.got.cif
#   From: 2010.05.17/outbox.cif.g08.bks.cpg/sg70_31_cif.got.tgz:60544.got - 2010.06.03 15:57:51.
