data_PCOD9516740
_publ_section_title
;
Structure prediction by ZEFSAII (Michael W. Deem and Ramdas Pophale) SiO2 
 PCOD9516740
Probable space group: F D D D
;
_chemical_formula_sum "Si O2"
_cell_formula_units_Z 136
_cell_length_a 17.521683
_cell_length_b 10.130831
_cell_length_c 30.934688
_cell_angle_alpha 90.000000
_cell_angle_beta 90.000000
_cell_angle_gamma 90.000000
_cell_volume 5491.192007
_symmetry_space_group_name_H-M "F D D D"
_symmetry_group_IT_number 70
_space_group.IT_coordinate_system_code '2'
_symmetry_cell_setting 'orthorhombic'
loop_
_space_group_symop_operation_xyz
x,y,z
1/4-x,1/4-y,z
x,1/4-y,1/4-z
1/4-x,y,1/4-z
-x,-y,-z
3/4+x,3/4+y,-z
-x,3/4+y,3/4+z
3/4+x,-y,3/4+z
x,1/2+y,1/2+z
1/4-x,3/4-y,1/2+z
x,3/4-y,3/4-z
1/4-x,1/2+y,3/4-z
-x,1/2-y,1/2-z
3/4+x,1/4+y,1/2-z
-x,1/4+y,1/4+z
3/4+x,1/2-y,1/4+z
1/2+x,y,1/2+z
3/4-x,1/4-y,1/2+z
1/2+x,1/4-y,3/4-z
3/4-x,y,3/4-z
1/2-x,-y,1/2-z
1/4+x,3/4+y,1/2-z
1/2-x,3/4+y,1/4+z
1/4+x,-y,1/4+z
1/2+x,1/2+y,z
3/4-x,3/4-y,z
1/2+x,3/4-y,1/4-z
3/4-x,1/2+y,1/4-z
1/2-x,1/2-y,-z
1/4+x,1/4+y,-z
1/2-x,1/4+y,3/4+z
1/4+x,1/2-y,3/4+z
loop_
_atom_site_type_symbol
_atom_site_label
_atom_site_fract_x
_atom_site_fract_y
_atom_site_fract_z
Si Si1 0.363927 0.223963 0.427070
Si Si2 0.520927 0.155138 0.459257
Si Si3 0.625000 0.125000 0.625000
Si Si4 0.383542 0.654250 0.175098
Si Si5 0.515753 0.994607 0.697176
O O1 0.375000 0.215559 0.375000
O O2 0.375000 0.375000 0.439524
O O3 0.431977 0.142244 0.449574
O O4 0.286340 0.159046 0.444301
O O5 0.551194 0.289375 0.436930
O O6 0.539462 0.180646 0.509133
O O7 0.562790 0.027985 0.439526
O O8 0.683829 0.200613 0.656966
O O9 0.384732 0.625000 0.125000
O O10 0.426274 0.528050 0.194477
#
# Coordination Sequence:
#
# PCOD9516740 Si02
#       5
#    32  32   8  32  32
#     4  11  25  45  71  99 143 204 248 296 374 457
#     4  11  25  44  69 106 145 187 239 317 364 441
#     4  12  20  36  70 108 132 184 234 318 380 432
#     4  11  23  42  69 106 141 184 233 300 375 429
#     4  12  22  43  71 106 143 185 253 306 371 439
#
# _framework density 24.766936000000001
#
# number of rings (size 3 to 8) (size 9 to 14) (size 15 to 20)
#    0.000    0.706    2.353    6.353    3.294    0.941 
#    0.000    0.000    0.000    0.000    0.000    0.000 
#    0.000    0.000    0.000    0.000    0.000    0.000 
#
# Total GULP energy -190208.939131 kJ/mol
# GULP energy per Si atom -5594.380563 kJ/mol
# Density = 2.471057 g / cm^3
# Si number density = 24.766936 Si / 1000 Ang^3
#
#
#
# Elastic Constant Matrix: (Units=GPa)
#
#
# Indices 1 2 3 4 5 6 
#
# 1 55.8518 39.9699 -5.9294 0.0000 0.0000 0.0000
# 2 39.9699 113.8534 32.0968 0.0000 0.0000 0.0000
# 3 -5.9294 32.0968 144.5341 0.0000 0.0000 0.0000
# 4 0.0000 0.0000 0.0000 19.4371 0.0000 0.0000
# 5 0.0000 0.0000 0.0000 0.0000 -310.9204 0.0000
# 6 0.0000 0.0000 0.0000 0.0000 0.0000 55.3646
#
#
#
# Elastic Compliance Matrix: (Units=1/GPa)
#
#
# Indices 1 2 3 4 5 6 
#
# 1 0.025229 -0.009760 0.003202 0.000000 0.000000 0.000000
# 2 -0.009760 0.013145 -0.003320 0.000000 0.000000 0.000000
# 3 0.003202 -0.003320 0.007787 0.000000 0.000000 0.000000
# 4 0.000000 0.000000 0.000000 0.051448 0.000000 0.000000
# 5 0.000000 0.000000 0.000000 0.000000 -0.003216 0.000000
# 6 0.000000 0.000000 0.000000 0.000000 0.000000 0.018062
#
#
# Mechanical properties :
#
#
# Convention : Reuss Voigt Hill
#
# Bulk Modulus (GPa) = 37.86776 49.61267 43.74022
# Shear Modulus (GPa) = 35.45792 -30.68361 2.38715
#
# Velocity S-wave (km/s) = 3.78784 -3.52361 0.98282
# Velocity P-wave (km/s) = 5.86968 1.87639 4.35741
#
# Compressibility (1/GPa) = 0.02640769
#
# Stress axis : x y z
#
# Youngs Moduli (GPa) = 39.63682 76.07218 128.41345
#
# Poissons Ratio (x) = 0.74245 -0.41123
# Poissons Ratio (y) = 0.38685 0.42628
# Poissons Ratio (z) = -0.12693 0.25253
#
# Static dielectric constant tensor:
#      x y z
#    x 1.767830 0.000000 0.000000 
#    y 0.000000 2.018370 0.000000 
#    z 0.000000 0.000000 1.943980 
# 
# From -- ./inp_files/60184.got.cif
#   From: 2010.05.17/outbox.cif.g08.bks.cpg/sg70_31_cif.got.tgz:60184.got - 2010.06.03 15:57:51.
