data_PCOD9516249
_publ_section_title
;
Structure prediction by ZEFSAII (Michael W. Deem and Ramdas Pophale) SiO2 
 PCOD9516249
Probable space group: F D D D
;
_chemical_formula_sum "Si O2"
_cell_formula_units_Z 176
_cell_length_a 28.591990
_cell_length_b 22.463788
_cell_length_c 12.968855
_cell_angle_alpha 90.000000
_cell_angle_beta 90.000000
_cell_angle_gamma 90.000000
_cell_volume 8329.693276
_symmetry_space_group_name_H-M "F D D D"
_symmetry_group_IT_number 70
_space_group.IT_coordinate_system_code '2'
_symmetry_cell_setting 'orthorhombic'
loop_
_space_group_symop_operation_xyz
x,y,z
1/4-x,1/4-y,z
x,1/4-y,1/4-z
1/4-x,y,1/4-z
-x,-y,-z
3/4+x,3/4+y,-z
-x,3/4+y,3/4+z
3/4+x,-y,3/4+z
x,1/2+y,1/2+z
1/4-x,3/4-y,1/2+z
x,3/4-y,3/4-z
1/4-x,1/2+y,3/4-z
-x,1/2-y,1/2-z
3/4+x,1/4+y,1/2-z
-x,1/4+y,1/4+z
3/4+x,1/2-y,1/4+z
1/2+x,y,1/2+z
3/4-x,1/4-y,1/2+z
1/2+x,1/4-y,3/4-z
3/4-x,y,3/4-z
1/2-x,-y,1/2-z
1/4+x,3/4+y,1/2-z
1/2-x,3/4+y,1/4+z
1/4+x,-y,1/4+z
1/2+x,1/2+y,z
3/4-x,3/4-y,z
1/2+x,3/4-y,1/4-z
3/4-x,1/2+y,1/4-z
1/2-x,1/2-y,-z
1/4+x,1/4+y,-z
1/2-x,1/4+y,3/4+z
1/4+x,1/2-y,3/4+z
loop_
_atom_site_type_symbol
_atom_site_label
_atom_site_fract_x
_atom_site_fract_y
_atom_site_fract_z
Si Si1 0.875000 0.375000 0.875000
Si Si2 0.946105 0.741675 0.715294
Si Si3 0.625000 0.801973 0.125000
Si Si4 0.200490 0.920869 0.969827
Si Si5 0.727250 0.875000 0.875000
Si Si6 0.052844 0.185842 0.972713
Si Si7 0.625000 0.125000 0.625000
Si Si8 0.944002 0.843078 0.549799
O O1 0.909637 0.409955 0.797626
O O2 0.910967 0.737858 0.809360
O O3 0.945451 0.676716 0.667917
O O4 0.934087 0.791536 0.632730
O O5 0.000000 0.750000 0.750000
O O6 0.658619 0.839755 0.199323
O O7 0.195339 0.875000 0.875000
O O8 0.198726 0.993191 0.954693
O O9 0.252133 0.911079 0.015789
O O10 0.758384 0.843757 0.784224
O O11 0.060629 0.154164 0.863280
O O12 0.093280 0.163612 0.048577
#
# Coordination Sequence:
#
# PCOD9516249 Si02
#       8
#     8  32  16  32  16  32   8  32
#     4  12  30  52  72 108 158 218 268 308 390 480
#     4  12  24  46  74 115 153 191 254 330 387 456
#     4  12  27  46  78 114 152 200 249 324 400 463
#     4  12  27  50  72 111 162 203 258 326 396 474
#     4  11  20  41  75 110 144 190 247 327 396 441
#     4  11  23  41  77 110 142 202 259 323 392 453
#     4  10  24  40  72 124 150 176 272 342 388 454
#     4  12  26  50  74 107 155 207 263 325 377 467
#
# _framework density 21.12923
#
# number of rings (size 3 to 8) (size 9 to 14) (size 15 to 20)
#    0.000    0.364    6.364    1.091    8.909    0.727 
#    0.000    1.818    0.000    0.000    0.000    0.000 
#    0.000    0.000    0.000    0.000    0.000    0.000 
#
# Total GULP energy -246043.357245 kJ/mol
# GULP energy per Si atom -5591.894483 kJ/mol
# Density = 2.108114 g / cm^3
# Si number density = 21.129230 Si / 1000 Ang^3
#
#
#
# Elastic Constant Matrix: (Units=GPa)
#
#
# Indices 1 2 3 4 5 6 
#
# 1 139.0976 34.7363 78.7131 0.0000 0.0000 0.0000
# 2 34.7363 152.6865 74.2143 0.0000 0.0000 0.0000
# 3 78.7131 74.2143 158.7739 0.0000 0.0000 0.0000
# 4 0.0000 0.0000 0.0000 53.1659 0.0000 0.0000
# 5 0.0000 0.0000 0.0000 0.0000 51.4930 0.0000
# 6 0.0000 0.0000 0.0000 0.0000 0.0000 15.9267
#
#
#
# Elastic Compliance Matrix: (Units=1/GPa)
#
#
# Indices 1 2 3 4 5 6 
#
# 1 0.009996 0.000174 -0.005037 0.000000 0.000000 0.000000
# 2 0.000174 0.008478 -0.004049 0.000000 0.000000 0.000000
# 3 -0.005037 -0.004049 0.010688 0.000000 0.000000 0.000000
# 4 0.000000 0.000000 0.000000 0.018809 0.000000 0.000000
# 5 0.000000 0.000000 0.000000 0.000000 0.019420 0.000000
# 6 0.000000 0.000000 0.000000 0.000000 0.000000 0.062788
#
#
# Mechanical properties :
#
#
# Convention : Reuss Voigt Hill
#
# Bulk Modulus (GPa) = 88.19840 91.76506 89.98173
# Shear Modulus (GPa) = 32.94200 41.64339 37.29270
#
# Velocity S-wave (km/s) = 3.95279 4.44429 4.20573
# Velocity P-wave (km/s) = 7.91617 8.35824 8.14021
#
# Compressibility (1/GPa) = 0.01133807
#
# Stress axis : x y z
#
# Youngs Moduli (GPa) = 100.03934 117.95493 93.56284
#
# Poissons Ratio (x) = -0.02054 0.47128
# Poissons Ratio (y) = -0.01742 0.37884
# Poissons Ratio (z) = 0.50390 0.47761
#
# Static dielectric constant tensor:
#      x y z
#    x 1.784490 0.000000 0.000000 
#    y 0.000000 1.738120 0.000000 
#    z 0.000000 0.000000 1.677000 
# 
# From -- ./inp_files/22318.got.cif
#   From: 2010.05.17/outbox.cif.g08.bks.cpg/sg70_12_cif.got.tgz:22318.got - 2010.06.03 15:57:51.
