data_PCOD9516163
_publ_section_title
;
Structure prediction by ZEFSAII (Michael W. Deem and Ramdas Pophale) SiO2 
 PCOD9516163
Probable space group: F D D D
;
_chemical_formula_sum "Si O2"
_cell_formula_units_Z 136
_cell_length_a 31.785573
_cell_length_b 12.791746
_cell_length_c 17.318649
_cell_angle_alpha 90.000000
_cell_angle_beta 90.000000
_cell_angle_gamma 90.000000
_cell_volume 7041.641042
_symmetry_space_group_name_H-M "F D D D"
_symmetry_group_IT_number 70
_space_group.IT_coordinate_system_code '2'
_symmetry_cell_setting 'orthorhombic'
loop_
_space_group_symop_operation_xyz
x,y,z
1/4-x,1/4-y,z
x,1/4-y,1/4-z
1/4-x,y,1/4-z
-x,-y,-z
3/4+x,3/4+y,-z
-x,3/4+y,3/4+z
3/4+x,-y,3/4+z
x,1/2+y,1/2+z
1/4-x,3/4-y,1/2+z
x,3/4-y,3/4-z
1/4-x,1/2+y,3/4-z
-x,1/2-y,1/2-z
3/4+x,1/4+y,1/2-z
-x,1/4+y,1/4+z
3/4+x,1/2-y,1/4+z
1/2+x,y,1/2+z
3/4-x,1/4-y,1/2+z
1/2+x,1/4-y,3/4-z
3/4-x,y,3/4-z
1/2-x,-y,1/2-z
1/4+x,3/4+y,1/2-z
1/2-x,3/4+y,1/4+z
1/4+x,-y,1/4+z
1/2+x,1/2+y,z
3/4-x,3/4-y,z
1/2+x,3/4-y,1/4-z
3/4-x,1/2+y,1/4-z
1/2-x,1/2-y,-z
1/4+x,1/4+y,-z
1/2-x,1/4+y,3/4+z
1/4+x,1/2-y,3/4+z
loop_
_atom_site_type_symbol
_atom_site_label
_atom_site_fract_x
_atom_site_fract_y
_atom_site_fract_z
Si Si1 0.830073 0.406672 0.577231
Si Si2 0.186771 0.198240 0.498933
Si Si3 0.262256 0.010499 0.161138
Si Si4 0.875000 0.375000 0.875000
Si Si5 0.521204 0.327127 0.512389
O O1 0.875000 0.375000 0.540921
O O2 0.835054 0.445884 0.665047
O O3 0.806187 0.298243 0.589993
O O4 0.798107 0.487706 0.533007
O O5 0.154291 0.190393 0.568105
O O6 0.221966 0.104679 0.508321
O O7 0.208168 0.310882 0.501287
O O8 0.265098 0.125000 0.125000
O O9 0.230737 0.298250 0.147222
O O10 0.250000 0.000000 0.250000
#
# Coordination Sequence:
#
# PCOD9516163 Si02
#       5
#    32  32  32   8  32
#     4  11  23  44  66  99 133 174 225 287 338 406
#     4  10  24  41  66  96 133 173 226 281 349 403
#     4  11  23  43  68  97 133 179 225 271 340 417
#     4  12  24  40  60 104 134 166 232 296 336 404
#     4  10  23  43  70  92 133 181 225 275 346 418
#
# _framework density 19.313679
#
# number of rings (size 3 to 8) (size 9 to 14) (size 15 to 20)
#    0.000    1.412    3.529    0.706    9.882    1.882 
#    4.235    1.176    0.000    0.000    0.000    0.000 
#    0.000    0.000    0.000    0.000    0.000    0.000 
#
# Total GULP energy -189294.167969 kJ/mol
# GULP energy per Si atom -5567.475528 kJ/mol
# Density = 1.926972 g / cm^3
# Si number density = 19.313679 Si / 1000 Ang^3
#
#
#
# Elastic Constant Matrix: (Units=GPa)
#
#
# Indices 1 2 3 4 5 6 
#
# 1 81.2135 24.3004 34.7245 0.0000 0.0000 0.0000
# 2 24.3004 87.1571 25.0982 0.0000 0.0000 0.0000
# 3 34.7245 25.0982 134.3472 0.0000 0.0000 0.0000
# 4 0.0000 0.0000 0.0000 27.2274 0.0000 0.0000
# 5 0.0000 0.0000 0.0000 0.0000 27.7447 0.0000
# 6 0.0000 0.0000 0.0000 0.0000 0.0000 16.3216
#
#
#
# Elastic Compliance Matrix: (Units=1/GPa)
#
#
# Indices 1 2 3 4 5 6 
#
# 1 0.014622 -0.003158 -0.003189 0.000000 0.000000 0.000000
# 2 -0.003158 0.012808 -0.001576 0.000000 0.000000 0.000000
# 3 -0.003189 -0.001576 0.008562 0.000000 0.000000 0.000000
# 4 0.000000 0.000000 0.000000 0.036728 0.000000 0.000000
# 5 0.000000 0.000000 0.000000 0.000000 0.036043 0.000000
# 6 0.000000 0.000000 0.000000 0.000000 0.000000 0.061268
#
#
# Mechanical properties :
#
#
# Convention : Reuss Voigt Hill
#
# Bulk Modulus (GPa) = 49.64228 52.32932 50.98580
# Shear Modulus (GPa) = 25.96134 28.83173 27.39654
#
# Velocity S-wave (km/s) = 3.67030 3.86789 3.77039
# Velocity P-wave (km/s) = 6.61215 6.86299 6.73874
#
# Compressibility (1/GPa) = 0.02014412
#
# Stress axis : x y z
#
# Youngs Moduli (GPa) = 68.39061 78.07576 116.79207
#
# Poissons Ratio (x) = 0.24659 0.37248
# Poissons Ratio (y) = 0.21600 0.18411
# Poissons Ratio (z) = 0.21812 0.12308
#
# Static dielectric constant tensor:
#      x y z
#    x 1.733520 0.000000 0.000000 
#    y 0.000000 1.623860 0.000000 
#    z 0.000000 0.000000 1.906530 
# 
# From -- ./inp_files/47501.got.cif
#   From: 2010.05.17/outbox.cif.g08.bks.cpg/sg70_24_cif.got.tgz:47501.got - 2010.06.03 15:57:51.
