data_PCOD9516336
_publ_section_title
;
Structure prediction by ZEFSAII (Michael W. Deem and Ramdas Pophale) SiO2 
 PCOD9516336
Probable space group: F D D D
;
_chemical_formula_sum "Si O2"
_cell_formula_units_Z 80
_cell_length_a 4.952260
_cell_length_b 30.447208
_cell_length_c 22.666601
_cell_angle_alpha 90.000000
_cell_angle_beta 90.000000
_cell_angle_gamma 90.000000
_cell_volume 3417.726545
_symmetry_space_group_name_H-M "F D D D"
_symmetry_group_IT_number 70
_space_group.IT_coordinate_system_code '2'
_symmetry_cell_setting 'orthorhombic'
loop_
_space_group_symop_operation_xyz
x,y,z
1/4-x,1/4-y,z
x,1/4-y,1/4-z
1/4-x,y,1/4-z
-x,-y,-z
3/4+x,3/4+y,-z
-x,3/4+y,3/4+z
3/4+x,-y,3/4+z
x,1/2+y,1/2+z
1/4-x,3/4-y,1/2+z
x,3/4-y,3/4-z
1/4-x,1/2+y,3/4-z
-x,1/2-y,1/2-z
3/4+x,1/4+y,1/2-z
-x,1/4+y,1/4+z
3/4+x,1/2-y,1/4+z
1/2+x,y,1/2+z
3/4-x,1/4-y,1/2+z
1/2+x,1/4-y,3/4-z
3/4-x,y,3/4-z
1/2-x,-y,1/2-z
1/4+x,3/4+y,1/2-z
1/2-x,3/4+y,1/4+z
1/4+x,-y,1/4+z
1/2+x,1/2+y,z
3/4-x,3/4-y,z
1/2+x,3/4-y,1/4-z
3/4-x,1/2+y,1/4-z
1/2-x,1/2-y,-z
1/4+x,1/4+y,-z
1/2-x,1/4+y,3/4+z
1/4+x,1/2-y,3/4+z
loop_
_atom_site_type_symbol
_atom_site_label
_atom_site_fract_x
_atom_site_fract_y
_atom_site_fract_z
Si Si1 0.891077 0.595554 0.715437
Si Si2 0.112755 0.557642 0.836204
Si Si3 0.625000 0.028994 0.125000
O O1 0.625000 0.625000 0.731143
O O2 0.785531 0.558798 0.670787
O O3 0.125000 0.625000 0.687625
O O4 0.050018 0.574713 0.771243
O O5 0.375000 0.566482 0.875000
O O6 0.875000 0.577954 0.875000
O O7 0.063876 0.504952 0.838782
#
# Coordination Sequence:
#
# PCOD9516336 Si02
#       3
#    32  32  16
#     4  12  27  45  73 113 154 194 253 319 381 440
#     4  10  24  45  77 102 147 198 256 301 372 456
#     4  10  27  46  76 102 154 200 254 298 380 462
#
# _framework density 23.407374000000001
#
# number of rings (size 3 to 8) (size 9 to 14) (size 15 to 20)
#    1.200    0.000    0.000    4.200    5.600    6.400 
#    0.000    0.000    0.000    0.000    0.000    0.000 
#    0.000    0.000    0.000    0.000    0.000    0.000 
#
# Total GULP energy -111710.134390 kJ/mol
# GULP energy per Si atom -5585.506720 kJ/mol
# Density = 2.335410 g / cm^3
# Si number density = 23.407374 Si / 1000 Ang^3
#
#
#
# Elastic Constant Matrix: (Units=GPa)
#
#
# Indices 1 2 3 4 5 6 
#
# 1 216.1594 81.5743 85.9380 0.0000 0.0000 0.0000
# 2 81.5743 169.1012 100.5436 0.0000 0.0000 0.0000
# 3 85.9380 100.5436 206.1671 0.0000 0.0000 0.0000
# 4 0.0000 0.0000 0.0000 144.7906 0.0000 0.0000
# 5 0.0000 0.0000 0.0000 0.0000 -1.8566 0.0000
# 6 0.0000 0.0000 0.0000 0.0000 0.0000 68.5904
#
#
#
# Elastic Compliance Matrix: (Units=1/GPa)
#
#
# Indices 1 2 3 4 5 6 
#
# 1 0.005980 -0.001975 -0.001529 0.000000 0.000000 0.000000
# 2 -0.001975 0.008981 -0.003557 0.000000 0.000000 0.000000
# 3 -0.001529 -0.003557 0.007222 0.000000 0.000000 0.000000
# 4 0.000000 0.000000 0.000000 0.006907 0.000000 0.000000
# 5 0.000000 0.000000 0.000000 0.000000 -0.538620 0.000000
# 6 0.000000 0.000000 0.000000 0.000000 0.000000 0.014579
#
#
# Mechanical properties :
#
#
# Convention : Reuss Voigt Hill
#
# Bulk Modulus (GPa) = 124.05490 125.28219 124.66854
# Shear Modulus (GPa) = -10.45715 63.86299 26.70292
#
# Velocity S-wave (km/s) = -2.11593 5.22901 3.38122
# Velocity P-wave (km/s) = 6.86613 9.49186 8.28369
#
# Compressibility (1/GPa) = 0.00806095
#
# Stress axis : x y z
#
# Youngs Moduli (GPa) = 167.23442 111.34426 138.45987
#
# Poissons Ratio (x) = 0.21994 0.21173
# Poissons Ratio (y) = 0.33035 0.49244
# Poissons Ratio (z) = 0.25573 0.39600
#
# Static dielectric constant tensor:
#      x y z
#    x 1.903630 0.000000 0.000000 
#    y 0.000000 1.928500 0.000000 
#    z 0.000000 0.000000 1.731800 
# 
# From -- ./inp_files/48295.got.cif
#   From: 2010.05.17/outbox.cif.g08.bks.cpg/sg70_25_cif.got.tgz:48295.got - 2010.06.03 15:57:51.
