data_PCOD9516675
_publ_section_title
;
Structure prediction by ZEFSAII (Michael W. Deem and Ramdas Pophale) SiO2 
 PCOD9516675
Probable space group: F D D D
;
_chemical_formula_sum "Si O2"
_cell_formula_units_Z 96
_cell_length_a 10.449363
_cell_length_b 28.063018
_cell_length_c 13.196540
_cell_angle_alpha 90.000000
_cell_angle_beta 90.000000
_cell_angle_gamma 90.000000
_cell_volume 3869.762125
_symmetry_space_group_name_H-M "F D D D"
_symmetry_group_IT_number 70
_space_group.IT_coordinate_system_code '2'
_symmetry_cell_setting 'orthorhombic'
loop_
_space_group_symop_operation_xyz
x,y,z
1/4-x,1/4-y,z
x,1/4-y,1/4-z
1/4-x,y,1/4-z
-x,-y,-z
3/4+x,3/4+y,-z
-x,3/4+y,3/4+z
3/4+x,-y,3/4+z
x,1/2+y,1/2+z
1/4-x,3/4-y,1/2+z
x,3/4-y,3/4-z
1/4-x,1/2+y,3/4-z
-x,1/2-y,1/2-z
3/4+x,1/4+y,1/2-z
-x,1/4+y,1/4+z
3/4+x,1/2-y,1/4+z
1/2+x,y,1/2+z
3/4-x,1/4-y,1/2+z
1/2+x,1/4-y,3/4-z
3/4-x,y,3/4-z
1/2-x,-y,1/2-z
1/4+x,3/4+y,1/2-z
1/2-x,3/4+y,1/4+z
1/4+x,-y,1/4+z
1/2+x,1/2+y,z
3/4-x,3/4-y,z
1/2+x,3/4-y,1/4-z
3/4-x,1/2+y,1/4-z
1/2-x,1/2-y,-z
1/4+x,1/4+y,-z
1/2-x,1/4+y,3/4+z
1/4+x,1/2-y,3/4+z
loop_
_atom_site_type_symbol
_atom_site_label
_atom_site_fract_x
_atom_site_fract_y
_atom_site_fract_z
Si Si1 0.670447 0.673758 0.007439
Si Si2 0.937568 0.015766 0.271809
Si Si3 0.193057 0.821704 0.835133
O O1 0.625000 0.625000 0.956217
O O2 0.625000 0.670910 0.125000
O O3 0.585608 0.717732 0.973520
O O4 0.678008 0.824361 0.990873
O O5 0.875000 0.032983 0.375000
O O6 0.861497 0.040553 0.180518
O O7 0.946492 0.958285 0.278619
O O8 0.221162 0.875000 0.875000
#
# Coordination Sequence:
#
# PCOD9516675 Si02
#       3
#    32  32  32
#     4   9  16  38  65  84 120 169 211 258 308 375
#     4  11  23  40  62  97 132 164 216 274 321 386
#     4  11  22  44  67  90 132 178 215 265 323 390
#
# _framework density 24.807725000000001
#
# number of rings (size 3 to 8) (size 9 to 14) (size 15 to 20)
#    0.000    1.667    6.667    2.000    0.000    0.667 
#    6.000    1.667    0.000    0.000    0.000    0.000 
#    0.000    0.000    0.000    0.000    0.000    0.000 
#
# Total GULP energy -134057.558472 kJ/mol
# GULP energy per Si atom -5585.731603 kJ/mol
# Density = 2.475126 g / cm^3
# Si number density = 24.807725 Si / 1000 Ang^3
#
#
#
# Elastic Constant Matrix: (Units=GPa)
#
#
# Indices 1 2 3 4 5 6 
#
# 1 84.3910 29.8876 16.0354 0.0000 0.0000 0.0000
# 2 29.8876 197.0255 47.4026 0.0000 0.0000 0.0000
# 3 16.0354 47.4026 60.0201 0.0000 0.0000 0.0000
# 4 0.0000 0.0000 0.0000 1.1177 0.0000 0.0000
# 5 0.0000 0.0000 0.0000 0.0000 14.8622 0.0000
# 6 0.0000 0.0000 0.0000 0.0000 0.0000 24.2127
#
#
#
# Elastic Compliance Matrix: (Units=1/GPa)
#
#
# Indices 1 2 3 4 5 6 
#
# 1 0.012780 -0.001379 -0.002325 0.000000 0.000000 0.000000
# 2 -0.001379 0.006415 -0.004698 0.000000 0.000000 0.000000
# 3 -0.002325 -0.004698 0.020993 0.000000 0.000000 0.000000
# 4 0.000000 0.000000 0.000000 0.894708 0.000000 0.000000
# 5 0.000000 0.000000 0.000000 0.000000 0.067285 0.000000
# 6 0.000000 0.000000 0.000000 0.000000 0.000000 0.041301
#
#
# Mechanical properties :
#
#
# Convention : Reuss Voigt Hill
#
# Bulk Modulus (GPa) = 42.76617 58.67643 50.72130
# Shear Modulus (GPa) = 4.68130 24.57925 14.63027
#
# Velocity S-wave (km/s) = 1.37518 3.15110 2.43110
# Velocity P-wave (km/s) = 4.44949 6.07808 5.32640
#
# Compressibility (1/GPa) = 0.02338297
#
# Stress axis : x y z
#
# Youngs Moduli (GPa) = 78.24808 155.88489 47.63582
#
# Poissons Ratio (x) = 0.21500 0.11076
# Poissons Ratio (y) = 0.10792 0.22379
# Poissons Ratio (z) = 0.18193 0.73234
#
# Static dielectric constant tensor:
#      x y z
#    x 2.050590 0.000000 0.000000 
#    y 0.000000 2.068420 0.000000 
#    z 0.000000 0.000000 1.986110 
# 
# From -- ./inp_files/18391.got.cif
#   From: 2010.05.17/outbox.cif.g08.bks.cpg/sg70_10_cif.got.tgz:18391.got - 2010.06.03 15:57:51.
