data_PCOD9516729
_publ_section_title
;
Structure prediction by ZEFSAII (Michael W. Deem and Ramdas Pophale) SiO2 
 PCOD9516729
Probable space group: F D D D
;
_chemical_formula_sum "Si O2"
_cell_formula_units_Z 168
_cell_length_a 14.227886
_cell_length_b 27.833267
_cell_length_c 20.672388
_cell_angle_alpha 90.000000
_cell_angle_beta 90.000000
_cell_angle_gamma 90.000000
_cell_volume 8186.442395
_symmetry_space_group_name_H-M "F D D D"
_symmetry_group_IT_number 70
_space_group.IT_coordinate_system_code '2'
_symmetry_cell_setting 'orthorhombic'
loop_
_space_group_symop_operation_xyz
x,y,z
1/4-x,1/4-y,z
x,1/4-y,1/4-z
1/4-x,y,1/4-z
-x,-y,-z
3/4+x,3/4+y,-z
-x,3/4+y,3/4+z
3/4+x,-y,3/4+z
x,1/2+y,1/2+z
1/4-x,3/4-y,1/2+z
x,3/4-y,3/4-z
1/4-x,1/2+y,3/4-z
-x,1/2-y,1/2-z
3/4+x,1/4+y,1/2-z
-x,1/4+y,1/4+z
3/4+x,1/2-y,1/4+z
1/2+x,y,1/2+z
3/4-x,1/4-y,1/2+z
1/2+x,1/4-y,3/4-z
3/4-x,y,3/4-z
1/2-x,-y,1/2-z
1/4+x,3/4+y,1/2-z
1/2-x,3/4+y,1/4+z
1/4+x,-y,1/4+z
1/2+x,1/2+y,z
3/4-x,3/4-y,z
1/2+x,3/4-y,1/4-z
3/4-x,1/2+y,1/4-z
1/2-x,1/2-y,-z
1/4+x,1/4+y,-z
1/2-x,1/4+y,3/4+z
1/4+x,1/2-y,3/4+z
loop_
_atom_site_type_symbol
_atom_site_label
_atom_site_fract_x
_atom_site_fract_y
_atom_site_fract_z
Si Si1 0.875000 0.875000 0.375000
Si Si2 0.756573 0.307107 0.779572
Si Si3 0.237745 0.696726 0.815954
Si Si4 0.625000 0.125000 0.520631
Si Si5 0.198946 0.204028 0.466659
Si Si6 0.971451 0.125000 0.125000
Si Si7 0.854299 0.144099 0.013382
O O1 0.807976 0.912183 0.414301
O O2 0.735622 0.252926 0.800217
O O3 0.837676 0.299605 0.725695
O O4 0.663022 0.336841 0.760034
O O5 0.160427 0.667650 0.774919
O O6 0.224039 0.695218 0.892417
O O7 0.333006 0.670194 0.790988
O O8 0.541675 0.107383 0.568573
O O9 0.250000 0.250000 0.500000
O O10 0.248963 0.162172 0.506303
O O11 0.902165 0.157659 0.081952
#
# Coordination Sequence:
#
# PCOD9516729 Si02
#       7
#     8  32  32  16  32  16  32
#     4  12  22  38  58 102 132 174 220 272 328 424
#     4  12  25  40  70 101 135 185 225 278 351 416
#     4  11  26  44  69 101 138 183 232 288 359 411
#     4   9  22  47  74  93 134 189 228 306 342 409
#     4  12  24  42  65 104 142 181 222 285 360 420
#     4   9  21  44  72  94 128 180 247 273 354 402
#     4  11  23  41  68  98 135 176 228 289 333 420
#
# _framework density 20.521735
#
# number of rings (size 3 to 8) (size 9 to 14) (size 15 to 20)
#    0.000    0.952    3.810    2.286    5.333    0.000 
#    0.000    3.810   16.762    0.000    0.000    0.000 
#    0.000    0.000    0.000    0.000    0.000    0.000 
#
# Total GULP energy -234074.387762 kJ/mol
# GULP energy per Si atom -5573.199709 kJ/mol
# Density = 2.047503 g / cm^3
# Si number density = 20.521735 Si / 1000 Ang^3
#
#
#
# Elastic Constant Matrix: (Units=GPa)
#
#
# Indices 1 2 3 4 5 6 
#
# 1 77.8363 50.6744 43.1820 0.0000 0.0000 0.0000
# 2 50.6744 146.7923 62.2436 0.0000 0.0000 0.0000
# 3 43.1820 62.2436 149.1236 0.0000 0.0000 0.0000
# 4 0.0000 0.0000 0.0000 25.0064 0.0000 0.0000
# 5 0.0000 0.0000 0.0000 0.0000 24.5560 0.0000
# 6 0.0000 0.0000 0.0000 0.0000 0.0000 38.4228
#
#
#
# Elastic Compliance Matrix: (Units=1/GPa)
#
#
# Indices 1 2 3 4 5 6 
#
# 1 0.017697 -0.004783 -0.003128 0.000000 0.000000 0.000000
# 2 -0.004783 0.009570 -0.002610 0.000000 0.000000 0.000000
# 3 -0.003128 -0.002610 0.008701 0.000000 0.000000 0.000000
# 4 0.000000 0.000000 0.000000 0.039990 0.000000 0.000000
# 5 0.000000 0.000000 0.000000 0.000000 0.040723 0.000000
# 6 0.000000 0.000000 0.000000 0.000000 0.000000 0.026026
#
#
# Mechanical properties :
#
#
# Convention : Reuss Voigt Hill
#
# Bulk Modulus (GPa) = 66.99411 76.21691 71.60551
# Shear Modulus (GPa) = 29.63439 32.10717 30.87078
#
# Velocity S-wave (km/s) = 3.80419 3.95972 3.88273
# Velocity P-wave (km/s) = 7.21194 7.62405 7.42086
#
# Compressibility (1/GPa) = 0.01492668
#
# Stress axis : x y z
#
# Youngs Moduli (GPa) = 56.50804 104.49468 114.93093
#
# Poissons Ratio (x) = 0.49976 0.35952
# Poissons Ratio (y) = 0.27026 0.29991
# Poissons Ratio (z) = 0.17677 0.27268
#
# Static dielectric constant tensor:
#      x y z
#    x 1.779740 0.000000 0.000000 
#    y 0.000000 1.849940 0.000000 
#    z 0.000000 0.000000 1.796450 
# 
# From -- ./inp_files/31117.got.cif
#   From: 2010.05.17/outbox.cif.g08.bks.cpg/sg70_16_cif.got.tgz:31117.got - 2010.06.03 15:57:51.
