data_PCOD9516552
_publ_section_title
;
Structure prediction by ZEFSAII (Michael W. Deem and Ramdas Pophale) SiO2 
 PCOD9516552
Probable space group: F D D D
;
_chemical_formula_sum "Si O2"
_cell_formula_units_Z 168
_cell_length_a 19.222932
_cell_length_b 16.167944
_cell_length_c 23.086077
_cell_angle_alpha 90.000000
_cell_angle_beta 90.000000
_cell_angle_gamma 90.000000
_cell_volume 7175.043952
_symmetry_space_group_name_H-M "F D D D"
_symmetry_group_IT_number 70
_space_group.IT_coordinate_system_code '2'
_symmetry_cell_setting 'orthorhombic'
loop_
_space_group_symop_operation_xyz
x,y,z
1/4-x,1/4-y,z
x,1/4-y,1/4-z
1/4-x,y,1/4-z
-x,-y,-z
3/4+x,3/4+y,-z
-x,3/4+y,3/4+z
3/4+x,-y,3/4+z
x,1/2+y,1/2+z
1/4-x,3/4-y,1/2+z
x,3/4-y,3/4-z
1/4-x,1/2+y,3/4-z
-x,1/2-y,1/2-z
3/4+x,1/4+y,1/2-z
-x,1/4+y,1/4+z
3/4+x,1/2-y,1/4+z
1/2+x,y,1/2+z
3/4-x,1/4-y,1/2+z
1/2+x,1/4-y,3/4-z
3/4-x,y,3/4-z
1/2-x,-y,1/2-z
1/4+x,3/4+y,1/2-z
1/2-x,3/4+y,1/4+z
1/4+x,-y,1/4+z
1/2+x,1/2+y,z
3/4-x,3/4-y,z
1/2+x,3/4-y,1/4-z
3/4-x,1/2+y,1/4-z
1/2-x,1/2-y,-z
1/4+x,1/4+y,-z
1/2-x,1/4+y,3/4+z
1/4+x,1/2-y,3/4+z
loop_
_atom_site_type_symbol
_atom_site_label
_atom_site_fract_x
_atom_site_fract_y
_atom_site_fract_z
Si Si1 0.889422 0.279090 0.942593
Si Si2 0.283703 0.016586 0.312857
Si Si3 0.784662 0.544274 0.587645
Si Si4 0.045908 0.624388 0.345329
Si Si5 0.659958 0.879693 0.518498
Si Si6 0.625000 0.625000 0.125000
O O1 0.875000 0.255609 0.875000
O O2 0.875000 0.375000 0.947552
O O3 0.848958 0.218742 0.984606
O O4 0.970460 0.266940 0.951894
O O5 0.323461 0.935386 0.338187
O O6 0.250000 0.000000 0.250000
O O7 0.225227 0.056893 0.355097
O O8 0.346485 0.083105 0.305418
O O9 0.764460 0.625000 0.625000
O O10 0.794519 0.465971 0.627380
O O11 0.842511 0.575408 0.543304
O O12 0.125000 0.625000 0.323322
O O13 0.984004 0.611367 0.299829
#
# Coordination Sequence:
#
# PCOD9516552 Si02
#       6
#    32  32  32  32  32   8
#     4  11  20  43  73  97 140 196 243 302 379 455
#     4  12  27  51  85 115 159 207 271 341 404 487
#     4  12  26  44  72 109 149 194 259 313 384 471
#     4  12  26  50  73 112 158 199 261 329 396 476
#     4  12  25  48  78 110 151 209 257 327 403 474
#     4  12  28  52  92 124 154 220 282 328 438 484
#
# _framework density 23.414490000000001
#
# number of rings (size 3 to 8) (size 9 to 14) (size 15 to 20)
#    0.000    0.190    7.619    1.143    4.000    5.333 
#    6.857    0.000    0.000    0.000    0.000    0.000 
#    0.000    0.000    0.000    0.000    0.000    0.000 
#
# Total GULP energy -234793.591392 kJ/mol
# GULP energy per Si atom -5590.323605 kJ/mol
# Density = 2.336120 g / cm^3
# Si number density = 23.414490 Si / 1000 Ang^3
#
#
#
# Elastic Constant Matrix: (Units=GPa)
#
#
# Indices 1 2 3 4 5 6 
#
# 1 115.6385 27.9642 33.9056 0.0000 0.0000 0.0000
# 2 27.9642 145.6590 58.5054 0.0000 0.0000 0.0000
# 3 33.9056 58.5054 107.1592 0.0000 0.0000 0.0000
# 4 0.0000 0.0000 0.0000 23.0396 0.0000 0.0000
# 5 0.0000 0.0000 0.0000 0.0000 7.2093 0.0000
# 6 0.0000 0.0000 0.0000 0.0000 0.0000 17.6009
#
#
#
# Elastic Compliance Matrix: (Units=1/GPa)
#
#
# Indices 1 2 3 4 5 6 
#
# 1 0.009604 -0.000798 -0.002603 0.000000 0.000000 0.000000
# 2 -0.000798 0.008860 -0.004585 0.000000 0.000000 0.000000
# 3 -0.002603 -0.004585 0.012659 0.000000 0.000000 0.000000
# 4 0.000000 0.000000 0.000000 0.043404 0.000000 0.000000
# 5 0.000000 0.000000 0.000000 0.000000 0.138710 0.000000
# 6 0.000000 0.000000 0.000000 0.000000 0.000000 0.056815
#
#
# Mechanical properties :
#
#
# Convention : Reuss Voigt Hill
#
# Bulk Modulus (GPa) = 66.00340 67.68970 66.84655
# Shear Modulus (GPa) = 17.17780 26.10873 21.64326
#
# Velocity S-wave (km/s) = 2.71152 3.34288 3.04362
# Velocity P-wave (km/s) = 6.16875 6.62359 6.40021
#
# Compressibility (1/GPa) = 0.01515073
#
# Stress axis : x y z
#
# Youngs Moduli (GPa) = 104.12491 112.86525 78.99788
#
# Poissons Ratio (x) = 0.09010 0.20562
# Poissons Ratio (y) = 0.08313 0.36218
# Poissons Ratio (z) = 0.27102 0.51746
#
# Static dielectric constant tensor:
#      x y z
#    x 1.956220 0.000000 0.000000 
#    y 0.000000 1.977360 0.000000 
#    z 0.000000 0.000000 1.943330 
# 
# From -- ./inp_files/60301.got.cif
#   From: 2010.05.17/outbox.cif.g08.bks.cpg/sg70_31_cif.got.tgz:60301.got - 2010.06.03 15:57:51.
