data_PCOD9516582
_publ_section_title
;
Structure prediction by ZEFSAII (Michael W. Deem and Ramdas Pophale) SiO2 
 PCOD9516582
Probable space group: F D D D
;
_chemical_formula_sum "Si O2"
_cell_formula_units_Z 136
_cell_length_a 12.016845
_cell_length_b 15.223851
_cell_length_c 26.985270
_cell_angle_alpha 90.000000
_cell_angle_beta 90.000000
_cell_angle_gamma 90.000000
_cell_volume 4936.757014
_symmetry_space_group_name_H-M "F D D D"
_symmetry_group_IT_number 70
_space_group.IT_coordinate_system_code '2'
_symmetry_cell_setting 'orthorhombic'
loop_
_space_group_symop_operation_xyz
x,y,z
1/4-x,1/4-y,z
x,1/4-y,1/4-z
1/4-x,y,1/4-z
-x,-y,-z
3/4+x,3/4+y,-z
-x,3/4+y,3/4+z
3/4+x,-y,3/4+z
x,1/2+y,1/2+z
1/4-x,3/4-y,1/2+z
x,3/4-y,3/4-z
1/4-x,1/2+y,3/4-z
-x,1/2-y,1/2-z
3/4+x,1/4+y,1/2-z
-x,1/4+y,1/4+z
3/4+x,1/2-y,1/4+z
1/2+x,y,1/2+z
3/4-x,1/4-y,1/2+z
1/2+x,1/4-y,3/4-z
3/4-x,y,3/4-z
1/2-x,-y,1/2-z
1/4+x,3/4+y,1/2-z
1/2-x,3/4+y,1/4+z
1/4+x,-y,1/4+z
1/2+x,1/2+y,z
3/4-x,3/4-y,z
1/2+x,3/4-y,1/4-z
3/4-x,1/2+y,1/4-z
1/2-x,1/2-y,-z
1/4+x,1/4+y,-z
1/2-x,1/4+y,3/4+z
1/4+x,1/2-y,3/4+z
loop_
_atom_site_type_symbol
_atom_site_label
_atom_site_fract_x
_atom_site_fract_y
_atom_site_fract_z
Si Si1 0.625000 0.625000 0.125000
Si Si2 0.749126 0.021097 0.133656
Si Si3 0.337445 0.287507 0.050942
Si Si4 0.050374 0.765771 0.951267
Si Si5 0.119542 0.359448 0.219778
O O1 0.715751 0.573600 0.086485
O O2 0.741743 0.125000 0.125000
O O3 0.625000 0.984865 0.125000
O O4 0.823219 0.013953 0.182280
O O5 0.830666 0.976431 0.095156
O O6 0.375000 0.375000 0.021673
O O7 0.215045 0.313377 0.068494
O O8 0.343799 0.202200 0.017857
O O9 0.991522 0.670666 0.954599
O O10 0.076759 0.798864 0.008256
#
# Coordination Sequence:
#
# PCOD9516582 Si02
#       5
#     8  32  32  32  32
#     4  12  20  36  66 104 132 180 252 274 366 428
#     4  11  24  45  71  91 138 189 234 276 351 437
#     4  11  21  41  67 100 139 180 223 300 354 411
#     4  12  22  42  71 108 134 193 239 302 356 434
#     4  11  22  38  69 103 140 174 235 300 362 410
#
# _framework density 27.548449999999999
#
# number of rings (size 3 to 8) (size 9 to 14) (size 15 to 20)
#    0.000    0.706    5.882    4.235    0.000    0.000 
#    4.235    1.176   10.353    0.000    0.000    0.000 
#    0.000    0.000    0.000    0.000    0.000    0.000 
#
# Total GULP energy -189585.721019 kJ/mol
# GULP energy per Si atom -5576.050618 kJ/mol
# Density = 2.748575 g / cm^3
# Si number density = 27.548450 Si / 1000 Ang^3
#
#
#
# Elastic Constant Matrix: (Units=GPa)
#
#
# Indices 1 2 3 4 5 6 
#
# 1 232.8949 27.6534 37.7618 0.0000 0.0000 0.0000
# 2 27.6534 72.5231 -0.5350 0.0000 0.0000 0.0000
# 3 37.7618 -0.5350 79.3986 0.0000 0.0000 0.0000
# 4 0.0000 0.0000 0.0000 33.8221 0.0000 0.0000
# 5 0.0000 0.0000 0.0000 0.0000 209.9449 0.0000
# 6 0.0000 0.0000 0.0000 0.0000 0.0000 12.3937
#
#
#
# Elastic Compliance Matrix: (Units=1/GPa)
#
#
# Indices 1 2 3 4 5 6 
#
# 1 0.004897 -0.001885 -0.002342 0.000000 0.000000 0.000000
# 2 -0.001885 0.014515 0.000994 0.000000 0.000000 0.000000
# 3 -0.002342 0.000994 0.013715 0.000000 0.000000 0.000000
# 4 0.000000 0.000000 0.000000 0.029566 0.000000 0.000000
# 5 0.000000 0.000000 0.000000 0.000000 0.004763 0.000000
# 6 0.000000 0.000000 0.000000 0.000000 0.000000 0.080686
#
#
# Mechanical properties :
#
#
# Convention : Reuss Voigt Hill
#
# Bulk Modulus (GPa) = 37.50598 57.17523 47.34060
# Shear Modulus (GPa) = 30.58198 72.56124 51.57161
#
# Velocity S-wave (km/s) = 3.33546 5.13777 4.33139
# Velocity P-wave (km/s) = 5.33646 7.48298 6.49896
#
# Compressibility (1/GPa) = 0.02666242
#
# Stress axis : x y z
#
# Youngs Moduli (GPa) = 204.19560 68.89587 72.91205
#
# Poissons Ratio (x) = 0.12984 0.17075
# Poissons Ratio (y) = 0.38483 -0.07248
# Poissons Ratio (z) = 0.47819 -0.06849
#
# Static dielectric constant tensor:
#      x y z
#    x 2.258810 0.000000 0.000000 
#    y 0.000000 2.203080 0.000000 
#    z 0.000000 0.000000 2.233510 
# 
# From -- ./inp_files/64579.got.cif
#   From: 2010.05.17/outbox.cif.g08.bks.cpg/sg70_33_cif.got.tgz:64579.got - 2010.06.03 15:57:51.
