data_PCOD9516689
_publ_section_title
;
Structure prediction by ZEFSAII (Michael W. Deem and Ramdas Pophale) SiO2 
 PCOD9516689
Probable space group: F D D D
;
_chemical_formula_sum "Si O2"
_cell_formula_units_Z 136
_cell_length_a 15.089905
_cell_length_b 16.926379
_cell_length_c 25.948088
_cell_angle_alpha 90.000000
_cell_angle_beta 90.000000
_cell_angle_gamma 90.000000
_cell_volume 6627.594498
_symmetry_space_group_name_H-M "F D D D"
_symmetry_group_IT_number 70
_space_group.IT_coordinate_system_code '2'
_symmetry_cell_setting 'orthorhombic'
loop_
_space_group_symop_operation_xyz
x,y,z
1/4-x,1/4-y,z
x,1/4-y,1/4-z
1/4-x,y,1/4-z
-x,-y,-z
3/4+x,3/4+y,-z
-x,3/4+y,3/4+z
3/4+x,-y,3/4+z
x,1/2+y,1/2+z
1/4-x,3/4-y,1/2+z
x,3/4-y,3/4-z
1/4-x,1/2+y,3/4-z
-x,1/2-y,1/2-z
3/4+x,1/4+y,1/2-z
-x,1/4+y,1/4+z
3/4+x,1/2-y,1/4+z
1/2+x,y,1/2+z
3/4-x,1/4-y,1/2+z
1/2+x,1/4-y,3/4-z
3/4-x,y,3/4-z
1/2-x,-y,1/2-z
1/4+x,3/4+y,1/2-z
1/2-x,3/4+y,1/4+z
1/4+x,-y,1/4+z
1/2+x,1/2+y,z
3/4-x,3/4-y,z
1/2+x,3/4-y,1/4-z
3/4-x,1/2+y,1/4-z
1/2-x,1/2-y,-z
1/4+x,1/4+y,-z
1/2-x,1/4+y,3/4+z
1/4+x,1/2-y,3/4+z
loop_
_atom_site_type_symbol
_atom_site_label
_atom_site_fract_x
_atom_site_fract_y
_atom_site_fract_z
Si Si1 0.625000 0.625000 0.125000
Si Si2 0.477123 0.907927 0.013640
Si Si3 0.730563 0.145700 0.866759
Si Si4 0.002608 0.740826 0.688578
Si Si5 0.553284 0.937387 0.829755
O O1 0.568783 0.678855 0.163641
O O2 0.375000 0.875000 0.009300
O O3 0.529739 0.853052 0.973966
O O4 0.503282 0.896934 0.073129
O O5 0.500000 0.000000 0.000000
O O6 0.625000 0.125000 0.863868
O O7 0.746932 0.230882 0.841527
O O8 0.774884 0.075617 0.835599
O O9 0.906061 0.711111 0.670647
O O10 0.000000 0.750000 0.750000
O O11 0.534869 0.875000 0.875000
#
# Coordination Sequence:
#
# PCOD9516689 Si02
#       5
#     8  32  32  32  32
#     4  12  28  48  72 108 140 180 248 288 354 444
#     4  11  24  43  70 103 139 186 235 292 359 430
#     4   9  22  44  66  96 135 179 227 282 352 418
#     4  11  27  45  70 102 137 185 234 291 356 425
#     4  11  22  45  70  96 142 180 230 295 352 419
#
# _framework density 20.520265999999999
#
# number of rings (size 3 to 8) (size 9 to 14) (size 15 to 20)
#    0.000    1.412    3.529    0.000    8.235    2.353 
#    0.000    0.000    0.000    0.000    0.000    0.000 
#    0.000    0.000    0.000    0.000    0.000    0.000 
#
# Total GULP energy -189948.098785 kJ/mol
# GULP energy per Si atom -5586.708788 kJ/mol
# Density = 2.047356 g / cm^3
# Si number density = 20.520266 Si / 1000 Ang^3
#
#
#
# Elastic Constant Matrix: (Units=GPa)
#
#
# Indices 1 2 3 4 5 6 
#
# 1 56.3120 55.7742 20.7707 0.0000 0.0000 0.0000
# 2 55.7742 236.0205 120.3417 0.0000 0.0000 0.0000
# 3 20.7707 120.3417 152.9400 0.0000 0.0000 0.0000
# 4 0.0000 0.0000 0.0000 48.1789 0.0000 0.0000
# 5 0.0000 0.0000 0.0000 0.0000 0.0307 0.0000
# 6 0.0000 0.0000 0.0000 0.0000 0.0000 19.3738
#
#
#
# Elastic Compliance Matrix: (Units=1/GPa)
#
#
# Indices 1 2 3 4 5 6 
#
# 1 0.023535 -0.006566 0.001970 0.000000 0.000000 0.000000
# 2 -0.006566 0.008908 -0.006117 0.000000 0.000000 0.000000
# 3 0.001970 -0.006117 0.011084 0.000000 0.000000 0.000000
# 4 0.000000 0.000000 0.000000 0.020756 0.000000 0.000000
# 5 0.000000 0.000000 0.000000 0.000000 32.555702 0.000000
# 6 0.000000 0.000000 0.000000 0.000000 0.000000 0.051616
#
#
# Mechanical properties :
#
#
# Convention : Reuss Voigt Hill
#
# Bulk Modulus (GPa) = 45.24737 93.22729 69.23733
# Shear Modulus (GPa) = 0.15290 30.07574 15.11432
#
# Velocity S-wave (km/s) = 0.27327 3.83255 2.71690
# Velocity P-wave (km/s) = 4.71143 8.06939 6.60729
#
# Compressibility (1/GPa) = 0.02210073
#
# Stress axis : x y z
#
# Youngs Moduli (GPa) = 42.48998 112.26287 90.21739
#
# Poissons Ratio (x) = 0.73714 -0.17777
# Poissons Ratio (y) = 0.27900 0.55189
# Poissons Ratio (z) = -0.08372 0.68674
#
# Static dielectric constant tensor:
#      x y z
#    x 1.759020 0.000000 0.000000 
#    y 0.000000 1.693890 0.000000 
#    z 0.000000 0.000000 1.681770 
# 
# From -- ./inp_files/27438.got.cif
#   From: 2010.05.17/outbox.cif.g08.bks.cpg/sg70_14_cif.got.tgz:27438.got - 2010.06.03 15:57:51.
