data_PCOD9516922
_publ_section_title
;
Structure prediction by ZEFSAII (Michael W. Deem and Ramdas Pophale) SiO2 
 PCOD9516922
Probable space group: F D D D
;
_chemical_formula_sum "Si O2"
_cell_formula_units_Z 120
_cell_length_a 22.924643
_cell_length_b 18.902225
_cell_length_c 12.584400
_cell_angle_alpha 90.000000
_cell_angle_beta 90.000000
_cell_angle_gamma 90.000000
_cell_volume 5453.157279
_symmetry_space_group_name_H-M "F D D D"
_symmetry_group_IT_number 70
_space_group.IT_coordinate_system_code '2'
_symmetry_cell_setting 'orthorhombic'
loop_
_space_group_symop_operation_xyz
x,y,z
1/4-x,1/4-y,z
x,1/4-y,1/4-z
1/4-x,y,1/4-z
-x,-y,-z
3/4+x,3/4+y,-z
-x,3/4+y,3/4+z
3/4+x,-y,3/4+z
x,1/2+y,1/2+z
1/4-x,3/4-y,1/2+z
x,3/4-y,3/4-z
1/4-x,1/2+y,3/4-z
-x,1/2-y,1/2-z
3/4+x,1/4+y,1/2-z
-x,1/4+y,1/4+z
3/4+x,1/2-y,1/4+z
1/2+x,y,1/2+z
3/4-x,1/4-y,1/2+z
1/2+x,1/4-y,3/4-z
3/4-x,y,3/4-z
1/2-x,-y,1/2-z
1/4+x,3/4+y,1/2-z
1/2-x,3/4+y,1/4+z
1/4+x,-y,1/4+z
1/2+x,1/2+y,z
3/4-x,3/4-y,z
1/2+x,3/4-y,1/4-z
3/4-x,1/2+y,1/4-z
1/2-x,1/2-y,-z
1/4+x,1/4+y,-z
1/2-x,1/4+y,3/4+z
1/4+x,1/2-y,3/4+z
loop_
_atom_site_type_symbol
_atom_site_label
_atom_site_fract_x
_atom_site_fract_y
_atom_site_fract_z
Si Si1 0.558721 0.212253 0.791924
Si Si2 0.162700 0.324086 0.281045
Si Si3 0.795144 0.309904 0.788734
Si Si4 0.375000 0.563859 0.375000
Si Si5 0.625000 0.125000 0.625000
O O1 0.500000 0.250000 0.750000
O O2 0.612433 0.266968 0.776954
O O3 0.578091 0.155340 0.707755
O O4 0.554678 0.180212 0.911524
O O5 0.144546 0.375000 0.375000
O O6 0.226556 0.293423 0.301981
O O7 0.166053 0.380210 0.185466
O O8 0.806822 0.375000 0.875000
O O9 0.833875 0.241080 0.813212
#
# Coordination Sequence:
#
# PCOD9516922 Si02
#       5
#    32  32  32  16   8
#     4  12  27  49  75 107 151 196 249 303 382 450
#     4  11  25  46  72 108 143 192 244 298 374 450
#     4  11  27  46  76 113 147 195 256 311 377 447
#     4  12  24  48  76 104 152 192 246 316 374 442
#     4  12  30  44  74 106 152 192 246 308 364 474
#
# _framework density 22.005600000000001
#
# number of rings (size 3 to 8) (size 9 to 14) (size 15 to 20)
#    0.000    0.533    2.667    4.400    5.600   10.667 
#    0.000    0.000    0.000    0.000    0.000    0.000 
#    0.000    0.000    0.000    0.000    0.000    0.000 
#
# Total GULP energy -167171.428552 kJ/mol
# GULP energy per Si atom -5572.380952 kJ/mol
# Density = 2.195551 g / cm^3
# Si number density = 22.005600 Si / 1000 Ang^3
#
#
#
# Elastic Constant Matrix: (Units=GPa)
#
#
# Indices 1 2 3 4 5 6 
#
# 1 86.3391 15.3989 3.0427 0.0000 0.0000 0.0000
# 2 15.3989 25.4746 43.3075 0.0000 0.0000 0.0000
# 3 3.0427 43.3075 149.6743 0.0000 0.0000 0.0000
# 4 0.0000 0.0000 0.0000 23.1042 0.0000 0.0000
# 5 0.0000 0.0000 0.0000 0.0000 19.1981 0.0000
# 6 0.0000 0.0000 0.0000 0.0000 0.0000 36.3829
#
#
#
# Elastic Compliance Matrix: (Units=1/GPa)
#
#
# Indices 1 2 3 4 5 6 
#
# 1 0.014287 -0.016026 0.004346 0.000000 0.000000 0.000000
# 2 -0.016026 0.095233 -0.027229 0.000000 0.000000 0.000000
# 3 0.004346 -0.027229 0.014472 0.000000 0.000000 0.000000
# 4 0.000000 0.000000 0.000000 0.043282 0.000000 0.000000
# 5 0.000000 0.000000 0.000000 0.000000 0.052089 0.000000
# 6 0.000000 0.000000 0.000000 0.000000 0.000000 0.027485
#
#
# Mechanical properties :
#
#
# Convention : Reuss Voigt Hill
#
# Bulk Modulus (GPa) = 21.65690 42.77626 32.21658
# Shear Modulus (GPa) = 14.70344 29.05295 21.87819
#
# Velocity S-wave (km/s) = 2.58770 3.63747 3.15653
# Velocity P-wave (km/s) = 4.33488 6.09283 5.28743
#
# Compressibility (1/GPa) = 0.04617466
#
# Stress axis : x y z
#
# Youngs Moduli (GPa) = 69.99226 10.50058 69.10126
#
# Poissons Ratio (x) = 0.16828 -0.30035
# Poissons Ratio (y) = 1.12167 1.88159
# Poissons Ratio (z) = -0.30422 0.28592
#
# Static dielectric constant tensor:
#      x y z
#    x 1.724140 0.000000 0.000000 
#    y 0.000000 4.163370 0.000000 
#    z 0.000000 0.000000 1.408770 
# 
# From -- ./inp_files/18624.got.cif
#   From: 2010.05.17/outbox.cif.g08.bks.cpg/sg70_10_cif.got.tgz:18624.got - 2010.06.03 15:57:51.
