data_PCOD9516006
_publ_section_title
;
Structure prediction by ZEFSAII (Michael W. Deem and Ramdas Pophale) SiO2 
 PCOD9516006
Probable space group: F D D D
;
_chemical_formula_sum "Si O2"
_cell_formula_units_Z 200
_cell_length_a 26.466818
_cell_length_b 16.670901
_cell_length_c 21.485908
_cell_angle_alpha 90.000000
_cell_angle_beta 90.000000
_cell_angle_gamma 90.000000
_cell_volume 9480.134855
_symmetry_space_group_name_H-M "F D D D"
_symmetry_group_IT_number 70
_space_group.IT_coordinate_system_code '2'
_symmetry_cell_setting 'orthorhombic'
loop_
_space_group_symop_operation_xyz
x,y,z
1/4-x,1/4-y,z
x,1/4-y,1/4-z
1/4-x,y,1/4-z
-x,-y,-z
3/4+x,3/4+y,-z
-x,3/4+y,3/4+z
3/4+x,-y,3/4+z
x,1/2+y,1/2+z
1/4-x,3/4-y,1/2+z
x,3/4-y,3/4-z
1/4-x,1/2+y,3/4-z
-x,1/2-y,1/2-z
3/4+x,1/4+y,1/2-z
-x,1/4+y,1/4+z
3/4+x,1/2-y,1/4+z
1/2+x,y,1/2+z
3/4-x,1/4-y,1/2+z
1/2+x,1/4-y,3/4-z
3/4-x,y,3/4-z
1/2-x,-y,1/2-z
1/4+x,3/4+y,1/2-z
1/2-x,3/4+y,1/4+z
1/4+x,-y,1/4+z
1/2+x,1/2+y,z
3/4-x,3/4-y,z
1/2+x,3/4-y,1/4-z
3/4-x,1/2+y,1/4-z
1/2-x,1/2-y,-z
1/4+x,1/4+y,-z
1/2-x,1/4+y,3/4+z
1/4+x,1/2-y,3/4+z
loop_
_atom_site_type_symbol
_atom_site_label
_atom_site_fract_x
_atom_site_fract_y
_atom_site_fract_z
Si Si1 0.058009 0.221392 0.832086
Si Si2 0.666954 0.464775 0.392081
Si Si3 0.317824 0.660252 0.352497
Si Si4 0.625000 0.625000 0.625000
Si Si5 0.470235 0.840587 0.182957
Si Si6 0.773233 0.928426 0.938029
Si Si7 0.542815 0.518517 0.559440
O O1 0.115830 0.247782 0.832209
O O2 0.053095 0.152341 0.882888
O O3 0.042606 0.200986 0.761504
O O4 0.010835 0.281497 0.844547
O O5 0.653666 0.375000 0.375000
O O6 0.689305 0.509954 0.331380
O O7 0.715231 0.460495 0.437822
O O8 0.375000 0.657420 0.375000
O O9 0.278188 0.667601 0.410122
O O10 0.307427 0.741834 0.314117
O O11 0.305107 0.576943 0.317100
O O12 0.588308 0.566836 0.588160
O O13 0.466693 0.874331 0.251953
O O14 0.779191 0.875000 0.875000
#
# Coordination Sequence:
#
# PCOD9516006 Si02
#       7
#    32  32  32   8  32  32  32
#     4  10  23  44  65  97 136 174 226 281 333 416
#     4  10  23  40  68 101 131 178 221 284 340 406
#     4  10  22  45  67 102 132 180 226 280 338 418
#     4  12  24  40  72  96 134 188 210 284 366 392
#     4  10  23  46  68  97 143 179 222 286 353 404
#     4  10  24  46  69  98 137 182 227 283 344 414
#     4  10  24  43  66 100 136 177 229 280 340 422
#
# _framework density 21.096746
#
# number of rings (size 3 to 8) (size 9 to 14) (size 15 to 20)
#    0.000    1.920    0.800    0.480    5.600    7.360 
#   23.040    0.000    0.000    0.000    0.000    0.000 
#    0.000    0.000    0.000    0.000    0.000    0.000 
#
# Total GULP energy -278977.247387 kJ/mol
# GULP energy per Si atom -5579.544948 kJ/mol
# Density = 2.104873 g / cm^3
# Si number density = 21.096746 Si / 1000 Ang^3
#
#
#
# Elastic Constant Matrix: (Units=GPa)
#
#
# Indices 1 2 3 4 5 6 
#
# 1 133.5107 43.4531 25.7398 0.0000 0.0000 0.0000
# 2 43.4531 106.6209 61.7314 0.0000 0.0000 0.0000
# 3 25.7398 61.7314 102.5778 0.0000 0.0000 0.0000
# 4 0.0000 0.0000 0.0000 20.2655 0.0000 0.0000
# 5 0.0000 0.0000 0.0000 0.0000 18.2530 0.0000
# 6 0.0000 0.0000 0.0000 0.0000 0.0000 46.1443
#
#
#
# Elastic Compliance Matrix: (Units=1/GPa)
#
#
# Indices 1 2 3 4 5 6 
#
# 1 0.008636 -0.003476 -0.000075 0.000000 0.000000 0.000000
# 2 -0.003476 0.015794 -0.008632 0.000000 0.000000 0.000000
# 3 -0.000075 -0.008632 0.014963 0.000000 0.000000 0.000000
# 4 0.000000 0.000000 0.000000 0.049345 0.000000 0.000000
# 5 0.000000 0.000000 0.000000 0.000000 0.054785 0.000000
# 6 0.000000 0.000000 0.000000 0.000000 0.000000 0.021671
#
#
# Mechanical properties :
#
#
# Convention : Reuss Voigt Hill
#
# Bulk Modulus (GPa) = 66.55594 67.17311 66.86453
# Shear Modulus (GPa) = 25.69783 31.05158 28.37470
#
# Velocity S-wave (km/s) = 3.49391 3.84065 3.67138
# Velocity P-wave (km/s) = 6.92047 7.18172 7.05231
#
# Compressibility (1/GPa) = 0.01502495
#
# Stress axis : x y z
#
# Youngs Moduli (GPa) = 115.79640 63.31654 66.83366
#
# Poissons Ratio (x) = 0.22009 0.00502
# Poissons Ratio (y) = 0.40251 0.57693
# Poissons Ratio (z) = 0.00870 0.54657
#
# Static dielectric constant tensor:
#      x y z
#    x 1.881680 0.000000 0.000000 
#    y 0.000000 1.669260 0.000000 
#    z 0.000000 0.000000 1.739460 
# 
# From -- ./inp_files/46970.got.cif
#   From: 2010.05.17/outbox.cif.g08.bks.cpg/sg70_24_cif.got.tgz:46970.got - 2010.06.03 15:57:51.
