data_PCOD9516678
_publ_section_title
;
Structure prediction by ZEFSAII (Michael W. Deem and Ramdas Pophale) SiO2 
 PCOD9516678
Probable space group: F D D D
;
_chemical_formula_sum "Si O2"
_cell_formula_units_Z 176
_cell_length_a 24.428934
_cell_length_b 25.049831
_cell_length_c 11.585445
_cell_angle_alpha 90.000000
_cell_angle_beta 90.000000
_cell_angle_gamma 90.000000
_cell_volume 7089.604955
_symmetry_space_group_name_H-M "F D D D"
_symmetry_group_IT_number 70
_space_group.IT_coordinate_system_code '2'
_symmetry_cell_setting 'orthorhombic'
loop_
_space_group_symop_operation_xyz
x,y,z
1/4-x,1/4-y,z
x,1/4-y,1/4-z
1/4-x,y,1/4-z
-x,-y,-z
3/4+x,3/4+y,-z
-x,3/4+y,3/4+z
3/4+x,-y,3/4+z
x,1/2+y,1/2+z
1/4-x,3/4-y,1/2+z
x,3/4-y,3/4-z
1/4-x,1/2+y,3/4-z
-x,1/2-y,1/2-z
3/4+x,1/4+y,1/2-z
-x,1/4+y,1/4+z
3/4+x,1/2-y,1/4+z
1/2+x,y,1/2+z
3/4-x,1/4-y,1/2+z
1/2+x,1/4-y,3/4-z
3/4-x,y,3/4-z
1/2-x,-y,1/2-z
1/4+x,3/4+y,1/2-z
1/2-x,3/4+y,1/4+z
1/4+x,-y,1/4+z
1/2+x,1/2+y,z
3/4-x,3/4-y,z
1/2+x,3/4-y,1/4-z
3/4-x,1/2+y,1/4-z
1/2-x,1/2-y,-z
1/4+x,1/4+y,-z
1/2-x,1/4+y,3/4+z
1/4+x,1/2-y,3/4+z
loop_
_atom_site_type_symbol
_atom_site_label
_atom_site_fract_x
_atom_site_fract_y
_atom_site_fract_z
Si Si1 0.788771 0.443742 0.485305
Si Si2 0.080242 0.769854 0.945370
Si Si3 0.182091 0.964558 0.178942
Si Si4 0.052389 0.478432 0.931166
Si Si5 0.541500 0.596373 0.862972
Si Si6 0.242528 0.125000 0.625000
O O1 0.723459 0.454205 0.503984
O O2 0.804245 0.474355 0.365743
O O3 0.817166 0.480390 0.580717
O O4 0.804382 0.384048 0.526290
O O5 0.074469 0.790483 0.814840
O O6 0.140303 0.781838 0.994751
O O7 0.073916 0.706012 0.928854
O O8 0.125000 0.948439 0.125000
O O9 0.231776 0.927720 0.139675
O O10 0.030924 0.426006 0.868615
O O11 0.000000 0.500000 0.000000
O O12 0.540113 0.630683 0.744765
#
# Coordination Sequence:
#
# PCOD9516678 Si02
#       6
#    32  32  32  32  32  16
#     4  11  23  43  68 104 135 174 237 284 346 431
#     4  11  25  45  71  99 146 184 230 298 353 414
#     4  11  22  44  69  96 141 182 224 295 352 419
#     4  12  25  46  68 101 144 184 237 287 348 428
#     4  11  24  42  71 104 137 186 233 285 361 423
#     4  12  22  46  71  96 144 186 227 292 350 422
#
# _framework density 24.825078000000001
#
# number of rings (size 3 to 8) (size 9 to 14) (size 15 to 20)
#    0.000    0.727    7.273    2.182    0.000    7.273 
#    0.000    1.818    0.000    0.000    0.000    0.000 
#    0.000    0.000    0.000    0.000    0.000    0.000 
#
# Total GULP energy -245849.982149 kJ/mol
# GULP energy per Si atom -5587.499594 kJ/mol
# Density = 2.476857 g / cm^3
# Si number density = 24.825078 Si / 1000 Ang^3
#
#
#
# Elastic Constant Matrix: (Units=GPa)
#
#
# Indices 1 2 3 4 5 6 
#
# 1 103.5356 -35.0158 10.6853 0.0000 0.0000 0.0000
# 2 -35.0158 62.0754 -2.0677 0.0000 0.0000 0.0000
# 3 10.6853 -2.0677 79.6200 0.0000 -0.0001 0.0000
# 4 0.0000 0.0000 0.0000 -2.4908 0.0000 0.0000
# 5 0.0000 0.0000 -0.0001 0.0000 33.1217 0.0000
# 6 0.0000 0.0000 0.0000 0.0000 0.0000 -15.5763
#
#
#
# Elastic Compliance Matrix: (Units=1/GPa)
#
#
# Indices 1 2 3 4 5 6 
#
# 1 0.012100 0.006777 -0.001448 0.000000 0.000000 0.000000
# 2 0.006777 0.019919 -0.000392 0.000000 0.000000 0.000000
# 3 -0.001448 -0.000392 0.012744 0.000000 0.000000 0.000000
# 4 0.000000 0.000000 0.000000 -0.401475 0.000000 0.000000
# 5 0.000000 0.000000 0.000000 0.000000 0.030192 0.000000
# 6 0.000000 0.000000 0.000000 0.000000 0.000000 -0.064200
#
#
# Mechanical properties :
#
#
# Convention : Reuss Voigt Hill
#
# Bulk Modulus (GPa) = 18.30253 21.38162 19.84208
# Shear Modulus (GPa) = -13.07594 21.11952 4.02179
#
# Velocity S-wave (km/s) = -2.29753 2.91990 1.27419
# Velocity P-wave (km/s) = 0.59193 4.47206 3.18981
#
# Compressibility (1/GPa) = 0.05463726
#
# Stress axis : x y z
#
# Youngs Moduli (GPa) = 82.64469 50.20261 78.46965
#
# Poissons Ratio (x) = -0.34023 0.11361
# Poissons Ratio (y) = -0.56010 0.03078
# Poissons Ratio (z) = 0.11966 0.01969
#
# Static dielectric constant tensor:
#      x y z
#    x 1.996820 0.000000 0.000000 
#    y 0.000000 2.052540 0.000000 
#    z 0.000000 0.000000 2.054290 
# 
# From -- ./inp_files/22308.got.cif
#   From: 2010.05.17/outbox.cif.g08.bks.cpg/sg70_12_cif.got.tgz:22308.got - 2010.06.03 15:57:51.
