data_PCOD9516554
_publ_section_title
;
Structure prediction by ZEFSAII (Michael W. Deem and Ramdas Pophale) SiO2 
 PCOD9516554
Probable space group: F D D D
;
_chemical_formula_sum "Si O2"
_cell_formula_units_Z 136
_cell_length_a 25.531483
_cell_length_b 30.075578
_cell_length_c 9.364447
_cell_angle_alpha 90.000000
_cell_angle_beta 90.000000
_cell_angle_gamma 90.000000
_cell_volume 7190.716391
_symmetry_space_group_name_H-M "F D D D"
_symmetry_group_IT_number 70
_space_group.IT_coordinate_system_code '2'
_symmetry_cell_setting 'orthorhombic'
loop_
_space_group_symop_operation_xyz
x,y,z
1/4-x,1/4-y,z
x,1/4-y,1/4-z
1/4-x,y,1/4-z
-x,-y,-z
3/4+x,3/4+y,-z
-x,3/4+y,3/4+z
3/4+x,-y,3/4+z
x,1/2+y,1/2+z
1/4-x,3/4-y,1/2+z
x,3/4-y,3/4-z
1/4-x,1/2+y,3/4-z
-x,1/2-y,1/2-z
3/4+x,1/4+y,1/2-z
-x,1/4+y,1/4+z
3/4+x,1/2-y,1/4+z
1/2+x,y,1/2+z
3/4-x,1/4-y,1/2+z
1/2+x,1/4-y,3/4-z
3/4-x,y,3/4-z
1/2-x,-y,1/2-z
1/4+x,3/4+y,1/2-z
1/2-x,3/4+y,1/4+z
1/4+x,-y,1/4+z
1/2+x,1/2+y,z
3/4-x,3/4-y,z
1/2+x,3/4-y,1/4-z
3/4-x,1/2+y,1/4-z
1/2-x,1/2-y,-z
1/4+x,1/4+y,-z
1/2-x,1/4+y,3/4+z
1/4+x,1/2-y,3/4+z
loop_
_atom_site_type_symbol
_atom_site_label
_atom_site_fract_x
_atom_site_fract_y
_atom_site_fract_z
Si Si1 0.261121 0.177513 0.613427
Si Si2 0.375000 0.375000 0.875000
Si Si3 0.882090 0.518351 0.043572
Si Si4 0.018239 0.496898 0.338441
Si Si5 0.812030 0.312197 0.162906
O O1 0.272357 0.125000 0.625000
O O2 0.316743 0.201947 0.578496
O O3 0.235659 0.206335 0.745984
O O4 0.220101 0.178083 0.481927
O O5 0.412563 0.401606 0.765888
O O6 0.823765 0.528791 0.094202
O O7 0.892314 0.470570 0.112722
O O8 0.875000 0.515190 0.875000
O O9 0.000000 0.500000 0.500000
O O10 0.978300 0.465714 0.255995
#
# Coordination Sequence:
#
# PCOD9516554 Si02
#       5
#    32   8  32  32  32
#     4  11  25  43  66 102 133 172 234 283 335 417
#     4  12  28  40  66 112 132 164 238 292 332 406
#     4  11  20  45  70  91 129 184 220 269 349 410
#     4  11  23  44  70  95 133 181 222 274 345 406
#     4  11  24  42  66  96 135 171 224 279 336 415
#
# _framework density 18.913274999999999
#
# number of rings (size 3 to 8) (size 9 to 14) (size 15 to 20)
#    0.000    0.941    4.706    2.824    6.588    2.824 
#    6.353    0.000    0.000    0.000    0.000    0.000 
#    0.000    0.000    0.000    0.000    0.000    0.000 
#
# Total GULP energy -189281.244068 kJ/mol
# GULP energy per Si atom -5567.095414 kJ/mol
# Density = 1.887023 g / cm^3
# Si number density = 18.913275 Si / 1000 Ang^3
#
#
#
# Elastic Constant Matrix: (Units=GPa)
#
#
# Indices 1 2 3 4 5 6 
#
# 1 94.1945 26.2883 40.9927 0.0007 -0.0013 -0.0006
# 2 26.2883 108.6069 51.0072 0.0012 -0.0015 -0.0011
# 3 40.9927 51.0072 130.1438 0.0060 -0.0094 -0.0056
# 4 0.0007 0.0012 0.0060 23.4859 -0.0057 -0.0036
# 5 -0.0013 -0.0015 -0.0094 -0.0057 64.2831 0.0058
# 6 -0.0006 -0.0011 -0.0056 -0.0036 0.0058 8.6583
#
#
#
# Elastic Compliance Matrix: (Units=1/GPa)
#
#
# Indices 1 2 3 4 5 6 
#
# 1 0.012484 -0.001440 -0.003368 0.000001 0.000000 -0.000001
# 2 -0.001440 0.011451 -0.004034 0.000000 0.000000 -0.000001
# 3 -0.003368 -0.004034 0.010326 -0.000002 0.000001 0.000006
# 4 0.000001 0.000000 -0.000002 0.042579 0.000004 0.000018
# 5 0.000000 0.000000 0.000001 0.000004 0.015556 -0.000010
# 6 -0.000001 -0.000001 0.000006 0.000018 -0.000010 0.115496
#
#
# Mechanical properties :
#
#
# Convention : Reuss Voigt Hill
#
# Bulk Modulus (GPa) = 60.32769 63.28020 61.80394
# Shear Modulus (GPa) = 21.63557 33.59591 27.61574
#
# Velocity S-wave (km/s) = 3.38588 4.21921 3.82530
# Velocity P-wave (km/s) = 6.87400 7.56745 7.22904
#
# Compressibility (1/GPa) = 0.01657614
#
# Stress axis : x y z
#
# Youngs Moduli (GPa) = 80.10346 87.33007 96.84514
#
# Poissons Ratio (x) = 0.12576 0.32615
# Poissons Ratio (y) = 0.11535 0.39071
# Poissons Ratio (z) = 0.26977 0.35232
#
# Static dielectric constant tensor:
#      x y z
#    x 1.713530 0.000000 0.000000 
#    y 0.000000 1.691630 0.000000 
#    z 0.000000 0.000000 1.724400 
# 
# From -- ./inp_files/11033.got.cif
#   From: 2010.05.17/outbox.cif.g08.bks.cpg/sg70_6_cif.got.tgz:11033.got - 2010.06.03 15:57:51.
