data_PCOD9516522
_publ_section_title
;
Structure prediction by ZEFSAII (Michael W. Deem and Ramdas Pophale) SiO2 
 PCOD9516522
Probable space group: F D D D
;
_chemical_formula_sum "Si O2"
_cell_formula_units_Z 144
_cell_length_a 18.339958
_cell_length_b 15.299658
_cell_length_c 22.245960
_cell_angle_alpha 90.000000
_cell_angle_beta 90.000000
_cell_angle_gamma 90.000000
_cell_volume 6242.107040
_symmetry_space_group_name_H-M "F D D D"
_symmetry_group_IT_number 70
_space_group.IT_coordinate_system_code '2'
_symmetry_cell_setting 'orthorhombic'
loop_
_space_group_symop_operation_xyz
x,y,z
1/4-x,1/4-y,z
x,1/4-y,1/4-z
1/4-x,y,1/4-z
-x,-y,-z
3/4+x,3/4+y,-z
-x,3/4+y,3/4+z
3/4+x,-y,3/4+z
x,1/2+y,1/2+z
1/4-x,3/4-y,1/2+z
x,3/4-y,3/4-z
1/4-x,1/2+y,3/4-z
-x,1/2-y,1/2-z
3/4+x,1/4+y,1/2-z
-x,1/4+y,1/4+z
3/4+x,1/2-y,1/4+z
1/2+x,y,1/2+z
3/4-x,1/4-y,1/2+z
1/2+x,1/4-y,3/4-z
3/4-x,y,3/4-z
1/2-x,-y,1/2-z
1/4+x,3/4+y,1/2-z
1/2-x,3/4+y,1/4+z
1/4+x,-y,1/4+z
1/2+x,1/2+y,z
3/4-x,3/4-y,z
1/2+x,3/4-y,1/4-z
3/4-x,1/2+y,1/4-z
1/2-x,1/2-y,-z
1/4+x,1/4+y,-z
1/2-x,1/4+y,3/4+z
1/4+x,1/2-y,3/4+z
loop_
_atom_site_type_symbol
_atom_site_label
_atom_site_fract_x
_atom_site_fract_y
_atom_site_fract_z
Si Si1 0.625000 0.125000 0.309180
Si Si2 0.797316 0.767486 0.844916
Si Si3 0.021298 0.434019 0.102460
Si Si4 0.646458 0.470199 0.524202
Si Si5 0.726498 0.418714 0.290430
O O1 0.684801 0.071066 0.346534
O O2 0.663617 0.197108 0.267214
O O3 0.875000 0.785314 0.875000
O O4 0.796433 0.664730 0.837605
O O5 0.733111 0.790598 0.892967
O O6 0.783045 0.836295 0.791945
O O7 0.066284 0.486977 0.052368
O O8 0.050968 0.459453 0.167989
O O9 0.655779 0.380976 0.485269
O O10 0.750000 0.500000 0.250000
#
# Coordination Sequence:
#
# PCOD9516522 Si02
#       5
#    16  32  32  32  32
#     4  12  26  49  68 106 142 189 240 302 356 432
#     4  11  21  40  67 101 144 178 223 295 358 424
#     4  11  23  46  70  99 138 180 245 292 349 441
#     4  11  24  45  72  98 140 190 230 297 363 419
#     4  11  20  36  65 101 133 180 227 277 357 425
#
# _framework density 23.069133000000001
#
# number of rings (size 3 to 8) (size 9 to 14) (size 15 to 20)
#    0.000    0.889    6.667    2.000    0.000    1.778 
#    8.000    0.000    0.000    0.000    0.000    0.000 
#    0.000    0.000    0.000    0.000    0.000    0.000 
#
# Total GULP energy -200787.657905 kJ/mol
# GULP energy per Si atom -5577.434942 kJ/mol
# Density = 2.301663 g / cm^3
# Si number density = 23.069133 Si / 1000 Ang^3
#
#
#
# Elastic Constant Matrix: (Units=GPa)
#
#
# Indices 1 2 3 4 5 6 
#
# 1 110.7608 -13.9181 41.9337 0.0000 0.0000 0.0000
# 2 -13.9181 84.4990 9.0444 0.0000 0.0000 0.0000
# 3 41.9337 9.0444 75.5332 0.0000 0.0000 0.0000
# 4 0.0000 0.0000 0.0000 42.2132 0.0000 0.0000
# 5 0.0000 0.0000 0.0000 0.0000 36.9352 0.0000
# 6 0.0000 0.0000 0.0000 0.0000 0.0000 34.5030
#
#
#
# Elastic Compliance Matrix: (Units=1/GPa)
#
#
# Indices 1 2 3 4 5 6 
#
# 1 0.012022 0.002730 -0.007001 0.000000 0.000000 0.000000
# 2 0.002730 0.012608 -0.003025 0.000000 0.000000 0.000000
# 3 -0.007001 -0.003025 0.017488 0.000000 0.000000 0.000000
# 4 0.000000 0.000000 0.000000 0.023689 0.000000 0.000000
# 5 0.000000 0.000000 0.000000 0.000000 0.027074 0.000000
# 6 0.000000 0.000000 0.000000 0.000000 0.000000 0.028983
#
#
# Mechanical properties :
#
#
# Convention : Reuss Voigt Hill
#
# Bulk Modulus (GPa) = 36.33067 38.32365 37.32716
# Shear Modulus (GPa) = 34.33287 38.31248 36.32267
#
# Velocity S-wave (km/s) = 3.86198 4.07967 3.97232
# Velocity P-wave (km/s) = 5.97238 6.23219 6.10367
#
# Compressibility (1/GPa) = 0.02752495
#
# Stress axis : x y z
#
# Youngs Moduli (GPa) = 83.18038 79.31573 57.18128
#
# Poissons Ratio (x) = -0.21650 0.40033
# Poissons Ratio (y) = -0.22705 0.17298
# Poissons Ratio (z) = 0.58236 0.23993
#
# Static dielectric constant tensor:
#      x y z
#    x 1.999760 0.000000 0.000000 
#    y 0.000000 1.878000 0.000000 
#    z 0.000000 0.000000 1.906680 
# 
# From -- ./inp_files/52031.got.cif
#   From: 2010.05.17/outbox.cif.g08.bks.cpg/sg70_27_cif.got.tgz:52031.got - 2010.06.03 15:57:51.
