data_PCOD9516051
_publ_section_title
;
Structure prediction by ZEFSAII (Michael W. Deem and Ramdas Pophale) SiO2 
 PCOD9516051
Probable space group: F D D D
;
_chemical_formula_sum "Si O2"
_cell_formula_units_Z 200
_cell_length_a 18.914358
_cell_length_b 27.338189
_cell_length_c 19.496887
_cell_angle_alpha 90.000000
_cell_angle_beta 90.000000
_cell_angle_gamma 90.000000
_cell_volume 10081.534046
_symmetry_space_group_name_H-M "F D D D"
_symmetry_group_IT_number 70
_space_group.IT_coordinate_system_code '2'
_symmetry_cell_setting 'orthorhombic'
loop_
_space_group_symop_operation_xyz
x,y,z
1/4-x,1/4-y,z
x,1/4-y,1/4-z
1/4-x,y,1/4-z
-x,-y,-z
3/4+x,3/4+y,-z
-x,3/4+y,3/4+z
3/4+x,-y,3/4+z
x,1/2+y,1/2+z
1/4-x,3/4-y,1/2+z
x,3/4-y,3/4-z
1/4-x,1/2+y,3/4-z
-x,1/2-y,1/2-z
3/4+x,1/4+y,1/2-z
-x,1/4+y,1/4+z
3/4+x,1/2-y,1/4+z
1/2+x,y,1/2+z
3/4-x,1/4-y,1/2+z
1/2+x,1/4-y,3/4-z
3/4-x,y,3/4-z
1/2-x,-y,1/2-z
1/4+x,3/4+y,1/2-z
1/2-x,3/4+y,1/4+z
1/4+x,-y,1/4+z
1/2+x,1/2+y,z
3/4-x,3/4-y,z
1/2+x,3/4-y,1/4-z
3/4-x,1/2+y,1/4-z
1/2-x,1/2-y,-z
1/4+x,1/4+y,-z
1/2-x,1/4+y,3/4+z
1/4+x,1/2-y,3/4+z
loop_
_atom_site_type_symbol
_atom_site_label
_atom_site_fract_x
_atom_site_fract_y
_atom_site_fract_z
Si Si1 0.155324 0.952412 0.729487
Si Si2 0.739908 0.288742 0.615676
Si Si3 0.125693 0.068666 0.970479
Si Si4 0.771513 0.796547 0.411532
Si Si5 0.006890 0.245472 0.517416
Si Si6 0.875000 0.118623 0.875000
Si Si7 0.125000 0.625000 0.125000
Si Si8 0.625000 0.544671 0.125000
O O1 0.198994 0.945158 0.798749
O O2 0.153167 0.903862 0.684424
O O3 0.194838 0.995753 0.688057
O O4 0.076173 0.971108 0.740386
O O5 0.808572 0.293224 0.567431
O O6 0.753050 0.285791 0.697545
O O7 0.688090 0.333900 0.599593
O O8 0.692516 0.240019 0.609393
O O9 0.125000 0.125000 0.943997
O O10 0.192749 0.032194 0.961872
O O11 0.128283 0.072461 0.053404
O O12 0.762910 0.791052 0.330717
O O13 0.826343 0.840285 0.421593
#
# Coordination Sequence:
#
# PCOD9516051 Si02
#       8
#    32  32  32  32  32  16   8  16
#     4  11  22  41  63  85 130 175 206 270 335 382
#     4  10  23  38  62  93 125 171 212 272 327 396
#     4  11  22  38  66  96 121 162 225 268 319 392
#     4  11  24  39  64  89 127 173 209 266 326 387
#     4  11  21  43  59  92 132 169 214 265 336 390
#     4  11  21  40  61  93 129 171 224 275 329 398
#     4  12  22  44  62 100 128 162 230 272 308 400
#     4   9  21  42  64  80 132 164 204 271 335 376
#
# _framework density 19.838251
#
# number of rings (size 3 to 8) (size 9 to 14) (size 15 to 20)
#    0.000    1.280    3.200    2.640    2.240    0.000 
#    1.440    0.000    7.040    0.000    0.000    0.000 
#    0.000    0.000    0.000    0.000    0.000    0.000 
#
# Total GULP energy -278832.263678 kJ/mol
# GULP energy per Si atom -5576.645274 kJ/mol
# Density = 1.979310 g / cm^3
# Si number density = 19.838251 Si / 1000 Ang^3
#
#
#
# Elastic Constant Matrix: (Units=GPa)
#
#
# Indices 1 2 3 4 5 6 
#
# 1 142.6455 35.8998 36.9906 0.0000 0.0000 0.0000
# 2 35.8998 84.9617 29.6440 0.0000 0.0000 0.0000
# 3 36.9906 29.6440 44.4408 0.0000 0.0000 0.0000
# 4 0.0000 0.0000 0.0000 15.1096 0.0000 0.0000
# 5 0.0000 0.0000 0.0000 0.0000 36.3594 0.0000
# 6 0.0000 0.0000 0.0000 0.0000 0.0000 -5.8291
#
#
#
# Elastic Compliance Matrix: (Units=1/GPa)
#
#
# Indices 1 2 3 4 5 6 
#
# 1 0.009097 -0.001567 -0.006527 0.000000 0.000000 0.000000
# 2 -0.001567 0.015610 -0.009109 0.000000 0.000000 0.000000
# 3 -0.006527 -0.009109 0.034011 0.000000 0.000000 0.000000
# 4 0.000000 0.000000 0.000000 0.066183 0.000000 0.000000
# 5 0.000000 0.000000 0.000000 0.000000 0.027503 0.000000
# 6 0.000000 0.000000 0.000000 0.000000 0.000000 -0.171554
#
#
# Mechanical properties :
#
#
# Convention : Reuss Voigt Hill
#
# Bulk Modulus (GPa) = 41.12999 53.01300 47.07150
# Shear Modulus (GPa) = 214.04774 20.42890 117.23832
#
# Velocity S-wave (km/s) = 10.39859 3.21249 7.69580
# Velocity P-wave (km/s) = 12.84336 6.36716 10.13639
#
# Compressibility (1/GPa) = 0.02431316
#
# Stress axis : x y z
#
# Youngs Moduli (GPa) = 109.92304 64.06122 29.40245
#
# Poissons Ratio (x) = 0.10036 0.19192
# Poissons Ratio (y) = 0.17220 0.26782
# Poissons Ratio (z) = 0.71749 0.58351
#
# Static dielectric constant tensor:
#      x y z
#    x 1.700070 0.000000 0.000000 
#    y 0.000000 1.693000 0.000000 
#    z 0.000000 0.000000 1.749390 
# 
# From -- ./inp_files/43982.got.cif
#   From: 2010.05.17/outbox.cif.g08.bks.cpg/sg70_22_cif.got.tgz:43982.got - 2010.06.03 15:57:51.
