data_PCOD9516603
_publ_section_title
;
Structure prediction by ZEFSAII (Michael W. Deem and Ramdas Pophale) SiO2 
 PCOD9516603
Probable space group: F D D D
;
_chemical_formula_sum "Si O2"
_cell_formula_units_Z 96
_cell_length_a 13.632451
_cell_length_b 26.228141
_cell_length_c 10.300519
_cell_angle_alpha 90.000000
_cell_angle_beta 90.000000
_cell_angle_gamma 90.000000
_cell_volume 3682.990195
_symmetry_space_group_name_H-M "F D D D"
_symmetry_group_IT_number 70
_space_group.IT_coordinate_system_code '2'
_symmetry_cell_setting 'orthorhombic'
loop_
_space_group_symop_operation_xyz
x,y,z
1/4-x,1/4-y,z
x,1/4-y,1/4-z
1/4-x,y,1/4-z
-x,-y,-z
3/4+x,3/4+y,-z
-x,3/4+y,3/4+z
3/4+x,-y,3/4+z
x,1/2+y,1/2+z
1/4-x,3/4-y,1/2+z
x,3/4-y,3/4-z
1/4-x,1/2+y,3/4-z
-x,1/2-y,1/2-z
3/4+x,1/4+y,1/2-z
-x,1/4+y,1/4+z
3/4+x,1/2-y,1/4+z
1/2+x,y,1/2+z
3/4-x,1/4-y,1/2+z
1/2+x,1/4-y,3/4-z
3/4-x,y,3/4-z
1/2-x,-y,1/2-z
1/4+x,3/4+y,1/2-z
1/2-x,3/4+y,1/4+z
1/4+x,-y,1/4+z
1/2+x,1/2+y,z
3/4-x,3/4-y,z
1/2+x,3/4-y,1/4-z
3/4-x,1/2+y,1/4-z
1/2-x,1/2-y,-z
1/4+x,1/4+y,-z
1/2-x,1/4+y,3/4+z
1/4+x,1/2-y,3/4+z
loop_
_atom_site_type_symbol
_atom_site_label
_atom_site_fract_x
_atom_site_fract_y
_atom_site_fract_z
Si Si1 0.738580 0.641058 0.261024
Si Si2 0.327309 0.763156 0.110005
Si Si3 0.494638 0.581130 0.734906
O O1 0.625000 0.625000 0.254760
O O2 0.729401 0.700485 0.288306
O O3 0.778141 0.613890 0.388173
O O4 0.784220 0.625000 0.125000
O O5 0.336928 0.709457 0.185600
O O6 0.250000 0.750000 0.000000
O O7 0.413587 0.795604 0.038508
O O8 0.515803 0.625000 0.625000
#
# Coordination Sequence:
#
# PCOD9516603 Si02
#       3
#    32  32  32
#     4   9  20  38  63  93 132 179 226 284 359 421
#     4  11  22  35  69  97 131 179 239 284 357 424
#     4  11  23  42  69 102 137 187 234 297 357 428
#
# _framework density 26.065776
#
# number of rings (size 3 to 8) (size 9 to 14) (size 15 to 20)
#    0.000    1.667    3.333    1.000    9.333    1.333 
#    0.000    1.667    0.000    0.000    0.000    0.000 
#    0.000    0.000    0.000    0.000    0.000    0.000 
#
# Total GULP energy -134049.549004 kJ/mol
# GULP energy per Si atom -5585.397875 kJ/mol
# Density = 2.600645 g / cm^3
# Si number density = 26.065776 Si / 1000 Ang^3
#
#
#
# Elastic Constant Matrix: (Units=GPa)
#
#
# Indices 1 2 3 4 5 6 
#
# 1 109.6312 59.7975 32.0869 0.0000 0.0000 0.0000
# 2 59.7975 257.2765 111.5012 0.0000 0.0000 0.0000
# 3 32.0869 111.5012 238.3164 0.0000 0.0000 0.0000
# 4 0.0000 0.0000 0.0000 32.1551 0.0000 0.0000
# 5 0.0000 0.0000 0.0000 0.0000 -12.2520 0.0000
# 6 0.0000 0.0000 0.0000 0.0000 0.0000 21.5801
#
#
#
# Elastic Compliance Matrix: (Units=1/GPa)
#
#
# Indices 1 2 3 4 5 6 
#
# 1 0.010468 -0.002286 -0.000340 0.000000 0.000000 0.000000
# 2 -0.002286 0.005375 -0.002207 0.000000 0.000000 0.000000
# 3 -0.000340 -0.002207 0.005274 0.000000 0.000000 0.000000
# 4 0.000000 0.000000 0.000000 0.031099 0.000000 0.000000
# 5 0.000000 0.000000 0.000000 0.000000 -0.081620 0.000000
# 6 0.000000 0.000000 0.000000 0.000000 0.000000 0.046339
#
#
# Mechanical properties :
#
#
# Convention : Reuss Voigt Hill
#
# Bulk Modulus (GPa) = 87.32331 112.44393 99.88362
# Shear Modulus (GPa) = 164.38009 35.08587 99.73298
#
# Velocity S-wave (km/s) = 7.94987 3.67284 6.19234
# Velocity P-wave (km/s) = 10.85547 7.82422 9.46202
#
# Compressibility (1/GPa) = 0.01145170
#
# Stress axis : x y z
#
# Youngs Moduli (GPa) = 95.53226 186.06286 189.59497
#
# Poissons Ratio (x) = 0.42526 0.06446
# Poissons Ratio (y) = 0.21835 0.41841
# Poissons Ratio (z) = 0.03248 0.41061
#
# Static dielectric constant tensor:
#      x y z
#    x 2.085430 0.000000 0.000000 
#    y 0.000000 1.995840 0.000000 
#    z 0.000000 0.000000 2.337490 
# 
# From -- ./inp_files/17044.got.cif
#   From: 2010.05.17/outbox.cif.g08.bks.cpg/sg70_9_cif.got.tgz:17044.got - 2010.06.03 15:57:51.
