data_PCOD9516898
_publ_section_title
;
Structure prediction by ZEFSAII (Michael W. Deem and Ramdas Pophale) SiO2 
 PCOD9516898
Probable space group: F D D D
;
_chemical_formula_sum "Si O2"
_cell_formula_units_Z 192
_cell_length_a 24.398677
_cell_length_b 25.577642
_cell_length_c 15.321234
_cell_angle_alpha 90.000000
_cell_angle_beta 90.000000
_cell_angle_gamma 90.000000
_cell_volume 9561.378875
_symmetry_space_group_name_H-M "F D D D"
_symmetry_group_IT_number 70
_space_group.IT_coordinate_system_code '2'
_symmetry_cell_setting 'orthorhombic'
loop_
_space_group_symop_operation_xyz
x,y,z
1/4-x,1/4-y,z
x,1/4-y,1/4-z
1/4-x,y,1/4-z
-x,-y,-z
3/4+x,3/4+y,-z
-x,3/4+y,3/4+z
3/4+x,-y,3/4+z
x,1/2+y,1/2+z
1/4-x,3/4-y,1/2+z
x,3/4-y,3/4-z
1/4-x,1/2+y,3/4-z
-x,1/2-y,1/2-z
3/4+x,1/4+y,1/2-z
-x,1/4+y,1/4+z
3/4+x,1/2-y,1/4+z
1/2+x,y,1/2+z
3/4-x,1/4-y,1/2+z
1/2+x,1/4-y,3/4-z
3/4-x,y,3/4-z
1/2-x,-y,1/2-z
1/4+x,3/4+y,1/2-z
1/2-x,3/4+y,1/4+z
1/4+x,-y,1/4+z
1/2+x,1/2+y,z
3/4-x,3/4-y,z
1/2+x,3/4-y,1/4-z
3/4-x,1/2+y,1/4-z
1/2-x,1/2-y,-z
1/4+x,1/4+y,-z
1/2-x,1/4+y,3/4+z
1/4+x,1/2-y,3/4+z
loop_
_atom_site_type_symbol
_atom_site_label
_atom_site_fract_x
_atom_site_fract_y
_atom_site_fract_z
Si Si1 0.118276 0.287029 0.789458
Si Si2 0.977645 0.637022 0.271591
Si Si3 0.735406 0.319195 0.212405
Si Si4 0.375000 0.286082 0.875000
Si Si5 0.068243 0.974454 0.279781
Si Si6 0.844295 0.326594 0.968350
Si Si7 0.541148 0.125000 0.625000
O O1 0.073857 0.327511 0.753743
O O2 0.176023 0.299690 0.744538
O O3 0.111176 0.289440 0.893799
O O4 0.101746 0.228375 0.764163
O O5 0.985567 0.646647 0.374647
O O6 0.964066 0.577499 0.248241
O O7 0.030667 0.657775 0.218971
O O8 0.774063 0.268913 0.193666
O O9 0.758177 0.352576 0.293362
O O10 0.350924 0.249952 0.799908
O O11 0.421667 0.326399 0.843119
O O12 0.875000 0.321866 0.875000
O O13 0.875000 0.375000 0.015031
#
# Coordination Sequence:
#
# PCOD9516898 Si02
#       7
#    32  32  32  16  32  32  16
#     4  12  26  43  69 100 143 183 233 297 355 432
#     4  12  26  44  70 101 146 187 234 299 363 432
#     4  11  25  46  68 106 138 187 240 296 360 430
#     4   9  22  46  70  98 136 182 235 294 350 432
#     4  11  26  45  71 101 139 187 244 293 371 429
#     4  11  25  42  70 102 140 185 236 287 356 428
#     4   9  22  44  72  98 140 180 233 298 348 420
#
# _framework density 20.080786
#
# number of rings (size 3 to 8) (size 9 to 14) (size 15 to 20)
#    0.000    1.000    1.667    3.500   11.667    2.667 
#    0.000    3.333    0.000    0.000    0.000    0.000 
#    0.000    0.000    0.000    0.000    0.000    0.000 
#
# Total GULP energy -268341.805946 kJ/mol
# GULP energy per Si atom -5590.454291 kJ/mol
# Density = 2.003508 g / cm^3
# Si number density = 20.080786 Si / 1000 Ang^3
#
#
#
# Elastic Constant Matrix: (Units=GPa)
#
#
# Indices 1 2 3 4 5 6 
#
# 1 92.2768 10.7421 41.6798 0.0000 0.0000 0.0000
# 2 10.7421 116.8349 50.7980 0.0000 0.0000 0.0000
# 3 41.6798 50.7980 97.7148 0.0000 0.0000 0.0000
# 4 0.0000 0.0000 0.0000 12.5552 0.0000 0.0000
# 5 0.0000 0.0000 0.0000 0.0000 23.6670 0.0000
# 6 0.0000 0.0000 0.0000 0.0000 0.0000 3.7526
#
#
#
# Elastic Compliance Matrix: (Units=1/GPa)
#
#
# Indices 1 2 3 4 5 6 
#
# 1 0.013665 0.001651 -0.006687 0.000000 0.000000 0.000000
# 2 0.001651 0.011258 -0.006557 0.000000 0.000000 0.000000
# 3 -0.006687 -0.006557 0.016495 0.000000 0.000000 0.000000
# 4 0.000000 0.000000 0.000000 0.079648 0.000000 0.000000
# 5 0.000000 0.000000 0.000000 0.000000 0.042253 0.000000
# 6 0.000000 0.000000 0.000000 0.000000 0.000000 0.266481
#
#
# Mechanical properties :
#
#
# Convention : Reuss Voigt Hill
#
# Bulk Modulus (GPa) = 54.84781 57.02957 55.93869
# Shear Modulus (GPa) = 10.89174 21.56874 16.23024
#
# Velocity S-wave (km/s) = 2.33147 3.28090 2.84605
# Velocity P-wave (km/s) = 5.88392 6.54325 6.22232
#
# Compressibility (1/GPa) = 0.01823227
#
# Stress axis : x y z
#
# Youngs Moduli (GPa) = 73.17841 88.82477 60.62475
#
# Poissons Ratio (x) = -0.14666 0.40541
# Poissons Ratio (y) = -0.12082 0.39751
# Poissons Ratio (z) = 0.48936 0.58241
#
# Static dielectric constant tensor:
#      x y z
#    x 1.716330 0.000000 0.000000 
#    y 0.000000 1.687760 0.000000 
#    z 0.000000 0.000000 1.712140 
# 
# From -- ./inp_files/28999.got.cif
#   From: 2010.05.17/outbox.cif.g08.bks.cpg/sg70_15_cif.got.tgz:28999.got - 2010.06.03 15:57:51.
