data_PCOD9516745
_publ_section_title
;
Structure prediction by ZEFSAII (Michael W. Deem and Ramdas Pophale) SiO2 
 PCOD9516745
Probable space group: F D D D
;
_chemical_formula_sum "Si O2"
_cell_formula_units_Z 96
_cell_length_a 28.473498
_cell_length_b 10.344092
_cell_length_c 17.237464
_cell_angle_alpha 90.000000
_cell_angle_beta 90.000000
_cell_angle_gamma 90.000000
_cell_volume 5076.993070
_symmetry_space_group_name_H-M "F D D D"
_symmetry_group_IT_number 70
_space_group.IT_coordinate_system_code '2'
_symmetry_cell_setting 'orthorhombic'
loop_
_space_group_symop_operation_xyz
x,y,z
1/4-x,1/4-y,z
x,1/4-y,1/4-z
1/4-x,y,1/4-z
-x,-y,-z
3/4+x,3/4+y,-z
-x,3/4+y,3/4+z
3/4+x,-y,3/4+z
x,1/2+y,1/2+z
1/4-x,3/4-y,1/2+z
x,3/4-y,3/4-z
1/4-x,1/2+y,3/4-z
-x,1/2-y,1/2-z
3/4+x,1/4+y,1/2-z
-x,1/4+y,1/4+z
3/4+x,1/2-y,1/4+z
1/2+x,y,1/2+z
3/4-x,1/4-y,1/2+z
1/2+x,1/4-y,3/4-z
3/4-x,y,3/4-z
1/2-x,-y,1/2-z
1/4+x,3/4+y,1/2-z
1/2-x,3/4+y,1/4+z
1/4+x,-y,1/4+z
1/2+x,1/2+y,z
3/4-x,3/4-y,z
1/2+x,3/4-y,1/4-z
3/4-x,1/2+y,1/4-z
1/2-x,1/2-y,-z
1/4+x,1/4+y,-z
1/2-x,1/4+y,3/4+z
1/4+x,1/2-y,3/4+z
loop_
_atom_site_type_symbol
_atom_site_label
_atom_site_fract_x
_atom_site_fract_y
_atom_site_fract_z
Si Si1 0.030691 0.381165 0.467498
Si Si2 0.228691 0.867356 0.782381
Si Si3 0.871506 0.029169 0.967610
O O1 0.025153 0.375000 0.375000
O O2 0.084382 0.404968 0.490924
O O3 0.000000 0.500000 0.500000
O O4 0.011534 0.250541 0.505506
O O5 0.226013 0.875000 0.875000
O O6 0.177313 0.836136 0.748100
O O7 0.250000 0.000000 0.750000
O O8 0.875000 0.047404 0.875000
O O9 0.875000 0.875000 0.982760
#
# Coordination Sequence:
#
# PCOD9516745 Si02
#       3
#    32  32  32
#     4  12  24  44  71  98 131 180 227 267 330 406
#     4  12  26  44  66 101 138 169 217 282 337 382
#     4  11  23  42  70  99 130 175 228 272 324 400
#
# _framework density 18.908829999999998
#
# number of rings (size 3 to 8) (size 9 to 14) (size 15 to 20)
#    0.000    0.333    3.333    7.000    0.000    1.333 
#    0.000    3.333    0.000    0.000    0.000    0.000 
#    0.000    0.000    0.000    0.000    0.000    0.000 
#
# Total GULP energy -134389.879768 kJ/mol
# GULP energy per Si atom -5599.578324 kJ/mol
# Density = 1.886579 g / cm^3
# Si number density = 18.908830 Si / 1000 Ang^3
#
#
#
# Elastic Constant Matrix: (Units=GPa)
#
#
# Indices 1 2 3 4 5 6 
#
# 1 188.6193 104.6242 94.0786 0.0000 0.0000 0.0000
# 2 104.6242 188.3341 97.2164 0.0000 0.0000 0.0000
# 3 94.0786 97.2164 197.1405 0.0000 0.0000 0.0000
# 4 0.0000 0.0000 0.0000 33.7563 0.0000 0.0000
# 5 0.0000 0.0000 0.0000 0.0000 38.4842 0.0000
# 6 0.0000 0.0000 0.0000 0.0000 0.0000 44.6252
#
#
#
# Elastic Compliance Matrix: (Units=1/GPa)
#
#
# Indices 1 2 3 4 5 6 
#
# 1 0.008363 -0.003469 -0.002280 0.000000 0.000000 0.000000
# 2 -0.003469 0.008562 -0.002567 0.000000 0.000000 0.000000
# 3 -0.002280 -0.002567 0.007426 0.000000 0.000000 0.000000
# 4 0.000000 0.000000 0.000000 0.029624 0.000000 0.000000
# 5 0.000000 0.000000 0.000000 0.000000 0.025985 0.000000
# 6 0.000000 0.000000 0.000000 0.000000 0.000000 0.022409
#
#
# Mechanical properties :
#
#
# Convention : Reuss Voigt Hill
#
# Bulk Modulus (GPa) = 129.54254 129.54803 129.54529
# Shear Modulus (GPa) = 41.12723 41.91813 41.52268
#
# Velocity S-wave (km/s) = 4.66878 4.71346 4.69117
# Velocity P-wave (km/s) = 9.88540 9.91377 9.89959
#
# Compressibility (1/GPa) = 0.00771947
#
# Stress axis : x y z
#
# Youngs Moduli (GPa) = 119.57109 116.80065 134.65300
#
# Poissons Ratio (x) = 0.40516 0.30707
# Poissons Ratio (y) = 0.41477 0.34560
# Poissons Ratio (z) = 0.27268 0.29978
#
# Static dielectric constant tensor:
#      x y z
#    x 1.633120 0.000000 0.000000 
#    y 0.000000 1.822750 0.000000 
#    z 0.000000 0.000000 1.625450 
# 
# From -- ./inp_files/15818.got.cif
#   From: 2010.05.17/outbox.cif.g08.bks.cpg/sg70_8_cif.got.tgz:15818.got - 2010.06.03 15:57:51.
