data_PCOD9516541
_publ_section_title
;
Structure prediction by ZEFSAII (Michael W. Deem and Ramdas Pophale) SiO2 
 PCOD9516541
Probable space group: F D D D
;
_chemical_formula_sum "Si O2"
_cell_formula_units_Z 208
_cell_length_a 18.645351
_cell_length_b 18.624604
_cell_length_c 28.156948
_cell_angle_alpha 90.000000
_cell_angle_beta 90.000000
_cell_angle_gamma 90.000000
_cell_volume 9777.845927
_symmetry_space_group_name_H-M "F D D D"
_symmetry_group_IT_number 70
_space_group.IT_coordinate_system_code '2'
_symmetry_cell_setting 'orthorhombic'
loop_
_space_group_symop_operation_xyz
x,y,z
1/4-x,1/4-y,z
x,1/4-y,1/4-z
1/4-x,y,1/4-z
-x,-y,-z
3/4+x,3/4+y,-z
-x,3/4+y,3/4+z
3/4+x,-y,3/4+z
x,1/2+y,1/2+z
1/4-x,3/4-y,1/2+z
x,3/4-y,3/4-z
1/4-x,1/2+y,3/4-z
-x,1/2-y,1/2-z
3/4+x,1/4+y,1/2-z
-x,1/4+y,1/4+z
3/4+x,1/2-y,1/4+z
1/2+x,y,1/2+z
3/4-x,1/4-y,1/2+z
1/2+x,1/4-y,3/4-z
3/4-x,y,3/4-z
1/2-x,-y,1/2-z
1/4+x,3/4+y,1/2-z
1/2-x,3/4+y,1/4+z
1/4+x,-y,1/4+z
1/2+x,1/2+y,z
3/4-x,3/4-y,z
1/2+x,3/4-y,1/4-z
3/4-x,1/2+y,1/4-z
1/2-x,1/2-y,-z
1/4+x,1/4+y,-z
1/2-x,1/4+y,3/4+z
1/4+x,1/2-y,3/4+z
loop_
_atom_site_type_symbol
_atom_site_label
_atom_site_fract_x
_atom_site_fract_y
_atom_site_fract_z
Si Si1 0.375000 0.375000 0.096954
Si Si2 0.911224 0.952789 0.271737
Si Si3 0.297323 0.571422 0.741588
Si Si4 0.810817 0.426025 0.439256
Si Si5 0.728781 0.052800 0.920439
Si Si6 0.930400 0.503551 0.213313
Si Si7 0.861602 0.653959 0.431554
O O1 0.319672 0.331971 0.128951
O O2 0.330909 0.431939 0.066380
O O3 0.875000 0.875000 0.278641
O O4 0.927784 0.964155 0.215623
O O5 0.865313 0.017326 0.294560
O O6 0.991728 0.962089 0.293136
O O7 0.250000 0.500000 0.750000
O O8 0.247504 0.626871 0.714417
O O9 0.364590 0.556833 0.706927
O O10 0.328520 0.607649 0.789767
O O11 0.875000 0.375000 0.424312
O O12 0.773544 0.482435 0.404254
O O13 0.833692 0.478221 0.482405
O O14 0.785302 0.113957 0.936743
O O15 0.875000 0.657682 0.375000
#
# Coordination Sequence:
#
# PCOD9516541 Si02
#       7
#    16  32  32  32  32  32  32
#     4  12  24  46  70 104 132 180 248 296 346 424
#     4  11  24  47  70 101 142 191 236 289 355 424
#     4  12  21  38  71 101 138 185 226 281 359 432
#     4  11  20  40  68  99 133 181 228 271 357 432
#     4  11  24  41  69 102 137 184 231 292 349 417
#     4  11  22  40  71  98 132 185 234 283 353 430
#     4  12  25  42  72 104 137 181 241 288 349 423
#
# _framework density 21.272579
#
# number of rings (size 3 to 8) (size 9 to 14) (size 15 to 20)
#    0.000    0.615    9.231    0.923    2.154    0.923 
#    2.769    0.769    0.000    0.000    0.000    0.000 
#    0.000    0.000    0.000    0.000    0.000    0.000 
#
# Total GULP energy -290617.421242 kJ/mol
# GULP energy per Si atom -5588.796562 kJ/mol
# Density = 2.122416 g / cm^3
# Si number density = 21.272579 Si / 1000 Ang^3
#
#
#
# Elastic Constant Matrix: (Units=GPa)
#
#
# Indices 1 2 3 4 5 6 
#
# 1 104.0100 57.7440 24.6227 0.0000 0.0000 0.0000
# 2 57.7440 152.3941 40.3625 0.0000 0.0000 0.0000
# 3 24.6227 40.3625 78.0718 0.0000 0.0000 0.0000
# 4 0.0000 0.0000 0.0000 28.6862 0.0000 0.0000
# 5 0.0000 0.0000 0.0000 0.0000 9.1149 0.0000
# 6 0.0000 0.0000 0.0000 0.0000 0.0000 56.1940
#
#
#
# Elastic Compliance Matrix: (Units=1/GPa)
#
#
# Indices 1 2 3 4 5 6 
#
# 1 0.012370 -0.004234 -0.001713 0.000000 0.000000 0.000000
# 2 -0.004234 0.009052 -0.003345 0.000000 0.000000 0.000000
# 3 -0.001713 -0.003345 0.015078 0.000000 0.000000 0.000000
# 4 0.000000 0.000000 0.000000 0.034860 0.000000 0.000000
# 5 0.000000 0.000000 0.000000 0.000000 0.109710 0.000000
# 6 0.000000 0.000000 0.000000 0.000000 0.000000 0.017795
#
#
# Mechanical properties :
#
#
# Convention : Reuss Voigt Hill
#
# Bulk Modulus (GPa) = 55.80817 64.43715 60.12266
# Shear Modulus (GPa) = 22.37934 32.91548 27.64741
#
# Velocity S-wave (km/s) = 3.24702 3.93787 3.60901
# Velocity P-wave (km/s) = 6.35210 7.14371 6.75951
#
# Compressibility (1/GPa) = 0.01791852
#
# Stress axis : x y z
#
# Youngs Moduli (GPa) = 80.83854 110.47342 66.32193
#
# Poissons Ratio (x) = 0.46771 0.11359
# Poissons Ratio (y) = 0.34224 0.22182
# Poissons Ratio (z) = 0.13845 0.36948
#
# Static dielectric constant tensor:
#      x y z
#    x 1.838940 0.000000 0.000000 
#    y 0.000000 3.591080 0.000000 
#    z 0.000000 0.000000 1.785090 
# 
# From -- ./inp_files/67312.got.cif
#   From: 2010.05.17/outbox.cif.g08.bks.cpg/sg70_34_cif.got.tgz:67312.got - 2010.06.03 15:57:51.
