data_PCOD9516751
_publ_section_title
;
Structure prediction by ZEFSAII (Michael W. Deem and Ramdas Pophale) SiO2 
 PCOD9516751
Probable space group: F D D D
;
_chemical_formula_sum "Si O2"
_cell_formula_units_Z 128
_cell_length_a 19.342545
_cell_length_b 25.545653
_cell_length_c 10.880684
_cell_angle_alpha 90.000000
_cell_angle_beta 90.000000
_cell_angle_gamma 90.000000
_cell_volume 5376.341193
_symmetry_space_group_name_H-M "F D D D"
_symmetry_group_IT_number 70
_space_group.IT_coordinate_system_code '2'
_symmetry_cell_setting 'orthorhombic'
loop_
_space_group_symop_operation_xyz
x,y,z
1/4-x,1/4-y,z
x,1/4-y,1/4-z
1/4-x,y,1/4-z
-x,-y,-z
3/4+x,3/4+y,-z
-x,3/4+y,3/4+z
3/4+x,-y,3/4+z
x,1/2+y,1/2+z
1/4-x,3/4-y,1/2+z
x,3/4-y,3/4-z
1/4-x,1/2+y,3/4-z
-x,1/2-y,1/2-z
3/4+x,1/4+y,1/2-z
-x,1/4+y,1/4+z
3/4+x,1/2-y,1/4+z
1/2+x,y,1/2+z
3/4-x,1/4-y,1/2+z
1/2+x,1/4-y,3/4-z
3/4-x,y,3/4-z
1/2-x,-y,1/2-z
1/4+x,3/4+y,1/2-z
1/2-x,3/4+y,1/4+z
1/4+x,-y,1/4+z
1/2+x,1/2+y,z
3/4-x,3/4-y,z
1/2+x,3/4-y,1/4-z
3/4-x,1/2+y,1/4-z
1/2-x,1/2-y,-z
1/4+x,1/4+y,-z
1/2-x,1/4+y,3/4+z
1/4+x,1/2-y,3/4+z
loop_
_atom_site_type_symbol
_atom_site_label
_atom_site_fract_x
_atom_site_fract_y
_atom_site_fract_z
Si Si1 0.735436 0.330793 0.593713
Si Si2 0.893752 0.255176 0.241076
Si Si3 0.507169 0.698432 0.878657
Si Si4 0.954368 0.802225 0.398641
O O1 0.670373 0.303971 0.522178
O O2 0.795215 0.291428 0.553990
O O3 0.747826 0.391379 0.562907
O O4 0.748921 0.326538 0.742261
O O5 0.875000 0.275827 0.375000
O O6 0.828299 0.270880 0.159582
O O7 0.451053 0.739872 0.925051
O O8 0.507837 0.691802 0.732000
O O9 0.875000 0.820157 0.375000
#
# Coordination Sequence:
#
# PCOD9516751 Si02
#       4
#    32  32  32  32
#     4  11  24  42  68  99 135 184 228 288 351 405
#     4  11  23  43  64  97 140 172 230 286 333 433
#     4  11  24  42  70  98 133 187 228 285 356 401
#     4  11  23  43  66  99 137 172 240 288 334 430
#
# _framework density 23.808012000000002
#
# number of rings (size 3 to 8) (size 9 to 14) (size 15 to 20)
#    0.000    1.000    5.000    1.500    0.000    4.000 
#    0.000    0.000    5.500    0.000    0.000    0.000 
#    0.000    0.000    0.000    0.000    0.000    0.000 
#
# Total GULP energy -178295.175696 kJ/mol
# GULP energy per Si atom -5571.724241 kJ/mol
# Density = 2.375382 g / cm^3
# Si number density = 23.808012 Si / 1000 Ang^3
#
#
#
# Elastic Constant Matrix: (Units=GPa)
#
#
# Indices 1 2 3 4 5 6 
#
# 1 88.0095 70.5178 17.7719 0.0000 0.0000 0.0000
# 2 70.5178 226.3635 22.7373 0.0000 0.0000 0.0000
# 3 17.7719 22.7373 79.9595 0.0000 0.0000 0.0000
# 4 0.0000 0.0000 0.0000 17.0820 0.0000 0.0000
# 5 0.0000 0.0000 0.0000 0.0000 34.0511 0.0000
# 6 0.0000 0.0000 0.0000 0.0000 0.0000 23.7170
#
#
#
# Elastic Compliance Matrix: (Units=1/GPa)
#
#
# Indices 1 2 3 4 5 6 
#
# 1 0.015487 -0.004610 -0.002131 0.000000 0.000000 0.000000
# 2 -0.004610 0.005920 -0.000659 0.000000 0.000000 0.000000
# 3 -0.002131 -0.000659 0.013167 0.000000 0.000000 0.000000
# 4 0.000000 0.000000 0.000000 0.058541 0.000000 0.000000
# 5 0.000000 0.000000 0.000000 0.000000 0.029368 0.000000
# 6 0.000000 0.000000 0.000000 0.000000 0.000000 0.042164
#
#
# Mechanical properties :
#
#
# Convention : Reuss Voigt Hill
#
# Bulk Modulus (GPa) = 50.57217 68.48738 59.52977
# Shear Modulus (GPa) = 26.87611 33.85706 30.36659
#
# Velocity S-wave (km/s) = 3.36351 3.77515 3.57526
# Velocity P-wave (km/s) = 6.03092 6.91602 6.48858
#
# Compressibility (1/GPa) = 0.01977372
#
# Stress axis : x y z
#
# Youngs Moduli (GPa) = 64.57062 168.91555 75.94564
#
# Poissons Ratio (x) = 0.77878 0.16185
# Poissons Ratio (y) = 0.29770 0.05003
# Poissons Ratio (z) = 0.13761 0.11127
#
# Static dielectric constant tensor:
#      x y z
#    x 1.847070 0.000000 0.000000 
#    y 0.000000 1.934750 0.000000 
#    z 0.000000 0.000000 1.925620 
# 
# From -- ./inp_files/18857.got.cif
#   From: 2010.05.17/outbox.cif.g08.bks.cpg/sg70_10_cif.got.tgz:18857.got - 2010.06.03 15:57:51.
