data_PCOD9516863
_publ_section_title
;
Structure prediction by ZEFSAII (Michael W. Deem and Ramdas Pophale) SiO2 
 PCOD9516863
Probable space group: F D D D
;
_chemical_formula_sum "Si O2"
_cell_formula_units_Z 176
_cell_length_a 25.305315
_cell_length_b 11.955955
_cell_length_c 26.272208
_cell_angle_alpha 90.000000
_cell_angle_beta 90.000000
_cell_angle_gamma 90.000000
_cell_volume 7948.635707
_symmetry_space_group_name_H-M "F D D D"
_symmetry_group_IT_number 70
_space_group.IT_coordinate_system_code '2'
_symmetry_cell_setting 'orthorhombic'
loop_
_space_group_symop_operation_xyz
x,y,z
1/4-x,1/4-y,z
x,1/4-y,1/4-z
1/4-x,y,1/4-z
-x,-y,-z
3/4+x,3/4+y,-z
-x,3/4+y,3/4+z
3/4+x,-y,3/4+z
x,1/2+y,1/2+z
1/4-x,3/4-y,1/2+z
x,3/4-y,3/4-z
1/4-x,1/2+y,3/4-z
-x,1/2-y,1/2-z
3/4+x,1/4+y,1/2-z
-x,1/4+y,1/4+z
3/4+x,1/2-y,1/4+z
1/2+x,y,1/2+z
3/4-x,1/4-y,1/2+z
1/2+x,1/4-y,3/4-z
3/4-x,y,3/4-z
1/2-x,-y,1/2-z
1/4+x,3/4+y,1/2-z
1/2-x,3/4+y,1/4+z
1/4+x,-y,1/4+z
1/2+x,1/2+y,z
3/4-x,3/4-y,z
1/2+x,3/4-y,1/4-z
3/4-x,1/2+y,1/4-z
1/2-x,1/2-y,-z
1/4+x,1/4+y,-z
1/2-x,1/4+y,3/4+z
1/4+x,1/2-y,3/4+z
loop_
_atom_site_type_symbol
_atom_site_label
_atom_site_fract_x
_atom_site_fract_y
_atom_site_fract_z
Si Si1 0.311631 0.368781 0.131216
Si Si2 0.784861 0.488426 0.903953
Si Si3 0.902886 0.746815 0.982017
Si Si4 0.125000 0.919109 0.125000
Si Si5 0.803578 0.479298 0.220470
Si Si6 0.512113 0.129957 0.989739
O O1 0.375000 0.375000 0.125366
O O2 0.274363 0.472616 0.112949
O O3 0.294850 0.275908 0.089626
O O4 0.296942 0.351146 0.189617
O O5 0.799440 0.375000 0.875000
O O6 0.825553 0.586932 0.888898
O O7 0.784209 0.451262 0.962824
O O8 0.883569 0.746410 0.924059
O O9 0.953568 0.671414 0.979672
O O10 0.854339 0.697102 0.014891
O O11 0.925249 0.860076 0.007645
O O12 0.750000 0.500000 0.250000
O O13 0.500000 0.000000 0.000000
#
# Coordination Sequence:
#
# PCOD9516863 Si02
#       6
#    32  32  32  16  32  32
#     4  12  24  47  69 101 149 185 240 300 371 436
#     4  12  24  46  73 105 146 191 238 303 365 438
#     4  11  24  45  73 104 141 186 241 299 361 438
#     4  12  25  45  76 104 144 188 246 304 364 448
#     4  11  24  47  75 100 145 189 241 307 371 434
#     4  12  25  45  73 105 143 189 237 295 365 437
#
# _framework density 22.142163
#
# number of rings (size 3 to 8) (size 9 to 14) (size 15 to 20)
#    0.000    0.364    7.273    1.364    0.000    4.364 
#    0.000    0.000    0.000    0.000    0.000    0.000 
#    0.000    0.000    0.000    0.000    0.000    0.000 
#
# Total GULP energy -245636.496715 kJ/mol
# GULP energy per Si atom -5582.647653 kJ/mol
# Density = 2.209177 g / cm^3
# Si number density = 22.142163 Si / 1000 Ang^3
#
#
#
# Elastic Constant Matrix: (Units=GPa)
#
#
# Indices 1 2 3 4 5 6 
#
# 1 141.0912 29.9262 36.2687 0.0000 0.0000 0.0000
# 2 29.9262 50.8315 20.6012 0.0000 0.0000 0.0000
# 3 36.2687 20.6012 194.7891 0.0000 0.0000 0.0000
# 4 0.0000 0.0000 0.0000 30.0673 0.0000 0.0000
# 5 0.0000 0.0000 0.0000 0.0000 41.6154 0.0000
# 6 0.0000 0.0000 0.0000 0.0000 0.0000 23.1425
#
#
#
# Elastic Compliance Matrix: (Units=1/GPa)
#
#
# Indices 1 2 3 4 5 6 
#
# 1 0.008309 -0.004456 -0.001076 0.000000 0.000000 0.000000
# 2 -0.004456 0.022943 -0.001597 0.000000 0.000000 0.000000
# 3 -0.001076 -0.001597 0.005503 0.000000 0.000000 0.000000
# 4 0.000000 0.000000 0.000000 0.033259 0.000000 0.000000
# 5 0.000000 0.000000 0.000000 0.000000 0.024030 0.000000
# 6 0.000000 0.000000 0.000000 0.000000 0.000000 0.043211
#
#
# Mechanical properties :
#
#
# Convention : Reuss Voigt Hill
#
# Bulk Modulus (GPa) = 44.44777 62.25597 53.35187
# Shear Modulus (GPa) = 31.44433 38.95943 35.20188
#
# Velocity S-wave (km/s) = 3.77252 4.19921 3.99157
# Velocity P-wave (km/s) = 6.25246 7.18948 6.73728
#
# Compressibility (1/GPa) = 0.02249832
#
# Stress axis : x y z
#
# Youngs Moduli (GPa) = 120.34704 43.58559 181.72016
#
# Poissons Ratio (x) = 0.19421 0.19551
# Poissons Ratio (y) = 0.53626 0.29018
# Poissons Ratio (z) = 0.12948 0.06960
#
# Static dielectric constant tensor:
#      x y z
#    x 1.724980 0.000000 0.000000 
#    y 0.000000 4.572070 0.000000 
#    z 0.000000 0.000000 1.855320 
# 
# From -- ./inp_files/53629.got.cif
#   From: 2010.05.17/outbox.cif.g08.bks.cpg/sg70_27_cif.got.tgz:53629.got - 2010.06.03 15:57:51.
