data_PCOD9516928
_publ_section_title
;
Structure prediction by ZEFSAII (Michael W. Deem and Ramdas Pophale) SiO2 
 PCOD9516928
Probable space group: F D D D
;
_chemical_formula_sum "Si O2"
_cell_formula_units_Z 120
_cell_length_a 8.843495
_cell_length_b 21.043959
_cell_length_c 28.297642
_cell_angle_alpha 90.000000
_cell_angle_beta 90.000000
_cell_angle_gamma 90.000000
_cell_volume 5266.251909
_symmetry_space_group_name_H-M "F D D D"
_symmetry_group_IT_number 70
_space_group.IT_coordinate_system_code '2'
_symmetry_cell_setting 'orthorhombic'
loop_
_space_group_symop_operation_xyz
x,y,z
1/4-x,1/4-y,z
x,1/4-y,1/4-z
1/4-x,y,1/4-z
-x,-y,-z
3/4+x,3/4+y,-z
-x,3/4+y,3/4+z
3/4+x,-y,3/4+z
x,1/2+y,1/2+z
1/4-x,3/4-y,1/2+z
x,3/4-y,3/4-z
1/4-x,1/2+y,3/4-z
-x,1/2-y,1/2-z
3/4+x,1/4+y,1/2-z
-x,1/4+y,1/4+z
3/4+x,1/2-y,1/4+z
1/2+x,y,1/2+z
3/4-x,1/4-y,1/2+z
1/2+x,1/4-y,3/4-z
3/4-x,y,3/4-z
1/2-x,-y,1/2-z
1/4+x,3/4+y,1/2-z
1/2-x,3/4+y,1/4+z
1/4+x,-y,1/4+z
1/2+x,1/2+y,z
3/4-x,3/4-y,z
1/2+x,3/4-y,1/4-z
3/4-x,1/2+y,1/4-z
1/2-x,1/2-y,-z
1/4+x,1/4+y,-z
1/2-x,1/4+y,3/4+z
1/4+x,1/2-y,3/4+z
loop_
_atom_site_type_symbol
_atom_site_label
_atom_site_fract_x
_atom_site_fract_y
_atom_site_fract_z
Si Si1 0.633758 0.283096 0.406135
Si Si2 0.095683 0.197871 0.814048
Si Si3 0.625000 0.625000 0.625000
Si Si4 0.473698 0.220271 0.484301
Si Si5 0.375000 0.375000 0.802830
O O1 0.634711 0.244318 0.357438
O O2 0.487442 0.329745 0.404324
O O3 0.610755 0.235191 0.449463
O O4 0.777656 0.325801 0.416970
O O5 0.125000 0.125000 0.826489
O O6 0.190180 0.220000 0.768311
O O7 0.922093 0.207084 0.798115
O O8 0.509935 0.162680 0.519029
#
# Coordination Sequence:
#
# PCOD9516928 Si02
#       5
#    32  32   8  32  16
#     4  12  26  48  74 111 148 204 246 317 383 451
#     4  11  25  46  77 107 151 199 258 303 380 463
#     4  12  24  46  76  98 148 196 260 286 384 466
#     4  11  25  48  71 114 146 202 245 314 388 445
#     4  12  28  47  78 111 154 185 260 326 371 452
#
# _framework density 22.786605000000002
#
# number of rings (size 3 to 8) (size 9 to 14) (size 15 to 20)
#    0.000    0.533    2.667    4.000    7.467    4.800 
#    4.800    0.000    0.000    0.000    0.000    0.000 
#    0.000    0.000    0.000    0.000    0.000    0.000 
#
# Total GULP energy -168143.633697 kJ/mol
# GULP energy per Si atom -5604.787790 kJ/mol
# Density = 2.273474 g / cm^3
# Si number density = 22.786605 Si / 1000 Ang^3
#
#
#
# Elastic Constant Matrix: (Units=GPa)
#
#
# Indices 1 2 3 4 5 6 
#
# 1 83.6870 39.8816 77.0286 0.0000 0.0000 0.0000
# 2 39.8816 124.9056 85.9242 0.0000 0.0000 0.0000
# 3 77.0286 85.9242 159.3364 0.0000 0.0000 0.0000
# 4 0.0000 0.0000 0.0000 29.4621 0.0000 0.0000
# 5 0.0000 0.0000 0.0000 0.0000 28.2120 0.0000
# 6 0.0000 0.0000 0.0000 0.0000 0.0000 33.9831
#
#
#
# Elastic Compliance Matrix: (Units=1/GPa)
#
#
# Indices 1 2 3 4 5 6 
#
# 1 0.021545 0.000454 -0.010661 0.000000 0.000000 0.000000
# 2 0.000454 0.012737 -0.007088 0.000000 0.000000 0.000000
# 3 -0.010661 -0.007088 0.015252 0.000000 0.000000 0.000000
# 4 0.000000 0.000000 0.000000 0.033942 0.000000 0.000000
# 5 0.000000 0.000000 0.000000 0.000000 0.035446 0.000000
# 6 0.000000 0.000000 0.000000 0.000000 0.000000 0.029426
#
#
# Mechanical properties :
#
#
# Convention : Reuss Voigt Hill
#
# Bulk Modulus (GPa) = 66.91064 85.95533 76.43298
# Shear Modulus (GPa) = 26.60704 29.33773 27.97238
#
# Velocity S-wave (km/s) = 3.42081 3.59207 3.50748
# Velocity P-wave (km/s) = 6.71047 7.41672 7.07241
#
# Compressibility (1/GPa) = 0.01494531
#
# Stress axis : x y z
#
# Youngs Moduli (GPa) = 46.41377 78.51067 65.56387
#
# Poissons Ratio (x) = -0.03568 0.69896
# Poissons Ratio (y) = -0.02109 0.46474
# Poissons Ratio (z) = 0.49481 0.55651
#
# Static dielectric constant tensor:
#      x y z
#    x 1.847330 0.000000 0.000000 
#    y 0.000000 1.826910 0.000000 
#    z 0.000000 0.000000 1.823480 
# 
# From -- ./inp_files/10722.got.cif
#   From: 2010.05.17/outbox.cif.g08.bks.cpg/sg70_6_cif.got.tgz:10722.got - 2010.06.03 15:57:51.
