data_PCOD9516098
_publ_section_title
;
Structure prediction by ZEFSAII (Michael W. Deem and Ramdas Pophale) SiO2 
 PCOD9516098
Probable space group: F D D D
;
_chemical_formula_sum "Si O2"
_cell_formula_units_Z 208
_cell_length_a 18.179416
_cell_length_b 27.769103
_cell_length_c 20.191819
_cell_angle_alpha 90.000000
_cell_angle_beta 90.000000
_cell_angle_gamma 90.000000
_cell_volume 10193.356741
_symmetry_space_group_name_H-M "F D D D"
_symmetry_group_IT_number 70
_space_group.IT_coordinate_system_code '2'
_symmetry_cell_setting 'orthorhombic'
loop_
_space_group_symop_operation_xyz
x,y,z
1/4-x,1/4-y,z
x,1/4-y,1/4-z
1/4-x,y,1/4-z
-x,-y,-z
3/4+x,3/4+y,-z
-x,3/4+y,3/4+z
3/4+x,-y,3/4+z
x,1/2+y,1/2+z
1/4-x,3/4-y,1/2+z
x,3/4-y,3/4-z
1/4-x,1/2+y,3/4-z
-x,1/2-y,1/2-z
3/4+x,1/4+y,1/2-z
-x,1/4+y,1/4+z
3/4+x,1/2-y,1/4+z
1/2+x,y,1/2+z
3/4-x,1/4-y,1/2+z
1/2+x,1/4-y,3/4-z
3/4-x,y,3/4-z
1/2-x,-y,1/2-z
1/4+x,3/4+y,1/2-z
1/2-x,3/4+y,1/4+z
1/4+x,-y,1/4+z
1/2+x,1/2+y,z
3/4-x,3/4-y,z
1/2+x,3/4-y,1/4-z
3/4-x,1/2+y,1/4-z
1/2-x,1/2-y,-z
1/4+x,1/4+y,-z
1/2-x,1/4+y,3/4+z
1/4+x,1/2-y,3/4+z
loop_
_atom_site_type_symbol
_atom_site_label
_atom_site_fract_x
_atom_site_fract_y
_atom_site_fract_z
Si Si1 0.281047 0.375000 0.875000
Si Si2 0.039623 0.467545 0.442845
Si Si3 0.709714 0.881352 0.121081
Si Si4 0.938751 0.409013 0.238306
Si Si5 0.700360 0.982056 0.452490
Si Si6 0.275000 0.475617 0.182451
Si Si7 0.303703 0.956838 0.073020
O O1 0.244965 0.416818 0.829385
O O2 0.316600 0.343266 0.817092
O O3 0.123686 0.454870 0.462290
O O4 0.040781 0.501121 0.377252
O O5 0.000000 0.500000 0.500000
O O6 0.625000 0.866653 0.125000
O O7 0.735815 0.892535 0.046064
O O8 0.723599 0.931093 0.160753
O O9 0.763936 0.840720 0.149457
O O10 0.875000 0.375000 0.211071
O O11 0.926613 0.463023 0.216477
O O12 0.763173 0.968735 0.504060
O O13 0.725604 0.984547 0.376378
O O14 0.250000 0.500000 0.250000
O O15 0.358478 0.455239 0.186854
#
# Coordination Sequence:
#
# PCOD9516098 Si02
#       7
#    16  32  32  32  32  32  32
#     4  12  23  38  66  98 136 175 232 272 343 418
#     4  11  24  40  63  96 140 182 223 282 344 416
#     4  11  25  41  71  97 131 177 225 277 348 424
#     4  11  22  42  63  92 128 176 220 272 337 418
#     4  10  23  41  63  93 134 170 222 286 343 408
#     4  10  24  44  72  95 129 176 231 287 344 413
#     4  11  23  44  63  97 136 174 228 284 350 408
#
# _framework density 20.405446999999999
#
# number of rings (size 3 to 8) (size 9 to 14) (size 15 to 20)
#    0.000    1.231    1.538    5.308    8.615    0.000 
#    0.000    0.000    0.000    1.846    0.000    0.000 
#    0.000    0.000    0.000    0.000    0.000    0.000 
#
# Total GULP energy -290234.631603 kJ/mol
# GULP energy per Si atom -5581.435223 kJ/mol
# Density = 2.035900 g / cm^3
# Si number density = 20.405447 Si / 1000 Ang^3
#
#
#
# Elastic Constant Matrix: (Units=GPa)
#
#
# Indices 1 2 3 4 5 6 
#
# 1 95.5097 8.0569 43.0956 0.0000 0.0000 0.0000
# 2 8.0569 57.4968 17.7001 0.0000 0.0000 0.0000
# 3 43.0956 17.7001 147.0973 0.0000 0.0000 0.0000
# 4 0.0000 0.0000 0.0000 24.1502 0.0000 0.0000
# 5 0.0000 0.0000 0.0000 0.0000 26.6541 0.0000
# 6 0.0000 0.0000 0.0000 0.0000 0.0000 29.3612
#
#
#
# Elastic Compliance Matrix: (Units=1/GPa)
#
#
# Indices 1 2 3 4 5 6 
#
# 1 0.012087 -0.000627 -0.003466 0.000000 0.000000 0.000000
# 2 -0.000627 0.018094 -0.001994 0.000000 0.000000 0.000000
# 3 -0.003466 -0.001994 0.008053 0.000000 0.000000 0.000000
# 4 0.000000 0.000000 0.000000 0.041408 0.000000 0.000000
# 5 0.000000 0.000000 0.000000 0.000000 0.037518 0.000000
# 6 0.000000 0.000000 0.000000 0.000000 0.000000 0.034059
#
#
# Mechanical properties :
#
#
# Convention : Reuss Voigt Hill
#
# Bulk Modulus (GPa) = 38.37014 48.64545 43.50780
# Shear Modulus (GPa) = 29.05670 31.44984 30.25327
#
# Velocity S-wave (km/s) = 3.77764 3.93013 3.85464
# Velocity P-wave (km/s) = 6.15404 6.66977 6.41708
#
# Compressibility (1/GPa) = 0.02606193
#
# Stress axis : x y z
#
# Youngs Moduli (GPa) = 82.73499 55.26749 124.17024
#
# Poissons Ratio (x) = 0.03464 0.43033
# Poissons Ratio (y) = 0.05186 0.24754
# Poissons Ratio (z) = 0.28673 0.11018
#
# Static dielectric constant tensor:
#      x y z
#    x 1.798970 0.000000 0.000000 
#    y 0.000000 1.751160 0.000000 
#    z 0.000000 0.000000 1.634060 
# 
# From -- ./inp_files/38705.got.cif
#   From: 2010.05.17/outbox.cif.g08.bks.cpg/sg70_20_cif.got.tgz:38705.got - 2010.06.03 15:57:51.
