data_PCOD9516936
_publ_section_title
;
Structure prediction by ZEFSAII (Michael W. Deem and Ramdas Pophale) SiO2 
 PCOD9516936
Probable space group: F D D D
;
_chemical_formula_sum "Si O2"
_cell_formula_units_Z 88
_cell_length_a 26.944723
_cell_length_b 25.672197
_cell_length_c 5.151881
_cell_angle_alpha 90.000000
_cell_angle_beta 90.000000
_cell_angle_gamma 90.000000
_cell_volume 3563.711865
_symmetry_space_group_name_H-M "F D D D"
_symmetry_group_IT_number 70
_space_group.IT_coordinate_system_code '2'
_symmetry_cell_setting 'orthorhombic'
loop_
_space_group_symop_operation_xyz
x,y,z
1/4-x,1/4-y,z
x,1/4-y,1/4-z
1/4-x,y,1/4-z
-x,-y,-z
3/4+x,3/4+y,-z
-x,3/4+y,3/4+z
3/4+x,-y,3/4+z
x,1/2+y,1/2+z
1/4-x,3/4-y,1/2+z
x,3/4-y,3/4-z
1/4-x,1/2+y,3/4-z
-x,1/2-y,1/2-z
3/4+x,1/4+y,1/2-z
-x,1/4+y,1/4+z
3/4+x,1/2-y,1/4+z
1/2+x,y,1/2+z
3/4-x,1/4-y,1/2+z
1/2+x,1/4-y,3/4-z
3/4-x,y,3/4-z
1/2-x,-y,1/2-z
1/4+x,3/4+y,1/2-z
1/2-x,3/4+y,1/4+z
1/4+x,-y,1/4+z
1/2+x,1/2+y,z
3/4-x,3/4-y,z
1/2+x,3/4-y,1/4-z
3/4-x,1/2+y,1/4-z
1/2-x,1/2-y,-z
1/4+x,1/4+y,-z
1/2-x,1/4+y,3/4+z
1/4+x,1/2-y,3/4+z
loop_
_atom_site_type_symbol
_atom_site_label
_atom_site_fract_x
_atom_site_fract_y
_atom_site_fract_z
Si Si1 0.875000 0.375000 0.375000
Si Si2 0.327047 0.285228 0.555061
Si Si3 0.411032 0.625000 0.125000
Si Si4 0.532806 0.817013 0.771299
O O1 0.911027 0.334508 0.517612
O O2 0.375000 0.282925 0.375000
O O3 0.317772 0.226509 0.652287
O O4 0.273427 0.298085 0.436242
O O5 0.375000 0.633370 0.375000
O O6 0.446361 0.577337 0.226761
O O7 0.533615 0.875000 0.875000
#
# Coordination Sequence:
#
# PCOD9516936 Si02
#       4
#     8  32  16  32
#     4  12  24  48  76 106 160 216 262 332 406 496
#     4  11  26  47  76 114 159 213 272 332 413 489
#     4  12  25  46  80 119 165 208 266 343 412 476
#     4  11  25  47  78 117 160 210 271 341 408 493
#
# _framework density 24.693352999999998
#
# number of rings (size 3 to 8) (size 9 to 14) (size 15 to 20)
#    0.000    0.727    1.818    4.909    0.000    5.818 
#    0.000    9.091    0.000    0.000    0.000    0.000 
#    0.000    0.000    0.000    0.000    0.000    0.000 
#
# Total GULP energy -122648.879633 kJ/mol
# GULP energy per Si atom -5574.949074 kJ/mol
# Density = 2.463715 g / cm^3
# Si number density = 24.693353 Si / 1000 Ang^3
#
#
#
# Elastic Constant Matrix: (Units=GPa)
#
#
# Indices 1 2 3 4 5 6 
#
# 1 193.1260 65.4671 47.7232 -0.1052 0.0273 -0.0182
# 2 65.4671 241.4490 48.8125 -0.1073 0.0498 -0.0020
# 3 47.7232 48.8125 73.4893 -0.2524 0.0631 0.0333
# 4 -0.1052 -0.1073 -0.2524 35.1402 0.1406 -0.0798
# 5 0.0273 0.0498 0.0631 0.1406 21.4294 -0.0711
# 6 -0.0182 -0.0020 0.0333 -0.0798 -0.0711 26.0457
#
#
#
# Elastic Compliance Matrix: (Units=1/GPa)
#
#
# Indices 1 2 3 4 5 6 
#
# 1 0.006382 -0.001031 -0.003460 -0.000009 0.000005 0.000009
# 2 -0.001031 0.004951 -0.002619 -0.000007 -0.000002 0.000003
# 3 -0.003460 -0.002619 0.017594 0.000108 -0.000042 -0.000025
# 4 -0.000009 -0.000007 0.000108 0.028459 -0.000187 0.000086
# 5 0.000005 -0.000002 -0.000042 -0.000187 0.046667 0.000127
# 6 0.000009 0.000003 -0.000025 0.000086 0.000127 0.038395
#
#
# Mechanical properties :
#
#
# Convention : Reuss Voigt Hill
#
# Bulk Modulus (GPa) = 67.99133 92.45220 80.22176
# Shear Modulus (GPa) = 30.94644 39.59384 35.27014
#
# Velocity S-wave (km/s) = 3.54394 4.00862 3.78342
# Velocity P-wave (km/s) = 6.65883 7.67768 7.18633
#
# Compressibility (1/GPa) = 0.01470776
#
# Stress axis : x y z
#
# Youngs Moduli (GPa) = 156.67942 201.99394 56.83743
#
# Poissons Ratio (x) = 0.20827 0.19665
# Poissons Ratio (y) = 0.16155 0.14884
# Poissons Ratio (z) = 0.54209 0.52896
#
# Static dielectric constant tensor:
#      x y z
#    x 2.242020 0.001240 -0.000580 
#    y 0.001240 1.981100 0.000060 
#    z -0.000580 0.000060 2.184180 
# 
# From -- ./inp_files/3328.got.cif
#   From: 2010.05.17/outbox.cif.g08.bks.cpg/sg70_2_cif.got.tgz:3328.got - 2010.06.03 15:57:51.
