data_PCOD9516907
_publ_section_title
;
Structure prediction by ZEFSAII (Michael W. Deem and Ramdas Pophale) SiO2 
 PCOD9516907
Probable space group: F D D D
;
_chemical_formula_sum "Si O2"
_cell_formula_units_Z 104
_cell_length_a 15.882725
_cell_length_b 34.139063
_cell_length_c 8.962674
_cell_angle_alpha 90.000000
_cell_angle_beta 90.000000
_cell_angle_gamma 90.000000
_cell_volume 4859.753190
_symmetry_space_group_name_H-M "F D D D"
_symmetry_group_IT_number 70
_space_group.IT_coordinate_system_code '2'
_symmetry_cell_setting 'orthorhombic'
loop_
_space_group_symop_operation_xyz
x,y,z
1/4-x,1/4-y,z
x,1/4-y,1/4-z
1/4-x,y,1/4-z
-x,-y,-z
3/4+x,3/4+y,-z
-x,3/4+y,3/4+z
3/4+x,-y,3/4+z
x,1/2+y,1/2+z
1/4-x,3/4-y,1/2+z
x,3/4-y,3/4-z
1/4-x,1/2+y,3/4-z
-x,1/2-y,1/2-z
3/4+x,1/4+y,1/2-z
-x,1/4+y,1/4+z
3/4+x,1/2-y,1/4+z
1/2+x,y,1/2+z
3/4-x,1/4-y,1/2+z
1/2+x,1/4-y,3/4-z
3/4-x,y,3/4-z
1/2-x,-y,1/2-z
1/4+x,3/4+y,1/2-z
1/2-x,3/4+y,1/4+z
1/4+x,-y,1/4+z
1/2+x,1/2+y,z
3/4-x,3/4-y,z
1/2+x,3/4-y,1/4-z
3/4-x,1/2+y,1/4-z
1/2-x,1/2-y,-z
1/4+x,1/4+y,-z
1/2-x,1/4+y,3/4+z
1/4+x,1/2-y,3/4+z
loop_
_atom_site_type_symbol
_atom_site_label
_atom_site_fract_x
_atom_site_fract_y
_atom_site_fract_z
Si Si1 0.532022 0.267942 0.091214
Si Si2 0.939706 0.578618 0.604676
Si Si3 0.125000 0.125000 0.625000
Si Si4 0.254382 0.685159 0.269576
O O1 0.625000 0.281433 0.125000
O O2 0.500000 0.250000 0.250000
O O3 0.507887 0.304175 0.981096
O O4 0.531094 0.228846 0.993824
O O5 0.945101 0.625000 0.625000
O O6 0.974800 0.570221 0.441303
O O7 0.839313 0.568624 0.581832
O O8 0.186114 0.153520 0.717640
#
# Coordination Sequence:
#
# PCOD9516907 Si02
#       4
#    32  32   8  32
#     4  12  25  44  72 105 144 190 243 296 362 435
#     4  11  26  45  73 107 145 196 241 299 372 444
#     4  12  24  44  74 116 136 198 246 320 360 430
#     4  11  25  44  71 104 151 186 247 300 371 434
#
# _framework density 21.400264
#
# number of rings (size 3 to 8) (size 9 to 14) (size 15 to 20)
#    0.000    0.615    6.154    0.923    8.615    0.000 
#    0.000    3.846    0.000    0.000    0.000    0.000 
#    0.000    0.000    0.000    0.000    0.000    0.000 
#
# Total GULP energy -144758.707424 kJ/mol
# GULP energy per Si atom -5567.642593 kJ/mol
# Density = 2.135156 g / cm^3
# Si number density = 21.400264 Si / 1000 Ang^3
#
#
#
# Elastic Constant Matrix: (Units=GPa)
#
#
# Indices 1 2 3 4 5 6 
#
# 1 44.1214 -1.6466 44.6670 0.0000 0.0000 0.0000
# 2 -1.6466 148.8267 61.4483 0.0000 0.0000 0.0000
# 3 44.6670 61.4483 151.1485 0.0000 0.0000 0.0000
# 4 0.0000 0.0000 0.0000 131.4413 0.0000 0.0000
# 5 0.0000 0.0000 0.0000 0.0000 57.1545 0.0000
# 6 0.0000 0.0000 0.0000 0.0000 0.0000 -6.7967
#
#
#
# Elastic Compliance Matrix: (Units=1/GPa)
#
#
# Indices 1 2 3 4 5 6 
#
# 1 0.036031 0.005762 -0.012990 0.000000 0.000000 0.000000
# 2 0.005762 0.008996 -0.005360 0.000000 0.000000 0.000000
# 3 -0.012990 -0.005360 0.012634 0.000000 0.000000 0.000000
# 4 0.000000 0.000000 0.000000 0.007608 0.000000 0.000000
# 5 0.000000 0.000000 0.000000 0.000000 0.017496 0.000000
# 6 0.000000 0.000000 0.000000 0.000000 0.000000 -0.147130
#
#
# Mechanical properties :
#
#
# Convention : Reuss Voigt Hill
#
# Bulk Modulus (GPa) = 30.78412 61.44822 46.11617
# Shear Modulus (GPa) = -176.30466 52.33503 -61.98482
#
# Velocity S-wave (km/s) = -9.08643 4.95060 -5.38771
# Velocity P-wave (km/s) = 9.78101 7.83926 4.13607
#
# Compressibility (1/GPa) = 0.03248428
#
# Stress axis : x y z
#
# Youngs Moduli (GPa) = 27.75414 111.15954 79.15173
#
# Poissons Ratio (x) = -0.64051 1.02820
# Poissons Ratio (y) = -0.15992 0.42426
# Poissons Ratio (z) = 0.36053 0.59583
#
# Static dielectric constant tensor:
#      x y z
#    x 1.824140 0.000000 0.000000 
#    y 0.000000 0.939420 0.000000 
#    z 0.000000 0.000000 1.871260 
# 
# From -- ./inp_files/8414.got.cif
#   From: 2010.05.17/outbox.cif.g08.bks.cpg/sg70_5_cif.got.tgz:8414.got - 2010.06.03 15:57:51.
