data_PCOD9516081
_publ_section_title
;
Structure prediction by ZEFSAII (Michael W. Deem and Ramdas Pophale) SiO2 
 PCOD9516081
Probable space group: F D D D
;
_chemical_formula_sum "Si O2"
_cell_formula_units_Z 152
_cell_length_a 22.044909
_cell_length_b 23.496395
_cell_length_c 15.133782
_cell_angle_alpha 90.000000
_cell_angle_beta 90.000000
_cell_angle_gamma 90.000000
_cell_volume 7838.934195
_symmetry_space_group_name_H-M "F D D D"
_symmetry_group_IT_number 70
_space_group.IT_coordinate_system_code '2'
_symmetry_cell_setting 'orthorhombic'
loop_
_space_group_symop_operation_xyz
x,y,z
1/4-x,1/4-y,z
x,1/4-y,1/4-z
1/4-x,y,1/4-z
-x,-y,-z
3/4+x,3/4+y,-z
-x,3/4+y,3/4+z
3/4+x,-y,3/4+z
x,1/2+y,1/2+z
1/4-x,3/4-y,1/2+z
x,3/4-y,3/4-z
1/4-x,1/2+y,3/4-z
-x,1/2-y,1/2-z
3/4+x,1/4+y,1/2-z
-x,1/4+y,1/4+z
3/4+x,1/2-y,1/4+z
1/2+x,y,1/2+z
3/4-x,1/4-y,1/2+z
1/2+x,1/4-y,3/4-z
3/4-x,y,3/4-z
1/2-x,-y,1/2-z
1/4+x,3/4+y,1/2-z
1/2-x,3/4+y,1/4+z
1/4+x,-y,1/4+z
1/2+x,1/2+y,z
3/4-x,3/4-y,z
1/2+x,3/4-y,1/4-z
3/4-x,1/2+y,1/4-z
1/2-x,1/2-y,-z
1/4+x,1/4+y,-z
1/2-x,1/4+y,3/4+z
1/4+x,1/2-y,3/4+z
loop_
_atom_site_type_symbol
_atom_site_label
_atom_site_fract_x
_atom_site_fract_y
_atom_site_fract_z
Si Si1 0.670297 0.375000 0.375000
Si Si2 0.909488 0.582683 0.967791
Si Si3 0.114574 0.546416 0.023899
Si Si4 0.125000 0.125000 0.125000
Si Si5 0.771257 0.315055 0.488882
Si Si6 0.033066 0.606293 0.311733
O O1 0.629531 0.407791 0.444867
O O2 0.714790 0.338921 0.435068
O O3 0.875000 0.594460 0.875000
O O4 0.918357 0.514458 0.969744
O O5 0.966854 0.624734 0.971153
O O6 0.125000 0.564353 0.125000
O O7 0.073866 0.589669 0.967338
O O8 0.181952 0.551985 0.980797
O O9 0.168633 0.083849 0.183775
O O10 0.750000 0.250000 0.500000
O O11 0.778737 0.344444 0.584374
#
# Coordination Sequence:
#
# PCOD9516081 Si02
#       6
#    16  32  32   8  32  32
#     4  11  24  41  60  93 134 169 224 284 326 413
#     4  11  23  42  64  96 132 175 223 281 342 399
#     4  10  23  40  65  98 131 171 224 281 345 410
#     4  10  24  44  72  92 134 178 220 286 336 384
#     4  11  24  43  66  96 131 176 232 277 336 409
#     4  11  21  41  65  93 134 173 216 283 333 410
#
# _framework density 19.39039
#
# number of rings (size 3 to 8) (size 9 to 14) (size 15 to 20)
#    0.000    1.263    2.105    4.421    2.947    1.684 
#    0.000    0.000    0.000    0.000    0.000    0.000 
#    0.000    0.000    0.000    0.000    0.000    0.000 
#
# Total GULP energy -211679.044505 kJ/mol
# GULP energy per Si atom -5570.501171 kJ/mol
# Density = 1.934626 g / cm^3
# Si number density = 19.390390 Si / 1000 Ang^3
#
#
#
# Elastic Constant Matrix: (Units=GPa)
#
#
# Indices 1 2 3 4 5 6 
#
# 1 94.9366 17.6574 49.1210 0.0000 0.0000 0.0000
# 2 17.6574 65.7732 38.9811 0.0000 0.0000 0.0000
# 3 49.1210 38.9811 164.8609 0.0000 0.0000 0.0000
# 4 0.0000 0.0000 0.0000 2885.5804 0.0000 0.0000
# 5 0.0000 0.0000 0.0000 0.0000 -42.1451 0.0000
# 6 0.0000 0.0000 0.0000 0.0000 0.0000 18.2910
#
#
#
# Elastic Compliance Matrix: (Units=1/GPa)
#
#
# Indices 1 2 3 4 5 6 
#
# 1 0.012554 -0.001341 -0.003423 0.000000 0.000000 0.000000
# 2 -0.001341 0.017825 -0.003815 0.000000 0.000000 0.000000
# 3 -0.003423 -0.003815 0.007988 0.000000 0.000000 0.000000
# 4 0.000000 0.000000 0.000000 0.000347 0.000000 0.000000
# 5 0.000000 0.000000 0.000000 0.000000 -0.023728 0.000000
# 6 0.000000 0.000000 0.000000 0.000000 0.000000 0.054672
#
#
# Mechanical properties :
#
#
# Convention : Reuss Voigt Hill
#
# Bulk Modulus (GPa) = 47.15365 59.67662 53.41513
# Shear Modulus (GPa) = 53.25612 586.99933 320.12773
#
# Velocity S-wave (km/s) = 5.24641 17.41793 12.86291
# Velocity P-wave (km/s) = 7.81477 20.86517 15.75478
#
# Compressibility (1/GPa) = 0.02120727
#
# Stress axis : x y z
#
# Youngs Moduli (GPa) = 79.65509 56.10144 125.19116
#
# Poissons Ratio (x) = 0.07525 0.42858
# Poissons Ratio (y) = 0.10685 0.47760
# Poissons Ratio (z) = 0.27269 0.21403
#
# Static dielectric constant tensor:
#      x y z
#    x 1.697600 0.000000 0.000000 
#    y 0.000000 1.622330 0.000000 
#    z 0.000000 0.000000 1.589910 
# 
# From -- ./inp_files/27604.got.cif
#   From: 2010.05.17/outbox.cif.g08.bks.cpg/sg70_14_cif.got.tgz:27604.got - 2010.06.03 15:57:51.
