data_PCOD9516819
_publ_section_title
;
Structure prediction by ZEFSAII (Michael W. Deem and Ramdas Pophale) SiO2 
 PCOD9516819
Probable space group: F D D D
;
_chemical_formula_sum "Si O2"
_cell_formula_units_Z 96
_cell_length_a 30.424450
_cell_length_b 20.791197
_cell_length_c 7.415015
_cell_angle_alpha 90.000000
_cell_angle_beta 90.000000
_cell_angle_gamma 90.000000
_cell_volume 4690.447328
_symmetry_space_group_name_H-M "F D D D"
_symmetry_group_IT_number 70
_space_group.IT_coordinate_system_code '2'
_symmetry_cell_setting 'orthorhombic'
loop_
_space_group_symop_operation_xyz
x,y,z
1/4-x,1/4-y,z
x,1/4-y,1/4-z
1/4-x,y,1/4-z
-x,-y,-z
3/4+x,3/4+y,-z
-x,3/4+y,3/4+z
3/4+x,-y,3/4+z
x,1/2+y,1/2+z
1/4-x,3/4-y,1/2+z
x,3/4-y,3/4-z
1/4-x,1/2+y,3/4-z
-x,1/2-y,1/2-z
3/4+x,1/4+y,1/2-z
-x,1/4+y,1/4+z
3/4+x,1/2-y,1/4+z
1/2+x,y,1/2+z
3/4-x,1/4-y,1/2+z
1/2+x,1/4-y,3/4-z
3/4-x,y,3/4-z
1/2-x,-y,1/2-z
1/4+x,3/4+y,1/2-z
1/2-x,3/4+y,1/4+z
1/4+x,-y,1/4+z
1/2+x,1/2+y,z
3/4-x,3/4-y,z
1/2+x,3/4-y,1/4-z
3/4-x,1/2+y,1/4-z
1/2-x,1/2-y,-z
1/4+x,1/4+y,-z
1/2-x,1/4+y,3/4+z
1/4+x,1/2-y,3/4+z
loop_
_atom_site_type_symbol
_atom_site_label
_atom_site_fract_x
_atom_site_fract_y
_atom_site_fract_z
Si Si1 0.300117 0.875000 0.875000
Si Si2 0.102976 0.311146 0.299174
Si Si3 0.625000 0.221369 0.125000
Si Si4 0.003736 0.326799 0.217846
O O1 0.334467 0.821419 0.947210
O O2 0.269964 0.846758 0.716451
O O3 0.126792 0.375000 0.375000
O O4 0.103791 0.262855 0.465191
O O5 0.056227 0.335443 0.224396
O O6 0.125000 0.280547 0.125000
O O7 0.986386 0.375000 0.375000
O O8 0.000000 0.250000 0.250000
#
# Coordination Sequence:
#
# PCOD9516819 Si02
#       4
#    16  32  16  32
#     4  11  26  44  72  98 138 182 228 290 344 405
#     4  11  24  42  68  98 137 180 228 282 342 412
#     4  11  24  44  66 104 138 175 230 286 347 398
#     4  11  26  46  68 103 137 180 232 280 346 414
#
# _framework density 20.467130999999998
#
# number of rings (size 3 to 8) (size 9 to 14) (size 15 to 20)
#    0.000    1.000    5.000    0.000    7.000    1.333 
#    0.000    3.333    0.000    0.000    0.000    0.000 
#    0.000    0.000    0.000    0.000    0.000    0.000 
#
# Total GULP energy -133758.282728 kJ/mol
# GULP energy per Si atom -5573.261780 kJ/mol
# Density = 2.042055 g / cm^3
# Si number density = 20.467131 Si / 1000 Ang^3
#
#
#
# Elastic Constant Matrix: (Units=GPa)
#
#
# Indices 1 2 3 4 5 6 
#
# 1 94.0034 21.9267 61.7874 -0.0001 0.0000 0.0001
# 2 21.9267 118.7107 58.3638 0.0004 0.0000 -0.0001
# 3 61.7874 58.3638 123.4928 0.0008 -0.0001 -0.0001
# 4 -0.0001 0.0004 0.0008 34.8800 -0.0001 -0.0002
# 5 0.0000 0.0000 -0.0001 -0.0001 31.4009 0.0002
# 6 0.0001 -0.0001 -0.0001 -0.0002 0.0002 36.3903
#
#
#
# Elastic Compliance Matrix: (Units=1/GPa)
#
#
# Indices 1 2 3 4 5 6 
#
# 1 0.015998 0.001277 -0.008608 0.000000 0.000000 0.000000
# 2 0.001277 0.011076 -0.005873 0.000000 0.000000 0.000000
# 3 -0.008608 -0.005873 0.015180 0.000000 0.000000 0.000000
# 4 0.000000 0.000000 0.000000 0.028670 0.000000 0.000000
# 5 0.000000 0.000000 0.000000 0.000000 0.031846 0.000000
# 6 0.000000 0.000000 0.000000 0.000000 0.000000 0.027480
#
#
# Mechanical properties :
#
#
# Convention : Reuss Voigt Hill
#
# Bulk Modulus (GPa) = 63.10963 68.92918 66.01941
# Shear Modulus (GPa) = 30.87574 33.47616 32.17595
#
# Velocity S-wave (km/s) = 3.88822 4.04865 3.96925
# Velocity P-wave (km/s) = 7.14558 7.45698 7.30294
#
# Compressibility (1/GPa) = 0.01584544
#
# Stress axis : x y z
#
# Youngs Moduli (GPa) = 62.50850 90.28861 65.87527
#
# Poissons Ratio (x) = -0.11531 0.56704
# Poissons Ratio (y) = -0.07983 0.38691
# Poissons Ratio (z) = 0.53806 0.53030
#
# Static dielectric constant tensor:
#      x y z
#    x 1.822630 0.000000 0.000000 
#    y 0.000000 1.820730 0.000000 
#    z 0.000000 0.000000 1.729350 
# 
# From -- ./inp_files/10348.got.cif
#   From: 2010.05.17/outbox.cif.g08.bks.cpg/sg70_6_cif.got.tgz:10348.got - 2010.06.03 15:57:51.
