data_PCOD9516640
_publ_section_title
;
Structure prediction by ZEFSAII (Michael W. Deem and Ramdas Pophale) SiO2 
 PCOD9516640
Probable space group: F D D D
;
_chemical_formula_sum "Si O2"
_cell_formula_units_Z 144
_cell_length_a 16.970598
_cell_length_b 18.888083
_cell_length_c 21.011116
_cell_angle_alpha 90.000000
_cell_angle_beta 90.000000
_cell_angle_gamma 90.000000
_cell_volume 6734.946481
_symmetry_space_group_name_H-M "F D D D"
_symmetry_group_IT_number 70
_space_group.IT_coordinate_system_code '2'
_symmetry_cell_setting 'orthorhombic'
loop_
_space_group_symop_operation_xyz
x,y,z
1/4-x,1/4-y,z
x,1/4-y,1/4-z
1/4-x,y,1/4-z
-x,-y,-z
3/4+x,3/4+y,-z
-x,3/4+y,3/4+z
3/4+x,-y,3/4+z
x,1/2+y,1/2+z
1/4-x,3/4-y,1/2+z
x,3/4-y,3/4-z
1/4-x,1/2+y,3/4-z
-x,1/2-y,1/2-z
3/4+x,1/4+y,1/2-z
-x,1/4+y,1/4+z
3/4+x,1/2-y,1/4+z
1/2+x,y,1/2+z
3/4-x,1/4-y,1/2+z
1/2+x,1/4-y,3/4-z
3/4-x,y,3/4-z
1/2-x,-y,1/2-z
1/4+x,3/4+y,1/2-z
1/2-x,3/4+y,1/4+z
1/4+x,-y,1/4+z
1/2+x,1/2+y,z
3/4-x,3/4-y,z
1/2+x,3/4-y,1/4-z
3/4-x,1/2+y,1/4-z
1/2-x,1/2-y,-z
1/4+x,1/4+y,-z
1/2-x,1/4+y,3/4+z
1/4+x,1/2-y,3/4+z
loop_
_atom_site_type_symbol
_atom_site_label
_atom_site_fract_x
_atom_site_fract_y
_atom_site_fract_z
Si Si1 0.096935 0.437661 0.056446
Si Si2 0.741354 0.139689 0.761700
Si Si3 0.864387 0.479001 0.173289
Si Si4 0.543225 0.375000 0.875000
Si Si5 0.421267 0.433622 0.538771
O O1 0.125000 0.465617 0.125000
O O2 0.168283 0.388054 0.034759
O O3 0.008337 0.408269 0.058776
O O4 0.084889 0.496484 0.002782
O O5 0.696426 0.207567 0.792243
O O6 0.698220 0.068374 0.786776
O O7 0.741679 0.148858 0.685569
O O8 0.842839 0.560319 0.157149
O O9 0.873358 0.447957 0.102808
O O10 0.375000 0.375000 0.499786
#
# Coordination Sequence:
#
# PCOD9516640 Si02
#       5
#    32  32  32  16  32
#     4  11  22  41  66 101 135 181 240 284 359 432
#     4  11  24  46  73 104 143 195 235 300 368 428
#     4  11  23  46  71 100 147 183 235 305 358 419
#     4  12  26  47  70 109 140 188 252 292 361 442
#     4  11  22  42  67  97 139 182 231 300 353 421
#
# _framework density 21.381015999999999
#
# number of rings (size 3 to 8) (size 9 to 14) (size 15 to 20)
#    0.000    0.889    6.667    0.667    0.000    4.000 
#    4.000    0.000    0.000    0.000    0.000    0.000 
#    0.000    0.000    0.000    0.000    0.000    0.000 
#
# Total GULP energy -200576.380314 kJ/mol
# GULP energy per Si atom -5571.566120 kJ/mol
# Density = 2.133235 g / cm^3
# Si number density = 21.381016 Si / 1000 Ang^3
#
#
#
# Elastic Constant Matrix: (Units=GPa)
#
#
# Indices 1 2 3 4 5 6 
#
# 1 109.7233 52.0776 6.7031 0.0000 0.0000 0.0000
# 2 52.0776 93.9874 33.7405 0.0000 0.0000 0.0000
# 3 6.7031 33.7405 128.8410 0.0000 0.0000 0.0000
# 4 0.0000 0.0000 0.0000 30.6921 0.0000 0.0000
# 5 0.0000 0.0000 0.0000 0.0000 38.4757 0.0000
# 6 0.0000 0.0000 0.0000 0.0000 0.0000 33.0282
#
#
#
# Elastic Compliance Matrix: (Units=1/GPa)
#
#
# Indices 1 2 3 4 5 6 
#
# 1 0.012557 -0.007421 0.001290 0.000000 0.000000 0.000000
# 2 -0.007421 0.016129 -0.003838 0.000000 0.000000 0.000000
# 3 0.001290 -0.003838 0.008699 0.000000 0.000000 0.000000
# 4 0.000000 0.000000 0.000000 0.032582 0.000000 0.000000
# 5 0.000000 0.000000 0.000000 0.000000 0.025990 0.000000
# 6 0.000000 0.000000 0.000000 0.000000 0.000000 0.030277
#
#
# Mechanical properties :
#
#
# Convention : Reuss Voigt Hill
#
# Bulk Modulus (GPa) = 57.31131 57.51046 57.41088
# Shear Modulus (GPa) = 32.89714 36.44124 34.66919
#
# Velocity S-wave (km/s) = 3.92677 4.13288 4.03115
# Velocity P-wave (km/s) = 6.88639 7.05199 6.96968
#
# Compressibility (1/GPa) = 0.01744856
#
# Stress axis : x y z
#
# Youngs Moduli (GPa) = 79.63551 61.99870 114.95009
#
# Poissons Ratio (x) = 0.46009 -0.14830
# Poissons Ratio (y) = 0.59097 0.44116
# Poissons Ratio (z) = -0.10274 0.23794
#
# Static dielectric constant tensor:
#      x y z
#    x 1.836000 0.000000 0.000000 
#    y 0.000000 1.868710 0.000000 
#    z 0.000000 0.000000 1.776150 
# 
# From -- ./inp_files/52032.got.cif
#   From: 2010.05.17/outbox.cif.g08.bks.cpg/sg70_27_cif.got.tgz:52032.got - 2010.06.03 15:57:51.
