data_PCOD9516661
_publ_section_title
;
Structure prediction by ZEFSAII (Michael W. Deem and Ramdas Pophale) SiO2 
 PCOD9516661
Probable space group: F D D D
;
_chemical_formula_sum "Si O2"
_cell_formula_units_Z 160
_cell_length_a 23.160352
_cell_length_b 27.069222
_cell_length_c 10.907192
_cell_angle_alpha 90.000000
_cell_angle_beta 90.000000
_cell_angle_gamma 90.000000
_cell_volume 6838.075438
_symmetry_space_group_name_H-M "F D D D"
_symmetry_group_IT_number 70
_space_group.IT_coordinate_system_code '2'
_symmetry_cell_setting 'orthorhombic'
loop_
_space_group_symop_operation_xyz
x,y,z
1/4-x,1/4-y,z
x,1/4-y,1/4-z
1/4-x,y,1/4-z
-x,-y,-z
3/4+x,3/4+y,-z
-x,3/4+y,3/4+z
3/4+x,-y,3/4+z
x,1/2+y,1/2+z
1/4-x,3/4-y,1/2+z
x,3/4-y,3/4-z
1/4-x,1/2+y,3/4-z
-x,1/2-y,1/2-z
3/4+x,1/4+y,1/2-z
-x,1/4+y,1/4+z
3/4+x,1/2-y,1/4+z
1/2+x,y,1/2+z
3/4-x,1/4-y,1/2+z
1/2+x,1/4-y,3/4-z
3/4-x,y,3/4-z
1/2-x,-y,1/2-z
1/4+x,3/4+y,1/2-z
1/2-x,3/4+y,1/4+z
1/4+x,-y,1/4+z
1/2+x,1/2+y,z
3/4-x,3/4-y,z
1/2+x,3/4-y,1/4-z
3/4-x,1/2+y,1/4-z
1/2-x,1/2-y,-z
1/4+x,1/4+y,-z
1/2-x,1/4+y,3/4+z
1/4+x,1/2-y,3/4+z
loop_
_atom_site_type_symbol
_atom_site_label
_atom_site_fract_x
_atom_site_fract_y
_atom_site_fract_z
Si Si1 0.114294 0.682760 0.848267
Si Si2 0.193599 0.866466 0.630252
Si Si3 0.261034 0.801910 0.437087
Si Si4 0.474637 0.821779 0.935257
Si Si5 0.256730 0.966164 0.601330
O O1 0.125000 0.625000 0.854133
O O2 0.077490 0.689172 0.724207
O O3 0.174218 0.710902 0.863651
O O4 0.072974 0.692158 0.963610
O O5 0.125000 0.868555 0.625000
O O6 0.222393 0.842851 0.507632
O O7 0.216130 0.832120 0.740801
O O8 0.221798 0.919907 0.656724
O O9 0.250000 0.750000 0.500000
O O10 0.248718 0.794747 0.295001
O O11 0.458840 0.875000 0.875000
O O12 0.483736 0.770523 0.864112
#
# Coordination Sequence:
#
# PCOD9516661 Si02
#       5
#    32  32  32  32  32
#     4  11  23  46  72 108 140 185 242 293 357 430
#     4  11  26  45  65 107 145 184 239 292 366 429
#     4  11  22  42  73 108 142 180 227 300 361 422
#     4  11  27  48  69 103 145 194 241 299 355 432
#     4  12  24  46  75 103 141 190 239 292 368 428
#
# _framework density 23.398396999999999
#
# number of rings (size 3 to 8) (size 9 to 14) (size 15 to 20)
#    0.000    0.800    8.000    1.200    2.800    5.200 
#    3.600    0.000    0.000    0.000    0.000    0.000 
#    0.000    0.000    0.000    0.000    0.000    0.000 
#
# Total GULP energy -223718.743934 kJ/mol
# GULP energy per Si atom -5592.968598 kJ/mol
# Density = 2.334514 g / cm^3
# Si number density = 23.398397 Si / 1000 Ang^3
#
#
#
# Elastic Constant Matrix: (Units=GPa)
#
#
# Indices 1 2 3 4 5 6 
#
# 1 126.8481 38.7777 -0.6464 0.0000 0.0001 0.0000
# 2 38.7777 165.7431 18.3503 0.0000 0.0000 0.0000
# 3 -0.6464 18.3503 48.1287 -0.0001 0.0003 0.0000
# 4 0.0000 0.0000 -0.0001 53.6956 0.0001 0.0000
# 5 0.0001 0.0000 0.0003 0.0001 24.2492 0.0000
# 6 0.0000 0.0000 0.0000 0.0000 0.0000 31.0633
#
#
#
# Elastic Compliance Matrix: (Units=1/GPa)
#
#
# Indices 1 2 3 4 5 6 
#
# 1 0.008529 -0.002097 0.000914 0.000000 0.000000 0.000000
# 2 -0.002097 0.006815 -0.002626 0.000000 0.000000 0.000000
# 3 0.000914 -0.002626 0.021791 0.000000 0.000000 0.000000
# 4 0.000000 0.000000 0.000000 0.018623 0.000000 0.000000
# 5 0.000000 0.000000 0.000000 0.000000 0.041238 0.000000
# 6 0.000000 0.000000 0.000000 0.000000 0.000000 0.032192
#
#
# Mechanical properties :
#
#
# Convention : Reuss Voigt Hill
#
# Bulk Modulus (GPa) = 33.87906 50.40925 42.14415
# Shear Modulus (GPa) = 34.09556 40.75085 37.42321
#
# Velocity S-wave (km/s) = 3.82144 4.17779 4.00358
# Velocity P-wave (km/s) = 5.82939 6.69795 6.27871
#
# Compressibility (1/GPa) = 0.02951676
#
# Stress axis : x y z
#
# Youngs Moduli (GPa) = 117.24631 146.74019 45.88988
#
# Poissons Ratio (x) = 0.30767 -0.04194
# Poissons Ratio (y) = 0.24583 0.12053
# Poissons Ratio (z) = -0.10716 0.38541
#
# Static dielectric constant tensor:
#      x y z
#    x 1.759080 0.000000 0.000000 
#    y 0.000000 1.835730 0.000000 
#    z 0.000000 0.000000 2.000700 
# 
# From -- ./inp_files/19510.got.cif
#   From: 2010.05.17/outbox.cif.g08.bks.cpg/sg70_10_cif.got.tgz:19510.got - 2010.06.03 15:57:51.
