data_PCOD9516668
_publ_section_title
;
Structure prediction by ZEFSAII (Michael W. Deem and Ramdas Pophale) SiO2 
 PCOD9516668
Probable space group: F D D D
;
_chemical_formula_sum "Si O2"
_cell_formula_units_Z 160
_cell_length_a 34.270973
_cell_length_b 13.382905
_cell_length_c 17.363332
_cell_angle_alpha 90.000000
_cell_angle_beta 90.000000
_cell_angle_gamma 90.000000
_cell_volume 7963.608460
_symmetry_space_group_name_H-M "F D D D"
_symmetry_group_IT_number 70
_space_group.IT_coordinate_system_code '2'
_symmetry_cell_setting 'orthorhombic'
loop_
_space_group_symop_operation_xyz
x,y,z
1/4-x,1/4-y,z
x,1/4-y,1/4-z
1/4-x,y,1/4-z
-x,-y,-z
3/4+x,3/4+y,-z
-x,3/4+y,3/4+z
3/4+x,-y,3/4+z
x,1/2+y,1/2+z
1/4-x,3/4-y,1/2+z
x,3/4-y,3/4-z
1/4-x,1/2+y,3/4-z
-x,1/2-y,1/2-z
3/4+x,1/4+y,1/2-z
-x,1/4+y,1/4+z
3/4+x,1/2-y,1/4+z
1/2+x,y,1/2+z
3/4-x,1/4-y,1/2+z
1/2+x,1/4-y,3/4-z
3/4-x,y,3/4-z
1/2-x,-y,1/2-z
1/4+x,3/4+y,1/2-z
1/2-x,3/4+y,1/4+z
1/4+x,-y,1/4+z
1/2+x,1/2+y,z
3/4-x,3/4-y,z
1/2+x,3/4-y,1/4-z
3/4-x,1/2+y,1/4-z
1/2-x,1/2-y,-z
1/4+x,1/4+y,-z
1/2-x,1/4+y,3/4+z
1/4+x,1/2-y,3/4+z
loop_
_atom_site_type_symbol
_atom_site_label
_atom_site_fract_x
_atom_site_fract_y
_atom_site_fract_z
Si Si1 0.375000 0.639958 0.375000
Si Si2 0.017122 0.213826 0.829955
Si Si3 0.614632 0.743404 0.275049
Si Si4 0.079143 0.375000 0.875000
Si Si5 0.666245 0.059217 0.931764
Si Si6 0.062842 0.508424 0.151178
O O1 0.392920 0.710920 0.308679
O O2 0.409770 0.564171 0.399066
O O3 0.051330 0.290262 0.845307
O O4 0.041836 0.113809 0.821261
O O5 0.000000 0.250000 0.750000
O O6 0.981808 0.222776 0.890726
O O7 0.625000 0.625000 0.266312
O O8 0.647109 0.818645 0.308898
O O9 0.586034 0.744669 0.349046
O O10 0.625000 0.125000 0.935672
O O11 0.669645 0.001355 0.012445
O O12 0.065418 0.625000 0.125000
#
# Coordination Sequence:
#
# PCOD9516668 Si02
#       6
#    16  32  32  16  32  32
#     4  12  26  42  66  98 132 194 238 282 356 430
#     4  12  22  39  65 105 141 182 220 290 363 422
#     4  11  24  43  69  93 132 181 236 289 340 429
#     4  12  20  40  68  97 128 176 224 271 356 412
#     4  11  22  43  68  99 144 180 227 297 353 417
#     4  12  24  39  66 106 145 172 232 302 359 419
#
# _framework density 20.091394000000001
#
# number of rings (size 3 to 8) (size 9 to 14) (size 15 to 20)
#    0.000    0.400    7.000    4.200    0.000    0.000 
#    0.000    1.000    0.000    0.000    0.000    0.000 
#    0.000    0.000    0.000    0.000    0.000    0.000 
#
# Total GULP energy -222744.992621 kJ/mol
# GULP energy per Si atom -5568.624816 kJ/mol
# Density = 2.004567 g / cm^3
# Si number density = 20.091394 Si / 1000 Ang^3
#
#
#
# Elastic Constant Matrix: (Units=GPa)
#
#
# Indices 1 2 3 4 5 6 
#
# 1 96.9587 24.5960 32.5010 0.0000 0.0000 0.0000
# 2 24.5960 61.6792 20.9364 0.0000 0.0000 0.0000
# 3 32.5010 20.9364 113.4186 0.0000 0.0000 0.0000
# 4 0.0000 0.0000 0.0000 17.0071 0.0000 0.0000
# 5 0.0000 0.0000 0.0000 0.0000 14.0864 0.0000
# 6 0.0000 0.0000 0.0000 0.0000 0.0000 30.4192
#
#
#
# Elastic Compliance Matrix: (Units=1/GPa)
#
#
# Indices 1 2 3 4 5 6 
#
# 1 0.012245 -0.003939 -0.002782 0.000000 0.000000 0.000000
# 2 -0.003939 0.018564 -0.002298 0.000000 0.000000 0.000000
# 3 -0.002782 -0.002298 0.010038 0.000000 0.000000 0.000000
# 4 0.000000 0.000000 0.000000 0.058799 0.000000 0.000000
# 5 0.000000 0.000000 0.000000 0.000000 0.070990 0.000000
# 6 0.000000 0.000000 0.000000 0.000000 0.000000 0.032874
#
#
# Mechanical properties :
#
#
# Convention : Reuss Voigt Hill
#
# Bulk Modulus (GPa) = 43.84096 47.56929 45.70512
# Shear Modulus (GPa) = 21.81962 25.23741 23.52852
#
# Velocity S-wave (km/s) = 3.29905 3.54804 3.42581
# Velocity P-wave (km/s) = 6.03157 6.36495 6.20050
#
# Compressibility (1/GPa) = 0.02280972
#
# Stress axis : x y z
#
# Youngs Moduli (GPa) = 81.66358 53.86868 99.61864
#
# Poissons Ratio (x) = 0.21218 0.27713
# Poissons Ratio (y) = 0.32166 0.22893
# Poissons Ratio (z) = 0.22718 0.12379
#
# Static dielectric constant tensor:
#      x y z
#    x 1.702770 0.000000 0.000000 
#    y 0.000000 1.591110 0.000000 
#    z 0.000000 0.000000 1.784850 
# 
# From -- ./inp_files/39549.got.cif
#   From: 2010.05.17/outbox.cif.g08.bks.cpg/sg70_20_cif.got.tgz:39549.got - 2010.06.03 15:57:51.
