data_PCOD9516739
_publ_section_title
;
Structure prediction by ZEFSAII (Michael W. Deem and Ramdas Pophale) SiO2 
 PCOD9516739
Probable space group: F D D D
;
_chemical_formula_sum "Si O2"
_cell_formula_units_Z 144
_cell_length_a 21.606775
_cell_length_b 24.977784
_cell_length_c 11.439572
_cell_angle_alpha 90.000000
_cell_angle_beta 90.000000
_cell_angle_gamma 90.000000
_cell_volume 6173.815279
_symmetry_space_group_name_H-M "F D D D"
_symmetry_group_IT_number 70
_space_group.IT_coordinate_system_code '2'
_symmetry_cell_setting 'orthorhombic'
loop_
_space_group_symop_operation_xyz
x,y,z
1/4-x,1/4-y,z
x,1/4-y,1/4-z
1/4-x,y,1/4-z
-x,-y,-z
3/4+x,3/4+y,-z
-x,3/4+y,3/4+z
3/4+x,-y,3/4+z
x,1/2+y,1/2+z
1/4-x,3/4-y,1/2+z
x,3/4-y,3/4-z
1/4-x,1/2+y,3/4-z
-x,1/2-y,1/2-z
3/4+x,1/4+y,1/2-z
-x,1/4+y,1/4+z
3/4+x,1/2-y,1/4+z
1/2+x,y,1/2+z
3/4-x,1/4-y,1/2+z
1/2+x,1/4-y,3/4-z
3/4-x,y,3/4-z
1/2-x,-y,1/2-z
1/4+x,3/4+y,1/2-z
1/2-x,3/4+y,1/4+z
1/4+x,-y,1/4+z
1/2+x,1/2+y,z
3/4-x,3/4-y,z
1/2+x,3/4-y,1/4-z
3/4-x,1/2+y,1/4-z
1/2-x,1/2-y,-z
1/4+x,1/4+y,-z
1/2-x,1/4+y,3/4+z
1/4+x,1/2-y,3/4+z
loop_
_atom_site_type_symbol
_atom_site_label
_atom_site_fract_x
_atom_site_fract_y
_atom_site_fract_z
Si Si1 0.840778 0.211217 0.494867
Si Si2 0.191547 0.009046 0.597705
Si Si3 0.231183 0.083549 0.796947
Si Si4 0.084413 0.875000 0.375000
Si Si5 0.545741 0.688914 0.343575
O O1 0.875000 0.199785 0.375000
O O2 0.873290 0.175769 0.594043
O O3 0.769556 0.194584 0.474289
O O4 0.843469 0.274370 0.522931
O O5 0.125000 0.983353 0.625000
O O6 0.193628 0.058184 0.689607
O O7 0.204327 0.031065 0.469291
O O8 0.243924 0.966361 0.629399
O O9 0.289745 0.112007 0.734093
O O10 0.196556 0.127035 0.874753
#
# Coordination Sequence:
#
# PCOD9516739 Si02
#       5
#    32  32  32  16  32
#     4  11  24  41  69 100 142 178 230 283 344 411
#     4  11  24  42  70 100 135 180 224 289 346 401
#     4  11  23  42  69 105 135 170 241 279 332 415
#     4  12  22  44  75  96 127 188 230 286 338 410
#     4  11  24  42  64 104 138 176 228 286 332 421
#
# _framework density 23.324314000000001
#
# number of rings (size 3 to 8) (size 9 to 14) (size 15 to 20)
#    0.000    0.889    4.444    1.333    6.222    3.556 
#    0.000    0.000    0.000    6.667    0.000    0.000 
#    0.000    0.000    0.000    0.000    0.000    0.000 
#
# Total GULP energy -201484.118994 kJ/mol
# GULP energy per Si atom -5596.781083 kJ/mol
# Density = 2.327123 g / cm^3
# Si number density = 23.324314 Si / 1000 Ang^3
#
#
#
# Elastic Constant Matrix: (Units=GPa)
#
#
# Indices 1 2 3 4 5 6 
#
# 1 75.3797 14.1565 6.0571 0.0000 0.0000 0.0000
# 2 14.1565 100.5110 9.4811 0.0000 0.0000 0.0000
# 3 6.0571 9.4811 37.3580 0.0000 0.0000 0.0000
# 4 0.0000 0.0000 0.0000 21.5044 0.0000 0.0000
# 5 0.0000 0.0000 0.0000 0.0000 10.9812 0.0000
# 6 0.0000 0.0000 0.0000 0.0000 0.0000 24.1087
#
#
#
# Elastic Compliance Matrix: (Units=1/GPa)
#
#
# Indices 1 2 3 4 5 6 
#
# 1 0.013741 -0.001768 -0.001779 0.000000 0.000000 0.000000
# 2 -0.001768 0.010421 -0.002358 0.000000 0.000000 0.000000
# 3 -0.001779 -0.002358 0.027655 0.000000 0.000000 0.000000
# 4 0.000000 0.000000 0.000000 0.046502 0.000000 0.000000
# 5 0.000000 0.000000 0.000000 0.000000 0.091065 0.000000
# 6 0.000000 0.000000 0.000000 0.000000 0.000000 0.041479
#
#
# Mechanical properties :
#
#
# Convention : Reuss Voigt Hill
#
# Bulk Modulus (GPa) = 24.99575 30.29310 27.64442
# Shear Modulus (GPa) = 19.53064 23.55578 21.54321
#
# Velocity S-wave (km/s) = 2.89684 3.18138 3.04244
# Velocity P-wave (km/s) = 4.68282 5.14887 4.92136
#
# Compressibility (1/GPa) = 0.04000679
#
# Stress axis : x y z
#
# Youngs Moduli (GPa) = 72.77437 95.96429 36.15984
#
# Poissons Ratio (x) = 0.16962 0.06434
# Poissons Ratio (y) = 0.12863 0.08527
# Poissons Ratio (z) = 0.12949 0.22629
#
# Static dielectric constant tensor:
#      x y z
#    x 1.926170 0.000000 0.000000 
#    y 0.000000 1.895850 0.000000 
#    z 0.000000 0.000000 1.852610 
# 
# From -- ./inp_files/19195.got.cif
#   From: 2010.05.17/outbox.cif.g08.bks.cpg/sg70_10_cif.got.tgz:19195.got - 2010.06.03 15:57:51.
