data_PCOD9516019
_publ_section_title
;
Structure prediction by ZEFSAII (Michael W. Deem and Ramdas Pophale) SiO2 
 PCOD9516019
Probable space group: F D D D
;
_chemical_formula_sum "Si O2"
_cell_formula_units_Z 176
_cell_length_a 31.707497
_cell_length_b 15.039618
_cell_length_c 17.394391
_cell_angle_alpha 90.000000
_cell_angle_beta 90.000000
_cell_angle_gamma 90.000000
_cell_volume 8294.839625
_symmetry_space_group_name_H-M "F D D D"
_symmetry_group_IT_number 70
_space_group.IT_coordinate_system_code '2'
_symmetry_cell_setting 'orthorhombic'
loop_
_space_group_symop_operation_xyz
x,y,z
1/4-x,1/4-y,z
x,1/4-y,1/4-z
1/4-x,y,1/4-z
-x,-y,-z
3/4+x,3/4+y,-z
-x,3/4+y,3/4+z
3/4+x,-y,3/4+z
x,1/2+y,1/2+z
1/4-x,3/4-y,1/2+z
x,3/4-y,3/4-z
1/4-x,1/2+y,3/4-z
-x,1/2-y,1/2-z
3/4+x,1/4+y,1/2-z
-x,1/4+y,1/4+z
3/4+x,1/2-y,1/4+z
1/2+x,y,1/2+z
3/4-x,1/4-y,1/2+z
1/2+x,1/4-y,3/4-z
3/4-x,y,3/4-z
1/2-x,-y,1/2-z
1/4+x,3/4+y,1/2-z
1/2-x,3/4+y,1/4+z
1/4+x,-y,1/4+z
1/2+x,1/2+y,z
3/4-x,3/4-y,z
1/2+x,3/4-y,1/4-z
3/4-x,1/2+y,1/4-z
1/2-x,1/2-y,-z
1/4+x,1/4+y,-z
1/2-x,1/4+y,3/4+z
1/4+x,1/2-y,3/4+z
loop_
_atom_site_type_symbol
_atom_site_label
_atom_site_fract_x
_atom_site_fract_y
_atom_site_fract_z
Si Si1 0.875000 0.623244 0.375000
Si Si2 0.424210 0.852716 0.613566
Si Si3 0.194727 0.968835 0.027083
Si Si4 0.751793 0.291091 0.583139
Si Si5 0.543957 0.479215 0.656868
Si Si6 0.272779 0.348718 0.490251
O O1 0.849052 0.564590 0.436029
O O2 0.839935 0.688250 0.342344
O O3 0.375000 0.875000 0.622388
O O4 0.433655 0.786888 0.541189
O O5 0.449309 0.945482 0.602062
O O6 0.448517 0.815438 0.688880
O O7 0.223591 0.003500 0.099434
O O8 0.224303 0.884910 0.000466
O O9 0.750000 0.250000 0.500000
O O10 0.734413 0.392640 0.578733
O O11 0.542783 0.556924 0.717946
O O12 0.528801 0.529723 0.579166
#
# Coordination Sequence:
#
# PCOD9516019 Si02
#       6
#    16  32  32  32  32  32
#     4  10  24  39  69  96 134 174 234 280 350 410
#     4  11  25  42  68 104 140 178 236 294 348 417
#     4  10  23  47  67 100 135 187 227 287 357 423
#     4  10  23  45  69  94 135 184 238 276 348 429
#     4  10  22  45  73 100 135 183 228 295 352 416
#     4  10  23  46  71 101 137 181 235 287 357 419
#
# _framework density 21.218012000000002
#
# number of rings (size 3 to 8) (size 9 to 14) (size 15 to 20)
#    0.000    1.818    1.818    0.000    7.636    8.000 
#    0.000    0.000    0.000    0.000    0.000    0.000 
#    0.000    0.000    0.000    0.000    0.000    0.000 
#
# Total GULP energy -245123.797389 kJ/mol
# GULP energy per Si atom -5570.995395 kJ/mol
# Density = 2.116972 g / cm^3
# Si number density = 21.218012 Si / 1000 Ang^3
#
#
#
# Elastic Constant Matrix: (Units=GPa)
#
#
# Indices 1 2 3 4 5 6 
#
# 1 193.7892 35.8534 65.7258 0.0000 0.0000 0.0000
# 2 35.8534 73.1292 67.2512 0.0000 0.0000 0.0000
# 3 65.7258 67.2512 164.4525 0.0000 0.0000 0.0000
# 4 0.0000 0.0000 0.0000 -268.2076 0.0000 0.0000
# 5 0.0000 0.0000 0.0000 0.0000 -12.8638 0.0000
# 6 0.0000 0.0000 0.0000 0.0000 0.0000 12.3131
#
#
#
# Elastic Compliance Matrix: (Units=1/GPa)
#
#
# Indices 1 2 3 4 5 6 
#
# 1 0.006033 -0.001187 -0.001926 0.000000 0.000000 0.000000
# 2 -0.001187 0.022150 -0.008584 0.000000 0.000000 0.000000
# 3 -0.001926 -0.008584 0.010361 0.000000 0.000000 0.000000
# 4 0.000000 0.000000 0.000000 -0.003728 0.000000 0.000000
# 5 0.000000 0.000000 0.000000 0.000000 -0.077738 0.000000
# 6 0.000000 0.000000 0.000000 0.000000 0.000000 0.081214
#
#
# Mechanical properties :
#
#
# Convention : Reuss Voigt Hill
#
# Bulk Modulus (GPa) = 66.00204 85.44796 75.72500
# Shear Modulus (GPa) = 74.92305 -36.24896 19.33705
#
# Velocity S-wave (km/s) = 5.94876 -4.13777 3.02213
# Velocity P-wave (km/s) = 8.85199 4.18696 6.92418
#
# Compressibility (1/GPa) = 0.01515105
#
# Stress axis : x y z
#
# Youngs Moduli (GPa) = 165.75531 45.14666 96.51857
#
# Poissons Ratio (x) = 0.05358 0.18588
# Poissons Ratio (y) = 0.19671 0.82849
# Poissons Ratio (z) = 0.31922 0.38753
#
# Static dielectric constant tensor:
#      x y z
#    x 1.870520 0.000000 0.000000 
#    y 0.000000 1.783460 0.000000 
#    z 0.000000 0.000000 1.881510 
# 
# From -- ./inp_files/39683.got.cif
#   From: 2010.05.17/outbox.cif.g08.bks.cpg/sg70_20_cif.got.tgz:39683.got - 2010.06.03 15:57:51.
