data_PCOD9516373
_publ_section_title
;
Structure prediction by ZEFSAII (Michael W. Deem and Ramdas Pophale) SiO2 
 PCOD9516373
Probable space group: F D D D
;
_chemical_formula_sum "Si O2"
_cell_formula_units_Z 136
_cell_length_a 28.724728
_cell_length_b 12.478810
_cell_length_c 15.649229
_cell_angle_alpha 90.000000
_cell_angle_beta 90.000000
_cell_angle_gamma 90.000000
_cell_volume 5609.472755
_symmetry_space_group_name_H-M "F D D D"
_symmetry_group_IT_number 70
_space_group.IT_coordinate_system_code '2'
_symmetry_cell_setting 'orthorhombic'
loop_
_space_group_symop_operation_xyz
x,y,z
1/4-x,1/4-y,z
x,1/4-y,1/4-z
1/4-x,y,1/4-z
-x,-y,-z
3/4+x,3/4+y,-z
-x,3/4+y,3/4+z
3/4+x,-y,3/4+z
x,1/2+y,1/2+z
1/4-x,3/4-y,1/2+z
x,3/4-y,3/4-z
1/4-x,1/2+y,3/4-z
-x,1/2-y,1/2-z
3/4+x,1/4+y,1/2-z
-x,1/4+y,1/4+z
3/4+x,1/2-y,1/4+z
1/2+x,y,1/2+z
3/4-x,1/4-y,1/2+z
1/2+x,1/4-y,3/4-z
3/4-x,y,3/4-z
1/2-x,-y,1/2-z
1/4+x,3/4+y,1/2-z
1/2-x,3/4+y,1/4+z
1/4+x,-y,1/4+z
1/2+x,1/2+y,z
3/4-x,3/4-y,z
1/2+x,3/4-y,1/4-z
3/4-x,1/2+y,1/4-z
1/2-x,1/2-y,-z
1/4+x,1/4+y,-z
1/2-x,1/4+y,3/4+z
1/4+x,1/2-y,3/4+z
loop_
_atom_site_type_symbol
_atom_site_label
_atom_site_fract_x
_atom_site_fract_y
_atom_site_fract_z
Si Si1 0.375000 0.875000 0.875000
Si Si2 0.438499 0.053990 0.939188
Si Si3 0.287972 0.728220 0.573698
Si Si4 0.387341 0.253734 0.992312
Si Si5 0.214924 0.543123 0.364938
O O1 0.404377 0.795047 0.818396
O O2 0.479519 0.037322 0.870575
O O3 0.412683 0.167530 0.931425
O O4 0.457709 0.035910 0.034990
O O5 0.272587 0.625000 0.625000
O O6 0.250000 0.750000 0.500000
O O7 0.339031 0.710871 0.532080
O O8 0.291379 0.827818 0.640130
O O9 0.375000 0.375000 0.963777
O O10 0.426879 0.265821 0.064787
#
# Coordination Sequence:
#
# PCOD9516373 Si02
#       5
#     8  32  32  32  32
#     4  12  32  40  70 112 144 192 242 322 368 440
#     4  11  26  45  73 106 149 183 253 307 375 440
#     4  11  26  43  73 106 149 196 255 301 375 453
#     4  10  24  48  74 104 141 196 246 305 375 447
#     4  10  25  45  76 100 141 198 243 303 374 448
#
# _framework density 24.244703000000001
#
# number of rings (size 3 to 8) (size 9 to 14) (size 15 to 20)
#    0.000    1.412    0.000    2.118   24.706    0.000 
#    0.000    0.588    0.000    0.000    0.000    0.000 
#    0.000    0.000    0.000    0.000    0.000    0.000 
#
# Total GULP energy -189959.886080 kJ/mol
# GULP energy per Si atom -5587.055473 kJ/mol
# Density = 2.418952 g / cm^3
# Si number density = 24.244703 Si / 1000 Ang^3
#
#
#
# Elastic Constant Matrix: (Units=GPa)
#
#
# Indices 1 2 3 4 5 6 
#
# 1 184.7414 53.1212 47.1995 0.0000 0.0000 0.0000
# 2 53.1212 138.7251 26.2677 0.0000 0.0000 0.0000
# 3 47.1995 26.2677 67.6571 0.0000 0.0000 0.0000
# 4 0.0000 0.0000 0.0000 56.1078 0.0000 0.0000
# 5 0.0000 0.0000 0.0000 0.0000 8.1118 0.0000
# 6 0.0000 0.0000 0.0000 0.0000 0.0000 123.5460
#
#
#
# Elastic Compliance Matrix: (Units=1/GPa)
#
#
# Indices 1 2 3 4 5 6 
#
# 1 0.007023 -0.001901 -0.004161 0.000000 0.000000 0.000000
# 2 -0.001901 0.008295 -0.001894 0.000000 0.000000 0.000000
# 3 -0.004161 -0.001894 0.018419 0.000000 0.000000 0.000000
# 4 0.000000 0.000000 0.000000 0.017823 0.000000 0.000000
# 5 0.000000 0.000000 0.000000 0.000000 0.123277 0.000000
# 6 0.000000 0.000000 0.000000 0.000000 0.000000 0.008094
#
#
# Mechanical properties :
#
#
# Convention : Reuss Voigt Hill
#
# Bulk Modulus (GPa) = 56.10562 71.58894 63.84728
# Shear Modulus (GPa) = 24.41584 55.18880 39.80232
#
# Velocity S-wave (km/s) = 3.17686 4.77626 4.05617
# Velocity P-wave (km/s) = 6.05378 7.74652 6.95187
#
# Compressibility (1/GPa) = 0.01782353
#
# Stress axis : x y z
#
# Youngs Moduli (GPa) = 142.39333 120.55142 54.29247
#
# Poissons Ratio (x) = 0.22920 0.22592
# Poissons Ratio (y) = 0.27073 0.10284
# Poissons Ratio (z) = 0.59252 0.22835
#
# Static dielectric constant tensor:
#      x y z
#    x 1.915800 0.000000 0.000000 
#    y 0.000000 2.019940 0.000000 
#    z 0.000000 0.000000 0.145660 
# 
# From -- ./inp_files/46628.got.cif
#   From: 2010.05.17/outbox.cif.g08.bks.cpg/sg70_24_cif.got.tgz:46628.got - 2010.06.03 15:57:51.
