data_PCOD9516279
_publ_section_title
;
Structure prediction by ZEFSAII (Michael W. Deem and Ramdas Pophale) SiO2 
 PCOD9516279
Probable space group: F D D D
;
_chemical_formula_sum "Si O2"
_cell_formula_units_Z 128
_cell_length_a 11.129979
_cell_length_b 20.002331
_cell_length_c 23.787225
_cell_angle_alpha 90.000000
_cell_angle_beta 90.000000
_cell_angle_gamma 90.000000
_cell_volume 5295.643430
_symmetry_space_group_name_H-M "F D D D"
_symmetry_group_IT_number 70
_space_group.IT_coordinate_system_code '2'
_symmetry_cell_setting 'orthorhombic'
loop_
_space_group_symop_operation_xyz
x,y,z
1/4-x,1/4-y,z
x,1/4-y,1/4-z
1/4-x,y,1/4-z
-x,-y,-z
3/4+x,3/4+y,-z
-x,3/4+y,3/4+z
3/4+x,-y,3/4+z
x,1/2+y,1/2+z
1/4-x,3/4-y,1/2+z
x,3/4-y,3/4-z
1/4-x,1/2+y,3/4-z
-x,1/2-y,1/2-z
3/4+x,1/4+y,1/2-z
-x,1/4+y,1/4+z
3/4+x,1/2-y,1/4+z
1/2+x,y,1/2+z
3/4-x,1/4-y,1/2+z
1/2+x,1/4-y,3/4-z
3/4-x,y,3/4-z
1/2-x,-y,1/2-z
1/4+x,3/4+y,1/2-z
1/2-x,3/4+y,1/4+z
1/4+x,-y,1/4+z
1/2+x,1/2+y,z
3/4-x,3/4-y,z
1/2+x,3/4-y,1/4-z
3/4-x,1/2+y,1/4-z
1/2-x,1/2-y,-z
1/4+x,1/4+y,-z
1/2-x,1/4+y,3/4+z
1/4+x,1/2-y,3/4+z
loop_
_atom_site_type_symbol
_atom_site_label
_atom_site_fract_x
_atom_site_fract_y
_atom_site_fract_z
Si Si1 0.373643 0.174797 0.671380
Si Si2 0.125000 0.908959 0.125000
Si Si3 0.375000 0.375000 0.954508
Si Si4 0.533444 0.184257 0.973580
Si Si5 0.009442 0.954202 0.702190
O O1 0.323043 0.125000 0.625000
O O2 0.515773 0.162524 0.673786
O O3 0.319195 0.158681 0.732692
O O4 0.323333 0.249111 0.662407
O O5 0.214606 0.950098 0.084636
O O6 0.192237 0.857114 0.166709
O O7 0.320232 0.429020 0.996539
O O8 0.625000 0.125000 0.961933
O O9 0.591723 0.243070 0.012374
#
# Coordination Sequence:
#
# PCOD9516279 Si02
#       5
#    32  16  16  32  32
#     4  10  24  43  68 101 139 183 230 295 345 423
#     4  12  24  46  71 105 136 190 230 294 364 416
#     4  12  21  50  62 104 140 186 239 284 364 416
#     4  10  26  45  67 103 140 183 236 292 356 420
#     4  10  25  43  73  98 143 182 239 295 346 436
#
# _framework density 24.170811
#
# number of rings (size 3 to 8) (size 9 to 14) (size 15 to 20)
#    1.500    0.000    2.500    1.125    5.250    3.500 
#    4.500    0.000    0.000    0.000    0.000    0.000 
#    0.000    0.000    0.000    0.000    0.000    0.000 
#
# Total GULP energy -178409.830110 kJ/mol
# GULP energy per Si atom -5575.307191 kJ/mol
# Density = 2.411580 g / cm^3
# Si number density = 24.170811 Si / 1000 Ang^3
#
#
#
# Elastic Constant Matrix: (Units=GPa)
#
#
# Indices 1 2 3 4 5 6 
#
# 1 45.7082 -10.2948 7.0056 0.0000 0.0000 0.0000
# 2 -10.2948 52.4664 8.4625 0.0000 0.0000 0.0000
# 3 7.0056 8.4625 109.9916 0.0000 0.0000 0.0000
# 4 0.0000 0.0000 0.0000 44.5585 0.0000 0.0000
# 5 0.0000 0.0000 0.0000 0.0000 26.6309 0.0000
# 6 0.0000 0.0000 0.0000 0.0000 0.0000 19.2405
#
#
#
# Elastic Compliance Matrix: (Units=1/GPa)
#
#
# Indices 1 2 3 4 5 6 
#
# 1 0.023258 0.004863 -0.001855 0.000000 0.000000 0.000000
# 2 0.004863 0.020316 -0.001873 0.000000 0.000000 0.000000
# 3 -0.001855 -0.001873 0.009354 0.000000 0.000000 0.000000
# 4 0.000000 0.000000 0.000000 0.022442 0.000000 0.000000
# 5 0.000000 0.000000 0.000000 0.000000 0.037550 0.000000
# 6 0.000000 0.000000 0.000000 0.000000 0.000000 0.051974
#
#
# Mechanical properties :
#
#
# Convention : Reuss Voigt Hill
#
# Bulk Modulus (GPa) = 18.11706 24.27920 21.19813
# Shear Modulus (GPa) = 27.62069 31.61884 29.61976
#
# Velocity S-wave (km/s) = 3.38409 3.62075 3.50442
# Velocity P-wave (km/s) = 4.77296 5.24847 5.01635
#
# Compressibility (1/GPa) = 0.05519658
#
# Stress axis : x y z
#
# Youngs Moduli (GPa) = 42.99677 49.22216 106.90767
#
# Poissons Ratio (x) = -0.23936 0.19836
# Poissons Ratio (y) = -0.20908 0.20022
# Poissons Ratio (z) = 0.07978 0.09218
#
# Static dielectric constant tensor:
#      x y z
#    x 1.965920 0.000000 0.000000 
#    y 0.000000 2.128400 0.000000 
#    z 0.000000 0.000000 1.902750 
# 
# From -- ./inp_files/20590.got.cif
#   From: 2010.05.17/outbox.cif.g08.bks.cpg/sg70_11_cif.got.tgz:20590.got - 2010.06.03 15:57:51.
