data_PCOD9516371
_publ_section_title
;
Structure prediction by ZEFSAII (Michael W. Deem and Ramdas Pophale) SiO2 
 PCOD9516371
Probable space group: F D D D
;
_chemical_formula_sum "Si O2"
_cell_formula_units_Z 136
_cell_length_a 20.687027
_cell_length_b 23.021730
_cell_length_c 11.847340
_cell_angle_alpha 90.000000
_cell_angle_beta 90.000000
_cell_angle_gamma 90.000000
_cell_volume 5642.309301
_symmetry_space_group_name_H-M "F D D D"
_symmetry_group_IT_number 70
_space_group.IT_coordinate_system_code '2'
_symmetry_cell_setting 'orthorhombic'
loop_
_space_group_symop_operation_xyz
x,y,z
1/4-x,1/4-y,z
x,1/4-y,1/4-z
1/4-x,y,1/4-z
-x,-y,-z
3/4+x,3/4+y,-z
-x,3/4+y,3/4+z
3/4+x,-y,3/4+z
x,1/2+y,1/2+z
1/4-x,3/4-y,1/2+z
x,3/4-y,3/4-z
1/4-x,1/2+y,3/4-z
-x,1/2-y,1/2-z
3/4+x,1/4+y,1/2-z
-x,1/4+y,1/4+z
3/4+x,1/2-y,1/4+z
1/2+x,y,1/2+z
3/4-x,1/4-y,1/2+z
1/2+x,1/4-y,3/4-z
3/4-x,y,3/4-z
1/2-x,-y,1/2-z
1/4+x,3/4+y,1/2-z
1/2-x,3/4+y,1/4+z
1/4+x,-y,1/4+z
1/2+x,1/2+y,z
3/4-x,3/4-y,z
1/2+x,3/4-y,1/4-z
3/4-x,1/2+y,1/4-z
1/2-x,1/2-y,-z
1/4+x,1/4+y,-z
1/2-x,1/4+y,3/4+z
1/4+x,1/2-y,3/4+z
loop_
_atom_site_type_symbol
_atom_site_label
_atom_site_fract_x
_atom_site_fract_y
_atom_site_fract_z
Si Si1 0.021389 0.375000 0.875000
Si Si2 0.223273 0.839077 0.117650
Si Si3 0.612968 0.540087 0.300831
Si Si4 0.625000 0.125000 0.625000
Si Si5 0.572858 0.531558 0.713018
Si Si6 0.125000 0.810900 0.625000
O O1 0.983079 0.422182 0.802055
O O2 0.045505 0.337387 0.767046
O O3 0.298764 0.825225 0.153027
O O4 0.193191 0.782424 0.173411
O O5 0.185003 0.896756 0.158746
O O6 0.654405 0.579601 0.213099
O O7 0.653224 0.529010 0.411060
O O8 0.603437 0.481095 0.228609
O O9 0.625000 0.554819 0.625000
#
# Coordination Sequence:
#
# PCOD9516371 Si02
#       6
#    16  32  32   8  32  16
#     4  12  25  44  75 110 147 194 244 309 386 442
#     4  12  26  45  74 108 148 195 245 310 376 445
#     4  11  26  48  74 106 150 198 250 305 380 437
#     4  10  24  48  72 104 142 198 256 304 360 460
#     4  12  25  43  69 109 143 187 245 309 363 448
#     4  11  28  49  72 109 152 199 248 310 368 453
#
# _framework density 24.103605999999999
#
# number of rings (size 3 to 8) (size 9 to 14) (size 15 to 20)
#    0.000    0.471    3.529    3.882    3.294    2.824 
#    0.000    5.882    0.000    0.000    0.000    0.000 
#    0.000    0.000    0.000    0.000    0.000    0.000 
#
# Total GULP energy -189414.937599 kJ/mol
# GULP energy per Si atom -5571.027576 kJ/mol
# Density = 2.404874 g / cm^3
# Si number density = 24.103606 Si / 1000 Ang^3
#
#
#
# Elastic Constant Matrix: (Units=GPa)
#
#
# Indices 1 2 3 4 5 6 
#
# 1 59.6023 46.2363 55.3624 0.0000 0.0000 0.0000
# 2 46.2363 170.4923 78.7322 0.0000 0.0000 0.0000
# 3 55.3624 78.7322 200.9977 0.0000 0.0000 0.0000
# 4 0.0000 0.0000 0.0000 58.8003 0.0000 0.0000
# 5 0.0000 0.0000 0.0000 0.0000 112.7651 0.0000
# 6 0.0000 0.0000 0.0000 0.0000 0.0000 207.0970
#
#
#
# Elastic Compliance Matrix: (Units=1/GPa)
#
#
# Indices 1 2 3 4 5 6 
#
# 1 0.024977 -0.004391 -0.005160 0.000000 0.000000 0.000000
# 2 -0.004391 0.007933 -0.001898 0.000000 0.000000 0.000000
# 3 -0.005160 -0.001898 0.007140 0.000000 0.000000 0.000000
# 4 0.000000 0.000000 0.000000 0.017007 0.000000 0.000000
# 5 0.000000 0.000000 0.000000 0.000000 0.008868 0.000000
# 6 0.000000 0.000000 0.000000 0.000000 0.000000 0.004829
#
#
# Mechanical properties :
#
#
# Convention : Reuss Voigt Hill
#
# Bulk Modulus (GPa) = 58.30097 87.97268 73.13683
# Shear Modulus (GPa) = 50.31896 92.44990 71.38443
#
# Velocity S-wave (km/s) = 4.57400 6.19988 5.44793
# Velocity P-wave (km/s) = 7.22049 9.37167 8.36551
#
# Compressibility (1/GPa) = 0.01715237
#
# Stress axis : x y z
#
# Youngs Moduli (GPa) = 40.03750 126.06324 140.06141
#
# Poissons Ratio (x) = 0.55352 0.72266
# Poissons Ratio (y) = 0.17580 0.26581
# Poissons Ratio (z) = 0.20658 0.23925
#
# Static dielectric constant tensor:
#      x y z
#    x 0.980530 0.000000 0.000000 
#    y 0.000000 1.957300 0.000000 
#    z 0.000000 0.000000 4.517760 
# 
# From -- ./inp_files/18974.got.cif
#   From: 2010.05.17/outbox.cif.g08.bks.cpg/sg70_10_cif.got.tgz:18974.got - 2010.06.03 15:57:51.
