data_PCOD9516696
_publ_section_title
;
Structure prediction by ZEFSAII (Michael W. Deem and Ramdas Pophale) SiO2 
 PCOD9516696
Probable space group: F D D D
;
_chemical_formula_sum "Si O2"
_cell_formula_units_Z 96
_cell_length_a 13.376734
_cell_length_b 25.469752
_cell_length_c 10.649405
_cell_angle_alpha 90.000000
_cell_angle_beta 90.000000
_cell_angle_gamma 90.000000
_cell_volume 3628.274621
_symmetry_space_group_name_H-M "F D D D"
_symmetry_group_IT_number 70
_space_group.IT_coordinate_system_code '2'
_symmetry_cell_setting 'orthorhombic'
loop_
_space_group_symop_operation_xyz
x,y,z
1/4-x,1/4-y,z
x,1/4-y,1/4-z
1/4-x,y,1/4-z
-x,-y,-z
3/4+x,3/4+y,-z
-x,3/4+y,3/4+z
3/4+x,-y,3/4+z
x,1/2+y,1/2+z
1/4-x,3/4-y,1/2+z
x,3/4-y,3/4-z
1/4-x,1/2+y,3/4-z
-x,1/2-y,1/2-z
3/4+x,1/4+y,1/2-z
-x,1/4+y,1/4+z
3/4+x,1/2-y,1/4+z
1/2+x,y,1/2+z
3/4-x,1/4-y,1/2+z
1/2+x,1/4-y,3/4-z
3/4-x,y,3/4-z
1/2-x,-y,1/2-z
1/4+x,3/4+y,1/2-z
1/2-x,3/4+y,1/4+z
1/4+x,-y,1/4+z
1/2+x,1/2+y,z
3/4-x,3/4-y,z
1/2+x,3/4-y,1/4-z
3/4-x,1/2+y,1/4-z
1/2-x,1/2-y,-z
1/4+x,1/4+y,-z
1/2-x,1/4+y,3/4+z
1/4+x,1/2-y,3/4+z
loop_
_atom_site_type_symbol
_atom_site_label
_atom_site_fract_x
_atom_site_fract_y
_atom_site_fract_z
Si Si1 0.984605 0.349527 0.560322
Si Si2 0.515370 0.563656 0.585980
Si Si3 0.693288 0.951750 0.810108
O O1 0.875000 0.375000 0.571382
O O2 0.003273 0.317318 0.687010
O O3 0.999727 0.314433 0.437682
O O4 0.050758 0.400774 0.528960
O O5 0.514000 0.625000 0.625000
O O6 0.625000 0.543467 0.625000
O O7 0.421424 0.537816 0.654304
O O8 0.750000 0.000000 0.750000
#
# Coordination Sequence:
#
# PCOD9516696 Si02
#       3
#    32  32  32
#     4  11  23  48  74 111 158 217 265 337 429 485
#     4  11  22  45  81 110 156 219 271 333 431 497
#     4  11  25  46  75 120 161 207 274 344 409 510
#
# _framework density 26.458856999999998
#
# number of rings (size 3 to 8) (size 9 to 14) (size 15 to 20)
#    0.000    1.000    6.667    3.000    0.000    0.000 
#   12.000    6.667    0.000    8.000    0.000    0.000 
#    0.000    0.000    0.000    0.000    0.000    0.000 
#
# Total GULP energy -134824.277435 kJ/mol
# GULP energy per Si atom -5617.678226 kJ/mol
# Density = 2.639864 g / cm^3
# Si number density = 26.458857 Si / 1000 Ang^3
#
#
#
# Elastic Constant Matrix: (Units=GPa)
#
#
# Indices 1 2 3 4 5 6 
#
# 1 240.2012 76.7604 106.5467 0.0000 0.0000 0.0000
# 2 76.7604 150.6461 86.0530 0.0000 0.0000 0.0000
# 3 106.5467 86.0530 201.6091 0.0000 0.0000 0.0000
# 4 0.0000 0.0000 0.0000 36.6626 0.0000 0.0000
# 5 0.0000 0.0000 0.0000 0.0000 48.3525 0.0000
# 6 0.0000 0.0000 0.0000 0.0000 0.0000 40.9910
#
#
#
# Elastic Compliance Matrix: (Units=1/GPa)
#
#
# Indices 1 2 3 4 5 6 
#
# 1 0.005704 -0.001567 -0.002346 0.000000 0.000000 0.000000
# 2 -0.001567 0.009209 -0.003103 0.000000 0.000000 0.000000
# 3 -0.002346 -0.003103 0.007524 0.000000 0.000000 0.000000
# 4 0.000000 0.000000 0.000000 0.027276 0.000000 0.000000
# 5 0.000000 0.000000 0.000000 0.000000 0.020681 0.000000
# 6 0.000000 0.000000 0.000000 0.000000 0.000000 0.024396
#
#
# Mechanical properties :
#
#
# Convention : Reuss Voigt Hill
#
# Bulk Modulus (GPa) = 118.95057 125.68629 122.31843
# Shear Modulus (GPa) = 44.79374 46.74097 45.76736
#
# Velocity S-wave (km/s) = 4.11902 4.20760 4.16355
# Velocity P-wave (km/s) = 8.22655 8.43865 8.33328
#
# Compressibility (1/GPa) = 0.00840685
#
# Stress axis : x y z
#
# Youngs Moduli (GPa) = 175.30246 108.59433 132.90394
#
# Poissons Ratio (x) = 0.17012 0.31180
# Poissons Ratio (y) = 0.27461 0.41235
# Poissons Ratio (z) = 0.41127 0.33693
#
# Static dielectric constant tensor:
#      x y z
#    x 2.049000 0.000000 0.000000 
#    y 0.000000 2.090540 0.000000 
#    z 0.000000 0.000000 2.043890 
# 
# From -- ./inp_files/18424.got.cif
#   From: 2010.05.17/outbox.cif.g08.bks.cpg/sg70_10_cif.got.tgz:18424.got - 2010.06.03 15:57:51.
