data_PCOD9516414
_publ_section_title
;
Structure prediction by ZEFSAII (Michael W. Deem and Ramdas Pophale) SiO2 
 PCOD9516414
Probable space group: F D D D
;
_chemical_formula_sum "Si O2"
_cell_formula_units_Z 104
_cell_length_a 16.616563
_cell_length_b 31.936786
_cell_length_c 8.604390
_cell_angle_alpha 90.000000
_cell_angle_beta 90.000000
_cell_angle_gamma 90.000000
_cell_volume 4566.174386
_symmetry_space_group_name_H-M "F D D D"
_symmetry_group_IT_number 70
_space_group.IT_coordinate_system_code '2'
_symmetry_cell_setting 'orthorhombic'
loop_
_space_group_symop_operation_xyz
x,y,z
1/4-x,1/4-y,z
x,1/4-y,1/4-z
1/4-x,y,1/4-z
-x,-y,-z
3/4+x,3/4+y,-z
-x,3/4+y,3/4+z
3/4+x,-y,3/4+z
x,1/2+y,1/2+z
1/4-x,3/4-y,1/2+z
x,3/4-y,3/4-z
1/4-x,1/2+y,3/4-z
-x,1/2-y,1/2-z
3/4+x,1/4+y,1/2-z
-x,1/4+y,1/4+z
3/4+x,1/2-y,1/4+z
1/2+x,y,1/2+z
3/4-x,1/4-y,1/2+z
1/2+x,1/4-y,3/4-z
3/4-x,y,3/4-z
1/2-x,-y,1/2-z
1/4+x,3/4+y,1/2-z
1/2-x,3/4+y,1/4+z
1/4+x,-y,1/4+z
1/2+x,1/2+y,z
3/4-x,3/4-y,z
1/2+x,3/4-y,1/4-z
3/4-x,1/2+y,1/4-z
1/2-x,1/2-y,-z
1/4+x,1/4+y,-z
1/2-x,1/4+y,3/4+z
1/4+x,1/2-y,3/4+z
loop_
_atom_site_type_symbol
_atom_site_label
_atom_site_fract_x
_atom_site_fract_y
_atom_site_fract_z
Si Si1 0.305309 0.006461 0.101765
Si Si2 0.940502 0.307410 0.618713
Si Si3 0.875000 0.375000 0.375000
Si Si4 0.164623 0.418527 0.294913
O O1 0.369372 0.043741 0.129548
O O2 0.250000 0.000000 0.250000
O O3 0.358367 0.964953 0.081244
O O4 0.248377 0.022575 0.962837
O O5 0.924187 0.343731 0.490049
O O6 0.991507 0.324096 0.763095
O O7 0.149686 0.375000 0.375000
O O8 0.125000 0.416820 0.125000
#
# Coordination Sequence:
#
# PCOD9516414 Si02
#       4
#    32  32   8  32
#     4  11  22  43  69 100 136 186 228 290 351 429
#     4  11  25  44  71 101 144 180 248 288 360 429
#     4  12  24  44  70 108 140 192 232 300 368 432
#     4  10  25  44  71 107 143 185 238 298 354 429
#
# _framework density 22.776178000000002
#
# number of rings (size 3 to 8) (size 9 to 14) (size 15 to 20)
#    0.000    1.231    3.077    0.923    8.615    4.923 
#    0.000    3.846    0.000    0.000    0.000    0.000 
#    0.000    0.000    0.000    0.000    0.000    0.000 
#
# Total GULP energy -145493.891673 kJ/mol
# GULP energy per Si atom -5595.918911 kJ/mol
# Density = 2.272434 g / cm^3
# Si number density = 22.776178 Si / 1000 Ang^3
#
#
#
# Elastic Constant Matrix: (Units=GPa)
#
#
# Indices 1 2 3 4 5 6 
#
# 1 118.0501 59.3916 33.0197 0.0000 0.0000 0.0000
# 2 59.3916 140.8404 51.6354 0.0000 0.0000 0.0000
# 3 33.0197 51.6354 48.3391 0.0000 -0.0001 0.0000
# 4 0.0000 0.0000 0.0000 34.1885 0.0000 0.0000
# 5 0.0000 0.0000 -0.0001 0.0000 33.6575 0.0000
# 6 0.0000 0.0000 0.0000 0.0000 0.0000 32.8021
#
#
#
# Elastic Compliance Matrix: (Units=1/GPa)
#
#
# Indices 1 2 3 4 5 6 
#
# 1 0.011273 -0.003173 -0.004311 0.000000 0.000000 0.000000
# 2 -0.003173 0.012564 -0.011253 0.000000 0.000000 0.000000
# 3 -0.004311 -0.011253 0.035652 0.000000 0.000000 0.000000
# 4 0.000000 0.000000 0.000000 0.029250 0.000000 0.000000
# 5 0.000000 0.000000 0.000000 0.000000 0.029711 0.000000
# 6 0.000000 0.000000 0.000000 0.000000 0.000000 0.030486
#
#
# Mechanical properties :
#
#
# Convention : Reuss Voigt Hill
#
# Bulk Modulus (GPa) = 45.42359 66.14702 55.78530
# Shear Modulus (GPa) = 25.80651 31.00846 28.40749
#
# Velocity S-wave (km/s) = 3.36973 3.69378 3.53547
# Velocity P-wave (km/s) = 5.92679 6.87730 6.41966
#
# Compressibility (1/GPa) = 0.02201499
#
# Stress axis : x y z
#
# Youngs Moduli (GPa) = 88.70495 79.59153 28.04866
#
# Poissons Ratio (x) = 0.25258 0.12091
# Poissons Ratio (y) = 0.28150 0.31564
# Poissons Ratio (z) = 0.38239 0.89566
#
# Static dielectric constant tensor:
#      x y z
#    x 1.895210 0.000000 0.000000 
#    y 0.000000 1.710410 0.000000 
#    z 0.000000 0.000000 1.832650 
# 
# From -- ./inp_files/8183.got.cif
#   From: 2010.05.17/outbox.cif.g08.bks.cpg/sg70_5_cif.got.tgz:8183.got - 2010.06.03 15:57:51.
