data_PCOD9516923
_publ_section_title
;
Structure prediction by ZEFSAII (Michael W. Deem and Ramdas Pophale) SiO2 
 PCOD9516923
Probable space group: F D D D
;
_chemical_formula_sum "Si O2"
_cell_formula_units_Z 88
_cell_length_a 29.542588
_cell_length_b 6.770491
_cell_length_c 18.108697
_cell_angle_alpha 90.000000
_cell_angle_beta 90.000000
_cell_angle_gamma 90.000000
_cell_volume 3622.062209
_symmetry_space_group_name_H-M "F D D D"
_symmetry_group_IT_number 70
_space_group.IT_coordinate_system_code '2'
_symmetry_cell_setting 'orthorhombic'
loop_
_space_group_symop_operation_xyz
x,y,z
1/4-x,1/4-y,z
x,1/4-y,1/4-z
1/4-x,y,1/4-z
-x,-y,-z
3/4+x,3/4+y,-z
-x,3/4+y,3/4+z
3/4+x,-y,3/4+z
x,1/2+y,1/2+z
1/4-x,3/4-y,1/2+z
x,3/4-y,3/4-z
1/4-x,1/2+y,3/4-z
-x,1/2-y,1/2-z
3/4+x,1/4+y,1/2-z
-x,1/4+y,1/4+z
3/4+x,1/2-y,1/4+z
1/2+x,y,1/2+z
3/4-x,1/4-y,1/2+z
1/2+x,1/4-y,3/4-z
3/4-x,y,3/4-z
1/2-x,-y,1/2-z
1/4+x,3/4+y,1/2-z
1/2-x,3/4+y,1/4+z
1/4+x,-y,1/4+z
1/2+x,1/2+y,z
3/4-x,3/4-y,z
1/2+x,3/4-y,1/4-z
3/4-x,1/2+y,1/4-z
1/2-x,1/2-y,-z
1/4+x,1/4+y,-z
1/2-x,1/4+y,3/4+z
1/4+x,1/2-y,3/4+z
loop_
_atom_site_type_symbol
_atom_site_label
_atom_site_fract_x
_atom_site_fract_y
_atom_site_fract_z
Si Si1 0.924730 0.892438 0.616857
Si Si2 0.875000 0.375000 0.875000
Si Si3 0.747602 0.625000 0.125000
Si Si4 0.084219 0.774107 0.718477
O O1 0.875000 0.875000 0.579833
O O2 0.918790 0.770404 0.693748
O O3 0.970955 0.795002 0.588569
O O4 0.932182 0.125000 0.625000
O O5 0.903543 0.519039 0.820802
O O6 0.713685 0.538833 0.185473
O O7 0.125000 0.625000 0.698609
#
# Coordination Sequence:
#
# PCOD9516923 Si02
#       4
#    32   8  16  32
#     4  11  26  46  69 103 150 197 245 307 374 442
#     4  12  22  48  78 102 156 190 246 310 380 422
#     4  12  23  46  69 112 144 191 261 292 384 444
#     4  11  25  46  72 110 146 192 253 307 373 448
#
# _framework density 24.295553999999999
#
# number of rings (size 3 to 8) (size 9 to 14) (size 15 to 20)
#    0.000    0.727    5.455    1.091    2.545    7.273 
#    0.000    0.000    0.000    0.000    0.000    0.000 
#    0.000    0.000    0.000    0.000    0.000    0.000 
#
# Total GULP energy -122788.229132 kJ/mol
# GULP energy per Si atom -5581.283142 kJ/mol
# Density = 2.424026 g / cm^3
# Si number density = 24.295554 Si / 1000 Ang^3
#
#
#
# Elastic Constant Matrix: (Units=GPa)
#
#
# Indices 1 2 3 4 5 6 
#
# 1 208.3836 103.3372 23.7970 0.0000 0.0001 0.0000
# 2 103.3372 198.8988 23.4217 -0.0001 0.0003 0.0002
# 3 23.7970 23.4217 125.3003 0.0000 0.0000 0.0000
# 4 0.0000 -0.0001 0.0000 15.7597 0.0001 0.0001
# 5 0.0001 0.0003 0.0000 0.0001 32.7490 -0.0001
# 6 0.0000 0.0002 0.0000 0.0001 -0.0001 69.7856
#
#
#
# Elastic Compliance Matrix: (Units=1/GPa)
#
#
# Indices 1 2 3 4 5 6 
#
# 1 0.006511 -0.003310 -0.000618 0.000000 0.000000 0.000000
# 2 -0.003310 0.006823 -0.000647 0.000000 0.000000 0.000000
# 3 -0.000618 -0.000647 0.008219 0.000000 0.000000 0.000000
# 4 0.000000 0.000000 0.000000 0.063453 0.000000 0.000000
# 5 0.000000 0.000000 0.000000 0.000000 0.030535 0.000000
# 6 0.000000 0.000000 0.000000 0.000000 0.000000 0.014330
#
#
# Mechanical properties :
#
#
# Convention : Reuss Voigt Hill
#
# Bulk Modulus (GPa) = 80.61800 92.63274 86.62537
# Shear Modulus (GPa) = 34.92711 49.12730 42.02721
#
# Velocity S-wave (km/s) = 3.79567 4.50162 4.16364
# Velocity P-wave (km/s) = 7.24319 8.07649 7.67116
#
# Compressibility (1/GPa) = 0.01240418
#
# Stress axis : x y z
#
# Youngs Moduli (GPa) = 153.59163 146.55238 121.66814
#
# Poissons Ratio (x) = 0.48507 0.07517
# Poissons Ratio (y) = 0.50837 0.07870
# Poissons Ratio (z) = 0.09489 0.09480
#
# Static dielectric constant tensor:
#      x y z
#    x 1.948860 0.000000 0.000000 
#    y 0.000000 2.020370 0.000000 
#    z 0.000000 0.000000 2.077710 
# 
# From -- ./inp_files/2554.got.cif
#   From: 2010.05.17/outbox.cif.g08.bks.cpg/sg70_2_cif.got.tgz:2554.got - 2010.06.03 15:57:51.
