data_PCOD9516022
_publ_section_title
;
Structure prediction by ZEFSAII (Michael W. Deem and Ramdas Pophale) SiO2 
 PCOD9516022
Probable space group: F D D D
;
_chemical_formula_sum "Si O2"
_cell_formula_units_Z 176
_cell_length_a 12.557098
_cell_length_b 24.937931
_cell_length_c 27.593725
_cell_angle_alpha 90.000000
_cell_angle_beta 90.000000
_cell_angle_gamma 90.000000
_cell_volume 8640.920996
_symmetry_space_group_name_H-M "F D D D"
_symmetry_group_IT_number 70
_space_group.IT_coordinate_system_code '2'
_symmetry_cell_setting 'orthorhombic'
loop_
_space_group_symop_operation_xyz
x,y,z
1/4-x,1/4-y,z
x,1/4-y,1/4-z
1/4-x,y,1/4-z
-x,-y,-z
3/4+x,3/4+y,-z
-x,3/4+y,3/4+z
3/4+x,-y,3/4+z
x,1/2+y,1/2+z
1/4-x,3/4-y,1/2+z
x,3/4-y,3/4-z
1/4-x,1/2+y,3/4-z
-x,1/2-y,1/2-z
3/4+x,1/4+y,1/2-z
-x,1/4+y,1/4+z
3/4+x,1/2-y,1/4+z
1/2+x,y,1/2+z
3/4-x,1/4-y,1/2+z
1/2+x,1/4-y,3/4-z
3/4-x,y,3/4-z
1/2-x,-y,1/2-z
1/4+x,3/4+y,1/2-z
1/2-x,3/4+y,1/4+z
1/4+x,-y,1/4+z
1/2+x,1/2+y,z
3/4-x,3/4-y,z
1/2+x,3/4-y,1/4-z
3/4-x,1/2+y,1/4-z
1/2-x,1/2-y,-z
1/4+x,1/4+y,-z
1/2-x,1/4+y,3/4+z
1/4+x,1/2-y,3/4+z
loop_
_atom_site_type_symbol
_atom_site_label
_atom_site_fract_x
_atom_site_fract_y
_atom_site_fract_z
Si Si1 0.245604 0.583052 0.537847
Si Si2 0.125000 0.125000 0.749332
Si Si3 0.345613 0.760987 0.037156
Si Si4 0.625000 0.125000 0.449223
Si Si5 0.875000 0.284790 0.375000
Si Si6 0.610078 0.510852 0.895479
Si Si7 0.060496 0.899090 0.324610
O O1 0.307344 0.528386 0.524722
O O2 0.218030 0.613306 0.488281
O O3 0.151949 0.567336 0.575518
O O4 0.328435 0.618888 0.567083
O O5 0.124227 0.177576 0.781068
O O6 0.228777 0.130385 0.716000
O O7 0.327417 0.754590 0.094441
O O8 0.250000 0.750000 0.000000
O O9 0.615447 0.070217 0.418385
O O10 0.764926 0.252745 0.385291
O O11 0.662558 0.462332 0.926222
O O12 0.017705 0.875000 0.375000
#
# Coordination Sequence:
#
# PCOD9516022 Si02
#       7
#    32  16  32  16  16  32  32
#     4  11  24  41  71  98 137 176 231 277 340 394
#     4  12  24  38  70  95 135 172 224 276 338 402
#     4  11  22  45  67  96 130 181 222 276 329 404
#     4  12  27  43  60 107 143 172 217 283 344 410
#     4  10  22  45  74  96 128 186 227 282 326 408
#     4  11  25  44  68  99 138 174 223 275 342 399
#     4  12  22  42  69  98 128 175 231 278 325 393
#
# _framework density 20.368200000000002
#
# number of rings (size 3 to 8) (size 9 to 14) (size 15 to 20)
#    0.000    0.727    5.455    3.000    0.000    6.545 
#    3.273    1.818    0.000    0.000    0.000    0.000 
#    0.000    0.000    0.000    0.000    0.000    0.000 
#
# Total GULP energy -245593.623317 kJ/mol
# GULP energy per Si atom -5581.673257 kJ/mol
# Density = 2.032184 g / cm^3
# Si number density = 20.368200 Si / 1000 Ang^3
#
#
#
# Elastic Constant Matrix: (Units=GPa)
#
#
# Indices 1 2 3 4 5 6 
#
# 1 58.9646 11.2071 23.8237 0.0000 0.0000 0.0000
# 2 11.2071 148.8860 22.4622 0.0000 0.0000 0.0000
# 3 23.8237 22.4622 76.0482 0.0000 0.0000 0.0000
# 4 0.0000 0.0000 0.0000 36.4748 0.0000 0.0000
# 5 0.0000 0.0000 0.0000 0.0000 18.2176 0.0000
# 6 0.0000 0.0000 0.0000 0.0000 0.0000 27.0605
#
#
#
# Elastic Compliance Matrix: (Units=1/GPa)
#
#
# Indices 1 2 3 4 5 6 
#
# 1 0.019463 -0.000571 -0.005929 0.000000 0.000000 0.000000
# 2 -0.000571 0.007047 -0.001903 0.000000 0.000000 0.000000
# 3 -0.005929 -0.001903 0.015569 0.000000 0.000000 0.000000
# 4 0.000000 0.000000 0.000000 0.027416 0.000000 0.000000
# 5 0.000000 0.000000 0.000000 0.000000 0.054892 0.000000
# 6 0.000000 0.000000 0.000000 0.000000 0.000000 0.036954
#
#
# Mechanical properties :
#
#
# Convention : Reuss Voigt Hill
#
# Bulk Modulus (GPa) = 39.56515 44.32052 41.94283
# Shear Modulus (GPa) = 26.79967 31.44430 29.12199
#
# Velocity S-wave (km/s) = 3.63128 3.93338 3.78534
# Velocity P-wave (km/s) = 6.08676 6.51425 6.30413
#
# Compressibility (1/GPa) = 0.02527477
#
# Stress axis : x y z
#
# Youngs Moduli (GPa) = 51.37911 141.91365 64.23097
#
# Poissons Ratio (x) = 0.08097 0.38081
# Poissons Ratio (y) = 0.02932 0.12220
# Poissons Ratio (z) = 0.30461 0.27000
#
# Static dielectric constant tensor:
#      x y z
#    x 1.764170 0.000000 0.000000 
#    y 0.000000 1.746350 0.000000 
#    z 0.000000 0.000000 1.727270 
# 
# From -- ./inp_files/51238.got.cif
#   From: 2010.05.17/outbox.cif.g08.bks.cpg/sg70_26_cif.got.tgz:51238.got - 2010.06.03 15:57:51.
