data_PCOD9516764
_publ_section_title
;
Structure prediction by ZEFSAII (Michael W. Deem and Ramdas Pophale) SiO2 
 PCOD9516764
Probable space group: F D D D
;
_chemical_formula_sum "Si O2"
_cell_formula_units_Z 176
_cell_length_a 30.052716
_cell_length_b 16.046211
_cell_length_c 16.681287
_cell_angle_alpha 90.000000
_cell_angle_beta 90.000000
_cell_angle_gamma 90.000000
_cell_volume 8044.254097
_symmetry_space_group_name_H-M "F D D D"
_symmetry_group_IT_number 70
_space_group.IT_coordinate_system_code '2'
_symmetry_cell_setting 'orthorhombic'
loop_
_space_group_symop_operation_xyz
x,y,z
1/4-x,1/4-y,z
x,1/4-y,1/4-z
1/4-x,y,1/4-z
-x,-y,-z
3/4+x,3/4+y,-z
-x,3/4+y,3/4+z
3/4+x,-y,3/4+z
x,1/2+y,1/2+z
1/4-x,3/4-y,1/2+z
x,3/4-y,3/4-z
1/4-x,1/2+y,3/4-z
-x,1/2-y,1/2-z
3/4+x,1/4+y,1/2-z
-x,1/4+y,1/4+z
3/4+x,1/2-y,1/4+z
1/2+x,y,1/2+z
3/4-x,1/4-y,1/2+z
1/2+x,1/4-y,3/4-z
3/4-x,y,3/4-z
1/2-x,-y,1/2-z
1/4+x,3/4+y,1/2-z
1/2-x,3/4+y,1/4+z
1/4+x,-y,1/4+z
1/2+x,1/2+y,z
3/4-x,3/4-y,z
1/2+x,3/4-y,1/4-z
3/4-x,1/2+y,1/4-z
1/2-x,1/2-y,-z
1/4+x,1/4+y,-z
1/2-x,1/4+y,3/4+z
1/4+x,1/2-y,3/4+z
loop_
_atom_site_type_symbol
_atom_site_label
_atom_site_fract_x
_atom_site_fract_y
_atom_site_fract_z
Si Si1 0.625000 0.421628 0.125000
Si Si2 0.068925 0.505287 0.335959
Si Si3 0.506556 0.125000 0.625000
Si Si4 0.944856 0.086555 0.476895
Si Si5 0.606124 0.375000 0.375000
Si Si6 0.834486 0.939582 0.762833
Si Si7 0.956178 0.356469 0.779824
O O1 0.666875 0.367494 0.097979
O O2 0.605459 0.478067 0.053162
O O3 0.111806 0.446547 0.342464
O O4 0.070409 0.552227 0.420934
O O5 0.070380 0.569176 0.262713
O O6 0.025756 0.444796 0.336348
O O7 0.540392 0.085635 0.561041
O O8 0.925814 0.140775 0.550646
O O9 0.997127 0.103794 0.481235
O O10 0.938047 0.987017 0.482606
O O11 0.875000 0.875000 0.770896
O O12 0.961802 0.375000 0.875000
#
# Coordination Sequence:
#
# PCOD9516764 Si02
#       7
#    16  32  16  32  16  32  32
#     4  12  23  46  73 106 144 184 234 316 355 443
#     4  11  27  42  71 103 145 187 238 303 361 428
#     4  11  23  44  69 110 144 184 240 297 362 449
#     4  11  26  46  75 101 147 191 245 296 372 431
#     4  11  24  48  69 104 137 191 236 299 370 434
#     4  12  24  43  72 108 139 184 241 293 379 432
#     4  11  27  48  71 104 142 202 247 299 359 442
#
# _framework density 21.878969999999999
#
# number of rings (size 3 to 8) (size 9 to 14) (size 15 to 20)
#    0.000    0.727    4.545    1.636    5.091    2.909 
#    0.000    0.000    0.000    0.000    0.000    0.000 
#    0.000    0.000    0.000    0.000    0.000    0.000 
#
# Total GULP energy -245974.395085 kJ/mol
# GULP energy per Si atom -5590.327161 kJ/mol
# Density = 2.182917 g / cm^3
# Si number density = 21.878970 Si / 1000 Ang^3
#
#
#
# Elastic Constant Matrix: (Units=GPa)
#
#
# Indices 1 2 3 4 5 6 
#
# 1 91.4504 48.9953 18.4636 0.0000 0.0000 0.0000
# 2 48.9953 111.6426 31.7731 0.0000 0.0000 0.0000
# 3 18.4636 31.7731 78.3790 0.0000 0.0000 0.0000
# 4 0.0000 0.0000 0.0000 20.1498 0.0000 0.0000
# 5 0.0000 0.0000 0.0000 0.0000 28.1427 0.0000
# 6 0.0000 0.0000 0.0000 0.0000 0.0000 46.2476
#
#
#
# Elastic Compliance Matrix: (Units=1/GPa)
#
#
# Indices 1 2 3 4 5 6 
#
# 1 0.014357 -0.006034 -0.000936 0.000000 0.000000 0.000000
# 2 -0.006034 0.012662 -0.003711 0.000000 0.000000 0.000000
# 3 -0.000936 -0.003711 0.014483 0.000000 0.000000 0.000000
# 4 0.000000 0.000000 0.000000 0.049628 0.000000 0.000000
# 5 0.000000 0.000000 0.000000 0.000000 0.035533 0.000000
# 6 0.000000 0.000000 0.000000 0.000000 0.000000 0.021623
#
#
# Mechanical properties :
#
#
# Convention : Reuss Voigt Hill
#
# Bulk Modulus (GPa) = 49.65470 53.32621 51.49046
# Shear Modulus (GPa) = 28.35085 31.05735 29.70410
#
# Velocity S-wave (km/s) = 3.60363 3.77172 3.68864
# Velocity P-wave (km/s) = 6.32924 6.58741 6.45962
#
# Compressibility (1/GPa) = 0.02013908
#
# Stress axis : x y z
#
# Youngs Moduli (GPa) = 69.65374 78.97940 69.04442
#
# Poissons Ratio (x) = 0.47658 0.06461
# Poissons Ratio (y) = 0.42031 0.25624
# Poissons Ratio (z) = 0.06518 0.29311
#
# Static dielectric constant tensor:
#      x y z
#    x 1.786550 0.000000 0.000000 
#    y 0.000000 1.810510 0.000000 
#    z 0.000000 0.000000 1.806230 
# 
# From -- ./inp_files/38588.got.cif
#   From: 2010.05.17/outbox.cif.g08.bks.cpg/sg70_20_cif.got.tgz:38588.got - 2010.06.03 15:57:51.
