data_PCOD9516472
_publ_section_title
;
Structure prediction by ZEFSAII (Michael W. Deem and Ramdas Pophale) SiO2 
 PCOD9516472
Probable space group: F D D D
;
_chemical_formula_sum "Si O2"
_cell_formula_units_Z 88
_cell_length_a 9.080400
_cell_length_b 19.964326
_cell_length_c 18.328877
_cell_angle_alpha 90.000000
_cell_angle_beta 90.000000
_cell_angle_gamma 90.000000
_cell_volume 3322.733344
_symmetry_space_group_name_H-M "F D D D"
_symmetry_group_IT_number 70
_space_group.IT_coordinate_system_code '2'
_symmetry_cell_setting 'orthorhombic'
loop_
_space_group_symop_operation_xyz
x,y,z
1/4-x,1/4-y,z
x,1/4-y,1/4-z
1/4-x,y,1/4-z
-x,-y,-z
3/4+x,3/4+y,-z
-x,3/4+y,3/4+z
3/4+x,-y,3/4+z
x,1/2+y,1/2+z
1/4-x,3/4-y,1/2+z
x,3/4-y,3/4-z
1/4-x,1/2+y,3/4-z
-x,1/2-y,1/2-z
3/4+x,1/4+y,1/2-z
-x,1/4+y,1/4+z
3/4+x,1/2-y,1/4+z
1/2+x,y,1/2+z
3/4-x,1/4-y,1/2+z
1/2+x,1/4-y,3/4-z
3/4-x,y,3/4-z
1/2-x,-y,1/2-z
1/4+x,3/4+y,1/2-z
1/2-x,3/4+y,1/4+z
1/4+x,-y,1/4+z
1/2+x,1/2+y,z
3/4-x,3/4-y,z
1/2+x,3/4-y,1/4-z
3/4-x,1/2+y,1/4-z
1/2-x,1/2-y,-z
1/4+x,1/4+y,-z
1/2-x,1/4+y,3/4+z
1/4+x,1/2-y,3/4+z
loop_
_atom_site_type_symbol
_atom_site_label
_atom_site_fract_x
_atom_site_fract_y
_atom_site_fract_z
Si Si1 0.375000 0.651647 0.875000
Si Si2 0.125000 0.625000 0.125000
Si Si3 0.398965 0.709159 0.496691
Si Si4 0.417350 0.521944 0.590866
O O1 0.373560 0.603422 0.805790
O O2 0.236464 0.700877 0.885293
O O3 0.200547 0.679006 0.066094
O O4 0.250000 0.750000 0.500000
O O5 0.400082 0.690001 0.581986
O O6 0.528185 0.755701 0.459929
#
# Coordination Sequence:
#
# PCOD9516472 Si02
#       4
#    16   8  32  32
#     4  11  26  49  78 119 168 225 276 360 432 511
#     4  10  28  48  74 120 160 222 278 344 420 522
#     4  12  25  48  77 119 161 223 283 345 431 512
#     4  11  27  48  80 116 167 227 276 357 427 521
#
# _framework density 26.484219
#
# number of rings (size 3 to 8) (size 9 to 14) (size 15 to 20)
#    0.000    0.727    3.636    1.091   10.182    2.909 
#    0.000    1.818    0.000    0.000    0.000    0.000 
#    0.000    0.000    0.000    0.000    0.000    0.000 
#
# Total GULP energy -122796.553379 kJ/mol
# GULP energy per Si atom -5581.661517 kJ/mol
# Density = 2.642394 g / cm^3
# Si number density = 26.484219 Si / 1000 Ang^3
#
#
#
# Elastic Constant Matrix: (Units=GPa)
#
#
# Indices 1 2 3 4 5 6 
#
# 1 148.5535 56.2386 44.8373 0.0000 0.0000 0.0000
# 2 56.2386 188.6349 52.8580 0.0000 0.0000 0.0000
# 3 44.8373 52.8580 191.5171 0.0000 0.0000 0.0000
# 4 0.0000 0.0000 0.0000 34.0160 0.0000 0.0000
# 5 0.0000 0.0000 0.0000 0.0000 51.7819 0.0000
# 6 0.0000 0.0000 0.0000 0.0000 0.0000 36.7043
#
#
#
# Elastic Compliance Matrix: (Units=1/GPa)
#
#
# Indices 1 2 3 4 5 6 
#
# 1 0.007874 -0.001984 -0.001296 0.000000 0.000000 0.000000
# 2 -0.001984 0.006246 -0.001259 0.000000 0.000000 0.000000
# 3 -0.001296 -0.001259 0.005872 0.000000 0.000000 0.000000
# 4 0.000000 0.000000 0.000000 0.029398 0.000000 0.000000
# 5 0.000000 0.000000 0.000000 0.000000 0.019312 0.000000
# 6 0.000000 0.000000 0.000000 0.000000 0.000000 0.027245
#
#
# Mechanical properties :
#
#
# Convention : Reuss Voigt Hill
#
# Bulk Modulus (GPa) = 91.63134 92.95258 92.29196
# Shear Modulus (GPa) = 46.01388 49.48521 47.74954
#
# Velocity S-wave (km/s) = 4.17274 4.32728 4.25071
# Velocity P-wave (km/s) = 7.60850 7.75504 7.68212
#
# Compressibility (1/GPa) = 0.01091330
#
# Stress axis : x y z
#
# Youngs Moduli (GPa) = 127.00168 160.10978 170.28943
#
# Poissons Ratio (x) = 0.31772 0.22065
# Poissons Ratio (y) = 0.25202 0.21443
# Poissons Ratio (z) = 0.16456 0.20161
#
# Static dielectric constant tensor:
#      x y z
#    x 1.731540 0.000000 0.000000 
#    y 0.000000 2.323820 0.000000 
#    z 0.000000 0.000000 5.463370 
# 
# From -- ./inp_files/41526.got.cif
#   From: 2010.05.17/outbox.cif.g08.bks.cpg/sg70_21_cif.got.tgz:41526.got - 2010.06.03 15:57:51.
