data_PCOD9516224
_publ_section_title
;
Structure prediction by ZEFSAII (Michael W. Deem and Ramdas Pophale) SiO2 
 PCOD9516224
Probable space group: F D D D
;
_chemical_formula_sum "Si O2"
_cell_formula_units_Z 240
_cell_length_a 28.054717
_cell_length_b 21.399552
_cell_length_c 18.606479
_cell_angle_alpha 90.000000
_cell_angle_beta 90.000000
_cell_angle_gamma 90.000000
_cell_volume 11170.555502
_symmetry_space_group_name_H-M "F D D D"
_symmetry_group_IT_number 70
_space_group.IT_coordinate_system_code '2'
_symmetry_cell_setting 'orthorhombic'
loop_
_space_group_symop_operation_xyz
x,y,z
1/4-x,1/4-y,z
x,1/4-y,1/4-z
1/4-x,y,1/4-z
-x,-y,-z
3/4+x,3/4+y,-z
-x,3/4+y,3/4+z
3/4+x,-y,3/4+z
x,1/2+y,1/2+z
1/4-x,3/4-y,1/2+z
x,3/4-y,3/4-z
1/4-x,1/2+y,3/4-z
-x,1/2-y,1/2-z
3/4+x,1/4+y,1/2-z
-x,1/4+y,1/4+z
3/4+x,1/2-y,1/4+z
1/2+x,y,1/2+z
3/4-x,1/4-y,1/2+z
1/2+x,1/4-y,3/4-z
3/4-x,y,3/4-z
1/2-x,-y,1/2-z
1/4+x,3/4+y,1/2-z
1/2-x,3/4+y,1/4+z
1/4+x,-y,1/4+z
1/2+x,1/2+y,z
3/4-x,3/4-y,z
1/2+x,3/4-y,1/4-z
3/4-x,1/2+y,1/4-z
1/2-x,1/2-y,-z
1/4+x,1/4+y,-z
1/2-x,1/4+y,3/4+z
1/4+x,1/2-y,3/4+z
loop_
_atom_site_type_symbol
_atom_site_label
_atom_site_fract_x
_atom_site_fract_y
_atom_site_fract_z
Si Si1 0.731459 0.590441 0.364613
Si Si2 0.150349 0.567464 0.201471
Si Si3 0.690781 0.964521 0.891487
Si Si4 0.326402 0.563692 0.772907
Si Si5 0.000356 0.324872 0.749135
Si Si6 0.085388 0.676521 0.727124
Si Si7 0.238433 0.125000 0.125000
Si Si8 0.357376 0.572096 0.233406
O O1 0.709620 0.532519 0.409732
O O2 0.782287 0.573940 0.327321
O O3 0.739228 0.647333 0.419726
O O4 0.691817 0.593184 0.301124
O O5 0.125000 0.625000 0.243624
O O6 0.125000 0.564265 0.125000
O O7 0.205222 0.588699 0.200961
O O8 0.145240 0.496759 0.230416
O O9 0.694928 0.951835 0.806482
O O10 0.728050 0.916498 0.926034
O O11 0.637848 0.944883 0.912675
O O12 0.353879 0.497419 0.781586
O O13 0.361230 0.623723 0.771789
O O14 0.000000 0.250000 0.750000
O O15 0.053113 0.345092 0.773539
O O16 0.125000 0.625000 0.714579
O O17 0.044992 0.671148 0.667525
#
# Coordination Sequence:
#
# PCOD9516224 Si02
#       8
#    32  32  32  32  32  32  16  32
#     4  11  22  43  72  94 138 188 231 280 355 421
#     4  10  23  47  68  95 134 185 237 295 359 420
#     4  11  20  40  70  98 135 185 224 279 346 423
#     4  11  22  41  66 103 135 175 233 280 341 430
#     4  10  25  43  66 103 136 175 238 303 340 423
#     4  11  24  40  63 100 138 182 222 285 338 427
#     4  12  19  42  58  94 144 174 221 268 340 406
#     4  11  23  40  71 101 138 177 231 290 356 408
#
# _framework density 21.485054000000002
#
# number of rings (size 3 to 8) (size 9 to 14) (size 15 to 20)
#    0.000    1.200    4.000    1.800    3.733    5.867 
#    7.200    1.333    0.000    0.000    0.000    0.000 
#    0.000    0.000    0.000    0.000    0.000    0.000 
#
# Total GULP energy -334178.633641 kJ/mol
# GULP energy per Si atom -5569.643894 kJ/mol
# Density = 2.143615 g / cm^3
# Si number density = 21.485054 Si / 1000 Ang^3
#
#
#
# Elastic Constant Matrix: (Units=GPa)
#
#
# Indices 1 2 3 4 5 6 
#
# 1 164.3909 48.0655 28.1081 0.0000 0.0000 0.0000
# 2 48.0655 141.1087 27.0824 0.0000 0.0000 0.0000
# 3 28.1081 27.0824 62.9954 0.0000 0.0000 0.0000
# 4 0.0000 0.0000 0.0000 25.0368 0.0000 0.0000
# 5 0.0000 0.0000 0.0000 0.0000 23.3519 0.0000
# 6 0.0000 0.0000 0.0000 0.0000 0.0000 51.7117
#
#
#
# Elastic Compliance Matrix: (Units=1/GPa)
#
#
# Indices 1 2 3 4 5 6 
#
# 1 0.007050 -0.001959 -0.002303 0.000000 0.000000 0.000000
# 2 -0.001959 0.008269 -0.002681 0.000000 0.000000 0.000000
# 3 -0.002303 -0.002681 0.018054 0.000000 0.000000 0.000000
# 4 0.000000 0.000000 0.000000 0.039941 0.000000 0.000000
# 5 0.000000 0.000000 0.000000 0.000000 0.042823 0.000000
# 6 0.000000 0.000000 0.000000 0.000000 0.000000 0.019338
#
#
# Mechanical properties :
#
#
# Convention : Reuss Voigt Hill
#
# Bulk Modulus (GPa) = 51.31761 63.88967 57.60364
# Shear Modulus (GPa) = 32.08079 37.70268 34.89174
#
# Velocity S-wave (km/s) = 3.86835 4.19362 4.03426
# Velocity P-wave (km/s) = 6.62490 7.29725 6.96919
#
# Compressibility (1/GPa) = 0.01948649
#
# Stress axis : x y z
#
# Youngs Moduli (GPa) = 141.84917 120.93970 55.38861
#
# Poissons Ratio (x) = 0.23696 0.12757
# Poissons Ratio (y) = 0.27792 0.14847
# Poissons Ratio (z) = 0.32671 0.32418
#
# Static dielectric constant tensor:
#      x y z
#    x 1.820610 0.000000 0.000000 
#    y 0.000000 1.920150 0.000000 
#    z 0.000000 0.000000 1.869110 
# 
# From -- ./inp_files/47144.got.cif
#   From: 2010.05.17/outbox.cif.g08.bks.cpg/sg70_24_cif.got.tgz:47144.got - 2010.06.03 15:57:51.
