data_PCOD9516069
_publ_section_title
;
Structure prediction by ZEFSAII (Michael W. Deem and Ramdas Pophale) SiO2 
 PCOD9516069
Probable space group: F D D D
;
_chemical_formula_sum "Si O2"
_cell_formula_units_Z 216
_cell_length_a 27.984276
_cell_length_b 19.682987
_cell_length_c 19.838499
_cell_angle_alpha 90.000000
_cell_angle_beta 90.000000
_cell_angle_gamma 90.000000
_cell_volume 10927.325780
_symmetry_space_group_name_H-M "F D D D"
_symmetry_group_IT_number 70
_space_group.IT_coordinate_system_code '2'
_symmetry_cell_setting 'orthorhombic'
loop_
_space_group_symop_operation_xyz
x,y,z
1/4-x,1/4-y,z
x,1/4-y,1/4-z
1/4-x,y,1/4-z
-x,-y,-z
3/4+x,3/4+y,-z
-x,3/4+y,3/4+z
3/4+x,-y,3/4+z
x,1/2+y,1/2+z
1/4-x,3/4-y,1/2+z
x,3/4-y,3/4-z
1/4-x,1/2+y,3/4-z
-x,1/2-y,1/2-z
3/4+x,1/4+y,1/2-z
-x,1/4+y,1/4+z
3/4+x,1/2-y,1/4+z
1/2+x,y,1/2+z
3/4-x,1/4-y,1/2+z
1/2+x,1/4-y,3/4-z
3/4-x,y,3/4-z
1/2-x,-y,1/2-z
1/4+x,3/4+y,1/2-z
1/2-x,3/4+y,1/4+z
1/4+x,-y,1/4+z
1/2+x,1/2+y,z
3/4-x,3/4-y,z
1/2+x,3/4-y,1/4-z
3/4-x,1/2+y,1/4-z
1/2-x,1/2-y,-z
1/4+x,1/4+y,-z
1/2-x,1/4+y,3/4+z
1/4+x,1/2-y,3/4+z
loop_
_atom_site_type_symbol
_atom_site_label
_atom_site_fract_x
_atom_site_fract_y
_atom_site_fract_z
Si Si1 0.270150 0.790098 0.713742
Si Si2 0.464161 0.969094 0.554597
Si Si3 0.477054 0.935457 0.966284
Si Si4 0.621823 0.702479 0.775998
Si Si5 0.809351 0.926913 0.990751
Si Si6 0.454543 0.125000 0.125000
Si Si7 0.625000 0.125000 0.625000
Si Si8 0.635183 0.976312 0.414083
O O1 0.269675 0.794452 0.631918
O O2 0.260137 0.864978 0.744838
O O3 0.324126 0.777118 0.741208
O O4 0.235546 0.727595 0.731791
O O5 0.451008 0.897110 0.520926
O O6 0.500000 0.000000 0.500000
O O7 0.420192 0.021948 0.565963
O O8 0.506853 0.930803 0.897675
O O9 0.419768 0.946068 0.970041
O O10 0.500000 0.000000 0.000000
O O11 0.625000 0.625000 0.804397
O O12 0.608053 0.753425 0.835824
O O13 0.839681 0.918360 0.922267
O O14 0.843047 0.963206 0.043783
O O15 0.417090 0.090150 0.176180
#
# Coordination Sequence:
#
# PCOD9516069 Si02
#       8
#    32  32  32  32  32  16   8  32
#     4  10  23  39  66  96 126 169 219 267 321 394
#     4  11  24  42  65  95 129 175 214 272 329 393
#     4  11  21  39  64  93 130 165 216 268 324 387
#     4   9  19  38  63  87 118 168 212 257 318 383
#     4  12  22  41  64  92 131 167 219 262 330 398
#     4  12  24  36  68 102 124 172 226 276 330 396
#     4  12  24  36  70  96 128 184 210 276 336 404
#     4  11  21  40  64  92 124 165 220 261 321 394
#
# _framework density 19.766960000000001
#
# number of rings (size 3 to 8) (size 9 to 14) (size 15 to 20)
#    0.000    1.185    4.444    3.556    0.000    2.370 
#    0.000    3.333    0.000    0.000    0.000    0.000 
#    0.000    0.000    0.000    0.000    0.000    0.000 
#
# Total GULP energy -300674.707493 kJ/mol
# GULP energy per Si atom -5568.050139 kJ/mol
# Density = 1.972197 g / cm^3
# Si number density = 19.766960 Si / 1000 Ang^3
#
#
#
# Elastic Constant Matrix: (Units=GPa)
#
#
# Indices 1 2 3 4 5 6 
#
# 1 127.5705 34.4303 28.2379 0.0000 0.0000 0.0000
# 2 34.4303 56.0569 9.3127 0.0000 0.0000 0.0000
# 3 28.2379 9.3127 33.1728 0.0000 0.0000 0.0000
# 4 0.0000 0.0000 0.0000 30.2570 0.0000 0.0000
# 5 0.0000 0.0000 0.0000 0.0000 49.5539 0.0000
# 6 0.0000 0.0000 0.0000 0.0000 0.0000 36.4444
#
#
#
# Elastic Compliance Matrix: (Units=1/GPa)
#
#
# Indices 1 2 3 4 5 6 
#
# 1 0.011063 -0.005486 -0.007877 0.000000 0.000000 0.000000
# 2 -0.005486 0.021433 -0.001347 0.000000 0.000000 0.000000
# 3 -0.007877 -0.001347 0.037229 0.000000 0.000000 0.000000
# 4 0.000000 0.000000 0.000000 0.033050 0.000000 0.000000
# 5 0.000000 0.000000 0.000000 0.000000 0.020180 0.000000
# 6 0.000000 0.000000 0.000000 0.000000 0.000000 0.027439
#
#
# Mechanical properties :
#
#
# Convention : Reuss Voigt Hill
#
# Bulk Modulus (GPa) = 24.81151 40.08468 32.44810
# Shear Modulus (GPa) = 25.87344 32.90569 29.38956
#
# Velocity S-wave (km/s) = 3.62183 4.08448 3.86009
# Velocity P-wave (km/s) = 5.48356 6.52431 6.02644
#
# Compressibility (1/GPa) = 0.04030387
#
# Stress axis : x y z
#
# Youngs Moduli (GPa) = 90.39008 46.65811 26.86112
#
# Poissons Ratio (x) = 0.25599 0.21159
# Poissons Ratio (y) = 0.49592 0.03617
# Poissons Ratio (z) = 0.71202 0.06283
#
# Static dielectric constant tensor:
#      x y z
#    x 1.705590 0.000000 0.000000 
#    y 0.000000 1.712480 0.000000 
#    z 0.000000 0.000000 1.779970 
# 
# From -- ./inp_files/47102.got.cif
#   From: 2010.05.17/outbox.cif.g08.bks.cpg/sg70_24_cif.got.tgz:47102.got - 2010.06.03 15:57:51.
