data_PCOD9516788
_publ_section_title
;
Structure prediction by ZEFSAII (Michael W. Deem and Ramdas Pophale) SiO2 
 PCOD9516788
Probable space group: F D D D
;
_chemical_formula_sum "Si O2"
_cell_formula_units_Z 176
_cell_length_a 15.008325
_cell_length_b 22.274523
_cell_length_c 23.475473
_cell_angle_alpha 90.000000
_cell_angle_beta 90.000000
_cell_angle_gamma 90.000000
_cell_volume 7847.927633
_symmetry_space_group_name_H-M "F D D D"
_symmetry_group_IT_number 70
_space_group.IT_coordinate_system_code '2'
_symmetry_cell_setting 'orthorhombic'
loop_
_space_group_symop_operation_xyz
x,y,z
1/4-x,1/4-y,z
x,1/4-y,1/4-z
1/4-x,y,1/4-z
-x,-y,-z
3/4+x,3/4+y,-z
-x,3/4+y,3/4+z
3/4+x,-y,3/4+z
x,1/2+y,1/2+z
1/4-x,3/4-y,1/2+z
x,3/4-y,3/4-z
1/4-x,1/2+y,3/4-z
-x,1/2-y,1/2-z
3/4+x,1/4+y,1/2-z
-x,1/4+y,1/4+z
3/4+x,1/2-y,1/4+z
1/2+x,y,1/2+z
3/4-x,1/4-y,1/2+z
1/2+x,1/4-y,3/4-z
3/4-x,y,3/4-z
1/2-x,-y,1/2-z
1/4+x,3/4+y,1/2-z
1/2-x,3/4+y,1/4+z
1/4+x,-y,1/4+z
1/2+x,1/2+y,z
3/4-x,3/4-y,z
1/2+x,3/4-y,1/4-z
3/4-x,1/2+y,1/4-z
1/2-x,1/2-y,-z
1/4+x,1/4+y,-z
1/2-x,1/4+y,3/4+z
1/4+x,1/2-y,3/4+z
loop_
_atom_site_type_symbol
_atom_site_label
_atom_site_fract_x
_atom_site_fract_y
_atom_site_fract_z
Si Si1 0.389892 0.066637 0.587726
Si Si2 0.092054 0.191085 0.189967
Si Si3 0.625000 0.866764 0.625000
Si Si4 0.195527 0.947901 0.021785
Si Si5 0.858691 0.942321 0.263690
Si Si6 0.743752 0.022268 0.346653
O O1 0.407668 0.125000 0.625000
O O2 0.486514 0.048461 0.563834
O O3 0.331049 0.087639 0.534664
O O4 0.332208 0.016577 0.621501
O O5 0.125000 0.125000 0.208143
O O6 0.125000 0.198401 0.125000
O O7 0.140250 0.240767 0.227180
O O8 0.662488 0.909493 0.575450
O O9 0.543095 0.820716 0.613177
O O10 0.298208 0.964656 0.013144
O O11 0.875000 0.875000 0.283574
O O12 0.795493 0.942991 0.208275
O O13 0.815995 0.979403 0.315294
#
# Coordination Sequence:
#
# PCOD9516788 Si02
#       6
#    32  32  16  32  32  32
#     4  12  26  45  73 108 142 188 242 295 360 440
#     4  11  23  46  72 101 143 190 236 292 359 430
#     4  12  26  46  68 106 144 188 240 292 368 424
#     4  12  26  46  74 104 144 190 238 300 363 432
#     4  11  23  47  75 105 145 191 239 300 368 436
#     4  11  26  43  73 109 143 189 242 300 367 439
#
# _framework density 22.426303000000001
#
# number of rings (size 3 to 8) (size 9 to 14) (size 15 to 20)
#    0.000    0.545    4.545    3.818    2.545    1.455 
#    0.000    2.727    0.000    0.000    0.000    0.000 
#    0.000    0.000    0.000    0.000    0.000    0.000 
#
# Total GULP energy -245917.272489 kJ/mol
# GULP energy per Si atom -5589.028920 kJ/mol
# Density = 2.237526 g / cm^3
# Si number density = 22.426303 Si / 1000 Ang^3
#
#
#
# Elastic Constant Matrix: (Units=GPa)
#
#
# Indices 1 2 3 4 5 6 
#
# 1 158.9975 62.5717 28.7537 0.0000 0.0000 0.0000
# 2 62.5717 100.3644 8.9443 0.0000 0.0000 0.0000
# 3 28.7537 8.9443 45.6011 0.0000 0.0000 0.0000
# 4 0.0000 0.0000 0.0000 4.5780 0.0000 0.0000
# 5 0.0000 0.0000 0.0000 0.0000 32.8561 0.0000
# 6 0.0000 0.0000 0.0000 0.0000 0.0000 -57.2072
#
#
#
# Elastic Compliance Matrix: (Units=1/GPa)
#
#
# Indices 1 2 3 4 5 6 
#
# 1 0.009259 -0.005346 -0.004790 0.000000 0.000000 0.000000
# 2 -0.005346 0.013227 0.000776 0.000000 0.000000 0.000000
# 3 -0.004790 0.000776 0.024797 0.000000 0.000000 0.000000
# 4 0.000000 0.000000 0.000000 0.218437 0.000000 0.000000
# 5 0.000000 0.000000 0.000000 0.000000 0.030436 0.000000
# 6 0.000000 0.000000 0.000000 0.000000 0.000000 -0.017480
#
#
# Mechanical properties :
#
#
# Convention : Reuss Voigt Hill
#
# Bulk Modulus (GPa) = 35.00763 56.16695 45.58729
# Shear Modulus (GPa) = 16.29104 9.69159 12.99131
#
# Velocity S-wave (km/s) = 2.69815 2.08108 2.40945
# Velocity P-wave (km/s) = 5.03494 5.55644 5.30211
#
# Compressibility (1/GPa) = 0.02856520
#
# Stress axis : x y z
#
# Youngs Moduli (GPa) = 107.99757 75.60076 40.32696
#
# Poissons Ratio (x) = 0.40415 0.19317
# Poissons Ratio (y) = 0.57734 -0.03131
# Poissons Ratio (z) = 0.51731 -0.05870
#
# Static dielectric constant tensor:
#      x y z
#    x 1.961560 0.000000 0.000000 
#    y 0.000000 1.853580 0.000000 
#    z 0.000000 0.000000 1.820500 
# 
# From -- ./inp_files/51194.got.cif
#   From: 2010.05.17/outbox.cif.g08.bks.cpg/sg70_26_cif.got.tgz:51194.got - 2010.06.03 15:57:51.
