data_PCOD9516653
_publ_section_title
;
Structure prediction by ZEFSAII (Michael W. Deem and Ramdas Pophale) SiO2 
 PCOD9516653
Probable space group: F D D D
;
_chemical_formula_sum "Si O2"
_cell_formula_units_Z 112
_cell_length_a 13.369373
_cell_length_b 26.391409
_cell_length_c 12.774758
_cell_angle_alpha 90.000000
_cell_angle_beta 90.000000
_cell_angle_gamma 90.000000
_cell_volume 4507.402063
_symmetry_space_group_name_H-M "F D D D"
_symmetry_group_IT_number 70
_space_group.IT_coordinate_system_code '2'
_symmetry_cell_setting 'orthorhombic'
loop_
_space_group_symop_operation_xyz
x,y,z
1/4-x,1/4-y,z
x,1/4-y,1/4-z
1/4-x,y,1/4-z
-x,-y,-z
3/4+x,3/4+y,-z
-x,3/4+y,3/4+z
3/4+x,-y,3/4+z
x,1/2+y,1/2+z
1/4-x,3/4-y,1/2+z
x,3/4-y,3/4-z
1/4-x,1/2+y,3/4-z
-x,1/2-y,1/2-z
3/4+x,1/4+y,1/2-z
-x,1/4+y,1/4+z
3/4+x,1/2-y,1/4+z
1/2+x,y,1/2+z
3/4-x,1/4-y,1/2+z
1/2+x,1/4-y,3/4-z
3/4-x,y,3/4-z
1/2-x,-y,1/2-z
1/4+x,3/4+y,1/2-z
1/2-x,3/4+y,1/4+z
1/4+x,-y,1/4+z
1/2+x,1/2+y,z
3/4-x,3/4-y,z
1/2+x,3/4-y,1/4-z
3/4-x,1/2+y,1/4-z
1/2-x,1/2-y,-z
1/4+x,1/4+y,-z
1/2-x,1/4+y,3/4+z
1/4+x,1/2-y,3/4+z
loop_
_atom_site_type_symbol
_atom_site_label
_atom_site_fract_x
_atom_site_fract_y
_atom_site_fract_z
Si Si1 0.937393 0.125000 0.625000
Si Si2 0.875000 0.375000 0.222719
Si Si3 0.299155 0.807764 0.048337
Si Si4 0.875000 0.457859 0.375000
Si Si5 0.767845 0.221440 0.212372
O O1 0.994602 0.159006 0.710956
O O2 0.905811 0.075597 0.693311
O O3 0.949167 0.404288 0.147471
O O4 0.825479 0.418164 0.294257
O O5 0.410195 0.798263 0.001732
O O6 0.261035 0.756419 0.106846
O O7 0.805501 0.492793 0.444669
#
# Coordination Sequence:
#
# PCOD9516653 Si02
#       5
#    16  16  32  16  32
#     4  12  23  44  66  90 130 181 212 261 336 394
#     4   9  18  39  66  88 120 177 200 263 334 396
#     4  11  22  42  69  93 130 176 221 265 329 399
#     4   9  22  40  64 100 128 164 222 267 326 396
#     4  11  23  41  65  97 128 173 220 272 325 393
#
# _framework density 24.848016000000001
#
# number of rings (size 3 to 8) (size 9 to 14) (size 15 to 20)
#    0.000    1.429    2.857    2.571    0.000    4.571 
#    5.143    2.857    0.000    0.000    0.000    0.000 
#    0.000    0.000    0.000    0.000    0.000    0.000 
#
# Total GULP energy -155998.043748 kJ/mol
# GULP energy per Si atom -5571.358705 kJ/mol
# Density = 2.479146 g / cm^3
# Si number density = 24.848016 Si / 1000 Ang^3
#
#
#
# Elastic Constant Matrix: (Units=GPa)
#
#
# Indices 1 2 3 4 5 6 
#
# 1 38.1540 7.3088 18.8844 0.0000 0.0000 0.0000
# 2 7.3088 194.7166 54.7930 0.0000 0.0000 0.0000
# 3 18.8844 54.7930 150.6794 0.0000 0.0000 0.0000
# 4 0.0000 0.0000 0.0000 46.3103 0.0000 0.0000
# 5 0.0000 0.0000 0.0000 0.0000 2.2107 0.0000
# 6 0.0000 0.0000 0.0000 0.0000 0.0000 3.2878
#
#
#
# Elastic Compliance Matrix: (Units=1/GPa)
#
#
# Indices 1 2 3 4 5 6 
#
# 1 0.027944 -0.000071 -0.003476 0.000000 0.000000 0.000000
# 2 -0.000071 0.005721 -0.002072 0.000000 0.000000 0.000000
# 3 -0.003476 -0.002072 0.007826 0.000000 0.000000 0.000000
# 4 0.000000 0.000000 0.000000 0.021593 0.000000 0.000000
# 5 0.000000 0.000000 0.000000 0.000000 0.452339 0.000000
# 6 0.000000 0.000000 0.000000 0.000000 0.000000 0.304155
#
#
# Mechanical properties :
#
#
# Convention : Reuss Voigt Hill
#
# Bulk Modulus (GPa) = 33.05425 60.61360 46.83392
# Shear Modulus (GPa) = 5.94601 30.53267 18.23934
#
# Velocity S-wave (km/s) = 1.54860 3.50919 2.71225
# Velocity P-wave (km/s) = 4.06558 6.39265 5.35700
#
# Compressibility (1/GPa) = 0.03025329
#
# Stress axis : x y z
#
# Youngs Moduli (GPa) = 35.78608 174.78619 127.78508
#
# Poissons Ratio (x) = 0.01234 0.44424
# Poissons Ratio (y) = 0.00253 0.26472
# Poissons Ratio (z) = 0.12441 0.36209
#
# Static dielectric constant tensor:
#      x y z
#    x 1.972260 0.000000 0.000000 
#    y 0.000000 2.095430 0.000000 
#    z 0.000000 0.000000 2.032790 
# 
# From -- ./inp_files/25229.got.cif
#   From: 2010.05.17/outbox.cif.g08.bks.cpg/sg70_13_cif.got.tgz:25229.got - 2010.06.03 15:57:51.
