data_PCOD9516383
_publ_section_title
;
Structure prediction by ZEFSAII (Michael W. Deem and Ramdas Pophale) SiO2 
 PCOD9516383
Probable space group: F D D D
;
_chemical_formula_sum "Si O2"
_cell_formula_units_Z 176
_cell_length_a 26.379344
_cell_length_b 10.040517
_cell_length_c 29.038370
_cell_angle_alpha 90.000000
_cell_angle_beta 90.000000
_cell_angle_gamma 90.000000
_cell_volume 7691.168069
_symmetry_space_group_name_H-M "F D D D"
_symmetry_group_IT_number 70
_space_group.IT_coordinate_system_code '2'
_symmetry_cell_setting 'orthorhombic'
loop_
_space_group_symop_operation_xyz
x,y,z
1/4-x,1/4-y,z
x,1/4-y,1/4-z
1/4-x,y,1/4-z
-x,-y,-z
3/4+x,3/4+y,-z
-x,3/4+y,3/4+z
3/4+x,-y,3/4+z
x,1/2+y,1/2+z
1/4-x,3/4-y,1/2+z
x,3/4-y,3/4-z
1/4-x,1/2+y,3/4-z
-x,1/2-y,1/2-z
3/4+x,1/4+y,1/2-z
-x,1/4+y,1/4+z
3/4+x,1/2-y,1/4+z
1/2+x,y,1/2+z
3/4-x,1/4-y,1/2+z
1/2+x,1/4-y,3/4-z
3/4-x,y,3/4-z
1/2-x,-y,1/2-z
1/4+x,3/4+y,1/2-z
1/2-x,3/4+y,1/4+z
1/4+x,-y,1/4+z
1/2+x,1/2+y,z
3/4-x,3/4-y,z
1/2+x,3/4-y,1/4-z
3/4-x,1/2+y,1/4-z
1/2-x,1/2-y,-z
1/4+x,1/4+y,-z
1/2-x,1/4+y,3/4+z
1/4+x,1/2-y,3/4+z
loop_
_atom_site_type_symbol
_atom_site_label
_atom_site_fract_x
_atom_site_fract_y
_atom_site_fract_z
Si Si1 0.875000 0.375000 0.875000
Si Si2 0.581730 0.739213 0.784543
Si Si3 0.122513 0.375000 0.875000
Si Si4 0.970377 0.125312 0.454861
Si Si5 0.062763 0.874559 0.099541
Si Si6 0.979966 0.365416 0.521975
Si Si7 0.625000 0.125000 0.625000
Si Si8 0.875000 0.875000 0.072581
O O1 0.907388 0.266652 0.903621
O O2 0.625000 0.625000 0.782531
O O3 0.594832 0.832311 0.827969
O O4 0.574664 0.808559 0.734870
O O5 0.523799 0.700068 0.794776
O O6 0.146778 0.239013 0.892912
O O7 0.953861 0.138621 0.402578
O O8 0.984630 0.258038 0.481958
O O9 0.016079 0.851516 0.065999
O O10 0.093009 0.016827 0.093844
O O11 0.922748 0.354521 0.539673
O O12 0.000000 0.500000 0.500000
#
# Coordination Sequence:
#
# PCOD9516383 Si02
#       8
#     8  32  16  32  32  32   8  16
#     4  10  28  44  82 108 144 204 240 318 384 444
#     4  11  26  45  73 108 149 191 250 310 388 444
#     4  12  24  48  74 108 143 197 246 314 378 448
#     4  11  27  45  75 109 147 194 249 318 371 462
#     4  11  26  49  76 109 152 192 260 308 384 453
#     4  12  29  48  76 113 152 200 256 312 380 461
#     4  10  24  50  72 100 148 212 232 312 374 452
#     4  12  28  47  77 109 152 198 249 317 381 448
#
# _framework density 22.883389000000001
#
# number of rings (size 3 to 8) (size 9 to 14) (size 15 to 20)
#    0.000    0.727    2.727    2.182    8.909    7.273 
#    0.000    0.000    0.000    0.000    0.000    0.000 
#    0.000    0.000    0.000    0.000    0.000    0.000 
#
# Total GULP energy -245443.736198 kJ/mol
# GULP energy per Si atom -5578.266732 kJ/mol
# Density = 2.283131 g / cm^3
# Si number density = 22.883389 Si / 1000 Ang^3
#
#
#
# Elastic Constant Matrix: (Units=GPa)
#
#
# Indices 1 2 3 4 5 6 
#
# 1 84.8147 16.4708 36.0832 0.0000 0.0000 0.0000
# 2 16.4708 96.9558 38.7268 0.0000 0.0000 0.0000
# 3 36.0832 38.7268 154.0083 0.0000 0.0000 0.0000
# 4 0.0000 0.0000 0.0000 28.5032 0.0000 0.0000
# 5 0.0000 0.0000 0.0000 0.0000 -44.2242 0.0000
# 6 0.0000 0.0000 0.0000 0.0000 0.0000 27.0674
#
#
#
# Elastic Compliance Matrix: (Units=1/GPa)
#
#
# Indices 1 2 3 4 5 6 
#
# 1 0.013204 -0.001120 -0.002812 0.000000 0.000000 0.000000
# 2 -0.001120 0.011561 -0.002645 0.000000 0.000000 0.000000
# 3 -0.002812 -0.002645 0.007817 0.000000 0.000000 0.000000
# 4 0.000000 0.000000 0.000000 0.035084 0.000000 0.000000
# 5 0.000000 0.000000 0.000000 0.000000 -0.022612 0.000000
# 6 0.000000 0.000000 0.000000 0.000000 0.000000 0.036945
#
#
# Mechanical properties :
#
#
# Convention : Reuss Voigt Hill
#
# Bulk Modulus (GPa) = 51.47042 57.59337 54.53190
# Shear Modulus (GPa) = 49.19914 18.56914 33.88414
#
# Velocity S-wave (km/s) = 4.64183 2.85172 3.85220
# Velocity P-wave (km/s) = 7.16032 6.00549 6.60818
#
# Compressibility (1/GPa) = 0.01942863
#
# Stress axis : x y z
#
# Youngs Moduli (GPa) = 75.73320 86.50102 127.92595
#
# Poissons Ratio (x) = 0.09687 0.35974
# Poissons Ratio (y) = 0.08481 0.33832
# Poissons Ratio (z) = 0.21297 0.22876
#
# Static dielectric constant tensor:
#      x y z
#    x 2.302310 0.000000 0.000000 
#    y 0.000000 1.959360 0.000000 
#    z 0.000000 0.000000 1.829750 
# 
# From -- ./inp_files/67843.got.cif
#   From: 2010.05.17/outbox.cif.g08.bks.cpg/sg70_34_cif.got.tgz:67843.got - 2010.06.03 15:57:51.
