data_PCOD9516144
_publ_section_title
;
Structure prediction by ZEFSAII (Michael W. Deem and Ramdas Pophale) SiO2 
 PCOD9516144
Probable space group: F D D D
;
_chemical_formula_sum "Si O2"
_cell_formula_units_Z 216
_cell_length_a 13.547304
_cell_length_b 22.614034
_cell_length_c 30.580615
_cell_angle_alpha 90.000000
_cell_angle_beta 90.000000
_cell_angle_gamma 90.000000
_cell_volume 9368.652541
_symmetry_space_group_name_H-M "F D D D"
_symmetry_group_IT_number 70
_space_group.IT_coordinate_system_code '2'
_symmetry_cell_setting 'orthorhombic'
loop_
_space_group_symop_operation_xyz
x,y,z
1/4-x,1/4-y,z
x,1/4-y,1/4-z
1/4-x,y,1/4-z
-x,-y,-z
3/4+x,3/4+y,-z
-x,3/4+y,3/4+z
3/4+x,-y,3/4+z
x,1/2+y,1/2+z
1/4-x,3/4-y,1/2+z
x,3/4-y,3/4-z
1/4-x,1/2+y,3/4-z
-x,1/2-y,1/2-z
3/4+x,1/4+y,1/2-z
-x,1/4+y,1/4+z
3/4+x,1/2-y,1/4+z
1/2+x,y,1/2+z
3/4-x,1/4-y,1/2+z
1/2+x,1/4-y,3/4-z
3/4-x,y,3/4-z
1/2-x,-y,1/2-z
1/4+x,3/4+y,1/2-z
1/2-x,3/4+y,1/4+z
1/4+x,-y,1/4+z
1/2+x,1/2+y,z
3/4-x,3/4-y,z
1/2+x,3/4-y,1/4-z
3/4-x,1/2+y,1/4-z
1/2-x,1/2-y,-z
1/4+x,1/4+y,-z
1/2-x,1/4+y,3/4+z
1/4+x,1/2-y,3/4+z
loop_
_atom_site_type_symbol
_atom_site_label
_atom_site_fract_x
_atom_site_fract_y
_atom_site_fract_z
Si Si1 0.367750 0.519056 0.658608
Si Si2 0.713398 0.458065 0.432580
Si Si3 0.490307 0.084661 0.873785
Si Si4 0.259901 0.677579 0.455682
Si Si5 0.975589 0.617222 0.052918
Si Si6 0.625000 0.625000 0.625000
Si Si7 0.125000 0.625000 0.719892
Si Si8 0.243089 0.411885 0.540231
O O1 0.301417 0.543065 0.619348
O O2 0.439861 0.469653 0.638029
O O3 0.295159 0.487726 0.692793
O O4 0.433044 0.570815 0.678825
O O5 0.618310 0.424855 0.451819
O O6 0.814515 0.424612 0.443947
O O7 0.709393 0.524888 0.449961
O O8 0.375000 0.066762 0.875000
O O9 0.504491 0.132969 0.835369
O O10 0.510565 0.117310 0.919584
O O11 0.206130 0.653086 0.498088
O O12 0.376596 0.678316 0.461811
O O13 0.051798 0.593610 0.089906
O O14 0.018391 0.631317 0.005464
#
# Coordination Sequence:
#
# PCOD9516144 Si02
#       8
#    32  32  32  32  32   8  16  32
#     4  12  24  45  73 103 148 200 241 314 375 463
#     4  12  27  47  72 111 155 193 251 312 386 453
#     4  10  23  42  74 109 139 188 255 312 372 443
#     4  11  22  45  74 108 152 193 250 301 389 451
#     4  12  28  51  74 108 150 199 265 303 395 462
#     4  12  28  56  70  98 148 216 238 324 380 472
#     4  12  24  44  76 108 152 200 237 311 378 466
#     4  11  26  47  76 113 148 194 257 325 367 457
#
# _framework density 23.055609
#
# number of rings (size 3 to 8) (size 9 to 14) (size 15 to 20)
#    0.000    0.593    5.926    0.889    3.111    2.370 
#    2.667    1.481    0.000    0.000    0.000    0.000 
#    0.000    0.000    0.000    0.000    0.000    0.000 
#
# Total GULP energy -302584.178238 kJ/mol
# GULP energy per Si atom -5603.410708 kJ/mol
# Density = 2.300313 g / cm^3
# Si number density = 23.055609 Si / 1000 Ang^3
#
#
#
# Elastic Constant Matrix: (Units=GPa)
#
#
# Indices 1 2 3 4 5 6 
#
# 1 140.7305 49.2463 32.9923 0.0000 0.0000 0.0000
# 2 49.2463 100.2523 51.8305 0.0000 0.0000 0.0000
# 3 32.9923 51.8305 119.9373 0.0000 0.0000 0.0000
# 4 0.0000 0.0000 0.0000 28.6784 0.0000 0.0000
# 5 0.0000 0.0000 0.0000 0.0000 63.4140 0.0000
# 6 0.0000 0.0000 0.0000 0.0000 0.0000 45.6482
#
#
#
# Elastic Compliance Matrix: (Units=1/GPa)
#
#
# Indices 1 2 3 4 5 6 
#
# 1 0.008626 -0.003877 -0.000698 0.000000 0.000000 0.000000
# 2 -0.003877 0.014587 -0.005237 0.000000 0.000000 0.000000
# 3 -0.000698 -0.005237 0.010793 0.000000 0.000000 0.000000
# 4 0.000000 0.000000 0.000000 0.034869 0.000000 0.000000
# 5 0.000000 0.000000 0.000000 0.000000 0.015769 0.000000
# 6 0.000000 0.000000 0.000000 0.000000 0.000000 0.021907
#
#
# Mechanical properties :
#
#
# Convention : Reuss Voigt Hill
#
# Bulk Modulus (GPa) = 69.52805 69.89536 69.71171
# Shear Modulus (GPa) = 38.17727 42.67152 40.42439
#
# Velocity S-wave (km/s) = 4.07366 4.30677 4.19184
# Velocity P-wave (km/s) = 7.23522 7.42380 7.33012
#
# Compressibility (1/GPa) = 0.01438268
#
# Stress axis : x y z
#
# Youngs Moduli (GPa) = 115.93047 68.55520 92.65414
#
# Poissons Ratio (x) = 0.26576 0.06463
# Poissons Ratio (y) = 0.44942 0.48525
# Poissons Ratio (z) = 0.08087 0.35904
#
# Static dielectric constant tensor:
#      x y z
#    x 1.893260 0.000000 0.000000 
#    y 0.000000 1.846660 0.000000 
#    z 0.000000 0.000000 1.861350 
# 
# From -- ./inp_files/65987.got.cif
#   From: 2010.05.17/outbox.cif.g08.bks.cpg/sg70_33_cif.got.tgz:65987.got - 2010.06.03 15:57:51.
