data_PCOD9516160
_publ_section_title
;
Structure prediction by ZEFSAII (Michael W. Deem and Ramdas Pophale) SiO2 
 PCOD9516160
Probable space group: F D D D
;
_chemical_formula_sum "Si O2"
_cell_formula_units_Z 88
_cell_length_a 33.850704
_cell_length_b 4.951551
_cell_length_c 24.970477
_cell_angle_alpha 90.000000
_cell_angle_beta 90.000000
_cell_angle_gamma 90.000000
_cell_volume 4185.388728
_symmetry_space_group_name_H-M "F D D D"
_symmetry_group_IT_number 70
_space_group.IT_coordinate_system_code '2'
_symmetry_cell_setting 'orthorhombic'
loop_
_space_group_symop_operation_xyz
x,y,z
1/4-x,1/4-y,z
x,1/4-y,1/4-z
1/4-x,y,1/4-z
-x,-y,-z
3/4+x,3/4+y,-z
-x,3/4+y,3/4+z
3/4+x,-y,3/4+z
x,1/2+y,1/2+z
1/4-x,3/4-y,1/2+z
x,3/4-y,3/4-z
1/4-x,1/2+y,3/4-z
-x,1/2-y,1/2-z
3/4+x,1/4+y,1/2-z
-x,1/4+y,1/4+z
3/4+x,1/2-y,1/4+z
1/2+x,y,1/2+z
3/4-x,1/4-y,1/2+z
1/2+x,1/4-y,3/4-z
3/4-x,y,3/4-z
1/2-x,-y,1/2-z
1/4+x,3/4+y,1/2-z
1/2-x,3/4+y,1/4+z
1/4+x,-y,1/4+z
1/2+x,1/2+y,z
3/4-x,3/4-y,z
1/2+x,3/4-y,1/4-z
3/4-x,1/2+y,1/4-z
1/2-x,1/2-y,-z
1/4+x,1/4+y,-z
1/2-x,1/4+y,3/4+z
1/4+x,1/2-y,3/4+z
loop_
_atom_site_type_symbol
_atom_site_label
_atom_site_fract_x
_atom_site_fract_y
_atom_site_fract_z
Si Si1 0.277215 0.002352 0.984720
Si Si2 0.125000 0.625000 0.625000
Si Si3 0.568494 0.125000 0.125000
Si Si4 0.904110 0.621812 0.683067
O O1 0.292010 0.977191 0.924008
O O2 0.250000 0.750000 0.000000
O O3 0.250000 0.250000 0.000000
O O4 0.316220 0.050508 0.020034
O O5 0.094146 0.388609 0.646035
O O6 0.925566 0.625000 0.625000
O O7 0.875000 0.375000 0.676763
O O8 0.875000 0.875000 0.693462
#
# Coordination Sequence:
#
# PCOD9516160 Si02
#       4
#    32   8  16  32
#     4  12  27  43  70 100 143 181 227 293 356 430
#     4  10  24  46  72  98 140 176 240 308 332 456
#     4  11  26  44  72 104 136 191 238 293 372 416
#     4  10  23  43  69  97 130 177 231 283 338 409
#
# _framework density 21.025525999999999
#
# number of rings (size 3 to 8) (size 9 to 14) (size 15 to 20)
#    0.000    1.091    0.000    4.364   12.727    0.000 
#    0.000    0.000    0.000    0.000    0.000    0.000 
#    0.000    0.000    0.000    0.000    0.000    0.000 
#
# Total GULP energy -122515.768221 kJ/mol
# GULP energy per Si atom -5568.898555 kJ/mol
# Density = 2.097767 g / cm^3
# Si number density = 21.025526 Si / 1000 Ang^3
#
#
#
# Elastic Constant Matrix: (Units=GPa)
#
#
# Indices 1 2 3 4 5 6 
#
# 1 69.9966 23.3574 66.1330 0.0005 -0.0004 -0.1342
# 2 23.3574 171.6527 21.6217 0.0134 0.0039 0.1028
# 3 66.1330 21.6217 179.5394 0.0005 0.0010 0.0183
# 4 0.0005 0.0134 0.0005 24.9693 0.0015 0.0182
# 5 -0.0004 0.0039 0.0010 0.0015 -0.0446 0.1309
# 6 -0.1342 0.1028 0.0183 0.0182 0.1309 812.7409
#
#
#
# Elastic Compliance Matrix: (Units=1/GPa)
#
#
# Indices 1 2 3 4 5 6 
#
# 1 0.022607 -0.002058 -0.008079 0.000001 -0.000558 0.000004
# 2 -0.002058 0.006103 0.000023 -0.000003 0.000546 -0.000001
# 3 -0.008079 0.000023 0.008543 0.000000 0.000260 -0.000002
# 4 0.000001 -0.000003 0.000000 0.040049 0.001301 -0.000001
# 5 -0.000558 0.000546 0.000260 0.001301-22.399209 0.003606
# 6 0.000004 -0.000001 -0.000002 -0.000001 0.003606 0.001230
#
#
# Mechanical properties :
#
#
# Convention : Reuss Voigt Hill
#
# Bulk Modulus (GPa) = 58.74195 71.49033 65.11614
# Shear Modulus (GPa) = -0.22427 188.20487 93.99030
#
# Velocity S-wave (km/s) = -0.32695 9.47137 6.69328
# Velocity P-wave (km/s) = 5.27793 12.39696 9.52736
#
# Compressibility (1/GPa) = 0.01702361
#
# Stress axis : x y z
#
# Youngs Moduli (GPa) = 44.23503 163.85716 117.05553
#
# Poissons Ratio (x) = 0.33729 0.94571
# Poissons Ratio (y) = 0.09106 -0.00272
# Poissons Ratio (z) = 0.35738 -0.00381
#
# Static dielectric constant tensor:
#      x y z
#    x 2.714840 -0.000070 -0.018220 
#    y -0.000070 1.732020 -0.000660 
#    z -0.018220 -0.000660 11.771670 
# 
# From -- ./inp_files/54633.got.cif
#   From: 2010.05.17/outbox.cif.g08.bks.cpg/sg70_28_cif.got.tgz:54633.got - 2010.06.03 15:57:51.
