data_PCOD9516437
_publ_section_title
;
Structure prediction by ZEFSAII (Michael W. Deem and Ramdas Pophale) SiO2 
 PCOD9516437
Probable space group: F D D D
;
_chemical_formula_sum "Si O2"
_cell_formula_units_Z 160
_cell_length_a 9.592556
_cell_length_b 28.695216
_cell_length_c 26.184547
_cell_angle_alpha 90.000000
_cell_angle_beta 90.000000
_cell_angle_gamma 90.000000
_cell_volume 7207.570620
_symmetry_space_group_name_H-M "F D D D"
_symmetry_group_IT_number 70
_space_group.IT_coordinate_system_code '2'
_symmetry_cell_setting 'orthorhombic'
loop_
_space_group_symop_operation_xyz
x,y,z
1/4-x,1/4-y,z
x,1/4-y,1/4-z
1/4-x,y,1/4-z
-x,-y,-z
3/4+x,3/4+y,-z
-x,3/4+y,3/4+z
3/4+x,-y,3/4+z
x,1/2+y,1/2+z
1/4-x,3/4-y,1/2+z
x,3/4-y,3/4-z
1/4-x,1/2+y,3/4-z
-x,1/2-y,1/2-z
3/4+x,1/4+y,1/2-z
-x,1/4+y,1/4+z
3/4+x,1/2-y,1/4+z
1/2+x,y,1/2+z
3/4-x,1/4-y,1/2+z
1/2+x,1/4-y,3/4-z
3/4-x,y,3/4-z
1/2-x,-y,1/2-z
1/4+x,3/4+y,1/2-z
1/2-x,3/4+y,1/4+z
1/4+x,-y,1/4+z
1/2+x,1/2+y,z
3/4-x,3/4-y,z
1/2+x,3/4-y,1/4-z
3/4-x,1/2+y,1/4-z
1/2-x,1/2-y,-z
1/4+x,1/4+y,-z
1/2-x,1/4+y,3/4+z
1/4+x,1/2-y,3/4+z
loop_
_atom_site_type_symbol
_atom_site_label
_atom_site_fract_x
_atom_site_fract_y
_atom_site_fract_z
Si Si1 0.375000 0.875000 0.375000
Si Si2 0.928588 0.636186 0.037781
Si Si3 0.705239 0.702485 0.878646
Si Si4 0.685363 0.298806 0.321223
Si Si5 0.625000 0.625000 0.445090
Si Si6 0.068438 0.550145 0.496761
Si Si7 0.125000 0.625000 0.125000
O O1 0.479675 0.910700 0.349187
O O2 0.937527 0.580151 0.048840
O O3 0.019930 0.653327 0.086487
O O4 0.779986 0.662424 0.027301
O O5 0.002435 0.639967 0.983317
O O6 0.672928 0.754774 0.858061
O O7 0.616350 0.668856 0.842353
O O8 0.669090 0.689800 0.936900
O O9 0.875000 0.696989 0.875000
O O10 0.783837 0.290352 0.272786
O O11 0.000000 0.500000 0.500000
#
# Coordination Sequence:
#
# PCOD9516437 Si02
#       7
#     8  32  32  32  16  32   8
#     4  12  18  34  68 108 130 160 220 292 350 376
#     4  11  24  44  68  99 135 183 231 279 350 417
#     4  12  25  43  68  99 140 178 230 285 343 408
#     4  12  24  41  72 107 133 177 231 295 344 415
#     4  11  26  46  66  90 142 194 222 279 342 414
#     4  12  23  41  71 104 137 174 225 292 349 409
#     4  10  26  40  66  94 138 186 228 288 340 406
#
# _framework density 22.198879999999999
#
# number of rings (size 3 to 8) (size 9 to 14) (size 15 to 20)
#    0.000    0.400    7.000    0.600    5.600    0.800 
#    0.000    0.000    2.200    0.000    0.000    0.000 
#    0.000    0.000    0.000    0.000    0.000    0.000 
#
# Total GULP energy -222806.618467 kJ/mol
# GULP energy per Si atom -5570.165462 kJ/mol
# Density = 2.214835 g / cm^3
# Si number density = 22.198880 Si / 1000 Ang^3
#
#
#
# Elastic Constant Matrix: (Units=GPa)
#
#
# Indices 1 2 3 4 5 6 
#
# 1 37.4632 1.1158 12.0955 0.0000 0.0000 0.0000
# 2 1.1158 116.6592 36.3006 0.0000 0.0000 0.0000
# 3 12.0955 36.3006 160.7789 0.0000 0.0000 0.0000
# 4 0.0000 0.0000 0.0000 35.7895 0.0000 0.0000
# 5 0.0000 0.0000 0.0000 0.0000 -7.1253 0.0000
# 6 0.0000 0.0000 0.0000 0.0000 0.0000 36.4546
#
#
#
# Elastic Compliance Matrix: (Units=1/GPa)
#
#
# Indices 1 2 3 4 5 6 
#
# 1 0.027375 0.000408 -0.002152 0.000000 0.000000 0.000000
# 2 0.000408 0.009226 -0.002114 0.000000 0.000000 0.000000
# 3 -0.002152 -0.002114 0.006859 0.000000 0.000000 0.000000
# 4 0.000000 0.000000 0.000000 0.027941 0.000000 0.000000
# 5 0.000000 0.000000 0.000000 0.000000 -0.140345 0.000000
# 6 0.000000 0.000000 0.000000 0.000000 0.000000 0.027431
#
#
# Mechanical properties :
#
#
# Convention : Reuss Voigt Hill
#
# Bulk Modulus (GPa) = 27.97599 45.99167 36.98383
# Shear Modulus (GPa) = -228.49383 30.71639 -98.88872
#
# Velocity S-wave (km/s) = -10.15647 3.72384 -6.68157
# Velocity P-wave (km/s) = 11.17625 6.26516 6.54432
#
# Compressibility (1/GPa) = 0.03574494
#
# Stress axis : x y z
#
# Youngs Moduli (GPa) = 36.52914 108.39190 145.79800
#
# Poissons Ratio (x) = -0.04419 0.31369
# Poissons Ratio (y) = -0.01489 0.30817
# Poissons Ratio (z) = 0.07859 0.22910
#
# Static dielectric constant tensor:
#      x y z
#    x 2.055520 0.000000 0.000000 
#    y 0.000000 1.725600 0.000000 
#    z 0.000000 0.000000 1.175410 
# 
# From -- ./inp_files/57579.got.cif
#   From: 2010.05.17/outbox.cif.g08.bks.cpg/sg70_29_cif.got.tgz:57579.got - 2010.06.03 15:57:51.
