data_PCOD9516355
_publ_section_title
;
Structure prediction by ZEFSAII (Michael W. Deem and Ramdas Pophale) SiO2 
 PCOD9516355
Probable space group: F D D D
;
_chemical_formula_sum "Si O2"
_cell_formula_units_Z 104
_cell_length_a 22.700298
_cell_length_b 16.728030
_cell_length_c 10.973194
_cell_angle_alpha 90.000000
_cell_angle_beta 90.000000
_cell_angle_gamma 90.000000
_cell_volume 4166.864849
_symmetry_space_group_name_H-M "F D D D"
_symmetry_group_IT_number 70
_space_group.IT_coordinate_system_code '2'
_symmetry_cell_setting 'orthorhombic'
loop_
_space_group_symop_operation_xyz
x,y,z
1/4-x,1/4-y,z
x,1/4-y,1/4-z
1/4-x,y,1/4-z
-x,-y,-z
3/4+x,3/4+y,-z
-x,3/4+y,3/4+z
3/4+x,-y,3/4+z
x,1/2+y,1/2+z
1/4-x,3/4-y,1/2+z
x,3/4-y,3/4-z
1/4-x,1/2+y,3/4-z
-x,1/2-y,1/2-z
3/4+x,1/4+y,1/2-z
-x,1/4+y,1/4+z
3/4+x,1/2-y,1/4+z
1/2+x,y,1/2+z
3/4-x,1/4-y,1/2+z
1/2+x,1/4-y,3/4-z
3/4-x,y,3/4-z
1/2-x,-y,1/2-z
1/4+x,3/4+y,1/2-z
1/2-x,3/4+y,1/4+z
1/4+x,-y,1/4+z
1/2+x,1/2+y,z
3/4-x,3/4-y,z
1/2+x,3/4-y,1/4-z
3/4-x,1/2+y,1/4-z
1/2-x,1/2-y,-z
1/4+x,1/4+y,-z
1/2-x,1/4+y,3/4+z
1/4+x,1/2-y,3/4+z
loop_
_atom_site_type_symbol
_atom_site_label
_atom_site_fract_x
_atom_site_fract_y
_atom_site_fract_z
Si Si1 0.175803 0.506972 0.796608
Si Si2 0.375000 0.375000 0.375000
Si Si3 0.375000 0.110913 0.375000
Si Si4 0.181887 0.995878 0.785402
Si Si5 0.741540 0.125000 0.625000
O O1 0.173611 0.445380 0.684577
O O2 0.108112 0.507684 0.843072
O O3 0.216093 0.454694 0.893060
O O4 0.201652 0.589151 0.737676
O O5 0.337627 0.428603 0.289844
O O6 0.405553 0.166056 0.274700
O O7 0.250000 0.000000 0.750000
#
# Coordination Sequence:
#
# PCOD9516355 Si02
#       5
#    32   8  16  32  16
#     4  11  24  48  75 123 151 211 258 339 407 476
#     4  10  28  46  68 112 134 202 268 294 414 466
#     4  11  24  44  74 115 148 204 262 311 410 470
#     4  11  26  49  75 107 161 203 262 331 399 492
#     4  10  24  46  82 116 163 191 272 332 406 496
#
# _framework density 24.958812999999999
#
# number of rings (size 3 to 8) (size 9 to 14) (size 15 to 20)
#    0.000    1.231    3.077    0.000    4.308   10.462 
#    0.000    0.000    0.000    0.000    0.000    0.000 
#    0.000    0.000    0.000    0.000    0.000    0.000 
#
# Total GULP energy -144748.639564 kJ/mol
# GULP energy per Si atom -5567.255368 kJ/mol
# Density = 2.490201 g / cm^3
# Si number density = 24.958813 Si / 1000 Ang^3
#
#
#
# Elastic Constant Matrix: (Units=GPa)
#
#
# Indices 1 2 3 4 5 6 
#
# 1 207.0015 72.7766 56.1505 0.0000 0.0000 0.0000
# 2 72.7766 165.7483 58.0329 0.0000 0.0000 0.0000
# 3 56.1505 58.0329 84.2189 0.0000 0.0000 0.0000
# 4 0.0000 0.0000 0.0000 68.2069 0.0000 0.0000
# 5 0.0000 0.0000 0.0000 0.0000 36.8242 0.0000
# 6 0.0000 0.0000 0.0000 0.0000 0.0000 -444.5098
#
#
#
# Elastic Compliance Matrix: (Units=1/GPa)
#
#
# Indices 1 2 3 4 5 6 
#
# 1 0.006237 -0.001690 -0.002994 0.000000 0.000000 0.000000
# 2 -0.001690 0.008410 -0.004668 0.000000 0.000000 0.000000
# 3 -0.002994 -0.004668 0.017086 0.000000 0.000000 0.000000
# 4 0.000000 0.000000 0.000000 0.014661 0.000000 0.000000
# 5 0.000000 0.000000 0.000000 0.000000 0.027156 0.000000
# 6 0.000000 0.000000 0.000000 0.000000 0.000000 -0.002250
#
#
# Mechanical properties :
#
#
# Convention : Reuss Voigt Hill
#
# Bulk Modulus (GPa) = 76.75010 92.32096 84.53553
# Shear Modulus (GPa) = 52.99510 -49.89518 1.54996
#
# Velocity S-wave (km/s) = 4.61293 -4.47598 0.78889
# Velocity P-wave (km/s) = 7.69348 3.21824 5.89689
#
# Compressibility (1/GPa) = 0.01302930
#
# Stress axis : x y z
#
# Youngs Moduli (GPa) = 160.32665 118.90786 58.52645
#
# Poissons Ratio (x) = 0.20101 0.17521
# Poissons Ratio (y) = 0.27103 0.27320
# Poissons Ratio (z) = 0.47996 0.55505
#
# Static dielectric constant tensor:
#      x y z
#    x 2.024620 0.000000 0.000000 
#    y 0.000000 1.963240 0.000000 
#    z 0.000000 0.000000 2.288500 
# 
# From -- ./inp_files/27118.got.cif
#   From: 2010.05.17/outbox.cif.g08.bks.cpg/sg70_14_cif.got.tgz:27118.got - 2010.06.03 15:57:51.
