data_PCOD9516635
_publ_section_title
;
Structure prediction by ZEFSAII (Michael W. Deem and Ramdas Pophale) SiO2 
 PCOD9516635
Probable space group: F D D D
;
_chemical_formula_sum "Si O2"
_cell_formula_units_Z 192
_cell_length_a 16.868812
_cell_length_b 32.521874
_cell_length_c 16.458001
_cell_angle_alpha 90.000000
_cell_angle_beta 90.000000
_cell_angle_gamma 90.000000
_cell_volume 9028.947866
_symmetry_space_group_name_H-M "F D D D"
_symmetry_group_IT_number 70
_space_group.IT_coordinate_system_code '2'
_symmetry_cell_setting 'orthorhombic'
loop_
_space_group_symop_operation_xyz
x,y,z
1/4-x,1/4-y,z
x,1/4-y,1/4-z
1/4-x,y,1/4-z
-x,-y,-z
3/4+x,3/4+y,-z
-x,3/4+y,3/4+z
3/4+x,-y,3/4+z
x,1/2+y,1/2+z
1/4-x,3/4-y,1/2+z
x,3/4-y,3/4-z
1/4-x,1/2+y,3/4-z
-x,1/2-y,1/2-z
3/4+x,1/4+y,1/2-z
-x,1/4+y,1/4+z
3/4+x,1/2-y,1/4+z
1/2+x,y,1/2+z
3/4-x,1/4-y,1/2+z
1/2+x,1/4-y,3/4-z
3/4-x,y,3/4-z
1/2-x,-y,1/2-z
1/4+x,3/4+y,1/2-z
1/2-x,3/4+y,1/4+z
1/4+x,-y,1/4+z
1/2+x,1/2+y,z
3/4-x,3/4-y,z
1/2+x,3/4-y,1/4-z
3/4-x,1/2+y,1/4-z
1/2-x,1/2-y,-z
1/4+x,1/4+y,-z
1/2-x,1/4+y,3/4+z
1/4+x,1/2-y,3/4+z
loop_
_atom_site_type_symbol
_atom_site_label
_atom_site_fract_x
_atom_site_fract_y
_atom_site_fract_z
Si Si1 0.929253 0.585083 0.010716
Si Si2 0.299446 0.125000 0.125000
Si Si3 0.701939 0.551177 0.178719
Si Si4 0.320848 0.479143 0.640562
Si Si5 0.471616 0.528978 0.645756
Si Si6 0.125000 0.978556 0.625000
Si Si7 0.053287 0.424173 0.691191
O O1 0.853308 0.598742 0.064016
O O2 0.984911 0.563980 0.077965
O O3 0.908508 0.550943 0.944846
O O4 0.955558 0.626709 0.966171
O O5 0.247751 0.094130 0.178711
O O6 0.625000 0.555860 0.125000
O O7 0.676156 0.535855 0.266670
O O8 0.759433 0.517116 0.139591
O O9 0.406149 0.496173 0.614650
O O10 0.278307 0.442627 0.592787
O O11 0.553782 0.506008 0.660492
O O12 0.433217 0.549886 0.725936
O O13 0.125000 0.429133 0.625000
#
# Coordination Sequence:
#
# PCOD9516635 Si02
#       7
#    32  16  32  32  32  16  32
#     4  12  24  47  73 100 140 192 238 295 359 423
#     4  12  23  42  68 103 146 188 228 293 366 422
#     4  11  23  39  65 106 148 183 226 280 354 435
#     4  11  22  40  69 103 140 183 234 287 346 428
#     4  12  25  49  72 104 140 191 244 296 361 430
#     4  12  30  48  75  98 142 194 250 297 352 436
#     4  12  23  43  76 108 143 186 235 296 366 436
#
# _framework density 21.264935000000001
#
# number of rings (size 3 to 8) (size 9 to 14) (size 15 to 20)
#    0.000    0.333    4.167    6.250    2.333    0.000 
#    0.000    4.167    0.000    0.000    0.000    0.000 
#    0.000    0.000    0.000    0.000    0.000    0.000 
#
# Total GULP energy -268618.992451 kJ/mol
# GULP energy per Si atom -5596.229009 kJ/mol
# Density = 2.121654 g / cm^3
# Si number density = 21.264935 Si / 1000 Ang^3
#
#
#
# Elastic Constant Matrix: (Units=GPa)
#
#
# Indices 1 2 3 4 5 6 
#
# 1 61.2264 38.0407 8.1438 0.0000 0.0000 0.0000
# 2 38.0407 131.2688 41.3048 0.0000 0.0000 0.0000
# 3 8.1438 41.3048 70.2717 0.0000 0.0000 0.0000
# 4 0.0000 0.0000 0.0000 61.9960 0.0000 0.0000
# 5 0.0000 0.0000 0.0000 0.0000 9.0985 0.0000
# 6 0.0000 0.0000 0.0000 0.0000 0.0000 8.9499
#
#
#
# Elastic Compliance Matrix: (Units=1/GPa)
#
#
# Indices 1 2 3 4 5 6 
#
# 1 0.020021 -0.006223 0.001337 0.000000 0.000000 0.000000
# 2 -0.006223 0.011281 -0.005910 0.000000 0.000000 0.000000
# 3 0.001337 -0.005910 0.017549 0.000000 0.000000 0.000000
# 4 0.000000 0.000000 0.000000 0.016130 0.000000 0.000000
# 5 0.000000 0.000000 0.000000 0.000000 0.109908 0.000000
# 6 0.000000 0.000000 0.000000 0.000000 0.000000 0.111733
#
#
# Mechanical properties :
#
#
# Convention : Reuss Voigt Hill
#
# Bulk Modulus (GPa) = 36.68215 48.63837 42.66026
# Shear Modulus (GPa) = 15.75801 27.69405 21.72603
#
# Velocity S-wave (km/s) = 2.72514 3.61270 3.19985
# Velocity P-wave (km/s) = 5.21435 6.35015 5.81007
#
# Compressibility (1/GPa) = 0.02726122
#
# Stress axis : x y z
#
# Youngs Moduli (GPa) = 49.94689 88.64636 56.98317
#
# Poissons Ratio (x) = 0.55163 -0.07621
# Poissons Ratio (y) = 0.31081 0.33674
# Poissons Ratio (z) = -0.06680 0.52386
#
# Static dielectric constant tensor:
#      x y z
#    x 1.739250 0.000000 0.000000 
#    y 0.000000 1.766970 0.000000 
#    z 0.000000 0.000000 1.790030 
# 
# From -- ./inp_files/35537.got.cif
#   From: 2010.05.17/outbox.cif.g08.bks.cpg/sg70_18_cif.got.tgz:35537.got - 2010.06.03 15:57:51.
