data_PCOD9516743
_publ_section_title
;
Structure prediction by ZEFSAII (Michael W. Deem and Ramdas Pophale) SiO2 
 PCOD9516743
Probable space group: F D D D
;
_chemical_formula_sum "Si O2"
_cell_formula_units_Z 216
_cell_length_a 28.529948
_cell_length_b 14.789516
_cell_length_c 21.541594
_cell_angle_alpha 90.000000
_cell_angle_beta 90.000000
_cell_angle_gamma 90.000000
_cell_volume 9089.348976
_symmetry_space_group_name_H-M "F D D D"
_symmetry_group_IT_number 70
_space_group.IT_coordinate_system_code '2'
_symmetry_cell_setting 'orthorhombic'
loop_
_space_group_symop_operation_xyz
x,y,z
1/4-x,1/4-y,z
x,1/4-y,1/4-z
1/4-x,y,1/4-z
-x,-y,-z
3/4+x,3/4+y,-z
-x,3/4+y,3/4+z
3/4+x,-y,3/4+z
x,1/2+y,1/2+z
1/4-x,3/4-y,1/2+z
x,3/4-y,3/4-z
1/4-x,1/2+y,3/4-z
-x,1/2-y,1/2-z
3/4+x,1/4+y,1/2-z
-x,1/4+y,1/4+z
3/4+x,1/2-y,1/4+z
1/2+x,y,1/2+z
3/4-x,1/4-y,1/2+z
1/2+x,1/4-y,3/4-z
3/4-x,y,3/4-z
1/2-x,-y,1/2-z
1/4+x,3/4+y,1/2-z
1/2-x,3/4+y,1/4+z
1/4+x,-y,1/4+z
1/2+x,1/2+y,z
3/4-x,3/4-y,z
1/2+x,3/4-y,1/4-z
3/4-x,1/2+y,1/4-z
1/2-x,1/2-y,-z
1/4+x,1/4+y,-z
1/2-x,1/4+y,3/4+z
1/4+x,1/2-y,3/4+z
loop_
_atom_site_type_symbol
_atom_site_label
_atom_site_fract_x
_atom_site_fract_y
_atom_site_fract_z
Si Si1 0.070979 0.598561 0.026616
Si Si2 0.235404 0.592933 0.906633
Si Si3 0.499003 0.125000 0.125000
Si Si4 0.319028 0.258199 0.776289
Si Si5 0.423132 0.178493 0.223743
Si Si6 0.875000 0.375000 0.375000
Si Si7 0.328276 0.692373 0.675802
Si Si8 0.496668 0.605664 0.979468
O O1 0.125000 0.625000 0.038579
O O2 0.036597 0.654841 0.072276
O O3 0.049267 0.612465 0.957404
O O4 0.061642 0.489696 0.033031
O O5 0.276226 0.548230 0.945966
O O6 0.202091 0.511054 0.885333
O O7 0.259470 0.625901 0.843636
O O8 0.462151 0.177739 0.169597
O O9 0.341712 0.176021 0.737430
O O10 0.347176 0.306683 0.830504
O O11 0.295637 0.341859 0.740845
O O12 0.375151 0.229491 0.206124
O O13 0.347274 0.625000 0.625000
O O14 0.293818 0.650004 0.727561
O O15 0.500000 0.500000 0.000000
#
# Coordination Sequence:
#
# PCOD9516743 Si02
#       8
#    32  32  16  32  32   8  32  32
#     4  12  27  52  77 110 150 197 253 314 374 457
#     4  11  24  46  73 106 143 199 253 308 381 449
#     4  12  27  50  75 110 146 193 246 305 384 434
#     4  11  28  46  70 111 150 196 248 315 379 453
#     4  12  27  47  74 108 152 194 247 315 376 453
#     4  12  28  52  70 108 162 190 252 310 384 460
#     4  11  23  42  70 106 146 195 254 308 373 453
#     4  11  24  43  74 101 144 201 249 308 377 448
#
# _framework density 23.764078999999999
#
# number of rings (size 3 to 8) (size 9 to 14) (size 15 to 20)
#    0.000    0.593    5.185    1.556    8.296    0.000 
#    4.000    0.000    0.000    0.000    0.000    0.000 
#    0.000    0.000    0.000    0.000    0.000    0.000 
#
# Total GULP energy -300684.412584 kJ/mol
# GULP energy per Si atom -5568.229863 kJ/mol
# Density = 2.370999 g / cm^3
# Si number density = 23.764079 Si / 1000 Ang^3
#
#
#
# Elastic Constant Matrix: (Units=GPa)
#
#
# Indices 1 2 3 4 5 6 
#
# 1 115.3054 24.2778 24.0450 0.0000 0.0000 0.0000
# 2 24.2778 97.7348 27.4714 0.0000 0.0000 0.0000
# 3 24.0450 27.4714 110.9940 0.0000 0.0000 0.0000
# 4 0.0000 0.0000 0.0000 23.4953 0.0000 0.0000
# 5 0.0000 0.0000 0.0000 0.0000 25.9854 0.0000
# 6 0.0000 0.0000 0.0000 0.0000 0.0000 29.7635
#
#
#
# Elastic Compliance Matrix: (Units=1/GPa)
#
#
# Indices 1 2 3 4 5 6 
#
# 1 0.009398 -0.001894 -0.001567 0.000000 0.000000 0.000000
# 2 -0.001894 0.011379 -0.002406 0.000000 0.000000 0.000000
# 3 -0.001567 -0.002406 0.009944 0.000000 0.000000 0.000000
# 4 0.000000 0.000000 0.000000 0.042562 0.000000 0.000000
# 5 0.000000 0.000000 0.000000 0.000000 0.038483 0.000000
# 6 0.000000 0.000000 0.000000 0.000000 0.000000 0.033598
#
#
# Mechanical properties :
#
#
# Convention : Reuss Voigt Hill
#
# Bulk Modulus (GPa) = 52.66786 52.84698 52.75742
# Shear Modulus (GPa) = 30.59462 32.39819 31.49641
#
# Velocity S-wave (km/s) = 3.59197 3.69633 3.64452
# Velocity P-wave (km/s) = 6.27805 6.36424 6.32129
#
# Compressibility (1/GPa) = 0.01898691
#
# Stress axis : x y z
#
# Youngs Moduli (GPa) = 106.40303 87.88492 100.55836
#
# Poissons Ratio (x) = 0.16646 0.15759
# Poissons Ratio (y) = 0.20153 0.24193
# Poissons Ratio (z) = 0.16675 0.21144
#
# Static dielectric constant tensor:
#      x y z
#    x 1.959650 0.000000 0.000000 
#    y 0.000000 2.091670 0.000000 
#    z 0.000000 0.000000 -1.677570 
# 
# From -- ./inp_files/55145.got.cif
#   From: 2010.05.17/outbox.cif.g08.bks.cpg/sg70_28_cif.got.tgz:55145.got - 2010.06.03 15:57:51.
