data_PCOD9516244
_publ_section_title
;
Structure prediction by ZEFSAII (Michael W. Deem and Ramdas Pophale) SiO2 
 PCOD9516244
Probable space group: F D D D
;
_chemical_formula_sum "Si O2"
_cell_formula_units_Z 120
_cell_length_a 17.175737
_cell_length_b 22.906572
_cell_length_c 14.513339
_cell_angle_alpha 90.000000
_cell_angle_beta 90.000000
_cell_angle_gamma 90.000000
_cell_volume 5710.088275
_symmetry_space_group_name_H-M "F D D D"
_symmetry_group_IT_number 70
_space_group.IT_coordinate_system_code '2'
_symmetry_cell_setting 'orthorhombic'
loop_
_space_group_symop_operation_xyz
x,y,z
1/4-x,1/4-y,z
x,1/4-y,1/4-z
1/4-x,y,1/4-z
-x,-y,-z
3/4+x,3/4+y,-z
-x,3/4+y,3/4+z
3/4+x,-y,3/4+z
x,1/2+y,1/2+z
1/4-x,3/4-y,1/2+z
x,3/4-y,3/4-z
1/4-x,1/2+y,3/4-z
-x,1/2-y,1/2-z
3/4+x,1/4+y,1/2-z
-x,1/4+y,1/4+z
3/4+x,1/2-y,1/4+z
1/2+x,y,1/2+z
3/4-x,1/4-y,1/2+z
1/2+x,1/4-y,3/4-z
3/4-x,y,3/4-z
1/2-x,-y,1/2-z
1/4+x,3/4+y,1/2-z
1/2-x,3/4+y,1/4+z
1/4+x,-y,1/4+z
1/2+x,1/2+y,z
3/4-x,3/4-y,z
1/2+x,3/4-y,1/4-z
3/4-x,1/2+y,1/4-z
1/2-x,1/2-y,-z
1/4+x,1/4+y,-z
1/2-x,1/4+y,3/4+z
1/4+x,1/2-y,3/4+z
loop_
_atom_site_type_symbol
_atom_site_label
_atom_site_fract_x
_atom_site_fract_y
_atom_site_fract_z
Si Si1 0.250651 0.288466 0.290880
Si Si2 0.375000 0.375000 0.375000
Si Si3 0.449465 0.083430 0.808593
Si Si4 0.716585 0.465777 0.160250
Si Si5 0.374860 0.625000 0.625000
O O1 0.320837 0.330857 0.318518
O O2 0.250941 0.223720 0.334047
O O3 0.259485 0.272413 0.184575
O O4 0.176318 0.327296 0.319347
O O5 0.375000 0.078824 0.875000
O O6 0.483428 0.147300 0.825353
O O7 0.422257 0.090485 0.702675
O O8 0.625000 0.474436 0.125000
O O9 0.750000 0.500000 0.250000
#
# Coordination Sequence:
#
# PCOD9516244 Si02
#       5
#    32   8  32  32  16
#     4  11  23  40  68  97 133 174 228 284 346 418
#     4  10  24  40  64 108 126 170 226 290 338 416
#     4  11  22  42  65  96 132 180 224 282 361 411
#     4  11  24  47  69  99 139 185 233 288 355 426
#     4  11  22  41  66  94 137 175 228 290 345 424
#
# _framework density 21.015438
#
# number of rings (size 3 to 8) (size 9 to 14) (size 15 to 20)
#    0.000    1.067    6.667    1.600    0.000    3.200 
#    0.000    1.333    0.000    0.000    0.000    0.000 
#    0.000    0.000    0.000    0.000    0.000    0.000 
#
# Total GULP energy -167002.849696 kJ/mol
# GULP energy per Si atom -5566.761657 kJ/mol
# Density = 2.096761 g / cm^3
# Si number density = 21.015438 Si / 1000 Ang^3
#
#
#
# Elastic Constant Matrix: (Units=GPa)
#
#
# Indices 1 2 3 4 5 6 
#
# 1 30.3347 34.0326 -2.5971 0.0000 0.0000 0.0000
# 2 34.0326 188.9059 7.7125 0.0000 0.0000 0.0000
# 3 -2.5971 7.7125 71.4857 0.0000 0.0000 0.0000
# 4 0.0000 0.0000 0.0000 28.2113 0.0000 0.0000
# 5 0.0000 0.0000 0.0000 0.0000 14.9175 0.0000
# 6 0.0000 0.0000 0.0000 0.0000 0.0000 56.5928
#
#
#
# Elastic Compliance Matrix: (Units=1/GPa)
#
#
# Indices 1 2 3 4 5 6 
#
# 1 0.041701 -0.007608 0.002336 0.000000 0.000000 0.000000
# 2 -0.007608 0.006705 -0.001000 0.000000 0.000000 0.000000
# 3 0.002336 -0.001000 0.014182 0.000000 0.000000 0.000000
# 4 0.000000 0.000000 0.000000 0.035447 0.000000 0.000000
# 5 0.000000 0.000000 0.000000 0.000000 0.067035 0.000000
# 6 0.000000 0.000000 0.000000 0.000000 0.000000 0.017670
#
#
# Mechanical properties :
#
#
# Convention : Reuss Voigt Hill
#
# Bulk Modulus (GPa) = 19.98256 41.00247 30.49251
# Shear Modulus (GPa) = 23.58878 36.71622 30.15250
#
# Velocity S-wave (km/s) = 3.35393 4.18438 3.79196
# Velocity P-wave (km/s) = 4.95254 6.54968 5.80629
#
# Compressibility (1/GPa) = 0.05004365
#
# Stress axis : x y z
#
# Youngs Moduli (GPa) = 23.98021 149.14022 70.51416
#
# Poissons Ratio (x) = 1.13467 -0.16471
# Poissons Ratio (y) = 0.18244 0.07050
# Poissons Ratio (z) = -0.05601 0.14911
#
# Static dielectric constant tensor:
#      x y z
#    x 1.788450 0.000000 0.000000 
#    y 0.000000 0.860200 0.000000 
#    z 0.000000 0.000000 1.827250 
# 
# From -- ./inp_files/17374.got.cif
#   From: 2010.05.17/outbox.cif.g08.bks.cpg/sg70_9_cif.got.tgz:17374.got - 2010.06.03 15:57:51.
