data_PCOD9516762
_publ_section_title
;
Structure prediction by ZEFSAII (Michael W. Deem and Ramdas Pophale) SiO2 
 PCOD9516762
Probable space group: F D D D
;
_chemical_formula_sum "Si O2"
_cell_formula_units_Z 216
_cell_length_a 30.780648
_cell_length_b 25.812127
_cell_length_c 11.646425
_cell_angle_alpha 90.000000
_cell_angle_beta 90.000000
_cell_angle_gamma 90.000000
_cell_volume 9253.247658
_symmetry_space_group_name_H-M "F D D D"
_symmetry_group_IT_number 70
_space_group.IT_coordinate_system_code '2'
_symmetry_cell_setting 'orthorhombic'
loop_
_space_group_symop_operation_xyz
x,y,z
1/4-x,1/4-y,z
x,1/4-y,1/4-z
1/4-x,y,1/4-z
-x,-y,-z
3/4+x,3/4+y,-z
-x,3/4+y,3/4+z
3/4+x,-y,3/4+z
x,1/2+y,1/2+z
1/4-x,3/4-y,1/2+z
x,3/4-y,3/4-z
1/4-x,1/2+y,3/4-z
-x,1/2-y,1/2-z
3/4+x,1/4+y,1/2-z
-x,1/4+y,1/4+z
3/4+x,1/2-y,1/4+z
1/2+x,y,1/2+z
3/4-x,1/4-y,1/2+z
1/2+x,1/4-y,3/4-z
3/4-x,y,3/4-z
1/2-x,-y,1/2-z
1/4+x,3/4+y,1/2-z
1/2-x,3/4+y,1/4+z
1/4+x,-y,1/4+z
1/2+x,1/2+y,z
3/4-x,3/4-y,z
1/2+x,3/4-y,1/4-z
3/4-x,1/2+y,1/4-z
1/2-x,1/2-y,-z
1/4+x,1/4+y,-z
1/2-x,1/4+y,3/4+z
1/4+x,1/2-y,3/4+z
loop_
_atom_site_type_symbol
_atom_site_label
_atom_site_fract_x
_atom_site_fract_y
_atom_site_fract_z
Si Si1 0.106039 0.375000 0.375000
Si Si2 0.703603 0.980167 0.206851
Si Si3 0.038474 0.378407 0.181481
Si Si4 0.798175 0.837091 0.025876
Si Si5 0.556617 0.229027 0.963848
Si Si6 0.609070 0.980941 0.830499
Si Si7 0.625000 0.125000 0.625000
Si Si8 0.540106 0.257265 0.609687
O O1 0.074066 0.394703 0.275127
O O2 0.134414 0.330552 0.317050
O O3 0.707579 0.919798 0.169909
O O4 0.671821 0.988361 0.311895
O O5 0.750000 0.000000 0.250000
O O6 0.684528 0.010175 0.095972
O O7 0.044709 0.317627 0.148716
O O8 0.990274 0.378454 0.236884
O O9 0.842211 0.849024 0.963180
O O10 0.785707 0.783406 0.962969
O O11 0.803225 0.828796 0.162257
O O12 0.593724 0.250690 0.876830
O O13 0.506407 0.248149 0.953273
O O14 0.582603 0.003009 0.720764
#
# Coordination Sequence:
#
# PCOD9516762 Si02
#       8
#    16  32  32  32  32  32   8  32
#     4  12  23  38  68 105 140 175 236 294 367 442
#     4  12  26  45  70 101 143 194 238 295 365 442
#     4  11  25  43  69 102 142 187 237 298 371 435
#     4  11  25  44  70 103 140 187 241 298 364 436
#     4  11  23  44  68  99 138 186 235 288 359 429
#     4  12  24  40  69 100 143 182 237 292 363 436
#     4  12  26  40  72 108 146 188 252 300 374 434
#     4  11  24  45  69 104 143 186 236 304 367 434
#
# _framework density 23.343156
#
# number of rings (size 3 to 8) (size 9 to 14) (size 15 to 20)
#    0.000    0.593    2.963    6.222    2.074    4.148 
#    0.000    0.000    0.000    0.000    0.000    0.000 
#    0.000    0.000    0.000    0.000    0.000    0.000 
#
# Total GULP energy -301601.375317 kJ/mol
# GULP energy per Si atom -5585.210654 kJ/mol
# Density = 2.329003 g / cm^3
# Si number density = 23.343156 Si / 1000 Ang^3
#
#
#
# Elastic Constant Matrix: (Units=GPa)
#
#
# Indices 1 2 3 4 5 6 
#
# 1 117.5670 -5.8418 30.5940 -0.0001 0.0030 -0.0004
# 2 -5.8418 23.8632 16.5778 -0.0002 0.0007 0.0003
# 3 30.5940 16.5778 87.2660 -0.0007 -0.0144 0.0026
# 4 -0.0001 -0.0002 -0.0007 25.4702 -0.0035 0.0010
# 5 0.0030 0.0007 -0.0144 -0.0035 -400.6559 0.0629
# 6 -0.0004 0.0003 0.0026 0.0010 0.0629 -8.7187
#
#
#
# Elastic Compliance Matrix: (Units=1/GPa)
#
#
# Indices 1 2 3 4 5 6 
#
# 1 0.009972 0.005610 -0.004562 0.000000 0.000000 -0.000002
# 2 0.005610 0.051433 -0.011737 0.000000 0.000001 -0.000002
# 3 -0.004562 -0.011737 0.015288 0.000000 -0.000001 0.000004
# 4 0.000000 0.000000 0.000000 0.039262 0.000000 0.000004
# 5 0.000000 0.000001 -0.000001 0.000000 -0.002496 -0.000018
# 6 -0.000002 -0.000002 0.000004 0.000004 -0.000018 -0.114696
#
#
# Mechanical properties :
#
#
# Convention : Reuss Voigt Hill
#
# Bulk Modulus (GPa) = 18.07839 34.59515 26.33677
# Shear Modulus (GPa) = 129.60506 -64.28981 32.65762
#
# Velocity S-wave (km/s) = 7.45937 -5.25366 3.74441
# Velocity P-wave (km/s) = 9.05268 4.68496 5.47732
#
# Compressibility (1/GPa) = 0.05531467
#
# Stress axis : x y z
#
# Youngs Moduli (GPa) = 100.28488 19.44282 65.41001
#
# Poissons Ratio (x) = -0.10907 0.29837
# Poissons Ratio (y) = -0.56260 0.76775
# Poissons Ratio (z) = 0.45746 0.22821
#
# Static dielectric constant tensor:
#      x y z
#    x 1.996430 0.000000 0.000000 
#    y 0.000000 1.967140 0.000000 
#    z 0.000000 0.000000 1.831900 
# 
# From -- ./inp_files/22666.got.cif
#   From: 2010.05.17/outbox.cif.g08.bks.cpg/sg70_12_cif.got.tgz:22666.got - 2010.06.03 15:57:51.
