data_PCOD9516362
_publ_section_title
;
Structure prediction by ZEFSAII (Michael W. Deem and Ramdas Pophale) SiO2 
 PCOD9516362
Probable space group: F D D D
;
_chemical_formula_sum "Si O2"
_cell_formula_units_Z 96
_cell_length_a 21.561340
_cell_length_b 7.137464
_cell_length_c 22.739420
_cell_angle_alpha 90.000000
_cell_angle_beta 90.000000
_cell_angle_gamma 90.000000
_cell_volume 3499.444112
_symmetry_space_group_name_H-M "F D D D"
_symmetry_group_IT_number 70
_space_group.IT_coordinate_system_code '2'
_symmetry_cell_setting 'orthorhombic'
loop_
_space_group_symop_operation_xyz
x,y,z
1/4-x,1/4-y,z
x,1/4-y,1/4-z
1/4-x,y,1/4-z
-x,-y,-z
3/4+x,3/4+y,-z
-x,3/4+y,3/4+z
3/4+x,-y,3/4+z
x,1/2+y,1/2+z
1/4-x,3/4-y,1/2+z
x,3/4-y,3/4-z
1/4-x,1/2+y,3/4-z
-x,1/2-y,1/2-z
3/4+x,1/4+y,1/2-z
-x,1/4+y,1/4+z
3/4+x,1/2-y,1/4+z
1/2+x,y,1/2+z
3/4-x,1/4-y,1/2+z
1/2+x,1/4-y,3/4-z
3/4-x,y,3/4-z
1/2-x,-y,1/2-z
1/4+x,3/4+y,1/2-z
1/2-x,3/4+y,1/4+z
1/4+x,-y,1/4+z
1/2+x,1/2+y,z
3/4-x,3/4-y,z
1/2+x,3/4-y,1/4-z
3/4-x,1/2+y,1/4-z
1/2-x,1/2-y,-z
1/4+x,1/4+y,-z
1/2-x,1/4+y,3/4+z
1/4+x,1/2-y,3/4+z
loop_
_atom_site_type_symbol
_atom_site_label
_atom_site_fract_x
_atom_site_fract_y
_atom_site_fract_z
Si Si1 0.125000 0.865171 0.125000
Si Si2 0.875000 0.375000 0.156720
Si Si3 0.586572 0.933862 0.249906
Si Si4 0.748257 0.684855 0.838165
O O1 0.154958 0.922197 0.188251
O O2 0.191497 0.806816 0.096067
O O3 0.888548 0.199624 0.198736
O O4 0.813725 0.351499 0.117075
O O5 0.625000 0.125000 0.246148
O O6 0.518317 0.999487 0.271852
O O7 0.760281 0.875000 0.875000
#
# Coordination Sequence:
#
# PCOD9516362 Si02
#       4
#    16  16  32  32
#     4  12  28  44  78 115 157 196 253 317 376 449
#     4  10  24  49  82 101 150 210 244 306 384 438
#     4  11  26  49  74 112 151 199 251 312 376 447
#     4  10  24  47  75 114 148 201 255 306 378 450
#
# _framework density 27.432929999999999
#
# number of rings (size 3 to 8) (size 9 to 14) (size 15 to 20)
#    0.000    1.333    1.667    1.000    9.333    4.000 
#    6.000    0.000    0.000    0.000    0.000    0.000 
#    0.000    0.000    0.000    0.000    0.000    0.000 
#
# Total GULP energy -133755.739792 kJ/mol
# GULP energy per Si atom -5573.155825 kJ/mol
# Density = 2.737049 g / cm^3
# Si number density = 27.432930 Si / 1000 Ang^3
#
#
#
# Elastic Constant Matrix: (Units=GPa)
#
#
# Indices 1 2 3 4 5 6 
#
# 1 235.7771 31.7620 86.1618 0.0000 0.0000 0.0000
# 2 31.7620 105.2277 8.3631 0.0000 0.0000 0.0000
# 3 86.1618 8.3631 198.2831 0.0000 0.0000 0.0000
# 4 0.0000 0.0000 0.0000 -10.7624 0.0000 0.0000
# 5 0.0000 0.0000 0.0000 0.0000 53.3151 0.0000
# 6 0.0000 0.0000 0.0000 0.0000 0.0000 -22.4228
#
#
#
# Elastic Compliance Matrix: (Units=1/GPa)
#
#
# Indices 1 2 3 4 5 6 
#
# 1 0.005241 -0.001406 -0.002218 0.000000 0.000000 0.000000
# 2 -0.001406 0.009912 0.000193 0.000000 0.000000 0.000000
# 3 -0.002218 0.000193 0.005999 0.000000 0.000000 0.000000
# 4 0.000000 0.000000 0.000000 -0.092916 0.000000 0.000000
# 5 0.000000 0.000000 0.000000 0.000000 0.018756 0.000000
# 6 0.000000 0.000000 0.000000 0.000000 0.000000 -0.044597
#
#
# Mechanical properties :
#
#
# Convention : Reuss Voigt Hill
#
# Bulk Modulus (GPa) = 69.97839 87.98464 78.98151
# Shear Modulus (GPa) = -58.15363 31.55939 -13.29712
#
# Velocity S-wave (km/s) = -4.60918 3.39546 -2.20401
# Velocity P-wave (km/s) = 1.66184 6.89308 4.73037
#
# Compressibility (1/GPa) = 0.01429013
#
# Stress axis : x y z
#
# Youngs Moduli (GPa) = 190.79238 100.88589 166.69209
#
# Poissons Ratio (x) = 0.14182 0.36977
# Poissons Ratio (y) = 0.26820 -0.03213
# Poissons Ratio (z) = 0.42323 -0.01945
#
# Static dielectric constant tensor:
#      x y z
#    x 2.119770 0.000000 0.000000 
#    y 0.000000 2.322780 0.000000 
#    z 0.000000 0.000000 2.142630 
# 
# From -- ./inp_files/9144.got.cif
#   From: 2010.05.17/outbox.cif.g08.bks.cpg/sg70_5_cif.got.tgz:9144.got - 2010.06.03 15:57:51.
