data_PCOD9516349
_publ_section_title
;
Structure prediction by ZEFSAII (Michael W. Deem and Ramdas Pophale) SiO2 
 PCOD9516349
Probable space group: F D D D
;
_chemical_formula_sum "Si O2"
_cell_formula_units_Z 160
_cell_length_a 17.279242
_cell_length_b 18.104922
_cell_length_c 22.785311
_cell_angle_alpha 90.000000
_cell_angle_beta 90.000000
_cell_angle_gamma 90.000000
_cell_volume 7128.141396
_symmetry_space_group_name_H-M "F D D D"
_symmetry_group_IT_number 70
_space_group.IT_coordinate_system_code '2'
_symmetry_cell_setting 'orthorhombic'
loop_
_space_group_symop_operation_xyz
x,y,z
1/4-x,1/4-y,z
x,1/4-y,1/4-z
1/4-x,y,1/4-z
-x,-y,-z
3/4+x,3/4+y,-z
-x,3/4+y,3/4+z
3/4+x,-y,3/4+z
x,1/2+y,1/2+z
1/4-x,3/4-y,1/2+z
x,3/4-y,3/4-z
1/4-x,1/2+y,3/4-z
-x,1/2-y,1/2-z
3/4+x,1/4+y,1/2-z
-x,1/4+y,1/4+z
3/4+x,1/2-y,1/4+z
1/2+x,y,1/2+z
3/4-x,1/4-y,1/2+z
1/2+x,1/4-y,3/4-z
3/4-x,y,3/4-z
1/2-x,-y,1/2-z
1/4+x,3/4+y,1/2-z
1/2-x,3/4+y,1/4+z
1/4+x,-y,1/4+z
1/2+x,1/2+y,z
3/4-x,3/4-y,z
1/2+x,3/4-y,1/4-z
3/4-x,1/2+y,1/4-z
1/2-x,1/2-y,-z
1/4+x,1/4+y,-z
1/2-x,1/4+y,3/4+z
1/4+x,1/2-y,3/4+z
loop_
_atom_site_type_symbol
_atom_site_label
_atom_site_fract_x
_atom_site_fract_y
_atom_site_fract_z
Si Si1 0.248519 0.171742 0.465657
Si Si2 0.625000 0.948723 0.125000
Si Si3 0.257476 0.316803 0.324784
Si Si4 0.414222 0.735768 0.190686
Si Si5 0.125000 0.125000 0.376699
Si Si6 0.416568 0.453110 0.932915
O O1 0.250000 0.250000 0.500000
O O2 0.324739 0.159831 0.425717
O O3 0.233431 0.106836 0.512295
O O4 0.179695 0.171505 0.419088
O O5 0.686482 0.998499 0.088194
O O6 0.277360 0.375000 0.375000
O O7 0.167090 0.296648 0.329830
O O8 0.421687 0.817852 0.163410
O O9 0.409420 0.745179 0.260706
O O10 0.491683 0.692682 0.173835
O O11 0.375000 0.483409 0.875000
O O12 0.375000 0.375000 0.945055
#
# Coordination Sequence:
#
# PCOD9516349 Si02
#       6
#    32  16  32  32  16  32
#     4  12  26  45  75 105 144 198 238 305 376 438
#     4  12  25  48  72 110 148 191 250 300 372 453
#     4  12  26  45  72 106 149 186 242 301 366 443
#     4  11  25  45  71 105 146 190 237 309 363 436
#     4  12  24  48  68 106 150 184 248 304 372 438
#     4  10  24  46  71  99 141 188 242 296 360 438
#
# _framework density 22.446242999999999
#
# number of rings (size 3 to 8) (size 9 to 14) (size 15 to 20)
#    0.000    0.600    5.000    1.500    5.600    4.800 
#    0.000    0.000    0.000    0.000    0.000    0.000 
#    0.000    0.000    0.000    0.000    0.000    0.000 
#
# Total GULP energy -223772.685597 kJ/mol
# GULP energy per Si atom -5594.317140 kJ/mol
# Density = 2.239515 g / cm^3
# Si number density = 22.446243 Si / 1000 Ang^3
#
#
#
# Elastic Constant Matrix: (Units=GPa)
#
#
# Indices 1 2 3 4 5 6 
#
# 1 144.6517 20.5192 41.7699 0.0000 0.0000 0.0000
# 2 20.5192 45.4629 25.0816 0.0000 0.0000 0.0000
# 3 41.7699 25.0816 155.7508 0.0000 0.0000 0.0000
# 4 0.0000 0.0000 0.0000 19.2027 0.0000 0.0000
# 5 0.0000 0.0000 0.0000 0.0000 37.4213 0.0000
# 6 0.0000 0.0000 0.0000 0.0000 0.0000 36.8684
#
#
#
# Elastic Compliance Matrix: (Units=1/GPa)
#
#
# Indices 1 2 3 4 5 6 
#
# 1 0.007761 -0.002584 -0.001665 0.000000 0.000000 0.000000
# 2 -0.002584 0.025001 -0.003333 0.000000 0.000000 0.000000
# 3 -0.001665 -0.003333 0.007404 0.000000 0.000000 0.000000
# 4 0.000000 0.000000 0.000000 0.052076 0.000000 0.000000
# 5 0.000000 0.000000 0.000000 0.000000 0.026723 0.000000
# 6 0.000000 0.000000 0.000000 0.000000 0.000000 0.027123
#
#
# Mechanical properties :
#
#
# Convention : Reuss Voigt Hill
#
# Bulk Modulus (GPa) = 39.99849 57.84521 48.92185
# Shear Modulus (GPa) = 29.48362 35.93147 32.70754
#
# Velocity S-wave (km/s) = 3.62819 4.00531 3.82140
# Velocity P-wave (km/s) = 5.95063 6.87143 6.42754
#
# Compressibility (1/GPa) = 0.02500094
#
# Stress axis : x y z
#
# Youngs Moduli (GPa) = 128.85714 39.99832 135.06526
#
# Poissons Ratio (x) = 0.10336 0.22490
# Poissons Ratio (y) = 0.33297 0.45019
# Poissons Ratio (z) = 0.21456 0.13332
#
# Static dielectric constant tensor:
#      x y z
#    x 1.822680 0.000000 0.000000 
#    y 0.000000 1.857380 0.000000 
#    z 0.000000 0.000000 1.829510 
# 
# From -- ./inp_files/43689.got.cif
#   From: 2010.05.17/outbox.cif.g08.bks.cpg/sg70_22_cif.got.tgz:43689.got - 2010.06.03 15:57:51.
