data_PCOD9516151
_publ_section_title
;
Structure prediction by ZEFSAII (Michael W. Deem and Ramdas Pophale) SiO2 
 PCOD9516151
Probable space group: F D D D
;
_chemical_formula_sum "Si O2"
_cell_formula_units_Z 160
_cell_length_a 21.036194
_cell_length_b 19.860959
_cell_length_c 18.523074
_cell_angle_alpha 90.000000
_cell_angle_beta 90.000000
_cell_angle_gamma 90.000000
_cell_volume 7738.921545
_symmetry_space_group_name_H-M "F D D D"
_symmetry_group_IT_number 70
_space_group.IT_coordinate_system_code '2'
_symmetry_cell_setting 'orthorhombic'
loop_
_space_group_symop_operation_xyz
x,y,z
1/4-x,1/4-y,z
x,1/4-y,1/4-z
1/4-x,y,1/4-z
-x,-y,-z
3/4+x,3/4+y,-z
-x,3/4+y,3/4+z
3/4+x,-y,3/4+z
x,1/2+y,1/2+z
1/4-x,3/4-y,1/2+z
x,3/4-y,3/4-z
1/4-x,1/2+y,3/4-z
-x,1/2-y,1/2-z
3/4+x,1/4+y,1/2-z
-x,1/4+y,1/4+z
3/4+x,1/2-y,1/4+z
1/2+x,y,1/2+z
3/4-x,1/4-y,1/2+z
1/2+x,1/4-y,3/4-z
3/4-x,y,3/4-z
1/2-x,-y,1/2-z
1/4+x,3/4+y,1/2-z
1/2-x,3/4+y,1/4+z
1/4+x,-y,1/4+z
1/2+x,1/2+y,z
3/4-x,3/4-y,z
1/2+x,3/4-y,1/4-z
3/4-x,1/2+y,1/4-z
1/2-x,1/2-y,-z
1/4+x,1/4+y,-z
1/2-x,1/4+y,3/4+z
1/4+x,1/2-y,3/4+z
loop_
_atom_site_type_symbol
_atom_site_label
_atom_site_fract_x
_atom_site_fract_y
_atom_site_fract_z
Si Si1 0.518127 0.128944 0.544828
Si Si2 0.186351 0.776582 0.036355
Si Si3 0.614851 0.735363 0.205909
Si Si4 0.799722 0.510676 0.956376
Si Si5 0.818927 0.161234 0.203500
O O1 0.489624 0.125000 0.625000
O O2 0.549858 0.056148 0.531943
O O3 0.578745 0.179716 0.545721
O O4 0.471556 0.168395 0.491607
O O5 0.194153 0.770970 0.121309
O O6 0.119732 0.741178 0.014890
O O7 0.250000 0.750000 0.000000
O O8 0.179509 0.852680 0.011684
O O9 0.625000 0.766498 0.125000
O O10 0.627060 0.786072 0.271814
O O11 0.746382 0.453361 0.963879
O O12 0.822589 0.125000 0.125000
#
# Coordination Sequence:
#
# PCOD9516151 Si02
#       5
#    32  32  32  32  32
#     4   8  15  35  63  95 126 156 195 246 325 394
#     4  11  24  44  63  88 124 167 218 266 313 370
#     4   8  16  32  63  93 126 161 193 247 318 386
#     4  10  23  43  66  90 128 166 208 268 323 377
#     4  11  22  41  64  91 124 168 217 260 307 375
#
# _framework density 20.674714999999999
#
# number of rings (size 3 to 8) (size 9 to 14) (size 15 to 20)
#    0.000    2.400    2.000    1.200    2.800    1.600 
#    3.600    3.000    0.000    0.000    0.000    0.000 
#    0.000    0.000    0.000    0.000    0.000    0.000 
#
# Total GULP energy -222975.685466 kJ/mol
# GULP energy per Si atom -5574.392137 kJ/mol
# Density = 2.062766 g / cm^3
# Si number density = 20.674715 Si / 1000 Ang^3
#
#
#
# Elastic Constant Matrix: (Units=GPa)
#
#
# Indices 1 2 3 4 5 6 
#
# 1 126.1327 37.7047 46.6714 0.0000 0.0000 0.0000
# 2 37.7047 77.2931 25.5546 0.0000 0.0000 0.0000
# 3 46.6714 25.5546 37.0285 0.0000 0.0000 0.0000
# 4 0.0000 0.0000 0.0000 45.7187 0.0000 0.0000
# 5 0.0000 0.0000 0.0000 0.0000 22.9698 0.0000
# 6 0.0000 0.0000 0.0000 0.0000 0.0000 -12.5116
#
#
#
# Elastic Compliance Matrix: (Units=1/GPa)
#
#
# Indices 1 2 3 4 5 6 
#
# 1 0.014970 -0.001379 -0.017917 0.000000 0.000000 0.000000
# 2 -0.001379 0.016890 -0.009918 0.000000 0.000000 0.000000
# 3 -0.017917 -0.009918 0.056434 0.000000 0.000000 0.000000
# 4 0.000000 0.000000 0.000000 0.021873 0.000000 0.000000
# 5 0.000000 0.000000 0.000000 0.000000 0.043535 0.000000
# 6 0.000000 0.000000 0.000000 0.000000 0.000000 -0.079926
#
#
# Mechanical properties :
#
#
# Convention : Reuss Voigt Hill
#
# Bulk Modulus (GPa) = 33.48319 51.14618 42.31469
# Shear Modulus (GPa) = 35.17218 19.93695 27.55456
#
# Velocity S-wave (km/s) = 4.12906 3.10871 3.65467
# Velocity P-wave (km/s) = 6.24200 6.13821 6.19032
#
# Compressibility (1/GPa) = 0.02986573
#
# Stress axis : x y z
#
# Youngs Moduli (GPa) = 66.80084 59.20838 17.71995
#
# Poissons Ratio (x) = 0.08164 0.31748
# Poissons Ratio (y) = 0.09211 0.17575
# Poissons Ratio (z) = 1.19685 0.58723
#
# Static dielectric constant tensor:
#      x y z
#    x 1.884250 0.000000 0.000000 
#    y 0.000000 1.732950 0.000000 
#    z 0.000000 0.000000 1.733850 
# 
# From -- ./inp_files/35146.got.cif
#   From: 2010.05.17/outbox.cif.g08.bks.cpg/sg70_18_cif.got.tgz:35146.got - 2010.06.03 15:57:51.
