data_PCOD9516776
_publ_section_title
;
Structure prediction by ZEFSAII (Michael W. Deem and Ramdas Pophale) SiO2 
 PCOD9516776
Probable space group: F D D D
;
_chemical_formula_sum "Si O2"
_cell_formula_units_Z 136
_cell_length_a 21.605926
_cell_length_b 15.579005
_cell_length_c 18.721466
_cell_angle_alpha 90.000000
_cell_angle_beta 90.000000
_cell_angle_gamma 90.000000
_cell_volume 6301.623536
_symmetry_space_group_name_H-M "F D D D"
_symmetry_group_IT_number 70
_space_group.IT_coordinate_system_code '2'
_symmetry_cell_setting 'orthorhombic'
loop_
_space_group_symop_operation_xyz
x,y,z
1/4-x,1/4-y,z
x,1/4-y,1/4-z
1/4-x,y,1/4-z
-x,-y,-z
3/4+x,3/4+y,-z
-x,3/4+y,3/4+z
3/4+x,-y,3/4+z
x,1/2+y,1/2+z
1/4-x,3/4-y,1/2+z
x,3/4-y,3/4-z
1/4-x,1/2+y,3/4-z
-x,1/2-y,1/2-z
3/4+x,1/4+y,1/2-z
-x,1/4+y,1/4+z
3/4+x,1/2-y,1/4+z
1/2+x,y,1/2+z
3/4-x,1/4-y,1/2+z
1/2+x,1/4-y,3/4-z
3/4-x,y,3/4-z
1/2-x,-y,1/2-z
1/4+x,3/4+y,1/2-z
1/2-x,3/4+y,1/4+z
1/4+x,-y,1/4+z
1/2+x,1/2+y,z
3/4-x,3/4-y,z
1/2+x,3/4-y,1/4-z
3/4-x,1/2+y,1/4-z
1/2-x,1/2-y,-z
1/4+x,1/4+y,-z
1/2-x,1/4+y,3/4+z
1/4+x,1/2-y,3/4+z
loop_
_atom_site_type_symbol
_atom_site_label
_atom_site_fract_x
_atom_site_fract_y
_atom_site_fract_z
Si Si1 0.096740 0.970971 0.343361
Si Si2 0.625000 0.625000 0.625000
Si Si3 0.466760 0.243591 0.451402
Si Si4 0.084214 0.944745 0.056285
Si Si5 0.473737 0.521690 0.138258
O O1 0.087742 0.875000 0.375000
O O2 0.128758 0.969875 0.264827
O O3 0.153132 0.011434 0.386815
O O4 0.029566 0.012937 0.344823
O O5 0.578840 0.682892 0.576959
O O6 0.428445 0.156156 0.449397
O O7 0.493086 0.252782 0.531862
O O8 0.125000 0.966197 0.125000
O O9 0.018127 0.985884 0.076911
O O10 0.472635 0.625000 0.125000
#
# Coordination Sequence:
#
# PCOD9516776 Si02
#       5
#    32   8  32  32  32
#     4  11  23  45  69  99 142 178 226 290 346 421
#     4  12  28  44  72 104 142 192 240 284 348 424
#     4  12  25  44  71 103 137 186 234 286 350 418
#     4  12  24  45  70 102 140 182 231 292 350 422
#     4  11  25  46  70 102 140 179 231 290 357 415
#
# _framework density 21.58174
#
# number of rings (size 3 to 8) (size 9 to 14) (size 15 to 20)
#    0.000    0.471    9.412    0.706    0.000    3.294 
#    0.000    4.706    0.000    0.000    0.000    0.000 
#    0.000    0.000    0.000    0.000    0.000    0.000 
#
# Total GULP energy -189740.146936 kJ/mol
# GULP energy per Si atom -5580.592557 kJ/mol
# Density = 2.153262 g / cm^3
# Si number density = 21.581740 Si / 1000 Ang^3
#
#
#
# Elastic Constant Matrix: (Units=GPa)
#
#
# Indices 1 2 3 4 5 6 
#
# 1 114.2201 8.9854 -10.3456 0.0000 0.0000 0.0000
# 2 8.9854 49.7165 2.2936 0.0000 0.0000 0.0000
# 3 -10.3456 2.2936 71.2291 0.0000 0.0000 0.0000
# 4 0.0000 0.0000 0.0000 21.4336 0.0000 0.0000
# 5 0.0000 0.0000 0.0000 0.0000 27.4141 0.0000
# 6 0.0000 0.0000 0.0000 0.0000 0.0000 21.0456
#
#
#
# Elastic Compliance Matrix: (Units=1/GPa)
#
#
# Indices 1 2 3 4 5 6 
#
# 1 0.009012 -0.001692 0.001363 0.000000 0.000000 0.000000
# 2 -0.001692 0.020462 -0.000905 0.000000 0.000000 0.000000
# 3 0.001363 -0.000905 0.014266 0.000000 0.000000 0.000000
# 4 0.000000 0.000000 0.000000 0.046656 0.000000 0.000000
# 5 0.000000 0.000000 0.000000 0.000000 0.036478 0.000000
# 6 0.000000 0.000000 0.000000 0.000000 0.000000 0.047516
#
#
# Mechanical properties :
#
#
# Convention : Reuss Voigt Hill
#
# Bulk Modulus (GPa) = 24.22842 26.33695 25.28269
# Shear Modulus (GPa) = 26.23130 29.59416 27.91273
#
# Velocity S-wave (km/s) = 3.49010 3.70707 3.60022
# Velocity P-wave (km/s) = 5.24326 5.52748 5.38724
#
# Compressibility (1/GPa) = 0.04127384
#
# Stress axis : x y z
#
# Youngs Moduli (GPa) = 110.96828 48.87227 70.09503
#
# Poissons Ratio (x) = 0.08267 -0.09556
# Poissons Ratio (y) = 0.18771 0.06341
# Poissons Ratio (z) = -0.15129 0.04421
#
# Static dielectric constant tensor:
#      x y z
#    x 1.797940 0.000000 0.000000 
#    y 0.000000 1.770690 0.000000 
#    z 0.000000 0.000000 1.832060 
# 
# From -- ./inp_files/28476.got.cif
#   From: 2010.05.17/outbox.cif.g08.bks.cpg/sg70_15_cif.got.tgz:28476.got - 2010.06.03 15:57:51.
