data_PCOD9516312
_publ_section_title
;
Structure prediction by ZEFSAII (Michael W. Deem and Ramdas Pophale) SiO2 
 PCOD9516312
Probable space group: F D D D
;
_chemical_formula_sum "Si O2"
_cell_formula_units_Z 168
_cell_length_a 21.093202
_cell_length_b 14.316923
_cell_length_c 23.245153
_cell_angle_alpha 90.000000
_cell_angle_beta 90.000000
_cell_angle_gamma 90.000000
_cell_volume 7019.797917
_symmetry_space_group_name_H-M "F D D D"
_symmetry_group_IT_number 70
_space_group.IT_coordinate_system_code '2'
_symmetry_cell_setting 'orthorhombic'
loop_
_space_group_symop_operation_xyz
x,y,z
1/4-x,1/4-y,z
x,1/4-y,1/4-z
1/4-x,y,1/4-z
-x,-y,-z
3/4+x,3/4+y,-z
-x,3/4+y,3/4+z
3/4+x,-y,3/4+z
x,1/2+y,1/2+z
1/4-x,3/4-y,1/2+z
x,3/4-y,3/4-z
1/4-x,1/2+y,3/4-z
-x,1/2-y,1/2-z
3/4+x,1/4+y,1/2-z
-x,1/4+y,1/4+z
3/4+x,1/2-y,1/4+z
1/2+x,y,1/2+z
3/4-x,1/4-y,1/2+z
1/2+x,1/4-y,3/4-z
3/4-x,y,3/4-z
1/2-x,-y,1/2-z
1/4+x,3/4+y,1/2-z
1/2-x,3/4+y,1/4+z
1/4+x,-y,1/4+z
1/2+x,1/2+y,z
3/4-x,3/4-y,z
1/2+x,3/4-y,1/4-z
3/4-x,1/2+y,1/4-z
1/2-x,1/2-y,-z
1/4+x,1/4+y,-z
1/2-x,1/4+y,3/4+z
1/4+x,1/2-y,3/4+z
loop_
_atom_site_type_symbol
_atom_site_label
_atom_site_fract_x
_atom_site_fract_y
_atom_site_fract_z
Si Si1 0.493751 0.812509 0.807227
Si Si2 0.975504 0.026746 0.274928
Si Si3 0.531011 0.698873 0.331773
Si Si4 0.126102 0.731160 0.311695
Si Si5 0.875000 0.375000 0.875000
Si Si6 0.191541 0.599625 0.706597
O O1 0.500000 0.750000 0.750000
O O2 0.561172 0.778795 0.833816
O O3 0.425703 0.808637 0.840678
O O4 0.492518 0.922488 0.792888
O O5 0.991588 0.101936 0.324901
O O6 0.022298 0.057184 0.223993
O O7 0.908293 0.035785 0.241779
O O8 0.578870 0.713765 0.383339
O O9 0.565639 0.702313 0.269268
O O10 0.482310 0.783047 0.332322
O O11 0.125000 0.625000 0.287531
O O12 0.125000 0.625000 0.683687
#
# Coordination Sequence:
#
# PCOD9516312 Si02
#       6
#    32  32  32  32   8  32
#     4  12  27  51  78 115 161 199 272 340 395 499
#     4  10  24  44  73 108 152 202 258 328 398 462
#     4   9  23  43  69 114 150 195 274 311 390 490
#     4  12  25  47  77 110 151 210 266 324 410 478
#     4  12  32  52  76 124 152 222 270 324 432 466
#     4   9  20  43  67  99 156 194 247 330 374 458
#
# _framework density 23.932313000000001
#
# number of rings (size 3 to 8) (size 9 to 14) (size 15 to 20)
#    1.143    0.381    1.905    1.714    5.333    2.286 
#    0.000    1.905    0.000    0.000    0.000    0.000 
#    0.000    0.000    0.000    0.000    0.000    0.000 
#
# Total GULP energy -234129.316440 kJ/mol
# GULP energy per Si atom -5574.507534 kJ/mol
# Density = 2.387784 g / cm^3
# Si number density = 23.932313 Si / 1000 Ang^3
#
#
#
# Elastic Constant Matrix: (Units=GPa)
#
#
# Indices 1 2 3 4 5 6 
#
# 1 192.7612 73.0024 77.2639 0.0000 0.0000 0.0000
# 2 73.0024 125.7367 41.2339 0.0000 0.0000 0.0000
# 3 77.2639 41.2339 107.3101 0.0000 0.0000 0.0000
# 4 0.0000 0.0000 0.0000 5.3013 0.0000 0.0000
# 5 0.0000 0.0000 0.0000 0.0000 29.9548 0.0000
# 6 0.0000 0.0000 0.0000 0.0000 0.0000 45.2182
#
#
#
# Elastic Compliance Matrix: (Units=1/GPa)
#
#
# Indices 1 2 3 4 5 6 
#
# 1 0.008329 -0.003283 -0.004736 0.000000 0.000000 0.000000
# 2 -0.003283 0.010394 -0.001630 0.000000 0.000000 0.000000
# 3 -0.004736 -0.001630 0.013355 0.000000 0.000000 0.000000
# 4 0.000000 0.000000 0.000000 0.188632 0.000000 0.000000
# 5 0.000000 0.000000 0.000000 0.000000 0.033384 0.000000
# 6 0.000000 0.000000 0.000000 0.000000 0.000000 0.022115
#
#
# Mechanical properties :
#
#
# Convention : Reuss Voigt Hill
#
# Bulk Modulus (GPa) = 78.24392 89.86760 84.05576
# Shear Modulus (GPa) = 16.67969 31.71538 24.19753
#
# Velocity S-wave (km/s) = 2.64285 3.64429 3.18320
# Velocity P-wave (km/s) = 6.48673 7.43909 6.97918
#
# Compressibility (1/GPa) = 0.01278054
#
# Stress axis : x y z
#
# Youngs Moduli (GPa) = 120.05872 96.21160 74.87925
#
# Poissons Ratio (x) = 0.31586 0.35460
# Poissons Ratio (y) = 0.39415 0.12206
# Poissons Ratio (z) = 0.56856 0.15683
#
# Static dielectric constant tensor:
#      x y z
#    x 1.968910 0.000000 0.000000 
#    y 0.000000 1.887350 0.000000 
#    z 0.000000 0.000000 2.032010 
# 
# From -- ./inp_files/60310.got.cif
#   From: 2010.05.17/outbox.cif.g08.bks.cpg/sg70_31_cif.got.tgz:60310.got - 2010.06.03 15:57:51.
