data_PCOD9516960
_publ_section_title
;
Structure prediction by ZEFSAII (Michael W. Deem and Ramdas Pophale) SiO2 
 PCOD9516960
Probable space group: F D D D
;
_chemical_formula_sum "Si O2"
_cell_formula_units_Z 112
_cell_length_a 24.145686
_cell_length_b 18.948711
_cell_length_c 9.737626
_cell_angle_alpha 90.000000
_cell_angle_beta 90.000000
_cell_angle_gamma 90.000000
_cell_volume 4455.252381
_symmetry_space_group_name_H-M "F D D D"
_symmetry_group_IT_number 70
_space_group.IT_coordinate_system_code '2'
_symmetry_cell_setting 'orthorhombic'
loop_
_space_group_symop_operation_xyz
x,y,z
1/4-x,1/4-y,z
x,1/4-y,1/4-z
1/4-x,y,1/4-z
-x,-y,-z
3/4+x,3/4+y,-z
-x,3/4+y,3/4+z
3/4+x,-y,3/4+z
x,1/2+y,1/2+z
1/4-x,3/4-y,1/2+z
x,3/4-y,3/4-z
1/4-x,1/2+y,3/4-z
-x,1/2-y,1/2-z
3/4+x,1/4+y,1/2-z
-x,1/4+y,1/4+z
3/4+x,1/2-y,1/4+z
1/2+x,y,1/2+z
3/4-x,1/4-y,1/2+z
1/2+x,1/4-y,3/4-z
3/4-x,y,3/4-z
1/2-x,-y,1/2-z
1/4+x,3/4+y,1/2-z
1/2-x,3/4+y,1/4+z
1/4+x,-y,1/4+z
1/2+x,1/2+y,z
3/4-x,3/4-y,z
1/2+x,3/4-y,1/4-z
3/4-x,1/2+y,1/4-z
1/2-x,1/2-y,-z
1/4+x,1/4+y,-z
1/2-x,1/4+y,3/4+z
1/4+x,1/2-y,3/4+z
loop_
_atom_site_type_symbol
_atom_site_label
_atom_site_fract_x
_atom_site_fract_y
_atom_site_fract_z
Si Si1 0.546699 0.256504 0.065217
Si Si2 0.423425 0.541232 0.618011
Si Si3 0.915680 0.810035 0.695357
Si Si4 0.740320 0.875000 0.875000
O O1 0.577699 0.265974 0.208961
O O2 0.481905 0.240918 0.087029
O O3 0.565912 0.194736 0.963299
O O4 0.546130 0.329681 0.979932
O O5 0.424964 0.625000 0.625000
O O6 0.373733 0.508230 0.707250
O O7 0.875000 0.875000 0.717457
O O8 0.968909 0.822491 0.790377
#
# Coordination Sequence:
#
# PCOD9516960 Si02
#       4
#    32  32  32  16
#     4  11  26  47  75 107 146 197 249 309 381 445
#     4  11  26  47  72 108 149 190 252 307 375 454
#     4  12  26  48  75 107 149 197 251 310 381 453
#     4  12  25  52  76 110 146 198 252 318 375 454
#
# _framework density 25.138867999999999
#
# number of rings (size 3 to 8) (size 9 to 14) (size 15 to 20)
#    0.000    0.571    2.857    3.857    6.000    1.143 
#    5.143    0.000    0.000    0.000    0.000    0.000 
#    0.000    0.000    0.000    0.000    0.000    0.000 
#
# Total GULP energy -156882.559559 kJ/mol
# GULP energy per Si atom -5602.948556 kJ/mol
# Density = 2.508165 g / cm^3
# Si number density = 25.138868 Si / 1000 Ang^3
#
#
#
# Elastic Constant Matrix: (Units=GPa)
#
#
# Indices 1 2 3 4 5 6 
#
# 1 43.2055 -3.6832 19.9506 0.0000 0.0000 0.0000
# 2 -3.6832 102.8864 22.2698 0.0000 0.0000 0.0000
# 3 19.9506 22.2698 138.8789 0.0000 0.0000 0.0000
# 4 0.0000 0.0000 0.0000 29.5974 0.0000 0.0000
# 5 0.0000 0.0000 0.0000 0.0000 39.9467 0.0000
# 6 0.0000 0.0000 0.0000 0.0000 0.0000 6.1008
#
#
#
# Elastic Compliance Matrix: (Units=1/GPa)
#
#
# Indices 1 2 3 4 5 6 
#
# 1 0.025086 0.001738 -0.003883 0.000000 0.000000 0.000000
# 2 0.001738 0.010189 -0.001884 0.000000 0.000000 0.000000
# 3 -0.003883 -0.001884 0.008060 0.000000 0.000000 0.000000
# 4 0.000000 0.000000 0.000000 0.033787 0.000000 0.000000
# 5 0.000000 0.000000 0.000000 0.000000 0.025033 0.000000
# 6 0.000000 0.000000 0.000000 0.000000 0.000000 0.163912
#
#
# Mechanical properties :
#
#
# Convention : Reuss Voigt Hill
#
# Bulk Modulus (GPa) = 28.34428 40.22724 34.28576
# Shear Modulus (GPa) = 17.48964 31.55789 24.52377
#
# Velocity S-wave (km/s) = 2.64051 3.54693 3.12674
# Velocity P-wave (km/s) = 4.53828 5.72809 5.16754
#
# Compressibility (1/GPa) = 0.03528048
#
# Stress axis : x y z
#
# Youngs Moduli (GPa) = 39.86251 98.14108 124.06465
#
# Poissons Ratio (x) = -0.17061 0.48168
# Poissons Ratio (y) = -0.06930 0.23369
# Poissons Ratio (z) = 0.15477 0.18486
#
# Static dielectric constant tensor:
#      x y z
#    x 2.025770 0.000000 0.000000 
#    y 0.000000 1.951030 0.000000 
#    z 0.000000 0.000000 1.981230 
# 
# From -- ./inp_files/10692.got.cif
#   From: 2010.05.17/outbox.cif.g08.bks.cpg/sg70_6_cif.got.tgz:10692.got - 2010.06.03 15:57:51.
