data_PCOD9516666
_publ_section_title
;
Structure prediction by ZEFSAII (Michael W. Deem and Ramdas Pophale) SiO2 
 PCOD9516666
Probable space group: F D D D
;
_chemical_formula_sum "Si O2"
_cell_formula_units_Z 176
_cell_length_a 25.662916
_cell_length_b 25.656627
_cell_length_c 12.069990
_cell_angle_alpha 90.000000
_cell_angle_beta 90.000000
_cell_angle_gamma 90.000000
_cell_volume 7947.169449
_symmetry_space_group_name_H-M "F D D D"
_symmetry_group_IT_number 70
_space_group.IT_coordinate_system_code '2'
_symmetry_cell_setting 'orthorhombic'
loop_
_space_group_symop_operation_xyz
x,y,z
1/4-x,1/4-y,z
x,1/4-y,1/4-z
1/4-x,y,1/4-z
-x,-y,-z
3/4+x,3/4+y,-z
-x,3/4+y,3/4+z
3/4+x,-y,3/4+z
x,1/2+y,1/2+z
1/4-x,3/4-y,1/2+z
x,3/4-y,3/4-z
1/4-x,1/2+y,3/4-z
-x,1/2-y,1/2-z
3/4+x,1/4+y,1/2-z
-x,1/4+y,1/4+z
3/4+x,1/2-y,1/4+z
1/2+x,y,1/2+z
3/4-x,1/4-y,1/2+z
1/2+x,1/4-y,3/4-z
3/4-x,y,3/4-z
1/2-x,-y,1/2-z
1/4+x,3/4+y,1/2-z
1/2-x,3/4+y,1/4+z
1/4+x,-y,1/4+z
1/2+x,1/2+y,z
3/4-x,3/4-y,z
1/2+x,3/4-y,1/4-z
3/4-x,1/2+y,1/4-z
1/2-x,1/2-y,-z
1/4+x,1/4+y,-z
1/2-x,1/4+y,3/4+z
1/4+x,1/2-y,3/4+z
loop_
_atom_site_type_symbol
_atom_site_label
_atom_site_fract_x
_atom_site_fract_y
_atom_site_fract_z
Si Si1 0.948845 0.622861 0.327091
Si Si2 0.899152 0.985978 0.751425
Si Si3 0.656193 0.413769 0.284470
Si Si4 0.011370 0.486710 0.129882
Si Si5 0.051688 0.662406 0.028809
Si Si6 0.875000 0.875000 0.663616
O O1 0.894163 0.617721 0.263475
O O2 0.945456 0.583842 0.431411
O O3 0.964170 0.679203 0.374152
O O4 0.992514 0.604198 0.243744
O O5 0.875000 0.996179 0.875000
O O6 0.958940 0.991727 0.706013
O O7 0.891039 0.924978 0.732405
O O8 0.865546 0.029423 0.683012
O O9 0.679099 0.375000 0.375000
O O10 0.051540 0.528611 0.179640
O O11 0.000000 0.500000 0.000000
O O12 0.071078 0.625000 0.125000
O O13 0.081040 0.647888 0.917363
#
# Coordination Sequence:
#
# PCOD9516666 Si02
#       6
#    32  32  32  32  32  16
#     4  11  22  43  66 102 132 179 232 283 364 418
#     4  12  24  48  69  98 140 196 234 291 369 435
#     4  11  23  42  69 101 140 174 230 295 350 429
#     4  12  23  42  74 104 138 187 237 297 368 433
#     4  12  23  44  66 101 142 177 234 296 353 431
#     4  12  28  44  68 100 140 194 244 292 356 434
#
# _framework density 22.146250999999999
#
# number of rings (size 3 to 8) (size 9 to 14) (size 15 to 20)
#    0.000    0.364    7.273    2.182    2.545    0.000 
#    6.545    1.818    0.000    0.000    0.000    0.000 
#    0.000    0.000    0.000    0.000    0.000    0.000 
#
# Total GULP energy -245461.597103 kJ/mol
# GULP energy per Si atom -5578.672661 kJ/mol
# Density = 2.209585 g / cm^3
# Si number density = 22.146251 Si / 1000 Ang^3
#
#
#
# Elastic Constant Matrix: (Units=GPa)
#
#
# Indices 1 2 3 4 5 6 
#
# 1 55.2451 11.6388 21.0909 0.0000 0.0000 0.0000
# 2 11.6388 188.1055 12.3942 0.0000 0.0000 0.0000
# 3 21.0909 12.3942 82.6493 0.0000 -0.0001 0.0000
# 4 0.0000 0.0000 0.0000 40.0016 0.0000 0.0000
# 5 0.0000 0.0000 -0.0001 0.0000 22.9171 0.0000
# 6 0.0000 0.0000 0.0000 0.0000 0.0000 30.7369
#
#
#
# Elastic Compliance Matrix: (Units=1/GPa)
#
#
# Indices 1 2 3 4 5 6 
#
# 1 0.020211 -0.000920 -0.005020 0.000000 0.000000 0.000000
# 2 -0.000920 0.005411 -0.000577 0.000000 0.000000 0.000000
# 3 -0.005020 -0.000577 0.013467 0.000000 0.000000 0.000000
# 4 0.000000 0.000000 0.000000 0.024999 0.000000 0.000000
# 5 0.000000 0.000000 0.000000 0.000000 0.043635 0.000000
# 6 0.000000 0.000000 0.000000 0.000000 0.000000 0.032534
#
#
# Mechanical properties :
#
#
# Convention : Reuss Voigt Hill
#
# Bulk Modulus (GPa) = 38.37789 46.24975 42.31382
# Shear Modulus (GPa) = 30.86881 37.45619 34.16250
#
# Velocity S-wave (km/s) = 3.73750 4.11702 3.93184
# Velocity P-wave (km/s) = 5.99934 6.59764 6.30559
#
# Compressibility (1/GPa) = 0.02605667
#
# Stress axis : x y z
#
# Youngs Moduli (GPa) = 49.47728 184.80602 74.25695
#
# Poissons Ratio (x) = 0.16999 0.37275
# Poissons Ratio (y) = 0.04551 0.04283
# Poissons Ratio (z) = 0.24836 0.10658
#
# Static dielectric constant tensor:
#      x y z
#    x 1.974810 0.000000 0.000000 
#    y 0.000000 1.828440 0.000000 
#    z 0.000000 0.000000 1.844760 
# 
# From -- ./inp_files/20958.got.cif
#   From: 2010.05.17/outbox.cif.g08.bks.cpg/sg70_11_cif.got.tgz:20958.got - 2010.06.03 15:57:51.
