data_PCOD9516914
_publ_section_title
;
Structure prediction by ZEFSAII (Michael W. Deem and Ramdas Pophale) SiO2 
 PCOD9516914
Probable space group: F D D D
;
_chemical_formula_sum "Si O2"
_cell_formula_units_Z 80
_cell_length_a 9.202446
_cell_length_b 27.954143
_cell_length_c 10.763358
_cell_angle_alpha 90.000000
_cell_angle_beta 90.000000
_cell_angle_gamma 90.000000
_cell_volume 2768.836082
_symmetry_space_group_name_H-M "F D D D"
_symmetry_group_IT_number 70
_space_group.IT_coordinate_system_code '2'
_symmetry_cell_setting 'orthorhombic'
loop_
_space_group_symop_operation_xyz
x,y,z
1/4-x,1/4-y,z
x,1/4-y,1/4-z
1/4-x,y,1/4-z
-x,-y,-z
3/4+x,3/4+y,-z
-x,3/4+y,3/4+z
3/4+x,-y,3/4+z
x,1/2+y,1/2+z
1/4-x,3/4-y,1/2+z
x,3/4-y,3/4-z
1/4-x,1/2+y,3/4-z
-x,1/2-y,1/2-z
3/4+x,1/4+y,1/2-z
-x,1/4+y,1/4+z
3/4+x,1/2-y,1/4+z
1/2+x,y,1/2+z
3/4-x,1/4-y,1/2+z
1/2+x,1/4-y,3/4-z
3/4-x,y,3/4-z
1/2-x,-y,1/2-z
1/4+x,3/4+y,1/2-z
1/2-x,3/4+y,1/4+z
1/4+x,-y,1/4+z
1/2+x,1/2+y,z
3/4-x,3/4-y,z
1/2+x,3/4-y,1/4-z
3/4-x,1/2+y,1/4-z
1/2-x,1/2-y,-z
1/4+x,1/4+y,-z
1/2-x,1/4+y,3/4+z
1/4+x,1/2-y,3/4+z
loop_
_atom_site_type_symbol
_atom_site_label
_atom_site_fract_x
_atom_site_fract_y
_atom_site_fract_z
Si Si1 0.677344 0.320797 0.824143
Si Si2 0.375000 0.508305 0.375000
Si Si3 0.601664 0.069369 0.437632
O O1 0.682534 0.375000 0.875000
O O2 0.753548 0.282933 0.914134
O O3 0.516802 0.303742 0.788440
O O4 0.768789 0.317882 0.695364
O O5 0.494167 0.543300 0.311883
O O6 0.625000 0.125000 0.462972
#
# Coordination Sequence:
#
# PCOD9516914 Si02
#       3
#    32  16  32
#     4  11  25  46  73 106 147 195 241 296 367 436
#     4  12  23  44  76 110 146 190 239 304 372 436
#     4  11  25  45  70 105 148 192 244 299 357 435
#
# _framework density 28.893007999999998
#
# number of rings (size 3 to 8) (size 9 to 14) (size 15 to 20)
#    0.000    0.800    0.000    7.800    0.000    4.000 
#    0.000    2.000    0.000    0.000    0.000    2.800 
#    0.000    0.000    0.000    0.000    0.000    0.000 
#
# Total GULP energy -112071.917230 kJ/mol
# GULP energy per Si atom -5603.595862 kJ/mol
# Density = 2.882725 g / cm^3
# Si number density = 28.893008 Si / 1000 Ang^3
#
#
#
# Elastic Constant Matrix: (Units=GPa)
#
#
# Indices 1 2 3 4 5 6 
#
# 1 380.9791 129.1561 97.6169 0.0000 0.0000 0.0000
# 2 129.1561 253.4705 51.6873 0.0000 0.0000 0.0000
# 3 97.6169 51.6873 174.7528 0.0000 0.0000 0.0000
# 4 0.0000 0.0000 0.0000 7.1039 0.0000 0.0000
# 5 0.0000 0.0000 0.0000 0.0000 59.6024 0.0000
# 6 0.0000 0.0000 0.0000 0.0000 0.0000 115.0504
#
#
#
# Elastic Compliance Matrix: (Units=1/GPa)
#
#
# Indices 1 2 3 4 5 6 
#
# 1 0.003518 -0.001481 -0.001527 0.000000 0.000000 0.000000
# 2 -0.001481 0.004822 -0.000599 0.000000 0.000000 0.000000
# 3 -0.001527 -0.000599 0.006753 0.000000 0.000000 0.000000
# 4 0.000000 0.000000 0.000000 0.140767 0.000000 0.000000
# 5 0.000000 0.000000 0.000000 0.000000 0.016778 0.000000
# 6 0.000000 0.000000 0.000000 0.000000 0.000000 0.008692
#
#
# Mechanical properties :
#
#
# Convention : Reuss Voigt Hill
#
# Bulk Modulus (GPa) = 126.92940 151.79144 139.36042
# Shear Modulus (GPa) = 26.15462 71.73416 48.94439
#
# Velocity S-wave (km/s) = 3.01196 4.98813 4.12027
# Velocity P-wave (km/s) = 7.49147 9.26418 8.42458
#
# Compressibility (1/GPa) = 0.00787840
#
# Stress axis : x y z
#
# Youngs Moduli (GPa) = 284.22726 207.37622 148.09193
#
# Poissons Ratio (x) = 0.30719 0.22616
# Poissons Ratio (y) = 0.42104 0.08868
# Poissons Ratio (z) = 0.43407 0.12417
#
# Static dielectric constant tensor:
#      x y z
#    x 2.650270 0.000000 0.000000 
#    y 0.000000 2.127600 0.000000 
#    z 0.000000 0.000000 1.481370 
# 
# From -- ./inp_files/24148.got.cif
#   From: 2010.05.17/outbox.cif.g08.bks.cpg/sg70_13_cif.got.tgz:24148.got - 2010.06.03 15:57:51.
