data_PCOD9516546
_publ_section_title
;
Structure prediction by ZEFSAII (Michael W. Deem and Ramdas Pophale) SiO2 
 PCOD9516546
Probable space group: F D D D
;
_chemical_formula_sum "Si O2"
_cell_formula_units_Z 112
_cell_length_a 29.588608
_cell_length_b 8.906420
_cell_length_c 16.475750
_cell_angle_alpha 90.000000
_cell_angle_beta 90.000000
_cell_angle_gamma 90.000000
_cell_volume 4341.830838
_symmetry_space_group_name_H-M "F D D D"
_symmetry_group_IT_number 70
_space_group.IT_coordinate_system_code '2'
_symmetry_cell_setting 'orthorhombic'
loop_
_space_group_symop_operation_xyz
x,y,z
1/4-x,1/4-y,z
x,1/4-y,1/4-z
1/4-x,y,1/4-z
-x,-y,-z
3/4+x,3/4+y,-z
-x,3/4+y,3/4+z
3/4+x,-y,3/4+z
x,1/2+y,1/2+z
1/4-x,3/4-y,1/2+z
x,3/4-y,3/4-z
1/4-x,1/2+y,3/4-z
-x,1/2-y,1/2-z
3/4+x,1/4+y,1/2-z
-x,1/4+y,1/4+z
3/4+x,1/2-y,1/4+z
1/2+x,y,1/2+z
3/4-x,1/4-y,1/2+z
1/2+x,1/4-y,3/4-z
3/4-x,y,3/4-z
1/2-x,-y,1/2-z
1/4+x,3/4+y,1/2-z
1/2-x,3/4+y,1/4+z
1/4+x,-y,1/4+z
1/2+x,1/2+y,z
3/4-x,3/4-y,z
1/2+x,3/4-y,1/4-z
3/4-x,1/2+y,1/4-z
1/2-x,1/2-y,-z
1/4+x,1/4+y,-z
1/2-x,1/4+y,3/4+z
1/4+x,1/2-y,3/4+z
loop_
_atom_site_type_symbol
_atom_site_label
_atom_site_fract_x
_atom_site_fract_y
_atom_site_fract_z
Si Si1 0.800808 0.375000 0.875000
Si Si2 0.111930 0.295834 0.032329
Si Si3 0.834183 0.794231 0.204571
Si Si4 0.019306 0.955011 0.158489
O O1 0.828050 0.369210 0.959005
O O2 0.775966 0.538705 0.883037
O O3 0.125000 0.345683 0.125000
O O4 0.145297 0.383293 0.973986
O O5 0.057776 0.308186 0.021584
O O6 0.125000 0.125000 0.029276
O O7 0.875000 0.875000 0.158047
O O8 0.783908 0.789641 0.172296
O O9 0.030154 0.125000 0.125000
#
# Coordination Sequence:
#
# PCOD9516546 Si02
#       4
#    16  32  32  32
#     4  12  23  44  76  94 138 180 234 286 329 414
#     4  11  20  41  71 100 131 180 236 281 336 408
#     4  12  24  44  70 105 137 181 232 289 344 406
#     4  12  26  45  69 106 139 178 235 283 346 415
#
# _framework density 25.795572
#
# number of rings (size 3 to 8) (size 9 to 14) (size 15 to 20)
#    0.000    0.286    8.571    1.286    0.000    4.571 
#    2.571    0.000    0.000    0.000    0.000    0.000 
#    0.000    0.000    0.000    0.000    0.000    0.000 
#
# Total GULP energy -156208.201426 kJ/mol
# GULP energy per Si atom -5578.864337 kJ/mol
# Density = 2.573686 g / cm^3
# Si number density = 25.795572 Si / 1000 Ang^3
#
#
#
# Elastic Constant Matrix: (Units=GPa)
#
#
# Indices 1 2 3 4 5 6 
#
# 1 274.8005 85.4716 19.3633 0.0000 0.0000 0.0000
# 2 85.4716 216.3932 18.0345 0.0000 0.0000 0.0000
# 3 19.3633 18.0345 42.0126 0.0000 0.0000 0.0000
# 4 0.0000 0.0000 0.0000 15.1110 0.0000 0.0000
# 5 0.0000 0.0000 0.0000 0.0000 17.2945 0.0000
# 6 0.0000 0.0000 0.0000 0.0000 0.0000 35.8970
#
#
#
# Elastic Compliance Matrix: (Units=1/GPa)
#
#
# Indices 1 2 3 4 5 6 
#
# 1 0.004213 -0.001558 -0.001273 0.000000 0.000000 0.000000
# 2 -0.001558 0.005369 -0.001587 0.000000 0.000000 0.000000
# 3 -0.001273 -0.001587 0.025070 0.000000 0.000000 0.000000
# 4 0.000000 0.000000 0.000000 0.066177 0.000000 0.000000
# 5 0.000000 0.000000 0.000000 0.000000 0.057822 0.000000
# 6 0.000000 0.000000 0.000000 0.000000 0.000000 0.027858
#
#
# Mechanical properties :
#
#
# Convention : Reuss Voigt Hill
#
# Bulk Modulus (GPa) = 38.73425 86.54947 62.64186
# Shear Modulus (GPa) = 24.51583 41.01628 32.76605
#
# Velocity S-wave (km/s) = 3.08618 3.99187 3.56788
# Velocity P-wave (km/s) = 5.26762 7.40754 6.42726
#
# Compressibility (1/GPa) = 0.02581695
#
# Stress axis : x y z
#
# Youngs Moduli (GPa) = 237.34243 186.25925 39.88807
#
# Poissons Ratio (x) = 0.29021 0.05078
# Poissons Ratio (y) = 0.36980 0.06328
# Poissons Ratio (z) = 0.30215 0.29551
#
# Static dielectric constant tensor:
#      x y z
#    x 2.019840 0.000000 0.000000 
#    y 0.000000 2.130250 0.000000 
#    z 0.000000 0.000000 2.113090 
# 
# From -- ./inp_files/10699.got.cif
#   From: 2010.05.17/outbox.cif.g08.bks.cpg/sg70_6_cif.got.tgz:10699.got - 2010.06.03 15:57:51.
