data_PCOD9516527
_publ_section_title
;
Structure prediction by ZEFSAII (Michael W. Deem and Ramdas Pophale) SiO2 
 PCOD9516527
Probable space group: F D D D
;
_chemical_formula_sum "Si O2"
_cell_formula_units_Z 192
_cell_length_a 19.126115
_cell_length_b 21.032374
_cell_length_c 20.430080
_cell_angle_alpha 90.000000
_cell_angle_beta 90.000000
_cell_angle_gamma 90.000000
_cell_volume 8218.359328
_symmetry_space_group_name_H-M "F D D D"
_symmetry_group_IT_number 70
_space_group.IT_coordinate_system_code '2'
_symmetry_cell_setting 'orthorhombic'
loop_
_space_group_symop_operation_xyz
x,y,z
1/4-x,1/4-y,z
x,1/4-y,1/4-z
1/4-x,y,1/4-z
-x,-y,-z
3/4+x,3/4+y,-z
-x,3/4+y,3/4+z
3/4+x,-y,3/4+z
x,1/2+y,1/2+z
1/4-x,3/4-y,1/2+z
x,3/4-y,3/4-z
1/4-x,1/2+y,3/4-z
-x,1/2-y,1/2-z
3/4+x,1/4+y,1/2-z
-x,1/4+y,1/4+z
3/4+x,1/2-y,1/4+z
1/2+x,y,1/2+z
3/4-x,1/4-y,1/2+z
1/2+x,1/4-y,3/4-z
3/4-x,y,3/4-z
1/2-x,-y,1/2-z
1/4+x,3/4+y,1/2-z
1/2-x,3/4+y,1/4+z
1/4+x,-y,1/4+z
1/2+x,1/2+y,z
3/4-x,3/4-y,z
1/2+x,3/4-y,1/4-z
3/4-x,1/2+y,1/4-z
1/2-x,1/2-y,-z
1/4+x,1/4+y,-z
1/2-x,1/4+y,3/4+z
1/4+x,1/2-y,3/4+z
loop_
_atom_site_type_symbol
_atom_site_label
_atom_site_fract_x
_atom_site_fract_y
_atom_site_fract_z
Si Si1 0.310101 0.453058 0.556453
Si Si2 0.296230 0.108253 0.350981
Si Si3 0.339278 0.083691 0.025892
Si Si4 0.264054 0.875000 0.375000
Si Si5 0.935617 0.962636 0.658712
Si Si6 0.485506 0.146161 0.056970
Si Si7 0.625000 0.125000 0.728746
O O1 0.246613 0.446050 0.610523
O O2 0.327030 0.511189 0.505770
O O3 0.377593 0.452431 0.602900
O O4 0.286712 0.399435 0.504570
O O5 0.375000 0.109767 0.375000
O O6 0.306842 0.113207 0.272298
O O7 0.253021 0.172811 0.363967
O O8 0.290553 0.079220 0.090111
O O9 0.418616 0.101585 0.040651
O O10 0.315467 0.901473 0.319560
O O11 0.907013 0.928079 0.724218
O O12 0.951784 0.034621 0.677767
O O13 0.519068 0.125000 0.125000
#
# Coordination Sequence:
#
# PCOD9516527 Si02
#       7
#    32  32  32  16  32  32  16
#     4  12  24  45  78 108 155 203 254 323 392 459
#     4  12  25  45  75 110 151 209 265 313 388 471
#     4  12  23  44  71 109 152 200 259 313 388 467
#     4  11  20  38  62 104 154 185 246 310 373 442
#     4  12  23  47  74 106 158 201 257 324 378 469
#     4  12  25  44  76 110 149 197 255 324 390 453
#     4  11  22  36  68 106 145 202 248 302 381 472
#
# _framework density 23.362328000000002
#
# number of rings (size 3 to 8) (size 9 to 14) (size 15 to 20)
#    0.000    0.167    9.167    0.000    0.000    1.333 
#    3.000    8.333    0.000    0.000    0.000    0.000 
#    0.000    0.000    0.000    0.000    0.000    0.000 
#
# Total GULP energy -267686.050550 kJ/mol
# GULP energy per Si atom -5576.792720 kJ/mol
# Density = 2.330915 g / cm^3
# Si number density = 23.362328 Si / 1000 Ang^3
#
#
#
# Elastic Constant Matrix: (Units=GPa)
#
#
# Indices 1 2 3 4 5 6 
#
# 1 123.4977 22.3449 18.7672 0.0000 0.0000 0.0000
# 2 22.3449 71.1496 20.2691 0.0000 0.0000 0.0000
# 3 18.7672 20.2691 118.1891 0.0000 0.0000 0.0000
# 4 0.0000 0.0000 0.0000 27.5059 0.0000 0.0000
# 5 0.0000 0.0000 0.0000 0.0000 36.9627 0.0000
# 6 0.0000 0.0000 0.0000 0.0000 0.0000 19.6883
#
#
#
# Elastic Compliance Matrix: (Units=1/GPa)
#
#
# Indices 1 2 3 4 5 6 
#
# 1 0.008687 -0.002455 -0.000958 0.000000 0.000000 0.000000
# 2 -0.002455 0.015471 -0.002263 0.000000 0.000000 0.000000
# 3 -0.000958 -0.002263 0.009001 0.000000 0.000000 0.000000
# 4 0.000000 0.000000 0.000000 0.036356 0.000000 0.000000
# 5 0.000000 0.000000 0.000000 0.000000 0.027054 0.000000
# 6 0.000000 0.000000 0.000000 0.000000 0.000000 0.050792
#
#
# Mechanical properties :
#
#
# Convention : Reuss Voigt Hill
#
# Bulk Modulus (GPa) = 45.86015 48.39987 47.13001
# Shear Modulus (GPa) = 30.12352 33.59507 31.85930
#
# Velocity S-wave (km/s) = 3.59473 3.79621 3.69684
# Velocity P-wave (km/s) = 6.07470 6.32274 6.19996
#
# Compressibility (1/GPa) = 0.02180542
#
# Stress axis : x y z
#
# Youngs Moduli (GPa) = 115.11205 64.63812 111.09439
#
# Poissons Ratio (x) = 0.15870 0.10647
# Poissons Ratio (y) = 0.28263 0.25144
# Poissons Ratio (z) = 0.11032 0.14630
#
# Static dielectric constant tensor:
#      x y z
#    x 1.871940 0.000000 0.000000 
#    y 0.000000 2.237650 0.000000 
#    z 0.000000 0.000000 1.931890 
# 
# From -- ./inp_files/45001.got.cif
#   From: 2010.05.17/outbox.cif.g08.bks.cpg/sg70_23_cif.got.tgz:45001.got - 2010.06.03 15:57:51.
