data_PCOD9516630
_publ_section_title
;
Structure prediction by ZEFSAII (Michael W. Deem and Ramdas Pophale) SiO2 
 PCOD9516630
Probable space group: F D D D
;
_chemical_formula_sum "Si O2"
_cell_formula_units_Z 144
_cell_length_a 22.909628
_cell_length_b 10.967729
_cell_length_c 24.493566
_cell_angle_alpha 90.000000
_cell_angle_beta 90.000000
_cell_angle_gamma 90.000000
_cell_volume 6154.414840
_symmetry_space_group_name_H-M "F D D D"
_symmetry_group_IT_number 70
_space_group.IT_coordinate_system_code '2'
_symmetry_cell_setting 'orthorhombic'
loop_
_space_group_symop_operation_xyz
x,y,z
1/4-x,1/4-y,z
x,1/4-y,1/4-z
1/4-x,y,1/4-z
-x,-y,-z
3/4+x,3/4+y,-z
-x,3/4+y,3/4+z
3/4+x,-y,3/4+z
x,1/2+y,1/2+z
1/4-x,3/4-y,1/2+z
x,3/4-y,3/4-z
1/4-x,1/2+y,3/4-z
-x,1/2-y,1/2-z
3/4+x,1/4+y,1/2-z
-x,1/4+y,1/4+z
3/4+x,1/2-y,1/4+z
1/2+x,y,1/2+z
3/4-x,1/4-y,1/2+z
1/2+x,1/4-y,3/4-z
3/4-x,y,3/4-z
1/2-x,-y,1/2-z
1/4+x,3/4+y,1/2-z
1/2-x,3/4+y,1/4+z
1/4+x,-y,1/4+z
1/2+x,1/2+y,z
3/4-x,3/4-y,z
1/2+x,3/4-y,1/4-z
3/4-x,1/2+y,1/4-z
1/2-x,1/2-y,-z
1/4+x,1/4+y,-z
1/2-x,1/4+y,3/4+z
1/4+x,1/2-y,3/4+z
loop_
_atom_site_type_symbol
_atom_site_label
_atom_site_fract_x
_atom_site_fract_y
_atom_site_fract_z
Si Si1 0.733516 0.560525 0.460239
Si Si2 0.125000 0.625000 0.216732
Si Si3 0.506331 0.478989 0.624850
Si Si4 0.589370 0.740502 0.962510
Si Si5 0.125000 0.433274 0.125000
Si Si6 0.675756 0.375000 0.375000
O O1 0.678900 0.568341 0.500920
O O2 0.733284 0.693998 0.433908
O O3 0.796012 0.540452 0.489907
O O4 0.715775 0.467809 0.411020
O O5 0.142637 0.516435 0.176465
O O6 0.515748 0.625000 0.625000
O O7 0.457538 0.447586 0.668239
O O8 0.561016 0.389084 0.638845
O O9 0.625000 0.625000 0.984586
O O10 0.633402 0.819629 0.923494
#
# Coordination Sequence:
#
# PCOD9516630 Si02
#       6
#    32  16  32  32  16  16
#     4  12  28  46  76 107 153 205 249 314 391 457
#     4  11  22  42  66 108 138 186 242 313 388 442
#     4  12  23  44  72 111 149 185 250 318 383 456
#     4  12  26  49  77 110 154 210 252 318 392 465
#     4  11  22  40  66 109 148 169 246 318 377 456
#     4  12  28  50  71 111 154 192 264 314 372 480
#
# _framework density 23.397839000000001
#
# number of rings (size 3 to 8) (size 9 to 14) (size 15 to 20)
#    0.000    0.222    7.778    1.333    3.111    2.667 
#    4.000    0.000    0.000    0.000    0.000    0.000 
#    0.000    0.000    0.000    0.000    0.000    0.000 
#
# Total GULP energy -200496.095703 kJ/mol
# GULP energy per Si atom -5569.335992 kJ/mol
# Density = 2.334458 g / cm^3
# Si number density = 23.397839 Si / 1000 Ang^3
#
#
#
# Elastic Constant Matrix: (Units=GPa)
#
#
# Indices 1 2 3 4 5 6 
#
# 1 125.6707 51.9477 40.1146 0.0000 0.0000 0.0000
# 2 51.9477 65.8188 59.6744 0.0000 0.0000 0.0000
# 3 40.1146 59.6744 127.6878 0.0000 0.0000 0.0000
# 4 0.0000 0.0000 0.0000 -8.6610 0.0000 0.0000
# 5 0.0000 0.0000 0.0000 0.0000 8.0913 0.0000
# 6 0.0000 0.0000 0.0000 0.0000 0.0000 12.4402
#
#
#
# Elastic Compliance Matrix: (Units=1/GPa)
#
#
# Indices 1 2 3 4 5 6 
#
# 1 0.011904 -0.010419 0.001130 0.000000 0.000000 0.000000
# 2 -0.010419 0.035484 -0.013310 0.000000 0.000000 0.000000
# 3 0.001130 -0.013310 0.013697 0.000000 0.000000 0.000000
# 4 0.000000 0.000000 0.000000 -0.115461 0.000000 0.000000
# 5 0.000000 0.000000 0.000000 0.000000 0.123590 0.000000
# 6 0.000000 0.000000 0.000000 0.000000 0.000000 0.080385
#
#
# Mechanical properties :
#
#
# Convention : Reuss Voigt Hill
#
# Bulk Modulus (GPa) = 62.94953 69.18340 66.06646
# Shear Modulus (GPa) = 24.98835 13.53680 19.26258
#
# Velocity S-wave (km/s) = 3.27154 2.40791 2.87237
# Velocity P-wave (km/s) = 6.42129 6.11255 6.26882
#
# Compressibility (1/GPa) = 0.01588574
#
# Stress axis : x y z
#
# Youngs Moduli (GPa) = 84.00804 28.18157 73.00817
#
# Poissons Ratio (x) = 0.29363 -0.08248
# Poissons Ratio (y) = 0.87530 0.97174
# Poissons Ratio (z) = -0.09491 0.37510
#
# Static dielectric constant tensor:
#      x y z
#    x 2.135570 0.000000 0.000000 
#    y 0.000000 1.959130 0.000000 
#    z 0.000000 0.000000 1.970130 
# 
# From -- ./inp_files/61007.got.cif
#   From: 2010.05.17/outbox.cif.g08.bks.cpg/sg70_31_cif.got.tgz:61007.got - 2010.06.03 15:57:51.
