data_PCOD9516750
_publ_section_title
;
Structure prediction by ZEFSAII (Michael W. Deem and Ramdas Pophale) SiO2 
 PCOD9516750
Probable space group: F D D D
;
_chemical_formula_sum "Si O2"
_cell_formula_units_Z 144
_cell_length_a 12.782270
_cell_length_b 33.257104
_cell_length_c 16.991354
_cell_angle_alpha 90.000000
_cell_angle_beta 90.000000
_cell_angle_gamma 90.000000
_cell_volume 7223.046381
_symmetry_space_group_name_H-M "F D D D"
_symmetry_group_IT_number 70
_space_group.IT_coordinate_system_code '2'
_symmetry_cell_setting 'orthorhombic'
loop_
_space_group_symop_operation_xyz
x,y,z
1/4-x,1/4-y,z
x,1/4-y,1/4-z
1/4-x,y,1/4-z
-x,-y,-z
3/4+x,3/4+y,-z
-x,3/4+y,3/4+z
3/4+x,-y,3/4+z
x,1/2+y,1/2+z
1/4-x,3/4-y,1/2+z
x,3/4-y,3/4-z
1/4-x,1/2+y,3/4-z
-x,1/2-y,1/2-z
3/4+x,1/4+y,1/2-z
-x,1/4+y,1/4+z
3/4+x,1/2-y,1/4+z
1/2+x,y,1/2+z
3/4-x,1/4-y,1/2+z
1/2+x,1/4-y,3/4-z
3/4-x,y,3/4-z
1/2-x,-y,1/2-z
1/4+x,3/4+y,1/2-z
1/2-x,3/4+y,1/4+z
1/4+x,-y,1/4+z
1/2+x,1/2+y,z
3/4-x,3/4-y,z
1/2+x,3/4-y,1/4-z
3/4-x,1/2+y,1/4-z
1/2-x,1/2-y,-z
1/4+x,1/4+y,-z
1/2-x,1/4+y,3/4+z
1/4+x,1/2-y,3/4+z
loop_
_atom_site_type_symbol
_atom_site_label
_atom_site_fract_x
_atom_site_fract_y
_atom_site_fract_z
Si Si1 0.241594 0.672250 0.799589
Si Si2 0.939843 0.708227 0.606560
Si Si3 0.752921 0.080923 0.763101
Si Si4 0.375000 0.521175 0.875000
Si Si5 0.263370 0.244927 0.406983
O O1 0.313131 0.690067 0.730391
O O2 0.266165 0.625060 0.800321
O O3 0.120355 0.677804 0.774021
O O4 0.254254 0.698824 0.877479
O O5 0.831748 0.729527 0.629424
O O6 0.971863 0.674913 0.670924
O O7 0.029334 0.742231 0.602475
O O8 0.826800 0.049376 0.807570
O O9 0.375000 0.259678 0.375000
O O10 0.250000 0.250000 0.500000
#
# Coordination Sequence:
#
# PCOD9516750 Si02
#       5
#    32  32  32  16  32
#     4  11  23  43  63  98 135 176 220 287 348 410
#     4  12  22  41  68  97 133 170 226 280 345 404
#     4  11  24  38  67  99 135 170 220 289 349 402
#     4  12  22  36  63 100 124 162 216 274 331 402
#     4  12  26  43  69  94 135 187 237 277 340 429
#
# _framework density 19.936187
#
# number of rings (size 3 to 8) (size 9 to 14) (size 15 to 20)
#    0.000    0.444    6.667    2.667    1.556    1.778 
#    0.000    0.000    0.000    2.667    0.000    0.000 
#    0.000    0.000    0.000    0.000    0.000    0.000 
#
# Total GULP energy -201165.767056 kJ/mol
# GULP energy per Si atom -5587.937974 kJ/mol
# Density = 1.989081 g / cm^3
# Si number density = 19.936187 Si / 1000 Ang^3
#
#
#
# Elastic Constant Matrix: (Units=GPa)
#
#
# Indices 1 2 3 4 5 6 
#
# 1 126.9845 36.9770 2.1686 0.0000 0.0000 0.0000
# 2 36.9770 102.9431 47.1179 0.0000 0.0000 0.0000
# 3 2.1686 47.1179 110.2993 0.0000 0.0000 0.0000
# 4 0.0000 0.0000 0.0000 24.2222 0.0000 0.0000
# 5 0.0000 0.0000 0.0000 0.0000 31.9087 0.0000
# 6 0.0000 0.0000 0.0000 0.0000 0.0000 13.8575
#
#
#
# Elastic Compliance Matrix: (Units=1/GPa)
#
#
# Indices 1 2 3 4 5 6 
#
# 1 0.008989 -0.003913 0.001495 0.000000 0.000000 0.000000
# 2 -0.003913 0.013778 -0.005809 0.000000 0.000000 0.000000
# 3 0.001495 -0.005809 0.011518 0.000000 0.000000 0.000000
# 4 0.000000 0.000000 0.000000 0.041284 0.000000 0.000000
# 5 0.000000 0.000000 0.000000 0.000000 0.031339 0.000000
# 6 0.000000 0.000000 0.000000 0.000000 0.000000 0.072163
#
#
# Mechanical properties :
#
#
# Convention : Reuss Voigt Hill
#
# Bulk Modulus (GPa) = 56.08081 56.97264 56.52673
# Shear Modulus (GPa) = 24.81752 30.92858 27.87305
#
# Velocity S-wave (km/s) = 3.53207 3.94303 3.74319
# Velocity P-wave (km/s) = 6.69516 7.02634 6.86275
#
# Compressibility (1/GPa) = 0.01783141
#
# Stress axis : x y z
#
# Youngs Moduli (GPa) = 111.24851 72.57705 86.81805
#
# Poissons Ratio (x) = 0.28399 -0.12978
# Poissons Ratio (y) = 0.43531 0.50432
# Poissons Ratio (z) = -0.16630 0.42160
#
# Static dielectric constant tensor:
#      x y z
#    x 1.714190 0.000000 0.000000 
#    y 0.000000 1.706390 0.000000 
#    z 0.000000 0.000000 1.725550 
# 
# From -- ./inp_files/33921.got.cif
#   From: 2010.05.17/outbox.cif.g08.bks.cpg/sg70_17_cif.got.tgz:33921.got - 2010.06.03 15:57:51.
