data_PCOD9516494
_publ_section_title
;
Structure prediction by ZEFSAII (Michael W. Deem and Ramdas Pophale) SiO2 
 PCOD9516494
Probable space group: F D D D
;
_chemical_formula_sum "Si O2"
_cell_formula_units_Z 160
_cell_length_a 23.567061
_cell_length_b 19.396008
_cell_length_c 16.938264
_cell_angle_alpha 90.000000
_cell_angle_beta 90.000000
_cell_angle_gamma 90.000000
_cell_volume 7742.597411
_symmetry_space_group_name_H-M "F D D D"
_symmetry_group_IT_number 70
_space_group.IT_coordinate_system_code '2'
_symmetry_cell_setting 'orthorhombic'
loop_
_space_group_symop_operation_xyz
x,y,z
1/4-x,1/4-y,z
x,1/4-y,1/4-z
1/4-x,y,1/4-z
-x,-y,-z
3/4+x,3/4+y,-z
-x,3/4+y,3/4+z
3/4+x,-y,3/4+z
x,1/2+y,1/2+z
1/4-x,3/4-y,1/2+z
x,3/4-y,3/4-z
1/4-x,1/2+y,3/4-z
-x,1/2-y,1/2-z
3/4+x,1/4+y,1/2-z
-x,1/4+y,1/4+z
3/4+x,1/2-y,1/4+z
1/2+x,y,1/2+z
3/4-x,1/4-y,1/2+z
1/2+x,1/4-y,3/4-z
3/4-x,y,3/4-z
1/2-x,-y,1/2-z
1/4+x,3/4+y,1/2-z
1/2-x,3/4+y,1/4+z
1/4+x,-y,1/4+z
1/2+x,1/2+y,z
3/4-x,3/4-y,z
1/2+x,3/4-y,1/4-z
3/4-x,1/2+y,1/4-z
1/2-x,1/2-y,-z
1/4+x,1/4+y,-z
1/2-x,1/4+y,3/4+z
1/4+x,1/2-y,3/4+z
loop_
_atom_site_type_symbol
_atom_site_label
_atom_site_fract_x
_atom_site_fract_y
_atom_site_fract_z
Si Si1 0.655981 0.434613 0.937873
Si Si2 0.506989 0.074860 0.301552
Si Si3 0.824441 0.569976 0.316647
Si Si4 0.843347 0.016731 0.455047
Si Si5 0.801135 0.275156 0.056689
O O1 0.644045 0.375000 0.875000
O O2 0.691920 0.493274 0.893410
O O3 0.699485 0.405427 0.003790
O O4 0.597657 0.455565 0.981775
O O5 0.483265 0.050518 0.387196
O O6 0.544578 0.143056 0.311270
O O7 0.541446 0.023502 0.245196
O O8 0.875000 0.547170 0.375000
O O9 0.826159 0.653842 0.309907
O O10 0.875000 0.990945 0.375000
O O11 0.892472 0.003460 0.517299
O O12 0.750000 0.250000 0.000000
#
# Coordination Sequence:
#
# PCOD9516494 Si02
#       5
#    32  32  32  32  32
#     4  11  19  35  59  76 110 159 192 228 293 361
#     4  11  22  34  54  84 118 146 188 248 296 346
#     4   9  19  38  55  79 113 154 195 231 281 367
#     4  11  22  35  55  86 123 152 189 241 303 364
#     4  12  21  34  55  85 115 150 194 240 300 358
#
# _framework density 20.664898999999998
#
# number of rings (size 3 to 8) (size 9 to 14) (size 15 to 20)
#    0.000    1.200    4.000    5.400    0.000    0.800 
#    0.000    1.000    0.000    0.000    0.000    0.000 
#    0.000    0.000    0.000    0.000    0.000    0.000 
#
# Total GULP energy -222792.374802 kJ/mol
# GULP energy per Si atom -5569.809370 kJ/mol
# Density = 2.061787 g / cm^3
# Si number density = 20.664899 Si / 1000 Ang^3
#
#
#
# Elastic Constant Matrix: (Units=GPa)
#
#
# Indices 1 2 3 4 5 6 
#
# 1 101.0380 15.3828 52.2611 0.0000 0.0000 0.0000
# 2 15.3828 37.1595 22.9200 0.0000 0.0000 0.0000
# 3 52.2611 22.9200 103.2261 0.0000 0.0000 0.0000
# 4 0.0000 0.0000 0.0000 24.9301 0.0000 0.0000
# 5 0.0000 0.0000 0.0000 0.0000 50.3087 0.0000
# 6 0.0000 0.0000 0.0000 0.0000 0.0000 13.8330
#
#
#
# Elastic Compliance Matrix: (Units=1/GPa)
#
#
# Indices 1 2 3 4 5 6 
#
# 1 0.013489 -0.001589 -0.006476 0.000000 0.000000 0.000000
# 2 -0.001589 0.031369 -0.006160 0.000000 0.000000 0.000000
# 3 -0.006476 -0.006160 0.014334 0.000000 0.000000 0.000000
# 4 0.000000 0.000000 0.000000 0.040112 0.000000 0.000000
# 5 0.000000 0.000000 0.000000 0.000000 0.019877 0.000000
# 6 0.000000 0.000000 0.000000 0.000000 0.000000 0.072291
#
#
# Mechanical properties :
#
#
# Convention : Reuss Voigt Hill
#
# Bulk Modulus (GPa) = 32.53121 46.95019 39.74070
# Shear Modulus (GPa) = 21.72297 27.87166 24.79732
#
# Velocity S-wave (km/s) = 3.24574 3.67651 3.46782
# Velocity P-wave (km/s) = 5.46103 6.38681 5.94198
#
# Compressibility (1/GPa) = 0.03073971
#
# Stress axis : x y z
#
# Youngs Moduli (GPa) = 74.13414 31.87896 69.76376
#
# Poissons Ratio (x) = 0.05067 0.45181
# Poissons Ratio (y) = 0.11783 0.42977
# Poissons Ratio (z) = 0.48011 0.19638
#
# Static dielectric constant tensor:
#      x y z
#    x 1.801240 0.000000 0.000000 
#    y 0.000000 1.659560 0.000000 
#    z 0.000000 0.000000 1.154990 
# 
# From -- ./inp_files/28641.got.cif
#   From: 2010.05.17/outbox.cif.g08.bks.cpg/sg70_15_cif.got.tgz:28641.got - 2010.06.03 15:57:51.
