data_PCOD9516670
_publ_section_title
;
Structure prediction by ZEFSAII (Michael W. Deem and Ramdas Pophale) SiO2 
 PCOD9516670
Probable space group: F D D D
;
_chemical_formula_sum "Si O2"
_cell_formula_units_Z 160
_cell_length_a 21.811855
_cell_length_b 19.084576
_cell_length_c 18.452207
_cell_angle_alpha 90.000000
_cell_angle_beta 90.000000
_cell_angle_gamma 90.000000
_cell_volume 7681.100290
_symmetry_space_group_name_H-M "F D D D"
_symmetry_group_IT_number 70
_space_group.IT_coordinate_system_code '2'
_symmetry_cell_setting 'orthorhombic'
loop_
_space_group_symop_operation_xyz
x,y,z
1/4-x,1/4-y,z
x,1/4-y,1/4-z
1/4-x,y,1/4-z
-x,-y,-z
3/4+x,3/4+y,-z
-x,3/4+y,3/4+z
3/4+x,-y,3/4+z
x,1/2+y,1/2+z
1/4-x,3/4-y,1/2+z
x,3/4-y,3/4-z
1/4-x,1/2+y,3/4-z
-x,1/2-y,1/2-z
3/4+x,1/4+y,1/2-z
-x,1/4+y,1/4+z
3/4+x,1/2-y,1/4+z
1/2+x,y,1/2+z
3/4-x,1/4-y,1/2+z
1/2+x,1/4-y,3/4-z
3/4-x,y,3/4-z
1/2-x,-y,1/2-z
1/4+x,3/4+y,1/2-z
1/2-x,3/4+y,1/4+z
1/4+x,-y,1/4+z
1/2+x,1/2+y,z
3/4-x,3/4-y,z
1/2+x,3/4-y,1/4-z
3/4-x,1/2+y,1/4-z
1/2-x,1/2-y,-z
1/4+x,1/4+y,-z
1/2-x,1/4+y,3/4+z
1/4+x,1/2-y,3/4+z
loop_
_atom_site_type_symbol
_atom_site_label
_atom_site_fract_x
_atom_site_fract_y
_atom_site_fract_z
Si Si1 0.892004 0.450284 0.168633
Si Si2 0.533583 0.425773 0.516020
Si Si3 0.211626 0.936672 0.573222
Si Si4 0.149342 0.853545 0.453613
Si Si5 0.329049 0.928415 0.011362
O O1 0.875000 0.375000 0.203303
O O2 0.868394 0.521724 0.204438
O O3 0.860710 0.447349 0.088385
O O4 0.965587 0.449830 0.166775
O O5 0.500000 0.500000 0.500000
O O6 0.562154 0.428784 0.595660
O O7 0.587117 0.400353 0.462500
O O8 0.483069 0.364874 0.520243
O O9 0.194479 0.873482 0.519304
O O10 0.183658 0.003733 0.534261
O O11 0.175719 0.875000 0.375000
O O12 0.375000 0.875000 0.972828
#
# Coordination Sequence:
#
# PCOD9516670 Si02
#       5
#    32  32  32  32  32
#     4  11  23  46  71 103 144 192 243 304 352 438
#     4  12  25  43  73 108 147 190 240 307 372 443
#     4  12  24  45  75 105 143 194 241 297 375 442
#     4  12  25  43  72 107 147 190 243 302 365 432
#     4  11  22  43  72 103 146 187 238 296 372 435
#
# _framework density 20.830349999999999
#
# number of rings (size 3 to 8) (size 9 to 14) (size 15 to 20)
#    0.000    0.400    8.000    3.000    0.000    0.800 
#    0.000    1.000    0.000    0.000    0.000    0.000 
#    0.000    0.000    0.000    0.000    0.000    0.000 
#
# Total GULP energy -223654.957623 kJ/mol
# GULP energy per Si atom -5591.373941 kJ/mol
# Density = 2.078294 g / cm^3
# Si number density = 20.830350 Si / 1000 Ang^3
#
#
#
# Elastic Constant Matrix: (Units=GPa)
#
#
# Indices 1 2 3 4 5 6 
#
# 1 71.9629 10.5760 18.6450 0.0000 0.0000 0.0000
# 2 10.5760 144.4629 33.7595 0.0000 0.0000 0.0000
# 3 18.6450 33.7595 105.0229 0.0000 0.0000 0.0000
# 4 0.0000 0.0000 0.0000 17.1486 0.0000 0.0000
# 5 0.0000 0.0000 0.0000 0.0000 30.7458 0.0000
# 6 0.0000 0.0000 0.0000 0.0000 0.0000 43.4604
#
#
#
# Elastic Compliance Matrix: (Units=1/GPa)
#
#
# Indices 1 2 3 4 5 6 
#
# 1 0.014599 -0.000501 -0.002431 0.000000 0.000000 0.000000
# 2 -0.000501 0.007502 -0.002322 0.000000 0.000000 0.000000
# 3 -0.002431 -0.002322 0.010700 0.000000 0.000000 0.000000
# 4 0.000000 0.000000 0.000000 0.058314 0.000000 0.000000
# 5 0.000000 0.000000 0.000000 0.000000 0.032525 0.000000
# 6 0.000000 0.000000 0.000000 0.000000 0.000000 0.023009
#
#
# Mechanical properties :
#
#
# Convention : Reuss Voigt Hill
#
# Bulk Modulus (GPa) = 44.85786 49.71221 47.28504
# Shear Modulus (GPa) = 30.37883 35.50215 32.94049
#
# Velocity S-wave (km/s) = 3.82303 4.13285 3.98096
# Velocity P-wave (km/s) = 6.40851 6.83309 6.62420
#
# Compressibility (1/GPa) = 0.02229264
#
# Stress axis : x y z
#
# Youngs Moduli (GPa) = 68.49564 133.30508 93.45914
#
# Poissons Ratio (x) = 0.06675 0.22719
# Poissons Ratio (y) = 0.03430 0.21706
# Poissons Ratio (z) = 0.16651 0.30960
#
# Static dielectric constant tensor:
#      x y z
#    x 1.824200 0.000000 0.000000 
#    y 0.000000 1.770810 0.000000 
#    z 0.000000 0.000000 1.768410 
# 
# From -- ./inp_files/36294.got.cif
#   From: 2010.05.17/outbox.cif.g08.bks.cpg/sg70_19_cif.got.tgz:36294.got - 2010.06.03 15:57:51.
