data_PCOD9516103
_publ_section_title
;
Structure prediction by ZEFSAII (Michael W. Deem and Ramdas Pophale) SiO2 
 PCOD9516103
Probable space group: F D D D
;
_chemical_formula_sum "Si O2"
_cell_formula_units_Z 208
_cell_length_a 19.600709
_cell_length_b 26.809774
_cell_length_c 19.082146
_cell_angle_alpha 90.000000
_cell_angle_beta 90.000000
_cell_angle_gamma 90.000000
_cell_volume 10027.487941
_symmetry_space_group_name_H-M "F D D D"
_symmetry_group_IT_number 70
_space_group.IT_coordinate_system_code '2'
_symmetry_cell_setting 'orthorhombic'
loop_
_space_group_symop_operation_xyz
x,y,z
1/4-x,1/4-y,z
x,1/4-y,1/4-z
1/4-x,y,1/4-z
-x,-y,-z
3/4+x,3/4+y,-z
-x,3/4+y,3/4+z
3/4+x,-y,3/4+z
x,1/2+y,1/2+z
1/4-x,3/4-y,1/2+z
x,3/4-y,3/4-z
1/4-x,1/2+y,3/4-z
-x,1/2-y,1/2-z
3/4+x,1/4+y,1/2-z
-x,1/4+y,1/4+z
3/4+x,1/2-y,1/4+z
1/2+x,y,1/2+z
3/4-x,1/4-y,1/2+z
1/2+x,1/4-y,3/4-z
3/4-x,y,3/4-z
1/2-x,-y,1/2-z
1/4+x,3/4+y,1/2-z
1/2-x,3/4+y,1/4+z
1/4+x,-y,1/4+z
1/2+x,1/2+y,z
3/4-x,3/4-y,z
1/2+x,3/4-y,1/4-z
3/4-x,1/2+y,1/4-z
1/2-x,1/2-y,-z
1/4+x,1/4+y,-z
1/2-x,1/4+y,3/4+z
1/4+x,1/2-y,3/4+z
loop_
_atom_site_type_symbol
_atom_site_label
_atom_site_fract_x
_atom_site_fract_y
_atom_site_fract_z
Si Si1 0.876642 0.991920 0.223769
Si Si2 0.641979 0.432959 0.887527
Si Si3 0.375000 0.530669 0.375000
Si Si4 0.483238 0.831492 0.660372
Si Si5 0.988306 0.072936 0.771464
Si Si6 0.375000 0.710941 0.375000
Si Si7 0.125000 0.125000 0.304489
Si Si8 0.172649 0.735038 0.488457
O O1 0.815225 0.961734 0.188959
O O2 0.949993 0.965147 0.211722
O O3 0.862175 0.046297 0.191399
O O4 0.873557 0.996891 0.306552
O O5 0.621576 0.375000 0.875000
O O6 0.599091 0.477556 0.925667
O O7 0.704838 0.433733 0.944102
O O8 0.305418 0.562709 0.369168
O O9 0.487813 0.870469 0.723647
O O10 0.439544 0.858033 0.600102
O O11 0.935775 0.070121 0.838226
O O12 0.359785 0.746167 0.439979
O O13 0.151370 0.072826 0.270163
O O14 0.250000 0.750000 0.500000
#
# Coordination Sequence:
#
# PCOD9516103 Si02
#       8
#    32  32  16  32  32  16  16  32
#     4  12  24  46  67 102 140 185 237 300 359 443
#     4  11  24  44  69 103 143 185 243 309 369 442
#     4  12  29  40  71  98 139 181 239 295 360 438
#     4  12  23  47  69 102 136 189 241 290 367 445
#     4  11  23  43  73  98 143 191 231 303 371 437
#     4  10  23  41  68 104 149 181 245 297 362 448
#     4  12  24  45  80  99 154 198 238 314 384 445
#     4  11  24  46  70 109 146 195 247 307 380 454
#
# _framework density 20.742982000000001
#
# number of rings (size 3 to 8) (size 9 to 14) (size 15 to 20)
#    0.000    0.615    3.077    4.615    2.154    5.231 
#    2.769    0.769    0.000    0.000    0.000    0.000 
#    0.000    0.000    0.000    0.000    0.000    0.000 
#
# Total GULP energy -289480.766157 kJ/mol
# GULP energy per Si atom -5566.937811 kJ/mol
# Density = 2.069577 g / cm^3
# Si number density = 20.742982 Si / 1000 Ang^3
#
#
#
# Elastic Constant Matrix: (Units=GPa)
#
#
# Indices 1 2 3 4 5 6 
#
# 1 85.4734 14.5314 -8.6695 0.0000 0.0000 0.0000
# 2 14.5314 118.7323 5.9084 0.0000 0.0000 0.0000
# 3 -8.6695 5.9084 74.3409 0.0000 0.0000 0.0000
# 4 0.0000 0.0000 0.0000 13.4860 0.0000 0.0000
# 5 0.0000 0.0000 0.0000 0.0000 20.5271 0.0000
# 6 0.0000 0.0000 0.0000 0.0000 0.0000 -25.1406
#
#
#
# Elastic Compliance Matrix: (Units=1/GPa)
#
#
# Indices 1 2 3 4 5 6 
#
# 1 0.012121 -0.001560 0.001537 0.000000 0.000000 0.000000
# 2 -0.001560 0.008657 -0.000870 0.000000 0.000000 0.000000
# 3 0.001537 -0.000870 0.013700 0.000000 0.000000 0.000000
# 4 0.000000 0.000000 0.000000 0.074151 0.000000 0.000000
# 5 0.000000 0.000000 0.000000 0.000000 0.048716 0.000000
# 6 0.000000 0.000000 0.000000 0.000000 0.000000 -0.039776
#
#
# Mechanical properties :
#
#
# Convention : Reuss Voigt Hill
#
# Bulk Modulus (GPa) = 30.58811 33.56524 32.07667
# Shear Modulus (GPa) = 38.38769 19.55959 28.97364
#
# Velocity S-wave (km/s) = 4.30657 3.07408 3.74142
# Velocity P-wave (km/s) = 6.28546 5.36811 5.84481
#
# Compressibility (1/GPa) = 0.03269244
#
# Stress axis : x y z
#
# Youngs Moduli (GPa) = 82.50348 115.51992 72.99285
#
# Poissons Ratio (x) = 0.18020 -0.11222
# Poissons Ratio (y) = 0.12870 0.06350
# Poissons Ratio (z) = -0.12685 0.10049
#
# Static dielectric constant tensor:
#      x y z
#    x 1.821900 0.000000 0.000000 
#    y 0.000000 1.645680 0.000000 
#    z 0.000000 0.000000 1.805440 
# 
# From -- ./inp_files/36781.got.cif
#   From: 2010.05.17/outbox.cif.g08.bks.cpg/sg70_19_cif.got.tgz:36781.got - 2010.06.03 15:57:51.
