data_PCOD9516769
_publ_section_title
;
Structure prediction by ZEFSAII (Michael W. Deem and Ramdas Pophale) SiO2 
 PCOD9516769
Probable space group: F D D D
;
_chemical_formula_sum "Si O2"
_cell_formula_units_Z 208
_cell_length_a 15.378500
_cell_length_b 21.854021
_cell_length_c 29.029098
_cell_angle_alpha 90.000000
_cell_angle_beta 90.000000
_cell_angle_gamma 90.000000
_cell_volume 9756.159112
_symmetry_space_group_name_H-M "F D D D"
_symmetry_group_IT_number 70
_space_group.IT_coordinate_system_code '2'
_symmetry_cell_setting 'orthorhombic'
loop_
_space_group_symop_operation_xyz
x,y,z
1/4-x,1/4-y,z
x,1/4-y,1/4-z
1/4-x,y,1/4-z
-x,-y,-z
3/4+x,3/4+y,-z
-x,3/4+y,3/4+z
3/4+x,-y,3/4+z
x,1/2+y,1/2+z
1/4-x,3/4-y,1/2+z
x,3/4-y,3/4-z
1/4-x,1/2+y,3/4-z
-x,1/2-y,1/2-z
3/4+x,1/4+y,1/2-z
-x,1/4+y,1/4+z
3/4+x,1/2-y,1/4+z
1/2+x,y,1/2+z
3/4-x,1/4-y,1/2+z
1/2+x,1/4-y,3/4-z
3/4-x,y,3/4-z
1/2-x,-y,1/2-z
1/4+x,3/4+y,1/2-z
1/2-x,3/4+y,1/4+z
1/4+x,-y,1/4+z
1/2+x,1/2+y,z
3/4-x,3/4-y,z
1/2+x,3/4-y,1/4-z
3/4-x,1/2+y,1/4-z
1/2-x,1/2-y,-z
1/4+x,1/4+y,-z
1/2-x,1/4+y,3/4+z
1/4+x,1/2-y,3/4+z
loop_
_atom_site_type_symbol
_atom_site_label
_atom_site_fract_x
_atom_site_fract_y
_atom_site_fract_z
Si Si1 0.021245 0.875000 0.875000
Si Si2 0.237292 0.325121 0.778635
Si Si3 0.515452 0.846342 0.191146
Si Si4 0.880009 0.506943 0.590806
Si Si5 0.040854 0.317037 0.742384
Si Si6 0.439183 0.696938 0.493042
Si Si7 0.286388 0.199685 0.384849
O O1 0.981326 0.890554 0.824825
O O2 0.074907 0.936288 0.884646
O O3 0.270185 0.361720 0.733327
O O4 0.132694 0.322368 0.769640
O O5 0.264755 0.254773 0.779509
O O6 0.448653 0.795656 0.172970
O O7 0.603237 0.817285 0.212491
O O8 0.535687 0.891250 0.148875
O O9 0.840977 0.531102 0.543070
O O10 0.802588 0.483153 0.622936
O O11 0.003314 0.385574 0.750760
O O12 0.046053 0.318218 0.687357
O O13 0.000000 0.250000 0.750000
O O14 0.375000 0.237037 0.375000
#
# Coordination Sequence:
#
# PCOD9516769 Si02
#       7
#    16  32  32  32  32  32  32
#     4  12  26  44  68 108 146 186 246 310 349 450
#     4  11  24  46  68 106 147 190 246 299 373 436
#     4  11  24  46  70 105 144 195 236 294 368 450
#     4  12  25  44  73 100 143 192 238 296 378 429
#     4  11  24  46  69  99 146 186 241 309 358 427
#     4  11  23  44  72  97 145 190 243 301 362 439
#     4  12  23  44  72 104 138 186 242 295 357 441
#
# _framework density 21.319865
#
# number of rings (size 3 to 8) (size 9 to 14) (size 15 to 20)
#    0.000    0.615    7.692    1.846    2.154    0.615 
#    2.769    1.154    0.000    0.000    0.000    0.000 
#    0.000    0.000    0.000    0.000    0.000    0.000 
#
# Total GULP energy -290069.744011 kJ/mol
# GULP energy per Si atom -5578.264308 kJ/mol
# Density = 2.127134 g / cm^3
# Si number density = 21.319865 Si / 1000 Ang^3
#
#
#
# Elastic Constant Matrix: (Units=GPa)
#
#
# Indices 1 2 3 4 5 6 
#
# 1 49.7635 51.0664 8.8600 0.0000 0.0000 0.0000
# 2 51.0664 156.6923 27.3396 0.0000 0.0000 0.0000
# 3 8.8600 27.3396 122.9936 0.0000 0.0000 0.0000
# 4 0.0000 0.0000 0.0000 45.1425 0.0000 0.0000
# 5 0.0000 0.0000 0.0000 0.0000 14.4305 0.0000
# 6 0.0000 0.0000 0.0000 0.0000 0.0000 -274.6151
#
#
#
# Elastic Compliance Matrix: (Units=1/GPa)
#
#
# Indices 1 2 3 4 5 6 
#
# 1 0.030192 -0.009842 0.000013 0.000000 0.000000 0.000000
# 2 -0.009842 0.009848 -0.001480 0.000000 0.000000 0.000000
# 3 0.000013 -0.001480 0.008459 0.000000 0.000000 0.000000
# 4 0.000000 0.000000 0.000000 0.022152 0.000000 0.000000
# 5 0.000000 0.000000 0.000000 0.000000 0.069298 0.000000
# 6 0.000000 0.000000 0.000000 0.000000 0.000000 -0.003641
#
#
# Mechanical properties :
#
#
# Convention : Reuss Voigt Hill
#
# Bulk Modulus (GPa) = 38.63953 55.99793 47.31873
# Shear Modulus (GPa) = 29.84139 -26.86286 1.48927
#
# Velocity S-wave (km/s) = 3.74531 -3.55349 0.83669
# Velocity P-wave (km/s) = 6.07176 3.07998 4.81417
#
# Compressibility (1/GPa) = 0.02588023
#
# Stress axis : x y z
#
# Youngs Moduli (GPa) = 33.12082 101.54655 118.22334
#
# Poissons Ratio (x) = 0.99942 -0.00151
# Poissons Ratio (y) = 0.32598 0.17497
# Poissons Ratio (z) = -0.00042 0.15029
#
# Static dielectric constant tensor:
#      x y z
#    x 1.829420 0.000000 0.000000 
#    y 0.000000 1.827280 0.000000 
#    z 0.000000 0.000000 1.783200 
# 
# From -- ./inp_files/66806.got.cif
#   From: 2010.05.17/outbox.cif.g08.bks.cpg/sg70_34_cif.got.tgz:66806.got - 2010.06.03 15:57:51.
