data_PCOD9516353
_publ_section_title
;
Structure prediction by ZEFSAII (Michael W. Deem and Ramdas Pophale) SiO2 
 PCOD9516353
Probable space group: F D D D
;
_chemical_formula_sum "Si O2"
_cell_formula_units_Z 80
_cell_length_a 4.980235
_cell_length_b 26.333498
_cell_length_c 27.533147
_cell_angle_alpha 90.000000
_cell_angle_beta 90.000000
_cell_angle_gamma 90.000000
_cell_volume 3610.889861
_symmetry_space_group_name_H-M "F D D D"
_symmetry_group_IT_number 70
_space_group.IT_coordinate_system_code '2'
_symmetry_cell_setting 'orthorhombic'
loop_
_space_group_symop_operation_xyz
x,y,z
1/4-x,1/4-y,z
x,1/4-y,1/4-z
1/4-x,y,1/4-z
-x,-y,-z
3/4+x,3/4+y,-z
-x,3/4+y,3/4+z
3/4+x,-y,3/4+z
x,1/2+y,1/2+z
1/4-x,3/4-y,1/2+z
x,3/4-y,3/4-z
1/4-x,1/2+y,3/4-z
-x,1/2-y,1/2-z
3/4+x,1/4+y,1/2-z
-x,1/4+y,1/4+z
3/4+x,1/2-y,1/4+z
1/2+x,y,1/2+z
3/4-x,1/4-y,1/2+z
1/2+x,1/4-y,3/4-z
3/4-x,y,3/4-z
1/2-x,-y,1/2-z
1/4+x,3/4+y,1/2-z
1/2-x,3/4+y,1/4+z
1/4+x,-y,1/4+z
1/2+x,1/2+y,z
3/4-x,3/4-y,z
1/2+x,3/4-y,1/4-z
3/4-x,1/2+y,1/4-z
1/2-x,1/2-y,-z
1/4+x,1/4+y,-z
1/2-x,1/4+y,3/4+z
1/4+x,1/2-y,3/4+z
loop_
_atom_site_type_symbol
_atom_site_label
_atom_site_fract_x
_atom_site_fract_y
_atom_site_fract_z
Si Si1 0.375000 0.707056 0.375000
Si Si2 0.365158 0.055515 0.158026
Si Si3 0.375000 0.375000 0.759876
Si Si4 0.875000 0.875000 0.195435
O O1 0.565734 0.744702 0.343372
O O2 0.218098 0.671115 0.338414
O O3 0.625000 0.066377 0.125000
O O4 0.291014 0.083249 0.208133
O O5 0.125000 0.073806 0.125000
O O6 0.619414 0.394328 0.726575
#
# Coordination Sequence:
#
# PCOD9516353 Si02
#       4
#    16  32  16  16
#     4  10  28  47  72  96 152 193 236 272 386 412
#     4  10  24  46  74 102 141 190 229 292 359 430
#     4  12  26  44  74 113 140 175 256 296 348 406
#     4  12  27  44  73 103 146 193 235 302 341 432
#
# _framework density 22.155204999999999
#
# number of rings (size 3 to 8) (size 9 to 14) (size 15 to 20)
#    1.200    0.000    0.000    4.200    8.400    4.800 
#    0.000    0.000    0.000    0.000    0.000    0.000 
#    0.000    0.000    0.000    0.000    0.000    0.000 
#
# Total GULP energy -111364.081742 kJ/mol
# GULP energy per Si atom -5568.204087 kJ/mol
# Density = 2.210478 g / cm^3
# Si number density = 22.155205 Si / 1000 Ang^3
#
#
#
# Elastic Constant Matrix: (Units=GPa)
#
#
# Indices 1 2 3 4 5 6 
#
# 1 215.5420 65.8528 86.8454 0.0000 0.0000 0.0000
# 2 65.8528 161.3856 78.4412 0.0000 0.0000 0.0000
# 3 86.8454 78.4412 136.5777 0.0000 0.0000 0.0000
# 4 0.0000 0.0000 0.0000 8.1665 0.0000 0.0000
# 5 0.0000 0.0000 0.0000 0.0000 61.1909 0.0000
# 6 0.0000 0.0000 0.0000 0.0000 0.0000 50.4541
#
#
#
# Elastic Compliance Matrix: (Units=1/GPa)
#
#
# Indices 1 2 3 4 5 6 
#
# 1 0.006324 -0.000868 -0.003523 0.000000 0.000000 0.000000
# 2 -0.000868 0.008715 -0.004453 0.000000 0.000000 0.000000
# 3 -0.003523 -0.004453 0.012119 0.000000 0.000000 0.000000
# 4 0.000000 0.000000 0.000000 0.122451 0.000000 0.000000
# 5 0.000000 0.000000 0.000000 0.000000 0.016342 0.000000
# 6 0.000000 0.000000 0.000000 0.000000 0.000000 0.019820
#
#
# Mechanical properties :
#
#
# Convention : Reuss Voigt Hill
#
# Bulk Modulus (GPa) = 105.59353 108.42045 107.00699
# Shear Modulus (GPa) = 24.19934 42.78668 33.49301
#
# Velocity S-wave (km/s) = 3.30853 4.39934 3.89233
# Velocity P-wave (km/s) = 7.89680 8.65151 8.28275
#
# Compressibility (1/GPa) = 0.00947028
#
# Stress axis : x y z
#
# Youngs Moduli (GPa) = 158.12618 114.74244 82.51271
#
# Poissons Ratio (x) = 0.09964 0.29065
# Poissons Ratio (y) = 0.13732 0.36745
# Poissons Ratio (z) = 0.55700 0.51097
#
# Static dielectric constant tensor:
#      x y z
#    x 1.803060 0.000000 0.000000 
#    y 0.000000 1.879070 0.000000 
#    z 0.000000 0.000000 1.774920 
# 
# From -- ./inp_files/3297.got.cif
#   From: 2010.05.17/outbox.cif.g08.bks.cpg/sg70_2_cif.got.tgz:3297.got - 2010.06.03 15:57:51.
