data_PCOD9516039
_publ_section_title
;
Structure prediction by ZEFSAII (Michael W. Deem and Ramdas Pophale) SiO2 
 PCOD9516039
Probable space group: F D D D
;
_chemical_formula_sum "Si O2"
_cell_formula_units_Z 112
_cell_length_a 28.410270
_cell_length_b 24.303871
_cell_length_c 7.745692
_cell_angle_alpha 90.000000
_cell_angle_beta 90.000000
_cell_angle_gamma 90.000000
_cell_volume 5348.241827
_symmetry_space_group_name_H-M "F D D D"
_symmetry_group_IT_number 70
_space_group.IT_coordinate_system_code '2'
_symmetry_cell_setting 'orthorhombic'
loop_
_space_group_symop_operation_xyz
x,y,z
1/4-x,1/4-y,z
x,1/4-y,1/4-z
1/4-x,y,1/4-z
-x,-y,-z
3/4+x,3/4+y,-z
-x,3/4+y,3/4+z
3/4+x,-y,3/4+z
x,1/2+y,1/2+z
1/4-x,3/4-y,1/2+z
x,3/4-y,3/4-z
1/4-x,1/2+y,3/4-z
-x,1/2-y,1/2-z
3/4+x,1/4+y,1/2-z
-x,1/4+y,1/4+z
3/4+x,1/2-y,1/4+z
1/2+x,y,1/2+z
3/4-x,1/4-y,1/2+z
1/2+x,1/4-y,3/4-z
3/4-x,y,3/4-z
1/2-x,-y,1/2-z
1/4+x,3/4+y,1/2-z
1/2-x,3/4+y,1/4+z
1/4+x,-y,1/4+z
1/2+x,1/2+y,z
3/4-x,3/4-y,z
1/2+x,3/4-y,1/4-z
3/4-x,1/2+y,1/4-z
1/2-x,1/2-y,-z
1/4+x,1/4+y,-z
1/2-x,1/4+y,3/4+z
1/4+x,1/2-y,3/4+z
loop_
_atom_site_type_symbol
_atom_site_label
_atom_site_fract_x
_atom_site_fract_y
_atom_site_fract_z
Si Si1 0.580598 0.655467 0.941012
Si Si2 0.160332 0.875000 0.375000
Si Si3 0.524733 0.346215 0.193004
Si Si4 0.151112 0.766693 0.953881
O O1 0.625000 0.625000 0.853959
O O2 0.529767 0.652187 0.854496
O O3 0.593573 0.719923 0.938752
O O4 0.575872 0.625000 0.125000
O O5 0.193787 0.875474 0.543244
O O6 0.128180 0.820338 0.359046
O O7 0.530547 0.375000 0.375000
O O8 0.548564 0.287093 0.224811
O O9 0.125000 0.744507 0.125000
#
# Coordination Sequence:
#
# PCOD9516039 Si02
#       4
#    32  16  32  32
#     4  11  26  46  65 101 145 188 232 284 355 424
#     4  10  22  48  71 108 135 180 244 296 344 416
#     4  11  23  42  74 101 139 183 237 292 353 414
#     4  10  23  44  74 103 141 184 236 296 353 416
#
# _framework density 20.941462000000001
#
# number of rings (size 3 to 8) (size 9 to 14) (size 15 to 20)
#    0.000    1.429    2.857    0.857    4.000    4.571 
#    0.000    2.857    0.000    0.000    0.000    0.000 
#    0.000    0.000    0.000    0.000    0.000    0.000 
#
# Total GULP energy -156283.045672 kJ/mol
# GULP energy per Si atom -5581.537345 kJ/mol
# Density = 2.089380 g / cm^3
# Si number density = 20.941462 Si / 1000 Ang^3
#
#
#
# Elastic Constant Matrix: (Units=GPa)
#
#
# Indices 1 2 3 4 5 6 
#
# 1 199.8093 59.3102 62.0876 -0.0003 0.0000 -0.0002
# 2 59.3102 100.8916 72.7821 -0.0091 -0.0176 0.0013
# 3 62.0876 72.7821 140.0180 -0.0101 -0.0147 0.0008
# 4 -0.0003 -0.0091 -0.0101 36.6517 -0.0132 0.0006
# 5 0.0000 -0.0176 -0.0147 -0.0132 -26.2208 0.0118
# 6 -0.0002 0.0013 0.0008 0.0006 0.0118 16.2334
#
#
#
# Elastic Compliance Matrix: (Units=1/GPa)
#
#
# Indices 1 2 3 4 5 6 
#
# 1 0.006223 -0.002668 -0.001373 -0.000001 0.000003 0.000000
# 2 -0.002668 0.017002 -0.007655 0.000002 -0.000007 -0.000001
# 3 -0.001373 -0.007655 0.011730 0.000001 -0.000001 0.000000
# 4 -0.000001 0.000002 0.000001 0.027284 -0.000014 -0.000001
# 5 0.000003 -0.000007 -0.000001 -0.000014 -0.038138 0.000028
# 6 0.000000 -0.000001 0.000000 -0.000001 0.000028 0.061601
#
#
# Mechanical properties :
#
#
# Convention : Reuss Voigt Hill
#
# Bulk Modulus (GPa) = 86.47542 92.11987 89.29765
# Shear Modulus (GPa) = 44.26806 21.76879 33.01842
#
# Velocity S-wave (km/s) = 4.60270 3.22764 3.97508
# Velocity P-wave (km/s) = 8.34446 7.61413 7.98764
#
# Compressibility (1/GPa) = 0.01156398
#
# Stress axis : x y z
#
# Youngs Moduli (GPa) = 160.68601 58.81605 85.25505
#
# Poissons Ratio (x) = 0.15694 0.11702
# Poissons Ratio (y) = 0.42875 0.65260
# Poissons Ratio (z) = 0.22056 0.45022
#
# Static dielectric constant tensor:
#      x y z
#    x 1.778230 0.000000 0.000000 
#    y 0.000000 1.833200 0.000000 
#    z 0.000000 0.000000 1.783940 
# 
# From -- ./inp_files/10707.got.cif
#   From: 2010.05.17/outbox.cif.g08.bks.cpg/sg70_6_cif.got.tgz:10707.got - 2010.06.03 15:57:51.
