data_PCOD9516208
_publ_section_title
;
Structure prediction by ZEFSAII (Michael W. Deem and Ramdas Pophale) SiO2 
 PCOD9516208
Probable space group: F D D D
;
_chemical_formula_sum "Si O2"
_cell_formula_units_Z 112
_cell_length_a 16.566904
_cell_length_b 10.816477
_cell_length_c 24.158489
_cell_angle_alpha 90.000000
_cell_angle_beta 90.000000
_cell_angle_gamma 90.000000
_cell_volume 4329.093387
_symmetry_space_group_name_H-M "F D D D"
_symmetry_group_IT_number 70
_space_group.IT_coordinate_system_code '2'
_symmetry_cell_setting 'orthorhombic'
loop_
_space_group_symop_operation_xyz
x,y,z
1/4-x,1/4-y,z
x,1/4-y,1/4-z
1/4-x,y,1/4-z
-x,-y,-z
3/4+x,3/4+y,-z
-x,3/4+y,3/4+z
3/4+x,-y,3/4+z
x,1/2+y,1/2+z
1/4-x,3/4-y,1/2+z
x,3/4-y,3/4-z
1/4-x,1/2+y,3/4-z
-x,1/2-y,1/2-z
3/4+x,1/4+y,1/2-z
-x,1/4+y,1/4+z
3/4+x,1/2-y,1/4+z
1/2+x,y,1/2+z
3/4-x,1/4-y,1/2+z
1/2+x,1/4-y,3/4-z
3/4-x,y,3/4-z
1/2-x,-y,1/2-z
1/4+x,3/4+y,1/2-z
1/2-x,3/4+y,1/4+z
1/4+x,-y,1/4+z
1/2+x,1/2+y,z
3/4-x,3/4-y,z
1/2+x,3/4-y,1/4-z
3/4-x,1/2+y,1/4-z
1/2-x,1/2-y,-z
1/4+x,1/4+y,-z
1/2-x,1/4+y,3/4+z
1/4+x,1/2-y,3/4+z
loop_
_atom_site_type_symbol
_atom_site_label
_atom_site_fract_x
_atom_site_fract_y
_atom_site_fract_z
Si Si1 0.561886 0.470767 0.726025
Si Si2 0.375000 0.375000 0.875000
Si Si3 0.187750 0.818591 0.699833
Si Si4 0.875000 0.375000 0.875000
Si Si5 0.579872 0.745650 0.838830
O O1 0.476374 0.512597 0.745715
O O2 0.592475 0.338179 0.708783
O O3 0.577069 0.543933 0.669447
O O4 0.621257 0.491174 0.779756
O O5 0.312038 0.287073 0.844173
O O6 0.241671 0.937919 0.680754
O O7 0.625000 0.625000 0.866076
O O8 0.582080 0.875000 0.875000
#
# Coordination Sequence:
#
# PCOD9516208 Si02
#       5
#    32   8  32   8  32
#     4  11  25  45  80 115 162 214 289 343 420 511
#     4  12  30  52  80 110 184 210 276 368 442 498
#     4  11  26  51  74 124 158 225 280 354 431 515
#     4  12  22  44  78 116 160 218 276 360 398 522
#     4  10  23  45  80 125 167 211 283 352 425 510
#
# _framework density 25.871469000000001
#
# number of rings (size 3 to 8) (size 9 to 14) (size 15 to 20)
#    0.000    1.143    4.286    1.714   10.000    3.429 
#    2.571    0.000    0.000    0.000    0.000    0.000 
#    0.000    0.000    0.000    0.000    0.000    0.000 
#
# Total GULP energy -155944.543277 kJ/mol
# GULP energy per Si atom -5569.447974 kJ/mol
# Density = 2.581258 g / cm^3
# Si number density = 25.871469 Si / 1000 Ang^3
#
#
#
# Elastic Constant Matrix: (Units=GPa)
#
#
# Indices 1 2 3 4 5 6 
#
# 1 60.2084 28.9261 24.7850 0.0000 0.0000 0.0000
# 2 28.9261 128.2138 57.5772 0.0000 0.0000 0.0000
# 3 24.7850 57.5772 170.8827 0.0000 0.0000 0.0000
# 4 0.0000 0.0000 0.0000-1904.9332 0.0000 0.0000
# 5 0.0000 0.0000 0.0000 0.0000 71.2640 0.0000
# 6 0.0000 0.0000 0.0000 0.0000 0.0000 36.0456
#
#
#
# Elastic Compliance Matrix: (Units=1/GPa)
#
#
# Indices 1 2 3 4 5 6 
#
# 1 0.018967 -0.003586 -0.001543 0.000000 0.000000 0.000000
# 2 -0.003586 0.009868 -0.002805 0.000000 0.000000 0.000000
# 3 -0.001543 -0.002805 0.007021 0.000000 0.000000 0.000000
# 4 0.000000 0.000000 0.000000 -0.000525 0.000000 0.000000
# 5 0.000000 0.000000 0.000000 0.000000 0.014032 0.000000
# 6 0.000000 0.000000 0.000000 0.000000 0.000000 0.027743
#
#
# Mechanical properties :
#
#
# Convention : Reuss Voigt Hill
#
# Bulk Modulus (GPa) = 50.02914 64.65350 57.34132
# Shear Modulus (GPa) = 50.18253 -342.99029 -146.40388
#
# Velocity S-wave (km/s) = 4.40896 -11.52660 -7.53072
# Velocity P-wave (km/s) = 6.73039 12.33311 7.30778
#
# Compressibility (1/GPa) = 0.01998835
#
# Stress axis : x y z
#
# Youngs Moduli (GPa) = 52.72314 101.33622 142.43478
#
# Poissons Ratio (x) = 0.36343 0.21972
# Poissons Ratio (y) = 0.18908 0.39950
# Poissons Ratio (z) = 0.08133 0.28423
#
# Static dielectric constant tensor:
#      x y z
#    x 2.199430 0.000000 0.000000 
#    y 0.000000 2.277010 0.000000 
#    z 0.000000 0.000000 2.057970 
# 
# From -- ./inp_files/52713.got.cif
#   From: 2010.05.17/outbox.cif.g08.bks.cpg/sg70_27_cif.got.tgz:52713.got - 2010.06.03 15:57:51.
