data_PCOD9516903
_publ_section_title
;
Structure prediction by ZEFSAII (Michael W. Deem and Ramdas Pophale) SiO2 
 PCOD9516903
Probable space group: F D D D
;
_chemical_formula_sum "Si O2"
_cell_formula_units_Z 112
_cell_length_a 12.831501
_cell_length_b 24.866597
_cell_length_c 15.438889
_cell_angle_alpha 90.000000
_cell_angle_beta 90.000000
_cell_angle_gamma 90.000000
_cell_volume 4926.175307
_symmetry_space_group_name_H-M "F D D D"
_symmetry_group_IT_number 70
_space_group.IT_coordinate_system_code '2'
_symmetry_cell_setting 'orthorhombic'
loop_
_space_group_symop_operation_xyz
x,y,z
1/4-x,1/4-y,z
x,1/4-y,1/4-z
1/4-x,y,1/4-z
-x,-y,-z
3/4+x,3/4+y,-z
-x,3/4+y,3/4+z
3/4+x,-y,3/4+z
x,1/2+y,1/2+z
1/4-x,3/4-y,1/2+z
x,3/4-y,3/4-z
1/4-x,1/2+y,3/4-z
-x,1/2-y,1/2-z
3/4+x,1/4+y,1/2-z
-x,1/4+y,1/4+z
3/4+x,1/2-y,1/4+z
1/2+x,y,1/2+z
3/4-x,1/4-y,1/2+z
1/2+x,1/4-y,3/4-z
3/4-x,y,3/4-z
1/2-x,-y,1/2-z
1/4+x,3/4+y,1/2-z
1/2-x,3/4+y,1/4+z
1/4+x,-y,1/4+z
1/2+x,1/2+y,z
3/4-x,3/4-y,z
1/2+x,3/4-y,1/4-z
3/4-x,1/2+y,1/4-z
1/2-x,1/2-y,-z
1/4+x,1/4+y,-z
1/2-x,1/4+y,3/4+z
1/4+x,1/2-y,3/4+z
loop_
_atom_site_type_symbol
_atom_site_label
_atom_site_fract_x
_atom_site_fract_y
_atom_site_fract_z
Si Si1 0.455187 0.685939 0.156210
Si Si2 0.266397 0.457147 0.326850
Si Si3 0.375000 0.875000 0.718022
Si Si4 0.987356 0.049401 0.893215
O O1 0.474003 0.625000 0.125000
O O2 0.332953 0.700735 0.139725
O O3 0.510346 0.737329 0.111613
O O4 0.495689 0.692284 0.254120
O O5 0.375000 0.470175 0.375000
O O6 0.250000 0.500000 0.250000
O O7 0.287130 0.400743 0.278528
O O8 0.423593 0.920288 0.657996
O O9 0.875000 0.074046 0.875000
#
# Coordination Sequence:
#
# PCOD9516903 Si02
#       4
#    32  32  16  32
#     4  11  25  44  70 104 140 189 237 293 361 428
#     4  12  25  45  75 104 143 188 244 299 359 420
#     4  12  25  50  71 108 142 188 242 298 351 432
#     4  11  25  45  71 102 146 185 237 297 357 426
#
# _framework density 22.735690999999999
#
# number of rings (size 3 to 8) (size 9 to 14) (size 15 to 20)
#    0.000    0.571    2.857    5.571    0.000    8.571 
#    0.000    0.000    0.000    0.000    0.000    0.000 
#    0.000    0.000    0.000    0.000    0.000    0.000 
#
# Total GULP energy -156473.263536 kJ/mol
# GULP energy per Si atom -5588.330841 kJ/mol
# Density = 2.268394 g / cm^3
# Si number density = 22.735691 Si / 1000 Ang^3
#
#
#
# Elastic Constant Matrix: (Units=GPa)
#
#
# Indices 1 2 3 4 5 6 
#
# 1 102.6491 20.2321 28.2140 0.0000 0.0000 0.0000
# 2 20.2321 144.3956 40.4748 0.0000 0.0000 0.0000
# 3 28.2140 40.4748 87.1400 0.0000 0.0000 0.0000
# 4 0.0000 0.0000 0.0000 30.2143 0.0000 0.0000
# 5 0.0000 0.0000 0.0000 0.0000 42.0267 0.0000
# 6 0.0000 0.0000 0.0000 0.0000 0.0000 32.7266
#
#
#
# Elastic Compliance Matrix: (Units=1/GPa)
#
#
# Indices 1 2 3 4 5 6 
#
# 1 0.010740 -0.000609 -0.003194 0.000000 0.000000 0.000000
# 2 -0.000609 0.007997 -0.003517 0.000000 0.000000 0.000000
# 3 -0.003194 -0.003517 0.014144 0.000000 0.000000 0.000000
# 4 0.000000 0.000000 0.000000 0.033097 0.000000 0.000000
# 5 0.000000 0.000000 0.000000 0.000000 0.023794 0.000000
# 6 0.000000 0.000000 0.000000 0.000000 0.000000 0.030556
#
#
# Mechanical properties :
#
#
# Convention : Reuss Voigt Hill
#
# Bulk Modulus (GPa) = 54.82811 56.89184 55.85998
# Shear Modulus (GPa) = 35.44875 37.34446 36.39661
#
# Velocity S-wave (km/s) = 3.95291 4.05723 4.00541
# Velocity P-wave (km/s) = 6.70834 6.85752 6.78334
#
# Compressibility (1/GPa) = 0.01823882
#
# Stress axis : x y z
#
# Youngs Moduli (GPa) = 93.10965 125.05266 70.70348
#
# Poissons Ratio (x) = 0.07622 0.22585
# Poissons Ratio (y) = 0.05675 0.24866
# Poissons Ratio (z) = 0.29742 0.43980
#
# Static dielectric constant tensor:
#      x y z
#    x 1.848460 0.000000 0.000000 
#    y 0.000000 1.893170 0.000000 
#    z 0.000000 0.000000 2.126850 
# 
# From -- ./inp_files/25188.got.cif
#   From: 2010.05.17/outbox.cif.g08.bks.cpg/sg70_13_cif.got.tgz:25188.got - 2010.06.03 15:57:51.
