data_PCOD9516607
_publ_section_title
;
Structure prediction by ZEFSAII (Michael W. Deem and Ramdas Pophale) SiO2 
 PCOD9516607
Probable space group: F D D D
;
_chemical_formula_sum "Si O2"
_cell_formula_units_Z 152
_cell_length_a 22.795356
_cell_length_b 16.059855
_cell_length_c 19.831164
_cell_angle_alpha 90.000000
_cell_angle_beta 90.000000
_cell_angle_gamma 90.000000
_cell_volume 7259.993051
_symmetry_space_group_name_H-M "F D D D"
_symmetry_group_IT_number 70
_space_group.IT_coordinate_system_code '2'
_symmetry_cell_setting 'orthorhombic'
loop_
_space_group_symop_operation_xyz
x,y,z
1/4-x,1/4-y,z
x,1/4-y,1/4-z
1/4-x,y,1/4-z
-x,-y,-z
3/4+x,3/4+y,-z
-x,3/4+y,3/4+z
3/4+x,-y,3/4+z
x,1/2+y,1/2+z
1/4-x,3/4-y,1/2+z
x,3/4-y,3/4-z
1/4-x,1/2+y,3/4-z
-x,1/2-y,1/2-z
3/4+x,1/4+y,1/2-z
-x,1/4+y,1/4+z
3/4+x,1/2-y,1/4+z
1/2+x,y,1/2+z
3/4-x,1/4-y,1/2+z
1/2+x,1/4-y,3/4-z
3/4-x,y,3/4-z
1/2-x,-y,1/2-z
1/4+x,3/4+y,1/2-z
1/2-x,3/4+y,1/4+z
1/4+x,-y,1/4+z
1/2+x,1/2+y,z
3/4-x,3/4-y,z
1/2+x,3/4-y,1/4-z
3/4-x,1/2+y,1/4-z
1/2-x,1/2-y,-z
1/4+x,1/4+y,-z
1/2-x,1/4+y,3/4+z
1/4+x,1/2-y,3/4+z
loop_
_atom_site_type_symbol
_atom_site_label
_atom_site_fract_x
_atom_site_fract_y
_atom_site_fract_z
Si Si1 0.070850 0.349279 0.252889
Si Si2 0.272128 0.984563 0.348587
Si Si3 0.875000 0.375000 0.659620
Si Si4 0.969124 0.974567 0.238256
Si Si5 0.875000 0.375000 0.375000
Si Si6 0.923123 0.040462 0.669647
O O1 0.034166 0.320899 0.188101
O O2 0.074161 0.447706 0.251983
O O3 0.133414 0.308642 0.264627
O O4 0.032180 0.312320 0.314559
O O5 0.330226 0.931505 0.333883
O O6 0.261006 0.996591 0.426717
O O7 0.929516 0.401580 0.707191
O O8 0.897718 0.294261 0.615800
O O9 0.010137 0.963865 0.303350
O O10 0.915833 0.125000 0.625000
#
# Coordination Sequence:
#
# PCOD9516607 Si02
#       6
#    32  32  16  32   8  32
#     4  11  22  42  65 102 143 179 228 291 355 432
#     4  11  22  36  63 104 142 179 220 287 367 431
#     4  12  26  49  73 109 138 191 242 288 360 430
#     4  12  24  45  71  99 144 189 235 293 354 418
#     4  12  20  34  60 104 144 160 232 290 358 448
#     4  12  26  47  75 102 141 189 238 297 356 424
#
# _framework density 20.936658999999999
#
# number of rings (size 3 to 8) (size 9 to 14) (size 15 to 20)
#    0.000    0.421    6.316    2.526    2.947    1.684 
#    0.000    0.526    0.000    0.000    0.000    0.000 
#    0.000    0.000    0.000    0.000    0.000    0.000 
#
# Total GULP energy -212005.419835 kJ/mol
# GULP energy per Si atom -5579.089996 kJ/mol
# Density = 2.088901 g / cm^3
# Si number density = 20.936659 Si / 1000 Ang^3
#
#
#
# Elastic Constant Matrix: (Units=GPa)
#
#
# Indices 1 2 3 4 5 6 
#
# 1 100.8388 25.7285 -4.3979 0.0000 0.0000 0.0000
# 2 25.7285 118.5559 22.6527 0.0000 0.0000 0.0000
# 3 -4.3979 22.6527 33.2062 0.0000 0.0000 0.0000
# 4 0.0000 0.0000 0.0000 27.7344 0.0000 0.0000
# 5 0.0000 0.0000 0.0000 0.0000 37.6521 0.0000
# 6 0.0000 0.0000 0.0000 0.0000 0.0000 26.3766
#
#
#
# Elastic Compliance Matrix: (Units=1/GPa)
#
#
# Indices 1 2 3 4 5 6 
#
# 1 0.010840 -0.003020 0.003496 0.000000 0.000000 0.000000
# 2 -0.003020 0.010541 -0.007591 0.000000 0.000000 0.000000
# 3 0.003496 -0.007591 0.035756 0.000000 0.000000 0.000000
# 4 0.000000 0.000000 0.000000 0.036056 0.000000 0.000000
# 5 0.000000 0.000000 0.000000 0.000000 0.026559 0.000000
# 6 0.000000 0.000000 0.000000 0.000000 0.000000 0.037912
#
#
# Mechanical properties :
#
#
# Convention : Reuss Voigt Hill
#
# Bulk Modulus (GPa) = 23.30632 37.84083 30.57358
# Shear Modulus (GPa) = 26.85331 32.26046 29.55689
#
# Velocity S-wave (km/s) = 3.58522 3.92964 3.76137
# Velocity P-wave (km/s) = 5.31925 6.22114 5.78779
#
# Compressibility (1/GPa) = 0.04290682
#
# Stress axis : x y z
#
# Youngs Moduli (GPa) = 92.25131 94.87033 27.96718
#
# Poissons Ratio (x) = 0.28655 -0.09778
# Poissons Ratio (y) = 0.27864 0.21229
# Poissons Ratio (z) = -0.32253 0.72014
#
# Static dielectric constant tensor:
#      x y z
#    x 1.773130 0.000000 0.000000 
#    y 0.000000 1.812250 0.000000 
#    z 0.000000 0.000000 1.746110 
# 
# From -- ./inp_files/28681.got.cif
#   From: 2010.05.17/outbox.cif.g08.bks.cpg/sg70_15_cif.got.tgz:28681.got - 2010.06.03 15:57:51.
