data_PCOD9516560
_publ_section_title
;
Structure prediction by ZEFSAII (Michael W. Deem and Ramdas Pophale) SiO2 
 PCOD9516560
Probable space group: F D D D
;
_chemical_formula_sum "Si O2"
_cell_formula_units_Z 176
_cell_length_a 22.008821
_cell_length_b 29.091266
_cell_length_c 12.448737
_cell_angle_alpha 90.000000
_cell_angle_beta 90.000000
_cell_angle_gamma 90.000000
_cell_volume 7970.483948
_symmetry_space_group_name_H-M "F D D D"
_symmetry_group_IT_number 70
_space_group.IT_coordinate_system_code '2'
_symmetry_cell_setting 'orthorhombic'
loop_
_space_group_symop_operation_xyz
x,y,z
1/4-x,1/4-y,z
x,1/4-y,1/4-z
1/4-x,y,1/4-z
-x,-y,-z
3/4+x,3/4+y,-z
-x,3/4+y,3/4+z
3/4+x,-y,3/4+z
x,1/2+y,1/2+z
1/4-x,3/4-y,1/2+z
x,3/4-y,3/4-z
1/4-x,1/2+y,3/4-z
-x,1/2-y,1/2-z
3/4+x,1/4+y,1/2-z
-x,1/4+y,1/4+z
3/4+x,1/2-y,1/4+z
1/2+x,y,1/2+z
3/4-x,1/4-y,1/2+z
1/2+x,1/4-y,3/4-z
3/4-x,y,3/4-z
1/2-x,-y,1/2-z
1/4+x,3/4+y,1/2-z
1/2-x,3/4+y,1/4+z
1/4+x,-y,1/4+z
1/2+x,1/2+y,z
3/4-x,3/4-y,z
1/2+x,3/4-y,1/4-z
3/4-x,1/2+y,1/4-z
1/2-x,1/2-y,-z
1/4+x,1/4+y,-z
1/2-x,1/4+y,3/4+z
1/4+x,1/2-y,3/4+z
loop_
_atom_site_type_symbol
_atom_site_label
_atom_site_fract_x
_atom_site_fract_y
_atom_site_fract_z
Si Si1 0.405174 0.461639 0.757913
Si Si2 0.408983 0.543966 0.586631
Si Si3 0.725157 0.800480 0.870539
Si Si4 0.034615 0.560689 0.410776
Si Si5 0.028135 0.581953 0.180148
Si Si6 0.625000 0.006894 0.125000
O O1 0.375000 0.473109 0.875000
O O2 0.412434 0.505862 0.682030
O O3 0.470917 0.440942 0.785508
O O4 0.354710 0.431940 0.695500
O O5 0.342277 0.566250 0.593313
O O6 0.467849 0.573585 0.610407
O O7 0.407581 0.521208 0.469341
O O8 0.722904 0.744418 0.886141
O O9 0.745032 0.820455 0.984699
O O10 0.015189 0.587909 0.305823
O O11 0.058946 0.625000 0.125000
O O12 0.073142 0.538791 0.175310
#
# Coordination Sequence:
#
# PCOD9516560 Si02
#       6
#    32  32  32  32  32  16
#     4   9  15  29  58  95 119 142 212 277 309 360
#     4  11  21  36  62  92 122 165 221 271 318 392
#     4   9  16  30  59  93 121 147 210 274 322 364
#     4   9  17  31  55  93 125 157 201 265 326 384
#     4  12  25  40  59  94 134 174 215 272 345 393
#     4  12  23  44  62  84 124 182 234 262 306 400
#
# _framework density 22.081469999999999
#
# number of rings (size 3 to 8) (size 9 to 14) (size 15 to 20)
#    0.000    1.818    5.455    1.909    0.000    0.000 
#    0.000    1.818    0.000    0.000    0.000    7.636 
#    0.000    0.000    0.000    0.000    0.000    0.000 
#
# Total GULP energy -245724.043512 kJ/mol
# GULP energy per Si atom -5584.637353 kJ/mol
# Density = 2.203121 g / cm^3
# Si number density = 22.081470 Si / 1000 Ang^3
#
#
#
# Elastic Constant Matrix: (Units=GPa)
#
#
# Indices 1 2 3 4 5 6 
#
# 1 118.0427 4.4450 35.1950 0.0000 0.0000 0.0000
# 2 4.4450 32.9869 35.2829 0.0000 0.0000 0.0000
# 3 35.1950 35.2829 138.9083 0.0000 0.0000 0.0000
# 4 0.0000 0.0000 0.0000 11.2593 0.0000 0.0000
# 5 0.0000 0.0000 0.0000 0.0000 33.7103 0.0000
# 6 0.0000 0.0000 0.0000 0.0000 0.0000 -23.3664
#
#
#
# Elastic Compliance Matrix: (Units=1/GPa)
#
#
# Indices 1 2 3 4 5 6 
#
# 1 0.009235 0.001728 -0.002779 0.000000 0.000000 0.000000
# 2 0.001728 0.041946 -0.011092 0.000000 0.000000 0.000000
# 3 -0.002779 -0.011092 0.010720 0.000000 0.000000 0.000000
# 4 0.000000 0.000000 0.000000 0.088816 0.000000 0.000000
# 5 0.000000 0.000000 0.000000 0.000000 0.029665 0.000000
# 6 0.000000 0.000000 0.000000 0.000000 0.000000 -0.042797
#
#
# Mechanical properties :
#
#
# Convention : Reuss Voigt Hill
#
# Bulk Modulus (GPa) = 26.58485 48.86487 37.72486
# Shear Modulus (GPa) = 28.66800 18.65497 23.66149
#
# Velocity S-wave (km/s) = 3.60708 2.90974 3.27701
# Velocity P-wave (km/s) = 5.42343 5.78500 5.60713
#
# Compressibility (1/GPa) = 0.03761541
#
# Stress axis : x y z
#
# Youngs Moduli (GPa) = 108.28463 23.83993 93.27978
#
# Poissons Ratio (x) = -0.04119 0.25919
# Poissons Ratio (y) = -0.18708 1.03467
# Poissons Ratio (z) = 0.30089 0.26444
#
# Static dielectric constant tensor:
#      x y z
#    x 1.839040 0.000000 0.000000 
#    y 0.000000 1.811780 0.000000 
#    z 0.000000 0.000000 1.779490 
# 
# From -- ./inp_files/19627.got.cif
#   From: 2010.05.17/outbox.cif.g08.bks.cpg/sg70_10_cif.got.tgz:19627.got - 2010.06.03 15:57:51.
