data_PCOD9516253
_publ_section_title
;
Structure prediction by ZEFSAII (Michael W. Deem and Ramdas Pophale) SiO2 
 PCOD9516253
Probable space group: F D D D
;
_chemical_formula_sum "Si O2"
_cell_formula_units_Z 128
_cell_length_a 19.563488
_cell_length_b 21.578996
_cell_length_c 15.176256
_cell_angle_alpha 90.000000
_cell_angle_beta 90.000000
_cell_angle_gamma 90.000000
_cell_volume 6406.814748
_symmetry_space_group_name_H-M "F D D D"
_symmetry_group_IT_number 70
_space_group.IT_coordinate_system_code '2'
_symmetry_cell_setting 'orthorhombic'
loop_
_space_group_symop_operation_xyz
x,y,z
1/4-x,1/4-y,z
x,1/4-y,1/4-z
1/4-x,y,1/4-z
-x,-y,-z
3/4+x,3/4+y,-z
-x,3/4+y,3/4+z
3/4+x,-y,3/4+z
x,1/2+y,1/2+z
1/4-x,3/4-y,1/2+z
x,3/4-y,3/4-z
1/4-x,1/2+y,3/4-z
-x,1/2-y,1/2-z
3/4+x,1/4+y,1/2-z
-x,1/4+y,1/4+z
3/4+x,1/2-y,1/4+z
1/2+x,y,1/2+z
3/4-x,1/4-y,1/2+z
1/2+x,1/4-y,3/4-z
3/4-x,y,3/4-z
1/2-x,-y,1/2-z
1/4+x,3/4+y,1/2-z
1/2-x,3/4+y,1/4+z
1/4+x,-y,1/4+z
1/2+x,1/2+y,z
3/4-x,3/4-y,z
1/2+x,3/4-y,1/4-z
3/4-x,1/2+y,1/4-z
1/2-x,1/2-y,-z
1/4+x,1/4+y,-z
1/2-x,1/4+y,3/4+z
1/4+x,1/2-y,3/4+z
loop_
_atom_site_type_symbol
_atom_site_label
_atom_site_fract_x
_atom_site_fract_y
_atom_site_fract_z
Si Si1 0.065986 0.422196 0.294314
Si Si2 0.625000 0.625000 0.823063
Si Si3 0.995965 0.045270 0.766036
Si Si4 0.625000 0.858834 0.125000
Si Si5 0.300147 0.500169 0.166505
O O1 0.056344 0.375000 0.375000
O O2 0.010572 0.476429 0.302102
O O3 0.076160 0.394310 0.195890
O O4 0.136948 0.457168 0.307786
O O5 0.562607 0.588573 0.776554
O O6 0.667799 0.566476 0.863173
O O7 0.928997 0.072194 0.813710
O O8 0.985627 0.034187 0.663538
O O9 0.250000 0.500000 0.250000
#
# Coordination Sequence:
#
# PCOD9516253 Si02
#       5
#    32  16  32  16  32
#     4  11  23  42  65  96 136 176 227 285 342 408
#     4  10  24  41  66 101 136 168 232 285 336 415
#     4  11  24  43  67 101 133 183 223 285 346 409
#     4  12  24  46  71  97 140 180 230 286 346 420
#     4  11  23  41  66  98 135 179 229 282 351 405
#
# _framework density 19.978726999999999
#
# number of rings (size 3 to 8) (size 9 to 14) (size 15 to 20)
#    0.000    1.000    2.500    4.500    0.000    5.000 
#    4.500    0.000    0.000    0.000    0.000    0.000 
#    0.000    0.000    0.000    0.000    0.000    0.000 
#
# Total GULP energy -178325.674192 kJ/mol
# GULP energy per Si atom -5572.677319 kJ/mol
# Density = 1.993325 g / cm^3
# Si number density = 19.978727 Si / 1000 Ang^3
#
#
#
# Elastic Constant Matrix: (Units=GPa)
#
#
# Indices 1 2 3 4 5 6 
#
# 1 92.8664 34.6359 16.6371 0.0000 0.0000 0.0000
# 2 34.6359 98.6450 43.3357 0.0000 0.0000 0.0000
# 3 16.6371 43.3357 86.6986 0.0000 0.0000 0.0000
# 4 0.0000 0.0000 0.0000 72.2146 0.0000 0.0000
# 5 0.0000 0.0000 0.0000 0.0000 35.5556 0.0000
# 6 0.0000 0.0000 0.0000 0.0000 0.0000 29.2594
#
#
#
# Elastic Compliance Matrix: (Units=1/GPa)
#
#
# Indices 1 2 3 4 5 6 
#
# 1 0.012395 -0.004238 -0.000260 0.000000 0.000000 0.000000
# 2 -0.004238 0.014439 -0.006404 0.000000 0.000000 0.000000
# 3 -0.000260 -0.006404 0.014785 0.000000 0.000000 0.000000
# 4 0.000000 0.000000 0.000000 0.013848 0.000000 0.000000
# 5 0.000000 0.000000 0.000000 0.000000 0.028125 0.000000
# 6 0.000000 0.000000 0.000000 0.000000 0.000000 0.034177
#
#
# Mechanical properties :
#
#
# Convention : Reuss Voigt Hill
#
# Bulk Modulus (GPa) = 50.46680 51.93638 51.20159
# Shear Modulus (GPa) = 34.20496 39.64601 36.92549
#
# Velocity S-wave (km/s) = 4.14220 4.45951 4.30378
# Velocity P-wave (km/s) = 6.94206 7.25042 7.09791
#
# Compressibility (1/GPa) = 0.01981501
#
# Stress axis : x y z
#
# Youngs Moduli (GPa) = 80.67535 69.25893 67.63583
#
# Poissons Ratio (x) = 0.29351 0.01761
# Poissons Ratio (y) = 0.34189 0.43313
# Poissons Ratio (z) = 0.02101 0.44352
#
# Static dielectric constant tensor:
#      x y z
#    x 1.810870 0.000000 0.000000 
#    y 0.000000 1.768360 0.000000 
#    z 0.000000 0.000000 1.825890 
# 
# From -- ./inp_files/27278.got.cif
#   From: 2010.05.17/outbox.cif.g08.bks.cpg/sg70_14_cif.got.tgz:27278.got - 2010.06.03 15:57:51.
