data_PCOD9516251
_publ_section_title
;
Structure prediction by ZEFSAII (Michael W. Deem and Ramdas Pophale) SiO2 
 PCOD9516251
Probable space group: F D D D
;
_chemical_formula_sum "Si O2"
_cell_formula_units_Z 160
_cell_length_a 9.878320
_cell_length_b 34.457982
_cell_length_c 23.787648
_cell_angle_alpha 90.000000
_cell_angle_beta 90.000000
_cell_angle_gamma 90.000000
_cell_volume 8097.005492
_symmetry_space_group_name_H-M "F D D D"
_symmetry_group_IT_number 70
_space_group.IT_coordinate_system_code '2'
_symmetry_cell_setting 'orthorhombic'
loop_
_space_group_symop_operation_xyz
x,y,z
1/4-x,1/4-y,z
x,1/4-y,1/4-z
1/4-x,y,1/4-z
-x,-y,-z
3/4+x,3/4+y,-z
-x,3/4+y,3/4+z
3/4+x,-y,3/4+z
x,1/2+y,1/2+z
1/4-x,3/4-y,1/2+z
x,3/4-y,3/4-z
1/4-x,1/2+y,3/4-z
-x,1/2-y,1/2-z
3/4+x,1/4+y,1/2-z
-x,1/4+y,1/4+z
3/4+x,1/2-y,1/4+z
1/2+x,y,1/2+z
3/4-x,1/4-y,1/2+z
1/2+x,1/4-y,3/4-z
3/4-x,y,3/4-z
1/2-x,-y,1/2-z
1/4+x,3/4+y,1/2-z
1/2-x,3/4+y,1/4+z
1/4+x,-y,1/4+z
1/2+x,1/2+y,z
3/4-x,3/4-y,z
1/2+x,3/4-y,1/4-z
3/4-x,1/2+y,1/4-z
1/2-x,1/2-y,-z
1/4+x,1/4+y,-z
1/2-x,1/4+y,3/4+z
1/4+x,1/2-y,3/4+z
loop_
_atom_site_type_symbol
_atom_site_label
_atom_site_fract_x
_atom_site_fract_y
_atom_site_fract_z
Si Si1 0.018018 0.770213 0.843095
Si Si2 0.125000 0.332714 0.625000
Si Si3 0.972986 0.668547 0.147069
Si Si4 0.855398 0.294046 0.521054
Si Si5 0.625000 0.625000 0.928741
Si Si6 0.667972 0.459953 0.740879
O O1 0.875000 0.768938 0.875000
O O2 0.993904 0.784470 0.779587
O O3 0.121319 0.799366 0.872239
O O4 0.077246 0.727728 0.830022
O O5 0.248791 0.359819 0.643304
O O6 0.077047 0.306534 0.677590
O O7 0.936916 0.625000 0.125000
O O8 0.125000 0.675694 0.125000
O O9 0.965624 0.677385 0.213953
O O10 0.839649 0.339075 0.532228
O O11 0.006908 0.283368 0.501194
O O12 0.750000 0.500000 0.750000
#
# Coordination Sequence:
#
# PCOD9516251 Si02
#       6
#    32  16  32  32  16  32
#     4  11  23  42  68  97 134 174 222 278 344 404
#     4  10  26  44  68 100 131 190 219 286 344 398
#     4  11  26  44  68 104 137 176 231 288 355 412
#     4  10  24  41  65 101 131 178 220 277 337 412
#     4  10  24  44  65  94 137 166 232 266 340 404
#     4  11  24  44  71  99 139 182 235 282 344 416
#
# _framework density 19.760390999999998
#
# number of rings (size 3 to 8) (size 9 to 14) (size 15 to 20)
#    0.000    1.400    2.000    1.200   14.000    2.000 
#    3.600    0.000    0.000    0.000    0.000    0.000 
#    0.000    0.000    0.000    0.000    0.000    0.000 
#
# Total GULP energy -223217.572040 kJ/mol
# GULP energy per Si atom -5580.439301 kJ/mol
# Density = 1.971542 g / cm^3
# Si number density = 19.760391 Si / 1000 Ang^3
#
#
#
# Elastic Constant Matrix: (Units=GPa)
#
#
# Indices 1 2 3 4 5 6 
#
# 1 65.7260 35.5819 31.9332 0.0000 0.0000 0.0000
# 2 35.5819 149.4582 59.5593 0.0000 0.0000 0.0000
# 3 31.9332 59.5593 127.6416 0.0000 0.0000 0.0000
# 4 0.0000 0.0000 0.0000 17.0586 0.0000 0.0000
# 5 0.0000 0.0000 0.0000 0.0000 10.4464 0.0000
# 6 0.0000 0.0000 0.0000 0.0000 0.0000 20.3838
#
#
#
# Elastic Compliance Matrix: (Units=1/GPa)
#
#
# Indices 1 2 3 4 5 6 
#
# 1 0.018443 -0.003135 -0.003151 0.000000 0.000000 0.000000
# 2 -0.003135 0.008752 -0.003300 0.000000 0.000000 0.000000
# 3 -0.003151 -0.003300 0.010162 0.000000 0.000000 0.000000
# 4 0.000000 0.000000 0.000000 0.058622 0.000000 0.000000
# 5 0.000000 0.000000 0.000000 0.000000 0.095727 0.000000
# 6 0.000000 0.000000 0.000000 0.000000 0.000000 0.049059
#
#
# Mechanical properties :
#
#
# Convention : Reuss Voigt Hill
#
# Bulk Modulus (GPa) = 54.98754 66.33048 60.65901
# Shear Modulus (GPa) = 18.79719 23.96120 21.37920
#
# Velocity S-wave (km/s) = 3.08759 3.48600 3.29283
# Velocity P-wave (km/s) = 6.37170 7.05997 6.72465
#
# Compressibility (1/GPa) = 0.01818594
#
# Stress axis : x y z
#
# Youngs Moduli (GPa) = 54.22154 114.25901 98.40202
#
# Poissons Ratio (x) = 0.35820 0.31008
# Poissons Ratio (y) = 0.16998 0.32468
# Poissons Ratio (z) = 0.17086 0.37700
#
# Static dielectric constant tensor:
#      x y z
#    x 1.129080 0.000000 0.000000 
#    y 0.000000 1.705800 0.000000 
#    z 0.000000 0.000000 1.754670 
# 
# From -- ./inp_files/50337.got.cif
#   From: 2010.05.17/outbox.cif.g08.bks.cpg/sg70_26_cif.got.tgz:50337.got - 2010.06.03 15:57:51.
