data_PCOD9516625
_publ_section_title
;
Structure prediction by ZEFSAII (Michael W. Deem and Ramdas Pophale) SiO2 
 PCOD9516625
Probable space group: F D D D
;
_chemical_formula_sum "Si O2"
_cell_formula_units_Z 104
_cell_length_a 10.636954
_cell_length_b 17.728894
_cell_length_c 23.929123
_cell_angle_alpha 90.000000
_cell_angle_beta 90.000000
_cell_angle_gamma 90.000000
_cell_volume 4512.588233
_symmetry_space_group_name_H-M "F D D D"
_symmetry_group_IT_number 70
_space_group.IT_coordinate_system_code '2'
_symmetry_cell_setting 'orthorhombic'
loop_
_space_group_symop_operation_xyz
x,y,z
1/4-x,1/4-y,z
x,1/4-y,1/4-z
1/4-x,y,1/4-z
-x,-y,-z
3/4+x,3/4+y,-z
-x,3/4+y,3/4+z
3/4+x,-y,3/4+z
x,1/2+y,1/2+z
1/4-x,3/4-y,1/2+z
x,3/4-y,3/4-z
1/4-x,1/2+y,3/4-z
-x,1/2-y,1/2-z
3/4+x,1/4+y,1/2-z
-x,1/4+y,1/4+z
3/4+x,1/2-y,1/4+z
1/2+x,y,1/2+z
3/4-x,1/4-y,1/2+z
1/2+x,1/4-y,3/4-z
3/4-x,y,3/4-z
1/2-x,-y,1/2-z
1/4+x,3/4+y,1/2-z
1/2-x,3/4+y,1/4+z
1/4+x,-y,1/4+z
1/2+x,1/2+y,z
3/4-x,3/4-y,z
1/2+x,3/4-y,1/4-z
3/4-x,1/2+y,1/4-z
1/2-x,1/2-y,-z
1/4+x,1/4+y,-z
1/2-x,1/4+y,3/4+z
1/4+x,1/2-y,3/4+z
loop_
_atom_site_type_symbol
_atom_site_label
_atom_site_fract_x
_atom_site_fract_y
_atom_site_fract_z
Si Si1 0.875000 0.375000 0.875000
Si Si2 0.070886 0.289149 0.799398
Si Si3 0.254687 0.658371 0.560702
Si Si4 0.228872 0.188434 0.883386
O O1 0.783365 0.319460 0.908190
O O2 0.137425 0.365581 0.778168
O O3 0.170980 0.233213 0.829291
O O4 0.000000 0.250000 0.750000
O O5 0.125000 0.625000 0.539279
O O6 0.264472 0.625000 0.625000
O O7 0.265113 0.747058 0.568634
O O8 0.375000 0.164028 0.875000
O O9 0.125000 0.125000 0.895501
#
# Coordination Sequence:
#
# PCOD9516625 Si02
#       4
#     8  32  32  32
#     4  12  24  44  74 108 152 200 260 336 392 462
#     4  11  24  42  73 108 149 199 264 322 401 469
#     4   9  15  39  71  96 131 199 247 300 381 457
#     4  11  22  39  72 112 147 198 259 321 389 467
#
# _framework density 23.04664
#
# number of rings (size 3 to 8) (size 9 to 14) (size 15 to 20)
#    0.000    1.538   10.769    0.000    4.308    0.000 
#    0.000    0.000    6.769    5.538    0.000    0.000 
#    0.000    0.000    0.000    0.000    0.000    0.000 
#
# Total GULP energy -145219.683458 kJ/mol
# GULP energy per Si atom -5585.372441 kJ/mol
# Density = 2.299418 g / cm^3
# Si number density = 23.046640 Si / 1000 Ang^3
#
#
#
# Elastic Constant Matrix: (Units=GPa)
#
#
# Indices 1 2 3 4 5 6 
#
# 1 226.0263 101.3251 44.7977 0.0000 0.0000 0.0000
# 2 101.3251 167.6655 26.2248 0.0000 0.0000 0.0000
# 3 44.7977 26.2248 60.8656 0.0000 0.0000 0.0000
# 4 0.0000 0.0000 0.0000 16.9589 0.0000 0.0000
# 5 0.0000 0.0000 0.0000 0.0000 11.6592 0.0000
# 6 0.0000 0.0000 0.0000 0.0000 0.0000 53.8853
#
#
#
# Elastic Compliance Matrix: (Units=1/GPa)
#
#
# Indices 1 2 3 4 5 6 
#
# 1 0.006665 -0.003496 -0.003399 0.000000 0.000000 0.000000
# 2 -0.003496 0.008229 -0.000972 0.000000 0.000000 0.000000
# 3 -0.003399 -0.000972 0.019351 0.000000 0.000000 0.000000
# 4 0.000000 0.000000 0.000000 0.058966 0.000000 0.000000
# 5 0.000000 0.000000 0.000000 0.000000 0.085769 0.000000
# 6 0.000000 0.000000 0.000000 0.000000 0.000000 0.018558
#
#
# Mechanical properties :
#
#
# Convention : Reuss Voigt Hill
#
# Bulk Modulus (GPa) = 54.02744 88.80584 71.41664
# Shear Modulus (GPa) = 22.78481 35.31466 29.04974
#
# Velocity S-wave (km/s) = 3.14767 3.91872 3.55417
# Velocity P-wave (km/s) = 6.05838 7.68713 6.92084
#
# Compressibility (1/GPa) = 0.01850911
#
# Stress axis : x y z
#
# Youngs Moduli (GPa) = 150.02863 121.51681 51.67822
#
# Poissons Ratio (x) = 0.42487 0.17567
# Poissons Ratio (y) = 0.52456 0.05025
# Poissons Ratio (z) = 0.51000 0.11816
#
# Static dielectric constant tensor:
#      x y z
#    x 2.014750 0.000000 0.000000 
#    y 0.000000 1.885640 0.000000 
#    z 0.000000 0.000000 1.915670 
# 
# From -- ./inp_files/57063.got.cif
#   From: 2010.05.17/outbox.cif.g08.bks.cpg/sg70_29_cif.got.tgz:57063.got - 2010.06.03 15:57:51.
