data_PCOD9516271
_publ_section_title
;
Structure prediction by ZEFSAII (Michael W. Deem and Ramdas Pophale) SiO2 
 PCOD9516271
Probable space group: F D D D
;
_chemical_formula_sum "Si O2"
_cell_formula_units_Z 136
_cell_length_a 15.918523
_cell_length_b 23.667636
_cell_length_c 15.507223
_cell_angle_alpha 90.000000
_cell_angle_beta 90.000000
_cell_angle_gamma 90.000000
_cell_volume 5842.405317
_symmetry_space_group_name_H-M "F D D D"
_symmetry_group_IT_number 70
_space_group.IT_coordinate_system_code '2'
_symmetry_cell_setting 'orthorhombic'
loop_
_space_group_symop_operation_xyz
x,y,z
1/4-x,1/4-y,z
x,1/4-y,1/4-z
1/4-x,y,1/4-z
-x,-y,-z
3/4+x,3/4+y,-z
-x,3/4+y,3/4+z
3/4+x,-y,3/4+z
x,1/2+y,1/2+z
1/4-x,3/4-y,1/2+z
x,3/4-y,3/4-z
1/4-x,1/2+y,3/4-z
-x,1/2-y,1/2-z
3/4+x,1/4+y,1/2-z
-x,1/4+y,1/4+z
3/4+x,1/2-y,1/4+z
1/2+x,y,1/2+z
3/4-x,1/4-y,1/2+z
1/2+x,1/4-y,3/4-z
3/4-x,y,3/4-z
1/2-x,-y,1/2-z
1/4+x,3/4+y,1/2-z
1/2-x,3/4+y,1/4+z
1/4+x,-y,1/4+z
1/2+x,1/2+y,z
3/4-x,3/4-y,z
1/2+x,3/4-y,1/4-z
3/4-x,1/2+y,1/4-z
1/2-x,1/2-y,-z
1/4+x,1/4+y,-z
1/2-x,1/4+y,3/4+z
1/4+x,1/2-y,3/4+z
loop_
_atom_site_type_symbol
_atom_site_label
_atom_site_fract_x
_atom_site_fract_y
_atom_site_fract_z
Si Si1 0.046581 0.855501 0.291067
Si Si2 0.125000 0.414971 0.125000
Si Si3 0.111847 0.244140 0.856970
Si Si4 0.375000 0.875000 0.019082
Si Si5 0.875000 0.875000 0.875000
Si Si6 0.734236 0.039032 0.509752
O O1 0.096888 0.875000 0.375000
O O2 0.083049 0.870777 0.199495
O O3 0.052568 0.788000 0.304247
O O4 0.956288 0.884201 0.288992
O O5 0.197855 0.446632 0.068574
O O6 0.103446 0.179734 0.825124
O O7 0.206518 0.260184 0.830865
O O8 0.084762 0.246434 0.956478
O O9 0.815499 0.838193 0.810534
#
# Coordination Sequence:
#
# PCOD9516271 Si02
#       6
#    32  16  32  16   8  32
#     4  11  24  42  73 112 152 196 256 314 392 459
#     4  10  24  42  75 109 152 199 247 324 388 454
#     4  11  25  47  75 116 150 205 250 331 387 473
#     4  12  22  42  71 111 152 192 249 317 397 464
#     4  12  30  56  72 112 162 218 250 330 384 492
#     4  11  26  48  78 108 159 199 262 318 402 453
#
# _framework density 23.278084
#
# number of rings (size 3 to 8) (size 9 to 14) (size 15 to 20)
#    0.000    0.941    2.353    3.176    9.882    0.941 
#    0.000    4.706    0.000    0.000    0.000    0.000 
#    0.000    0.000    0.000    0.000    0.000    0.000 
#
# Total GULP energy -189502.668740 kJ/mol
# GULP energy per Si atom -5573.607904 kJ/mol
# Density = 2.322510 g / cm^3
# Si number density = 23.278084 Si / 1000 Ang^3
#
#
#
# Elastic Constant Matrix: (Units=GPa)
#
#
# Indices 1 2 3 4 5 6 
#
# 1 100.7000 27.1707 74.9708 0.0000 0.0000 0.0000
# 2 27.1707 65.5923 31.4608 0.0000 0.0000 0.0000
# 3 74.9708 31.4608 168.7958 0.0000 0.0000 0.0000
# 4 0.0000 0.0000 0.0000 31.6397 0.0000 0.0000
# 5 0.0000 0.0000 0.0000 0.0000 23.5378 0.0000
# 6 0.0000 0.0000 0.0000 0.0000 0.0000 36.8823
#
#
#
# Elastic Compliance Matrix: (Units=1/GPa)
#
#
# Indices 1 2 3 4 5 6 
#
# 1 0.015507 -0.003426 -0.006249 0.000000 0.000000 0.000000
# 2 -0.003426 0.017500 -0.001740 0.000000 0.000000 0.000000
# 3 -0.006249 -0.001740 0.009024 0.000000 0.000000 0.000000
# 4 0.000000 0.000000 0.000000 0.031606 0.000000 0.000000
# 5 0.000000 0.000000 0.000000 0.000000 0.042485 0.000000
# 6 0.000000 0.000000 0.000000 0.000000 0.000000 0.027113
#
#
# Mechanical properties :
#
#
# Convention : Reuss Voigt Hill
#
# Bulk Modulus (GPa) = 52.08180 66.92142 59.50161
# Shear Modulus (GPa) = 28.99131 31.84434 30.41782
#
# Velocity S-wave (km/s) = 3.53290 3.70266 3.61877
# Velocity P-wave (km/s) = 6.25013 6.86226 6.56334
#
# Compressibility (1/GPa) = 0.01920057
#
# Stress axis : x y z
#
# Youngs Moduli (GPa) = 64.48556 57.14443 110.81473
#
# Poissons Ratio (x) = 0.19580 0.69248
# Poissons Ratio (y) = 0.22096 0.19279
# Poissons Ratio (z) = 0.40297 0.09942
#
# Static dielectric constant tensor:
#      x y z
#    x 1.973160 0.000000 0.000000 
#    y 0.000000 1.953790 0.000000 
#    z 0.000000 0.000000 1.911460 
# 
# From -- ./inp_files/34736.got.cif
#   From: 2010.05.17/outbox.cif.g08.bks.cpg/sg70_18_cif.got.tgz:34736.got - 2010.06.03 15:57:51.
