data_PCOD9516217
_publ_section_title
;
Structure prediction by ZEFSAII (Michael W. Deem and Ramdas Pophale) SiO2 
 PCOD9516217
Probable space group: F D D D
;
_chemical_formula_sum "Si O2"
_cell_formula_units_Z 144
_cell_length_a 30.608686
_cell_length_b 15.385575
_cell_length_c 13.566397
_cell_angle_alpha 90.000000
_cell_angle_beta 90.000000
_cell_angle_gamma 90.000000
_cell_volume 6388.853648
_symmetry_space_group_name_H-M "F D D D"
_symmetry_group_IT_number 70
_space_group.IT_coordinate_system_code '2'
_symmetry_cell_setting 'orthorhombic'
loop_
_space_group_symop_operation_xyz
x,y,z
1/4-x,1/4-y,z
x,1/4-y,1/4-z
1/4-x,y,1/4-z
-x,-y,-z
3/4+x,3/4+y,-z
-x,3/4+y,3/4+z
3/4+x,-y,3/4+z
x,1/2+y,1/2+z
1/4-x,3/4-y,1/2+z
x,3/4-y,3/4-z
1/4-x,1/2+y,3/4-z
-x,1/2-y,1/2-z
3/4+x,1/4+y,1/2-z
-x,1/4+y,1/4+z
3/4+x,1/2-y,1/4+z
1/2+x,y,1/2+z
3/4-x,1/4-y,1/2+z
1/2+x,1/4-y,3/4-z
3/4-x,y,3/4-z
1/2-x,-y,1/2-z
1/4+x,3/4+y,1/2-z
1/2-x,3/4+y,1/4+z
1/4+x,-y,1/4+z
1/2+x,1/2+y,z
3/4-x,3/4-y,z
1/2+x,3/4-y,1/4-z
3/4-x,1/2+y,1/4-z
1/2-x,1/2-y,-z
1/4+x,1/4+y,-z
1/2-x,1/4+y,3/4+z
1/4+x,1/2-y,3/4+z
loop_
_atom_site_type_symbol
_atom_site_label
_atom_site_fract_x
_atom_site_fract_y
_atom_site_fract_z
Si Si1 0.964724 0.960801 0.317029
Si Si2 0.837680 0.935926 0.625591
Si Si3 0.375000 0.539856 0.375000
Si Si4 0.901234 0.575924 0.216278
Si Si5 0.213779 0.177966 0.224414
O O1 0.980381 0.875000 0.375000
O O2 0.949858 0.945119 0.204396
O O3 0.919905 0.987656 0.370663
O O4 0.998563 0.039891 0.300267
O O5 0.875000 0.875000 0.578751
O O6 0.817600 0.888245 0.719213
O O7 0.863473 0.018393 0.666178
O O8 0.371528 0.602155 0.281920
O O9 0.924290 0.625000 0.125000
O O10 0.933652 0.515681 0.281826
O O11 0.227567 0.125000 0.125000
#
# Coordination Sequence:
#
# PCOD9516217 Si02
#       5
#    32  32  16  32  32
#     4  12  27  44  70 104 141 188 238 293 352 422
#     4  10  23  46  72  99 143 184 237 293 354 417
#     4  12  25  42  75 102 142 188 236 288 359 422
#     4  11  23  45  72 108 138 187 239 297 351 429
#     4  11  27  45  71 102 146 187 234 294 357 420
#
# _framework density 22.539256000000002
#
# number of rings (size 3 to 8) (size 9 to 14) (size 15 to 20)
#    0.000    0.889    2.222    3.667    9.333    4.889 
#    0.000    0.000    0.000    0.000    0.000    0.000 
#    0.000    0.000    0.000    0.000    0.000    0.000 
#
# Total GULP energy -200957.644424 kJ/mol
# GULP energy per Si atom -5582.156790 kJ/mol
# Density = 2.248796 g / cm^3
# Si number density = 22.539256 Si / 1000 Ang^3
#
#
#
# Elastic Constant Matrix: (Units=GPa)
#
#
# Indices 1 2 3 4 5 6 
#
# 1 104.5614 51.0105 19.4883 0.0000 0.0000 0.0000
# 2 51.0105 110.3624 44.2971 0.0000 0.0000 0.0000
# 3 19.4883 44.2971 60.9113 0.0000 0.0000 0.0000
# 4 0.0000 0.0000 0.0000 57.9077 0.0000 0.0000
# 5 0.0000 0.0000 0.0000 0.0000 16.1703 0.0000
# 6 0.0000 0.0000 0.0000 0.0000 0.0000 -3.0394
#
#
#
# Elastic Compliance Matrix: (Units=1/GPa)
#
#
# Indices 1 2 3 4 5 6 
#
# 1 0.012352 -0.005822 0.000282 0.000000 0.000000 0.000000
# 2 -0.005822 0.015541 -0.009439 0.000000 0.000000 0.000000
# 3 0.000282 -0.009439 0.023191 0.000000 0.000000 0.000000
# 4 0.000000 0.000000 0.000000 0.017269 0.000000 0.000000
# 5 0.000000 0.000000 0.000000 0.000000 0.061842 0.000000
# 6 0.000000 0.000000 0.000000 0.000000 0.000000 -0.329007
#
#
# Mechanical properties :
#
#
# Convention : Reuss Voigt Hill
#
# Bulk Modulus (GPa) = 47.33549 56.15856 51.74703
# Shear Modulus (GPa) = -30.89990 24.94365 -2.97812
#
# Velocity S-wave (km/s) = -3.70663 3.33028 -1.15073
# Velocity P-wave (km/s) = 1.65170 6.30537 4.60900
#
# Compressibility (1/GPa) = 0.02112580
#
# Stress axis : x y z
#
# Youngs Moduli (GPa) = 80.96138 64.34658 43.11941
#
# Poissons Ratio (x) = 0.37465 -0.01218
# Poissons Ratio (y) = 0.47139 0.40701
# Poissons Ratio (z) = -0.02287 0.60737
#
# Static dielectric constant tensor:
#      x y z
#    x 1.812630 0.000000 0.000000 
#    y 0.000000 1.864610 0.000000 
#    z 0.000000 0.000000 1.890920 
# 
# From -- ./inp_files/30820.got.cif
#   From: 2010.05.17/outbox.cif.g08.bks.cpg/sg70_16_cif.got.tgz:30820.got - 2010.06.03 15:57:51.
