data_PCOD9516450
_publ_section_title
;
Structure prediction by ZEFSAII (Michael W. Deem and Ramdas Pophale) SiO2 
 PCOD9516450
Probable space group: F D D D
;
_chemical_formula_sum "Si O2"
_cell_formula_units_Z 216
_cell_length_a 11.311138
_cell_length_b 26.920717
_cell_length_c 29.955285
_cell_angle_alpha 90.000000
_cell_angle_beta 90.000000
_cell_angle_gamma 90.000000
_cell_volume 9121.502457
_symmetry_space_group_name_H-M "F D D D"
_symmetry_group_IT_number 70
_space_group.IT_coordinate_system_code '2'
_symmetry_cell_setting 'orthorhombic'
loop_
_space_group_symop_operation_xyz
x,y,z
1/4-x,1/4-y,z
x,1/4-y,1/4-z
1/4-x,y,1/4-z
-x,-y,-z
3/4+x,3/4+y,-z
-x,3/4+y,3/4+z
3/4+x,-y,3/4+z
x,1/2+y,1/2+z
1/4-x,3/4-y,1/2+z
x,3/4-y,3/4-z
1/4-x,1/2+y,3/4-z
-x,1/2-y,1/2-z
3/4+x,1/4+y,1/2-z
-x,1/4+y,1/4+z
3/4+x,1/2-y,1/4+z
1/2+x,y,1/2+z
3/4-x,1/4-y,1/2+z
1/2+x,1/4-y,3/4-z
3/4-x,y,3/4-z
1/2-x,-y,1/2-z
1/4+x,3/4+y,1/2-z
1/2-x,3/4+y,1/4+z
1/4+x,-y,1/4+z
1/2+x,1/2+y,z
3/4-x,3/4-y,z
1/2+x,3/4-y,1/4-z
3/4-x,1/2+y,1/4-z
1/2-x,1/2-y,-z
1/4+x,1/4+y,-z
1/2-x,1/4+y,3/4+z
1/4+x,1/2-y,3/4+z
loop_
_atom_site_type_symbol
_atom_site_label
_atom_site_fract_x
_atom_site_fract_y
_atom_site_fract_z
Si Si1 0.745051 0.705915 0.642242
Si Si2 0.396369 0.749176 0.685749
Si Si3 0.875000 0.375000 0.953821
Si Si4 0.012348 0.599367 0.476931
Si Si5 0.179546 0.317462 0.512545
Si Si6 0.009147 0.950144 0.110597
Si Si7 0.625000 0.125000 0.625000
Si Si8 0.263943 0.544320 0.685035
O O1 0.625000 0.732615 0.625000
O O2 0.814188 0.702866 0.595472
O O3 0.698290 0.659975 0.670476
O O4 0.852834 0.724228 0.672611
O O5 0.357783 0.721705 0.731052
O O6 0.504986 0.784124 0.700679
O O7 0.314127 0.782325 0.653690
O O8 0.786959 0.343090 0.984798
O O9 0.125000 0.625000 0.498447
O O10 0.906755 0.638818 0.472724
O O11 0.052287 0.579550 0.428877
O O12 0.981257 0.557749 0.513284
O O13 0.125000 0.920330 0.125000
O O14 0.059942 0.997849 0.083039
O O15 0.711567 0.090517 0.655917
#
# Coordination Sequence:
#
# PCOD9516450 Si02
#       8
#    32  32  16  32  32  32   8  32
#     4  11  23  38  70 108 134 175 237 306 366 423
#     4  10  26  47  72 103 145 193 243 307 377 428
#     4  12  23  40  74 105 132 171 242 306 362 425
#     4  12  28  47  72 107 149 192 246 298 365 450
#     4  11  26  47  74 107 142 191 245 308 368 439
#     4  11  27  48  72 106 146 198 239 297 370 447
#     4  12  24  40  74 102 136 190 244 290 364 444
#     4  11  25  44  72 105 146 188 236 303 365 439
#
# _framework density 23.680308
#
# number of rings (size 3 to 8) (size 9 to 14) (size 15 to 20)
#    0.000    0.889    4.444    0.667   10.370    3.556 
#    0.000    0.000    0.000    0.000    0.000    0.000 
#    0.000    0.000    0.000    0.000    0.000    0.000 
#
# Total GULP energy -300863.603846 kJ/mol
# GULP energy per Si atom -5571.548219 kJ/mol
# Density = 2.362641 g / cm^3
# Si number density = 23.680308 Si / 1000 Ang^3
#
#
#
# Elastic Constant Matrix: (Units=GPa)
#
#
# Indices 1 2 3 4 5 6 
#
# 1 76.0797 20.4396 47.0514 0.0000 0.0000 0.0000
# 2 20.4396 84.9303 44.9604 0.0000 0.0000 0.0000
# 3 47.0514 44.9604 130.0079 0.0000 0.0000 0.0000
# 4 0.0000 0.0000 0.0000 -54.7788 0.0000 0.0000
# 5 0.0000 0.0000 0.0000 0.0000 16.2303 0.0000
# 6 0.0000 0.0000 0.0000 0.0000 0.0000 26.3763
#
#
#
# Elastic Compliance Matrix: (Units=1/GPa)
#
#
# Indices 1 2 3 4 5 6 
#
# 1 0.017007 -0.001022 -0.005802 0.000000 0.000000 0.000000
# 2 -0.001022 0.014474 -0.004636 0.000000 0.000000 0.000000
# 3 -0.005802 -0.004636 0.011395 0.000000 0.000000 0.000000
# 4 0.000000 0.000000 0.000000 -0.018255 0.000000 0.000000
# 5 0.000000 0.000000 0.000000 0.000000 0.061613 0.000000
# 6 0.000000 0.000000 0.000000 0.000000 0.000000 0.037913
#
#
# Mechanical properties :
#
#
# Convention : Reuss Voigt Hill
#
# Bulk Modulus (GPa) = 50.10658 57.32453 53.71555
# Shear Modulus (GPa) = 32.52725 9.46998 20.99862
#
# Velocity S-wave (km/s) = 3.71023 2.00194 2.98107
# Velocity P-wave (km/s) = 6.28967 5.44095 5.88064
#
# Compressibility (1/GPa) = 0.01995746
#
# Stress axis : x y z
#
# Youngs Moduli (GPa) = 58.80087 69.08761 87.75996
#
# Poissons Ratio (x) = 0.07058 0.50915
# Poissons Ratio (y) = 0.06007 0.40685
# Poissons Ratio (z) = 0.34114 0.32028
#
# Static dielectric constant tensor:
#      x y z
#    x 1.985250 0.000000 0.000000 
#    y 0.000000 1.890650 0.000000 
#    z 0.000000 0.000000 1.893520 
# 
# From -- ./inp_files/65175.got.cif
#   From: 2010.05.17/outbox.cif.g08.bks.cpg/sg70_33_cif.got.tgz:65175.got - 2010.06.03 15:57:51.
