data_PCOD9516691
_publ_section_title
;
Structure prediction by ZEFSAII (Michael W. Deem and Ramdas Pophale) SiO2 
 PCOD9516691
Probable space group: F D D D
;
_chemical_formula_sum "Si O2"
_cell_formula_units_Z 144
_cell_length_a 25.975931
_cell_length_b 15.608113
_cell_length_c 13.623888
_cell_angle_alpha 90.000000
_cell_angle_beta 90.000000
_cell_angle_gamma 90.000000
_cell_volume 5523.604660
_symmetry_space_group_name_H-M "F D D D"
_symmetry_group_IT_number 70
_space_group.IT_coordinate_system_code '2'
_symmetry_cell_setting 'orthorhombic'
loop_
_space_group_symop_operation_xyz
x,y,z
1/4-x,1/4-y,z
x,1/4-y,1/4-z
1/4-x,y,1/4-z
-x,-y,-z
3/4+x,3/4+y,-z
-x,3/4+y,3/4+z
3/4+x,-y,3/4+z
x,1/2+y,1/2+z
1/4-x,3/4-y,1/2+z
x,3/4-y,3/4-z
1/4-x,1/2+y,3/4-z
-x,1/2-y,1/2-z
3/4+x,1/4+y,1/2-z
-x,1/4+y,1/4+z
3/4+x,1/2-y,1/4+z
1/2+x,y,1/2+z
3/4-x,1/4-y,1/2+z
1/2+x,1/4-y,3/4-z
3/4-x,y,3/4-z
1/2-x,-y,1/2-z
1/4+x,3/4+y,1/2-z
1/2-x,3/4+y,1/4+z
1/4+x,-y,1/4+z
1/2+x,1/2+y,z
3/4-x,3/4-y,z
1/2+x,3/4-y,1/4-z
3/4-x,1/2+y,1/4-z
1/2-x,1/2-y,-z
1/4+x,1/4+y,-z
1/2-x,1/4+y,3/4+z
1/4+x,1/2-y,3/4+z
loop_
_atom_site_type_symbol
_atom_site_label
_atom_site_fract_x
_atom_site_fract_y
_atom_site_fract_z
Si Si1 0.320466 0.866048 0.670373
Si Si2 0.813193 0.690604 0.053367
Si Si3 0.957207 0.330336 0.470138
Si Si4 0.875000 0.142309 0.375000
Si Si5 0.535397 0.880538 0.757609
O O1 0.375000 0.875000 0.723532
O O2 0.309614 0.773026 0.621738
O O3 0.324841 0.917355 0.569276
O O4 0.271702 0.901254 0.729364
O O5 0.841422 0.625000 0.125000
O O6 0.759662 0.640976 0.023403
O O7 0.845629 0.698696 0.955729
O O8 0.933236 0.375000 0.375000
O O9 0.967533 0.229418 0.469098
O O10 0.831378 0.092913 0.311054
O O11 0.542309 0.875000 0.875000
#
# Coordination Sequence:
#
# PCOD9516691 Si02
#       5
#    32  32  32  16  32
#     4  12  25  45  72 111 153 199 263 327 402 477
#     4  11  22  45  74 107 147 202 260 327 401 470
#     4  11  22  45  77 104 150 198 258 334 390 475
#     4  12  24  44  75 106 153 200 258 330 394 472
#     4  12  27  48  73 113 155 205 268 326 403 486
#
# _framework density 26.069932999999999
#
# number of rings (size 3 to 8) (size 9 to 14) (size 15 to 20)
#    0.000    0.444    6.667    4.000    0.000    1.778 
#    4.000    0.000    0.000    0.000    0.000    0.000 
#    0.000    0.000    0.000    0.000    0.000    0.000 
#
# Total GULP energy -200887.498692 kJ/mol
# GULP energy per Si atom -5580.208297 kJ/mol
# Density = 2.601060 g / cm^3
# Si number density = 26.069933 Si / 1000 Ang^3
#
#
#
# Elastic Constant Matrix: (Units=GPa)
#
#
# Indices 1 2 3 4 5 6 
#
# 1 215.5753 4.4900 80.9185 0.0000 0.0000 0.0000
# 2 4.4900 69.3052 13.6788 0.0000 0.0000 0.0000
# 3 80.9185 13.6788 171.3720 0.0000 0.0000 0.0000
# 4 0.0000 0.0000 0.0000 26.2688 0.0000 0.0000
# 5 0.0000 0.0000 0.0000 0.0000 -132.8869 0.0000
# 6 0.0000 0.0000 0.0000 0.0000 0.0000 6.3286
#
#
#
# Elastic Compliance Matrix: (Units=1/GPa)
#
#
# Indices 1 2 3 4 5 6 
#
# 1 0.005640 0.000163 -0.002676 0.000000 0.000000 0.000000
# 2 0.000163 0.014665 -0.001247 0.000000 0.000000 0.000000
# 3 -0.002676 -0.001247 0.007198 0.000000 0.000000 0.000000
# 4 0.000000 0.000000 0.000000 0.038068 0.000000 0.000000
# 5 0.000000 0.000000 0.000000 0.000000 -0.007525 0.000000
# 6 0.000000 0.000000 0.000000 0.000000 0.000000 0.158013
#
#
# Mechanical properties :
#
#
# Convention : Reuss Voigt Hill
#
# Bulk Modulus (GPa) = 50.04608 72.71411 61.38010
# Shear Modulus (GPa) = 21.71646 3.75311 12.73479
#
# Velocity S-wave (km/s) = 2.88932 1.20115 2.21257
# Velocity P-wave (km/s) = 5.51085 5.46591 5.48842
#
# Compressibility (1/GPa) = 0.01998158
#
# Stress axis : x y z
#
# Youngs Moduli (GPa) = 177.31037 68.19152 138.92008
#
# Poissons Ratio (x) = -0.01110 0.37175
# Poissons Ratio (y) = -0.02886 0.17329
# Poissons Ratio (z) = 0.47448 0.08506
#
# Static dielectric constant tensor:
#      x y z
#    x 2.238470 0.000000 0.000000 
#    y 0.000000 2.385150 0.000000 
#    z 0.000000 0.000000 2.058130 
# 
# From -- ./inp_files/30845.got.cif
#   From: 2010.05.17/outbox.cif.g08.bks.cpg/sg70_16_cif.got.tgz:30845.got - 2010.06.03 15:57:51.
