data_PCOD9516344
_publ_section_title
;
Structure prediction by ZEFSAII (Michael W. Deem and Ramdas Pophale) SiO2 
 PCOD9516344
Probable space group: F D D D
;
_chemical_formula_sum "Si O2"
_cell_formula_units_Z 192
_cell_length_a 17.910142
_cell_length_b 15.765145
_cell_length_c 30.697081
_cell_angle_alpha 90.000000
_cell_angle_beta 90.000000
_cell_angle_gamma 90.000000
_cell_volume 8667.504561
_symmetry_space_group_name_H-M "F D D D"
_symmetry_group_IT_number 70
_space_group.IT_coordinate_system_code '2'
_symmetry_cell_setting 'orthorhombic'
loop_
_space_group_symop_operation_xyz
x,y,z
1/4-x,1/4-y,z
x,1/4-y,1/4-z
1/4-x,y,1/4-z
-x,-y,-z
3/4+x,3/4+y,-z
-x,3/4+y,3/4+z
3/4+x,-y,3/4+z
x,1/2+y,1/2+z
1/4-x,3/4-y,1/2+z
x,3/4-y,3/4-z
1/4-x,1/2+y,3/4-z
-x,1/2-y,1/2-z
3/4+x,1/4+y,1/2-z
-x,1/4+y,1/4+z
3/4+x,1/2-y,1/4+z
1/2+x,y,1/2+z
3/4-x,1/4-y,1/2+z
1/2+x,1/4-y,3/4-z
3/4-x,y,3/4-z
1/2-x,-y,1/2-z
1/4+x,3/4+y,1/2-z
1/2-x,3/4+y,1/4+z
1/4+x,-y,1/4+z
1/2+x,1/2+y,z
3/4-x,3/4-y,z
1/2+x,3/4-y,1/4-z
3/4-x,1/2+y,1/4-z
1/2-x,1/2-y,-z
1/4+x,1/4+y,-z
1/2-x,1/4+y,3/4+z
1/4+x,1/2-y,3/4+z
loop_
_atom_site_type_symbol
_atom_site_label
_atom_site_fract_x
_atom_site_fract_y
_atom_site_fract_z
Si Si1 0.389596 0.970912 0.649658
Si Si2 0.232541 0.999432 0.697568
Si Si3 0.125000 0.625000 0.496428
Si Si4 0.476775 0.704809 0.027538
Si Si5 0.145441 0.286066 0.943234
Si Si6 0.968112 0.941469 0.306445
Si Si7 0.625000 0.466481 0.625000
O O1 0.375000 0.875000 0.635146
O O2 0.313517 0.996469 0.674432
O O3 0.456843 0.981920 0.683450
O O4 0.409404 0.026120 0.607883
O O5 0.198279 0.093201 0.692780
O O6 0.250000 0.000000 0.750000
O O7 0.175704 0.938258 0.668873
O O8 0.187105 0.572399 0.522613
O O9 0.164226 0.696955 0.466709
O O10 0.435559 0.616265 0.036227
O O11 0.444930 0.752796 0.985183
O O12 0.057349 0.301534 0.946513
O O13 0.939840 0.984317 0.350070
#
# Coordination Sequence:
#
# PCOD9516344 Si02
#       7
#    32  32  16  32  32  32  16
#     4  12  24  43  71 105 140 189 236 292 372 445
#     4  12  24  41  66  99 145 186 239 298 366 439
#     4  10  24  46  71 102 136 188 246 299 358 430
#     4  11  24  43  74 101 140 185 247 297 365 433
#     4  11  22  44  71  97 138 188 237 290 360 436
#     4  11  23  42  63 100 135 187 232 292 362 434
#     4  12  25  40  66 100 146 187 240 295 366 442
#
# _framework density 22.151705
#
# number of rings (size 3 to 8) (size 9 to 14) (size 15 to 20)
#    0.000    0.667    4.167    4.500    0.000    0.000 
#    0.000    1.667    0.000    0.000    0.000    0.000 
#    0.000    0.000    0.000    0.000    0.000    0.000 
#
# Total GULP energy -267720.355857 kJ/mol
# GULP energy per Si atom -5577.507414 kJ/mol
# Density = 2.210129 g / cm^3
# Si number density = 22.151705 Si / 1000 Ang^3
#
#
#
# Elastic Constant Matrix: (Units=GPa)
#
#
# Indices 1 2 3 4 5 6 
#
# 1 80.2970 -9.0505 30.3586 0.0000 0.0000 0.0000
# 2 -9.0505 74.0411 17.6689 0.0000 0.0000 0.0000
# 3 30.3586 17.6689 134.4832 0.0000 0.0000 0.0000
# 4 0.0000 0.0000 0.0000 23.0574 0.0000 0.0000
# 5 0.0000 0.0000 0.0000 0.0000 28.0166 0.0000
# 6 0.0000 0.0000 0.0000 0.0000 0.0000 32.4338
#
#
#
# Elastic Compliance Matrix: (Units=1/GPa)
#
#
# Indices 1 2 3 4 5 6 
#
# 1 0.014070 0.002558 -0.003512 0.000000 0.000000 0.000000
# 2 0.002558 0.014408 -0.002470 0.000000 0.000000 0.000000
# 3 -0.003512 -0.002470 0.008553 0.000000 0.000000 0.000000
# 4 0.000000 0.000000 0.000000 0.043370 0.000000 0.000000
# 5 0.000000 0.000000 0.000000 0.000000 0.035693 0.000000
# 6 0.000000 0.000000 0.000000 0.000000 0.000000 0.030832
#
#
# Mechanical properties :
#
#
# Convention : Reuss Voigt Hill
#
# Bulk Modulus (GPa) = 33.13218 40.75279 36.94248
# Shear Modulus (GPa) = 30.51816 33.35785 31.93801
#
# Velocity S-wave (km/s) = 3.71575 3.88478 3.80120
# Velocity P-wave (km/s) = 5.77914 6.20960 5.99823
#
# Compressibility (1/GPa) = 0.03018214
#
# Stress axis : x y z
#
# Youngs Moduli (GPa) = 71.07315 69.40473 116.91364
#
# Poissons Ratio (x) = -0.17754 0.41063
# Poissons Ratio (y) = -0.18181 0.28883
# Poissons Ratio (z) = 0.24963 0.17146
#
# Static dielectric constant tensor:
#      x y z
#    x 1.856310 0.000000 0.000000 
#    y 0.000000 1.842260 0.000000 
#    z 0.000000 0.000000 2.105320 
# 
# From -- ./inp_files/66712.got.cif
#   From: 2010.05.17/outbox.cif.g08.bks.cpg/sg70_34_cif.got.tgz:66712.got - 2010.06.03 15:57:51.
