data_PCOD9516048
_publ_section_title
;
Structure prediction by ZEFSAII (Michael W. Deem and Ramdas Pophale) SiO2 
 PCOD9516048
Probable space group: F D D D
;
_chemical_formula_sum "Si O2"
_cell_formula_units_Z 240
_cell_length_a 26.412767
_cell_length_b 17.625155
_cell_length_c 24.598083
_cell_angle_alpha 90.000000
_cell_angle_beta 90.000000
_cell_angle_gamma 90.000000
_cell_volume 11451.123745
_symmetry_space_group_name_H-M "F D D D"
_symmetry_group_IT_number 70
_space_group.IT_coordinate_system_code '2'
_symmetry_cell_setting 'orthorhombic'
loop_
_space_group_symop_operation_xyz
x,y,z
1/4-x,1/4-y,z
x,1/4-y,1/4-z
1/4-x,y,1/4-z
-x,-y,-z
3/4+x,3/4+y,-z
-x,3/4+y,3/4+z
3/4+x,-y,3/4+z
x,1/2+y,1/2+z
1/4-x,3/4-y,1/2+z
x,3/4-y,3/4-z
1/4-x,1/2+y,3/4-z
-x,1/2-y,1/2-z
3/4+x,1/4+y,1/2-z
-x,1/4+y,1/4+z
3/4+x,1/2-y,1/4+z
1/2+x,y,1/2+z
3/4-x,1/4-y,1/2+z
1/2+x,1/4-y,3/4-z
3/4-x,y,3/4-z
1/2-x,-y,1/2-z
1/4+x,3/4+y,1/2-z
1/2-x,3/4+y,1/4+z
1/4+x,-y,1/4+z
1/2+x,1/2+y,z
3/4-x,3/4-y,z
1/2+x,3/4-y,1/4-z
3/4-x,1/2+y,1/4-z
1/2-x,1/2-y,-z
1/4+x,1/4+y,-z
1/2-x,1/4+y,3/4+z
1/4+x,1/2-y,3/4+z
loop_
_atom_site_type_symbol
_atom_site_label
_atom_site_fract_x
_atom_site_fract_y
_atom_site_fract_z
Si Si1 0.868522 0.726354 0.519046
Si Si2 0.111511 0.751822 0.684039
Si Si3 0.400070 0.708600 0.139839
Si Si4 0.066362 0.425329 0.767635
Si Si5 0.045360 0.404734 0.191397
Si Si6 0.708075 0.693765 0.976471
Si Si7 0.125000 0.125000 0.540400
Si Si8 0.775229 0.308445 0.837969
O O1 0.881170 0.737632 0.582115
O O2 0.825224 0.664115 0.510493
O O3 0.917962 0.691620 0.487577
O O4 0.853786 0.806230 0.494588
O O5 0.125000 0.721378 0.625000
O O6 0.160920 0.781771 0.715903
O O7 0.075261 0.827180 0.675669
O O8 0.083670 0.694829 0.725890
O O9 0.422626 0.625000 0.125000
O O10 0.353564 0.695052 0.181436
O O11 0.435587 0.766481 0.172505
O O12 0.010100 0.444852 0.784943
O O13 0.035472 0.470502 0.146480
O O14 0.989926 0.380684 0.212874
O O15 0.750000 0.750000 0.000000
O O16 0.170139 0.090072 0.573998
O O17 0.751249 0.375000 0.875000
#
# Coordination Sequence:
#
# PCOD9516048 Si02
#       8
#    32  32  32  32  32  32  16  32
#     4   9  18  37  57  81 113 152 195 251 299 355
#     4   9  18  36  62  88 121 160 200 248 308 365
#     4   9  16  32  57  82 111 154 192 237 297 346
#     4   9  19  36  59  81 116 155 196 243 297 367
#     4   9  20  37  57  85 121 155 202 248 301 370
#     4   9  17  34  57  89 117 153 202 243 291 370
#     4  10  23  38  54  86 120 144 197 256 302 362
#     4  11  22  39  59  84 119 161 201 248 310 368
#
# _framework density 20.958642000000001
#
# number of rings (size 3 to 8) (size 9 to 14) (size 15 to 20)
#    0.000    2.667    0.000    3.800    0.000    3.733 
#   14.400    2.000    0.000    0.800    0.000    0.000 
#    0.000    0.000    0.000    0.000    0.000    0.000 
#
# Total GULP energy -334438.945139 kJ/mol
# GULP energy per Si atom -5573.982419 kJ/mol
# Density = 2.091094 g / cm^3
# Si number density = 20.958642 Si / 1000 Ang^3
#
#
#
# Elastic Constant Matrix: (Units=GPa)
#
#
# Indices 1 2 3 4 5 6 
#
# 1 63.5387 21.5597 -5.5237 0.0000 0.0000 0.0000
# 2 21.5597 89.9912 7.6522 0.0000 0.0000 0.0000
# 3 -5.5237 7.6522 65.9103 0.0000 0.0000 0.0000
# 4 0.0000 0.0000 0.0000 -366.2348 0.0000 0.0000
# 5 0.0000 0.0000 0.0000 0.0000 5.1148 0.0000
# 6 0.0000 0.0000 0.0000 0.0000 0.0000 24.4832
#
#
#
# Elastic Compliance Matrix: (Units=1/GPa)
#
#
# Indices 1 2 3 4 5 6 
#
# 1 0.017378 -0.004330 0.001959 0.000000 0.000000 0.000000
# 2 -0.004330 0.012302 -0.001791 0.000000 0.000000 0.000000
# 3 0.001959 -0.001791 0.015544 0.000000 0.000000 0.000000
# 4 0.000000 0.000000 0.000000 -0.002730 0.000000 0.000000
# 5 0.000000 0.000000 0.000000 0.000000 0.195510 0.000000
# 6 0.000000 0.000000 0.000000 0.000000 0.000000 0.040844
#
#
# Mechanical properties :
#
#
# Convention : Reuss Voigt Hill
#
# Bulk Modulus (GPa) = 27.10017 29.64629 28.37323
# Shear Modulus (GPa) = 16.69604 -54.27724 -18.79060
#
# Velocity S-wave (km/s) = 2.82551 -5.09446 -2.99750
# Velocity P-wave (km/s) = 4.85829 4.51983 1.25979
#
# Compressibility (1/GPa) = 0.03690014
#
# Stress axis : x y z
#
# Youngs Moduli (GPa) = 57.54416 81.28861 64.33244
#
# Poissons Ratio (x) = 0.35197 -0.12603
# Poissons Ratio (y) = 0.24916 0.11523
# Poissons Ratio (z) = -0.11273 0.14560
#
# Static dielectric constant tensor:
#      x y z
#    x 1.906710 0.000000 0.000000 
#    y 0.000000 1.819450 0.000000 
#    z 0.000000 0.000000 1.775180 
# 
# From -- ./inp_files/61863.got.cif
#   From: 2010.05.17/outbox.cif.g08.bks.cpg/sg70_31_cif.got.tgz:61863.got - 2010.06.03 15:57:51.
