data_PCOD9516786
_publ_section_title
;
Structure prediction by ZEFSAII (Michael W. Deem and Ramdas Pophale) SiO2 
 PCOD9516786
Probable space group: F D D D
;
_chemical_formula_sum "Si O2"
_cell_formula_units_Z 168
_cell_length_a 15.875251
_cell_length_b 27.424145
_cell_length_c 17.804391
_cell_angle_alpha 90.000000
_cell_angle_beta 90.000000
_cell_angle_gamma 90.000000
_cell_volume 7751.411987
_symmetry_space_group_name_H-M "F D D D"
_symmetry_group_IT_number 70
_space_group.IT_coordinate_system_code '2'
_symmetry_cell_setting 'orthorhombic'
loop_
_space_group_symop_operation_xyz
x,y,z
1/4-x,1/4-y,z
x,1/4-y,1/4-z
1/4-x,y,1/4-z
-x,-y,-z
3/4+x,3/4+y,-z
-x,3/4+y,3/4+z
3/4+x,-y,3/4+z
x,1/2+y,1/2+z
1/4-x,3/4-y,1/2+z
x,3/4-y,3/4-z
1/4-x,1/2+y,3/4-z
-x,1/2-y,1/2-z
3/4+x,1/4+y,1/2-z
-x,1/4+y,1/4+z
3/4+x,1/2-y,1/4+z
1/2+x,y,1/2+z
3/4-x,1/4-y,1/2+z
1/2+x,1/4-y,3/4-z
3/4-x,y,3/4-z
1/2-x,-y,1/2-z
1/4+x,3/4+y,1/2-z
1/2-x,3/4+y,1/4+z
1/4+x,-y,1/4+z
1/2+x,1/2+y,z
3/4-x,3/4-y,z
1/2+x,3/4-y,1/4-z
3/4-x,1/2+y,1/4-z
1/2-x,1/2-y,-z
1/4+x,1/4+y,-z
1/2-x,1/4+y,3/4+z
1/4+x,1/2-y,3/4+z
loop_
_atom_site_type_symbol
_atom_site_label
_atom_site_fract_x
_atom_site_fract_y
_atom_site_fract_z
Si Si1 0.030542 0.626168 0.939207
Si Si2 0.469419 0.516092 0.413631
Si Si3 0.216349 0.296914 0.093844
Si Si4 0.705756 0.921691 0.415517
Si Si5 0.520361 0.944748 0.419396
Si Si6 0.625000 0.625000 0.125000
O O1 0.125000 0.625000 0.970387
O O2 0.999127 0.572583 0.916242
O O3 0.029771 0.660798 0.866686
O O4 0.972979 0.655784 0.998846
O O5 0.500000 0.500000 0.500000
O O6 0.375000 0.517536 0.375000
O O7 0.510702 0.474286 0.360618
O O8 0.125000 0.308243 0.125000
O O9 0.247099 0.244498 0.123003
O O10 0.208896 0.293475 0.005120
O O11 0.747079 0.875000 0.375000
O O12 0.608119 0.923873 0.390644
O O13 0.439974 0.909741 0.418353
#
# Coordination Sequence:
#
# PCOD9516786 Si02
#       6
#    32  32  32  32  32   8
#     4  12  26  47  73 108 149 201 257 316 389 466
#     4  12  27  48  76 115 154 207 268 334 397 479
#     4  11  23  46  69  98 138 187 236 300 368 444
#     4  12  25  45  72 101 150 193 246 313 388 461
#     4  11  25  44  69 103 139 187 238 301 374 449
#     4  12  24  44  72 108 142 184 246 304 366 468
#
# _framework density 21.673470999999999
#
# number of rings (size 3 to 8) (size 9 to 14) (size 15 to 20)
#    0.000    0.381    5.714    2.857    1.333    0.000 
#    3.429    0.000    0.000    0.000    0.000    0.000 
#    0.000    0.000    0.000    0.000    0.000    0.000 
#
# Total GULP energy -233845.456043 kJ/mol
# GULP energy per Si atom -5567.748953 kJ/mol
# Density = 2.162414 g / cm^3
# Si number density = 21.673471 Si / 1000 Ang^3
#
#
#
# Elastic Constant Matrix: (Units=GPa)
#
#
# Indices 1 2 3 4 5 6 
#
# 1 149.6448 56.3505 11.8534 0.0000 0.0000 0.0000
# 2 56.3505 177.9705 32.8415 0.0000 0.0000 0.0000
# 3 11.8534 32.8415 42.1507 0.0000 0.0000 0.0000
# 4 0.0000 0.0000 0.0000 22.4349 0.0000 0.0000
# 5 0.0000 0.0000 0.0000 0.0000 13.7107 0.0000
# 6 0.0000 0.0000 0.0000 0.0000 0.0000 67.7544
#
#
#
# Elastic Compliance Matrix: (Units=1/GPa)
#
#
# Indices 1 2 3 4 5 6 
#
# 1 0.007590 -0.002347 -0.000306 0.000000 0.000000 0.000000
# 2 -0.002347 0.007288 -0.005018 0.000000 0.000000 0.000000
# 3 -0.000306 -0.005018 0.027721 0.000000 0.000000 0.000000
# 4 0.000000 0.000000 0.000000 0.044573 0.000000 0.000000
# 5 0.000000 0.000000 0.000000 0.000000 0.072936 0.000000
# 6 0.000000 0.000000 0.000000 0.000000 0.000000 0.014759
#
#
# Mechanical properties :
#
#
# Convention : Reuss Voigt Hill
#
# Bulk Modulus (GPa) = 36.68866 63.53965 50.11416
# Shear Modulus (GPa) = 25.08836 38.69472 31.89154
#
# Velocity S-wave (km/s) = 3.40599 4.22992 3.84012
# Velocity P-wave (km/s) = 5.69494 7.29635 6.54481
#
# Compressibility (1/GPa) = 0.02725638
#
# Stress axis : x y z
#
# Youngs Moduli (GPa) = 131.74398 137.21032 36.07433
#
# Poissons Ratio (x) = 0.32202 0.01104
# Poissons Ratio (y) = 0.30919 0.18104
# Poissons Ratio (z) = 0.04031 0.68859
#
# Static dielectric constant tensor:
#      x y z
#    x 1.863630 0.000000 0.000000 
#    y 0.000000 1.840810 0.000000 
#    z 0.000000 0.000000 1.575740 
# 
# From -- ./inp_files/42811.got.cif
#   From: 2010.05.17/outbox.cif.g08.bks.cpg/sg70_22_cif.got.tgz:42811.got - 2010.06.03 15:57:51.
