data_PCOD9516394
_publ_section_title
;
Structure prediction by ZEFSAII (Michael W. Deem and Ramdas Pophale) SiO2 
 PCOD9516394
Probable space group: F D D D
;
_chemical_formula_sum "Si O2"
_cell_formula_units_Z 120
_cell_length_a 17.668738
_cell_length_b 21.948205
_cell_length_c 13.916026
_cell_angle_alpha 90.000000
_cell_angle_beta 90.000000
_cell_angle_gamma 90.000000
_cell_volume 5396.594300
_symmetry_space_group_name_H-M "F D D D"
_symmetry_group_IT_number 70
_space_group.IT_coordinate_system_code '2'
_symmetry_cell_setting 'orthorhombic'
loop_
_space_group_symop_operation_xyz
x,y,z
1/4-x,1/4-y,z
x,1/4-y,1/4-z
1/4-x,y,1/4-z
-x,-y,-z
3/4+x,3/4+y,-z
-x,3/4+y,3/4+z
3/4+x,-y,3/4+z
x,1/2+y,1/2+z
1/4-x,3/4-y,1/2+z
x,3/4-y,3/4-z
1/4-x,1/2+y,3/4-z
-x,1/2-y,1/2-z
3/4+x,1/4+y,1/2-z
-x,1/4+y,1/4+z
3/4+x,1/2-y,1/4+z
1/2+x,y,1/2+z
3/4-x,1/4-y,1/2+z
1/2+x,1/4-y,3/4-z
3/4-x,y,3/4-z
1/2-x,-y,1/2-z
1/4+x,3/4+y,1/2-z
1/2-x,3/4+y,1/4+z
1/4+x,-y,1/4+z
1/2+x,1/2+y,z
3/4-x,3/4-y,z
1/2+x,3/4-y,1/4-z
3/4-x,1/2+y,1/4-z
1/2-x,1/2-y,-z
1/4+x,1/4+y,-z
1/2-x,1/4+y,3/4+z
1/4+x,1/2-y,3/4+z
loop_
_atom_site_type_symbol
_atom_site_label
_atom_site_fract_x
_atom_site_fract_y
_atom_site_fract_z
Si Si1 0.610283 0.875000 0.875000
Si Si2 0.375000 0.875000 0.375000
Si Si3 0.980734 0.152621 0.000010
Si Si4 0.508390 0.149846 0.278539
Si Si5 0.600875 0.027883 0.235110
O O1 0.673513 0.852825 0.952510
O O2 0.553775 0.838899 0.803872
O O3 0.436706 0.847034 0.450477
O O4 0.943467 0.218647 0.018681
O O5 0.979898 0.142073 0.886442
O O6 0.548243 0.087211 0.245641
O O7 0.571391 0.202190 0.285295
O O8 0.625000 0.018818 0.125000
#
# Coordination Sequence:
#
# PCOD9516394 Si02
#       5
#    16   8  32  32  32
#     4  11  22  42  64  99 140 174 226 285 338 418
#     4  10  24  56  60 100 148 170 244 294 328 436
#     4  11  26  43  71  97 139 191 226 287 357 407
#     4  11  22  43  65 104 143 170 235 287 334 424
#     4  11  22  41  70 100 134 185 223 287 354 402
#
# _framework density 22.236246999999999
#
# number of rings (size 3 to 8) (size 9 to 14) (size 15 to 20)
#    0.000    1.067    2.667    4.800    3.733    2.133 
#    4.800    4.000    0.000    0.000    0.000    0.000 
#    0.000    0.000    0.000    0.000    0.000    0.000 
#
# Total GULP energy -167105.287777 kJ/mol
# GULP energy per Si atom -5570.176259 kJ/mol
# Density = 2.218564 g / cm^3
# Si number density = 22.236247 Si / 1000 Ang^3
#
#
#
# Elastic Constant Matrix: (Units=GPa)
#
#
# Indices 1 2 3 4 5 6 
#
# 1 188.1091 72.5259 73.4295 0.0000 0.0000 0.0000
# 2 72.5259 100.0864 36.8769 0.0000 0.0000 0.0000
# 3 73.4295 36.8769 177.2396 0.0000 0.0000 0.0000
# 4 0.0000 0.0000 0.0000 18.0538 0.0000 0.0000
# 5 0.0000 0.0000 0.0000 0.0000 45.6463 0.0000
# 6 0.0000 0.0000 0.0000 0.0000 0.0000 55.0470
#
#
#
# Elastic Compliance Matrix: (Units=1/GPa)
#
#
# Indices 1 2 3 4 5 6 
#
# 1 0.008182 -0.005068 -0.002335 0.000000 0.000000 0.000000
# 2 -0.005068 0.013961 -0.000805 0.000000 0.000000 0.000000
# 3 -0.002335 -0.000805 0.006777 0.000000 0.000000 0.000000
# 4 0.000000 0.000000 0.000000 0.055390 0.000000 0.000000
# 5 0.000000 0.000000 0.000000 0.000000 0.021908 0.000000
# 6 0.000000 0.000000 0.000000 0.000000 0.000000 0.018166
#
#
# Mechanical properties :
#
#
# Convention : Reuss Voigt Hill
#
# Bulk Modulus (GPa) = 79.98335 92.34442 86.16389
# Shear Modulus (GPa) = 34.49049 42.58959 38.54004
#
# Velocity S-wave (km/s) = 3.94266 4.38119 4.16770
# Velocity P-wave (km/s) = 7.53485 8.19829 7.87356
#
# Compressibility (1/GPa) = 0.01250260
#
# Stress axis : x y z
#
# Youngs Moduli (GPa) = 122.22383 71.62996 147.55856
#
# Poissons Ratio (x) = 0.36305 0.34457
# Poissons Ratio (y) = 0.61948 0.11877
# Poissons Ratio (z) = 0.28541 0.05765
#
# Static dielectric constant tensor:
#      x y z
#    x 1.887220 0.000000 0.000000 
#    y 0.000000 1.888800 0.000000 
#    z 0.000000 0.000000 1.854550 
# 
# From -- ./inp_files/16328.got.cif
#   From: 2010.05.17/outbox.cif.g08.bks.cpg/sg70_9_cif.got.tgz:16328.got - 2010.06.03 15:57:51.
