data_PCOD9516838
_publ_section_title
;
Structure prediction by ZEFSAII (Michael W. Deem and Ramdas Pophale) SiO2 
 PCOD9516838
Probable space group: F D D D
;
_chemical_formula_sum "Si O2"
_cell_formula_units_Z 96
_cell_length_a 19.662246
_cell_length_b 12.464801
_cell_length_c 18.297000
_cell_angle_alpha 90.000000
_cell_angle_beta 90.000000
_cell_angle_gamma 90.000000
_cell_volume 4484.338242
_symmetry_space_group_name_H-M "F D D D"
_symmetry_group_IT_number 70
_space_group.IT_coordinate_system_code '2'
_symmetry_cell_setting 'orthorhombic'
loop_
_space_group_symop_operation_xyz
x,y,z
1/4-x,1/4-y,z
x,1/4-y,1/4-z
1/4-x,y,1/4-z
-x,-y,-z
3/4+x,3/4+y,-z
-x,3/4+y,3/4+z
3/4+x,-y,3/4+z
x,1/2+y,1/2+z
1/4-x,3/4-y,1/2+z
x,3/4-y,3/4-z
1/4-x,1/2+y,3/4-z
-x,1/2-y,1/2-z
3/4+x,1/4+y,1/2-z
-x,1/4+y,1/4+z
3/4+x,1/2-y,1/4+z
1/2+x,y,1/2+z
3/4-x,1/4-y,1/2+z
1/2+x,1/4-y,3/4-z
3/4-x,y,3/4-z
1/2-x,-y,1/2-z
1/4+x,3/4+y,1/2-z
1/2-x,3/4+y,1/4+z
1/4+x,-y,1/4+z
1/2+x,1/2+y,z
3/4-x,3/4-y,z
1/2+x,3/4-y,1/4-z
3/4-x,1/2+y,1/4-z
1/2-x,1/2-y,-z
1/4+x,1/4+y,-z
1/2-x,1/4+y,3/4+z
1/4+x,1/2-y,3/4+z
loop_
_atom_site_type_symbol
_atom_site_label
_atom_site_fract_x
_atom_site_fract_y
_atom_site_fract_z
Si Si1 0.241573 0.125000 0.625000
Si Si2 0.464922 0.728649 0.083581
Si Si3 0.875000 0.375000 0.987572
Si Si4 0.047123 0.588386 0.807216
O O1 0.188778 0.089224 0.688512
O O2 0.284012 0.226309 0.651666
O O3 0.439577 0.625000 0.125000
O O4 0.488257 0.818218 0.143110
O O5 0.404880 0.782067 0.037294
O O6 0.518587 0.684713 0.023844
O O7 0.125000 0.625000 0.803066
#
# Coordination Sequence:
#
# PCOD9516838 Si02
#       4
#    16  32  16  32
#     4   9  22  44  70 104 128 171 236 278 338 403
#     4  11  24  44  66 102 138 179 226 279 348 409
#     4   9  20  44  74  98 127 174 228 288 331 394
#     4  11  25  43  71 100 137 182 224 288 339 408
#
# _framework density 21.407841000000001
#
# number of rings (size 3 to 8) (size 9 to 14) (size 15 to 20)
#    0.000    1.667    1.667    1.000    2.333    8.667 
#    0.000    6.667    0.000    0.000    0.000    0.000 
#    0.000    0.000    0.000    0.000    0.000    0.000 
#
# Total GULP energy -134074.788803 kJ/mol
# GULP energy per Si atom -5586.449533 kJ/mol
# Density = 2.135912 g / cm^3
# Si number density = 21.407841 Si / 1000 Ang^3
#
#
#
# Elastic Constant Matrix: (Units=GPa)
#
#
# Indices 1 2 3 4 5 6 
#
# 1 129.8594 58.3366 59.0373 0.0000 0.0000 0.0000
# 2 58.3366 141.6364 51.4039 0.0000 0.0000 0.0000
# 3 59.0373 51.4039 117.5806 0.0000 0.0000 0.0000
# 4 0.0000 0.0000 0.0000 46.8670 0.0000 0.0000
# 5 0.0000 0.0000 0.0000 0.0000 -64.2656 0.0000
# 6 0.0000 0.0000 0.0000 0.0000 0.0000 31.6506
#
#
#
# Elastic Compliance Matrix: (Units=1/GPa)
#
#
# Indices 1 2 3 4 5 6 
#
# 1 0.010948 -0.002988 -0.004191 0.000000 0.000000 0.000000
# 2 -0.002988 0.009208 -0.002525 0.000000 0.000000 0.000000
# 3 -0.004191 -0.002525 0.011713 0.000000 0.000000 0.000000
# 4 0.000000 0.000000 0.000000 0.021337 0.000000 0.000000
# 5 0.000000 0.000000 0.000000 0.000000 -0.015560 0.000000
# 6 0.000000 0.000000 0.000000 0.000000 0.000000 0.031595
#
#
# Mechanical properties :
#
#
# Convention : Reuss Voigt Hill
#
# Bulk Modulus (GPa) = 80.25240 80.73690 80.49465
# Shear Modulus (GPa) = 53.87836 17.53698 35.70767
#
# Velocity S-wave (km/s) = 5.02217 2.86525 4.08851
# Velocity P-wave (km/s) = 8.43791 6.98153 7.74403
#
# Compressibility (1/GPa) = 0.01246069
#
# Stress axis : x y z
#
# Youngs Moduli (GPa) = 91.33833 108.60669 85.37690
#
# Poissons Ratio (x) = 0.32456 0.35779
# Poissons Ratio (y) = 0.27296 0.21556
# Poissons Ratio (z) = 0.38277 0.27422
#
# Static dielectric constant tensor:
#      x y z
#    x 1.772490 0.000000 0.000000 
#    y 0.000000 1.740120 0.000000 
#    z 0.000000 0.000000 1.871140 
# 
# From -- ./inp_files/17106.got.cif
#   From: 2010.05.17/outbox.cif.g08.bks.cpg/sg70_9_cif.got.tgz:17106.got - 2010.06.03 15:57:51.
