data_PCOD9516686
_publ_section_title
;
Structure prediction by ZEFSAII (Michael W. Deem and Ramdas Pophale) SiO2 
 PCOD9516686
Probable space group: F D D D
;
_chemical_formula_sum "Si O2"
_cell_formula_units_Z 128
_cell_length_a 27.597973
_cell_length_b 25.319197
_cell_length_c 9.803467
_cell_angle_alpha 90.000000
_cell_angle_beta 90.000000
_cell_angle_gamma 90.000000
_cell_volume 6850.256045
_symmetry_space_group_name_H-M "F D D D"
_symmetry_group_IT_number 70
_space_group.IT_coordinate_system_code '2'
_symmetry_cell_setting 'orthorhombic'
loop_
_space_group_symop_operation_xyz
x,y,z
1/4-x,1/4-y,z
x,1/4-y,1/4-z
1/4-x,y,1/4-z
-x,-y,-z
3/4+x,3/4+y,-z
-x,3/4+y,3/4+z
3/4+x,-y,3/4+z
x,1/2+y,1/2+z
1/4-x,3/4-y,1/2+z
x,3/4-y,3/4-z
1/4-x,1/2+y,3/4-z
-x,1/2-y,1/2-z
3/4+x,1/4+y,1/2-z
-x,1/4+y,1/4+z
3/4+x,1/2-y,1/4+z
1/2+x,y,1/2+z
3/4-x,1/4-y,1/2+z
1/2+x,1/4-y,3/4-z
3/4-x,y,3/4-z
1/2-x,-y,1/2-z
1/4+x,3/4+y,1/2-z
1/2-x,3/4+y,1/4+z
1/4+x,-y,1/4+z
1/2+x,1/2+y,z
3/4-x,3/4-y,z
1/2+x,3/4-y,1/4-z
3/4-x,1/2+y,1/4-z
1/2-x,1/2-y,-z
1/4+x,1/4+y,-z
1/2-x,1/4+y,3/4+z
1/4+x,1/2-y,3/4+z
loop_
_atom_site_type_symbol
_atom_site_label
_atom_site_fract_x
_atom_site_fract_y
_atom_site_fract_z
Si Si1 0.384024 0.462289 0.602178
Si Si2 0.453031 0.884592 0.713926
Si Si3 0.200753 0.864915 0.535127
Si Si4 0.125000 0.775486 0.625000
Si Si5 0.875000 0.702415 0.375000
O O1 0.423448 0.416857 0.583170
O O2 0.332675 0.434192 0.565077
O O3 0.388223 0.487434 0.750568
O O4 0.390824 0.509856 0.497227
O O5 0.501280 0.889841 0.625624
O O6 0.462407 0.875000 0.875000
O O7 0.210978 0.875000 0.375000
O O8 0.167359 0.813792 0.567478
O O9 0.168966 0.914888 0.582122
#
# Coordination Sequence:
#
# PCOD9516686 Si02
#       5
#    32  32  32  16  16
#     4  11  23  45  66  91 128 170 213 259 313 379
#     4  11  25  42  66  96 128 166 215 262 314 378
#     4  11  26  42  63  97 131 162 213 266 314 377
#     4  11  26  43  66  94 128 171 210 261 320 372
#     4  11  22  45  66  84 130 171 206 259 316 372
#
# _framework density 18.685434000000001
#
# number of rings (size 3 to 8) (size 9 to 14) (size 15 to 20)
#    0.000    1.000    5.000    0.750    7.000    5.000 
#    0.000    0.000    0.000    0.000    0.000    0.000 
#    0.000    0.000    0.000    0.000    0.000    0.000 
#
# Total GULP energy -178786.344412 kJ/mol
# GULP energy per Si atom -5587.073263 kJ/mol
# Density = 1.864290 g / cm^3
# Si number density = 18.685434 Si / 1000 Ang^3
#
#
#
# Elastic Constant Matrix: (Units=GPa)
#
#
# Indices 1 2 3 4 5 6 
#
# 1 107.9460 31.0428 45.5623 -0.0002 0.0002 0.0001
# 2 31.0428 104.1001 57.8901 0.0001 0.0003 0.0001
# 3 45.5623 57.8901 188.5720 -0.0003 0.0010 0.0001
# 4 -0.0002 0.0001 -0.0003 43.0574 0.0005 0.0000
# 5 0.0002 0.0003 0.0010 0.0005 35.5430 0.0000
# 6 0.0001 0.0001 0.0001 0.0000 0.0000 -1.9430
#
#
#
# Elastic Compliance Matrix: (Units=1/GPa)
#
#
# Indices 1 2 3 4 5 6 
#
# 1 0.010687 -0.002111 -0.001934 0.000000 0.000000 0.000001
# 2 -0.002111 0.012001 -0.003174 0.000000 0.000000 0.000000
# 3 -0.001934 -0.003174 0.006745 0.000000 0.000000 0.000000
# 4 0.000000 0.000000 0.000000 0.023225 0.000000 0.000000
# 5 0.000000 0.000000 0.000000 0.000000 0.028135 0.000000
# 6 0.000001 0.000000 0.000000 0.000000 0.000000 -0.514677
#
#
# Mechanical properties :
#
#
# Convention : Reuss Voigt Hill
#
# Bulk Modulus (GPa) = 66.69371 74.40095 70.54733
# Shear Modulus (GPa) = -12.06426 33.07302 10.50438
#
# Velocity S-wave (km/s) = -2.54372 4.21169 2.37358
# Velocity P-wave (km/s) = 5.20990 7.97215 6.73417
#
# Compressibility (1/GPa) = 0.01499392
#
# Stress axis : x y z
#
# Youngs Moduli (GPa) = 93.56776 83.32754 148.26441
#
# Poissons Ratio (x) = 0.17594 0.28675
# Poissons Ratio (y) = 0.19757 0.47059
# Poissons Ratio (z) = 0.18097 0.26448
#
# Static dielectric constant tensor:
#      x y z
#    x 1.611930 0.000000 0.000000 
#    y 0.000000 1.621690 0.000000 
#    z 0.000000 0.000000 1.438200 
# 
# From -- ./inp_files/12020.got.cif
#   From: 2010.05.17/outbox.cif.g08.bks.cpg/sg70_7_cif.got.tgz:12020.got - 2010.06.03 15:57:51.
