data_PCOD9516705
_publ_section_title
;
Structure prediction by ZEFSAII (Michael W. Deem and Ramdas Pophale) SiO2 
 PCOD9516705
Probable space group: F D D D
;
_chemical_formula_sum "Si O2"
_cell_formula_units_Z 112
_cell_length_a 14.857628
_cell_length_b 27.131859
_cell_length_c 11.436055
_cell_angle_alpha 90.000000
_cell_angle_beta 90.000000
_cell_angle_gamma 90.000000
_cell_volume 4610.046089
_symmetry_space_group_name_H-M "F D D D"
_symmetry_group_IT_number 70
_space_group.IT_coordinate_system_code '2'
_symmetry_cell_setting 'orthorhombic'
loop_
_space_group_symop_operation_xyz
x,y,z
1/4-x,1/4-y,z
x,1/4-y,1/4-z
1/4-x,y,1/4-z
-x,-y,-z
3/4+x,3/4+y,-z
-x,3/4+y,3/4+z
3/4+x,-y,3/4+z
x,1/2+y,1/2+z
1/4-x,3/4-y,1/2+z
x,3/4-y,3/4-z
1/4-x,1/2+y,3/4-z
-x,1/2-y,1/2-z
3/4+x,1/4+y,1/2-z
-x,1/4+y,1/4+z
3/4+x,1/2-y,1/4+z
1/2+x,y,1/2+z
3/4-x,1/4-y,1/2+z
1/2+x,1/4-y,3/4-z
3/4-x,y,3/4-z
1/2-x,-y,1/2-z
1/4+x,3/4+y,1/2-z
1/2-x,3/4+y,1/4+z
1/4+x,-y,1/4+z
1/2+x,1/2+y,z
3/4-x,3/4-y,z
1/2+x,3/4-y,1/4-z
3/4-x,1/2+y,1/4-z
1/2-x,1/2-y,-z
1/4+x,1/4+y,-z
1/2-x,1/4+y,3/4+z
1/4+x,1/2-y,3/4+z
loop_
_atom_site_type_symbol
_atom_site_label
_atom_site_fract_x
_atom_site_fract_y
_atom_site_fract_z
Si Si1 0.919505 0.926172 0.025168
Si Si2 0.233827 0.952589 0.458316
Si Si3 0.546304 0.559400 0.715967
Si Si4 0.138046 0.875000 0.875000
O O1 0.875000 0.875000 0.986345
O O2 0.953581 0.917609 0.154613
O O3 0.828507 0.957924 0.025580
O O4 0.986951 0.948847 0.929321
O O5 0.176183 0.902370 0.470341
O O6 0.187304 0.002088 0.500798
O O7 0.625000 0.572586 0.625000
O O8 0.453041 0.580311 0.664109
#
# Coordination Sequence:
#
# PCOD9516705 Si02
#       4
#    32  32  32  16
#     4  11  22  47  73 102 150 189 247 327 371 449
#     4  11  24  47  75 106 143 200 263 305 380 459
#     4  12  28  46  70 111 159 195 244 323 392 448
#     4  12  25  49  76 112 146 204 258 299 391 452
#
# _framework density 24.294767
#
# number of rings (size 3 to 8) (size 9 to 14) (size 15 to 20)
#    0.000    0.571    2.857    5.571    0.000   10.286 
#    5.143    0.000    0.000    0.000    0.000    0.000 
#    0.000    0.000    0.000    0.000    0.000    0.000 
#
# Total GULP energy -156091.533876 kJ/mol
# GULP energy per Si atom -5574.697638 kJ/mol
# Density = 2.423947 g / cm^3
# Si number density = 24.294767 Si / 1000 Ang^3
#
#
#
# Elastic Constant Matrix: (Units=GPa)
#
#
# Indices 1 2 3 4 5 6 
#
# 1 107.2228 17.3179 40.3553 0.0000 0.0000 0.0000
# 2 17.3179 139.9829 8.0505 0.0000 0.0000 0.0000
# 3 40.3553 8.0505 111.8797 0.0000 0.0000 0.0000
# 4 0.0000 0.0000 0.0000 -7.2714 0.0000 0.0000
# 5 0.0000 0.0000 0.0000 0.0000 -73.5810 0.0000
# 6 0.0000 0.0000 0.0000 0.0000 0.0000 30.4824
#
#
#
# Elastic Compliance Matrix: (Units=1/GPa)
#
#
# Indices 1 2 3 4 5 6 
#
# 1 0.010968 -0.001134 -0.003875 0.000000 0.000000 0.000000
# 2 -0.001134 0.007291 -0.000116 0.000000 0.000000 0.000000
# 3 -0.003875 -0.000116 0.010344 0.000000 0.000000 0.000000
# 4 0.000000 0.000000 0.000000 -0.137526 0.000000 0.000000
# 5 0.000000 0.000000 0.000000 0.000000 -0.013590 0.000000
# 6 0.000000 0.000000 0.000000 0.000000 0.000000 0.032806
#
#
# Mechanical properties :
#
#
# Convention : Reuss Voigt Hill
#
# Bulk Modulus (GPa) = 54.48324 54.50363 54.49343
# Shear Modulus (GPa) = -68.17429 9.48343 -29.34543
#
# Velocity S-wave (km/s) = -5.30304 1.97787 -3.47924
# Velocity P-wave (km/s) = 3.87578 5.26298 2.51766
#
# Compressibility (1/GPa) = 0.01835427
#
# Stress axis : x y z
#
# Youngs Moduli (GPa) = 91.17615 137.16150 96.67407
#
# Poissons Ratio (x) = 0.15555 0.37456
# Poissons Ratio (y) = 0.10340 0.01117
# Poissons Ratio (z) = 0.35326 0.01585
#
# Static dielectric constant tensor:
#      x y z
#    x 2.122780 0.000000 0.000000 
#    y 0.000000 2.568510 0.000000 
#    z 0.000000 0.000000 1.916770 
# 
# From -- ./inp_files/15026.got.cif
#   From: 2010.05.17/outbox.cif.g08.bks.cpg/sg70_8_cif.got.tgz:15026.got - 2010.06.03 15:57:51.
