data_PCOD9516999
_publ_section_title
;
Structure prediction by ZEFSAII (Michael W. Deem and Ramdas Pophale) SiO2 
 PCOD9516999
Probable space group: F D D D
;
_chemical_formula_sum "Si O2"
_cell_formula_units_Z 192
_cell_length_a 12.870610
_cell_length_b 26.992508
_cell_length_c 26.519165
_cell_angle_alpha 90.000000
_cell_angle_beta 90.000000
_cell_angle_gamma 90.000000
_cell_volume 9213.024263
_symmetry_space_group_name_H-M "F D D D"
_symmetry_group_IT_number 70
_space_group.IT_coordinate_system_code '2'
_symmetry_cell_setting 'orthorhombic'
loop_
_space_group_symop_operation_xyz
x,y,z
1/4-x,1/4-y,z
x,1/4-y,1/4-z
1/4-x,y,1/4-z
-x,-y,-z
3/4+x,3/4+y,-z
-x,3/4+y,3/4+z
3/4+x,-y,3/4+z
x,1/2+y,1/2+z
1/4-x,3/4-y,1/2+z
x,3/4-y,3/4-z
1/4-x,1/2+y,3/4-z
-x,1/2-y,1/2-z
3/4+x,1/4+y,1/2-z
-x,1/4+y,1/4+z
3/4+x,1/2-y,1/4+z
1/2+x,y,1/2+z
3/4-x,1/4-y,1/2+z
1/2+x,1/4-y,3/4-z
3/4-x,y,3/4-z
1/2-x,-y,1/2-z
1/4+x,3/4+y,1/2-z
1/2-x,3/4+y,1/4+z
1/4+x,-y,1/4+z
1/2+x,1/2+y,z
3/4-x,3/4-y,z
1/2+x,3/4-y,1/4-z
3/4-x,1/2+y,1/4-z
1/2-x,1/2-y,-z
1/4+x,1/4+y,-z
1/2-x,1/4+y,3/4+z
1/4+x,1/2-y,3/4+z
loop_
_atom_site_type_symbol
_atom_site_label
_atom_site_fract_x
_atom_site_fract_y
_atom_site_fract_z
Si Si1 0.997230 0.368729 0.160956
Si Si2 0.424820 0.037721 0.780887
Si Si3 0.625000 0.277705 0.625000
Si Si4 0.670217 0.268544 0.336958
Si Si5 0.125000 0.625000 0.222288
Si Si6 0.718195 0.067703 0.314122
Si Si7 0.514438 0.551048 0.654533
O O1 0.875000 0.375000 0.172838
O O2 0.003530 0.390609 0.103601
O O3 0.047943 0.407872 0.199205
O O4 0.058074 0.316289 0.160338
O O5 0.421194 0.034450 0.721204
O O6 0.309782 0.029729 0.802960
O O7 0.494110 0.996106 0.807825
O O8 0.538234 0.240924 0.602773
O O9 0.622585 0.213120 0.339572
O O10 0.588607 0.300573 0.370035
O O11 0.179236 0.587379 0.260806
O O12 0.037357 0.599138 0.188492
O O13 0.625000 0.546653 0.625000
#
# Coordination Sequence:
#
# PCOD9516999 Si02
#       7
#    32  32  16  32  16  32  32
#     4  12  22  40  69 103 134 174 234 296 341 411
#     4  12  23  39  67  95 133 180 222 288 359 402
#     4  12  24  44  70  98 139 183 234 280 344 422
#     4  12  25  44  67  98 142 186 227 288 360 425
#     4  12  25  36  66 102 136 176 226 283 350 420
#     4  12  20  40  67  98 132 168 225 295 343 406
#     4  12  23  42  62 100 141 174 223 289 354 412
#
# _framework density 20.840063000000001
#
# number of rings (size 3 to 8) (size 9 to 14) (size 15 to 20)
#    0.000    0.000    9.167    1.750    0.000    0.000 
#    0.000    5.000    0.000    0.000    0.000    0.000 
#    0.000    0.000    0.000    0.000    0.000    0.000 
#
# Total GULP energy -267939.347456 kJ/mol
# GULP energy per Si atom -5582.069739 kJ/mol
# Density = 2.079263 g / cm^3
# Si number density = 20.840063 Si / 1000 Ang^3
#
#
#
# Elastic Constant Matrix: (Units=GPa)
#
#
# Indices 1 2 3 4 5 6 
#
# 1 119.8541 7.6639 36.6414 0.0000 0.0000 0.0000
# 2 7.6639 35.4321 9.9328 0.0000 0.0000 0.0000
# 3 36.6414 9.9328 75.3892 0.0000 0.0000 0.0000
# 4 0.0000 0.0000 0.0000 22.3662 0.0000 0.0000
# 5 0.0000 0.0000 0.0000 0.0000 25.1787 0.0000
# 6 0.0000 0.0000 0.0000 0.0000 0.0000 23.6874
#
#
#
# Elastic Compliance Matrix: (Units=1/GPa)
#
#
# Indices 1 2 3 4 5 6 
#
# 1 0.009822 -0.000816 -0.004666 0.000000 0.000000 0.000000
# 2 -0.000816 0.029373 -0.003473 0.000000 0.000000 0.000000
# 3 -0.004666 -0.003473 0.015990 0.000000 0.000000 0.000000
# 4 0.000000 0.000000 0.000000 0.044710 0.000000 0.000000
# 5 0.000000 0.000000 0.000000 0.000000 0.039716 0.000000
# 6 0.000000 0.000000 0.000000 0.000000 0.000000 0.042216
#
#
# Mechanical properties :
#
#
# Convention : Reuss Voigt Hill
#
# Bulk Modulus (GPa) = 26.82858 37.68350 32.25604
# Shear Modulus (GPa) = 23.56656 26.00895 24.78775
#
# Velocity S-wave (km/s) = 3.36643 3.53657 3.45255
# Velocity P-wave (km/s) = 5.29263 5.89898 5.60401
#
# Compressibility (1/GPa) = 0.03727368
#
# Stress axis : x y z
#
# Youngs Moduli (GPa) = 101.80955 34.04455 62.53870
#
# Poissons Ratio (x) = 0.02779 0.29183
# Poissons Ratio (y) = 0.08312 0.21721
# Poissons Ratio (z) = 0.47508 0.11824
#
# Static dielectric constant tensor:
#      x y z
#    x 1.858020 0.000000 0.000000 
#    y 0.000000 1.816590 0.000000 
#    z 0.000000 0.000000 1.739560 
# 
# From -- ./inp_files/51449.got.cif
#   From: 2010.05.17/outbox.cif.g08.bks.cpg/sg70_26_cif.got.tgz:51449.got - 2010.06.03 15:57:51.
