data_PCOD9516408
_publ_section_title
;
Structure prediction by ZEFSAII (Michael W. Deem and Ramdas Pophale) SiO2 
 PCOD9516408
Probable space group: F D D D
;
_chemical_formula_sum "Si O2"
_cell_formula_units_Z 80
_cell_length_a 4.809670
_cell_length_b 32.486903
_cell_length_c 19.550700
_cell_angle_alpha 90.000000
_cell_angle_beta 90.000000
_cell_angle_gamma 90.000000
_cell_volume 3054.821954
_symmetry_space_group_name_H-M "F D D D"
_symmetry_group_IT_number 70
_space_group.IT_coordinate_system_code '2'
_symmetry_cell_setting 'orthorhombic'
loop_
_space_group_symop_operation_xyz
x,y,z
1/4-x,1/4-y,z
x,1/4-y,1/4-z
1/4-x,y,1/4-z
-x,-y,-z
3/4+x,3/4+y,-z
-x,3/4+y,3/4+z
3/4+x,-y,3/4+z
x,1/2+y,1/2+z
1/4-x,3/4-y,1/2+z
x,3/4-y,3/4-z
1/4-x,1/2+y,3/4-z
-x,1/2-y,1/2-z
3/4+x,1/4+y,1/2-z
-x,1/4+y,1/4+z
3/4+x,1/2-y,1/4+z
1/2+x,y,1/2+z
3/4-x,1/4-y,1/2+z
1/2+x,1/4-y,3/4-z
3/4-x,y,3/4-z
1/2-x,-y,1/2-z
1/4+x,3/4+y,1/2-z
1/2-x,3/4+y,1/4+z
1/4+x,-y,1/4+z
1/2+x,1/2+y,z
3/4-x,3/4-y,z
1/2+x,3/4-y,1/4-z
3/4-x,1/2+y,1/4-z
1/2-x,1/2-y,-z
1/4+x,1/4+y,-z
1/2-x,1/4+y,3/4+z
1/4+x,1/2-y,3/4+z
loop_
_atom_site_type_symbol
_atom_site_label
_atom_site_fract_x
_atom_site_fract_y
_atom_site_fract_z
Si Si1 0.970721 0.419143 0.536061
Si Si2 0.514009 0.562103 0.553454
Si Si3 0.625000 0.981058 0.125000
O O1 0.875000 0.375000 0.564840
O O2 0.716715 0.574568 0.490627
O O3 0.789429 0.424034 0.467224
O O4 0.854399 0.453465 0.587516
O O5 0.625000 0.579638 0.625000
O O6 0.506553 0.513404 0.569800
#
# Coordination Sequence:
#
# PCOD9516408 Si02
#       3
#    32  32  16
#     4  12  25  44  69 104 136 176 229 289 341 397
#     4  10  25  43  73  95 138 180 231 271 344 414
#     4  10  26  46  71  96 138 184 228 272 341 420
#
# _framework density 26.188105
#
# number of rings (size 3 to 8) (size 9 to 14) (size 15 to 20)
#    1.200    0.000    0.000    4.800    0.000   12.800 
#    0.000    0.000    0.000    0.000    0.000    0.000 
#    0.000    0.000    0.000    0.000    0.000    0.000 
#
# Total GULP energy -112000.138745 kJ/mol
# GULP energy per Si atom -5600.006937 kJ/mol
# Density = 2.612850 g / cm^3
# Si number density = 26.188105 Si / 1000 Ang^3
#
#
#
# Elastic Constant Matrix: (Units=GPa)
#
#
# Indices 1 2 3 4 5 6 
#
# 1 82.1037 4.8880 4.4978 0.0000 0.0000 0.0000
# 2 4.8880 185.9094 5.0925 0.0000 0.0000 0.0000
# 3 4.4978 5.0925 111.2845 0.0000 0.0000 0.0000
# 4 0.0000 0.0000 0.0000 -28.2098 0.0000 0.0000
# 5 0.0000 0.0000 0.0000 0.0000 50.4541 0.0000
# 6 0.0000 0.0000 0.0000 0.0000 0.0000 32.7861
#
#
#
# Elastic Compliance Matrix: (Units=1/GPa)
#
#
# Indices 1 2 3 4 5 6 
#
# 1 0.012224 -0.000308 -0.000480 0.000000 0.000000 0.000000
# 2 -0.000308 0.005393 -0.000234 0.000000 0.000000 0.000000
# 3 -0.000480 -0.000234 0.009016 0.000000 0.000000 0.000000
# 4 0.000000 0.000000 0.000000 -0.035449 0.000000 0.000000
# 5 0.000000 0.000000 0.000000 0.000000 0.019820 0.000000
# 6 0.000000 0.000000 0.000000 0.000000 0.000000 0.030501
#
#
# Mechanical properties :
#
#
# Convention : Reuss Voigt Hill
#
# Bulk Modulus (GPa) = 40.66894 45.36158 43.01526
# Shear Modulus (GPa) = 96.62315 35.32737 65.97526
#
# Velocity S-wave (km/s) = 6.08078 3.67684 5.02469
# Velocity P-wave (km/s) = 8.05385 5.94849 7.07987
#
# Compressibility (1/GPa) = 0.02458879
#
# Stress axis : x y z
#
# Youngs Moduli (GPa) = 81.80385 185.40872 110.91272
#
# Poissons Ratio (x) = 0.05715 0.05323
# Poissons Ratio (y) = 0.02522 0.02599
# Poissons Ratio (z) = 0.03926 0.04345
#
# Static dielectric constant tensor:
#      x y z
#    x 1.938980 0.000000 0.000000 
#    y 0.000000 2.090560 0.000000 
#    z 0.000000 0.000000 2.121720 
# 
# From -- ./inp_files/53912.got.cif
#   From: 2010.05.17/outbox.cif.g08.bks.cpg/sg70_27_cif.got.tgz:53912.got - 2010.06.03 15:57:51.
