data_PCOD9516045
_publ_section_title
;
Structure prediction by ZEFSAII (Michael W. Deem and Ramdas Pophale) SiO2 
 PCOD9516045
Probable space group: F D D D
;
_chemical_formula_sum "Si O2"
_cell_formula_units_Z 112
_cell_length_a 15.730321
_cell_length_b 24.010448
_cell_length_c 13.494921
_cell_angle_alpha 90.000000
_cell_angle_beta 90.000000
_cell_angle_gamma 90.000000
_cell_volume 5096.924436
_symmetry_space_group_name_H-M "F D D D"
_symmetry_group_IT_number 70
_space_group.IT_coordinate_system_code '2'
_symmetry_cell_setting 'orthorhombic'
loop_
_space_group_symop_operation_xyz
x,y,z
1/4-x,1/4-y,z
x,1/4-y,1/4-z
1/4-x,y,1/4-z
-x,-y,-z
3/4+x,3/4+y,-z
-x,3/4+y,3/4+z
3/4+x,-y,3/4+z
x,1/2+y,1/2+z
1/4-x,3/4-y,1/2+z
x,3/4-y,3/4-z
1/4-x,1/2+y,3/4-z
-x,1/2-y,1/2-z
3/4+x,1/4+y,1/2-z
-x,1/4+y,1/4+z
3/4+x,1/2-y,1/4+z
1/2+x,y,1/2+z
3/4-x,1/4-y,1/2+z
1/2+x,1/4-y,3/4-z
3/4-x,y,3/4-z
1/2-x,-y,1/2-z
1/4+x,3/4+y,1/2-z
1/2-x,3/4+y,1/4+z
1/4+x,-y,1/4+z
1/2+x,1/2+y,z
3/4-x,3/4-y,z
1/2+x,3/4-y,1/4-z
3/4-x,1/2+y,1/4-z
1/2-x,1/2-y,-z
1/4+x,1/4+y,-z
1/2-x,1/4+y,3/4+z
1/4+x,1/2-y,3/4+z
loop_
_atom_site_type_symbol
_atom_site_label
_atom_site_fract_x
_atom_site_fract_y
_atom_site_fract_z
Si Si1 0.875000 0.875000 0.714535
Si Si2 0.616705 0.810861 0.878377
Si Si3 0.480641 0.978874 0.263528
Si Si4 0.543758 0.825587 0.167666
O O1 0.833245 0.823180 0.770489
O O2 0.795168 0.895332 0.652429
O O3 0.583998 0.875000 0.875000
O O4 0.672945 0.792640 0.783121
O O5 0.547614 0.765290 0.916322
O O6 0.686296 0.813874 0.968106
O O7 0.462439 0.020660 0.352745
O O8 0.625000 0.857886 0.125000
#
# Coordination Sequence:
#
# PCOD9516045 Si02
#       4
#    16  32  32  32
#     4  12  22  37  66  92 135 164 208 268 337 374
#     4  11  22  36  59  95 135 166 209 271 325 393
#     4  11  23  36  59  98 132 170 216 266 333 392
#     4  10  23  36  58  93 134 166 215 265 326 390
#
# _framework density 21.974035000000001
#
# number of rings (size 3 to 8) (size 9 to 14) (size 15 to 20)
#    0.000    1.143    5.714    0.857    8.000    1.143 
#    0.000    0.000    0.000   15.429    0.000    9.000 
#    0.000    0.000    0.000    0.000    0.000    0.000 
#
# Total GULP energy -156106.553243 kJ/mol
# GULP energy per Si atom -5575.234044 kJ/mol
# Density = 2.192402 g / cm^3
# Si number density = 21.974035 Si / 1000 Ang^3
#
#
#
# Elastic Constant Matrix: (Units=GPa)
#
#
# Indices 1 2 3 4 5 6 
#
# 1 118.9238 50.6304 42.1126 0.0000 0.0000 0.0000
# 2 50.6304 154.0310 46.4946 0.0000 0.0000 0.0000
# 3 42.1126 46.4946 43.0578 0.0000 0.0000 0.0000
# 4 0.0000 0.0000 0.0000 39.3610 0.0000 0.0000
# 5 0.0000 0.0000 0.0000 0.0000 22.8920 0.0000
# 6 0.0000 0.0000 0.0000 0.0000 0.0000 5.6139
#
#
#
# Elastic Compliance Matrix: (Units=1/GPa)
#
#
# Indices 1 2 3 4 5 6 
#
# 1 0.012907 -0.000641 -0.011931 0.000000 0.000000 0.000000
# 2 -0.000641 0.009663 -0.009808 0.000000 0.000000 0.000000
# 3 -0.011931 -0.009808 0.045484 0.000000 0.000000 0.000000
# 4 0.000000 0.000000 0.000000 0.025406 0.000000 0.000000
# 5 0.000000 0.000000 0.000000 0.000000 0.043683 0.000000
# 6 0.000000 0.000000 0.000000 0.000000 0.000000 0.178128
#
#
# Mechanical properties :
#
#
# Convention : Reuss Voigt Hill
#
# Bulk Modulus (GPa) = 42.92840 66.05420 54.49130
# Shear Modulus (GPa) = 13.59449 25.35840 19.47644
#
# Velocity S-wave (km/s) = 2.48999 3.40077 2.98037
# Velocity P-wave (km/s) = 5.27685 6.74875 6.05767
#
# Compressibility (1/GPa) = 0.02329460
#
# Stress axis : x y z
#
# Youngs Moduli (GPa) = 77.47958 103.48330 21.98558
#
# Poissons Ratio (x) = 0.06633 0.26231
# Poissons Ratio (y) = 0.04967 0.21563
# Poissons Ratio (z) = 0.92442 1.01494
#
# Static dielectric constant tensor:
#      x y z
#    x 1.859680 0.000000 0.000000 
#    y 0.000000 1.901370 0.000000 
#    z 0.000000 0.000000 1.760960 
# 
# From -- ./inp_files/25201.got.cif
#   From: 2010.05.17/outbox.cif.g08.bks.cpg/sg70_13_cif.got.tgz:25201.got - 2010.06.03 15:57:51.
