data_PCOD9516779
_publ_section_title
;
Structure prediction by ZEFSAII (Michael W. Deem and Ramdas Pophale) SiO2 
 PCOD9516779
Probable space group: F D D D
;
_chemical_formula_sum "Si O2"
_cell_formula_units_Z 120
_cell_length_a 15.030829
_cell_length_b 28.628790
_cell_length_c 12.204847
_cell_angle_alpha 90.000000
_cell_angle_beta 90.000000
_cell_angle_gamma 90.000000
_cell_volume 5251.921987
_symmetry_space_group_name_H-M "F D D D"
_symmetry_group_IT_number 70
_space_group.IT_coordinate_system_code '2'
_symmetry_cell_setting 'orthorhombic'
loop_
_space_group_symop_operation_xyz
x,y,z
1/4-x,1/4-y,z
x,1/4-y,1/4-z
1/4-x,y,1/4-z
-x,-y,-z
3/4+x,3/4+y,-z
-x,3/4+y,3/4+z
3/4+x,-y,3/4+z
x,1/2+y,1/2+z
1/4-x,3/4-y,1/2+z
x,3/4-y,3/4-z
1/4-x,1/2+y,3/4-z
-x,1/2-y,1/2-z
3/4+x,1/4+y,1/2-z
-x,1/4+y,1/4+z
3/4+x,1/2-y,1/4+z
1/2+x,y,1/2+z
3/4-x,1/4-y,1/2+z
1/2+x,1/4-y,3/4-z
3/4-x,y,3/4-z
1/2-x,-y,1/2-z
1/4+x,3/4+y,1/2-z
1/2-x,3/4+y,1/4+z
1/4+x,-y,1/4+z
1/2+x,1/2+y,z
3/4-x,3/4-y,z
1/2+x,3/4-y,1/4-z
3/4-x,1/2+y,1/4-z
1/2-x,1/2-y,-z
1/4+x,1/4+y,-z
1/2-x,1/4+y,3/4+z
1/4+x,1/2-y,3/4+z
loop_
_atom_site_type_symbol
_atom_site_label
_atom_site_fract_x
_atom_site_fract_y
_atom_site_fract_z
Si Si1 0.278043 0.281724 0.600649
Si Si2 0.537136 0.320815 0.769477
Si Si3 0.875000 0.142946 0.875000
Si Si4 0.625000 0.625000 0.125000
Si Si5 0.218519 0.010587 0.423390
O O1 0.250000 0.250000 0.500000
O O2 0.211653 0.325214 0.608314
O O3 0.264347 0.252276 0.712899
O O4 0.380592 0.292309 0.574994
O O5 0.603925 0.360635 0.730019
O O6 0.441659 0.343640 0.801887
O O7 0.561746 0.289292 0.873125
O O8 0.528681 0.285656 0.666857
#
# Coordination Sequence:
#
# PCOD9516779 Si02
#       5
#    32  32  16   8  32
#     4  12  24  43  67  97 140 193 226 286 348 423
#     4  11  24  42  71 104 133 179 228 305 344 420
#     4  12  24  43  68 104 141 179 242 288 347 418
#     4  12  24  42  68 100 138 170 236 300 350 402
#     4  11  23  45  70  99 140 181 235 279 368 414
#
# _framework density 22.848776999999998
#
# number of rings (size 3 to 8) (size 9 to 14) (size 15 to 20)
#    0.000    0.533    2.667    6.400    0.000    4.267 
#    4.800    0.000    0.000    3.200    0.000    0.000 
#    0.000    0.000    0.000    0.000    0.000    0.000 
#
# Total GULP energy -167868.885027 kJ/mol
# GULP energy per Si atom -5595.629501 kJ/mol
# Density = 2.279677 g / cm^3
# Si number density = 22.848777 Si / 1000 Ang^3
#
#
#
# Elastic Constant Matrix: (Units=GPa)
#
#
# Indices 1 2 3 4 5 6 
#
# 1 73.5481 -0.0098 -7.4487 0.0000 0.0000 0.0000
# 2 -0.0098 82.5806 22.8035 0.0000 0.0000 0.0000
# 3 -7.4487 22.8035 133.0706 0.0000 0.0000 0.0000
# 4 0.0000 0.0000 0.0000 44.4796 0.0000 0.0000
# 5 0.0000 0.0000 0.0000 0.0000 35.6292 0.0000
# 6 0.0000 0.0000 0.0000 0.0000 0.0000 27.3507
#
#
#
# Elastic Compliance Matrix: (Units=1/GPa)
#
#
# Indices 1 2 3 4 5 6 
#
# 1 0.013678 -0.000220 0.000803 0.000000 0.000000 0.000000
# 2 -0.000220 0.012714 -0.002191 0.000000 0.000000 0.000000
# 3 0.000803 -0.002191 0.007935 0.000000 0.000000 0.000000
# 4 0.000000 0.000000 0.000000 0.022482 0.000000 0.000000
# 5 0.000000 0.000000 0.000000 0.000000 0.028067 0.000000
# 6 0.000000 0.000000 0.000000 0.000000 0.000000 0.036562
#
#
# Mechanical properties :
#
#
# Convention : Reuss Voigt Hill
#
# Bulk Modulus (GPa) = 32.14236 35.54326 33.84281
# Shear Modulus (GPa) = 37.03013 39.74886 38.38949
#
# Velocity S-wave (km/s) = 4.03011 4.17544 4.10342
# Velocity P-wave (km/s) = 5.97944 6.23180 6.10692
#
# Compressibility (1/GPa) = 0.03111160
#
# Stress axis : x y z
#
# Youngs Moduli (GPa) = 73.11076 78.65095 126.01995
#
# Poissons Ratio (x) = 0.01732 -0.10124
# Poissons Ratio (y) = 0.01610 0.27612
# Poissons Ratio (z) = -0.05873 0.17233
#
# Static dielectric constant tensor:
#      x y z
#    x 1.314430 0.000000 0.000000 
#    y 0.000000 1.871190 0.000000 
#    z 0.000000 0.000000 1.830270 
# 
# From -- ./inp_files/16517.got.cif
#   From: 2010.05.17/outbox.cif.g08.bks.cpg/sg70_9_cif.got.tgz:16517.got - 2010.06.03 15:57:51.
