data_PCOD9516401
_publ_section_title
;
Structure prediction by ZEFSAII (Michael W. Deem and Ramdas Pophale) SiO2 
 PCOD9516401
Probable space group: F D D D
;
_chemical_formula_sum "Si O2"
_cell_formula_units_Z 136
_cell_length_a 21.987261
_cell_length_b 20.029089
_cell_length_c 12.799863
_cell_angle_alpha 90.000000
_cell_angle_beta 90.000000
_cell_angle_gamma 90.000000
_cell_volume 5636.865202
_symmetry_space_group_name_H-M "F D D D"
_symmetry_group_IT_number 70
_space_group.IT_coordinate_system_code '2'
_symmetry_cell_setting 'orthorhombic'
loop_
_space_group_symop_operation_xyz
x,y,z
1/4-x,1/4-y,z
x,1/4-y,1/4-z
1/4-x,y,1/4-z
-x,-y,-z
3/4+x,3/4+y,-z
-x,3/4+y,3/4+z
3/4+x,-y,3/4+z
x,1/2+y,1/2+z
1/4-x,3/4-y,1/2+z
x,3/4-y,3/4-z
1/4-x,1/2+y,3/4-z
-x,1/2-y,1/2-z
3/4+x,1/4+y,1/2-z
-x,1/4+y,1/4+z
3/4+x,1/2-y,1/4+z
1/2+x,y,1/2+z
3/4-x,1/4-y,1/2+z
1/2+x,1/4-y,3/4-z
3/4-x,y,3/4-z
1/2-x,-y,1/2-z
1/4+x,3/4+y,1/2-z
1/2-x,3/4+y,1/4+z
1/4+x,-y,1/4+z
1/2+x,1/2+y,z
3/4-x,3/4-y,z
1/2+x,3/4-y,1/4-z
3/4-x,1/2+y,1/4-z
1/2-x,1/2-y,-z
1/4+x,1/4+y,-z
1/2-x,1/4+y,3/4+z
1/4+x,1/2-y,3/4+z
loop_
_atom_site_type_symbol
_atom_site_label
_atom_site_fract_x
_atom_site_fract_y
_atom_site_fract_z
Si Si1 0.200969 0.312223 0.302982
Si Si2 0.387411 0.776884 0.700781
Si Si3 0.016530 0.697734 0.843280
Si Si4 0.625000 0.125000 0.125000
Si Si5 0.422651 0.612480 0.242254
O O1 0.221019 0.375000 0.375000
O O2 0.191056 0.252375 0.382741
O O3 0.240435 0.286471 0.207866
O O4 0.135636 0.337237 0.255043
O O5 0.337863 0.806798 0.618662
O O6 0.406862 0.825893 0.792601
O O7 0.354842 0.711098 0.749847
O O8 0.977944 0.631958 0.815376
O O9 0.000000 0.750000 0.750000
O O10 0.446338 0.625000 0.125000
#
# Coordination Sequence:
#
# PCOD9516401 Si02
#       5
#    32  32  32   8  32
#     4   9  21  39  65  99 133 180 223 277 343 409
#     4  10  25  43  63  94 135 181 224 285 338 403
#     4  12  21  37  70 104 131 168 232 284 343 412
#     4  12  28  48  60  90 144 184 232 282 330 400
#     4   9  19  39  63  96 132 174 216 275 339 414
#
# _framework density 24.126885000000001
#
# number of rings (size 3 to 8) (size 9 to 14) (size 15 to 20)
#    0.000    2.353    4.706    0.706    8.235    1.882 
#    0.000    2.353    0.000    0.000    0.000    0.000 
#    0.000    0.000    0.000    0.000    0.000    0.000 
#
# Total GULP energy -189855.051493 kJ/mol
# GULP energy per Si atom -5583.972103 kJ/mol
# Density = 2.407197 g / cm^3
# Si number density = 24.126885 Si / 1000 Ang^3
#
#
#
# Elastic Constant Matrix: (Units=GPa)
#
#
# Indices 1 2 3 4 5 6 
#
# 1 59.3674 35.1158 43.7721 0.0000 0.0000 0.0000
# 2 35.1158 103.9108 61.3315 0.0000 0.0000 0.0000
# 3 43.7721 61.3315 171.1109 0.0000 0.0000 0.0000
# 4 0.0000 0.0000 0.0000 62.8188 0.0000 0.0000
# 5 0.0000 0.0000 0.0000 0.0000 37.8628 0.0000
# 6 0.0000 0.0000 0.0000 0.0000 0.0000 19.5943
#
#
#
# Elastic Compliance Matrix: (Units=1/GPa)
#
#
# Indices 1 2 3 4 5 6 
#
# 1 0.022955 -0.005443 -0.003921 0.000000 0.000000 0.000000
# 2 -0.005443 0.013497 -0.003445 0.000000 0.000000 0.000000
# 3 -0.003921 -0.003445 0.008082 0.000000 0.000000 0.000000
# 4 0.000000 0.000000 0.000000 0.015919 0.000000 0.000000
# 5 0.000000 0.000000 0.000000 0.000000 0.026411 0.000000
# 6 0.000000 0.000000 0.000000 0.000000 0.000000 0.051035
#
#
# Mechanical properties :
#
#
# Convention : Reuss Voigt Hill
#
# Bulk Modulus (GPa) = 52.86871 68.31421 60.59146
# Shear Modulus (GPa) = 29.44251 36.99983 33.22117
#
# Velocity S-wave (km/s) = 3.49710 3.92031 3.71473
# Velocity P-wave (km/s) = 6.18600 6.99055 6.60054
#
# Compressibility (1/GPa) = 0.01891478
#
# Stress axis : x y z
#
# Youngs Moduli (GPa) = 43.56367 74.09322 123.73010
#
# Poissons Ratio (x) = 0.40329 0.48517
# Poissons Ratio (y) = 0.23712 0.42627
# Poissons Ratio (z) = 0.17082 0.25527
#
# Static dielectric constant tensor:
#      x y z
#    x 1.949950 0.000000 0.000000 
#    y 0.000000 2.018000 0.000000 
#    z 0.000000 0.000000 1.747930 
# 
# From -- ./inp_files/29730.got.cif
#   From: 2010.05.17/outbox.cif.g08.bks.cpg/sg70_15_cif.got.tgz:29730.got - 2010.06.03 15:57:51.
