data_PCOD9516087
_publ_section_title
;
Structure prediction by ZEFSAII (Michael W. Deem and Ramdas Pophale) SiO2 
 PCOD9516087
Probable space group: F D D D
;
_chemical_formula_sum "Si O2"
_cell_formula_units_Z 160
_cell_length_a 22.645681
_cell_length_b 16.080550
_cell_length_c 20.583673
_cell_angle_alpha 90.000000
_cell_angle_beta 90.000000
_cell_angle_gamma 90.000000
_cell_volume 7495.647557
_symmetry_space_group_name_H-M "F D D D"
_symmetry_group_IT_number 70
_space_group.IT_coordinate_system_code '2'
_symmetry_cell_setting 'orthorhombic'
loop_
_space_group_symop_operation_xyz
x,y,z
1/4-x,1/4-y,z
x,1/4-y,1/4-z
1/4-x,y,1/4-z
-x,-y,-z
3/4+x,3/4+y,-z
-x,3/4+y,3/4+z
3/4+x,-y,3/4+z
x,1/2+y,1/2+z
1/4-x,3/4-y,1/2+z
x,3/4-y,3/4-z
1/4-x,1/2+y,3/4-z
-x,1/2-y,1/2-z
3/4+x,1/4+y,1/2-z
-x,1/4+y,1/4+z
3/4+x,1/2-y,1/4+z
1/2+x,y,1/2+z
3/4-x,1/4-y,1/2+z
1/2+x,1/4-y,3/4-z
3/4-x,y,3/4-z
1/2-x,-y,1/2-z
1/4+x,3/4+y,1/2-z
1/2-x,3/4+y,1/4+z
1/4+x,-y,1/4+z
1/2+x,1/2+y,z
3/4-x,3/4-y,z
1/2+x,3/4-y,1/4-z
3/4-x,1/2+y,1/4-z
1/2-x,1/2-y,-z
1/4+x,1/4+y,-z
1/2-x,1/4+y,3/4+z
1/4+x,1/2-y,3/4+z
loop_
_atom_site_type_symbol
_atom_site_label
_atom_site_fract_x
_atom_site_fract_y
_atom_site_fract_z
Si Si1 0.187546 0.375000 0.875000
Si Si2 0.470242 0.240444 0.838761
Si Si3 0.375000 0.639868 0.875000
Si Si4 0.216913 0.586940 0.449567
Si Si5 0.875000 0.375000 0.296057
Si Si6 0.661858 0.466411 0.497527
Si Si7 0.125000 0.625000 0.914173
O O1 0.228452 0.293519 0.878357
O O2 0.156013 0.358303 0.806318
O O3 0.432817 0.168562 0.874266
O O4 0.505993 0.180075 0.789004
O O5 0.420498 0.310396 0.827157
O O6 0.372889 0.693722 0.940161
O O7 0.166462 0.568596 0.501315
O O8 0.272689 0.530877 0.469217
O O9 0.179858 0.594569 0.382287
O O10 0.644811 0.549304 0.459708
#
# Coordination Sequence:
#
# PCOD9516087 Si02
#       7
#    16  32  16  32  16  32  16
#     4  12  22  41  70 100 136 180 216 299 354 414
#     4  11  21  39  60 105 140 170 226 284 347 432
#     4  10  26  40  68 100 142 190 228 286 356 426
#     4  10  23  40  67 104 139 185 230 295 352 434
#     4  11  20  33  67 105 142 180 210 274 386 426
#     4  11  25  46  70 103 146 184 245 297 354 433
#     4  11  24  47  75  96 144 195 240 300 364 424
#
# _framework density 21.345721000000001
#
# number of rings (size 3 to 8) (size 9 to 14) (size 15 to 20)
#    0.000    1.200    4.000    1.800    2.800    0.400 
#    0.000    4.000    4.400    0.000    0.000    0.000 
#    0.000    0.000    0.000    0.000    0.000    0.000 
#
# Total GULP energy -222743.686962 kJ/mol
# GULP energy per Si atom -5568.592174 kJ/mol
# Density = 2.129714 g / cm^3
# Si number density = 21.345721 Si / 1000 Ang^3
#
#
#
# Elastic Constant Matrix: (Units=GPa)
#
#
# Indices 1 2 3 4 5 6 
#
# 1 75.6424 47.7465 46.1716 0.0000 0.0000 0.0000
# 2 47.7465 102.3204 67.2112 0.0000 0.0000 0.0000
# 3 46.1716 67.2112 148.9732 0.0000 0.0000 0.0000
# 4 0.0000 0.0000 0.0000 28.9446 0.0000 0.0000
# 5 0.0000 0.0000 0.0000 0.0000 34.5311 0.0000
# 6 0.0000 0.0000 0.0000 0.0000 0.0000 21.1624
#
#
#
# Elastic Compliance Matrix: (Units=1/GPa)
#
#
# Indices 1 2 3 4 5 6 
#
# 1 0.019505 -0.007292 -0.002755 0.000000 0.000000 0.000000
# 2 -0.007292 0.016615 -0.005236 0.000000 0.000000 0.000000
# 3 -0.002755 -0.005236 0.009929 0.000000 0.000000 0.000000
# 4 0.000000 0.000000 0.000000 0.034549 0.000000 0.000000
# 5 0.000000 0.000000 0.000000 0.000000 0.028959 0.000000
# 6 0.000000 0.000000 0.000000 0.000000 0.000000 0.047254
#
#
# Mechanical properties :
#
#
# Convention : Reuss Voigt Hill
#
# Bulk Modulus (GPa) = 64.59001 72.13275 68.36138
# Shear Modulus (GPa) = 25.96889 27.98140 26.97515
#
# Velocity S-wave (km/s) = 3.49174 3.62452 3.55875
# Velocity P-wave (km/s) = 6.82503 7.16813 6.99868
#
# Compressibility (1/GPa) = 0.01548227
#
# Stress axis : x y z
#
# Youngs Moduli (GPa) = 51.27018 60.18535 100.71481
#
# Poissons Ratio (x) = 0.43885 0.27751
# Poissons Ratio (y) = 0.37384 0.52737
# Poissons Ratio (z) = 0.14127 0.31515
#
# Static dielectric constant tensor:
#      x y z
#    x 1.845660 0.000000 0.000000 
#    y 0.000000 1.754090 0.000000 
#    z 0.000000 0.000000 1.977800 
# 
# From -- ./inp_files/45839.got.cif
#   From: 2010.05.17/outbox.cif.g08.bks.cpg/sg70_23_cif.got.tgz:45839.got - 2010.06.03 15:57:51.
