data_PCOD9516850
_publ_section_title
;
Structure prediction by ZEFSAII (Michael W. Deem and Ramdas Pophale) SiO2 
 PCOD9516850
Probable space group: F D D D
;
_chemical_formula_sum "Si O2"
_cell_formula_units_Z 208
_cell_length_a 16.491662
_cell_length_b 27.696564
_cell_length_c 20.019639
_cell_angle_alpha 90.000000
_cell_angle_beta 90.000000
_cell_angle_gamma 90.000000
_cell_volume 9144.217797
_symmetry_space_group_name_H-M "F D D D"
_symmetry_group_IT_number 70
_space_group.IT_coordinate_system_code '2'
_symmetry_cell_setting 'orthorhombic'
loop_
_space_group_symop_operation_xyz
x,y,z
1/4-x,1/4-y,z
x,1/4-y,1/4-z
1/4-x,y,1/4-z
-x,-y,-z
3/4+x,3/4+y,-z
-x,3/4+y,3/4+z
3/4+x,-y,3/4+z
x,1/2+y,1/2+z
1/4-x,3/4-y,1/2+z
x,3/4-y,3/4-z
1/4-x,1/2+y,3/4-z
-x,1/2-y,1/2-z
3/4+x,1/4+y,1/2-z
-x,1/4+y,1/4+z
3/4+x,1/2-y,1/4+z
1/2+x,y,1/2+z
3/4-x,1/4-y,1/2+z
1/2+x,1/4-y,3/4-z
3/4-x,y,3/4-z
1/2-x,-y,1/2-z
1/4+x,3/4+y,1/2-z
1/2-x,3/4+y,1/4+z
1/4+x,-y,1/4+z
1/2+x,1/2+y,z
3/4-x,3/4-y,z
1/2+x,3/4-y,1/4-z
3/4-x,1/2+y,1/4-z
1/2-x,1/2-y,-z
1/4+x,1/4+y,-z
1/2-x,1/4+y,3/4+z
1/4+x,1/2-y,3/4+z
loop_
_atom_site_type_symbol
_atom_site_label
_atom_site_fract_x
_atom_site_fract_y
_atom_site_fract_z
Si Si1 0.432445 0.662104 0.450098
Si Si2 0.312301 0.916667 0.159016
Si Si3 0.166877 0.011142 0.822959
Si Si4 0.625000 0.748070 0.125000
Si Si5 0.813862 0.174493 0.163632
Si Si6 0.253263 0.700631 0.542474
Si Si7 0.911104 0.196986 0.801892
O O1 0.482213 0.655402 0.382572
O O2 0.390489 0.713898 0.435052
O O3 0.483704 0.671653 0.516755
O O4 0.392034 0.609601 0.462566
O O5 0.375000 0.875000 0.146956
O O6 0.291297 0.917724 0.237388
O O7 0.351870 0.963312 0.121979
O O8 0.207347 0.968913 0.867153
O O9 0.133261 0.983256 0.757343
O O10 0.240694 0.046560 0.803467
O O11 0.699767 0.713845 0.106891
O O12 0.805527 0.125000 0.125000
O O13 0.908488 0.181987 0.186221
O O14 0.250000 0.750000 0.500000
O O15 0.875000 0.208182 0.875000
#
# Coordination Sequence:
#
# PCOD9516850 Si02
#       7
#    32  32  32  16  32  32  32
#     4  12  21  39  69  94 124 183 226 261 339 408
#     4  12  25  43  69  99 138 177 226 283 339 403
#     4  11  24  45  62  98 134 167 224 285 332 398
#     4  12  22  42  71  96 138 178 233 272 328 424
#     4  12  25  43  69  99 138 177 226 283 339 403
#     4  12  24  43  67 104 137 177 225 274 342 409
#     4  11  25  42  67  94 128 171 223 278 339 393
#
# _framework density 22.746614000000001
#
# number of rings (size 3 to 8) (size 9 to 14) (size 15 to 20)
#    0.000    0.308    8.462    0.000    2.154    1.231 
#    2.769    0.000    0.000    0.000    0.000    0.000 
#    0.000    0.000    0.000    0.000    0.000    0.000 
#
# Total GULP energy -290141.973715 kJ/mol
# GULP energy per Si atom -5579.653341 kJ/mol
# Density = 2.269484 g / cm^3
# Si number density = 22.746614 Si / 1000 Ang^3
#
#
#
# Elastic Constant Matrix: (Units=GPa)
#
#
# Indices 1 2 3 4 5 6 
#
# 1 39.7848 7.4666 -9.1306 0.0000 0.0000 0.0000
# 2 7.4666 85.0084 26.3554 0.0000 0.0000 0.0000
# 3 -9.1306 26.3554 105.3045 0.0000 0.0000 0.0000
# 4 0.0000 0.0000 0.0000 36.0027 0.0000 0.0000
# 5 0.0000 0.0000 0.0000 0.0000 31.9105 0.0000
# 6 0.0000 0.0000 0.0000 0.0000 0.0000 31.1667
#
#
#
# Elastic Compliance Matrix: (Units=1/GPa)
#
#
# Indices 1 2 3 4 5 6 
#
# 1 0.026469 -0.003292 0.003119 0.000000 0.000000 0.000000
# 2 -0.003292 0.013163 -0.003580 0.000000 0.000000 0.000000
# 3 0.003119 -0.003580 0.010663 0.000000 0.000000 0.000000
# 4 0.000000 0.000000 0.000000 0.027776 0.000000 0.000000
# 5 0.000000 0.000000 0.000000 0.000000 0.031338 0.000000
# 6 0.000000 0.000000 0.000000 0.000000 0.000000 0.032086
#
#
# Mechanical properties :
#
#
# Convention : Reuss Voigt Hill
#
# Bulk Modulus (GPa) = 23.37069 31.05341 27.21205
# Shear Modulus (GPa) = 30.62582 33.50974 32.06778
#
# Velocity S-wave (km/s) = 3.67330 3.84236 3.75878
# Velocity P-wave (km/s) = 5.31860 5.77637 5.55221
#
# Compressibility (1/GPa) = 0.04278864
#
# Stress axis : x y z
#
# Youngs Moduli (GPa) = 37.78033 75.97339 93.78557
#
# Poissons Ratio (x) = 0.25009 -0.29251
# Poissons Ratio (y) = 0.12437 0.33573
# Poissons Ratio (z) = -0.11783 0.27196
#
# Static dielectric constant tensor:
#      x y z
#    x 1.880120 0.000000 0.000000 
#    y 0.000000 1.869360 0.000000 
#    z 0.000000 0.000000 2.493610 
# 
# From -- ./inp_files/43934.got.cif
#   From: 2010.05.17/outbox.cif.g08.bks.cpg/sg70_22_cif.got.tgz:43934.got - 2010.06.03 15:57:51.
