data_PCOD9516902
_publ_section_title
;
Structure prediction by ZEFSAII (Michael W. Deem and Ramdas Pophale) SiO2 
 PCOD9516902
Probable space group: F D D D
;
_chemical_formula_sum "Si O2"
_cell_formula_units_Z 176
_cell_length_a 23.604397
_cell_length_b 14.481583
_cell_length_c 22.348139
_cell_angle_alpha 90.000000
_cell_angle_beta 90.000000
_cell_angle_gamma 90.000000
_cell_volume 7639.242773
_symmetry_space_group_name_H-M "F D D D"
_symmetry_group_IT_number 70
_space_group.IT_coordinate_system_code '2'
_symmetry_cell_setting 'orthorhombic'
loop_
_space_group_symop_operation_xyz
x,y,z
1/4-x,1/4-y,z
x,1/4-y,1/4-z
1/4-x,y,1/4-z
-x,-y,-z
3/4+x,3/4+y,-z
-x,3/4+y,3/4+z
3/4+x,-y,3/4+z
x,1/2+y,1/2+z
1/4-x,3/4-y,1/2+z
x,3/4-y,3/4-z
1/4-x,1/2+y,3/4-z
-x,1/2-y,1/2-z
3/4+x,1/4+y,1/2-z
-x,1/4+y,1/4+z
3/4+x,1/2-y,1/4+z
1/2+x,y,1/2+z
3/4-x,1/4-y,1/2+z
1/2+x,1/4-y,3/4-z
3/4-x,y,3/4-z
1/2-x,-y,1/2-z
1/4+x,3/4+y,1/2-z
1/2-x,3/4+y,1/4+z
1/4+x,-y,1/4+z
1/2+x,1/2+y,z
3/4-x,3/4-y,z
1/2+x,3/4-y,1/4-z
3/4-x,1/2+y,1/4-z
1/2-x,1/2-y,-z
1/4+x,1/4+y,-z
1/2-x,1/4+y,3/4+z
1/4+x,1/2-y,3/4+z
loop_
_atom_site_type_symbol
_atom_site_label
_atom_site_fract_x
_atom_site_fract_y
_atom_site_fract_z
Si Si1 0.944980 0.125542 0.985526
Si Si2 0.125000 0.371904 0.125000
Si Si3 0.578581 0.010639 0.333616
Si Si4 0.451819 0.043836 0.077220
Si Si5 0.566545 0.071068 0.467964
Si Si6 0.023338 0.878120 0.551137
O O1 0.906727 0.168217 0.932397
O O2 0.012142 0.136221 0.976691
O O3 0.928391 0.162843 0.050593
O O4 0.935140 0.014857 0.986349
O O5 0.070766 0.327602 0.091194
O O6 0.561004 0.028918 0.401476
O O7 0.534537 0.071494 0.295518
O O8 0.646320 0.020768 0.332670
O O9 0.450201 0.125000 0.125000
O O10 0.505256 0.975439 0.081515
O O11 0.453330 0.093528 0.013121
O O12 0.625000 0.125000 0.473014
#
# Coordination Sequence:
#
# PCOD9516902 Si02
#       6
#    32  16  32  32  32  32
#     4  11  26  43  67 102 137 183 228 286 349 414
#     4  12  24  48  62 100 136 188 222 288 352 416
#     4  12  24  42  70  98 136 176 228 282 346 412
#     4  11  25  44  70 101 135 182 237 285 345 405
#     4  11  25  44  70 101 135 182 237 285 345 405
#     4  11  26  43  67 102 137 183 228 286 349 414
#
# _framework density 23.038933
#
# number of rings (size 3 to 8) (size 9 to 14) (size 15 to 20)
#    0.000    0.727    3.636    3.273    5.091    0.000 
#    0.000    0.909    0.000    0.000    0.000    0.000 
#    0.000    0.000    0.000    0.000    0.000    0.000 
#
# Total GULP energy -245619.492753 kJ/mol
# GULP energy per Si atom -5582.261199 kJ/mol
# Density = 2.298650 g / cm^3
# Si number density = 23.038933 Si / 1000 Ang^3
#
#
#
# Elastic Constant Matrix: (Units=GPa)
#
#
# Indices 1 2 3 4 5 6 
#
# 1 139.2536 26.0094 51.2428 0.0000 0.0000 0.0000
# 2 26.0094 47.4300 9.8041 0.0000 0.0000 0.0000
# 3 51.2428 9.8041 86.3663 0.0000 0.0000 0.0000
# 4 0.0000 0.0000 0.0000 19.0941 0.0000 0.0000
# 5 0.0000 0.0000 0.0000 0.0000 35.8956 0.0000
# 6 0.0000 0.0000 0.0000 0.0000 0.0000 33.1431
#
#
#
# Elastic Compliance Matrix: (Units=1/GPa)
#
#
# Indices 1 2 3 4 5 6 
#
# 1 0.009995 -0.004358 -0.005436 0.000000 0.000000 0.000000
# 2 -0.004358 0.023490 -0.000081 0.000000 0.000000 0.000000
# 3 -0.005436 -0.000081 0.014813 0.000000 0.000000 0.000000
# 4 0.000000 0.000000 0.000000 0.052372 0.000000 0.000000
# 5 0.000000 0.000000 0.000000 0.000000 0.027859 0.000000
# 6 0.000000 0.000000 0.000000 0.000000 0.000000 0.030172
#
#
# Mechanical properties :
#
#
# Convention : Reuss Voigt Hill
#
# Bulk Modulus (GPa) = 35.02696 49.68474 42.35585
# Shear Modulus (GPa) = 26.60049 30.02613 28.31331
#
# Velocity S-wave (km/s) = 3.40161 3.61401 3.50942
# Velocity P-wave (km/s) = 5.53754 6.24717 5.90303
#
# Compressibility (1/GPa) = 0.02854944
#
# Stress axis : x y z
#
# Youngs Moduli (GPa) = 100.04712 42.57122 67.50859
#
# Poissons Ratio (x) = 0.18551 0.36696
# Poissons Ratio (y) = 0.43596 0.00548
# Poissons Ratio (z) = 0.54383 0.00345
#
# Static dielectric constant tensor:
#      x y z
#    x 1.886850 0.000000 0.000000 
#    y 0.000000 1.906210 0.000000 
#    z 0.000000 0.000000 1.837050 
# 
# From -- ./inp_files/53615.got.cif
#   From: 2010.05.17/outbox.cif.g08.bks.cpg/sg70_27_cif.got.tgz:53615.got - 2010.06.03 15:57:51.
