data_PCOD9516147
_publ_section_title
;
Structure prediction by ZEFSAII (Michael W. Deem and Ramdas Pophale) SiO2 
 PCOD9516147
Probable space group: F D D D
;
_chemical_formula_sum "Si O2"
_cell_formula_units_Z 176
_cell_length_a 12.095276
_cell_length_b 29.155598
_cell_length_c 25.912056
_cell_angle_alpha 90.000000
_cell_angle_beta 90.000000
_cell_angle_gamma 90.000000
_cell_volume 9137.757111
_symmetry_space_group_name_H-M "F D D D"
_symmetry_group_IT_number 70
_space_group.IT_coordinate_system_code '2'
_symmetry_cell_setting 'orthorhombic'
loop_
_space_group_symop_operation_xyz
x,y,z
1/4-x,1/4-y,z
x,1/4-y,1/4-z
1/4-x,y,1/4-z
-x,-y,-z
3/4+x,3/4+y,-z
-x,3/4+y,3/4+z
3/4+x,-y,3/4+z
x,1/2+y,1/2+z
1/4-x,3/4-y,1/2+z
x,3/4-y,3/4-z
1/4-x,1/2+y,3/4-z
-x,1/2-y,1/2-z
3/4+x,1/4+y,1/2-z
-x,1/4+y,1/4+z
3/4+x,1/2-y,1/4+z
1/2+x,y,1/2+z
3/4-x,1/4-y,1/2+z
1/2+x,1/4-y,3/4-z
3/4-x,y,3/4-z
1/2-x,-y,1/2-z
1/4+x,3/4+y,1/2-z
1/2-x,3/4+y,1/4+z
1/4+x,-y,1/4+z
1/2+x,1/2+y,z
3/4-x,3/4-y,z
1/2+x,3/4-y,1/4-z
3/4-x,1/2+y,1/4-z
1/2-x,1/2-y,-z
1/4+x,1/4+y,-z
1/2-x,1/4+y,3/4+z
1/4+x,1/2-y,3/4+z
loop_
_atom_site_type_symbol
_atom_site_label
_atom_site_fract_x
_atom_site_fract_y
_atom_site_fract_z
Si Si1 0.625000 0.782506 0.625000
Si Si2 0.064969 0.688098 0.772395
Si Si3 0.231376 0.025348 0.161896
Si Si4 0.055419 0.904500 0.716203
Si Si5 0.253875 0.876585 0.790508
Si Si6 0.961920 0.051003 0.629273
O O1 0.632688 0.816413 0.672987
O O2 0.728214 0.747640 0.624828
O O3 0.035622 0.691745 0.711547
O O4 0.197850 0.685004 0.770430
O O5 0.022939 0.729691 0.808095
O O6 0.005090 0.643595 0.796216
O O7 0.125000 0.019391 0.125000
O O8 0.330855 0.044178 0.126835
O O9 0.149557 0.891190 0.756878
O O10 0.375000 0.875000 0.764602
O O11 0.234228 0.827172 0.816892
O O12 0.257498 0.914764 0.835754
#
# Coordination Sequence:
#
# PCOD9516147 Si02
#       6
#    16  32  32  32  32  32
#     4  12  24  43  66  88 132 182 216 261 344 406
#     4  10  23  43  64  92 140 167 217 283 328 400
#     4  11  22  41  69  97 125 175 223 275 335 402
#     4  11  24  43  63  94 133 176 213 273 340 401
#     4  11  22  42  68  96 132 165 219 281 326 394
#     4  11  21  43  67  96 129 168 218 275 333 394
#
# _framework density 19.260745
#
# number of rings (size 3 to 8) (size 9 to 14) (size 15 to 20)
#    0.000    1.091    5.455    1.636    1.273    0.727 
#    6.545    0.000    0.000    0.000    0.000    0.000 
#    0.000    0.000    0.000    0.000    0.000    0.000 
#
# Total GULP energy -245218.282747 kJ/mol
# GULP energy per Si atom -5573.142790 kJ/mol
# Density = 1.921691 g / cm^3
# Si number density = 19.260745 Si / 1000 Ang^3
#
#
#
# Elastic Constant Matrix: (Units=GPa)
#
#
# Indices 1 2 3 4 5 6 
#
# 1 158.9981 36.2390 44.4769 0.0000 0.0000 0.0000
# 2 36.2390 80.8604 44.1745 0.0000 0.0000 0.0000
# 3 44.4769 44.1745 60.0254 0.0000 0.0000 0.0000
# 4 0.0000 0.0000 0.0000 12.9989 0.0000 0.0000
# 5 0.0000 0.0000 0.0000 0.0000 29.6132 0.0000
# 6 0.0000 0.0000 0.0000 0.0000 0.0000 28.2011
#
#
#
# Elastic Compliance Matrix: (Units=1/GPa)
#
#
# Indices 1 2 3 4 5 6 
#
# 1 0.007950 -0.000577 -0.005466 0.000000 0.000000 0.000000
# 2 -0.000577 0.020724 -0.014824 0.000000 0.000000 0.000000
# 3 -0.005466 -0.014824 0.031619 0.000000 0.000000 0.000000
# 4 0.000000 0.000000 0.000000 0.076930 0.000000 0.000000
# 5 0.000000 0.000000 0.000000 0.000000 0.033769 0.000000
# 6 0.000000 0.000000 0.000000 0.000000 0.000000 0.035460
#
#
# Mechanical properties :
#
#
# Convention : Reuss Voigt Hill
#
# Bulk Modulus (GPa) = 53.88138 61.07385 57.47761
# Shear Modulus (GPa) = 19.65629 25.82887 22.74258
#
# Velocity S-wave (km/s) = 3.19805 3.66595 3.43997
# Velocity P-wave (km/s) = 6.45540 7.04959 6.75903
#
# Compressibility (1/GPa) = 0.01855929
#
# Stress axis : x y z
#
# Youngs Moduli (GPa) = 125.78786 48.25356 31.62619
#
# Poissons Ratio (x) = 0.02783 0.17288
# Poissons Ratio (y) = 0.07254 0.46883
# Poissons Ratio (z) = 0.68759 0.71531
#
# Static dielectric constant tensor:
#      x y z
#    x 1.775320 0.000000 0.000000 
#    y 0.000000 1.678680 0.000000 
#    z 0.000000 0.000000 1.671530 
# 
# From -- ./inp_files/54952.got.cif
#   From: 2010.05.17/outbox.cif.g08.bks.cpg/sg70_28_cif.got.tgz:54952.got - 2010.06.03 15:57:51.
