data_PCOD9516875
_publ_section_title
;
Structure prediction by ZEFSAII (Michael W. Deem and Ramdas Pophale) SiO2 
 PCOD9516875
Probable space group: F D D D
;
_chemical_formula_sum "Si O2"
_cell_formula_units_Z 80
_cell_length_a 5.146018
_cell_length_b 26.627966
_cell_length_c 22.487256
_cell_angle_alpha 90.000000
_cell_angle_beta 90.000000
_cell_angle_gamma 90.000000
_cell_volume 3081.383543
_symmetry_space_group_name_H-M "F D D D"
_symmetry_group_IT_number 70
_space_group.IT_coordinate_system_code '2'
_symmetry_cell_setting 'orthorhombic'
loop_
_space_group_symop_operation_xyz
x,y,z
1/4-x,1/4-y,z
x,1/4-y,1/4-z
1/4-x,y,1/4-z
-x,-y,-z
3/4+x,3/4+y,-z
-x,3/4+y,3/4+z
3/4+x,-y,3/4+z
x,1/2+y,1/2+z
1/4-x,3/4-y,1/2+z
x,3/4-y,3/4-z
1/4-x,1/2+y,3/4-z
-x,1/2-y,1/2-z
3/4+x,1/4+y,1/2-z
-x,1/4+y,1/4+z
3/4+x,1/2-y,1/4+z
1/2+x,y,1/2+z
3/4-x,1/4-y,1/2+z
1/2+x,1/4-y,3/4-z
3/4-x,y,3/4-z
1/2-x,-y,1/2-z
1/4+x,3/4+y,1/2-z
1/2-x,3/4+y,1/4+z
1/4+x,-y,1/4+z
1/2+x,1/2+y,z
3/4-x,3/4-y,z
1/2+x,3/4-y,1/4-z
3/4-x,1/2+y,1/4-z
1/2-x,1/2-y,-z
1/4+x,1/4+y,-z
1/2-x,1/4+y,3/4+z
1/4+x,1/2-y,3/4+z
loop_
_atom_site_type_symbol
_atom_site_label
_atom_site_fract_x
_atom_site_fract_y
_atom_site_fract_z
Si Si1 0.943595 0.433677 0.068896
Si Si2 0.127954 0.410757 0.306594
Si Si3 0.875000 0.992696 0.875000
O O1 0.875000 0.375000 0.075573
O O2 0.682419 0.467110 0.072573
O O3 0.125000 0.447727 0.125000
O O4 0.087118 0.438600 0.006427
O O5 0.375000 0.375000 0.311993
O O6 0.875000 0.375000 0.304044
O O7 0.094542 0.451989 0.357983
#
# Coordination Sequence:
#
# PCOD9516875 Si02
#       3
#    32  32  16
#     4  11  24  46  76 112 159 205 260 325 388 466
#     4  11  28  50  76 113 161 208 260 323 392 466
#     4  12  27  46  80 114 152 210 263 320 392 468
#
# _framework density 25.962364999999998
#
# number of rings (size 3 to 8) (size 9 to 14) (size 15 to 20)
#    0.000    0.800    2.000    3.000   11.200    3.200 
#    0.000    0.000    0.000    0.000    0.000    0.000 
#    0.000    0.000    0.000    0.000    0.000    0.000 
#
# Total GULP energy -111668.626612 kJ/mol
# GULP energy per Si atom -5583.431331 kJ/mol
# Density = 2.590327 g / cm^3
# Si number density = 25.962365 Si / 1000 Ang^3
#
#
#
# Elastic Constant Matrix: (Units=GPa)
#
#
# Indices 1 2 3 4 5 6 
#
# 1 171.7782 87.1558 58.0404 0.0000 0.0000 0.0000
# 2 87.1558 185.7228 51.4384 0.0000 0.0000 0.0000
# 3 58.0404 51.4384 136.9031 0.0000 0.0000 0.0000
# 4 0.0000 0.0000 0.0000 5.9474 0.0000 0.0000
# 5 0.0000 0.0000 0.0000 0.0000 44.8029 0.0000
# 6 0.0000 0.0000 0.0000 0.0000 0.0000 26.3454
#
#
#
# Elastic Compliance Matrix: (Units=1/GPa)
#
#
# Indices 1 2 3 4 5 6 
#
# 1 0.008230 -0.003232 -0.002275 0.000000 0.000000 0.000000
# 2 -0.003232 0.007279 -0.001365 0.000000 0.000000 0.000000
# 3 -0.002275 -0.001365 0.008782 0.000000 0.000000 0.000000
# 4 0.000000 0.000000 0.000000 0.168139 0.000000 0.000000
# 5 0.000000 0.000000 0.000000 0.000000 0.022320 0.000000
# 6 0.000000 0.000000 0.000000 0.000000 0.000000 0.037957
#
#
# Mechanical properties :
#
#
# Convention : Reuss Voigt Hill
#
# Bulk Modulus (GPa) = 94.80873 98.63034 96.71954
# Shear Modulus (GPa) = 18.52084 35.27045 26.89565
#
# Velocity S-wave (km/s) = 2.67380 3.68981 3.22211
# Velocity P-wave (km/s) = 6.79186 7.49834 7.15383
#
# Compressibility (1/GPa) = 0.01054755
#
# Stress axis : x y z
#
# Youngs Moduli (GPa) = 121.50775 137.37947 113.87501
#
# Poissons Ratio (x) = 0.44403 0.25903
# Poissons Ratio (y) = 0.39273 0.15541
# Poissons Ratio (z) = 0.27639 0.18748
#
# Static dielectric constant tensor:
#      x y z
#    x 2.103750 0.000000 0.000000 
#    y 0.000000 2.005790 0.000000 
#    z 0.000000 0.000000 2.081650 
# 
# From -- ./inp_files/55686.got.cif
#   From: 2010.05.17/outbox.cif.g08.bks.cpg/sg70_28_cif.got.tgz:55686.got - 2010.06.03 15:57:51.
