data_PCOD9516557
_publ_section_title
;
Structure prediction by ZEFSAII (Michael W. Deem and Ramdas Pophale) SiO2 
 PCOD9516557
Probable space group: F D D D
;
_chemical_formula_sum "Si O2"
_cell_formula_units_Z 192
_cell_length_a 19.883450
_cell_length_b 25.606638
_cell_length_c 20.555588
_cell_angle_alpha 90.000000
_cell_angle_beta 90.000000
_cell_angle_gamma 90.000000
_cell_volume 10465.842816
_symmetry_space_group_name_H-M "F D D D"
_symmetry_group_IT_number 70
_space_group.IT_coordinate_system_code '2'
_symmetry_cell_setting 'orthorhombic'
loop_
_space_group_symop_operation_xyz
x,y,z
1/4-x,1/4-y,z
x,1/4-y,1/4-z
1/4-x,y,1/4-z
-x,-y,-z
3/4+x,3/4+y,-z
-x,3/4+y,3/4+z
3/4+x,-y,3/4+z
x,1/2+y,1/2+z
1/4-x,3/4-y,1/2+z
x,3/4-y,3/4-z
1/4-x,1/2+y,3/4-z
-x,1/2-y,1/2-z
3/4+x,1/4+y,1/2-z
-x,1/4+y,1/4+z
3/4+x,1/2-y,1/4+z
1/2+x,y,1/2+z
3/4-x,1/4-y,1/2+z
1/2+x,1/4-y,3/4-z
3/4-x,y,3/4-z
1/2-x,-y,1/2-z
1/4+x,3/4+y,1/2-z
1/2-x,3/4+y,1/4+z
1/4+x,-y,1/4+z
1/2+x,1/2+y,z
3/4-x,3/4-y,z
1/2+x,3/4-y,1/4-z
3/4-x,1/2+y,1/4-z
1/2-x,1/2-y,-z
1/4+x,1/4+y,-z
1/2-x,1/4+y,3/4+z
1/4+x,1/2-y,3/4+z
loop_
_atom_site_type_symbol
_atom_site_label
_atom_site_fract_x
_atom_site_fract_y
_atom_site_fract_z
Si Si1 0.949840 0.372667 0.109188
Si Si2 0.841971 0.619502 0.806034
Si Si3 0.140776 0.487743 0.717475
Si Si4 0.575693 0.338446 0.934850
Si Si5 0.776744 0.496699 0.150311
Si Si6 0.811805 0.911809 0.998613
O O1 0.875000 0.375000 0.080293
O O2 0.962435 0.314212 0.135980
O O3 0.949788 0.408659 0.173831
O O4 0.012049 0.385888 0.063324
O O5 0.875000 0.603288 0.875000
O O6 0.862222 0.680394 0.796233
O O7 0.872924 0.589683 0.744508
O O8 0.182678 0.487722 0.784822
O O9 0.197353 0.503739 0.664635
O O10 0.083227 0.530636 0.726931
O O11 0.597514 0.375000 0.875000
O O12 0.557576 0.281982 0.906278
O O13 0.504512 0.358894 0.963253
O O14 0.875000 0.875000 0.983912
#
# Coordination Sequence:
#
# PCOD9516557 Si02
#       6
#    32  32  32  32  32  32
#     4  11  22  41  63  85 120 167 207 250 304 364
#     4  12  23  41  61  87 123 173 205 243 308 374
#     4  11  21  36  62  92 130 158 194 240 317 390
#     4  12  24  36  57  91 125 157 203 251 301 363
#     4  11  21  37  60  93 125 159 196 248 312 372
#     4  11  21  34  56  90 126 161 191 236 299 387
#
# _framework density 18.345393000000001
#
# number of rings (size 3 to 8) (size 9 to 14) (size 15 to 20)
#    0.000    0.667    8.333    2.000    0.000    1.667 
#    0.000    0.833    0.000    0.500    0.000    0.000 
#    0.000    0.000    0.000    0.000    0.000    0.000 
#
# Total GULP energy -268335.200738 kJ/mol
# GULP energy per Si atom -5590.316682 kJ/mol
# Density = 1.830364 g / cm^3
# Si number density = 18.345393 Si / 1000 Ang^3
#
#
#
# Elastic Constant Matrix: (Units=GPa)
#
#
# Indices 1 2 3 4 5 6 
#
# 1 133.6351 19.4960 70.1159 0.0000 0.0000 0.0000
# 2 19.4960 55.4390 33.2140 0.0000 0.0000 0.0000
# 3 70.1159 33.2140 110.8309 0.0000 0.0000 0.0000
# 4 0.0000 0.0000 0.0000 29.9496 0.0000 0.0000
# 5 0.0000 0.0000 0.0000 0.0000 40.6861 0.0000
# 6 0.0000 0.0000 0.0000 0.0000 0.0000 26.2062
#
#
#
# Elastic Compliance Matrix: (Units=1/GPa)
#
#
# Indices 1 2 3 4 5 6 
#
# 1 0.011207 0.000374 -0.007202 0.000000 0.000000 0.000000
# 2 0.000374 0.021998 -0.006829 0.000000 0.000000 0.000000
# 3 -0.007202 -0.006829 0.015626 0.000000 0.000000 0.000000
# 4 0.000000 0.000000 0.000000 0.033389 0.000000 0.000000
# 5 0.000000 0.000000 0.000000 0.000000 0.024578 0.000000
# 6 0.000000 0.000000 0.000000 0.000000 0.000000 0.038159
#
#
# Mechanical properties :
#
#
# Convention : Reuss Voigt Hill
#
# Bulk Modulus (GPa) = 46.47681 60.61741 53.54711
# Shear Modulus (GPa) = 27.86387 31.17365 29.51876
#
# Velocity S-wave (km/s) = 3.90147 4.12668 4.01566
# Velocity P-wave (km/s) = 6.75904 7.47128 7.12407
#
# Compressibility (1/GPa) = 0.02151611
#
# Stress axis : x y z
#
# Youngs Moduli (GPa) = 89.22648 45.45965 63.99762
#
# Poissons Ratio (x) = -0.01699 0.46093
# Poissons Ratio (y) = -0.03334 0.43702
# Poissons Ratio (z) = 0.64263 0.31043
#
# Static dielectric constant tensor:
#      x y z
#    x 1.649600 0.000000 0.000000 
#    y 0.000000 1.627250 0.000000 
#    z 0.000000 0.000000 1.660540 
# 
# From -- ./inp_files/44968.got.cif
#   From: 2010.05.17/outbox.cif.g08.bks.cpg/sg70_23_cif.got.tgz:44968.got - 2010.06.03 15:57:51.
