data_PCOD9516403
_publ_section_title
;
Structure prediction by ZEFSAII (Michael W. Deem and Ramdas Pophale) SiO2 
 PCOD9516403
Probable space group: F D D D
;
_chemical_formula_sum "Si O2"
_cell_formula_units_Z 176
_cell_length_a 11.104361
_cell_length_b 27.798108
_cell_length_c 25.007318
_cell_angle_alpha 90.000000
_cell_angle_beta 90.000000
_cell_angle_gamma 90.000000
_cell_volume 7719.264581
_symmetry_space_group_name_H-M "F D D D"
_symmetry_group_IT_number 70
_space_group.IT_coordinate_system_code '2'
_symmetry_cell_setting 'orthorhombic'
loop_
_space_group_symop_operation_xyz
x,y,z
1/4-x,1/4-y,z
x,1/4-y,1/4-z
1/4-x,y,1/4-z
-x,-y,-z
3/4+x,3/4+y,-z
-x,3/4+y,3/4+z
3/4+x,-y,3/4+z
x,1/2+y,1/2+z
1/4-x,3/4-y,1/2+z
x,3/4-y,3/4-z
1/4-x,1/2+y,3/4-z
-x,1/2-y,1/2-z
3/4+x,1/4+y,1/2-z
-x,1/4+y,1/4+z
3/4+x,1/2-y,1/4+z
1/2+x,y,1/2+z
3/4-x,1/4-y,1/2+z
1/2+x,1/4-y,3/4-z
3/4-x,y,3/4-z
1/2-x,-y,1/2-z
1/4+x,3/4+y,1/2-z
1/2-x,3/4+y,1/4+z
1/4+x,-y,1/4+z
1/2+x,1/2+y,z
3/4-x,3/4-y,z
1/2+x,3/4-y,1/4-z
3/4-x,1/2+y,1/4-z
1/2-x,1/2-y,-z
1/4+x,1/4+y,-z
1/2-x,1/4+y,3/4+z
1/4+x,1/2-y,3/4+z
loop_
_atom_site_type_symbol
_atom_site_label
_atom_site_fract_x
_atom_site_fract_y
_atom_site_fract_z
Si Si1 0.961345 0.084548 0.790719
Si Si2 0.534556 0.502205 0.279479
Si Si3 0.875000 0.811892 0.875000
Si Si4 0.201281 0.080505 0.238615
Si Si5 0.164798 0.510393 0.892811
Si Si6 0.687685 0.441546 0.683425
O O1 0.821581 0.081260 0.773344
O O2 0.987033 0.141016 0.794583
O O3 0.007828 0.059034 0.845116
O O4 0.008532 0.048619 0.744111
O O5 0.635492 0.529900 0.245961
O O6 0.602056 0.499880 0.336177
O O7 0.419898 0.536787 0.282262
O O8 0.948632 0.836848 0.825941
O O9 0.765668 0.780264 0.849881
O O10 0.125000 0.125000 0.260687
O O11 0.045534 0.520217 0.928021
O O12 0.625000 0.432832 0.625000
#
# Coordination Sequence:
#
# PCOD9516403 Si02
#       6
#    32  32  16  32  32  32
#     4  12  23  41  69  96 136 181 228 291 356 421
#     4  11  23  43  66  97 137 181 226 287 359 419
#     4  12  23  44  66 100 138 182 230 288 355 420
#     4  12  24  41  67  98 135 178 230 291 347 418
#     4  11  24  41  67 100 138 176 232 288 352 417
#     4  10  25  43  66 103 139 181 231 298 349 419
#
# _framework density 22.8001
#
# number of rings (size 3 to 8) (size 9 to 14) (size 15 to 20)
#    0.000    0.727    5.455    2.455    3.818    0.727 
#    0.000    0.000    0.000    0.000    0.000    0.000 
#    0.000    0.000    0.000    0.000    0.000    0.000 
#
# Total GULP energy -245111.154824 kJ/mol
# GULP energy per Si atom -5570.708064 kJ/mol
# Density = 2.274821 g / cm^3
# Si number density = 22.800100 Si / 1000 Ang^3
#
#
#
# Elastic Constant Matrix: (Units=GPa)
#
#
# Indices 1 2 3 4 5 6 
#
# 1 94.9152 16.2515 21.3763 0.0000 0.0000 0.0000
# 2 16.2515 83.9204 16.2317 0.0000 0.0000 0.0000
# 3 21.3763 16.2317 78.4985 0.0000 0.0000 0.0000
# 4 0.0000 0.0000 0.0000 26.4291 0.0000 0.0000
# 5 0.0000 0.0000 0.0000 0.0000 32.2741 0.0000
# 6 0.0000 0.0000 0.0000 0.0000 0.0000 29.2398
#
#
#
# Elastic Compliance Matrix: (Units=1/GPa)
#
#
# Indices 1 2 3 4 5 6 
#
# 1 0.011447 -0.001681 -0.002770 0.000000 0.000000 0.000000
# 2 -0.001681 0.012659 -0.002160 0.000000 0.000000 0.000000
# 3 -0.002770 -0.002160 0.013940 0.000000 0.000000 0.000000
# 4 0.000000 0.000000 0.000000 0.037837 0.000000 0.000000
# 5 0.000000 0.000000 0.000000 0.000000 0.030985 0.000000
# 6 0.000000 0.000000 0.000000 0.000000 0.000000 0.034200
#
#
# Mechanical properties :
#
#
# Convention : Reuss Voigt Hill
#
# Bulk Modulus (GPa) = 40.28146 40.56147 40.42146
# Shear Modulus (GPa) = 30.75698 31.15357 30.95528
#
# Velocity S-wave (km/s) = 3.67684 3.70047 3.68867
# Velocity P-wave (km/s) = 5.97755 6.00721 5.99240
#
# Compressibility (1/GPa) = 0.02482532
#
# Stress axis : x y z
#
# Youngs Moduli (GPa) = 87.35661 78.99286 71.73637
#
# Poissons Ratio (x) = 0.13280 0.19869
# Poissons Ratio (y) = 0.14686 0.15494
# Poissons Ratio (z) = 0.24195 0.17061
#
# Static dielectric constant tensor:
#      x y z
#    x 1.858770 0.000000 0.000000 
#    y 0.000000 1.891560 0.000000 
#    z 0.000000 0.000000 1.938470 
# 
# From -- ./inp_files/57613.got.cif
#   From: 2010.05.17/outbox.cif.g08.bks.cpg/sg70_29_cif.got.tgz:57613.got - 2010.06.03 15:57:51.
