data_PCOD9516952
_publ_section_title
;
Structure prediction by ZEFSAII (Michael W. Deem and Ramdas Pophale) SiO2 
 PCOD9516952
Probable space group: F D D D
;
_chemical_formula_sum "Si O2"
_cell_formula_units_Z 96
_cell_length_a 12.112782
_cell_length_b 10.438137
_cell_length_c 27.562125
_cell_angle_alpha 90.000000
_cell_angle_beta 90.000000
_cell_angle_gamma 90.000000
_cell_volume 3484.813911
_symmetry_space_group_name_H-M "F D D D"
_symmetry_group_IT_number 70
_space_group.IT_coordinate_system_code '2'
_symmetry_cell_setting 'orthorhombic'
loop_
_space_group_symop_operation_xyz
x,y,z
1/4-x,1/4-y,z
x,1/4-y,1/4-z
1/4-x,y,1/4-z
-x,-y,-z
3/4+x,3/4+y,-z
-x,3/4+y,3/4+z
3/4+x,-y,3/4+z
x,1/2+y,1/2+z
1/4-x,3/4-y,1/2+z
x,3/4-y,3/4-z
1/4-x,1/2+y,3/4-z
-x,1/2-y,1/2-z
3/4+x,1/4+y,1/2-z
-x,1/4+y,1/4+z
3/4+x,1/2-y,1/4+z
1/2+x,y,1/2+z
3/4-x,1/4-y,1/2+z
1/2+x,1/4-y,3/4-z
3/4-x,y,3/4-z
1/2-x,-y,1/2-z
1/4+x,3/4+y,1/2-z
1/2-x,3/4+y,1/4+z
1/4+x,-y,1/4+z
1/2+x,1/2+y,z
3/4-x,3/4-y,z
1/2+x,3/4-y,1/4-z
3/4-x,1/2+y,1/4-z
1/2-x,1/2-y,-z
1/4+x,1/4+y,-z
1/2-x,1/4+y,3/4+z
1/4+x,1/2-y,3/4+z
loop_
_atom_site_type_symbol
_atom_site_label
_atom_site_fract_x
_atom_site_fract_y
_atom_site_fract_z
Si Si1 0.064643 0.854014 0.552398
Si Si2 0.687395 0.343523 0.462460
Si Si3 0.518450 0.233548 0.390064
O O1 0.085483 0.889939 0.496448
O O2 0.178935 0.903966 0.578301
O O3 0.978035 0.920321 0.587459
O O4 0.021098 0.706430 0.552231
O O5 0.750000 0.250000 0.500000
O O6 0.631261 0.263729 0.419143
O O7 0.482092 0.375000 0.375000
#
# Coordination Sequence:
#
# PCOD9516952 Si02
#       3
#    32  32  32
#     4  11  25  51  87 121 182 239 296 386 461 548
#     4  12  27  50  89 131 181 239 313 382 469 565
#     4  11  28  54  84 131 185 241 311 380 471 569
#
# _framework density 27.548098
#
# number of rings (size 3 to 8) (size 9 to 14) (size 15 to 20)
#    0.000    0.667    3.333    3.000    0.000   10.667 
#    6.000    6.667    0.000    0.000    0.000    0.000 
#    0.000    0.000    0.000    0.000    0.000    0.000 
#
# Total GULP energy -134110.696761 kJ/mol
# GULP energy per Si atom -5587.945698 kJ/mol
# Density = 2.748540 g / cm^3
# Si number density = 27.548098 Si / 1000 Ang^3
#
#
#
# Elastic Constant Matrix: (Units=GPa)
#
#
# Indices 1 2 3 4 5 6 
#
# 1 197.0510 114.5878 58.7136 0.0000 0.0000 0.0000
# 2 114.5878 239.1661 88.3355 0.0000 0.0000 0.0000
# 3 58.7136 88.3355 175.2568 0.0000 0.0000 0.0000
# 4 0.0000 0.0000 0.0000 80.8047 0.0000 0.0000
# 5 0.0000 0.0000 0.0000 0.0000 53.7608 0.0000
# 6 0.0000 0.0000 0.0000 0.0000 0.0000 76.3345
#
#
#
# Elastic Compliance Matrix: (Units=1/GPa)
#
#
# Indices 1 2 3 4 5 6 
#
# 1 0.007129 -0.003113 -0.000819 0.000000 0.000000 0.000000
# 2 -0.003113 0.006497 -0.002232 0.000000 0.000000 0.000000
# 3 -0.000819 -0.002232 0.007105 0.000000 0.000000 0.000000
# 4 0.000000 0.000000 0.000000 0.012376 0.000000 0.000000
# 5 0.000000 0.000000 0.000000 0.000000 0.018601 0.000000
# 6 0.000000 0.000000 0.000000 0.000000 0.000000 0.013100
#
#
# Mechanical properties :
#
#
# Convention : Reuss Voigt Hill
#
# Bulk Modulus (GPa) = 119.00245 126.08307 122.54276
# Shear Modulus (GPa) = 62.54869 65.50248 64.02558
#
# Velocity S-wave (km/s) = 4.77017 4.88151 4.82616
# Velocity P-wave (km/s) = 8.58087 8.81135 8.69687
#
# Compressibility (1/GPa) = 0.00840319
#
# Stress axis : x y z
#
# Youngs Moduli (GPa) = 140.26684 153.91615 140.74028
#
# Poissons Ratio (x) = 0.47916 0.11531
# Poissons Ratio (y) = 0.43667 0.31410
# Poissons Ratio (z) = 0.11492 0.34351
#
# Static dielectric constant tensor:
#      x y z
#    x 2.365900 0.000000 0.000000 
#    y 0.000000 2.816530 0.000000 
#    z 0.000000 0.000000 2.122670 
# 
# From -- ./inp_files/60007.got.cif
#   From: 2010.05.17/outbox.cif.g08.bks.cpg/sg70_31_cif.got.tgz:60007.got - 2010.06.03 15:57:51.
