data_PCOD9516698
_publ_section_title
;
Structure prediction by ZEFSAII (Michael W. Deem and Ramdas Pophale) SiO2 
 PCOD9516698
Probable space group: F D D D
;
_chemical_formula_sum "Si O2"
_cell_formula_units_Z 72
_cell_length_a 24.308577
_cell_length_b 4.785606
_cell_length_c 22.619563
_cell_angle_alpha 90.000000
_cell_angle_beta 90.000000
_cell_angle_gamma 90.000000
_cell_volume 2631.362535
_symmetry_space_group_name_H-M "F D D D"
_symmetry_group_IT_number 70
_space_group.IT_coordinate_system_code '2'
_symmetry_cell_setting 'orthorhombic'
loop_
_space_group_symop_operation_xyz
x,y,z
1/4-x,1/4-y,z
x,1/4-y,1/4-z
1/4-x,y,1/4-z
-x,-y,-z
3/4+x,3/4+y,-z
-x,3/4+y,3/4+z
3/4+x,-y,3/4+z
x,1/2+y,1/2+z
1/4-x,3/4-y,1/2+z
x,3/4-y,3/4-z
1/4-x,1/2+y,3/4-z
-x,1/2-y,1/2-z
3/4+x,1/4+y,1/2-z
-x,1/4+y,1/4+z
3/4+x,1/2-y,1/4+z
1/2+x,y,1/2+z
3/4-x,1/4-y,1/2+z
1/2+x,1/4-y,3/4-z
3/4-x,y,3/4-z
1/2-x,-y,1/2-z
1/4+x,3/4+y,1/2-z
1/2-x,3/4+y,1/4+z
1/4+x,-y,1/4+z
1/2+x,1/2+y,z
3/4-x,3/4-y,z
1/2+x,3/4-y,1/4-z
3/4-x,1/2+y,1/4-z
1/2-x,1/2-y,-z
1/4+x,1/4+y,-z
1/2-x,1/4+y,3/4+z
1/4+x,1/2-y,3/4+z
loop_
_atom_site_type_symbol
_atom_site_label
_atom_site_fract_x
_atom_site_fract_y
_atom_site_fract_z
Si Si1 0.625000 0.625000 0.625000
Si Si2 0.952802 0.352078 0.164595
Si Si3 0.705856 0.802555 0.214999
O O1 0.664366 0.447574 0.669327
O O2 0.963279 0.625000 0.125000
O O3 0.927905 0.425508 0.227268
O O4 0.008803 0.188292 0.183152
O O5 0.920869 0.125000 0.125000
O O6 0.750000 0.000000 0.250000
#
# Coordination Sequence:
#
# PCOD9516698 Si02
#       3
#     8  32  32
#     4  12  28  56  88 148 170 244 322 350 466 578
#     4  11  22  45  87 115 167 247 280 364 471 513
#     4  11  24  47  86 124 180 228 293 383 448 530
#
# _framework density 27.362251000000001
#
# number of rings (size 3 to 8) (size 9 to 14) (size 15 to 20)
#    0.000    0.889    4.444    2.667    0.000    0.000 
#    0.000   28.889    9.778    0.000    0.000    0.000 
#    0.000    0.000    0.000    0.000    0.000    0.000 
#
# Total GULP energy -100821.852806 kJ/mol
# GULP energy per Si atom -5601.214045 kJ/mol
# Density = 2.729997 g / cm^3
# Si number density = 27.362251 Si / 1000 Ang^3
#
#
#
# Elastic Constant Matrix: (Units=GPa)
#
#
# Indices 1 2 3 4 5 6 
#
# 1 207.5449 104.4855 111.4666 0.0000 -0.0009 -0.0046
# 2 104.4855 221.3374 126.9806 0.0004 -0.0055 -0.0285
# 3 111.4666 126.9806 334.9543 0.0010 -0.0007 -0.0046
# 4 0.0000 0.0004 0.0010 87.7272 -0.0015 -0.0074
# 5 -0.0009 -0.0055 -0.0007 -0.0015 28.5360 -0.0007
# 6 -0.0046 -0.0285 -0.0046 -0.0074 -0.0007 -12.9419
#
#
#
# Elastic Compliance Matrix: (Units=1/GPa)
#
#
# Indices 1 2 3 4 5 6 
#
# 1 0.006753 -0.002426 -0.001327 0.000000 0.000000 0.000003
# 2 -0.002426 0.006645 -0.001712 0.000000 0.000001 -0.000013
# 3 -0.001327 -0.001712 0.004076 0.000000 0.000000 0.000003
# 4 0.000000 0.000000 0.000000 0.011399 0.000001 -0.000006
# 5 0.000000 0.000001 0.000000 0.000001 0.035043 -0.000002
# 6 0.000003 -0.000013 0.000003 -0.000006 -0.000002 -0.077269
#
#
# Mechanical properties :
#
#
# Convention : Reuss Voigt Hill
#
# Bulk Modulus (GPa) = 152.82751 161.07801 156.95276
# Shear Modulus (GPa) = -20804.52019 48.72453 -10377.89783
#
# Velocity S-wave (km/s) = -87.29188 4.22444 -61.65236
# Velocity P-wave (km/s) = 100.51793 9.09896 70.78511
#
# Compressibility (1/GPa) = 0.00654332
#
# Stress axis : x y z
#
# Youngs Moduli (GPa) = 148.09274 150.48070 245.32757
#
# Poissons Ratio (x) = 0.36508 0.32564
# Poissons Ratio (y) = 0.35929 0.41997
# Poissons Ratio (z) = 0.19658 0.25761
#
# Static dielectric constant tensor:
#      x y z
#    x 2.238110 0.000000 0.000000 
#    y 0.000000 2.279130 -0.000010 
#    z 0.000000 -0.000010 2.149720 
# 
# From -- ./inp_files/54531.got.cif
#   From: 2010.05.17/outbox.cif.g08.bks.cpg/sg70_28_cif.got.tgz:54531.got - 2010.06.03 15:57:51.
