data_PCOD9516452
_publ_section_title
;
Structure prediction by ZEFSAII (Michael W. Deem and Ramdas Pophale) SiO2 
 PCOD9516452
Probable space group: F D D D
;
_chemical_formula_sum "Si O2"
_cell_formula_units_Z 208
_cell_length_a 17.357772
_cell_length_b 26.175650
_cell_length_c 21.250165
_cell_angle_alpha 90.000000
_cell_angle_beta 90.000000
_cell_angle_gamma 90.000000
_cell_volume 9655.032967
_symmetry_space_group_name_H-M "F D D D"
_symmetry_group_IT_number 70
_space_group.IT_coordinate_system_code '2'
_symmetry_cell_setting 'orthorhombic'
loop_
_space_group_symop_operation_xyz
x,y,z
1/4-x,1/4-y,z
x,1/4-y,1/4-z
1/4-x,y,1/4-z
-x,-y,-z
3/4+x,3/4+y,-z
-x,3/4+y,3/4+z
3/4+x,-y,3/4+z
x,1/2+y,1/2+z
1/4-x,3/4-y,1/2+z
x,3/4-y,3/4-z
1/4-x,1/2+y,3/4-z
-x,1/2-y,1/2-z
3/4+x,1/4+y,1/2-z
-x,1/4+y,1/4+z
3/4+x,1/2-y,1/4+z
1/2+x,y,1/2+z
3/4-x,1/4-y,1/2+z
1/2+x,1/4-y,3/4-z
3/4-x,y,3/4-z
1/2-x,-y,1/2-z
1/4+x,3/4+y,1/2-z
1/2-x,3/4+y,1/4+z
1/4+x,-y,1/4+z
1/2+x,1/2+y,z
3/4-x,3/4-y,z
1/2+x,3/4-y,1/4-z
3/4-x,1/2+y,1/4-z
1/2-x,1/2-y,-z
1/4+x,1/4+y,-z
1/2-x,1/4+y,3/4+z
1/4+x,1/2-y,3/4+z
loop_
_atom_site_type_symbol
_atom_site_label
_atom_site_fract_x
_atom_site_fract_y
_atom_site_fract_z
Si Si1 0.238269 0.125000 0.125000
Si Si2 0.808165 0.598586 0.419672
Si Si3 0.801306 0.944160 0.185900
Si Si4 0.886963 0.188247 0.202224
Si Si5 0.516604 0.875000 0.875000
Si Si6 0.070757 0.197364 0.332333
Si Si7 0.125000 0.625000 0.725310
Si Si8 0.319280 0.963353 0.817604
O O1 0.292877 0.093222 0.171201
O O2 0.182873 0.153029 0.176160
O O3 0.875000 0.620979 0.375000
O O4 0.752304 0.644261 0.442174
O O5 0.854357 0.573293 0.477976
O O6 0.754707 0.562035 0.375604
O O7 0.856253 0.936206 0.127122
O O8 0.852058 0.958983 0.247182
O O9 0.745014 0.992722 0.179796
O O10 0.817002 0.168210 0.158786
O O11 0.914047 0.245960 0.193060
O O12 0.465418 0.907290 0.922030
O O13 0.076438 0.160600 0.272119
O O14 0.375000 0.973608 0.875000
#
# Coordination Sequence:
#
# PCOD9516452 Si02
#       8
#    16  32  32  32  16  32  16  32
#     4  10  26  47  73  98 140 194 230 300 348 430
#     4  12  26  45  72 103 139 181 236 299 353 423
#     4  11  24  45  67 105 142 183 233 287 364 418
#     4  11  26  46  69 100 142 184 238 286 359 422
#     4  11  21  43  63  99 137 186 224 286 346 426
#     4  12  26  45  72 104 143 185 234 298 358 426
#     4  11  24  48  72 102 139 182 246 290 363 422
#     4  11  24  40  70 102 143 186 233 284 352 434
#
# _framework density 21.543168999999999
#
# number of rings (size 3 to 8) (size 9 to 14) (size 15 to 20)
#    0.000    0.769    4.615    1.615    4.308    3.692 
#    0.000    0.000    0.000    0.000    0.000    0.000 
#    0.000    0.000    0.000    0.000    0.000    0.000 
#
# Total GULP energy -290052.449483 kJ/mol
# GULP energy per Si atom -5577.931721 kJ/mol
# Density = 2.149414 g / cm^3
# Si number density = 21.543169 Si / 1000 Ang^3
#
#
#
# Elastic Constant Matrix: (Units=GPa)
#
#
# Indices 1 2 3 4 5 6 
#
# 1 78.6369 23.4650 75.1658 0.0000 0.0000 0.0000
# 2 23.4650 97.7246 43.2436 0.0000 0.0000 0.0000
# 3 75.1658 43.2436 177.7404 0.0000 0.0000 0.0000
# 4 0.0000 0.0000 0.0000 16.4725 0.0000 0.0000
# 5 0.0000 0.0000 0.0000 0.0000-1632.4142 0.0000
# 6 0.0000 0.0000 0.0000 0.0000 0.0000 44.2598
#
#
#
# Elastic Compliance Matrix: (Units=1/GPa)
#
#
# Indices 1 2 3 4 5 6 
#
# 1 0.021486 -0.001276 -0.008776 0.000000 0.000000 0.000000
# 2 -0.001276 0.011543 -0.002269 0.000000 0.000000 0.000000
# 3 -0.008776 -0.002269 0.009890 0.000000 0.000000 0.000000
# 4 0.000000 0.000000 0.000000 0.060707 0.000000 0.000000
# 5 0.000000 0.000000 0.000000 0.000000 -0.000613 0.000000
# 6 0.000000 0.000000 0.000000 0.000000 0.000000 0.022594
#
#
# Mechanical properties :
#
#
# Convention : Reuss Voigt Hill
#
# Bulk Modulus (GPa) = 54.71209 70.87231 62.79220
# Shear Modulus (GPa) = 31.98146 -300.18788 -134.10321
#
# Velocity S-wave (km/s) = 3.85714 -11.81715 -7.89834
# Velocity P-wave (km/s) = 6.72966 12.37837 7.34628
#
# Compressibility (1/GPa) = 0.01827750
#
# Stress axis : x y z
#
# Youngs Moduli (GPa) = 46.54212 86.63138 101.11704
#
# Poissons Ratio (x) = 0.11051 0.88740
# Poissons Ratio (y) = 0.05937 0.22943
# Poissons Ratio (z) = 0.40845 0.19656
#
# Static dielectric constant tensor:
#      x y z
#    x 1.806500 0.000000 0.000000 
#    y 0.000000 1.773940 0.000000 
#    z 0.000000 0.000000 1.825180 
# 
# From -- ./inp_files/43970.got.cif
#   From: 2010.05.17/outbox.cif.g08.bks.cpg/sg70_22_cif.got.tgz:43970.got - 2010.06.03 15:57:51.
