data_PCOD9516226
_publ_section_title
;
Structure prediction by ZEFSAII (Michael W. Deem and Ramdas Pophale) SiO2 
 PCOD9516226
Probable space group: F D D D
;
_chemical_formula_sum "Si O2"
_cell_formula_units_Z 80
_cell_length_a 21.434985
_cell_length_b 27.916697
_cell_length_c 5.137921
_cell_angle_alpha 90.000000
_cell_angle_beta 90.000000
_cell_angle_gamma 90.000000
_cell_volume 3074.501004
_symmetry_space_group_name_H-M "F D D D"
_symmetry_group_IT_number 70
_space_group.IT_coordinate_system_code '2'
_symmetry_cell_setting 'orthorhombic'
loop_
_space_group_symop_operation_xyz
x,y,z
1/4-x,1/4-y,z
x,1/4-y,1/4-z
1/4-x,y,1/4-z
-x,-y,-z
3/4+x,3/4+y,-z
-x,3/4+y,3/4+z
3/4+x,-y,3/4+z
x,1/2+y,1/2+z
1/4-x,3/4-y,1/2+z
x,3/4-y,3/4-z
1/4-x,1/2+y,3/4-z
-x,1/2-y,1/2-z
3/4+x,1/4+y,1/2-z
-x,1/4+y,1/4+z
3/4+x,1/2-y,1/4+z
1/2+x,y,1/2+z
3/4-x,1/4-y,1/2+z
1/2+x,1/4-y,3/4-z
3/4-x,y,3/4-z
1/2-x,-y,1/2-z
1/4+x,3/4+y,1/2-z
1/2-x,3/4+y,1/4+z
1/4+x,-y,1/4+z
1/2+x,1/2+y,z
3/4-x,3/4-y,z
1/2+x,3/4-y,1/4-z
3/4-x,1/2+y,1/4-z
1/2-x,1/2-y,-z
1/4+x,1/4+y,-z
1/2-x,1/4+y,3/4+z
1/4+x,1/2-y,3/4+z
loop_
_atom_site_type_symbol
_atom_site_label
_atom_site_fract_x
_atom_site_fract_y
_atom_site_fract_z
Si Si1 0.941523 0.730563 0.019200
Si Si2 0.699903 0.569883 0.637376
Si Si3 0.875000 0.157563 0.875000
O O1 0.954144 0.783326 0.122056
O O2 0.926403 0.693305 0.258060
O O3 0.006911 0.707528 0.924107
O O4 0.875000 0.729855 0.875000
O O5 0.720284 0.625000 0.625000
O O6 0.625000 0.571570 0.625000
O O7 0.855943 0.125000 0.625000
#
# Coordination Sequence:
#
# PCOD9516226 Si02
#       3
#    32  32  16
#     4  11  24  46  78 112 152 210 271 324 386 480
#     4  10  23  47  72 111 163 203 262 323 410 467
#     4  12  24  44  77 118 149 198 266 328 378 452
#
# _framework density 26.020484
#
# number of rings (size 3 to 8) (size 9 to 14) (size 15 to 20)
#    0.000    1.200    4.000    1.200    0.000    1.600 
#    0.000    4.000    4.400    0.000    0.000    0.000 
#    0.000    0.000    0.000    0.000    0.000    0.000 
#
# Total GULP energy -111430.223779 kJ/mol
# GULP energy per Si atom -5571.511189 kJ/mol
# Density = 2.596126 g / cm^3
# Si number density = 26.020484 Si / 1000 Ang^3
#
#
#
# Elastic Constant Matrix: (Units=GPa)
#
#
# Indices 1 2 3 4 5 6 
#
# 1 195.9688 98.1795 46.0990 0.2956 -0.0994 -0.1196
# 2 98.1795 239.4945 81.6585 0.1059 -0.0200 -0.0375
# 3 46.0990 81.6585 134.4095 0.2861 -0.0349 -0.1235
# 4 0.2956 0.1059 0.2861 -165.8290 -0.2963 -0.6171
# 5 -0.0994 -0.0200 -0.0349 -0.2963 31.7306 0.1605
# 6 -0.1196 -0.0375 -0.1235 -0.6171 0.1605 116.7008
#
#
#
# Elastic Compliance Matrix: (Units=1/GPa)
#
#
# Indices 1 2 3 4 5 6 
#
# 1 0.006484 -0.002396 -0.000768 0.000009 0.000018 0.000005
# 2 -0.002396 0.006152 -0.002916 -0.000005 -0.000007 -0.000004
# 3 -0.000768 -0.002916 0.009475 0.000013 0.000006 0.000008
# 4 0.000009 -0.000005 0.000013 -0.006030 -0.000056 -0.000032
# 5 0.000018 -0.000007 0.000006 -0.000056 0.031515 -0.000044
# 6 0.000005 -0.000004 0.000008 -0.000032 -0.000044 0.008569
#
#
# Mechanical properties :
#
#
# Convention : Reuss Voigt Hill
#
# Bulk Modulus (GPa) = 100.49479 113.52741 107.01110
# Shear Modulus (GPa) = 69.79212 19.44953 44.62083
#
# Velocity S-wave (km/s) = 5.18461 2.73696 4.14555
# Velocity P-wave (km/s) = 8.63398 7.32889 8.00806
#
# Compressibility (1/GPa) = 0.00995076
#
# Stress axis : x y z
#
# Youngs Moduli (GPa) = 154.22526 162.55145 105.54400
#
# Poissons Ratio (x) = 0.38951 0.08107
# Poissons Ratio (y) = 0.36956 0.30773
# Poissons Ratio (z) = 0.11846 0.47394
#
# Static dielectric constant tensor:
#      x y z
#    x 2.343410 -0.000050 0.000040 
#    y -0.000050 2.037360 -0.000040 
#    z 0.000040 -0.000040 2.192740 
# 
# From -- ./inp_files/2429.got.cif
#   From: 2010.05.17/outbox.cif.g08.bks.cpg/sg70_2_cif.got.tgz:2429.got - 2010.06.03 15:57:51.
