data_PCOD9516950
_publ_section_title
;
Structure prediction by ZEFSAII (Michael W. Deem and Ramdas Pophale) SiO2 
 PCOD9516950
Probable space group: F D D D
;
_chemical_formula_sum "Si O2"
_cell_formula_units_Z 112
_cell_length_a 11.180611
_cell_length_b 18.431361
_cell_length_c 24.287973
_cell_angle_alpha 90.000000
_cell_angle_beta 90.000000
_cell_angle_gamma 90.000000
_cell_volume 5005.116774
_symmetry_space_group_name_H-M "F D D D"
_symmetry_group_IT_number 70
_space_group.IT_coordinate_system_code '2'
_symmetry_cell_setting 'orthorhombic'
loop_
_space_group_symop_operation_xyz
x,y,z
1/4-x,1/4-y,z
x,1/4-y,1/4-z
1/4-x,y,1/4-z
-x,-y,-z
3/4+x,3/4+y,-z
-x,3/4+y,3/4+z
3/4+x,-y,3/4+z
x,1/2+y,1/2+z
1/4-x,3/4-y,1/2+z
x,3/4-y,3/4-z
1/4-x,1/2+y,3/4-z
-x,1/2-y,1/2-z
3/4+x,1/4+y,1/2-z
-x,1/4+y,1/4+z
3/4+x,1/2-y,1/4+z
1/2+x,y,1/2+z
3/4-x,1/4-y,1/2+z
1/2+x,1/4-y,3/4-z
3/4-x,y,3/4-z
1/2-x,-y,1/2-z
1/4+x,3/4+y,1/2-z
1/2-x,3/4+y,1/4+z
1/4+x,-y,1/4+z
1/2+x,1/2+y,z
3/4-x,3/4-y,z
1/2+x,3/4-y,1/4-z
3/4-x,1/2+y,1/4-z
1/2-x,1/2-y,-z
1/4+x,1/4+y,-z
1/2-x,1/4+y,3/4+z
1/4+x,1/2-y,3/4+z
loop_
_atom_site_type_symbol
_atom_site_label
_atom_site_fract_x
_atom_site_fract_y
_atom_site_fract_z
Si Si1 0.685782 0.011027 0.808746
Si Si2 0.553582 0.842120 0.572628
Si Si3 0.629745 0.375000 0.875000
Si Si4 0.000922 0.584432 0.014040
O O1 0.546019 0.034676 0.802323
O O2 0.741360 0.081827 0.837959
O O3 0.750000 0.000000 0.750000
O O4 0.693783 0.940046 0.846624
O O5 0.625000 0.812514 0.625000
O O6 0.645725 0.863148 0.524924
O O7 0.712179 0.344151 0.923287
O O8 0.125000 0.625000 0.003172
O O9 0.000000 0.500000 0.000000
#
# Coordination Sequence:
#
# PCOD9516950 Si02
#       4
#    32  32  16  32
#     4  11  25  50  77 112 155 207 260 327 399 479
#     4  11  26  47  76 109 161 201 264 323 400 475
#     4  12  25  48  79 112 152 201 267 320 392 486
#     4  12  27  46  79 114 156 208 266 331 407 476
#
# _framework density 22.377099999999999
#
# number of rings (size 3 to 8) (size 9 to 14) (size 15 to 20)
#    0.000    0.571    2.857    3.857    8.000    0.000 
#    0.000    1.429    0.000    0.000    0.000    0.000 
#    0.000    0.000    0.000    0.000    0.000    0.000 
#
# Total GULP energy -156688.953046 kJ/mol
# GULP energy per Si atom -5596.034037 kJ/mol
# Density = 2.232617 g / cm^3
# Si number density = 22.377100 Si / 1000 Ang^3
#
#
#
# Elastic Constant Matrix: (Units=GPa)
#
#
# Indices 1 2 3 4 5 6 
#
# 1 134.5278 54.2934 80.8430 0.0000 0.0000 0.0000
# 2 54.2934 165.6300 46.8184 0.0000 0.0000 0.0000
# 3 80.8430 46.8184 152.2371 0.0000 0.0000 0.0000
# 4 0.0000 0.0000 0.0000 44.7930 0.0000 0.0000
# 5 0.0000 0.0000 0.0000 0.0000 45.1800 0.0000
# 6 0.0000 0.0000 0.0000 0.0000 0.0000 40.5052
#
#
#
# Elastic Compliance Matrix: (Units=1/GPa)
#
#
# Indices 1 2 3 4 5 6 
#
# 1 0.011646 -0.002266 -0.005487 0.000000 0.000000 0.000000
# 2 -0.002266 0.007053 -0.000966 0.000000 0.000000 0.000000
# 3 -0.005487 -0.000966 0.009780 0.000000 0.000000 0.000000
# 4 0.000000 0.000000 0.000000 0.022325 0.000000 0.000000
# 5 0.000000 0.000000 0.000000 0.000000 0.022134 0.000000
# 6 0.000000 0.000000 0.000000 0.000000 0.000000 0.024688
#
#
# Mechanical properties :
#
#
# Convention : Reuss Voigt Hill
#
# Bulk Modulus (GPa) = 90.57886 90.70051 90.63968
# Shear Modulus (GPa) = 42.10748 44.12499 43.11623
#
# Velocity S-wave (km/s) = 4.34259 4.44540 4.39430
# Velocity P-wave (km/s) = 8.10619 8.18349 8.14493
#
# Compressibility (1/GPa) = 0.01104010
#
# Stress axis : x y z
#
# Youngs Moduli (GPa) = 85.86981 141.77507 102.25402
#
# Poissons Ratio (x) = 0.32131 0.56109
# Poissons Ratio (y) = 0.19461 0.09874
# Poissons Ratio (z) = 0.47118 0.13691
#
# Static dielectric constant tensor:
#      x y z
#    x 1.886230 0.000000 0.000000 
#    y 0.000000 1.837040 0.000000 
#    z 0.000000 0.000000 1.809290 
# 
# From -- ./inp_files/16242.got.cif
#   From: 2010.05.17/outbox.cif.g08.bks.cpg/sg70_9_cif.got.tgz:16242.got - 2010.06.03 15:57:51.
