data_PCOD9516892
_publ_section_title
;
Structure prediction by ZEFSAII (Michael W. Deem and Ramdas Pophale) SiO2 
 PCOD9516892
Probable space group: F D D D
;
_chemical_formula_sum "Si O2"
_cell_formula_units_Z 112
_cell_length_a 18.105111
_cell_length_b 23.984762
_cell_length_c 11.348653
_cell_angle_alpha 90.000000
_cell_angle_beta 90.000000
_cell_angle_gamma 90.000000
_cell_volume 4928.116004
_symmetry_space_group_name_H-M "F D D D"
_symmetry_group_IT_number 70
_space_group.IT_coordinate_system_code '2'
_symmetry_cell_setting 'orthorhombic'
loop_
_space_group_symop_operation_xyz
x,y,z
1/4-x,1/4-y,z
x,1/4-y,1/4-z
1/4-x,y,1/4-z
-x,-y,-z
3/4+x,3/4+y,-z
-x,3/4+y,3/4+z
3/4+x,-y,3/4+z
x,1/2+y,1/2+z
1/4-x,3/4-y,1/2+z
x,3/4-y,3/4-z
1/4-x,1/2+y,3/4-z
-x,1/2-y,1/2-z
3/4+x,1/4+y,1/2-z
-x,1/4+y,1/4+z
3/4+x,1/2-y,1/4+z
1/2+x,y,1/2+z
3/4-x,1/4-y,1/2+z
1/2+x,1/4-y,3/4-z
3/4-x,y,3/4-z
1/2-x,-y,1/2-z
1/4+x,3/4+y,1/2-z
1/2-x,3/4+y,1/4+z
1/4+x,-y,1/4+z
1/2+x,1/2+y,z
3/4-x,3/4-y,z
1/2+x,3/4-y,1/4-z
3/4-x,1/2+y,1/4-z
1/2-x,1/2-y,-z
1/4+x,1/4+y,-z
1/2-x,1/4+y,3/4+z
1/4+x,1/2-y,3/4+z
loop_
_atom_site_type_symbol
_atom_site_label
_atom_site_fract_x
_atom_site_fract_y
_atom_site_fract_z
Si Si1 0.312190 0.625000 0.625000
Si Si2 0.297752 0.434267 0.437068
Si Si3 0.110633 0.468393 0.758124
Si Si4 0.187532 0.584152 0.789556
O O1 0.361858 0.570329 0.634183
O O2 0.259879 0.611762 0.735139
O O3 0.277601 0.375000 0.375000
O O4 0.375000 0.454011 0.375000
O O5 0.226185 0.474894 0.456424
O O6 0.313161 0.418101 0.570883
O O7 0.125000 0.443956 0.625000
O O8 0.162803 0.522524 0.751666
O O9 0.125000 0.625000 0.748667
#
# Coordination Sequence:
#
# PCOD9516892 Si02
#       4
#    16  32  32  32
#     4  12  25  44  75 116 144 200 258 326 393 464
#     4  11  24  49  72 107 155 198 256 325 382 467
#     4  12  26  47  79 113 155 201 265 326 390 483
#     4  12  26  46  77 108 154 198 256 321 396 466
#
# _framework density 22.726737
#
# number of rings (size 3 to 8) (size 9 to 14) (size 15 to 20)
#    0.000    0.286    7.143    3.000    4.000    1.143 
#    0.000    1.429    0.000    0.000    0.000    0.000 
#    0.000    0.000    0.000    0.000    0.000    0.000 
#
# Total GULP energy -155905.805830 kJ/mol
# GULP energy per Si atom -5568.064494 kJ/mol
# Density = 2.267501 g / cm^3
# Si number density = 22.726737 Si / 1000 Ang^3
#
#
#
# Elastic Constant Matrix: (Units=GPa)
#
#
# Indices 1 2 3 4 5 6 
#
# 1 146.5173 28.9261 59.7814 0.0000 0.0000 0.0000
# 2 28.9261 90.5635 24.1498 0.0000 0.0000 0.0000
# 3 59.7814 24.1498 154.7463 0.0000 0.0000 0.0000
# 4 0.0000 0.0000 0.0000 30.1829 0.0000 0.0000
# 5 0.0000 0.0000 0.0000 0.0000 84.4046 0.0000
# 6 0.0000 0.0000 0.0000 0.0000 0.0000 -39.7195
#
#
#
# Elastic Compliance Matrix: (Units=1/GPa)
#
#
# Indices 1 2 3 4 5 6 
#
# 1 0.008404 -0.001897 -0.002950 0.000000 0.000000 0.000000
# 2 -0.001897 0.011950 -0.001132 0.000000 0.000000 0.000000
# 3 -0.002950 -0.001132 0.007779 0.000000 0.000000 0.000000
# 4 0.000000 0.000000 0.000000 0.033131 0.000000 0.000000
# 5 0.000000 0.000000 0.000000 0.000000 0.011848 0.000000
# 6 0.000000 0.000000 0.000000 0.000000 0.000000 -0.025177
#
#
# Mechanical properties :
#
#
# Convention : Reuss Voigt Hill
#
# Bulk Modulus (GPa) = 61.83242 68.61574 65.22408
# Shear Modulus (GPa) = 76.58784 33.57160 55.07972
#
# Velocity S-wave (km/s) = 5.81142 3.84759 4.92831
# Velocity P-wave (km/s) = 8.50271 7.07077 7.81959
#
# Compressibility (1/GPa) = 0.01617275
#
# Stress axis : x y z
#
# Youngs Moduli (GPa) = 118.99803 83.68321 128.55776
#
# Poissons Ratio (x) = 0.15878 0.37929
# Poissons Ratio (y) = 0.22578 0.14552
# Poissons Ratio (z) = 0.35108 0.09472
#
# Static dielectric constant tensor:
#      x y z
#    x 1.515500 0.000000 0.000000 
#    y 0.000000 1.921300 0.000000 
#    z 0.000000 0.000000 1.976640 
# 
# From -- ./inp_files/16279.got.cif
#   From: 2010.05.17/outbox.cif.g08.bks.cpg/sg70_9_cif.got.tgz:16279.got - 2010.06.03 15:57:51.
