data_PCOD9516839
_publ_section_title
;
Structure prediction by ZEFSAII (Michael W. Deem and Ramdas Pophale) SiO2 
 PCOD9516839
Probable space group: F D D D
;
_chemical_formula_sum "Si O2"
_cell_formula_units_Z 176
_cell_length_a 24.128905
_cell_length_b 23.785225
_cell_length_c 13.468630
_cell_angle_alpha 90.000000
_cell_angle_beta 90.000000
_cell_angle_gamma 90.000000
_cell_volume 7729.800763
_symmetry_space_group_name_H-M "F D D D"
_symmetry_group_IT_number 70
_space_group.IT_coordinate_system_code '2'
_symmetry_cell_setting 'orthorhombic'
loop_
_space_group_symop_operation_xyz
x,y,z
1/4-x,1/4-y,z
x,1/4-y,1/4-z
1/4-x,y,1/4-z
-x,-y,-z
3/4+x,3/4+y,-z
-x,3/4+y,3/4+z
3/4+x,-y,3/4+z
x,1/2+y,1/2+z
1/4-x,3/4-y,1/2+z
x,3/4-y,3/4-z
1/4-x,1/2+y,3/4-z
-x,1/2-y,1/2-z
3/4+x,1/4+y,1/2-z
-x,1/4+y,1/4+z
3/4+x,1/2-y,1/4+z
1/2+x,y,1/2+z
3/4-x,1/4-y,1/2+z
1/2+x,1/4-y,3/4-z
3/4-x,y,3/4-z
1/2-x,-y,1/2-z
1/4+x,3/4+y,1/2-z
1/2-x,3/4+y,1/4+z
1/4+x,-y,1/4+z
1/2+x,1/2+y,z
3/4-x,3/4-y,z
1/2+x,3/4-y,1/4-z
3/4-x,1/2+y,1/4-z
1/2-x,1/2-y,-z
1/4+x,1/4+y,-z
1/2-x,1/4+y,3/4+z
1/4+x,1/2-y,3/4+z
loop_
_atom_site_type_symbol
_atom_site_label
_atom_site_fract_x
_atom_site_fract_y
_atom_site_fract_z
Si Si1 0.174616 0.979690 0.423218
Si Si2 0.375000 0.763885 0.875000
Si Si3 0.781823 0.341330 0.283993
Si Si4 0.240070 0.193252 0.560260
Si Si5 0.498798 0.410080 0.158735
Si Si6 0.329162 0.223152 0.726984
O O1 0.139329 0.977988 0.526007
O O2 0.225418 0.937396 0.428021
O O3 0.137551 0.967577 0.327077
O O4 0.202524 0.041469 0.421694
O O5 0.321678 0.801481 0.897864
O O6 0.807927 0.375000 0.375000
O O7 0.763844 0.382515 0.196461
O O8 0.818127 0.289374 0.243723
O O9 0.250000 0.250000 0.500000
O O10 0.244767 0.140701 0.487643
O O11 0.284935 0.198435 0.647267
O O12 0.558648 0.440157 0.174936
#
# Coordination Sequence:
#
# PCOD9516839 Si02
#       6
#    32  16  32  32  32  32
#     4  11  25  43  68 104 139 188 242 286 368 440
#     4  12  20  37  64  96 144 176 226 284 349 426
#     4  11  25  48  68  98 139 189 239 305 356 428
#     4  12  21  40  65 102 144 178 224 296 358 424
#     4  11  24  45  71  99 145 188 228 308 361 424
#     4  11  24  44  66 103 142 181 241 294 352 442
#
# _framework density 22.769020999999999
#
# number of rings (size 3 to 8) (size 9 to 14) (size 15 to 20)
#    0.000    0.727    7.273    0.545    0.000    8.000 
#    0.000    3.636    0.000    0.000    0.000    0.000 
#    0.000    0.000    0.000    0.000    0.000    0.000 
#
# Total GULP energy -246171.907779 kJ/mol
# GULP energy per Si atom -5594.816086 kJ/mol
# Density = 2.271720 g / cm^3
# Si number density = 22.769021 Si / 1000 Ang^3
#
#
#
# Elastic Constant Matrix: (Units=GPa)
#
#
# Indices 1 2 3 4 5 6 
#
# 1 80.9292 6.4340 -1.0151 0.0000 0.0000 0.0000
# 2 6.4340 87.6251 34.0418 0.0000 0.0000 0.0000
# 3 -1.0151 34.0418 83.4862 0.0000 0.0000 0.0000
# 4 0.0000 0.0000 0.0000 10.1740 0.0000 0.0000
# 5 0.0000 0.0000 0.0000 0.0000 29.8748 0.0000
# 6 0.0000 0.0000 0.0000 0.0000 0.0000 -5.1316
#
#
#
# Elastic Compliance Matrix: (Units=1/GPa)
#
#
# Indices 1 2 3 4 5 6 
#
# 1 0.012456 -0.001157 0.000623 0.000000 0.000000 0.000000
# 2 -0.001157 0.013668 -0.005587 0.000000 0.000000 0.000000
# 3 0.000623 -0.005587 0.014264 0.000000 0.000000 0.000000
# 4 0.000000 0.000000 0.000000 0.098290 0.000000 0.000000
# 5 0.000000 0.000000 0.000000 0.000000 0.033473 0.000000
# 6 0.000000 0.000000 0.000000 0.000000 0.000000 -0.194869
#
#
# Mechanical properties :
#
#
# Convention : Reuss Voigt Hill
#
# Bulk Modulus (GPa) = 35.52860 36.77353 36.15106
# Shear Modulus (GPa) = -4565.49011 21.15543 -2272.16734
#
# Velocity S-wave (km/s) = -44.82728 3.05147 -31.62415
# Velocity P-wave (km/s) = 51.61081 5.34800 36.29790
#
# Compressibility (1/GPa) = 0.02814634
#
# Stress axis : x y z
#
# Youngs Moduli (GPa) = 80.28098 73.16489 70.10762
#
# Poissons Ratio (x) = 0.08463 -0.04368
# Poissons Ratio (y) = 0.09286 0.39170
# Poissons Ratio (z) = -0.05002 0.40878
#
# Static dielectric constant tensor:
#      x y z
#    x 1.839760 0.000000 0.000000 
#    y 0.000000 1.840580 0.000000 
#    z 0.000000 0.000000 1.946300 
# 
# From -- ./inp_files/28770.got.cif
#   From: 2010.05.17/outbox.cif.g08.bks.cpg/sg70_15_cif.got.tgz:28770.got - 2010.06.03 15:57:51.
