data_PCOD9516177
_publ_section_title
;
Structure prediction by ZEFSAII (Michael W. Deem and Ramdas Pophale) SiO2 
 PCOD9516177
Probable space group: F D D D
;
_chemical_formula_sum "Si O2"
_cell_formula_units_Z 112
_cell_length_a 12.872709
_cell_length_b 11.379531
_cell_length_c 29.347218
_cell_angle_alpha 90.000000
_cell_angle_beta 90.000000
_cell_angle_gamma 90.000000
_cell_volume 4298.938707
_symmetry_space_group_name_H-M "F D D D"
_symmetry_group_IT_number 70
_space_group.IT_coordinate_system_code '2'
_symmetry_cell_setting 'orthorhombic'
loop_
_space_group_symop_operation_xyz
x,y,z
1/4-x,1/4-y,z
x,1/4-y,1/4-z
1/4-x,y,1/4-z
-x,-y,-z
3/4+x,3/4+y,-z
-x,3/4+y,3/4+z
3/4+x,-y,3/4+z
x,1/2+y,1/2+z
1/4-x,3/4-y,1/2+z
x,3/4-y,3/4-z
1/4-x,1/2+y,3/4-z
-x,1/2-y,1/2-z
3/4+x,1/4+y,1/2-z
-x,1/4+y,1/4+z
3/4+x,1/2-y,1/4+z
1/2+x,y,1/2+z
3/4-x,1/4-y,1/2+z
1/2+x,1/4-y,3/4-z
3/4-x,y,3/4-z
1/2-x,-y,1/2-z
1/4+x,3/4+y,1/2-z
1/2-x,3/4+y,1/4+z
1/4+x,-y,1/4+z
1/2+x,1/2+y,z
3/4-x,3/4-y,z
1/2+x,3/4-y,1/4-z
3/4-x,1/2+y,1/4-z
1/2-x,1/2-y,-z
1/4+x,1/4+y,-z
1/2-x,1/4+y,3/4+z
1/4+x,1/2-y,3/4+z
loop_
_atom_site_type_symbol
_atom_site_label
_atom_site_fract_x
_atom_site_fract_y
_atom_site_fract_z
Si Si1 0.437497 0.499605 0.143403
Si Si2 0.051708 0.018344 0.240872
Si Si3 0.375000 0.617598 0.375000
Si Si4 0.150976 0.277198 0.531115
O O1 0.393331 0.625000 0.125000
O O2 0.375000 0.375000 0.148503
O O3 0.491078 0.528007 0.192295
O O4 0.531893 0.455247 0.111206
O O5 0.125000 0.125000 0.254234
O O6 0.960636 0.970030 0.274057
O O7 0.128031 0.909228 0.234389
O O8 0.418504 0.536937 0.415351
O O9 0.250000 0.250000 0.500000
#
# Coordination Sequence:
#
# PCOD9516177 Si02
#       4
#    32  32  16  32
#     4  11  23  43  70 103 140 185 239 297 359 434
#     4  11  23  42  68  98 136 187 238 295 362 442
#     4  10  23  44  69  96 135 190 239 288 359 452
#     4  11  23  43  66  98 139 180 234 302 368 430
#
# _framework density 26.052942000000002
#
# number of rings (size 3 to 8) (size 9 to 14) (size 15 to 20)
#    0.000    1.143    0.000    9.000    0.000    3.429 
#    0.000    9.286    0.000    0.000    0.000    0.000 
#    0.000    0.000    0.000    0.000    0.000    0.000 
#
# Total GULP energy -155981.760179 kJ/mol
# GULP energy per Si atom -5570.777149 kJ/mol
# Density = 2.599364 g / cm^3
# Si number density = 26.052942 Si / 1000 Ang^3
#
#
#
# Elastic Constant Matrix: (Units=GPa)
#
#
# Indices 1 2 3 4 5 6 
#
# 1 133.7778 40.9494 41.4674 0.0000 0.0000 0.0000
# 2 40.9494 127.9982 36.0430 0.0000 0.0000 0.0000
# 3 41.4674 36.0430 101.3787 0.0000 0.0000 0.0000
# 4 0.0000 0.0000 0.0000 28.3610 0.0000 0.0000
# 5 0.0000 0.0000 0.0000 0.0000 45.3868 0.0000
# 6 0.0000 0.0000 0.0000 0.0000 0.0000 54.2228
#
#
#
# Elastic Compliance Matrix: (Units=1/GPa)
#
#
# Indices 1 2 3 4 5 6 
#
# 1 0.009021 -0.002052 -0.002960 0.000000 0.000000 0.000000
# 2 -0.002052 0.009149 -0.002413 0.000000 0.000000 0.000000
# 3 -0.002960 -0.002413 0.011933 0.000000 0.000000 0.000000
# 4 0.000000 0.000000 0.000000 0.035260 0.000000 0.000000
# 5 0.000000 0.000000 0.000000 0.000000 0.022033 0.000000
# 6 0.000000 0.000000 0.000000 0.000000 0.000000 0.018442
#
#
# Mechanical properties :
#
#
# Convention : Reuss Voigt Hill
#
# Bulk Modulus (GPa) = 65.56966 66.67492 66.12229
# Shear Modulus (GPa) = 39.75436 41.90713 40.83075
#
# Velocity S-wave (km/s) = 3.91052 4.01501 3.96311
# Velocity P-wave (km/s) = 6.75367 6.86596 6.81005
#
# Compressibility (1/GPa) = 0.01525096
#
# Stress axis : x y z
#
# Youngs Moduli (GPa) = 110.85369 109.30471 83.80301
#
# Poissons Ratio (x) = 0.22434 0.24807
# Poissons Ratio (y) = 0.22752 0.20223
# Poissons Ratio (z) = 0.32814 0.26377
#
# Static dielectric constant tensor:
#      x y z
#    x 2.088400 0.000000 0.000000 
#    y 0.000000 2.176840 0.000000 
#    z 0.000000 0.000000 2.316620 
# 
# From -- ./inp_files/65430.got.cif
#   From: 2010.05.17/outbox.cif.g08.bks.cpg/sg70_33_cif.got.tgz:65430.got - 2010.06.03 15:57:51.
