data_PCOD9516398
_publ_section_title
;
Structure prediction by ZEFSAII (Michael W. Deem and Ramdas Pophale) SiO2 
 PCOD9516398
Probable space group: F D D D
;
_chemical_formula_sum "Si O2"
_cell_formula_units_Z 80
_cell_length_a 15.153614
_cell_length_b 11.798748
_cell_length_c 16.580855
_cell_angle_alpha 90.000000
_cell_angle_beta 90.000000
_cell_angle_gamma 90.000000
_cell_volume 2964.551965
_symmetry_space_group_name_H-M "F D D D"
_symmetry_group_IT_number 70
_space_group.IT_coordinate_system_code '2'
_symmetry_cell_setting 'orthorhombic'
loop_
_space_group_symop_operation_xyz
x,y,z
1/4-x,1/4-y,z
x,1/4-y,1/4-z
1/4-x,y,1/4-z
-x,-y,-z
3/4+x,3/4+y,-z
-x,3/4+y,3/4+z
3/4+x,-y,3/4+z
x,1/2+y,1/2+z
1/4-x,3/4-y,1/2+z
x,3/4-y,3/4-z
1/4-x,1/2+y,3/4-z
-x,1/2-y,1/2-z
3/4+x,1/4+y,1/2-z
-x,1/4+y,1/4+z
3/4+x,1/2-y,1/4+z
1/2+x,y,1/2+z
3/4-x,1/4-y,1/2+z
1/2+x,1/4-y,3/4-z
3/4-x,y,3/4-z
1/2-x,-y,1/2-z
1/4+x,3/4+y,1/2-z
1/2-x,3/4+y,1/4+z
1/4+x,-y,1/4+z
1/2+x,1/2+y,z
3/4-x,3/4-y,z
1/2+x,3/4-y,1/4-z
3/4-x,1/2+y,1/4-z
1/2-x,1/2-y,-z
1/4+x,1/4+y,-z
1/2-x,1/4+y,3/4+z
1/4+x,1/2-y,3/4+z
loop_
_atom_site_type_symbol
_atom_site_label
_atom_site_fract_x
_atom_site_fract_y
_atom_site_fract_z
Si Si1 0.020502 0.384606 0.115610
Si Si2 0.480042 0.160067 0.541326
Si Si3 0.691509 0.875000 0.375000
O O1 0.125000 0.371073 0.125000
O O2 0.983592 0.367067 0.207197
O O3 0.978564 0.296524 0.052737
O O4 0.997377 0.515554 0.102921
O O5 0.526519 0.125000 0.625000
O O6 0.380448 0.113779 0.552963
#
# Coordination Sequence:
#
# PCOD9516398 Si02
#       3
#    32  32  16
#     4  12  24  44  73 100 137 183 233 279 347 408
#     4  10  25  45  69  98 141 182 230 280 343 413
#     4  10  25  42  67  96 144 172 230 280 347 396
#
# _framework density 26.985529
#
# number of rings (size 3 to 8) (size 9 to 14) (size 15 to 20)
#    1.200    0.000    0.000    5.400    0.000   10.400 
#    7.200    0.000    0.000    0.000    0.000    0.000 
#    0.000    0.000    0.000    0.000    0.000    0.000 
#
# Total GULP energy -111800.266552 kJ/mol
# GULP energy per Si atom -5590.013328 kJ/mol
# Density = 2.692411 g / cm^3
# Si number density = 26.985529 Si / 1000 Ang^3
#
#
#
# Elastic Constant Matrix: (Units=GPa)
#
#
# Indices 1 2 3 4 5 6 
#
# 1 101.4882 41.3519 5.3239 0.0000 0.0000 0.0000
# 2 41.3519 164.5889 -4.1622 0.0000 0.0000 0.0000
# 3 5.3239 -4.1622 119.8564 0.0000 0.0000 0.0000
# 4 0.0000 0.0000 0.0000 40.1984 0.0000 0.0000
# 5 0.0000 0.0000 0.0000 0.0000 14.1657 0.0000
# 6 0.0000 0.0000 0.0000 0.0000 0.0000 28.7642
#
#
#
# Elastic Compliance Matrix: (Units=1/GPa)
#
#
# Indices 1 2 3 4 5 6 
#
# 1 0.011018 -0.002783 -0.000586 0.000000 0.000000 0.000000
# 2 -0.002783 0.006784 0.000359 0.000000 0.000000 0.000000
# 3 -0.000586 0.000359 0.008382 0.000000 0.000000 0.000000
# 4 0.000000 0.000000 0.000000 0.024877 0.000000 0.000000
# 5 0.000000 0.000000 0.000000 0.000000 0.070593 0.000000
# 6 0.000000 0.000000 0.000000 0.000000 0.000000 0.034765
#
#
# Mechanical properties :
#
#
# Convention : Reuss Voigt Hill
#
# Bulk Modulus (GPa) = 49.59295 52.32898 50.96096
# Shear Modulus (GPa) = 29.55780 39.52034 34.53907
#
# Velocity S-wave (km/s) = 3.31315 3.83103 3.58147
# Velocity P-wave (km/s) = 5.74922 6.24521 6.00234
#
# Compressibility (1/GPa) = 0.02016416
#
# Stress axis : x y z
#
# Youngs Moduli (GPa) = 90.76001 147.40469 119.30576
#
# Poissons Ratio (x) = 0.41023 0.06992
# Poissons Ratio (y) = 0.25259 -0.04286
# Poissons Ratio (z) = 0.05319 -0.05295
#
# Static dielectric constant tensor:
#      x y z
#    x 2.003160 0.000000 0.000000 
#    y 0.000000 2.260920 0.000000 
#    z 0.000000 0.000000 2.316680 
# 
# From -- ./inp_files/15566.got.cif
#   From: 2010.05.17/outbox.cif.g08.bks.cpg/sg70_8_cif.got.tgz:15566.got - 2010.06.03 15:57:51.
