data_PCOD9516880
_publ_section_title
;
Structure prediction by ZEFSAII (Michael W. Deem and Ramdas Pophale) SiO2 
 PCOD9516880
Probable space group: F D D D
;
_chemical_formula_sum "Si O2"
_cell_formula_units_Z 104
_cell_length_a 28.699404
_cell_length_b 6.951107
_cell_length_c 23.952505
_cell_angle_alpha 90.000000
_cell_angle_beta 90.000000
_cell_angle_gamma 90.000000
_cell_volume 4778.348171
_symmetry_space_group_name_H-M "F D D D"
_symmetry_group_IT_number 70
_space_group.IT_coordinate_system_code '2'
_symmetry_cell_setting 'orthorhombic'
loop_
_space_group_symop_operation_xyz
x,y,z
1/4-x,1/4-y,z
x,1/4-y,1/4-z
1/4-x,y,1/4-z
-x,-y,-z
3/4+x,3/4+y,-z
-x,3/4+y,3/4+z
3/4+x,-y,3/4+z
x,1/2+y,1/2+z
1/4-x,3/4-y,1/2+z
x,3/4-y,3/4-z
1/4-x,1/2+y,3/4-z
-x,1/2-y,1/2-z
3/4+x,1/4+y,1/2-z
-x,1/4+y,1/4+z
3/4+x,1/2-y,1/4+z
1/2+x,y,1/2+z
3/4-x,1/4-y,1/2+z
1/2+x,1/4-y,3/4-z
3/4-x,y,3/4-z
1/2-x,-y,1/2-z
1/4+x,3/4+y,1/2-z
1/2-x,3/4+y,1/4+z
1/4+x,-y,1/4+z
1/2+x,1/2+y,z
3/4-x,3/4-y,z
1/2+x,3/4-y,1/4-z
3/4-x,1/2+y,1/4-z
1/2-x,1/2-y,-z
1/4+x,1/4+y,-z
1/2-x,1/4+y,3/4+z
1/4+x,1/2-y,3/4+z
loop_
_atom_site_type_symbol
_atom_site_label
_atom_site_fract_x
_atom_site_fract_y
_atom_site_fract_z
Si Si1 0.875000 0.375000 0.875000
Si Si2 0.208907 0.809434 0.936006
Si Si3 0.134606 0.344943 0.217649
Si Si4 0.529744 0.446621 0.749703
O O1 0.849213 0.523578 0.833883
O O2 0.255112 0.924744 0.952716
O O3 0.193718 0.875000 0.875000
O O4 0.219842 0.583426 0.945345
O O5 0.170429 0.875224 0.981651
O O6 0.083483 0.412744 0.236473
O O7 0.125000 0.125000 0.201860
O O8 0.500000 0.250000 0.750000
#
# Coordination Sequence:
#
# PCOD9516880 Si02
#       4
#     8  32  32  32
#     4  12  26  48  72  98 152 196 246 294 372 462
#     4  11  26  47  75 109 151 192 252 316 374 448
#     4  12  25  47  73 105 144 197 249 304 376 449
#     4  11  24  47  70 103 147 195 245 302 380 446
#
# _framework density 21.764844
#
# number of rings (size 3 to 8) (size 9 to 14) (size 15 to 20)
#    0.000    0.615    6.154    0.462    2.154    3.692 
#    5.538    0.000    0.000    0.000    0.000    0.000 
#    0.000    0.000    0.000    0.000    0.000    0.000 
#
# Total GULP energy -145239.065911 kJ/mol
# GULP energy per Si atom -5586.117920 kJ/mol
# Density = 2.171531 g / cm^3
# Si number density = 21.764844 Si / 1000 Ang^3
#
#
#
# Elastic Constant Matrix: (Units=GPa)
#
#
# Indices 1 2 3 4 5 6 
#
# 1 121.2247 24.7932 31.0905 0.0002 -0.0001 -0.0004
# 2 24.7932 193.7582 63.9337 0.0002 -0.0002 -0.0008
# 3 31.0905 63.9337 161.4952 0.0000 0.0000 0.0000
# 4 0.0002 0.0002 0.0000 21.8598 -0.0001 -0.0003
# 5 -0.0001 -0.0002 0.0000 -0.0001 19.9275 0.0002
# 6 -0.0004 -0.0008 0.0000 -0.0003 0.0002 42.6095
#
#
#
# Elastic Compliance Matrix: (Units=1/GPa)
#
#
# Indices 1 2 3 4 5 6 
#
# 1 0.008748 -0.000648 -0.001427 0.000000 0.000000 0.000000
# 2 -0.000648 0.005985 -0.002244 0.000000 0.000000 0.000000
# 3 -0.001427 -0.002244 0.007355 0.000000 0.000000 0.000000
# 4 0.000000 0.000000 0.000000 0.045746 0.000000 0.000000
# 5 0.000000 0.000000 0.000000 0.000000 0.050182 0.000000
# 6 0.000000 0.000000 0.000000 0.000000 0.000000 0.023469
#
#
# Mechanical properties :
#
#
# Convention : Reuss Voigt Hill
#
# Bulk Modulus (GPa) = 74.36312 79.56811 76.96561
# Shear Modulus (GPa) = 32.33991 40.65674 36.49833
#
# Velocity S-wave (km/s) = 3.85889 4.32673 4.09949
# Velocity P-wave (km/s) = 7.35497 7.84845 7.60571
#
# Compressibility (1/GPa) = 0.01344753
#
# Stress axis : x y z
#
# Youngs Moduli (GPa) = 114.31390 167.09511 135.95334
#
# Poissons Ratio (x) = 0.10834 0.19406
# Poissons Ratio (y) = 0.07412 0.30513
# Poissons Ratio (z) = 0.16317 0.37503
#
# Static dielectric constant tensor:
#      x y z
#    x 1.775240 0.000000 0.000000 
#    y 0.000000 1.890380 0.000000 
#    z 0.000000 0.000000 1.803460 
# 
# From -- ./inp_files/54714.got.cif
#   From: 2010.05.17/outbox.cif.g08.bks.cpg/sg70_28_cif.got.tgz:54714.got - 2010.06.03 15:57:51.
