data_PCOD9516126
_publ_section_title
;
Structure prediction by ZEFSAII (Michael W. Deem and Ramdas Pophale) SiO2 
 PCOD9516126
Probable space group: F D D D
;
_chemical_formula_sum "Si O2"
_cell_formula_units_Z 144
_cell_length_a 14.760375
_cell_length_b 31.122395
_cell_length_c 14.119813
_cell_angle_alpha 90.000000
_cell_angle_beta 90.000000
_cell_angle_gamma 90.000000
_cell_volume 6486.334578
_symmetry_space_group_name_H-M "F D D D"
_symmetry_group_IT_number 70
_space_group.IT_coordinate_system_code '2'
_symmetry_cell_setting 'orthorhombic'
loop_
_space_group_symop_operation_xyz
x,y,z
1/4-x,1/4-y,z
x,1/4-y,1/4-z
1/4-x,y,1/4-z
-x,-y,-z
3/4+x,3/4+y,-z
-x,3/4+y,3/4+z
3/4+x,-y,3/4+z
x,1/2+y,1/2+z
1/4-x,3/4-y,1/2+z
x,3/4-y,3/4-z
1/4-x,1/2+y,3/4-z
-x,1/2-y,1/2-z
3/4+x,1/4+y,1/2-z
-x,1/4+y,1/4+z
3/4+x,1/2-y,1/4+z
1/2+x,y,1/2+z
3/4-x,1/4-y,1/2+z
1/2+x,1/4-y,3/4-z
3/4-x,y,3/4-z
1/2-x,-y,1/2-z
1/4+x,3/4+y,1/2-z
1/2-x,3/4+y,1/4+z
1/4+x,-y,1/4+z
1/2+x,1/2+y,z
3/4-x,3/4-y,z
1/2+x,3/4-y,1/4-z
3/4-x,1/2+y,1/4-z
1/2-x,1/2-y,-z
1/4+x,1/4+y,-z
1/2-x,1/4+y,3/4+z
1/4+x,1/2-y,3/4+z
loop_
_atom_site_type_symbol
_atom_site_label
_atom_site_fract_x
_atom_site_fract_y
_atom_site_fract_z
Si Si1 0.625000 0.625000 0.873148
Si Si2 0.309668 0.575988 0.639937
Si Si3 0.490160 0.910206 0.792800
Si Si4 0.473450 0.497796 0.216255
Si Si5 0.153434 0.707952 0.476380
O O1 0.542741 0.612556 0.803373
O O2 0.603830 0.665327 0.938659
O O3 0.281670 0.625000 0.625000
O O4 0.403270 0.580529 0.697221
O O5 0.324891 0.544499 0.548825
O O6 0.227594 0.555211 0.697708
O O7 0.470271 0.875000 0.875000
O O8 0.447298 0.958700 0.788098
O O9 0.577117 0.509910 0.237193
O O10 0.454565 0.476545 0.114697
#
# Coordination Sequence:
#
# PCOD9516126 Si02
#       5
#    16  32  32  32  32
#     4  10  23  42  67  88 134 186 232 284 371 420
#     4  11  23  39  67 101 142 175 239 295 361 435
#     4  10  23  43  68  94 135 187 229 295 355 430
#     4  11  22  39  67 100 140 184 231 292 366 429
#     4  11  23  38  65 101 137 186 231 296 362 440
#
# _framework density 22.200519
#
# number of rings (size 3 to 8) (size 9 to 14) (size 15 to 20)
#    0.000    1.333    2.222    3.000    3.111    3.556 
#    0.000    1.111   19.556    0.000    0.000    0.000 
#    0.000    0.000    0.000    0.000    0.000    0.000 
#
# Total GULP energy -200655.321864 kJ/mol
# GULP energy per Si atom -5573.758941 kJ/mol
# Density = 2.214999 g / cm^3
# Si number density = 22.200519 Si / 1000 Ang^3
#
#
#
# Elastic Constant Matrix: (Units=GPa)
#
#
# Indices 1 2 3 4 5 6 
#
# 1 100.6877 37.8353 34.9368 0.0000 0.0000 0.0000
# 2 37.8353 205.5696 55.5572 0.0000 0.0000 0.0000
# 3 34.9368 55.5572 61.5504 0.0000 0.0000 0.0000
# 4 0.0000 0.0000 0.0000 36.7381 0.0000 0.0000
# 5 0.0000 0.0000 0.0000 0.0000 -66.9854 0.0000
# 6 0.0000 0.0000 0.0000 0.0000 0.0000 16.9081
#
#
#
# Elastic Compliance Matrix: (Units=1/GPa)
#
#
# Indices 1 2 3 4 5 6 
#
# 1 0.012407 -0.000503 -0.006588 0.000000 0.000000 0.000000
# 2 -0.000503 0.006454 -0.005541 0.000000 0.000000 0.000000
# 3 -0.006588 -0.005541 0.024987 0.000000 0.000000 0.000000
# 4 0.000000 0.000000 0.000000 0.027220 0.000000 0.000000
# 5 0.000000 0.000000 0.000000 0.000000 -0.014929 0.000000
# 6 0.000000 0.000000 0.000000 0.000000 0.000000 0.059143
#
#
# Mechanical properties :
#
#
# Convention : Reuss Voigt Hill
#
# Bulk Modulus (GPa) = 53.80618 69.38516 61.59567
# Shear Modulus (GPa) = 34.07353 13.29740 23.68547
#
# Velocity S-wave (km/s) = 3.92191 2.45004 3.26987
# Velocity P-wave (km/s) = 6.69310 6.27099 6.48548
#
# Compressibility (1/GPa) = 0.01858523
#
# Stress axis : x y z
#
# Youngs Moduli (GPa) = 80.60174 154.93120 40.02010
#
# Poissons Ratio (x) = 0.07792 0.26366
# Poissons Ratio (y) = 0.04054 0.22173
# Poissons Ratio (z) = 0.53102 0.85840
#
# Static dielectric constant tensor:
#      x y z
#    x 1.785430 0.000000 0.000000 
#    y 0.000000 1.931760 0.000000 
#    z 0.000000 0.000000 1.843250 
# 
# From -- ./inp_files/26572.got.cif
#   From: 2010.05.17/outbox.cif.g08.bks.cpg/sg70_14_cif.got.tgz:26572.got - 2010.06.03 15:57:51.
