data_PCOD9516973
_publ_section_title
;
Structure prediction by ZEFSAII (Michael W. Deem and Ramdas Pophale) SiO2 
 PCOD9516973
Probable space group: F D D D
;
_chemical_formula_sum "Si O2"
_cell_formula_units_Z 160
_cell_length_a 17.162836
_cell_length_b 19.430501
_cell_length_c 19.957775
_cell_angle_alpha 90.000000
_cell_angle_beta 90.000000
_cell_angle_gamma 90.000000
_cell_volume 6655.568743
_symmetry_space_group_name_H-M "F D D D"
_symmetry_group_IT_number 70
_space_group.IT_coordinate_system_code '2'
_symmetry_cell_setting 'orthorhombic'
loop_
_space_group_symop_operation_xyz
x,y,z
1/4-x,1/4-y,z
x,1/4-y,1/4-z
1/4-x,y,1/4-z
-x,-y,-z
3/4+x,3/4+y,-z
-x,3/4+y,3/4+z
3/4+x,-y,3/4+z
x,1/2+y,1/2+z
1/4-x,3/4-y,1/2+z
x,3/4-y,3/4-z
1/4-x,1/2+y,3/4-z
-x,1/2-y,1/2-z
3/4+x,1/4+y,1/2-z
-x,1/4+y,1/4+z
3/4+x,1/2-y,1/4+z
1/2+x,y,1/2+z
3/4-x,1/4-y,1/2+z
1/2+x,1/4-y,3/4-z
3/4-x,y,3/4-z
1/2-x,-y,1/2-z
1/4+x,3/4+y,1/2-z
1/2-x,3/4+y,1/4+z
1/4+x,-y,1/4+z
1/2+x,1/2+y,z
3/4-x,3/4-y,z
1/2+x,3/4-y,1/4-z
3/4-x,1/2+y,1/4-z
1/2-x,1/2-y,-z
1/4+x,1/4+y,-z
1/2-x,1/4+y,3/4+z
1/4+x,1/2-y,3/4+z
loop_
_atom_site_type_symbol
_atom_site_label
_atom_site_fract_x
_atom_site_fract_y
_atom_site_fract_z
Si Si1 0.875000 0.747383 0.375000
Si Si2 0.548027 0.763882 0.849852
Si Si3 0.109854 0.853576 0.010406
Si Si4 0.625000 0.625000 0.794430
Si Si5 0.770745 0.044093 0.998904
Si Si6 0.709487 0.608098 0.047324
O O1 0.795874 0.776908 0.409424
O O2 0.912139 0.700571 0.432798
O O3 0.596429 0.813236 0.800126
O O4 0.578004 0.685608 0.834949
O O5 0.557753 0.784027 0.927457
O O6 0.172214 0.905220 0.040312
O O7 0.033001 0.893282 0.987332
O O8 0.687990 0.667369 0.751077
O O9 0.770579 0.971874 0.961936
O O10 0.625000 0.625000 0.018176
O O11 0.708734 0.625000 0.125000
#
# Coordination Sequence:
#
# PCOD9516973 Si02
#       6
#    16  32  32  16  32  32
#     4  12  24  42  73 106 155 202 256 298 396 476
#     4  12  25  47  74 111 157 199 257 315 401 471
#     4  12  26  49  74 113 154 199 253 330 388 473
#     4  12  26  48  77 112 163 196 262 332 384 482
#     4  12  27  46  78 116 146 212 254 322 401 463
#     4  11  26  51  76 107 149 202 266 313 385 464
#
# _framework density 24.040019000000001
#
# number of rings (size 3 to 8) (size 9 to 14) (size 15 to 20)
#    0.000    0.200    6.000    2.400    4.200    2.400 
#    0.000    0.000    0.000    0.000    0.000    0.000 
#    0.000    0.000    0.000    0.000    0.000    0.000 
#
# Total GULP energy -223638.195926 kJ/mol
# GULP energy per Si atom -5590.954898 kJ/mol
# Density = 2.398530 g / cm^3
# Si number density = 24.040019 Si / 1000 Ang^3
#
#
#
# Elastic Constant Matrix: (Units=GPa)
#
#
# Indices 1 2 3 4 5 6 
#
# 1 188.6968 27.6687 20.9742 0.0000 0.0000 0.0000
# 2 27.6687 113.8293 28.8151 0.0000 0.0000 0.0000
# 3 20.9742 28.8151 92.6048 0.0000 0.0000 0.0000
# 4 0.0000 0.0000 0.0000 27.4714 0.0000 0.0000
# 5 0.0000 0.0000 0.0000 0.0000 25.9124 0.0000
# 6 0.0000 0.0000 0.0000 0.0000 0.0000 40.7594
#
#
#
# Elastic Compliance Matrix: (Units=1/GPa)
#
#
# Indices 1 2 3 4 5 6 
#
# 1 0.005565 -0.001122 -0.000911 0.000000 0.000000 0.000000
# 2 -0.001122 0.009762 -0.002784 0.000000 0.000000 0.000000
# 3 -0.000911 -0.002784 0.011871 0.000000 0.000000 0.000000
# 4 0.000000 0.000000 0.000000 0.036402 0.000000 0.000000
# 5 0.000000 0.000000 0.000000 0.000000 0.038592 0.000000
# 6 0.000000 0.000000 0.000000 0.000000 0.000000 0.024534
#
#
# Mechanical properties :
#
#
# Convention : Reuss Voigt Hill
#
# Bulk Modulus (GPa) = 56.93160 61.11633 59.02397
# Shear Modulus (GPa) = 35.15796 40.00681 37.58238
#
# Velocity S-wave (km/s) = 3.82838 4.08386 3.95818
# Velocity P-wave (km/s) = 6.57841 6.90761 6.74502
#
# Compressibility (1/GPa) = 0.01756494
#
# Stress axis : x y z
#
# Youngs Moduli (GPa) = 179.68362 102.43307 84.23796
#
# Poissons Ratio (x) = 0.11494 0.07677
# Poissons Ratio (y) = 0.20162 0.23448
# Poissons Ratio (z) = 0.16375 0.28513
#
# Static dielectric constant tensor:
#      x y z
#    x 2.051310 0.000000 0.000000 
#    y 0.000000 1.948180 0.000000 
#    z 0.000000 0.000000 1.898810 
# 
# From -- ./inp_files/43681.got.cif
#   From: 2010.05.17/outbox.cif.g08.bks.cpg/sg70_22_cif.got.tgz:43681.got - 2010.06.03 15:57:51.
