data_PCOD9516753
_publ_section_title
;
Structure prediction by ZEFSAII (Michael W. Deem and Ramdas Pophale) SiO2 
 PCOD9516753
Probable space group: F D D D
;
_chemical_formula_sum "Si O2"
_cell_formula_units_Z 176
_cell_length_a 26.774870
_cell_length_b 10.828194
_cell_length_c 26.513812
_cell_angle_alpha 90.000000
_cell_angle_beta 90.000000
_cell_angle_gamma 90.000000
_cell_volume 7686.976820
_symmetry_space_group_name_H-M "F D D D"
_symmetry_group_IT_number 70
_space_group.IT_coordinate_system_code '2'
_symmetry_cell_setting 'orthorhombic'
loop_
_space_group_symop_operation_xyz
x,y,z
1/4-x,1/4-y,z
x,1/4-y,1/4-z
1/4-x,y,1/4-z
-x,-y,-z
3/4+x,3/4+y,-z
-x,3/4+y,3/4+z
3/4+x,-y,3/4+z
x,1/2+y,1/2+z
1/4-x,3/4-y,1/2+z
x,3/4-y,3/4-z
1/4-x,1/2+y,3/4-z
-x,1/2-y,1/2-z
3/4+x,1/4+y,1/2-z
-x,1/4+y,1/4+z
3/4+x,1/2-y,1/4+z
1/2+x,y,1/2+z
3/4-x,1/4-y,1/2+z
1/2+x,1/4-y,3/4-z
3/4-x,y,3/4-z
1/2-x,-y,1/2-z
1/4+x,3/4+y,1/2-z
1/2-x,3/4+y,1/4+z
1/4+x,-y,1/4+z
1/2+x,1/2+y,z
3/4-x,3/4-y,z
1/2+x,3/4-y,1/4-z
3/4-x,1/2+y,1/4-z
1/2-x,1/2-y,-z
1/4+x,1/4+y,-z
1/2-x,1/4+y,3/4+z
1/4+x,1/2-y,3/4+z
loop_
_atom_site_type_symbol
_atom_site_label
_atom_site_fract_x
_atom_site_fract_y
_atom_site_fract_z
Si Si1 0.875000 0.875000 0.594563
Si Si2 0.699274 0.774411 0.916658
Si Si3 0.440847 0.016415 0.010709
Si Si4 0.321553 0.259732 0.400768
Si Si5 0.805652 0.511733 0.350662
Si Si6 0.378716 0.728971 0.254842
O O1 0.912443 0.809168 0.633563
O O2 0.837663 0.795765 0.558007
O O3 0.712163 0.875000 0.875000
O O4 0.754138 0.728319 0.931009
O O5 0.669240 0.820974 0.964950
O O6 0.422440 0.158672 0.007767
O O7 0.500000 0.000000 0.000000
O O8 0.420265 0.961447 0.958775
O O9 0.292766 0.375000 0.375000
O O10 0.375000 0.254180 0.375000
O O11 0.299456 0.123542 0.390659
O O12 0.813400 0.375000 0.375000
O O13 0.850499 0.537119 0.311428
O O14 0.375000 0.875000 0.246847
#
# Coordination Sequence:
#
# PCOD9516753 Si02
#       6
#    16  32  32  32  32  32
#     4  12  24  48  73  96 149 188 238 304 360 448
#     4  11  24  46  71 102 140 196 240 298 371 436
#     4  12  27  46  72 107 146 193 242 302 375 439
#     4  11  23  43  69 102 141 187 240 296 363 431
#     4  11  25  44  73 107 146 188 242 304 375 439
#     4  12  25  45  74 107 148 187 247 304 359 445
#
# _framework density 22.895866000000002
#
# number of rings (size 3 to 8) (size 9 to 14) (size 15 to 20)
#    0.000    0.545    4.545    3.818    0.000    2.909 
#    3.273    0.000    0.000    0.000    0.000    0.000 
#    0.000    0.000    0.000    0.000    0.000    0.000 
#
# Total GULP energy -245378.155818 kJ/mol
# GULP energy per Si atom -5576.776269 kJ/mol
# Density = 2.284375 g / cm^3
# Si number density = 22.895866 Si / 1000 Ang^3
#
#
#
# Elastic Constant Matrix: (Units=GPa)
#
#
# Indices 1 2 3 4 5 6 
#
# 1 144.2764 32.6652 4.6815 0.0000 0.0000 0.0000
# 2 32.6652 106.6029 21.4691 0.0000 0.0000 0.0000
# 3 4.6815 21.4691 105.3997 0.0000 0.0000 0.0000
# 4 0.0000 0.0000 0.0000 21.4247 0.0000 0.0000
# 5 0.0000 0.0000 0.0000 0.0000 30.8611 0.0000
# 6 0.0000 0.0000 0.0000 0.0000 0.0000 14.7686
#
#
#
# Elastic Compliance Matrix: (Units=1/GPa)
#
#
# Indices 1 2 3 4 5 6 
#
# 1 0.007450 -0.002311 0.000140 0.000000 0.000000 0.000000
# 2 -0.002311 0.010499 -0.002036 0.000000 0.000000 0.000000
# 3 0.000140 -0.002036 0.009896 0.000000 0.000000 0.000000
# 4 0.000000 0.000000 0.000000 0.046675 0.000000 0.000000
# 5 0.000000 0.000000 0.000000 0.000000 0.032403 0.000000
# 6 0.000000 0.000000 0.000000 0.000000 0.000000 0.067711
#
#
# Mechanical properties :
#
#
# Convention : Reuss Voigt Hill
#
# Bulk Modulus (GPa) = 51.46472 52.65671 52.06072
# Shear Modulus (GPa) = 26.38172 33.24176 29.81174
#
# Velocity S-wave (km/s) = 3.39816 3.81447 3.61232
# Velocity P-wave (km/s) = 6.15818 6.51525 6.33923
#
# Compressibility (1/GPa) = 0.01943079
#
# Stress axis : x y z
#
# Youngs Moduli (GPa) = 134.23154 95.24961 101.04914
#
# Poissons Ratio (x) = 0.22011 -0.01413
# Poissons Ratio (y) = 0.31020 0.20572
# Poissons Ratio (z) = -0.01877 0.19392
#
# Static dielectric constant tensor:
#      x y z
#    x 2.042990 0.000000 0.000000 
#    y 0.000000 2.009550 0.000000 
#    z 0.000000 0.000000 1.877760 
# 
# From -- ./inp_files/61663.got.cif
#   From: 2010.05.17/outbox.cif.g08.bks.cpg/sg70_31_cif.got.tgz:61663.got - 2010.06.03 15:57:51.
