data_PCOD9516314
_publ_section_title
;
Structure prediction by ZEFSAII (Michael W. Deem and Ramdas Pophale) SiO2 
 PCOD9516314
Probable space group: F D D D
;
_chemical_formula_sum "Si O2"
_cell_formula_units_Z 112
_cell_length_a 15.779585
_cell_length_b 32.835954
_cell_length_c 8.941925
_cell_angle_alpha 90.000000
_cell_angle_beta 90.000000
_cell_angle_gamma 90.000000
_cell_volume 4633.148696
_symmetry_space_group_name_H-M "F D D D"
_symmetry_group_IT_number 70
_space_group.IT_coordinate_system_code '2'
_symmetry_cell_setting 'orthorhombic'
loop_
_space_group_symop_operation_xyz
x,y,z
1/4-x,1/4-y,z
x,1/4-y,1/4-z
1/4-x,y,1/4-z
-x,-y,-z
3/4+x,3/4+y,-z
-x,3/4+y,3/4+z
3/4+x,-y,3/4+z
x,1/2+y,1/2+z
1/4-x,3/4-y,1/2+z
x,3/4-y,3/4-z
1/4-x,1/2+y,3/4-z
-x,1/2-y,1/2-z
3/4+x,1/4+y,1/2-z
-x,1/4+y,1/4+z
3/4+x,1/2-y,1/4+z
1/2+x,y,1/2+z
3/4-x,1/4-y,1/2+z
1/2+x,1/4-y,3/4-z
3/4-x,y,3/4-z
1/2-x,-y,1/2-z
1/4+x,3/4+y,1/2-z
1/2-x,3/4+y,1/4+z
1/4+x,-y,1/4+z
1/2+x,1/2+y,z
3/4-x,3/4-y,z
1/2+x,3/4-y,1/4-z
3/4-x,1/2+y,1/4-z
1/2-x,1/2-y,-z
1/4+x,1/4+y,-z
1/2-x,1/4+y,3/4+z
1/4+x,1/2-y,3/4+z
loop_
_atom_site_type_symbol
_atom_site_label
_atom_site_fract_x
_atom_site_fract_y
_atom_site_fract_z
Si Si1 0.375000 0.265008 0.375000
Si Si2 0.022782 0.050413 0.440392
Si Si3 0.215901 0.883256 0.201226
Si Si4 0.568643 0.215301 0.774499
O O1 0.300001 0.227995 0.379644
O O2 0.293241 0.300556 0.386465
O O3 0.114103 0.026012 0.408934
O O4 0.013483 0.094077 0.367724
O O5 0.125000 0.888588 0.125000
O O6 0.199893 0.875000 0.375000
O O7 0.273084 0.923103 0.196152
O O8 0.625000 0.212139 0.625000
O O9 0.500000 0.250000 0.750000
#
# Coordination Sequence:
#
# PCOD9516314 Si02
#       4
#    16  32  32  32
#     4  10  24  44  77 106 148 202 252 316 383 466
#     4  11  23  45  73 107 148 197 248 317 384 459
#     4  12  27  47  73 106 155 199 254 318 384 458
#     4  12  25  44  73 103 142 191 251 309 385 459
#
# _framework density 24.173625999999999
#
# number of rings (size 3 to 8) (size 9 to 14) (size 15 to 20)
#    0.000    0.571    4.286    3.429    0.000    2.286 
#    0.000    1.429    0.000    0.000    0.000    0.000 
#    0.000    0.000    0.000    0.000    0.000    0.000 
#
# Total GULP energy -156097.486596 kJ/mol
# GULP energy per Si atom -5574.910236 kJ/mol
# Density = 2.411861 g / cm^3
# Si number density = 24.173626 Si / 1000 Ang^3
#
#
#
# Elastic Constant Matrix: (Units=GPa)
#
#
# Indices 1 2 3 4 5 6 
#
# 1 223.3786 122.1955 71.4403 0.0000 0.0000 0.0000
# 2 122.1955 239.8020 75.9523 0.0000 0.0000 0.0000
# 3 71.4403 75.9523 121.1540 0.0000 0.0000 0.0000
# 4 0.0000 0.0000 0.0000 41.5982 0.0000 0.0000
# 5 0.0000 0.0000 0.0000 0.0000 71.1744 0.0000
# 6 0.0000 0.0000 0.0000 0.0000 0.0000 39.7515
#
#
#
# Elastic Compliance Matrix: (Units=1/GPa)
#
#
# Indices 1 2 3 4 5 6 
#
# 1 0.006663 -0.002684 -0.002247 0.000000 0.000000 0.000000
# 2 -0.002684 0.006284 -0.002357 0.000000 0.000000 0.000000
# 3 -0.002247 -0.002357 0.011056 0.000000 0.000000 0.000000
# 4 0.000000 0.000000 0.000000 0.024040 0.000000 0.000000
# 5 0.000000 0.000000 0.000000 0.000000 0.014050 0.000000
# 6 0.000000 0.000000 0.000000 0.000000 0.000000 0.025156
#
#
# Mechanical properties :
#
#
# Convention : Reuss Voigt Hill
#
# Bulk Modulus (GPa) = 106.05695 124.83455 115.44575
# Shear Modulus (GPa) = 47.63359 51.48792 49.56075
#
# Velocity S-wave (km/s) = 4.44382 4.62011 4.53283
# Velocity P-wave (km/s) = 8.38441 8.95620 8.67502
#
# Compressibility (1/GPa) = 0.00942890
#
# Stress axis : x y z
#
# Youngs Moduli (GPa) = 150.07389 159.12729 90.44556
#
# Poissons Ratio (x) = 0.42708 0.20320
# Poissons Ratio (y) = 0.40278 0.21319
# Poissons Ratio (z) = 0.33716 0.37507
#
# Static dielectric constant tensor:
#      x y z
#    x 1.971810 0.000000 0.000000 
#    y 0.000000 1.900990 0.000000 
#    z 0.000000 0.000000 3.521310 
# 
# From -- ./inp_files/14976.got.cif
#   From: 2010.05.17/outbox.cif.g08.bks.cpg/sg70_8_cif.got.tgz:14976.got - 2010.06.03 15:57:51.
