data_PCOD9516109
_publ_section_title
;
Structure prediction by ZEFSAII (Michael W. Deem and Ramdas Pophale) SiO2 
 PCOD9516109
Probable space group: F D D D
;
_chemical_formula_sum "Si O2"
_cell_formula_units_Z 112
_cell_length_a 21.878266
_cell_length_b 10.564934
_cell_length_c 22.139960
_cell_angle_alpha 90.000000
_cell_angle_beta 90.000000
_cell_angle_gamma 90.000000
_cell_volume 5117.484295
_symmetry_space_group_name_H-M "F D D D"
_symmetry_group_IT_number 70
_space_group.IT_coordinate_system_code '2'
_symmetry_cell_setting 'orthorhombic'
loop_
_space_group_symop_operation_xyz
x,y,z
1/4-x,1/4-y,z
x,1/4-y,1/4-z
1/4-x,y,1/4-z
-x,-y,-z
3/4+x,3/4+y,-z
-x,3/4+y,3/4+z
3/4+x,-y,3/4+z
x,1/2+y,1/2+z
1/4-x,3/4-y,1/2+z
x,3/4-y,3/4-z
1/4-x,1/2+y,3/4-z
-x,1/2-y,1/2-z
3/4+x,1/4+y,1/2-z
-x,1/4+y,1/4+z
3/4+x,1/2-y,1/4+z
1/2+x,y,1/2+z
3/4-x,1/4-y,1/2+z
1/2+x,1/4-y,3/4-z
3/4-x,y,3/4-z
1/2-x,-y,1/2-z
1/4+x,3/4+y,1/2-z
1/2-x,3/4+y,1/4+z
1/4+x,-y,1/4+z
1/2+x,1/2+y,z
3/4-x,3/4-y,z
1/2+x,3/4-y,1/4-z
3/4-x,1/2+y,1/4-z
1/2-x,1/2-y,-z
1/4+x,1/4+y,-z
1/2-x,1/4+y,3/4+z
1/4+x,1/2-y,3/4+z
loop_
_atom_site_type_symbol
_atom_site_label
_atom_site_fract_x
_atom_site_fract_y
_atom_site_fract_z
Si Si1 0.259939 0.375000 0.875000
Si Si2 0.056765 0.146823 0.696151
Si Si3 0.390096 0.015948 0.580961
Si Si4 0.049916 0.940029 0.225993
O O1 0.212466 0.290182 0.914578
O O2 0.295977 0.285803 0.829504
O O3 0.125000 0.125000 0.720199
O O4 0.054766 0.125000 0.625000
O O5 0.045623 0.295627 0.704579
O O6 0.009209 0.055257 0.729949
O O7 0.375000 0.875000 0.602698
O O8 0.363300 0.125000 0.625000
O O9 0.359648 0.034949 0.516093
#
# Coordination Sequence:
#
# PCOD9516109 Si02
#       4
#    16  32  32  32
#     4  10  26  42  69 106 135 182 242 278 356 414
#     4  10  23  41  68  99 130 178 232 280 345 428
#     4  10  25  44  70 101 139 182 235 286 347 420
#     4  11  23  43  70  96 141 179 223 291 352 406
#
# _framework density 21.885753999999999
#
# number of rings (size 3 to 8) (size 9 to 14) (size 15 to 20)
#    0.857    0.857    0.000    2.571   12.000    1.143 
#   10.286    0.000    0.000    0.000    0.000    0.000 
#    0.000    0.000    0.000    0.000    0.000    0.000 
#
# Total GULP energy -156439.536085 kJ/mol
# GULP energy per Si atom -5587.126289 kJ/mol
# Density = 2.183594 g / cm^3
# Si number density = 21.885754 Si / 1000 Ang^3
#
#
#
# Elastic Constant Matrix: (Units=GPa)
#
#
# Indices 1 2 3 4 5 6 
#
# 1 32.5603 0.4050 44.8111 0.0000 0.0000 0.0000
# 2 0.4050 137.1553 58.4751 0.0000 0.0000 0.0000
# 3 44.8111 58.4751 127.9551 0.0000 0.0000 0.0000
# 4 0.0000 0.0000 0.0000 26.1827 0.0000 0.0000
# 5 0.0000 0.0000 0.0000 0.0000 6.5645 0.0000
# 6 0.0000 0.0000 0.0000 0.0000 0.0000 15.0776
#
#
#
# Elastic Compliance Matrix: (Units=1/GPa)
#
#
# Indices 1 2 3 4 5 6 
#
# 1 0.075654 0.013752 -0.032779 0.000000 0.000000 0.000000
# 2 0.013752 0.011555 -0.010097 0.000000 0.000000 0.000000
# 3 -0.032779 -0.010097 0.023909 0.000000 0.000000 0.000000
# 4 0.000000 0.000000 0.000000 0.038193 0.000000 0.000000
# 5 0.000000 0.000000 0.000000 0.000000 0.152335 0.000000
# 6 0.000000 0.000000 0.000000 0.000000 0.000000 0.066324
#
#
# Mechanical properties :
#
#
# Convention : Reuss Voigt Hill
#
# Bulk Modulus (GPa) = 18.91449 56.11702 37.51576
# Shear Modulus (GPa) = 11.26530 22.49691 16.88111
#
# Velocity S-wave (km/s) = 2.27123 3.20961 2.78029
# Velocity P-wave (km/s) = 3.94197 6.27949 5.24267
#
# Compressibility (1/GPa) = 0.05286952
#
# Stress axis : x y z
#
# Youngs Moduli (GPa) = 13.21815 86.54262 41.82539
#
# Poissons Ratio (x) = -1.19011 1.37100
# Poissons Ratio (y) = -0.18177 0.42229
# Poissons Ratio (z) = 0.43328 0.87379
#
# Static dielectric constant tensor:
#      x y z
#    x 1.844700 0.000000 0.000000 
#    y 0.000000 1.772880 0.000000 
#    z 0.000000 0.000000 1.782500 
# 
# From -- ./inp_files/46550.got.cif
#   From: 2010.05.17/outbox.cif.g08.bks.cpg/sg70_24_cif.got.tgz:46550.got - 2010.06.03 15:57:51.
