data_PCOD9516826
_publ_section_title
;
Structure prediction by ZEFSAII (Michael W. Deem and Ramdas Pophale) SiO2 
 PCOD9516826
Probable space group: F D D D
;
_chemical_formula_sum "Si O2"
_cell_formula_units_Z 128
_cell_length_a 14.241545
_cell_length_b 15.574508
_cell_length_c 28.604472
_cell_angle_alpha 90.000000
_cell_angle_beta 90.000000
_cell_angle_gamma 90.000000
_cell_volume 6344.616529
_symmetry_space_group_name_H-M "F D D D"
_symmetry_group_IT_number 70
_space_group.IT_coordinate_system_code '2'
_symmetry_cell_setting 'orthorhombic'
loop_
_space_group_symop_operation_xyz
x,y,z
1/4-x,1/4-y,z
x,1/4-y,1/4-z
1/4-x,y,1/4-z
-x,-y,-z
3/4+x,3/4+y,-z
-x,3/4+y,3/4+z
3/4+x,-y,3/4+z
x,1/2+y,1/2+z
1/4-x,3/4-y,1/2+z
x,3/4-y,3/4-z
1/4-x,1/2+y,3/4-z
-x,1/2-y,1/2-z
3/4+x,1/4+y,1/2-z
-x,1/4+y,1/4+z
3/4+x,1/2-y,1/4+z
1/2+x,y,1/2+z
3/4-x,1/4-y,1/2+z
1/2+x,1/4-y,3/4-z
3/4-x,y,3/4-z
1/2-x,-y,1/2-z
1/4+x,3/4+y,1/2-z
1/2-x,3/4+y,1/4+z
1/4+x,-y,1/4+z
1/2+x,1/2+y,z
3/4-x,3/4-y,z
1/2+x,3/4-y,1/4-z
3/4-x,1/2+y,1/4-z
1/2-x,1/2-y,-z
1/4+x,1/4+y,-z
1/2-x,1/4+y,3/4+z
1/4+x,1/2-y,3/4+z
loop_
_atom_site_type_symbol
_atom_site_label
_atom_site_fract_x
_atom_site_fract_y
_atom_site_fract_z
Si Si1 0.875000 0.375000 0.960195
Si Si2 0.161243 0.784772 0.473177
Si Si3 0.345180 0.776238 0.631261
Si Si4 0.212424 0.766740 0.270103
Si Si5 0.763285 0.625000 0.625000
O O1 0.792860 0.390597 0.922570
O O2 0.864102 0.455890 0.994565
O O3 0.250000 0.750000 0.500000
O O4 0.182574 0.754972 0.420211
O O5 0.170461 0.887463 0.478951
O O6 0.062684 0.746870 0.493526
O O7 0.375000 0.875000 0.629861
O O8 0.277525 0.761913 0.675599
O O9 0.430638 0.710352 0.638356
#
# Coordination Sequence:
#
# PCOD9516826 Si02
#       5
#    16  32  32  32  16
#     4  11  24  42  74 106 134 178 228 295 366 404
#     4  12  27  47  67 100 145 186 235 290 350 422
#     4  12  24  43  69 101 140 182 230 288 350 423
#     4  12  24  45  75 100 136 185 237 293 352 430
#     4  11  24  46  68 105 148 170 229 302 348 413
#
# _framework density 20.174583999999999
#
# number of rings (size 3 to 8) (size 9 to 14) (size 15 to 20)
#    0.000    0.250    6.250    2.250    3.500    3.000 
#    0.000    2.500    0.000    0.000    0.000    0.000 
#    0.000    0.000    0.000    0.000    0.000    0.000 
#
# Total GULP energy -178327.444087 kJ/mol
# GULP energy per Si atom -5572.732628 kJ/mol
# Density = 2.012867 g / cm^3
# Si number density = 20.174584 Si / 1000 Ang^3
#
#
#
# Elastic Constant Matrix: (Units=GPa)
#
#
# Indices 1 2 3 4 5 6 
#
# 1 49.4659 12.7670 31.9037 0.0000 0.0000 0.0000
# 2 12.7670 143.0306 32.5004 0.0000 0.0000 0.0000
# 3 31.9037 32.5004 176.3001 0.0000 0.0000 0.0000
# 4 0.0000 0.0000 0.0000 34.6749 0.0000 0.0000
# 5 0.0000 0.0000 0.0000 0.0000 -72.1234 0.0000
# 6 0.0000 0.0000 0.0000 0.0000 0.0000 23.0219
#
#
#
# Elastic Compliance Matrix: (Units=1/GPa)
#
#
# Indices 1 2 3 4 5 6 
#
# 1 0.023070 -0.001159 -0.003961 0.000000 0.000000 0.000000
# 2 -0.001159 0.007355 -0.001146 0.000000 0.000000 0.000000
# 3 -0.003961 -0.001146 0.006600 0.000000 0.000000 0.000000
# 4 0.000000 0.000000 0.000000 0.028839 0.000000 0.000000
# 5 0.000000 0.000000 0.000000 0.000000 -0.013865 0.000000
# 6 0.000000 0.000000 0.000000 0.000000 0.000000 0.043437
#
#
# Mechanical properties :
#
#
# Convention : Reuss Voigt Hill
#
# Bulk Modulus (GPa) = 40.82855 58.12653 49.47754
# Shear Modulus (GPa) = 43.05378 16.55636 29.80507
#
# Velocity S-wave (km/s) = 4.62460 2.86781 3.84781
# Velocity P-wave (km/s) = 6.98552 6.31190 6.65724
#
# Compressibility (1/GPa) = 0.02449267
#
# Stress axis : x y z
#
# Youngs Moduli (GPa) = 43.34658 135.95410 151.50939
#
# Poissons Ratio (x) = 0.15759 0.60014
# Poissons Ratio (y) = 0.05025 0.17366
# Poissons Ratio (z) = 0.17170 0.15583
#
# Static dielectric constant tensor:
#      x y z
#    x 1.700540 0.000000 0.000000 
#    y 0.000000 1.714860 0.000000 
#    z 0.000000 0.000000 1.692140 
# 
# From -- ./inp_files/58307.got.cif
#   From: 2010.05.17/outbox.cif.g08.bks.cpg/sg70_30_cif.got.tgz:58307.got - 2010.06.03 15:57:51.
