data_PCOD9516707
_publ_section_title
;
Structure prediction by ZEFSAII (Michael W. Deem and Ramdas Pophale) SiO2 
 PCOD9516707
Probable space group: F D D D
;
_chemical_formula_sum "Si O2"
_cell_formula_units_Z 160
_cell_length_a 15.185498
_cell_length_b 24.593029
_cell_length_c 18.210310
_cell_angle_alpha 90.000000
_cell_angle_beta 90.000000
_cell_angle_gamma 90.000000
_cell_volume 6800.774893
_symmetry_space_group_name_H-M "F D D D"
_symmetry_group_IT_number 70
_space_group.IT_coordinate_system_code '2'
_symmetry_cell_setting 'orthorhombic'
loop_
_space_group_symop_operation_xyz
x,y,z
1/4-x,1/4-y,z
x,1/4-y,1/4-z
1/4-x,y,1/4-z
-x,-y,-z
3/4+x,3/4+y,-z
-x,3/4+y,3/4+z
3/4+x,-y,3/4+z
x,1/2+y,1/2+z
1/4-x,3/4-y,1/2+z
x,3/4-y,3/4-z
1/4-x,1/2+y,3/4-z
-x,1/2-y,1/2-z
3/4+x,1/4+y,1/2-z
-x,1/4+y,1/4+z
3/4+x,1/2-y,1/4+z
1/2+x,y,1/2+z
3/4-x,1/4-y,1/2+z
1/2+x,1/4-y,3/4-z
3/4-x,y,3/4-z
1/2-x,-y,1/2-z
1/4+x,3/4+y,1/2-z
1/2-x,3/4+y,1/4+z
1/4+x,-y,1/4+z
1/2+x,1/2+y,z
3/4-x,3/4-y,z
1/2+x,3/4-y,1/4-z
3/4-x,1/2+y,1/4-z
1/2-x,1/2-y,-z
1/4+x,1/4+y,-z
1/2-x,1/4+y,3/4+z
1/4+x,1/2-y,3/4+z
loop_
_atom_site_type_symbol
_atom_site_label
_atom_site_fract_x
_atom_site_fract_y
_atom_site_fract_z
Si Si1 0.125000 0.625000 0.249090
Si Si2 0.541209 0.372555 0.170234
Si Si3 0.876026 0.173285 0.067187
Si Si4 0.457331 0.980969 0.154532
Si Si5 0.625000 0.545959 0.625000
Si Si6 0.834209 0.934572 0.950783
O O1 0.205412 0.652119 0.294473
O O2 0.164408 0.581740 0.191125
O O3 0.625000 0.396602 0.125000
O O4 0.587361 0.342548 0.238497
O O5 0.488128 0.327916 0.122886
O O6 0.853210 0.125000 0.125000
O O7 0.843325 0.231249 0.097090
O O8 0.980845 0.176111 0.060457
O O9 0.404219 0.973555 0.229584
O O10 0.549868 0.011419 0.162951
O O11 0.875000 0.955571 0.875000
O O12 0.875000 0.875000 0.965318
#
# Coordination Sequence:
#
# PCOD9516707 Si02
#       6
#    16  32  32  32  16  32
#     4  11  26  42  74 106 151 196 242 320 381 458
#     4  12  25  44  71 108 149 195 254 310 386 450
#     4  12  24  48  73 100 147 199 244 316 388 450
#     4  12  25  42  76 107 140 193 253 316 378 455
#     4  11  22  48  70 108 146 184 248 316 389 424
#     4  11  25  50  72 101 151 203 248 306 386 463
#
# _framework density 23.526731999999999
#
# number of rings (size 3 to 8) (size 9 to 14) (size 15 to 20)
#    0.000    0.400    7.000    1.800    4.200    0.800 
#    0.000    4.000    0.000    0.000    0.000    0.000 
#    0.000    0.000    0.000    0.000    0.000    0.000 
#
# Total GULP energy -223612.651727 kJ/mol
# GULP energy per Si atom -5590.316293 kJ/mol
# Density = 2.347318 g / cm^3
# Si number density = 23.526732 Si / 1000 Ang^3
#
#
#
# Elastic Constant Matrix: (Units=GPa)
#
#
# Indices 1 2 3 4 5 6 
#
# 1 133.7213 0.5027 37.4745 0.0000 0.0000 0.0000
# 2 0.5027 33.7751 12.8458 0.0000 0.0000 0.0000
# 3 37.4745 12.8458 137.6111 0.0000 0.0000 0.0000
# 4 0.0000 0.0000 0.0000 66.6136 0.0000 0.0000
# 5 0.0000 0.0000 0.0000 0.0000 53.1401 0.0000
# 6 0.0000 0.0000 0.0000 0.0000 0.0000 36.0918
#
#
#
# Elastic Compliance Matrix: (Units=1/GPa)
#
#
# Indices 1 2 3 4 5 6 
#
# 1 0.008114 0.000746 -0.002279 0.000000 0.000000 0.000000
# 2 0.000746 0.030766 -0.003075 0.000000 0.000000 0.000000
# 3 -0.002279 -0.003075 0.008175 0.000000 0.000000 0.000000
# 4 0.000000 0.000000 0.000000 0.015012 0.000000 0.000000
# 5 0.000000 0.000000 0.000000 0.000000 0.018818 0.000000
# 6 0.000000 0.000000 0.000000 0.000000 0.000000 0.027707
#
#
# Mechanical properties :
#
#
# Convention : Reuss Voigt Hill
#
# Bulk Modulus (GPa) = 26.42829 45.19484 35.81156
# Shear Modulus (GPa) = 38.33718 48.12139 43.22929
#
# Velocity S-wave (km/s) = 4.04111 4.52751 4.29120
# Velocity P-wave (km/s) = 5.74732 6.82516 6.30930
#
# Compressibility (1/GPa) = 0.03783824
#
# Stress axis : x y z
#
# Youngs Moduli (GPa) = 123.24071 32.50327 122.32968
#
# Poissons Ratio (x) = -0.02425 0.27883
# Poissons Ratio (y) = -0.09195 0.37618
# Poissons Ratio (z) = 0.28091 0.09995
#
# Static dielectric constant tensor:
#      x y z
#    x 1.898580 0.000000 0.000000 
#    y 0.000000 1.902410 0.000000 
#    z 0.000000 0.000000 1.966750 
# 
# From -- ./inp_files/33996.got.cif
#   From: 2010.05.17/outbox.cif.g08.bks.cpg/sg70_17_cif.got.tgz:33996.got - 2010.06.03 15:57:51.
