data_PCOD9516136
_publ_section_title
;
Structure prediction by ZEFSAII (Michael W. Deem and Ramdas Pophale) SiO2 
 PCOD9516136
Probable space group: F D D D
;
_chemical_formula_sum "Si O2"
_cell_formula_units_Z 160
_cell_length_a 31.266844
_cell_length_b 8.893451
_cell_length_c 26.833657
_cell_angle_alpha 90.000000
_cell_angle_beta 90.000000
_cell_angle_gamma 90.000000
_cell_volume 7461.638894
_symmetry_space_group_name_H-M "F D D D"
_symmetry_group_IT_number 70
_space_group.IT_coordinate_system_code '2'
_symmetry_cell_setting 'orthorhombic'
loop_
_space_group_symop_operation_xyz
x,y,z
1/4-x,1/4-y,z
x,1/4-y,1/4-z
1/4-x,y,1/4-z
-x,-y,-z
3/4+x,3/4+y,-z
-x,3/4+y,3/4+z
3/4+x,-y,3/4+z
x,1/2+y,1/2+z
1/4-x,3/4-y,1/2+z
x,3/4-y,3/4-z
1/4-x,1/2+y,3/4-z
-x,1/2-y,1/2-z
3/4+x,1/4+y,1/2-z
-x,1/4+y,1/4+z
3/4+x,1/2-y,1/4+z
1/2+x,y,1/2+z
3/4-x,1/4-y,1/2+z
1/2+x,1/4-y,3/4-z
3/4-x,y,3/4-z
1/2-x,-y,1/2-z
1/4+x,3/4+y,1/2-z
1/2-x,3/4+y,1/4+z
1/4+x,-y,1/4+z
1/2+x,1/2+y,z
3/4-x,3/4-y,z
1/2+x,3/4-y,1/4-z
3/4-x,1/2+y,1/4-z
1/2-x,1/2-y,-z
1/4+x,1/4+y,-z
1/2-x,1/4+y,3/4+z
1/4+x,1/2-y,3/4+z
loop_
_atom_site_type_symbol
_atom_site_label
_atom_site_fract_x
_atom_site_fract_y
_atom_site_fract_z
Si Si1 0.937918 0.625000 0.625000
Si Si2 0.325625 0.707946 0.893450
Si Si3 0.504935 0.006803 0.745832
Si Si4 0.125000 0.625000 0.332310
Si Si5 0.439943 0.739586 0.737502
Si Si6 0.270316 0.747634 0.427905
O O1 0.907848 0.484385 0.639491
O O2 0.972241 0.547474 0.587379
O O3 0.375000 0.687539 0.875000
O O4 0.320094 0.719108 0.953536
O O5 0.297206 0.578723 0.866413
O O6 0.312148 0.875000 0.875000
O O7 0.471521 0.881070 0.727151
O O8 0.536215 0.909702 0.779747
O O9 0.533122 0.098556 0.705918
O O10 0.479813 0.123676 0.779225
O O11 0.149087 0.513628 0.295062
#
# Coordination Sequence:
#
# PCOD9516136 Si02
#       6
#    16  32  32  16  32  32
#     4  12  28  46  69  98 136 182 237 290 346 420
#     4  11  23  40  71 105 138 182 230 281 344 422
#     4  10  23  42  70  96 138 181 228 282 348 408
#     4  12  28  46  71  98 140 180 237 294 348 418
#     4  11  23  45  66 101 135 181 226 284 349 414
#     4  11  23  45  69 103 135 181 231 286 344 417
#
# _framework density 21.443010999999998
#
# number of rings (size 3 to 8) (size 9 to 14) (size 15 to 20)
#    0.000    1.000    4.000    2.400    5.600    0.000 
#    0.000    6.500    0.000    0.000    0.000    0.000 
#    0.000    0.000    0.000    0.000    0.000    0.000 
#
# Total GULP energy -222891.979382 kJ/mol
# GULP energy per Si atom -5572.299485 kJ/mol
# Density = 2.139421 g / cm^3
# Si number density = 21.443011 Si / 1000 Ang^3
#
#
#
# Elastic Constant Matrix: (Units=GPa)
#
#
# Indices 1 2 3 4 5 6 
#
# 1 60.3445 29.9965 -0.8907 0.0000 0.0000 0.0001
# 2 29.9965 130.7036 34.9090 0.0000 0.0000 0.0001
# 3 -0.8907 34.9090 45.9010 0.0000 0.0000 0.0000
# 4 0.0000 0.0000 0.0000 39.0647 0.0000 -0.0001
# 5 0.0000 0.0000 0.0000 0.0000 33.4464 0.0000
# 6 0.0001 0.0001 0.0000 -0.0001 0.0000 32.1709
#
#
#
# Elastic Compliance Matrix: (Units=1/GPa)
#
#
# Indices 1 2 3 4 5 6 
#
# 1 0.019496 -0.005742 0.004745 0.000000 0.000000 0.000000
# 2 -0.005742 0.011292 -0.008699 0.000000 0.000000 0.000000
# 3 0.004745 -0.008699 0.028494 0.000000 0.000000 0.000000
# 4 0.000000 0.000000 0.000000 0.025599 0.000000 0.000000
# 5 0.000000 0.000000 0.000000 0.000000 0.029899 0.000000
# 6 0.000000 0.000000 0.000000 0.000000 0.000000 0.031084
#
#
# Mechanical properties :
#
#
# Convention : Reuss Voigt Hill
#
# Bulk Modulus (GPa) = 25.06898 40.55319 32.81109
# Shear Modulus (GPa) = 28.00313 32.46536 30.23424
#
# Velocity S-wave (km/s) = 3.61769 3.89528 3.75905
# Velocity P-wave (km/s) = 5.40061 6.25971 5.84597
#
# Compressibility (1/GPa) = 0.03988993
#
# Stress axis : x y z
#
# Youngs Moduli (GPa) = 51.29354 88.55783 35.09491
#
# Poissons Ratio (x) = 0.50846 -0.16652
# Poissons Ratio (y) = 0.29450 0.30530
# Poissons Ratio (z) = -0.24338 0.77039
#
# Static dielectric constant tensor:
#      x y z
#    x 1.797760 0.000000 0.000000 
#    y 0.000000 1.770100 0.000000 
#    z 0.000000 0.000000 1.805690 
# 
# From -- ./inp_files/68861.got.cif
#   From: 2010.05.17/outbox.cif.g08.bks.cpg/sg70_35_cif.got.tgz:68861.got - 2010.06.03 15:57:51.
