data_PCOD9516976
_publ_section_title
;
Structure prediction by ZEFSAII (Michael W. Deem and Ramdas Pophale) SiO2 
 PCOD9516976
Probable space group: F D D D
;
_chemical_formula_sum "Si O2"
_cell_formula_units_Z 136
_cell_length_a 14.012184
_cell_length_b 12.553114
_cell_length_c 27.979490
_cell_angle_alpha 90.000000
_cell_angle_beta 90.000000
_cell_angle_gamma 90.000000
_cell_volume 4921.495570
_symmetry_space_group_name_H-M "F D D D"
_symmetry_group_IT_number 70
_space_group.IT_coordinate_system_code '2'
_symmetry_cell_setting 'orthorhombic'
loop_
_space_group_symop_operation_xyz
x,y,z
1/4-x,1/4-y,z
x,1/4-y,1/4-z
1/4-x,y,1/4-z
-x,-y,-z
3/4+x,3/4+y,-z
-x,3/4+y,3/4+z
3/4+x,-y,3/4+z
x,1/2+y,1/2+z
1/4-x,3/4-y,1/2+z
x,3/4-y,3/4-z
1/4-x,1/2+y,3/4-z
-x,1/2-y,1/2-z
3/4+x,1/4+y,1/2-z
-x,1/4+y,1/4+z
3/4+x,1/2-y,1/4+z
1/2+x,y,1/2+z
3/4-x,1/4-y,1/2+z
1/2+x,1/4-y,3/4-z
3/4-x,y,3/4-z
1/2-x,-y,1/2-z
1/4+x,3/4+y,1/2-z
1/2-x,3/4+y,1/4+z
1/4+x,-y,1/4+z
1/2+x,1/2+y,z
3/4-x,3/4-y,z
1/2+x,3/4-y,1/4-z
3/4-x,1/2+y,1/4-z
1/2-x,1/2-y,-z
1/4+x,1/4+y,-z
1/2-x,1/4+y,3/4+z
1/4+x,1/2-y,3/4+z
loop_
_atom_site_type_symbol
_atom_site_label
_atom_site_fract_x
_atom_site_fract_y
_atom_site_fract_z
Si Si1 0.257215 0.133054 0.951758
Si Si2 0.849468 0.244834 0.120286
Si Si3 0.265961 0.870994 0.311496
Si Si4 0.705604 0.294759 0.049091
Si Si5 0.875000 0.375000 0.875000
O O1 0.200072 0.056560 0.915794
O O2 0.228381 0.255254 0.938686
O O3 0.373181 0.133178 0.953643
O O4 0.234213 0.094923 0.005264
O O5 0.948478 0.204774 0.093218
O O6 0.952481 0.434692 0.080332
O O7 0.804111 0.125000 0.125000
O O8 0.375000 0.875000 0.326813
O O9 0.651936 0.211853 0.083156
O O10 0.750000 0.250000 0.000000
#
# Coordination Sequence:
#
# PCOD9516976 Si02
#       5
#    32  32  32  32   8
#     4  11  26  51  93 132 187 248 314 398 485 579
#     4  12  26  53  88 129 180 245 315 397 469 565
#     4  11  29  56  85 128 190 252 317 385 492 590
#     4  12  23  47  86 131 181 242 310 385 479 572
#     4  12  24  48  80 128 196 232 312 384 460 562
#
# _framework density 27.633876999999998
#
# number of rings (size 3 to 8) (size 9 to 14) (size 15 to 20)
#    0.000    0.471    5.882    0.000    6.588    2.353 
#   12.706    0.000    0.000    0.000    0.000    0.000 
#    0.000    0.000    0.000    0.000    0.000    0.000 
#
# Total GULP energy -189324.668844 kJ/mol
# GULP energy per Si atom -5568.372613 kJ/mol
# Density = 2.757098 g / cm^3
# Si number density = 27.633877 Si / 1000 Ang^3
#
#
#
# Elastic Constant Matrix: (Units=GPa)
#
#
# Indices 1 2 3 4 5 6 
#
# 1 156.2821 42.6824 63.0337 0.0000 0.0000 0.0000
# 2 42.6824 160.5021 68.3873 0.0000 0.0000 0.0000
# 3 63.0337 68.3873 314.1135 0.0000 0.0000 0.0000
# 4 0.0000 0.0000 0.0000 14.6592 0.0000 0.0000
# 5 0.0000 0.0000 0.0000 0.0000 25.3975 0.0000
# 6 0.0000 0.0000 0.0000 0.0000 0.0000 61.6390
#
#
#
# Elastic Compliance Matrix: (Units=1/GPa)
#
#
# Indices 1 2 3 4 5 6 
#
# 1 0.007253 -0.001442 -0.001141 0.000000 0.000000 0.000000
# 2 -0.001442 0.007154 -0.001268 0.000000 0.000000 0.000000
# 3 -0.001141 -0.001268 0.003689 0.000000 0.000000 0.000000
# 4 0.000000 0.000000 0.000000 0.068217 0.000000 0.000000
# 5 0.000000 0.000000 0.000000 0.000000 0.039374 0.000000
# 6 0.000000 0.000000 0.000000 0.000000 0.000000 0.016224
#
#
# Mechanical properties :
#
#
# Convention : Reuss Voigt Hill
#
# Bulk Modulus (GPa) = 96.22767 108.78940 102.50853
# Shear Modulus (GPa) = 32.66305 50.79208 41.72757
#
# Velocity S-wave (km/s) = 3.44174 4.29188 3.89011
# Velocity P-wave (km/s) = 7.11984 8.00087 7.57318
#
# Compressibility (1/GPa) = 0.01039202
#
# Stress axis : x y z
#
# Youngs Moduli (GPa) = 137.87376 139.77444 271.09722
#
# Poissons Ratio (x) = 0.20162 0.30944
# Poissons Ratio (y) = 0.19888 0.34379
# Poissons Ratio (z) = 0.15737 0.17726
#
# Static dielectric constant tensor:
#      x y z
#    x 2.988500 0.000000 0.000000 
#    y 0.000000 2.223840 0.000000 
#    z 0.000000 0.000000 2.216220 
# 
# From -- ./inp_files/67105.got.cif
#   From: 2010.05.17/outbox.cif.g08.bks.cpg/sg70_34_cif.got.tgz:67105.got - 2010.06.03 15:57:51.
