data_PCOD9516327
_publ_section_title
;
Structure prediction by ZEFSAII (Michael W. Deem and Ramdas Pophale) SiO2 
 PCOD9516327
Probable space group: F D D D
;
_chemical_formula_sum "Si O2"
_cell_formula_units_Z 176
_cell_length_a 15.222041
_cell_length_b 14.976019
_cell_length_c 32.439211
_cell_angle_alpha 90.000000
_cell_angle_beta 90.000000
_cell_angle_gamma 90.000000
_cell_volume 7395.023396
_symmetry_space_group_name_H-M "F D D D"
_symmetry_group_IT_number 70
_space_group.IT_coordinate_system_code '2'
_symmetry_cell_setting 'orthorhombic'
loop_
_space_group_symop_operation_xyz
x,y,z
1/4-x,1/4-y,z
x,1/4-y,1/4-z
1/4-x,y,1/4-z
-x,-y,-z
3/4+x,3/4+y,-z
-x,3/4+y,3/4+z
3/4+x,-y,3/4+z
x,1/2+y,1/2+z
1/4-x,3/4-y,1/2+z
x,3/4-y,3/4-z
1/4-x,1/2+y,3/4-z
-x,1/2-y,1/2-z
3/4+x,1/4+y,1/2-z
-x,1/4+y,1/4+z
3/4+x,1/2-y,1/4+z
1/2+x,y,1/2+z
3/4-x,1/4-y,1/2+z
1/2+x,1/4-y,3/4-z
3/4-x,y,3/4-z
1/2-x,-y,1/2-z
1/4+x,3/4+y,1/2-z
1/2-x,3/4+y,1/4+z
1/4+x,-y,1/4+z
1/2+x,1/2+y,z
3/4-x,3/4-y,z
1/2+x,3/4-y,1/4-z
3/4-x,1/2+y,1/4-z
1/2-x,1/2-y,-z
1/4+x,1/4+y,-z
1/2-x,1/4+y,3/4+z
1/4+x,1/2-y,3/4+z
loop_
_atom_site_type_symbol
_atom_site_label
_atom_site_fract_x
_atom_site_fract_y
_atom_site_fract_z
Si Si1 0.597875 0.745657 0.798752
Si Si2 0.271407 0.855804 0.828063
Si Si3 0.875000 0.375000 0.463846
Si Si4 0.557435 0.957002 0.569595
Si Si5 0.018632 0.453709 0.231689
Si Si6 0.492539 0.827361 0.094642
O O1 0.532046 0.827552 0.799016
O O2 0.651817 0.746613 0.755875
O O3 0.542899 0.661944 0.817785
O O4 0.678760 0.752069 0.830632
O O5 0.243237 0.875000 0.875000
O O6 0.375000 0.875000 0.826821
O O7 0.255425 0.757830 0.810447
O O8 0.940939 0.437067 0.437748
O O9 0.818679 0.444211 0.491182
O O10 0.540193 0.898106 0.529488
O O11 0.656946 0.935115 0.582878
O O12 0.493528 0.923181 0.605962
#
# Coordination Sequence:
#
# PCOD9516327 Si02
#       6
#    32  32  16  32  32  32
#     4  11  24  44  71 108 139 190 245 297 373 438
#     4  11  26  46  72 107 144 188 240 302 373 443
#     4  12  26  45  70 112 142 202 244 304 372 426
#     4  11  24  47  70 102 150 192 244 305 364 439
#     4  12  26  44  73 107 149 187 247 311 367 440
#     4  10  24  45  72 102 140 194 244 299 369 440
#
# _framework density 23.799790999999999
#
# number of rings (size 3 to 8) (size 9 to 14) (size 15 to 20)
#    0.000    0.909    1.818    3.818    2.545   10.182 
#    0.000    0.000    0.000    0.000    0.000    0.000 
#    0.000    0.000    0.000    0.000    0.000    0.000 
#
# Total GULP energy -245755.489228 kJ/mol
# GULP energy per Si atom -5585.352028 kJ/mol
# Density = 2.374562 g / cm^3
# Si number density = 23.799791 Si / 1000 Ang^3
#
#
#
# Elastic Constant Matrix: (Units=GPa)
#
#
# Indices 1 2 3 4 5 6 
#
# 1 58.0490 4.5345 18.4987 0.0000 0.0000 0.0000
# 2 4.5345 114.0001 38.3142 0.0000 0.0000 0.0000
# 3 18.4987 38.3142 112.8268 0.0000 0.0000 0.0000
# 4 0.0000 0.0000 0.0000 58.0868 0.0000 0.0000
# 5 0.0000 0.0000 0.0000 0.0000 1.2557 0.0000
# 6 0.0000 0.0000 0.0000 0.0000 0.0000 35.4912
#
#
#
# Elastic Compliance Matrix: (Units=1/GPa)
#
#
# Indices 1 2 3 4 5 6 
#
# 1 0.018187 0.000315 -0.003089 0.000000 0.000000 0.000000
# 2 0.000315 0.009907 -0.003416 0.000000 0.000000 0.000000
# 3 -0.003089 -0.003416 0.010530 0.000000 0.000000 0.000000
# 4 0.000000 0.000000 0.000000 0.017216 0.000000 0.000000
# 5 0.000000 0.000000 0.000000 0.000000 0.796380 0.000000
# 6 0.000000 0.000000 0.000000 0.000000 0.000000 0.028176
#
#
# Mechanical properties :
#
#
# Convention : Reuss Voigt Hill
#
# Bulk Modulus (GPa) = 38.10456 45.28564 41.69510
# Shear Modulus (GPa) = 5.54617 33.86863 19.70740
#
# Velocity S-wave (km/s) = 1.52820 3.77644 2.88071
# Velocity P-wave (km/s) = 4.37711 6.17126 5.34993
#
# Compressibility (1/GPa) = 0.02624358
#
# Stress axis : x y z
#
# Youngs Moduli (GPa) = 54.98577 100.93375 94.97058
#
# Poissons Ratio (x) = -0.03176 0.29333
# Poissons Ratio (y) = -0.01730 0.32442
# Poissons Ratio (z) = 0.16983 0.34479
#
# Static dielectric constant tensor:
#      x y z
#    x 1.904810 0.000000 0.000000 
#    y 0.000000 1.973920 0.000000 
#    z 0.000000 0.000000 2.024670 
# 
# From -- ./inp_files/66640.got.cif
#   From: 2010.05.17/outbox.cif.g08.bks.cpg/sg70_34_cif.got.tgz:66640.got - 2010.06.03 15:57:51.
