data_PCOD9516551
_publ_section_title
;
Structure prediction by ZEFSAII (Michael W. Deem and Ramdas Pophale) SiO2 
 PCOD9516551
Probable space group: F D D D
;
_chemical_formula_sum "Si O2"
_cell_formula_units_Z 168
_cell_length_a 14.992156
_cell_length_b 25.055043
_cell_length_c 19.888504
_cell_angle_alpha 90.000000
_cell_angle_beta 90.000000
_cell_angle_gamma 90.000000
_cell_volume 7470.701121
_symmetry_space_group_name_H-M "F D D D"
_symmetry_group_IT_number 70
_space_group.IT_coordinate_system_code '2'
_symmetry_cell_setting 'orthorhombic'
loop_
_space_group_symop_operation_xyz
x,y,z
1/4-x,1/4-y,z
x,1/4-y,1/4-z
1/4-x,y,1/4-z
-x,-y,-z
3/4+x,3/4+y,-z
-x,3/4+y,3/4+z
3/4+x,-y,3/4+z
x,1/2+y,1/2+z
1/4-x,3/4-y,1/2+z
x,3/4-y,3/4-z
1/4-x,1/2+y,3/4-z
-x,1/2-y,1/2-z
3/4+x,1/4+y,1/2-z
-x,1/4+y,1/4+z
3/4+x,1/2-y,1/4+z
1/2+x,y,1/2+z
3/4-x,1/4-y,1/2+z
1/2+x,1/4-y,3/4-z
3/4-x,y,3/4-z
1/2-x,-y,1/2-z
1/4+x,3/4+y,1/2-z
1/2-x,3/4+y,1/4+z
1/4+x,-y,1/4+z
1/2+x,1/2+y,z
3/4-x,3/4-y,z
1/2+x,3/4-y,1/4-z
3/4-x,1/2+y,1/4-z
1/2-x,1/2-y,-z
1/4+x,1/4+y,-z
1/2-x,1/4+y,3/4+z
1/4+x,1/2-y,3/4+z
loop_
_atom_site_type_symbol
_atom_site_label
_atom_site_fract_x
_atom_site_fract_y
_atom_site_fract_z
Si Si1 0.968285 0.310824 0.254945
Si Si2 0.781964 0.845391 0.257501
Si Si3 0.120663 0.688077 0.885534
Si Si4 0.219430 0.750547 0.157862
Si Si5 0.125000 0.625000 0.625000
Si Si6 0.639195 0.353939 0.205209
O O1 0.899240 0.309842 0.193202
O O2 0.929361 0.335581 0.324005
O O3 0.000000 0.250000 0.250000
O O4 0.047536 0.349979 0.232732
O O5 0.875000 0.875000 0.277057
O O6 0.798967 0.803705 0.194485
O O7 0.745904 0.804886 0.313367
O O8 0.706768 0.888373 0.239164
O O9 0.125000 0.625000 0.896638
O O10 0.209294 0.722840 0.892422
O O11 0.125000 0.737481 0.125000
O O12 0.190606 0.797655 0.209909
O O13 0.625000 0.361439 0.125000
#
# Coordination Sequence:
#
# PCOD9516551 Si02
#       6
#    32  32  32  32   8  32
#     4  12  25  41  71 104 141 182 229 289 366 440
#     4  11  24  41  67  97 128 178 233 287 344 414
#     4  11  20  43  67  90 130 172 225 285 339 418
#     4  11  23  40  65  96 133 176 224 288 351 421
#     4  12  28  48  64 108 162 184 230 308 366 432
#     4  11  21  43  70  98 129 178 237 281 344 432
#
# _framework density 22.487849000000001
#
# number of rings (size 3 to 8) (size 9 to 14) (size 15 to 20)
#    0.000    0.762    4.762    4.571    1.333    6.476 
#    0.000    1.905    0.000    0.000    0.000    0.000 
#    0.000    0.000    0.000    0.000    0.000    0.000 
#
# Total GULP energy -234049.936952 kJ/mol
# GULP energy per Si atom -5572.617546 kJ/mol
# Density = 2.243667 g / cm^3
# Si number density = 22.487849 Si / 1000 Ang^3
#
#
#
# Elastic Constant Matrix: (Units=GPa)
#
#
# Indices 1 2 3 4 5 6 
#
# 1 58.0005 -0.0657 -7.8547 0.0000 0.0000 0.0000
# 2 -0.0657 113.5942 25.9622 0.0000 0.0000 0.0000
# 3 -7.8547 25.9622 49.9484 0.0000 0.0000 0.0000
# 4 0.0000 0.0000 0.0000 55.3829 0.0000 0.0000
# 5 0.0000 0.0000 0.0000 0.0000 26.7241 0.0000
# 6 0.0000 0.0000 0.0000 0.0000 0.0000 22.7031
#
#
#
# Elastic Compliance Matrix: (Units=1/GPa)
#
#
# Indices 1 2 3 4 5 6 
#
# 1 0.017667 -0.000709 0.003147 0.000000 0.000000 0.000000
# 2 -0.000709 0.010019 -0.005319 0.000000 0.000000 0.000000
# 3 0.003147 -0.005319 0.023280 0.000000 0.000000 0.000000
# 4 0.000000 0.000000 0.000000 0.018056 0.000000 0.000000
# 5 0.000000 0.000000 0.000000 0.000000 0.037419 0.000000
# 6 0.000000 0.000000 0.000000 0.000000 0.000000 0.044047
#
#
# Mechanical properties :
#
#
# Convention : Reuss Voigt Hill
#
# Bulk Modulus (GPa) = 22.12249 28.62517 25.37383
# Shear Modulus (GPa) = 29.18557 34.52878 31.85717
#
# Velocity S-wave (km/s) = 3.60646 3.92272 3.76791
# Velocity P-wave (km/s) = 5.21545 5.76835 5.49885
#
# Compressibility (1/GPa) = 0.04520287
#
# Stress axis : x y z
#
# Youngs Moduli (GPa) = 56.60407 99.81531 42.95505
#
# Poissons Ratio (x) = 0.07076 -0.13517
# Poissons Ratio (y) = 0.04013 0.22847
# Poissons Ratio (z) = -0.17811 0.53091
#
# Static dielectric constant tensor:
#      x y z
#    x 1.920940 0.000000 0.000000 
#    y 0.000000 1.281130 0.000000 
#    z 0.000000 0.000000 2.238780 
# 
# From -- ./inp_files/42829.got.cif
#   From: 2010.05.17/outbox.cif.g08.bks.cpg/sg70_22_cif.got.tgz:42829.got - 2010.06.03 15:57:51.
