data_PCOD9516007
_publ_section_title
;
Structure prediction by ZEFSAII (Michael W. Deem and Ramdas Pophale) SiO2 
 PCOD9516007
Probable space group: F D D D
;
_chemical_formula_sum "Si O2"
_cell_formula_units_Z 160
_cell_length_a 9.041393
_cell_length_b 26.677356
_cell_length_c 28.417788
_cell_angle_alpha 90.000000
_cell_angle_beta 90.000000
_cell_angle_gamma 90.000000
_cell_volume 6854.383532
_symmetry_space_group_name_H-M "F D D D"
_symmetry_group_IT_number 70
_space_group.IT_coordinate_system_code '2'
_symmetry_cell_setting 'orthorhombic'
loop_
_space_group_symop_operation_xyz
x,y,z
1/4-x,1/4-y,z
x,1/4-y,1/4-z
1/4-x,y,1/4-z
-x,-y,-z
3/4+x,3/4+y,-z
-x,3/4+y,3/4+z
3/4+x,-y,3/4+z
x,1/2+y,1/2+z
1/4-x,3/4-y,1/2+z
x,3/4-y,3/4-z
1/4-x,1/2+y,3/4-z
-x,1/2-y,1/2-z
3/4+x,1/4+y,1/2-z
-x,1/4+y,1/4+z
3/4+x,1/2-y,1/4+z
1/2+x,y,1/2+z
3/4-x,1/4-y,1/2+z
1/2+x,1/4-y,3/4-z
3/4-x,y,3/4-z
1/2-x,-y,1/2-z
1/4+x,3/4+y,1/2-z
1/2-x,3/4+y,1/4+z
1/4+x,-y,1/4+z
1/2+x,1/2+y,z
3/4-x,3/4-y,z
1/2+x,3/4-y,1/4-z
3/4-x,1/2+y,1/4-z
1/2-x,1/2-y,-z
1/4+x,1/4+y,-z
1/2-x,1/4+y,3/4+z
1/4+x,1/2-y,3/4+z
loop_
_atom_site_type_symbol
_atom_site_label
_atom_site_fract_x
_atom_site_fract_y
_atom_site_fract_z
Si Si1 0.875000 0.697807 0.375000
Si Si2 0.915784 0.481406 0.747495
Si Si3 0.642707 0.375000 0.875000
Si Si4 0.375000 0.375000 0.075574
Si Si5 0.183007 0.526105 0.794761
Si Si6 0.375000 0.875000 0.790548
Si Si7 0.084751 0.988520 0.855450
O O1 0.752240 0.657342 0.352951
O O2 0.753033 0.737914 0.395900
O O3 0.750000 0.500000 0.750000
O O4 0.902011 0.422883 0.758057
O O5 0.974308 0.495959 0.695678
O O6 0.012391 0.509022 0.787312
O O7 0.739695 0.372828 0.827390
O O8 0.569346 0.320775 0.883591
O O9 0.295621 0.335055 0.042319
O O10 0.250000 0.500000 0.750000
O O11 0.230210 0.512230 0.847196
#
# Coordination Sequence:
#
# PCOD9516007 Si02
#       7
#    16  32  16  16  32  16  32
#     4  10  22  45  68 104 136 183 230 296 348 422
#     4  12  24  41  70 108 138 180 243 294 352 425
#     4  11  20  40  72 103 142 177 218 299 362 393
#     4  10  24  43  72  92 140 181 232 286 354 414
#     4  11  27  46  64  98 144 188 231 287 349 426
#     4  11  22  37  72 103 138 179 226 294 356 408
#     4  11  23  42  71 103 144 179 238 293 353 423
#
# _framework density 23.342727
#
# number of rings (size 3 to 8) (size 9 to 14) (size 15 to 20)
#    0.000    1.000    4.000    3.600    0.000   12.000 
#    0.000    0.000    0.000    2.400    0.000    0.000 
#    0.000    0.000    0.000    0.000    0.000    0.000 
#
# Total GULP energy -222794.510081 kJ/mol
# GULP energy per Si atom -5569.862752 kJ/mol
# Density = 2.328960 g / cm^3
# Si number density = 23.342727 Si / 1000 Ang^3
#
#
#
# Elastic Constant Matrix: (Units=GPa)
#
#
# Indices 1 2 3 4 5 6 
#
# 1 83.8681 2.2658 25.2709 0.0000 0.0000 0.0000
# 2 2.2658 199.2151 57.9832 0.0000 0.0000 0.0000
# 3 25.2709 57.9832 163.1290 0.0000 0.0000 0.0000
# 4 0.0000 0.0000 0.0000 44.5471 0.0000 0.0000
# 5 0.0000 0.0000 0.0000 0.0000 25.8521 0.0000
# 6 0.0000 0.0000 0.0000 0.0000 0.0000 -13.9782
#
#
#
# Elastic Compliance Matrix: (Units=1/GPa)
#
#
# Indices 1 2 3 4 5 6 
#
# 1 0.012547 0.000472 -0.002111 0.000000 0.000000 0.000000
# 2 0.000472 0.005617 -0.002070 0.000000 0.000000 0.000000
# 3 -0.002111 -0.002070 0.007193 0.000000 0.000000 0.000000
# 4 0.000000 0.000000 0.000000 0.022448 0.000000 0.000000
# 5 0.000000 0.000000 0.000000 0.000000 0.038682 0.000000
# 6 0.000000 0.000000 0.000000 0.000000 0.000000 -0.071540
#
#
# Mechanical properties :
#
#
# Convention : Reuss Voigt Hill
#
# Bulk Modulus (GPa) = 55.74675 68.58355 62.16515
# Shear Modulus (GPa) = 176.40501 35.33035 105.86768
#
# Velocity S-wave (km/s) = 8.70263 3.89466 6.74181
# Velocity P-wave (km/s) = 11.17653 7.04765 9.34302
#
# Compressibility (1/GPa) = 0.01793827
#
# Stress axis : x y z
#
# Youngs Moduli (GPa) = 79.70072 178.04111 139.02802
#
# Poissons Ratio (x) = -0.08401 0.29354
# Poissons Ratio (y) = -0.03761 0.28772
# Poissons Ratio (z) = 0.16828 0.36846
#
# Static dielectric constant tensor:
#      x y z
#    x -0.508840 0.000000 0.000000 
#    y 0.000000 1.861890 0.000000 
#    z 0.000000 0.000000 1.877380 
# 
# From -- ./inp_files/57586.got.cif
#   From: 2010.05.17/outbox.cif.g08.bks.cpg/sg70_29_cif.got.tgz:57586.got - 2010.06.03 15:57:51.
