data_PCOD9516737
_publ_section_title
;
Structure prediction by ZEFSAII (Michael W. Deem and Ramdas Pophale) SiO2 
 PCOD9516737
Probable space group: F D D D
;
_chemical_formula_sum "Si O2"
_cell_formula_units_Z 208
_cell_length_a 25.311955
_cell_length_b 17.749033
_cell_length_c 20.258529
_cell_angle_alpha 90.000000
_cell_angle_beta 90.000000
_cell_angle_gamma 90.000000
_cell_volume 9101.401935
_symmetry_space_group_name_H-M "F D D D"
_symmetry_group_IT_number 70
_space_group.IT_coordinate_system_code '2'
_symmetry_cell_setting 'orthorhombic'
loop_
_space_group_symop_operation_xyz
x,y,z
1/4-x,1/4-y,z
x,1/4-y,1/4-z
1/4-x,y,1/4-z
-x,-y,-z
3/4+x,3/4+y,-z
-x,3/4+y,3/4+z
3/4+x,-y,3/4+z
x,1/2+y,1/2+z
1/4-x,3/4-y,1/2+z
x,3/4-y,3/4-z
1/4-x,1/2+y,3/4-z
-x,1/2-y,1/2-z
3/4+x,1/4+y,1/2-z
-x,1/4+y,1/4+z
3/4+x,1/2-y,1/4+z
1/2+x,y,1/2+z
3/4-x,1/4-y,1/2+z
1/2+x,1/4-y,3/4-z
3/4-x,y,3/4-z
1/2-x,-y,1/2-z
1/4+x,3/4+y,1/2-z
1/2-x,3/4+y,1/4+z
1/4+x,-y,1/4+z
1/2+x,1/2+y,z
3/4-x,3/4-y,z
1/2+x,3/4-y,1/4-z
3/4-x,1/2+y,1/4-z
1/2-x,1/2-y,-z
1/4+x,1/4+y,-z
1/2-x,1/4+y,3/4+z
1/4+x,1/2-y,3/4+z
loop_
_atom_site_type_symbol
_atom_site_label
_atom_site_fract_x
_atom_site_fract_y
_atom_site_fract_z
Si Si1 0.435118 0.865639 0.577110
Si Si2 0.739035 0.479402 0.324768
Si Si3 0.185810 0.863364 0.993875
Si Si4 0.785285 0.039727 0.380865
Si Si5 0.431418 0.162260 0.518083
Si Si6 0.732336 0.625000 0.625000
Si Si7 0.540113 0.525552 0.203536
O O1 0.375000 0.875000 0.596065
O O2 0.461141 0.944086 0.597254
O O3 0.472161 0.801485 0.608737
O O4 0.439225 0.844359 0.498802
O O5 0.750000 0.500000 0.250000
O O6 0.701916 0.407687 0.311786
O O7 0.787906 0.465807 0.374475
O O8 0.200734 0.817136 0.058696
O O9 0.182393 0.950331 0.019519
O O10 0.130103 0.831633 0.967905
O O11 0.230225 0.860508 0.938098
O O12 0.812222 0.091256 0.437986
O O13 0.799035 0.952039 0.388302
O O14 0.476374 0.224777 0.532341
#
# Coordination Sequence:
#
# PCOD9516737 Si02
#       7
#    32  32  32  32  32  16  32
#     4  11  23  42  69 101 140 181 231 291 354 427
#     4  12  22  40  68  99 139 189 224 280 353 414
#     4  12  24  45  73 101 135 187 232 292 363 417
#     4  11  24  48  70  99 143 178 233 301 353 417
#     4  11  24  42  72 103 139 182 234 287 352 432
#     4  12  26  46  71 100 136 180 233 302 346 418
#     4  11  23  43  68 101 147 176 231 296 340 424
#
# _framework density 22.853622000000001
#
# number of rings (size 3 to 8) (size 9 to 14) (size 15 to 20)
#    0.000    0.615    7.692    2.308    2.154    0.000 
#    0.000    4.615    0.000    0.000    0.000    0.000 
#    0.000    0.000    0.000    0.000    0.000    0.000 
#
# Total GULP energy -290120.987697 kJ/mol
# GULP energy per Si atom -5579.249763 kJ/mol
# Density = 2.280161 g / cm^3
# Si number density = 22.853622 Si / 1000 Ang^3
#
#
#
# Elastic Constant Matrix: (Units=GPa)
#
#
# Indices 1 2 3 4 5 6 
#
# 1 38.1447 9.3351 -26.9599 0.0000 0.0000 0.0000
# 2 9.3351 99.1229 20.4001 0.0000 0.0000 0.0000
# 3 -26.9599 20.4001 75.9497 0.0000 0.0000 0.0000
# 4 0.0000 0.0000 0.0000 30.8238 0.0000 0.0000
# 5 0.0000 0.0000 0.0000 0.0000 9.9071 0.0000
# 6 0.0000 0.0000 0.0000 0.0000 0.0000 14.9038
#
#
#
# Elastic Compliance Matrix: (Units=1/GPa)
#
#
# Indices 1 2 3 4 5 6 
#
# 1 0.039001 -0.006904 0.015699 0.000000 0.000000 0.000000
# 2 -0.006904 0.011901 -0.005647 0.000000 0.000000 0.000000
# 3 0.015699 -0.005647 0.020256 0.000000 0.000000 0.000000
# 4 0.000000 0.000000 0.000000 0.032442 0.000000 0.000000
# 5 0.000000 0.000000 0.000000 0.000000 0.100938 0.000000
# 6 0.000000 0.000000 0.000000 0.000000 0.000000 0.067097
#
#
# Mechanical properties :
#
#
# Convention : Reuss Voigt Hill
#
# Bulk Modulus (GPa) = 12.91110 24.30756 18.60933
# Shear Modulus (GPa) = 17.17284 25.15640 21.16462
#
# Velocity S-wave (km/s) = 2.74419 3.32137 3.04648
# Velocity P-wave (km/s) = 3.96264 5.03666 4.53158
#
# Compressibility (1/GPa) = 0.07745272
#
# Stress axis : x y z
#
# Youngs Moduli (GPa) = 25.64039 84.02713 49.36814
#
# Poissons Ratio (x) = 0.58011 -0.77501
# Poissons Ratio (y) = 0.17702 0.27879
# Poissons Ratio (z) = -0.40252 0.47452
#
# Static dielectric constant tensor:
#      x y z
#    x 1.896420 0.000000 0.000000 
#    y 0.000000 1.756350 0.000000 
#    z 0.000000 0.000000 1.965950 
# 
# From -- ./inp_files/46959.got.cif
#   From: 2010.05.17/outbox.cif.g08.bks.cpg/sg70_24_cif.got.tgz:46959.got - 2010.06.03 15:57:51.
