data_PCOD9516513
_publ_section_title
;
Structure prediction by ZEFSAII (Michael W. Deem and Ramdas Pophale) SiO2 
 PCOD9516513
Probable space group: F D D D
;
_chemical_formula_sum "Si O2"
_cell_formula_units_Z 144
_cell_length_a 14.625423
_cell_length_b 22.784803
_cell_length_c 20.839361
_cell_angle_alpha 90.000000
_cell_angle_beta 90.000000
_cell_angle_gamma 90.000000
_cell_volume 6944.454099
_symmetry_space_group_name_H-M "F D D D"
_symmetry_group_IT_number 70
_space_group.IT_coordinate_system_code '2'
_symmetry_cell_setting 'orthorhombic'
loop_
_space_group_symop_operation_xyz
x,y,z
1/4-x,1/4-y,z
x,1/4-y,1/4-z
1/4-x,y,1/4-z
-x,-y,-z
3/4+x,3/4+y,-z
-x,3/4+y,3/4+z
3/4+x,-y,3/4+z
x,1/2+y,1/2+z
1/4-x,3/4-y,1/2+z
x,3/4-y,3/4-z
1/4-x,1/2+y,3/4-z
-x,1/2-y,1/2-z
3/4+x,1/4+y,1/2-z
-x,1/4+y,1/4+z
3/4+x,1/2-y,1/4+z
1/2+x,y,1/2+z
3/4-x,1/4-y,1/2+z
1/2+x,1/4-y,3/4-z
3/4-x,y,3/4-z
1/2-x,-y,1/2-z
1/4+x,3/4+y,1/2-z
1/2-x,3/4+y,1/4+z
1/4+x,-y,1/4+z
1/2+x,1/2+y,z
3/4-x,3/4-y,z
1/2+x,3/4-y,1/4-z
3/4-x,1/2+y,1/4-z
1/2-x,1/2-y,-z
1/4+x,1/4+y,-z
1/2-x,1/4+y,3/4+z
1/4+x,1/2-y,3/4+z
loop_
_atom_site_type_symbol
_atom_site_label
_atom_site_fract_x
_atom_site_fract_y
_atom_site_fract_z
Si Si1 0.697144 0.246799 0.682649
Si Si2 0.950890 0.311735 0.243247
Si Si3 0.337824 0.096705 0.060930
Si Si4 0.944906 0.635720 0.314952
Si Si5 0.625000 0.625000 0.375910
O O1 0.625000 0.241094 0.625000
O O2 0.651133 0.205630 0.736294
O O3 0.791708 0.214703 0.669184
O O4 0.701886 0.315240 0.698311
O O5 0.938303 0.336208 0.171825
O O6 0.000000 0.250000 0.250000
O O7 0.008771 0.357044 0.286560
O O8 0.379989 0.125000 0.125000
O O9 0.402791 0.088478 0.999954
O O10 0.875000 0.644515 0.375000
O O11 0.047154 0.656595 0.332385
#
# Coordination Sequence:
#
# PCOD9516513 Si02
#       5
#    32  32  32  32  16
#     4  11  20  34  60  94 124 158 202 269 336 371
#     4  12  20  36  63  95 124 157 209 274 334 373
#     4  12  23  36  60  94 130 158 205 270 321 380
#     4  11  23  42  61  89 127 170 210 255 321 395
#     4  12  24  40  66  90 132 172 210 260 322 398
#
# _framework density 20.735972
#
# number of rings (size 3 to 8) (size 9 to 14) (size 15 to 20)
#    0.000    0.444    8.889    1.333    0.000    0.000 
#    0.000    1.667    0.000    2.667    0.000    0.000 
#    0.000    0.000    0.000    0.000    0.000    0.000 
#
# Total GULP energy -200924.428705 kJ/mol
# GULP energy per Si atom -5581.234131 kJ/mol
# Density = 2.068878 g / cm^3
# Si number density = 20.735972 Si / 1000 Ang^3
#
#
#
# Elastic Constant Matrix: (Units=GPa)
#
#
# Indices 1 2 3 4 5 6 
#
# 1 74.8191 8.0675 32.4567 0.0000 0.0000 0.0000
# 2 8.0675 53.1540 7.2816 0.0000 0.0000 0.0000
# 3 32.4567 7.2816 102.3227 0.0000 0.0000 0.0000
# 4 0.0000 0.0000 0.0000 16.0382 0.0000 0.0000
# 5 0.0000 0.0000 0.0000 0.0000 51.2483 0.0000
# 6 0.0000 0.0000 0.0000 0.0000 0.0000 23.4676
#
#
#
# Elastic Compliance Matrix: (Units=1/GPa)
#
#
# Indices 1 2 3 4 5 6 
#
# 1 0.015651 -0.001712 -0.004843 0.000000 0.000000 0.000000
# 2 -0.001712 0.019186 -0.000822 0.000000 0.000000 0.000000
# 3 -0.004843 -0.000822 0.011368 0.000000 0.000000 0.000000
# 4 0.000000 0.000000 0.000000 0.062351 0.000000 0.000000
# 5 0.000000 0.000000 0.000000 0.000000 0.019513 0.000000
# 6 0.000000 0.000000 0.000000 0.000000 0.000000 0.042612
#
#
# Mechanical properties :
#
#
# Convention : Reuss Voigt Hill
#
# Bulk Modulus (GPa) = 31.79612 36.21196 34.00404
# Shear Modulus (GPa) = 25.52093 30.31681 27.91887
#
# Velocity S-wave (km/s) = 3.51202 3.82781 3.67331
# Velocity P-wave (km/s) = 5.64028 6.08584 5.86729
#
# Compressibility (1/GPa) = 0.03145038
#
# Stress axis : x y z
#
# Youngs Moduli (GPa) = 63.89400 52.12203 87.96929
#
# Poissons Ratio (x) = 0.08924 0.42600
# Poissons Ratio (y) = 0.10939 0.07233
# Poissons Ratio (z) = 0.30942 0.04286
#
# Static dielectric constant tensor:
#      x y z
#    x 1.885640 0.000000 0.000000 
#    y 0.000000 1.753840 0.000000 
#    z 0.000000 0.000000 1.464340 
# 
# From -- ./inp_files/43592.got.cif
#   From: 2010.05.17/outbox.cif.g08.bks.cpg/sg70_22_cif.got.tgz:43592.got - 2010.06.03 15:57:51.
