data_PCOD9516627
_publ_section_title
;
Structure prediction by ZEFSAII (Michael W. Deem and Ramdas Pophale) SiO2 
 PCOD9516627
Probable space group: F D D D
;
_chemical_formula_sum "Si O2"
_cell_formula_units_Z 104
_cell_length_a 10.737495
_cell_length_b 33.608323
_cell_length_c 11.588453
_cell_angle_alpha 90.000000
_cell_angle_beta 90.000000
_cell_angle_gamma 90.000000
_cell_volume 4181.915765
_symmetry_space_group_name_H-M "F D D D"
_symmetry_group_IT_number 70
_space_group.IT_coordinate_system_code '2'
_symmetry_cell_setting 'orthorhombic'
loop_
_space_group_symop_operation_xyz
x,y,z
1/4-x,1/4-y,z
x,1/4-y,1/4-z
1/4-x,y,1/4-z
-x,-y,-z
3/4+x,3/4+y,-z
-x,3/4+y,3/4+z
3/4+x,-y,3/4+z
x,1/2+y,1/2+z
1/4-x,3/4-y,1/2+z
x,3/4-y,3/4-z
1/4-x,1/2+y,3/4-z
-x,1/2-y,1/2-z
3/4+x,1/4+y,1/2-z
-x,1/4+y,1/4+z
3/4+x,1/2-y,1/4+z
1/2+x,y,1/2+z
3/4-x,1/4-y,1/2+z
1/2+x,1/4-y,3/4-z
3/4-x,y,3/4-z
1/2-x,-y,1/2-z
1/4+x,3/4+y,1/2-z
1/2-x,3/4+y,1/4+z
1/4+x,-y,1/4+z
1/2+x,1/2+y,z
3/4-x,3/4-y,z
1/2+x,3/4-y,1/4-z
3/4-x,1/2+y,1/4-z
1/2-x,1/2-y,-z
1/4+x,1/4+y,-z
1/2-x,1/4+y,3/4+z
1/4+x,1/2-y,3/4+z
loop_
_atom_site_type_symbol
_atom_site_label
_atom_site_fract_x
_atom_site_fract_y
_atom_site_fract_z
Si Si1 0.342189 0.832602 0.511499
Si Si2 0.680378 0.309550 0.790083
Si Si3 0.375000 0.375000 0.375000
Si Si4 0.701955 0.769949 0.738785
O O1 0.375000 0.834321 0.375000
O O2 0.375000 0.875000 0.564263
O O3 0.196262 0.825103 0.516895
O O4 0.435728 0.798593 0.550503
O O5 0.780799 0.344488 0.809247
O O6 0.738860 0.271900 0.724261
O O7 0.630712 0.291555 0.913592
O O8 0.625000 0.761004 0.625000
#
# Coordination Sequence:
#
# PCOD9516627 Si02
#       4
#    32  32   8  32
#     4   9  19  40  65  90 123 168 215 258 317 390
#     4  11  23  41  65  91 124 171 216 262 325 390
#     4  12  24  40  70  84 128 176 222 258 336 392
#     4  11  22  40  63  93 126 161 212 270 323 386
#
# _framework density 24.868984000000001
#
# number of rings (size 3 to 8) (size 9 to 14) (size 15 to 20)
#    0.000    1.538    1.538    5.538    0.000    0.000 
#    2.769    3.077    0.000    0.000    0.000    0.000 
#    0.000    0.000    0.000    0.000    0.000    0.000 
#
# Total GULP energy -145648.188557 kJ/mol
# GULP energy per Si atom -5601.853406 kJ/mol
# Density = 2.481238 g / cm^3
# Si number density = 24.868984 Si / 1000 Ang^3
#
#
#
# Elastic Constant Matrix: (Units=GPa)
#
#
# Indices 1 2 3 4 5 6 
#
# 1 218.7417 112.9047 50.7447 0.0000 0.0000 0.0000
# 2 112.9047 207.9353 13.2639 0.0000 0.0000 0.0000
# 3 50.7447 13.2639 65.3680 0.0000 0.0000 0.0000
# 4 0.0000 0.0000 0.0000 27.5862 0.0000 0.0000
# 5 0.0000 0.0000 0.0000 0.0000 46.0961 0.0000
# 6 0.0000 0.0000 0.0000 0.0000 0.0000 68.9637
#
#
#
# Elastic Compliance Matrix: (Units=1/GPa)
#
#
# Indices 1 2 3 4 5 6 
#
# 1 0.007809 -0.003904 -0.005270 0.000000 0.000000 0.000000
# 2 -0.003904 0.006824 0.001646 0.000000 0.000000 0.000000
# 3 -0.005270 0.001646 0.019055 0.000000 0.000000 0.000000
# 4 0.000000 0.000000 0.000000 0.036250 0.000000 0.000000
# 5 0.000000 0.000000 0.000000 0.000000 0.021694 0.000000
# 6 0.000000 0.000000 0.000000 0.000000 0.000000 0.014500
#
#
# Mechanical properties :
#
#
# Convention : Reuss Voigt Hill
#
# Bulk Modulus (GPa) = 53.67067 93.98575 73.82821
# Shear Modulus (GPa) = 39.24651 49.53798 44.39224
#
# Velocity S-wave (km/s) = 3.97688 4.46798 4.22956
# Velocity P-wave (km/s) = 6.53572 8.03066 7.32145
#
# Compressibility (1/GPa) = 0.01863215
#
# Stress axis : x y z
#
# Youngs Moduli (GPa) = 128.05195 146.54051 52.47923
#
# Poissons Ratio (x) = 0.57211 0.27657
# Poissons Ratio (y) = 0.49993 -0.08638
# Poissons Ratio (z) = 0.67485 -0.24122
#
# Static dielectric constant tensor:
#      x y z
#    x 1.889750 0.000000 0.000000 
#    y 0.000000 1.984930 0.000000 
#    z 0.000000 0.000000 2.009330 
# 
# From -- ./inp_files/15035.got.cif
#   From: 2010.05.17/outbox.cif.g08.bks.cpg/sg70_8_cif.got.tgz:15035.got - 2010.06.03 15:57:51.
