data_PCOD9516255
_publ_section_title
;
Structure prediction by ZEFSAII (Michael W. Deem and Ramdas Pophale) SiO2 
 PCOD9516255
Probable space group: F D D D
;
_chemical_formula_sum "Si O2"
_cell_formula_units_Z 104
_cell_length_a 27.074308
_cell_length_b 7.147731
_cell_length_c 23.717367
_cell_angle_alpha 90.000000
_cell_angle_beta 90.000000
_cell_angle_gamma 90.000000
_cell_volume 4589.781793
_symmetry_space_group_name_H-M "F D D D"
_symmetry_group_IT_number 70
_space_group.IT_coordinate_system_code '2'
_symmetry_cell_setting 'orthorhombic'
loop_
_space_group_symop_operation_xyz
x,y,z
1/4-x,1/4-y,z
x,1/4-y,1/4-z
1/4-x,y,1/4-z
-x,-y,-z
3/4+x,3/4+y,-z
-x,3/4+y,3/4+z
3/4+x,-y,3/4+z
x,1/2+y,1/2+z
1/4-x,3/4-y,1/2+z
x,3/4-y,3/4-z
1/4-x,1/2+y,3/4-z
-x,1/2-y,1/2-z
3/4+x,1/4+y,1/2-z
-x,1/4+y,1/4+z
3/4+x,1/2-y,1/4+z
1/2+x,y,1/2+z
3/4-x,1/4-y,1/2+z
1/2+x,1/4-y,3/4-z
3/4-x,y,3/4-z
1/2-x,-y,1/2-z
1/4+x,3/4+y,1/2-z
1/2-x,3/4+y,1/4+z
1/4+x,-y,1/4+z
1/2+x,1/2+y,z
3/4-x,3/4-y,z
1/2+x,3/4-y,1/4-z
3/4-x,1/2+y,1/4-z
1/2-x,1/2-y,-z
1/4+x,1/4+y,-z
1/2-x,1/4+y,3/4+z
1/4+x,1/2-y,3/4+z
loop_
_atom_site_type_symbol
_atom_site_label
_atom_site_fract_x
_atom_site_fract_y
_atom_site_fract_z
Si Si1 0.077302 0.864939 0.810484
Si Si2 0.186425 0.437363 0.467752
Si Si3 0.375000 0.875000 0.875000
Si Si4 0.796091 0.884886 0.458788
O O1 0.059914 0.875000 0.875000
O O2 0.136741 0.892609 0.810346
O O3 0.068495 0.660094 0.784141
O O4 0.052081 0.010985 0.768627
O O5 0.189616 0.330153 0.527727
O O6 0.239617 0.395838 0.440449
O O7 0.414139 0.973055 0.833384
#
# Coordination Sequence:
#
# PCOD9516255 Si02
#       4
#    32  32   8  32
#     4  11  24  42  68 101 129 170 231 283 329 402
#     4  10  24  41  68  92 132 176 224 273 343 397
#     4  12  24  40  66  96 140 174 224 274 342 414
#     4  11  24  45  63  95 135 179 221 280 338 404
#
# _framework density 22.659030999999999
#
# number of rings (size 3 to 8) (size 9 to 14) (size 15 to 20)
#    0.000    1.231    3.077    0.923   10.769    2.462 
#    0.000    3.077    0.000    0.000    0.000    0.000 
#    0.000    0.000    0.000    0.000    0.000    0.000 
#
# Total GULP energy -145072.765349 kJ/mol
# GULP energy per Si atom -5579.721744 kJ/mol
# Density = 2.260746 g / cm^3
# Si number density = 22.659031 Si / 1000 Ang^3
#
#
#
# Elastic Constant Matrix: (Units=GPa)
#
#
# Indices 1 2 3 4 5 6 
#
# 1 135.4580 18.4443 42.5017 -0.0002 0.0002 0.0004
# 2 18.4443 106.7053 34.8566 -0.0005 0.0005 0.0009
# 3 42.5017 34.8566 116.8321 -0.0001 0.0001 0.0001
# 4 -0.0002 -0.0005 -0.0001 9.4860 0.0002 0.0002
# 5 0.0002 0.0005 0.0001 0.0002 -2.9168 -0.0003
# 6 0.0004 0.0009 0.0001 0.0002 -0.0003 27.4398
#
#
#
# Elastic Compliance Matrix: (Units=1/GPa)
#
#
# Indices 1 2 3 4 5 6 
#
# 1 0.008358 -0.000500 -0.002891 0.000000 0.000001 0.000000
# 2 -0.000500 0.010414 -0.002925 0.000000 0.000002 0.000000
# 3 -0.002891 -0.002925 0.010484 0.000000 0.000000 0.000000
# 4 0.000000 0.000000 0.000000 0.105419 0.000006 -0.000001
# 5 0.000001 0.000002 0.000000 0.000006 -0.342845 -0.000004
# 6 0.000000 0.000000 0.000000 -0.000001 -0.000004 0.036443
#
#
# Mechanical properties :
#
#
# Convention : Reuss Voigt Hill
#
# Bulk Modulus (GPa) = 60.15998 61.17784 60.66891
# Shear Modulus (GPa) = -32.56160 24.34798 -4.10681
#
# Velocity S-wave (km/s) = -3.79492 3.28157 -1.34773
# Velocity P-wave (km/s) = 2.72136 6.43554 4.94075
#
# Compressibility (1/GPa) = 0.01662235
#
# Stress axis : x y z
#
# Youngs Moduli (GPa) = 119.65153 96.02909 95.38648
#
# Poissons Ratio (x) = 0.04804 0.27577
# Poissons Ratio (y) = 0.05985 0.27899
# Poissons Ratio (z) = 0.34593 0.28087
#
# Static dielectric constant tensor:
#      x y z
#    x 1.884150 0.000000 0.000000 
#    y 0.000000 1.863770 0.000000 
#    z 0.000000 0.000000 1.879660 
# 
# From -- ./inp_files/9402.got.cif
#   From: 2010.05.17/outbox.cif.g08.bks.cpg/sg70_5_cif.got.tgz:9402.got - 2010.06.03 15:57:51.
