data_PCOD9516609
_publ_section_title
;
Structure prediction by ZEFSAII (Michael W. Deem and Ramdas Pophale) SiO2 
 PCOD9516609
Probable space group: F D D D
;
_chemical_formula_sum "Si O2"
_cell_formula_units_Z 64
_cell_length_a 37.719900
_cell_length_b 13.886262
_cell_length_c 4.939660
_cell_angle_alpha 90.000000
_cell_angle_beta 90.000000
_cell_angle_gamma 90.000000
_cell_volume 2587.336677
_symmetry_space_group_name_H-M "F D D D"
_symmetry_group_IT_number 70
_space_group.IT_coordinate_system_code '2'
_symmetry_cell_setting 'orthorhombic'
loop_
_space_group_symop_operation_xyz
x,y,z
1/4-x,1/4-y,z
x,1/4-y,1/4-z
1/4-x,y,1/4-z
-x,-y,-z
3/4+x,3/4+y,-z
-x,3/4+y,3/4+z
3/4+x,-y,3/4+z
x,1/2+y,1/2+z
1/4-x,3/4-y,1/2+z
x,3/4-y,3/4-z
1/4-x,1/2+y,3/4-z
-x,1/2-y,1/2-z
3/4+x,1/4+y,1/2-z
-x,1/4+y,1/4+z
3/4+x,1/2-y,1/4+z
1/2+x,y,1/2+z
3/4-x,1/4-y,1/2+z
1/2+x,1/4-y,3/4-z
3/4-x,y,3/4-z
1/2-x,-y,1/2-z
1/4+x,3/4+y,1/2-z
1/2-x,3/4+y,1/4+z
1/4+x,-y,1/4+z
1/2+x,1/2+y,z
3/4-x,3/4-y,z
1/2+x,3/4-y,1/4-z
3/4-x,1/2+y,1/4-z
1/2-x,1/2-y,-z
1/4+x,1/4+y,-z
1/2-x,1/4+y,3/4+z
1/4+x,1/2-y,3/4+z
loop_
_atom_site_type_symbol
_atom_site_label
_atom_site_fract_x
_atom_site_fract_y
_atom_site_fract_z
Si Si1 0.398690 0.241834 0.619475
Si Si2 0.467976 0.058171 0.871877
O O1 0.400017 0.125000 0.625000
O O2 0.375000 0.273109 0.375000
O O3 0.439074 0.260899 0.526858
O O4 0.375000 0.270725 0.875000
O O5 0.480786 0.125000 0.625000
O O6 0.453090 0.125000 0.125000
O O7 0.500000 0.000000 0.000000
#
# Coordination Sequence:
#
# PCOD9516609 Si02
#       2
#    32  32
#     4   9  16  29  51  80 111 146 197 255 299 347
#     4  11  22  37  59  91 127 163 205 261 322 382
#
# _framework density 24.735862999999998
#
# number of rings (size 3 to 8) (size 9 to 14) (size 15 to 20)
#    0.000    2.000    0.000    9.000    0.000    0.000 
#    0.000    0.000    0.000    1.500    0.000   42.000 
#    0.000    0.000    0.000    0.000    0.000    0.000 
#
# Total GULP energy -89215.103136 kJ/mol
# GULP energy per Si atom -5575.943946 kJ/mol
# Density = 2.467956 g / cm^3
# Si number density = 24.735863 Si / 1000 Ang^3
#
#
#
# Elastic Constant Matrix: (Units=GPa)
#
#
# Indices 1 2 3 4 5 6 
#
# 1 222.5592 34.1487 100.0088 0.0004 0.0011 0.0002
# 2 34.1487 68.5718 21.4193 0.0005 0.0006 0.0005
# 3 100.0088 21.4193 261.1023 0.0004 0.0027 0.0005
# 4 0.0004 0.0005 0.0004 20.6527 0.0006 0.0005
# 5 0.0011 0.0006 0.0027 0.0006 54.0876 0.0004
# 6 0.0002 0.0005 0.0005 0.0005 0.0004 7.1980
#
#
#
# Elastic Compliance Matrix: (Units=1/GPa)
#
#
# Indices 1 2 3 4 5 6 
#
# 1 0.005741 -0.002229 -0.002016 0.000000 0.000000 0.000000
# 2 -0.002229 0.015832 -0.000445 0.000000 0.000000 -0.000001
# 3 -0.002016 -0.000445 0.004639 0.000000 0.000000 0.000000
# 4 0.000000 0.000000 0.000000 0.048420 -0.000001 -0.000003
# 5 0.000000 0.000000 0.000000 -0.000001 0.018489 -0.000001
# 6 0.000000 -0.000001 0.000000 -0.000003 -0.000001 0.138928
#
#
# Mechanical properties :
#
#
# Convention : Reuss Voigt Hill
#
# Bulk Modulus (GPa) = 59.41242 95.93189 77.67215
# Shear Modulus (GPa) = 20.23962 42.83142 31.53552
#
# Velocity S-wave (km/s) = 2.86357 4.16571 3.57443
# Velocity P-wave (km/s) = 5.91644 7.87427 6.96450
#
# Compressibility (1/GPa) = 0.01683150
#
# Stress axis : x y z
#
# Youngs Moduli (GPa) = 174.17887 63.16150 215.57990
#
# Poissons Ratio (x) = 0.14081 0.43464
# Poissons Ratio (y) = 0.38831 0.09591
# Poissons Ratio (z) = 0.35117 0.02810
#
# Static dielectric constant tensor:
#      x y z
#    x 2.001550 0.000000 0.000000 
#    y 0.000000 2.165710 0.000000 
#    z 0.000000 0.000000 1.926930 
# 
# From -- ./inp_files/1152.got.cif
#   From: 2010.05.17/outbox.cif.g08.bks.cpg/sg70_1_cif.got.tgz:1152.got - 2010.06.03 15:57:51.
