data_PCOD9516693
_publ_section_title
;
Structure prediction by ZEFSAII (Michael W. Deem and Ramdas Pophale) SiO2 
 PCOD9516693
Probable space group: F D D D
;
_chemical_formula_sum "Si O2"
_cell_formula_units_Z 240
_cell_length_a 28.502724
_cell_length_b 19.213205
_cell_length_c 20.518951
_cell_angle_alpha 90.000000
_cell_angle_beta 90.000000
_cell_angle_gamma 90.000000
_cell_volume 11236.766036
_symmetry_space_group_name_H-M "F D D D"
_symmetry_group_IT_number 70
_space_group.IT_coordinate_system_code '2'
_symmetry_cell_setting 'orthorhombic'
loop_
_space_group_symop_operation_xyz
x,y,z
1/4-x,1/4-y,z
x,1/4-y,1/4-z
1/4-x,y,1/4-z
-x,-y,-z
3/4+x,3/4+y,-z
-x,3/4+y,3/4+z
3/4+x,-y,3/4+z
x,1/2+y,1/2+z
1/4-x,3/4-y,1/2+z
x,3/4-y,3/4-z
1/4-x,1/2+y,3/4-z
-x,1/2-y,1/2-z
3/4+x,1/4+y,1/2-z
-x,1/4+y,1/4+z
3/4+x,1/2-y,1/4+z
1/2+x,y,1/2+z
3/4-x,1/4-y,1/2+z
1/2+x,1/4-y,3/4-z
3/4-x,y,3/4-z
1/2-x,-y,1/2-z
1/4+x,3/4+y,1/2-z
1/2-x,3/4+y,1/4+z
1/4+x,-y,1/4+z
1/2+x,1/2+y,z
3/4-x,3/4-y,z
1/2+x,3/4-y,1/4-z
3/4-x,1/2+y,1/4-z
1/2-x,1/2-y,-z
1/4+x,1/4+y,-z
1/2-x,1/4+y,3/4+z
1/4+x,1/2-y,3/4+z
loop_
_atom_site_type_symbol
_atom_site_label
_atom_site_fract_x
_atom_site_fract_y
_atom_site_fract_z
Si Si1 0.618108 0.331249 0.195115
Si Si2 0.917712 0.763998 0.544888
Si Si3 0.450451 0.066958 0.462929
Si Si4 0.490688 0.202084 0.646251
Si Si5 0.776077 0.826534 0.658251
Si Si6 0.762101 0.672971 0.475595
Si Si7 0.625000 0.625000 0.892005
Si Si8 0.523765 0.678527 0.572468
O O1 0.625000 0.293877 0.125000
O O2 0.634139 0.292499 0.260776
O O3 0.650173 0.400519 0.195415
O O4 0.562809 0.336913 0.195639
O O5 0.960864 0.731949 0.585849
O O6 0.890175 0.811879 0.595182
O O7 0.938052 0.801648 0.481173
O O8 0.456984 0.050122 0.539525
O O9 0.489132 0.126597 0.447395
O O10 0.466928 0.001880 0.419050
O O11 0.505577 0.125000 0.625000
O O12 0.773809 0.846779 0.581750
O O13 0.828893 0.846075 0.679845
O O14 0.754715 0.748325 0.658761
O O15 0.750000 0.750000 0.500000
O O16 0.761984 0.621765 0.535847
O O17 0.544755 0.625000 0.625000
#
# Coordination Sequence:
#
# PCOD9516693 Si02
#       8
#    32  32  32  32  32  32  16  32
#     4  12  25  43  72 104 145 194 243 293 372 449
#     4  12  25  43  69 107 142 196 242 301 365 453
#     4  11  23  44  75 103 139 190 245 314 375 444
#     4  11  22  45  77 101 139 186 255 309 375 443
#     4  12  23  48  67 102 141 184 240 298 372 436
#     4  12  24  44  67  99 148 188 235 299 357 436
#     4  12  26  42  73  96 145 188 236 302 372 444
#     4  12  25  42  69 101 145 188 236 295 359 431
#
# _framework density 21.358459
#
# number of rings (size 3 to 8) (size 9 to 14) (size 15 to 20)
#    0.000    0.267    8.000    0.800    0.000    1.067 
#    0.000    0.000    0.000    0.400    0.000    0.000 
#    0.000    0.000    0.000    0.000    0.000    0.000 
#
# Total GULP energy -334998.548254 kJ/mol
# GULP energy per Si atom -5583.309138 kJ/mol
# Density = 2.130985 g / cm^3
# Si number density = 21.358459 Si / 1000 Ang^3
#
#
#
# Elastic Constant Matrix: (Units=GPa)
#
#
# Indices 1 2 3 4 5 6 
#
# 1 87.9783 20.7777 -8.4317 0.0000 0.0000 0.0000
# 2 20.7777 117.8141 13.6564 0.0000 0.0000 0.0000
# 3 -8.4317 13.6564 69.7280 0.0000 0.0000 0.0000
# 4 0.0000 0.0000 0.0000 46.9785 0.0000 0.0000
# 5 0.0000 0.0000 0.0000 0.0000 25.6350 0.0000
# 6 0.0000 0.0000 0.0000 0.0000 0.0000 21.6258
#
#
#
# Elastic Compliance Matrix: (Units=1/GPa)
#
#
# Indices 1 2 3 4 5 6 
#
# 1 0.012108 -0.002359 0.001926 0.000000 0.000000 0.000000
# 2 -0.002359 0.009145 -0.002076 0.000000 0.000000 0.000000
# 3 0.001926 -0.002076 0.014981 0.000000 0.000000 0.000000
# 4 0.000000 0.000000 0.000000 0.021286 0.000000 0.000000
# 5 0.000000 0.000000 0.000000 0.000000 0.039009 0.000000
# 6 0.000000 0.000000 0.000000 0.000000 0.000000 0.046241
#
#
# Mechanical properties :
#
#
# Convention : Reuss Voigt Hill
#
# Bulk Modulus (GPa) = 32.03476 36.39170 34.21323
# Shear Modulus (GPa) = 31.60695 35.48239 33.54467
#
# Velocity S-wave (km/s) = 3.85103 4.08030 3.96732
# Velocity P-wave (km/s) = 5.89959 6.26690 6.08601
#
# Compressibility (1/GPa) = 0.03121610
#
# Stress axis : x y z
#
# Youngs Moduli (GPa) = 82.58957 109.35441 66.75137
#
# Poissons Ratio (x) = 0.25793 -0.12857
# Poissons Ratio (y) = 0.19480 0.13859
# Poissons Ratio (z) = -0.15907 0.22704
#
# Static dielectric constant tensor:
#      x y z
#    x 1.786790 0.000000 0.000000 
#    y 0.000000 1.989460 0.000000 
#    z 0.000000 0.000000 1.796150 
# 
# From -- ./inp_files/47123.got.cif
#   From: 2010.05.17/outbox.cif.g08.bks.cpg/sg70_24_cif.got.tgz:47123.got - 2010.06.03 15:57:51.
