data_PCOD9516001
_publ_section_title
;
Structure prediction by ZEFSAII (Michael W. Deem and Ramdas Pophale) SiO2 
 PCOD9516001
Probable space group: F D D D
;
_chemical_formula_sum "Si O2"
_cell_formula_units_Z 216
_cell_length_a 29.671593
_cell_length_b 10.951192
_cell_length_c 28.214128
_cell_angle_alpha 90.000000
_cell_angle_beta 90.000000
_cell_angle_gamma 90.000000
_cell_volume 9167.879338
_symmetry_space_group_name_H-M "F D D D"
_symmetry_group_IT_number 70
_space_group.IT_coordinate_system_code '2'
_symmetry_cell_setting 'orthorhombic'
loop_
_space_group_symop_operation_xyz
x,y,z
1/4-x,1/4-y,z
x,1/4-y,1/4-z
1/4-x,y,1/4-z
-x,-y,-z
3/4+x,3/4+y,-z
-x,3/4+y,3/4+z
3/4+x,-y,3/4+z
x,1/2+y,1/2+z
1/4-x,3/4-y,1/2+z
x,3/4-y,3/4-z
1/4-x,1/2+y,3/4-z
-x,1/2-y,1/2-z
3/4+x,1/4+y,1/2-z
-x,1/4+y,1/4+z
3/4+x,1/2-y,1/4+z
1/2+x,y,1/2+z
3/4-x,1/4-y,1/2+z
1/2+x,1/4-y,3/4-z
3/4-x,y,3/4-z
1/2-x,-y,1/2-z
1/4+x,3/4+y,1/2-z
1/2-x,3/4+y,1/4+z
1/4+x,-y,1/4+z
1/2+x,1/2+y,z
3/4-x,3/4-y,z
1/2+x,3/4-y,1/4-z
3/4-x,1/2+y,1/4-z
1/2-x,1/2-y,-z
1/4+x,1/4+y,-z
1/2-x,1/4+y,3/4+z
1/4+x,1/2-y,3/4+z
loop_
_atom_site_type_symbol
_atom_site_label
_atom_site_fract_x
_atom_site_fract_y
_atom_site_fract_z
Si Si1 0.125000 0.125000 0.961886
Si Si2 0.675366 0.088956 0.269018
Si Si3 0.939344 0.568860 0.387382
Si Si4 0.875000 0.875000 0.875000
Si Si5 0.967853 0.444184 0.825042
Si Si6 0.213612 0.587623 0.726436
Si Si7 0.318385 0.167748 0.678757
Si Si8 0.475206 0.509938 0.161080
O O1 0.112080 0.246407 0.933736
O O2 0.170416 0.139275 0.991722
O O3 0.625000 0.125000 0.256306
O O4 0.703174 0.116885 0.220945
O O5 0.687993 0.177311 0.313721
O O6 0.679745 0.949403 0.286557
O O7 0.907692 0.484695 0.353364
O O8 0.931881 0.699393 0.411572
O O9 0.942579 0.480388 0.431623
O O10 0.989297 0.575874 0.366026
O O11 0.970277 0.375000 0.875000
O O12 0.019621 0.483106 0.813592
O O13 0.250000 0.500000 0.750000
O O14 0.244773 0.692172 0.704793
O O15 0.318340 0.125000 0.625000
O O16 0.464506 0.625000 0.125000
#
# Coordination Sequence:
#
# PCOD9516001 Si02
#       8
#    16  32  32   8  32  32  32  32
#     4  12  27  44  75 110 144 196 253 318 378 461
#     4  12  28  47  74 116 151 195 260 324 386 468
#     4  11  23  44  71 107 147 190 249 312 385 450
#     4  12  22  44  70 116 148 192 256 326 388 450
#     4  11  26  52  77 103 152 208 258 313 395 469
#     4  11  23  41  69 104 144 190 245 311 375 451
#     4  11  27  51  75 109 153 203 254 311 384 478
#     4  10  22  44  73 106 148 199 246 313 392 454
#
# _framework density 23.560521000000001
#
# number of rings (size 3 to 8) (size 9 to 14) (size 15 to 20)
#    0.000    0.889    2.222    5.333    5.185    4.444 
#    0.000    0.000    0.000    0.000    0.000    0.000 
#    0.000    0.000    0.000    0.000    0.000    0.000 
#
# Total GULP energy -301000.114547 kJ/mol
# GULP energy per Si atom -5574.076195 kJ/mol
# Density = 2.350690 g / cm^3
# Si number density = 23.560521 Si / 1000 Ang^3
#
#
#
# Elastic Constant Matrix: (Units=GPa)
#
#
# Indices 1 2 3 4 5 6 
#
# 1 91.8180 35.0951 27.5305 0.0000 0.0000 0.0000
# 2 35.0951 117.7890 34.8815 0.0000 0.0000 0.0000
# 3 27.5305 34.8815 104.4721 0.0000 0.0000 0.0000
# 4 0.0000 0.0000 0.0000 26.1880 0.0000 0.0000
# 5 0.0000 0.0000 0.0000 0.0000 27.3241 0.0000
# 6 0.0000 0.0000 0.0000 0.0000 0.0000 38.6505
#
#
#
# Elastic Compliance Matrix: (Units=1/GPa)
#
#
# Indices 1 2 3 4 5 6 
#
# 1 0.012781 -0.003119 -0.002327 0.000000 0.000000 0.000000
# 2 -0.003119 0.010182 -0.002578 0.000000 0.000000 0.000000
# 3 -0.002327 -0.002578 0.011046 0.000000 0.000000 0.000000
# 4 0.000000 0.000000 0.000000 0.038185 0.000000 0.000000
# 5 0.000000 0.000000 0.000000 0.000000 0.036598 0.000000
# 6 0.000000 0.000000 0.000000 0.000000 0.000000 0.025873
#
#
# Mechanical properties :
#
#
# Convention : Reuss Voigt Hill
#
# Bulk Modulus (GPa) = 55.67278 56.56591 56.11935
# Shear Modulus (GPa) = 31.90818 32.87063 32.38941
#
# Velocity S-wave (km/s) = 3.68408 3.73923 3.71176
# Velocity P-wave (km/s) = 6.46356 6.53478 6.49927
#
# Compressibility (1/GPa) = 0.01796210
#
# Stress axis : x y z
#
# Youngs Moduli (GPa) = 78.24174 98.20810 90.53264
#
# Poissons Ratio (x) = 0.30632 0.21064
# Poissons Ratio (y) = 0.24404 0.23338
# Poissons Ratio (z) = 0.18204 0.25316
#
# Static dielectric constant tensor:
#      x y z
#    x 2.410080 0.000000 0.000000 
#    y 0.000000 2.002340 0.000000 
#    z 0.000000 0.000000 2.055260 
# 
# From -- ./inp_files/69040.got.cif
#   From: 2010.05.17/outbox.cif.g08.bks.cpg/sg70_35_cif.got.tgz:69040.got - 2010.06.03 15:57:51.
