data_PCOD9516485
_publ_section_title
;
Structure prediction by ZEFSAII (Michael W. Deem and Ramdas Pophale) SiO2 
 PCOD9516485
Probable space group: F D D D
;
_chemical_formula_sum "Si O2"
_cell_formula_units_Z 160
_cell_length_a 11.010994
_cell_length_b 24.431835
_cell_length_c 23.768084
_cell_angle_alpha 90.000000
_cell_angle_beta 90.000000
_cell_angle_gamma 90.000000
_cell_volume 6394.061165
_symmetry_space_group_name_H-M "F D D D"
_symmetry_group_IT_number 70
_space_group.IT_coordinate_system_code '2'
_symmetry_cell_setting 'orthorhombic'
loop_
_space_group_symop_operation_xyz
x,y,z
1/4-x,1/4-y,z
x,1/4-y,1/4-z
1/4-x,y,1/4-z
-x,-y,-z
3/4+x,3/4+y,-z
-x,3/4+y,3/4+z
3/4+x,-y,3/4+z
x,1/2+y,1/2+z
1/4-x,3/4-y,1/2+z
x,3/4-y,3/4-z
1/4-x,1/2+y,3/4-z
-x,1/2-y,1/2-z
3/4+x,1/4+y,1/2-z
-x,1/4+y,1/4+z
3/4+x,1/2-y,1/4+z
1/2+x,y,1/2+z
3/4-x,1/4-y,1/2+z
1/2+x,1/4-y,3/4-z
3/4-x,y,3/4-z
1/2-x,-y,1/2-z
1/4+x,3/4+y,1/2-z
1/2-x,3/4+y,1/4+z
1/4+x,-y,1/4+z
1/2+x,1/2+y,z
3/4-x,3/4-y,z
1/2+x,3/4-y,1/4-z
3/4-x,1/2+y,1/4-z
1/2-x,1/2-y,-z
1/4+x,1/4+y,-z
1/2-x,1/4+y,3/4+z
1/4+x,1/2-y,3/4+z
loop_
_atom_site_type_symbol
_atom_site_label
_atom_site_fract_x
_atom_site_fract_y
_atom_site_fract_z
Si Si1 0.961354 0.249621 0.582552
Si Si2 0.817621 0.103033 0.020794
Si Si3 0.219635 0.078664 0.016794
Si Si4 0.502248 0.092663 0.907660
Si Si5 0.823600 0.232454 0.432613
O O1 0.996650 0.187703 0.565185
O O2 0.013698 0.291893 0.535789
O O3 0.817063 0.255671 0.573140
O O4 0.982637 0.277903 0.642882
O O5 0.752815 0.139996 0.973220
O O6 0.891086 0.060346 0.980619
O O7 0.918195 0.142534 0.047355
O O8 0.125000 0.125000 0.997339
O O9 0.146053 0.037812 0.055568
O O10 0.625000 0.125000 0.886255
O O11 0.375000 0.104857 0.875000
O O12 0.875000 0.211060 0.375000
#
# Coordination Sequence:
#
# PCOD9516485 Si02
#       5
#    32  32  32  32  32
#     4  11  21  36  62  97 134 180 242 294 358 437
#     4  11  21  38  62  94 138 185 232 294 363 425
#     4  11  18  35  60  91 135 178 217 296 368 425
#     4  12  24  41  71 102 140 189 247 304 368 446
#     4  11  22  34  60 101 135 176 234 297 364 430
#
# _framework density 25.023220999999999
#
# number of rings (size 3 to 8) (size 9 to 14) (size 15 to 20)
#    0.000    0.800    6.000    4.800    0.000    0.400 
#    0.000    1.000    4.400    0.000    0.000    0.000 
#    0.000    0.000    0.000    0.000    0.000    0.000 
#
# Total GULP energy -223362.298022 kJ/mol
# GULP energy per Si atom -5584.057451 kJ/mol
# Density = 2.496627 g / cm^3
# Si number density = 25.023221 Si / 1000 Ang^3
#
#
#
# Elastic Constant Matrix: (Units=GPa)
#
#
# Indices 1 2 3 4 5 6 
#
# 1 75.6126 21.5322 20.4114 0.0000 0.0000 0.0000
# 2 21.5322 146.8714 45.8618 0.0000 0.0000 0.0000
# 3 20.4114 45.8618 64.5585 0.0000 0.0000 0.0000
# 4 0.0000 0.0000 0.0000 48.0244 0.0000 0.0000
# 5 0.0000 0.0000 0.0000 0.0000 28.8615 0.0000
# 6 0.0000 0.0000 0.0000 0.0000 0.0000 59.3239
#
#
#
# Elastic Compliance Matrix: (Units=1/GPa)
#
#
# Indices 1 2 3 4 5 6 
#
# 1 0.014550 -0.000895 -0.003964 0.000000 0.000000 0.000000
# 2 -0.000895 0.008805 -0.005972 0.000000 0.000000 0.000000
# 3 -0.003964 -0.005972 0.020986 0.000000 0.000000 0.000000
# 4 0.000000 0.000000 0.000000 0.020823 0.000000 0.000000
# 5 0.000000 0.000000 0.000000 0.000000 0.034648 0.000000
# 6 0.000000 0.000000 0.000000 0.000000 0.000000 0.016857
#
#
# Mechanical properties :
#
#
# Convention : Reuss Voigt Hill
#
# Bulk Modulus (GPa) = 44.09592 51.40594 47.75093
# Shear Modulus (GPa) = 34.27235 40.52442 37.39838
#
# Velocity S-wave (km/s) = 3.70485 4.02863 3.87013
# Velocity P-wave (km/s) = 5.99679 6.49829 6.25257
#
# Compressibility (1/GPa) = 0.02267784
#
# Stress axis : x y z
#
# Youngs Moduli (GPa) = 68.72651 113.57655 47.65194
#
# Poissons Ratio (x) = 0.10168 0.18891
# Poissons Ratio (y) = 0.06153 0.28456
# Poissons Ratio (z) = 0.27246 0.67824
#
# Static dielectric constant tensor:
#      x y z
#    x 2.055650 0.000000 0.000000 
#    y 0.000000 2.040980 0.000000 
#    z 0.000000 0.000000 2.025980 
# 
# From -- ./inp_files/64842.got.cif
#   From: 2010.05.17/outbox.cif.g08.bks.cpg/sg70_33_cif.got.tgz:64842.got - 2010.06.03 15:57:51.
