data_PCOD9516284
_publ_section_title
;
Structure prediction by ZEFSAII (Michael W. Deem and Ramdas Pophale) SiO2 
 PCOD9516284
Probable space group: F D D D
;
_chemical_formula_sum "Si O2"
_cell_formula_units_Z 176
_cell_length_a 14.335489
_cell_length_b 22.812257
_cell_length_c 25.934196
_cell_angle_alpha 90.000000
_cell_angle_beta 90.000000
_cell_angle_gamma 90.000000
_cell_volume 8481.126798
_symmetry_space_group_name_H-M "F D D D"
_symmetry_group_IT_number 70
_space_group.IT_coordinate_system_code '2'
_symmetry_cell_setting 'orthorhombic'
loop_
_space_group_symop_operation_xyz
x,y,z
1/4-x,1/4-y,z
x,1/4-y,1/4-z
1/4-x,y,1/4-z
-x,-y,-z
3/4+x,3/4+y,-z
-x,3/4+y,3/4+z
3/4+x,-y,3/4+z
x,1/2+y,1/2+z
1/4-x,3/4-y,1/2+z
x,3/4-y,3/4-z
1/4-x,1/2+y,3/4-z
-x,1/2-y,1/2-z
3/4+x,1/4+y,1/2-z
-x,1/4+y,1/4+z
3/4+x,1/2-y,1/4+z
1/2+x,y,1/2+z
3/4-x,1/4-y,1/2+z
1/2+x,1/4-y,3/4-z
3/4-x,y,3/4-z
1/2-x,-y,1/2-z
1/4+x,3/4+y,1/2-z
1/2-x,3/4+y,1/4+z
1/4+x,-y,1/4+z
1/2+x,1/2+y,z
3/4-x,3/4-y,z
1/2+x,3/4-y,1/4-z
3/4-x,1/2+y,1/4-z
1/2-x,1/2-y,-z
1/4+x,1/4+y,-z
1/2-x,1/4+y,3/4+z
1/4+x,1/2-y,3/4+z
loop_
_atom_site_type_symbol
_atom_site_label
_atom_site_fract_x
_atom_site_fract_y
_atom_site_fract_z
Si Si1 0.875000 0.375000 0.040566
Si Si2 0.414409 0.119726 0.728403
Si Si3 0.205843 0.375000 0.375000
Si Si4 0.125000 0.125000 0.044602
Si Si5 0.875000 0.782661 0.375000
Si Si6 0.938876 0.095539 0.831539
Si Si7 0.625000 0.230714 0.625000
Si Si8 0.359108 0.253907 0.487862
O O1 0.784077 0.370156 0.074964
O O2 0.859475 0.431974 0.005817
O O3 0.361626 0.135315 0.674590
O O4 0.525237 0.128028 0.732945
O O5 0.362540 0.151258 0.776254
O O6 0.402754 0.049950 0.732533
O O7 0.280245 0.428238 0.368612
O O8 0.132605 0.184443 0.078709
O O9 0.868510 0.748090 0.322025
O O10 0.875000 0.123860 0.875000
O O11 0.950373 0.029000 0.854097
O O12 0.250000 0.250000 0.500000
#
# Coordination Sequence:
#
# PCOD9516284 Si02
#       8
#    16  32  16  16  16  32  16  32
#     4  12  22  44  68  95 142 180 223 300 360 410
#     4  12  25  44  68 104 136 184 240 284 352 430
#     4  11  22  41  68 100 132 173 234 289 348 438
#     4  11  24  45  70  93 146 197 231 279 344 426
#     4  11  22  39  68 100 136 177 220 291 372 410
#     4  10  24  43  70  99 137 176 231 289 350 423
#     4   9  22  47  66 100 140 186 230 284 344 411
#     4  12  24  42  70 104 139 182 230 301 363 428
#
# _framework density 20.751958999999999
#
# number of rings (size 3 to 8) (size 9 to 14) (size 15 to 20)
#    0.545    0.364    3.636    4.364    1.273    1.455 
#    0.000    1.818    0.000    0.000    0.000    0.000 
#    0.000    0.000    0.000    0.000    0.000    0.000 
#
# Total GULP energy -245230.545206 kJ/mol
# GULP energy per Si atom -5573.421482 kJ/mol
# Density = 2.070473 g / cm^3
# Si number density = 20.751959 Si / 1000 Ang^3
#
#
#
# Elastic Constant Matrix: (Units=GPa)
#
#
# Indices 1 2 3 4 5 6 
#
# 1 143.5974 -7.9905 38.5324 0.0000 0.0000 0.0000
# 2 -7.9905 79.0069 -3.0211 0.0000 0.0000 0.0000
# 3 38.5324 -3.0211 103.3911 0.0000 0.0000 0.0000
# 4 0.0000 0.0000 0.0000 23.3629 0.0000 0.0000
# 5 0.0000 0.0000 0.0000 0.0000 20.1772 0.0000
# 6 0.0000 0.0000 0.0000 0.0000 0.0000 20.0974
#
#
#
# Elastic Compliance Matrix: (Units=1/GPa)
#
#
# Indices 1 2 3 4 5 6 
#
# 1 0.007774 0.000676 -0.002877 0.000000 0.000000 0.000000
# 2 0.000676 0.012730 0.000120 0.000000 0.000000 0.000000
# 3 -0.002877 0.000120 0.010748 0.000000 0.000000 0.000000
# 4 0.000000 0.000000 0.000000 0.042803 0.000000 0.000000
# 5 0.000000 0.000000 0.000000 0.000000 0.049561 0.000000
# 6 0.000000 0.000000 0.000000 0.000000 0.000000 0.049758
#
#
# Mechanical properties :
#
#
# Convention : Reuss Voigt Hill
#
# Bulk Modulus (GPa) = 36.91512 42.33744 39.62628
# Shear Modulus (GPa) = 26.80027 32.62581 29.71304
#
# Velocity S-wave (km/s) = 3.59758 3.96937 3.78804
# Velocity P-wave (km/s) = 5.92319 6.43847 6.18620
#
# Compressibility (1/GPa) = 0.02708917
#
# Stress axis : x y z
#
# Youngs Moduli (GPa) = 128.63976 78.55403 93.04163
#
# Poissons Ratio (x) = -0.05312 0.26772
# Poissons Ratio (y) = -0.08698 -0.01116
# Poissons Ratio (z) = 0.37014 -0.00942
#
# Static dielectric constant tensor:
#      x y z
#    x 1.762550 0.000000 0.000000 
#    y 0.000000 1.611880 0.000000 
#    z 0.000000 0.000000 1.772540 
# 
# From -- ./inp_files/28994.got.cif
#   From: 2010.05.17/outbox.cif.g08.bks.cpg/sg70_15_cif.got.tgz:28994.got - 2010.06.03 15:57:51.
