data_PCOD9516524
_publ_section_title
;
Structure prediction by ZEFSAII (Michael W. Deem and Ramdas Pophale) SiO2 
 PCOD9516524
Probable space group: F D D D
;
_chemical_formula_sum "Si O2"
_cell_formula_units_Z 144
_cell_length_a 22.629252
_cell_length_b 17.840017
_cell_length_c 14.189790
_cell_angle_alpha 90.000000
_cell_angle_beta 90.000000
_cell_angle_gamma 90.000000
_cell_volume 5728.506773
_symmetry_space_group_name_H-M "F D D D"
_symmetry_group_IT_number 70
_space_group.IT_coordinate_system_code '2'
_symmetry_cell_setting 'orthorhombic'
loop_
_space_group_symop_operation_xyz
x,y,z
1/4-x,1/4-y,z
x,1/4-y,1/4-z
1/4-x,y,1/4-z
-x,-y,-z
3/4+x,3/4+y,-z
-x,3/4+y,3/4+z
3/4+x,-y,3/4+z
x,1/2+y,1/2+z
1/4-x,3/4-y,1/2+z
x,3/4-y,3/4-z
1/4-x,1/2+y,3/4-z
-x,1/2-y,1/2-z
3/4+x,1/4+y,1/2-z
-x,1/4+y,1/4+z
3/4+x,1/2-y,1/4+z
1/2+x,y,1/2+z
3/4-x,1/4-y,1/2+z
1/2+x,1/4-y,3/4-z
3/4-x,y,3/4-z
1/2-x,-y,1/2-z
1/4+x,3/4+y,1/2-z
1/2-x,3/4+y,1/4+z
1/4+x,-y,1/4+z
1/2+x,1/2+y,z
3/4-x,3/4-y,z
1/2+x,3/4-y,1/4-z
3/4-x,1/2+y,1/4-z
1/2-x,1/2-y,-z
1/4+x,1/4+y,-z
1/2-x,1/4+y,3/4+z
1/4+x,1/2-y,3/4+z
loop_
_atom_site_type_symbol
_atom_site_label
_atom_site_fract_x
_atom_site_fract_y
_atom_site_fract_z
Si Si1 0.269857 0.464695 0.596876
Si Si2 0.029289 0.365388 0.498313
Si Si3 0.875000 0.375000 0.757184
Si Si4 0.659497 0.856561 0.268001
Si Si5 0.949387 0.743308 0.326655
O O1 0.263718 0.424642 0.699308
O O2 0.268848 0.555848 0.588272
O O3 0.329767 0.427758 0.553292
O O4 0.210970 0.437287 0.537385
O O5 0.090603 0.413597 0.488352
O O6 0.030116 0.297554 0.579105
O O7 0.918140 0.321455 0.815503
O O8 0.677372 0.875000 0.375000
O O9 0.654034 0.935706 0.217539
O O10 0.000000 0.750000 0.250000
#
# Coordination Sequence:
#
# PCOD9516524 Si02
#       5
#    32  32  16  32  32
#     4  11  24  37  65  96 137 175 222 284 360 429
#     4  11  24  43  62  95 136 175 225 280 349 418
#     4  12  22  33  62  92 137 164 212 274 357 412
#     4  11  23  40  59  88 131 179 222 281 340 413
#     4  11  20  37  57  93 127 163 216 275 351 412
#
# _framework density 25.137440999999999
#
# number of rings (size 3 to 8) (size 9 to 14) (size 15 to 20)
#    0.000    0.889    6.667    4.000    0.000    0.889 
#    0.000    1.111    0.000    0.000    0.000    0.000 
#    0.000    0.000    0.000    0.000    0.000    0.000 
#
# Total GULP energy -200589.652091 kJ/mol
# GULP energy per Si atom -5571.934780 kJ/mol
# Density = 2.508023 g / cm^3
# Si number density = 25.137441 Si / 1000 Ang^3
#
#
#
# Elastic Constant Matrix: (Units=GPa)
#
#
# Indices 1 2 3 4 5 6 
#
# 1 127.2043 51.1594 19.4254 0.0000 0.0000 0.0000
# 2 51.1594 185.9819 15.0586 0.0000 0.0000 0.0000
# 3 19.4254 15.0586 55.2984 0.0000 0.0000 0.0000
# 4 0.0000 0.0000 0.0000 34.9290 0.0000 0.0000
# 5 0.0000 0.0000 0.0000 0.0000 44.9878 0.0000
# 6 0.0000 0.0000 0.0000 0.0000 0.0000 41.8900
#
#
#
# Elastic Compliance Matrix: (Units=1/GPa)
#
#
# Indices 1 2 3 4 5 6 
#
# 1 0.009190 -0.002318 -0.002597 0.000000 0.000000 0.000000
# 2 -0.002318 0.006083 -0.000842 0.000000 0.000000 0.000000
# 3 -0.002597 -0.000842 0.019225 0.000000 0.000000 0.000000
# 4 0.000000 0.000000 0.000000 0.028630 0.000000 0.000000
# 5 0.000000 0.000000 0.000000 0.000000 0.022228 0.000000
# 6 0.000000 0.000000 0.000000 0.000000 0.000000 0.023872
#
#
# Mechanical properties :
#
#
# Convention : Reuss Voigt Hill
#
# Bulk Modulus (GPa) = 43.50871 59.97463 51.74167
# Shear Modulus (GPa) = 38.93973 43.21742 41.07857
#
# Velocity S-wave (km/s) = 3.94010 4.15088 4.04686
# Velocity P-wave (km/s) = 6.16807 6.84715 6.51646
#
# Compressibility (1/GPa) = 0.02298390
#
# Stress axis : x y z
#
# Youngs Moduli (GPa) = 108.81239 164.40317 52.01451
#
# Poissons Ratio (x) = 0.38104 0.13509
# Poissons Ratio (y) = 0.25220 0.04381
# Poissons Ratio (z) = 0.28261 0.13846
#
# Static dielectric constant tensor:
#      x y z
#    x 2.169790 0.000000 0.000000 
#    y 0.000000 2.068120 0.000000 
#    z 0.000000 0.000000 2.380370 
# 
# From -- ./inp_files/37439.got.cif
#   From: 2010.05.17/outbox.cif.g08.bks.cpg/sg70_19_cif.got.tgz:37439.got - 2010.06.03 15:57:51.
