data_PCOD9516341
_publ_section_title
;
Structure prediction by ZEFSAII (Michael W. Deem and Ramdas Pophale) SiO2 
 PCOD9516341
Probable space group: F D D D
;
_chemical_formula_sum "Si O2"
_cell_formula_units_Z 112
_cell_length_a 9.463999
_cell_length_b 20.971680
_cell_length_c 20.253430
_cell_angle_alpha 90.000000
_cell_angle_beta 90.000000
_cell_angle_gamma 90.000000
_cell_volume 4019.818933
_symmetry_space_group_name_H-M "F D D D"
_symmetry_group_IT_number 70
_space_group.IT_coordinate_system_code '2'
_symmetry_cell_setting 'orthorhombic'
loop_
_space_group_symop_operation_xyz
x,y,z
1/4-x,1/4-y,z
x,1/4-y,1/4-z
1/4-x,y,1/4-z
-x,-y,-z
3/4+x,3/4+y,-z
-x,3/4+y,3/4+z
3/4+x,-y,3/4+z
x,1/2+y,1/2+z
1/4-x,3/4-y,1/2+z
x,3/4-y,3/4-z
1/4-x,1/2+y,3/4-z
-x,1/2-y,1/2-z
3/4+x,1/4+y,1/2-z
-x,1/4+y,1/4+z
3/4+x,1/2-y,1/4+z
1/2+x,y,1/2+z
3/4-x,1/4-y,1/2+z
1/2+x,1/4-y,3/4-z
3/4-x,y,3/4-z
1/2-x,-y,1/2-z
1/4+x,3/4+y,1/2-z
1/2-x,3/4+y,1/4+z
1/4+x,-y,1/4+z
1/2+x,1/2+y,z
3/4-x,3/4-y,z
1/2+x,3/4-y,1/4-z
3/4-x,1/2+y,1/4-z
1/2-x,1/2-y,-z
1/4+x,1/4+y,-z
1/2-x,1/4+y,3/4+z
1/4+x,1/2-y,3/4+z
loop_
_atom_site_type_symbol
_atom_site_label
_atom_site_fract_x
_atom_site_fract_y
_atom_site_fract_z
Si Si1 0.706641 0.193615 0.190537
Si Si2 0.390177 0.497841 0.168728
Si Si3 0.287683 0.119144 0.010646
Si Si4 0.375000 0.600262 0.875000
O O1 0.625000 0.125000 0.185889
O O2 0.634778 0.223277 0.255482
O O3 0.496464 0.231825 0.126321
O O4 0.868664 0.178093 0.214933
O O5 0.459463 0.566226 0.183013
O O6 0.489285 0.446459 0.132052
O O7 0.361937 0.107044 0.939977
O O8 0.125000 0.125000 0.994713
#
# Coordination Sequence:
#
# PCOD9516341 Si02
#       4
#    32  32  32  16
#     4  11  25  45  69 109 147 193 251 312 376 461
#     4  11  23  43  73 100 152 194 244 313 378 443
#     4  11  24  44  74 106 146 199 253 305 381 452
#     4  10  24  46  69 118 144 190 261 314 362 468
#
# _framework density 27.861951999999999
#
# number of rings (size 3 to 8) (size 9 to 14) (size 15 to 20)
#    0.000    1.143    0.000    5.143    2.000    8.000 
#   10.286    0.000    0.000    0.000    0.000    0.000 
#    0.000    0.000    0.000    0.000    0.000    0.000 
#
# Total GULP energy -156508.070240 kJ/mol
# GULP energy per Si atom -5589.573937 kJ/mol
# Density = 2.779854 g / cm^3
# Si number density = 27.861952 Si / 1000 Ang^3
#
#
#
# Elastic Constant Matrix: (Units=GPa)
#
#
# Indices 1 2 3 4 5 6 
#
# 1 171.4695 54.9485 59.3030 0.0000 0.0000 0.0000
# 2 54.9485 99.6942 54.1005 0.0000 0.0000 0.0000
# 3 59.3030 54.1005 221.2530 0.0000 0.0000 0.0000
# 4 0.0000 0.0000 0.0000 67.6898 0.0000 0.0000
# 5 0.0000 0.0000 0.0000 0.0000 -237.8366 0.0000
# 6 0.0000 0.0000 0.0000 0.0000 0.0000 26.5119
#
#
#
# Elastic Compliance Matrix: (Units=1/GPa)
#
#
# Indices 1 2 3 4 5 6 
#
# 1 0.007318 -0.003423 -0.001124 0.000000 0.000000 0.000000
# 2 -0.003423 0.013167 -0.002302 0.000000 0.000000 0.000000
# 3 -0.001124 -0.002302 0.005384 0.000000 0.000000 0.000000
# 4 0.000000 0.000000 0.000000 0.014773 0.000000 0.000000
# 5 0.000000 0.000000 0.000000 0.000000 -0.004205 0.000000
# 6 0.000000 0.000000 0.000000 0.000000 0.000000 0.037719
#
#
# Mechanical properties :
#
#
# Convention : Reuss Voigt Hill
#
# Bulk Modulus (GPa) = 82.17382 92.12453 87.14918
# Shear Modulus (GPa) = 54.40018 -7.12267 23.63875
#
# Velocity S-wave (km/s) = 4.42349 -1.60061 2.91593
# Velocity P-wave (km/s) = 7.45969 5.45165 6.53328
#
# Compressibility (1/GPa) = 0.01216933
#
# Stress axis : x y z
#
# Youngs Moduli (GPa) = 136.65329 75.94956 185.73715
#
# Poissons Ratio (x) = 0.25999 0.20884
# Poissons Ratio (y) = 0.46779 0.42756
# Poissons Ratio (z) = 0.15365 0.17483
#
# Static dielectric constant tensor:
#      x y z
#    x 2.283480 0.000000 0.000000 
#    y 0.000000 5.392860 0.000000 
#    z 0.000000 0.000000 2.432170 
# 
# From -- ./inp_files/10681.got.cif
#   From: 2010.05.17/outbox.cif.g08.bks.cpg/sg70_6_cif.got.tgz:10681.got - 2010.06.03 15:57:51.
