data_PCOD9516533
_publ_section_title
;
Structure prediction by ZEFSAII (Michael W. Deem and Ramdas Pophale) SiO2 
 PCOD9516533
Probable space group: F D D D
;
_chemical_formula_sum "Si O2"
_cell_formula_units_Z 112
_cell_length_a 8.353159
_cell_length_b 27.924958
_cell_length_c 22.708707
_cell_angle_alpha 90.000000
_cell_angle_beta 90.000000
_cell_angle_gamma 90.000000
_cell_volume 5297.069652
_symmetry_space_group_name_H-M "F D D D"
_symmetry_group_IT_number 70
_space_group.IT_coordinate_system_code '2'
_symmetry_cell_setting 'orthorhombic'
loop_
_space_group_symop_operation_xyz
x,y,z
1/4-x,1/4-y,z
x,1/4-y,1/4-z
1/4-x,y,1/4-z
-x,-y,-z
3/4+x,3/4+y,-z
-x,3/4+y,3/4+z
3/4+x,-y,3/4+z
x,1/2+y,1/2+z
1/4-x,3/4-y,1/2+z
x,3/4-y,3/4-z
1/4-x,1/2+y,3/4-z
-x,1/2-y,1/2-z
3/4+x,1/4+y,1/2-z
-x,1/4+y,1/4+z
3/4+x,1/2-y,1/4+z
1/2+x,y,1/2+z
3/4-x,1/4-y,1/2+z
1/2+x,1/4-y,3/4-z
3/4-x,y,3/4-z
1/2-x,-y,1/2-z
1/4+x,3/4+y,1/2-z
1/2-x,3/4+y,1/4+z
1/4+x,-y,1/4+z
1/2+x,1/2+y,z
3/4-x,3/4-y,z
1/2+x,3/4-y,1/4-z
3/4-x,1/2+y,1/4-z
1/2-x,1/2-y,-z
1/4+x,1/4+y,-z
1/2-x,1/4+y,3/4+z
1/4+x,1/2-y,3/4+z
loop_
_atom_site_type_symbol
_atom_site_label
_atom_site_fract_x
_atom_site_fract_y
_atom_site_fract_z
Si Si1 0.719258 0.908061 0.517133
Si Si2 0.625000 0.770122 0.125000
Si Si3 0.037127 0.483609 0.835292
Si Si4 0.259746 0.661178 0.818574
O O1 0.673453 0.944185 0.570819
O O2 0.725225 0.940191 0.459617
O O3 0.584357 0.867514 0.514851
O O4 0.875000 0.875000 0.526179
O O5 0.786448 0.738689 0.114890
O O6 0.875000 0.481491 0.875000
O O7 0.032709 0.535095 0.802123
O O8 0.375000 0.665244 0.875000
O O9 0.125000 0.625000 0.839836
#
# Coordination Sequence:
#
# PCOD9516533 Si02
#       4
#    32  16  32  32
#     4  12  25  44  71 102 141 185 233 292 352 417
#     4  12  24  44  76 107 138 178 245 302 342 416
#     4  11  26  46  71 104 145 185 234 289 358 422
#     4  11  20  38  69 101 133 175 231 292 344 409
#
# _framework density 21.143764999999998
#
# number of rings (size 3 to 8) (size 9 to 14) (size 15 to 20)
#    0.000    0.571    4.286    5.143    0.000    5.143 
#    0.000    0.000    0.000    1.714    0.000    0.000 
#    0.000    0.000    0.000    0.000    0.000    0.000 
#
# Total GULP energy -156083.773371 kJ/mol
# GULP energy per Si atom -5574.420478 kJ/mol
# Density = 2.109564 g / cm^3
# Si number density = 21.143765 Si / 1000 Ang^3
#
#
#
# Elastic Constant Matrix: (Units=GPa)
#
#
# Indices 1 2 3 4 5 6 
#
# 1 159.3187 55.2623 54.4179 0.0000 0.0000 0.0000
# 2 55.2623 119.5196 58.2055 0.0000 0.0000 0.0000
# 3 54.4179 58.2055 71.0888 0.0000 0.0000 0.0000
# 4 0.0000 0.0000 0.0000 9.1579 0.0000 0.0000
# 5 0.0000 0.0000 0.0000 0.0000 9.9018 0.0000
# 6 0.0000 0.0000 0.0000 0.0000 0.0000 5.2197
#
#
#
# Elastic Compliance Matrix: (Units=1/GPa)
#
#
# Indices 1 2 3 4 5 6 
#
# 1 0.008616 -0.001284 -0.005544 0.000000 0.000000 0.000000
# 2 -0.001284 0.014107 -0.010568 0.000000 0.000000 0.000000
# 3 -0.005544 -0.010568 0.026963 0.000000 0.000000 0.000000
# 4 0.000000 0.000000 0.000000 0.109195 0.000000 0.000000
# 5 0.000000 0.000000 0.000000 0.000000 0.100992 0.000000
# 6 0.000000 0.000000 0.000000 0.000000 0.000000 0.191583
#
#
# Mechanical properties :
#
#
# Convention : Reuss Voigt Hill
#
# Bulk Modulus (GPa) = 67.13689 76.18872 71.66281
# Shear Modulus (GPa) = 10.17892 16.99197 13.58544
#
# Velocity S-wave (km/s) = 2.19650 2.83793 2.53756
# Velocity P-wave (km/s) = 6.18501 6.84473 6.52321
#
# Compressibility (1/GPa) = 0.01489494
#
# Stress axis : x y z
#
# Youngs Moduli (GPa) = 116.06714 70.88839 37.08726
#
# Poissons Ratio (x) = 0.09099 0.20562
# Poissons Ratio (y) = 0.14899 0.39192
# Poissons Ratio (z) = 0.64351 0.74912
#
# Static dielectric constant tensor:
#      x y z
#    x 1.671890 0.000000 0.000000 
#    y 0.000000 1.741250 0.000000 
#    z 0.000000 0.000000 1.758050 
# 
# From -- ./inp_files/10702.got.cif
#   From: 2010.05.17/outbox.cif.g08.bks.cpg/sg70_6_cif.got.tgz:10702.got - 2010.06.03 15:57:51.
