data_PCOD9516519
_publ_section_title
;
Structure prediction by ZEFSAII (Michael W. Deem and Ramdas Pophale) SiO2 
 PCOD9516519
Probable space group: F D D D
;
_chemical_formula_sum "Si O2"
_cell_formula_units_Z 160
_cell_length_a 25.779149
_cell_length_b 26.246351
_cell_length_c 13.921779
_cell_angle_alpha 90.000000
_cell_angle_beta 90.000000
_cell_angle_gamma 90.000000
_cell_volume 9419.595303
_symmetry_space_group_name_H-M "F D D D"
_symmetry_group_IT_number 70
_space_group.IT_coordinate_system_code '2'
_symmetry_cell_setting 'orthorhombic'
loop_
_space_group_symop_operation_xyz
x,y,z
1/4-x,1/4-y,z
x,1/4-y,1/4-z
1/4-x,y,1/4-z
-x,-y,-z
3/4+x,3/4+y,-z
-x,3/4+y,3/4+z
3/4+x,-y,3/4+z
x,1/2+y,1/2+z
1/4-x,3/4-y,1/2+z
x,3/4-y,3/4-z
1/4-x,1/2+y,3/4-z
-x,1/2-y,1/2-z
3/4+x,1/4+y,1/2-z
-x,1/4+y,1/4+z
3/4+x,1/2-y,1/4+z
1/2+x,y,1/2+z
3/4-x,1/4-y,1/2+z
1/2+x,1/4-y,3/4-z
3/4-x,y,3/4-z
1/2-x,-y,1/2-z
1/4+x,3/4+y,1/2-z
1/2-x,3/4+y,1/4+z
1/4+x,-y,1/4+z
1/2+x,1/2+y,z
3/4-x,3/4-y,z
1/2+x,3/4-y,1/4-z
3/4-x,1/2+y,1/4-z
1/2-x,1/2-y,-z
1/4+x,1/4+y,-z
1/2-x,1/4+y,3/4+z
1/4+x,1/2-y,3/4+z
loop_
_atom_site_type_symbol
_atom_site_label
_atom_site_fract_x
_atom_site_fract_y
_atom_site_fract_z
Si Si1 0.112145 0.845065 0.973576
Si Si2 0.959348 0.140766 0.859420
Si Si3 0.610011 0.234066 0.014584
Si Si4 0.966284 0.982229 0.590589
Si Si5 0.256586 0.922838 0.950323
O O1 0.118820 0.875000 0.875000
O O2 0.092511 0.786984 0.965521
O O3 0.072008 0.872488 0.045030
O O4 0.166346 0.840466 0.031435
O O5 0.002025 0.184029 0.880158
O O6 0.985880 0.095588 0.802318
O O7 0.660061 0.217814 0.952065
O O8 0.625000 0.246570 0.125000
O O9 0.564093 0.194145 0.030180
O O10 0.000000 0.000000 0.500000
O O11 0.970707 0.031233 0.659893
O O12 0.257428 0.875000 0.875000
#
# Coordination Sequence:
#
# PCOD9516519 Si02
#       5
#    32  32  32  32  32
#     4  11  20  36  58  77 106 150 191 227 275 328
#     4  11  21  36  53  82 112 145 184 231 279 333
#     4  12  20  33  54  83 114 141 179 230 289 336
#     4  12  19  34  52  79 118 145 174 226 285 337
#     4  12  22  34  55  84 117 147 179 225 286 348
#
# _framework density 16.985868
#
# number of rings (size 3 to 8) (size 9 to 14) (size 15 to 20)
#    0.000    0.400   10.000    1.800    0.000    2.800 
#    0.000    1.000    0.000    0.000    0.000    1.400 
#    0.000    0.000    0.000    0.000    0.000    0.000 
#
# Total GULP energy -223074.192960 kJ/mol
# GULP energy per Si atom -5576.854824 kJ/mol
# Density = 1.694721 g / cm^3
# Si number density = 16.985868 Si / 1000 Ang^3
#
#
#
# Elastic Constant Matrix: (Units=GPa)
#
#
# Indices 1 2 3 4 5 6 
#
# 1 94.8618 31.4284 44.3085 0.0000 0.0000 0.0000
# 2 31.4284 68.3268 40.7241 0.0000 0.0000 0.0000
# 3 44.3085 40.7241 72.2295 0.0000 0.0000 0.0000
# 4 0.0000 0.0000 0.0000 21.6597 0.0000 0.0000
# 5 0.0000 0.0000 0.0000 0.0000 28.8261 0.0000
# 6 0.0000 0.0000 0.0000 0.0000 0.0000 16.9053
#
#
#
# Elastic Compliance Matrix: (Units=1/GPa)
#
#
# Indices 1 2 3 4 5 6 
#
# 1 0.014978 -0.002128 -0.007988 0.000000 0.000000 0.000000
# 2 -0.002128 0.022345 -0.011293 0.000000 0.000000 0.000000
# 3 -0.007988 -0.011293 0.025112 0.000000 0.000000 0.000000
# 4 0.000000 0.000000 0.000000 0.046169 0.000000 0.000000
# 5 0.000000 0.000000 0.000000 0.000000 0.034691 0.000000
# 6 0.000000 0.000000 0.000000 0.000000 0.000000 0.059153
#
#
# Mechanical properties :
#
#
# Convention : Reuss Voigt Hill
#
# Bulk Modulus (GPa) = 50.97746 52.03779 51.50762
# Shear Modulus (GPa) = 19.85658 21.40869 20.63264
#
# Velocity S-wave (km/s) = 3.42278 3.55404 3.48903
# Velocity P-wave (km/s) = 6.75999 6.89522 6.82794
#
# Compressibility (1/GPa) = 0.01961651
#
# Stress axis : x y z
#
# Youngs Moduli (GPa) = 66.76516 44.75187 39.82140
#
# Poissons Ratio (x) = 0.09525 0.31809
# Poissons Ratio (y) = 0.14210 0.44971
# Poissons Ratio (z) = 0.53332 0.50539
#
# Static dielectric constant tensor:
#      x y z
#    x 1.645120 0.000000 0.000000 
#    y 0.000000 1.631540 0.000000 
#    z 0.000000 0.000000 1.568560 
# 
# From -- ./inp_files/20819.got.cif
#   From: 2010.05.17/outbox.cif.g08.bks.cpg/sg70_11_cif.got.tgz:20819.got - 2010.06.03 15:57:51.
