data_PCOD9516462
_publ_section_title
;
Structure prediction by ZEFSAII (Michael W. Deem and Ramdas Pophale) SiO2 
 PCOD9516462
Probable space group: F D D D
;
_chemical_formula_sum "Si O2"
_cell_formula_units_Z 56
_cell_length_a 17.288014
_cell_length_b 7.227249
_cell_length_c 13.960026
_cell_angle_alpha 90.000000
_cell_angle_beta 90.000000
_cell_angle_gamma 90.000000
_cell_volume 1744.232404
_symmetry_space_group_name_H-M "F D D D"
_symmetry_group_IT_number 70
_space_group.IT_coordinate_system_code '2'
_symmetry_cell_setting 'orthorhombic'
loop_
_space_group_symop_operation_xyz
x,y,z
1/4-x,1/4-y,z
x,1/4-y,1/4-z
1/4-x,y,1/4-z
-x,-y,-z
3/4+x,3/4+y,-z
-x,3/4+y,3/4+z
3/4+x,-y,3/4+z
x,1/2+y,1/2+z
1/4-x,3/4-y,1/2+z
x,3/4-y,3/4-z
1/4-x,1/2+y,3/4-z
-x,1/2-y,1/2-z
3/4+x,1/4+y,1/2-z
-x,1/4+y,1/4+z
3/4+x,1/2-y,1/4+z
1/2+x,y,1/2+z
3/4-x,1/4-y,1/2+z
1/2+x,1/4-y,3/4-z
3/4-x,y,3/4-z
1/2-x,-y,1/2-z
1/4+x,3/4+y,1/2-z
1/2-x,3/4+y,1/4+z
1/4+x,-y,1/4+z
1/2+x,1/2+y,z
3/4-x,3/4-y,z
1/2+x,3/4-y,1/4-z
3/4-x,1/2+y,1/4-z
1/2-x,1/2-y,-z
1/4+x,1/4+y,-z
1/2-x,1/4+y,3/4+z
1/4+x,1/2-y,3/4+z
loop_
_atom_site_type_symbol
_atom_site_label
_atom_site_fract_x
_atom_site_fract_y
_atom_site_fract_z
Si Si1 0.876657 0.625000 0.625000
Si Si2 0.875000 0.375000 0.875000
Si Si3 0.528913 0.969578 0.701762
O O1 0.820424 0.740540 0.695747
O O2 0.936821 0.515198 0.695559
O O3 0.936638 0.227011 0.829416
O O4 0.552296 0.125000 0.625000
#
# Coordination Sequence:
#
# PCOD9516462 Si02
#       3
#    16   8  32
#     4  10  26  62  96 131 210 247 336 414 504 584
#     4  12  26  58  88 148 186 264 322 410 520 580
#     4  10  27  59  90 144 191 260 327 422 485 616
#
# _framework density 32.105812999999998
#
# number of rings (size 3 to 8) (size 9 to 14) (size 15 to 20)
#    1.714    0.000    0.000    0.857    0.000    6.857 
#   30.857    0.000    0.000    0.000    0.000    0.000 
#    0.000    0.000    0.000    0.000    0.000    0.000 
#
# Total GULP energy -78325.712146 kJ/mol
# GULP energy per Si atom -5594.693725 kJ/mol
# Density = 3.203274 g / cm^3
# Si number density = 32.105813 Si / 1000 Ang^3
#
#
#
# Elastic Constant Matrix: (Units=GPa)
#
#
# Indices 1 2 3 4 5 6 
#
# 1 370.1396 72.2689 135.4294 0.0000 0.0000 0.0000
# 2 72.2689 192.0026 75.4183 0.0000 0.0000 0.0000
# 3 135.4294 75.4183 225.0730 0.0000 0.0000 0.0000
# 4 0.0000 0.0000 0.0000 81.0445 0.0000 0.0000
# 5 0.0000 0.0000 0.0000 0.0000 76.1596 0.0000
# 6 0.0000 0.0000 0.0000 0.0000 0.0000 77.0454
#
#
#
# Elastic Compliance Matrix: (Units=1/GPa)
#
#
# Indices 1 2 3 4 5 6 
#
# 1 0.003517 -0.000567 -0.001926 0.000000 0.000000 0.000000
# 2 -0.000567 0.006089 -0.001699 0.000000 0.000000 0.000000
# 3 -0.001926 -0.001699 0.006171 0.000000 0.000000 0.000000
# 4 0.000000 0.000000 0.000000 0.012339 0.000000 0.000000
# 5 0.000000 0.000000 0.000000 0.000000 0.013130 0.000000
# 6 0.000000 0.000000 0.000000 0.000000 0.000000 0.012979
#
#
# Mechanical properties :
#
#
# Convention : Reuss Voigt Hill
#
# Bulk Modulus (GPa) = 135.27011 150.38316 142.82663
# Shear Modulus (GPa) = 76.83349 80.45648 78.64498
#
# Velocity S-wave (km/s) = 4.89727 5.01141 4.95467
# Velocity P-wave (km/s) = 8.61404 8.96812 8.79286
#
# Compressibility (1/GPa) = 0.00739262
#
# Stress axis : x y z
#
# Youngs Moduli (GPa) = 284.31359 164.22640 162.03740
#
# Poissons Ratio (x) = 0.09315 0.31213
# Poissons Ratio (y) = 0.16127 0.27531
# Poissons Ratio (z) = 0.54767 0.27903
#
# Static dielectric constant tensor:
#      x y z
#    x 2.598810 0.000000 0.000000 
#    y 0.000000 1.313260 0.000000 
#    z 0.000000 0.000000 2.729900 
# 
# From -- ./inp_files/7406.got.cif
#   From: 2010.05.17/outbox.cif.g08.bks.cpg/sg70_4_cif.got.tgz:7406.got - 2010.06.03 15:57:51.
