data_PCOD9516073
_publ_section_title
;
Structure prediction by ZEFSAII (Michael W. Deem and Ramdas Pophale) SiO2 
 PCOD9516073
Probable space group: F D D D
;
_chemical_formula_sum "Si O2"
_cell_formula_units_Z 232
_cell_length_a 26.977049
_cell_length_b 15.476795
_cell_length_c 24.514476
_cell_angle_alpha 90.000000
_cell_angle_beta 90.000000
_cell_angle_gamma 90.000000
_cell_volume 10235.241293
_symmetry_space_group_name_H-M "F D D D"
_symmetry_group_IT_number 70
_space_group.IT_coordinate_system_code '2'
_symmetry_cell_setting 'orthorhombic'
loop_
_space_group_symop_operation_xyz
x,y,z
1/4-x,1/4-y,z
x,1/4-y,1/4-z
1/4-x,y,1/4-z
-x,-y,-z
3/4+x,3/4+y,-z
-x,3/4+y,3/4+z
3/4+x,-y,3/4+z
x,1/2+y,1/2+z
1/4-x,3/4-y,1/2+z
x,3/4-y,3/4-z
1/4-x,1/2+y,3/4-z
-x,1/2-y,1/2-z
3/4+x,1/4+y,1/2-z
-x,1/4+y,1/4+z
3/4+x,1/2-y,1/4+z
1/2+x,y,1/2+z
3/4-x,1/4-y,1/2+z
1/2+x,1/4-y,3/4-z
3/4-x,y,3/4-z
1/2-x,-y,1/2-z
1/4+x,3/4+y,1/2-z
1/2-x,3/4+y,1/4+z
1/4+x,-y,1/4+z
1/2+x,1/2+y,z
3/4-x,3/4-y,z
1/2+x,3/4-y,1/4-z
3/4-x,1/2+y,1/4-z
1/2-x,1/2-y,-z
1/4+x,1/4+y,-z
1/2-x,1/4+y,3/4+z
1/4+x,1/2-y,3/4+z
loop_
_atom_site_type_symbol
_atom_site_label
_atom_site_fract_x
_atom_site_fract_y
_atom_site_fract_z
Si Si1 0.950439 0.488359 0.624185
Si Si2 0.954820 0.786409 0.806601
Si Si3 0.759522 0.301683 0.915858
Si Si4 0.889958 0.697057 0.717841
Si Si5 0.497137 0.472442 0.774450
Si Si6 0.695235 0.353274 0.020192
Si Si7 0.625000 0.625000 0.125000
Si Si8 0.448908 0.798463 0.581897
O O1 0.915110 0.552596 0.591204
O O2 0.936982 0.390783 0.607707
O O3 0.004469 0.497100 0.596231
O O4 0.954950 0.508505 0.688256
O O5 0.934682 0.729670 0.756626
O O6 0.976158 0.879583 0.790457
O O7 0.906499 0.811245 0.838912
O O8 0.781010 0.375000 0.875000
O O9 0.795378 0.223857 0.936631
O O10 0.713304 0.262588 0.881860
O O11 0.734505 0.338845 0.970745
O O12 0.859450 0.618184 0.744703
O O13 0.846261 0.767352 0.706131
O O14 0.462160 0.552950 0.791895
O O15 0.496264 0.462054 0.708956
#
# Coordination Sequence:
#
# PCOD9516073 Si02
#       8
#    32  32  32  32  32  32   8  32
#     4  12  24  42  63  98 144 190 230 289 360 424
#     4  12  25  40  64  97 141 184 223 285 348 432
#     4  11  20  42  69 104 139 182 248 311 358 417
#     4  11  24  42  65 100 143 186 240 292 351 435
#     4  11  21  41  59  98 140 180 233 279 355 430
#     4  10  23  39  69 104 137 186 249 294 361 434
#     4  12  20  36  60  88 132 176 218 260 332 422
#     4  11  23  40  68 100 135 187 241 290 355 424
#
# _framework density 22.666782999999999
#
# number of rings (size 3 to 8) (size 9 to 14) (size 15 to 20)
#    0.000    0.828    6.897    2.483    1.931    0.000 
#    4.966    0.000    0.000    0.000    0.000    3.862 
#    0.000    0.000    0.000    0.138    0.000    0.000 
#
# Total GULP energy -323564.544450 kJ/mol
# GULP energy per Si atom -5578.699042 kJ/mol
# Density = 2.261519 g / cm^3
# Si number density = 22.666783 Si / 1000 Ang^3
#
#
#
# Elastic Constant Matrix: (Units=GPa)
#
#
# Indices 1 2 3 4 5 6 
#
# 1 57.2085 36.4634 23.0548 0.0000 0.0000 0.0000
# 2 36.4634 111.0064 29.5115 0.0000 0.0000 0.0000
# 3 23.0548 29.5115 87.0088 0.0000 0.0000 0.0000
# 4 0.0000 0.0000 0.0000 32.8688 0.0000 0.0000
# 5 0.0000 0.0000 0.0000 0.0000 219.7891 0.0000
# 6 0.0000 0.0000 0.0000 0.0000 0.0000 29.7891
#
#
#
# Elastic Compliance Matrix: (Units=1/GPa)
#
#
# Indices 1 2 3 4 5 6 
#
# 1 0.023269 -0.006599 -0.003927 0.000000 0.000000 0.000000
# 2 -0.006599 0.011773 -0.002245 0.000000 0.000000 0.000000
# 3 -0.003927 -0.002245 0.013295 0.000000 0.000000 0.000000
# 4 0.000000 0.000000 0.000000 0.030424 0.000000 0.000000
# 5 0.000000 0.000000 0.000000 0.000000 0.004550 0.000000
# 6 0.000000 0.000000 0.000000 0.000000 0.000000 0.033569
#
#
# Mechanical properties :
#
#
# Convention : Reuss Voigt Hill
#
# Bulk Modulus (GPa) = 43.86982 48.14257 46.00620
# Shear Modulus (GPa) = 33.32886 67.56900 50.44893
#
# Velocity S-wave (km/s) = 3.83872 5.46575 4.72283
# Velocity P-wave (km/s) = 6.24851 7.81779 7.07679
#
# Compressibility (1/GPa) = 0.02279471
#
# Stress axis : x y z
#
# Youngs Moduli (GPa) = 42.97598 84.94059 75.21633
#
# Poissons Ratio (x) = 0.56055 0.29539
# Poissons Ratio (y) = 0.28361 0.16882
# Poissons Ratio (z) = 0.16878 0.19065
#
# Static dielectric constant tensor:
#      x y z
#    x 1.885790 0.000000 0.000000 
#    y 0.000000 1.942210 0.000000 
#    z 0.000000 0.000000 1.984690 
# 
# From -- ./inp_files/55216.got.cif
#   From: 2010.05.17/outbox.cif.g08.bks.cpg/sg70_28_cif.got.tgz:55216.got - 2010.06.03 15:57:51.
