data_PCOD9516953
_publ_section_title
;
Structure prediction by ZEFSAII (Michael W. Deem and Ramdas Pophale) SiO2 
 PCOD9516953
Probable space group: F D D D
;
_chemical_formula_sum "Si O2"
_cell_formula_units_Z 112
_cell_length_a 16.606121
_cell_length_b 23.116992
_cell_length_c 10.918510
_cell_angle_alpha 90.000000
_cell_angle_beta 90.000000
_cell_angle_gamma 90.000000
_cell_volume 4191.436558
_symmetry_space_group_name_H-M "F D D D"
_symmetry_group_IT_number 70
_space_group.IT_coordinate_system_code '2'
_symmetry_cell_setting 'orthorhombic'
loop_
_space_group_symop_operation_xyz
x,y,z
1/4-x,1/4-y,z
x,1/4-y,1/4-z
1/4-x,y,1/4-z
-x,-y,-z
3/4+x,3/4+y,-z
-x,3/4+y,3/4+z
3/4+x,-y,3/4+z
x,1/2+y,1/2+z
1/4-x,3/4-y,1/2+z
x,3/4-y,3/4-z
1/4-x,1/2+y,3/4-z
-x,1/2-y,1/2-z
3/4+x,1/4+y,1/2-z
-x,1/4+y,1/4+z
3/4+x,1/2-y,1/4+z
1/2+x,y,1/2+z
3/4-x,1/4-y,1/2+z
1/2+x,1/4-y,3/4-z
3/4-x,y,3/4-z
1/2-x,-y,1/2-z
1/4+x,3/4+y,1/2-z
1/2-x,3/4+y,1/4+z
1/4+x,-y,1/4+z
1/2+x,1/2+y,z
3/4-x,3/4-y,z
1/2+x,3/4-y,1/4-z
3/4-x,1/2+y,1/4-z
1/2-x,1/2-y,-z
1/4+x,1/4+y,-z
1/2-x,1/4+y,3/4+z
1/4+x,1/2-y,3/4+z
loop_
_atom_site_type_symbol
_atom_site_label
_atom_site_fract_x
_atom_site_fract_y
_atom_site_fract_z
Si Si1 0.991337 0.513851 0.181509
Si Si2 0.651335 0.822797 0.513661
Si Si3 0.990576 0.125000 0.125000
Si Si4 0.337370 0.932672 0.154543
O O1 0.910493 0.475074 0.191935
O O2 0.054194 0.475505 0.101879
O O3 0.029320 0.538091 0.305501
O O4 0.964966 0.567250 0.095880
O O5 0.625000 0.866530 0.625000
O O6 0.569320 0.828676 0.435545
O O7 0.042455 0.158192 0.226198
O O8 0.375000 0.875000 0.094294
#
# Coordination Sequence:
#
# PCOD9516953 Si02
#       4
#    32  32  16  32
#     4  11  27  56  90 121 181 230 296 371 450 520
#     4  11  25  52  82 127 170 224 293 366 426 542
#     4  12  31  54  88 127 180 228 308 364 457 530
#     4  12  29  59  88 133 176 238 301 370 450 543
#
# _framework density 26.721146999999998
#
# number of rings (size 3 to 8) (size 9 to 14) (size 15 to 20)
#    0.000    0.571    2.857    2.143    8.000    1.143 
#   15.429   11.429    0.000    0.000    0.000    0.000 
#    0.000    0.000    0.000    0.000    0.000    0.000 
#
# Total GULP energy -156128.309325 kJ/mol
# GULP energy per Si atom -5576.011047 kJ/mol
# Density = 2.666033 g / cm^3
# Si number density = 26.721147 Si / 1000 Ang^3
#
#
#
# Elastic Constant Matrix: (Units=GPa)
#
#
# Indices 1 2 3 4 5 6 
#
# 1 228.4815 84.0661 146.0073 0.0000 0.0000 0.0000
# 2 84.0661 161.3154 103.5969 0.0000 0.0000 0.0000
# 3 146.0073 103.5969 222.4122 0.0000 0.0000 0.0000
# 4 0.0000 0.0000 0.0000 -15.1956 0.0000 0.0000
# 5 0.0000 0.0000 0.0000 0.0000 -31.9746 0.0000
# 6 0.0000 0.0000 0.0000 0.0000 0.0000 65.7069
#
#
#
# Elastic Compliance Matrix: (Units=1/GPa)
#
#
# Indices 1 2 3 4 5 6 
#
# 1 0.007672 -0.001090 -0.004529 0.000000 0.000000 0.000000
# 2 -0.001090 0.009000 -0.003477 0.000000 0.000000 0.000000
# 3 -0.004529 -0.003477 0.009088 0.000000 0.000000 0.000000
# 4 0.000000 0.000000 0.000000 -0.065809 0.000000 0.000000
# 5 0.000000 0.000000 0.000000 0.000000 -0.031275 0.000000
# 6 0.000000 0.000000 0.000000 0.000000 0.000000 0.015219
#
#
# Mechanical properties :
#
#
# Convention : Reuss Voigt Hill
#
# Bulk Modulus (GPa) = 132.10234 142.17220 137.13727
# Shear Modulus (GPa) = -141.27580 22.27660 -59.49960
#
# Velocity S-wave (km/s) = -7.27909 2.89047 -4.72390
# Velocity P-wave (km/s) = 4.59371 8.02877 4.65612
#
# Compressibility (1/GPa) = 0.00756989
#
# Stress axis : x y z
#
# Youngs Moduli (GPa) = 130.35131 111.11716 110.02981
#
# Poissons Ratio (x) = 0.12107 0.49829
# Poissons Ratio (y) = 0.14203 0.38253
# Poissons Ratio (z) = 0.59032 0.38631
#
# Static dielectric constant tensor:
#      x y z
#    x 2.328380 0.000000 0.000000 
#    y 0.000000 2.723300 0.000000 
#    z 0.000000 0.000000 2.287230 
# 
# From -- ./inp_files/15077.got.cif
#   From: 2010.05.17/outbox.cif.g08.bks.cpg/sg70_8_cif.got.tgz:15077.got - 2010.06.03 15:57:51.
