data_PCOD9516581
_publ_section_title
;
Structure prediction by ZEFSAII (Michael W. Deem and Ramdas Pophale) SiO2 
 PCOD9516581
Probable space group: F D D D
;
_chemical_formula_sum "Si O2"
_cell_formula_units_Z 96
_cell_length_a 28.965130
_cell_length_b 17.072693
_cell_length_c 9.216684
_cell_angle_alpha 90.000000
_cell_angle_beta 90.000000
_cell_angle_gamma 90.000000
_cell_volume 4557.767955
_symmetry_space_group_name_H-M "F D D D"
_symmetry_group_IT_number 70
_space_group.IT_coordinate_system_code '2'
_symmetry_cell_setting 'orthorhombic'
loop_
_space_group_symop_operation_xyz
x,y,z
1/4-x,1/4-y,z
x,1/4-y,1/4-z
1/4-x,y,1/4-z
-x,-y,-z
3/4+x,3/4+y,-z
-x,3/4+y,3/4+z
3/4+x,-y,3/4+z
x,1/2+y,1/2+z
1/4-x,3/4-y,1/2+z
x,3/4-y,3/4-z
1/4-x,1/2+y,3/4-z
-x,1/2-y,1/2-z
3/4+x,1/4+y,1/2-z
-x,1/4+y,1/4+z
3/4+x,1/2-y,1/4+z
1/2+x,y,1/2+z
3/4-x,1/4-y,1/2+z
1/2+x,1/4-y,3/4-z
3/4-x,y,3/4-z
1/2-x,-y,1/2-z
1/4+x,3/4+y,1/2-z
1/2-x,3/4+y,1/4+z
1/4+x,-y,1/4+z
1/2+x,1/2+y,z
3/4-x,3/4-y,z
1/2+x,3/4-y,1/4-z
3/4-x,1/2+y,1/4-z
1/2-x,1/2-y,-z
1/4+x,1/4+y,-z
1/2-x,1/4+y,3/4+z
1/4+x,1/2-y,3/4+z
loop_
_atom_site_type_symbol
_atom_site_label
_atom_site_fract_x
_atom_site_fract_y
_atom_site_fract_z
Si Si1 0.277083 0.426673 0.181815
Si Si2 0.125000 0.625000 0.875539
Si Si3 0.375000 0.250444 0.875000
Si Si4 0.975985 0.728904 0.901752
O O1 0.250000 0.500000 0.250000
O O2 0.331285 0.410231 0.210773
O O3 0.252844 0.404918 0.535728
O O4 0.273924 0.447048 0.009697
O O5 0.112511 0.694834 0.763191
O O6 0.327803 0.204283 0.853731
O O7 0.000000 0.750000 0.750000
#
# Coordination Sequence:
#
# PCOD9516581 Si02
#       4
#    32  16  16  32
#     4  11  23  41  63  94 132 167 210 275 337 385
#     4   9  18  38  65  84 124 175 211 252 328 395
#     4   9  18  36  66  90 115 168 228 254 299 398
#     4  11  21  41  66  92 123 169 222 264 317 399
#
# _framework density 21.062940999999999
#
# number of rings (size 3 to 8) (size 9 to 14) (size 15 to 20)
#    0.000    1.667    3.333    2.000    0.000    0.000 
#    6.000    5.000    0.000    0.000    0.000    0.000 
#    0.000    0.000    0.000    0.000    0.000    0.000 
#
# Total GULP energy -133810.249387 kJ/mol
# GULP energy per Si atom -5575.427058 kJ/mol
# Density = 2.101500 g / cm^3
# Si number density = 21.062941 Si / 1000 Ang^3
#
#
#
# Elastic Constant Matrix: (Units=GPa)
#
#
# Indices 1 2 3 4 5 6 
#
# 1 167.1393 41.9757 22.9560 0.0000 0.0000 0.0000
# 2 41.9757 77.9969 6.6500 0.0000 0.0000 0.0000
# 3 22.9560 6.6500 74.1274 0.0000 0.0000 0.0000
# 4 0.0000 0.0000 0.0000 32.5510 0.0000 0.0000
# 5 0.0000 0.0000 0.0000 0.0000 29.1706 0.0000
# 6 0.0000 0.0000 0.0000 0.0000 0.0000 40.8241
#
#
#
# Elastic Compliance Matrix: (Units=1/GPa)
#
#
# Indices 1 2 3 4 5 6 
#
# 1 0.007171 -0.003698 -0.001889 0.000000 0.000000 0.000000
# 2 -0.003698 0.014827 -0.000185 0.000000 0.000000 0.000000
# 3 -0.001889 -0.000185 0.014092 0.000000 0.000000 0.000000
# 4 0.000000 0.000000 0.000000 0.030721 0.000000 0.000000
# 5 0.000000 0.000000 0.000000 0.000000 0.034281 0.000000
# 6 0.000000 0.000000 0.000000 0.000000 0.000000 0.024495
#
#
# Mechanical properties :
#
#
# Convention : Reuss Voigt Hill
#
# Bulk Modulus (GPa) = 40.74008 51.38078 46.06043
# Shear Modulus (GPa) = 34.40821 37.02126 35.71474
#
# Velocity S-wave (km/s) = 4.04615 4.19698 4.12226
# Velocity P-wave (km/s) = 6.41970 6.92337 6.67629
#
# Compressibility (1/GPa) = 0.02454586
#
# Stress axis : x y z
#
# Youngs Moduli (GPa) = 139.44485 67.44398 70.96284
#
# Poissons Ratio (x) = 0.24943 0.13405
# Poissons Ratio (y) = 0.51571 0.01312
# Poissons Ratio (z) = 0.26342 0.01247
#
# Static dielectric constant tensor:
#      x y z
#    x 1.797930 0.000000 0.000000 
#    y 0.000000 1.701500 0.000000 
#    z 0.000000 0.000000 0.586100 
# 
# From -- ./inp_files/8106.got.cif
#   From: 2010.05.17/outbox.cif.g08.bks.cpg/sg70_5_cif.got.tgz:8106.got - 2010.06.03 15:57:51.
