data_PCOD9516424
_publ_section_title
;
Structure prediction by ZEFSAII (Michael W. Deem and Ramdas Pophale) SiO2 
 PCOD9516424
Probable space group: F D D D
;
_chemical_formula_sum "Si O2"
_cell_formula_units_Z 176
_cell_length_a 17.702910
_cell_length_b 27.888950
_cell_length_c 16.598204
_cell_angle_alpha 90.000000
_cell_angle_beta 90.000000
_cell_angle_gamma 90.000000
_cell_volume 8194.791779
_symmetry_space_group_name_H-M "F D D D"
_symmetry_group_IT_number 70
_space_group.IT_coordinate_system_code '2'
_symmetry_cell_setting 'orthorhombic'
loop_
_space_group_symop_operation_xyz
x,y,z
1/4-x,1/4-y,z
x,1/4-y,1/4-z
1/4-x,y,1/4-z
-x,-y,-z
3/4+x,3/4+y,-z
-x,3/4+y,3/4+z
3/4+x,-y,3/4+z
x,1/2+y,1/2+z
1/4-x,3/4-y,1/2+z
x,3/4-y,3/4-z
1/4-x,1/2+y,3/4-z
-x,1/2-y,1/2-z
3/4+x,1/4+y,1/2-z
-x,1/4+y,1/4+z
3/4+x,1/2-y,1/4+z
1/2+x,y,1/2+z
3/4-x,1/4-y,1/2+z
1/2+x,1/4-y,3/4-z
3/4-x,y,3/4-z
1/2-x,-y,1/2-z
1/4+x,3/4+y,1/2-z
1/2-x,3/4+y,1/4+z
1/4+x,-y,1/4+z
1/2+x,1/2+y,z
3/4-x,3/4-y,z
1/2+x,3/4-y,1/4-z
3/4-x,1/2+y,1/4-z
1/2-x,1/2-y,-z
1/4+x,1/4+y,-z
1/2-x,1/4+y,3/4+z
1/4+x,1/2-y,3/4+z
loop_
_atom_site_type_symbol
_atom_site_label
_atom_site_fract_x
_atom_site_fract_y
_atom_site_fract_z
Si Si1 0.375000 0.251080 0.375000
Si Si2 0.375000 0.375000 0.585546
Si Si3 0.144834 0.922183 0.492179
Si Si4 0.125000 0.756531 0.625000
Si Si5 0.778486 0.415735 0.806622
Si Si6 0.257284 0.581366 0.804195
Si Si7 0.728661 0.180474 0.623047
O O1 0.398916 0.216608 0.447542
O O2 0.443820 0.284975 0.346892
O O3 0.420603 0.408534 0.522999
O O4 0.312462 0.401713 0.640370
O O5 0.190444 0.877450 0.531043
O O6 0.188191 0.933241 0.409527
O O7 0.057814 0.912520 0.472265
O O8 0.061865 0.792244 0.657502
O O9 0.176100 0.716946 0.672120
O O10 0.790120 0.375000 0.875000
O O11 0.228493 0.558514 0.721034
O O12 0.705353 0.125000 0.625000
#
# Coordination Sequence:
#
# PCOD9516424 Si02
#       7
#    16  16  32  16  32  32  32
#     4  12  24  44  68 118 140 182 242 304 380 454
#     4  12  25  44  75 100 154 192 242 304 371 448
#     4  11  26  46  74 101 145 190 241 307 378 449
#     4  12  24  44  72 100 140 178 252 284 364 430
#     4  12  24  48  72 106 145 192 244 307 381 454
#     4  11  26  46  69 105 139 195 239 298 363 440
#     4  10  25  46  69 104 139 186 233 307 366 432
#
# _framework density 21.477056000000001
#
# number of rings (size 3 to 8) (size 9 to 14) (size 15 to 20)
#    0.000    0.727    1.818    5.727    7.636    2.909 
#    0.000    0.000    0.000    0.000    0.000    0.000 
#    0.000    0.000    0.000    0.000    0.000    0.000 
#
# Total GULP energy -245715.879398 kJ/mol
# GULP energy per Si atom -5584.451804 kJ/mol
# Density = 2.142817 g / cm^3
# Si number density = 21.477056 Si / 1000 Ang^3
#
#
#
# Elastic Constant Matrix: (Units=GPa)
#
#
# Indices 1 2 3 4 5 6 
#
# 1 192.0685 65.9042 71.9983 0.0000 0.0000 0.0000
# 2 65.9042 133.9587 58.0529 0.0000 0.0000 0.0000
# 3 71.9983 58.0529 126.3908 0.0000 0.0000 0.0000
# 4 0.0000 0.0000 0.0000 11.4402 0.0000 0.0000
# 5 0.0000 0.0000 0.0000 0.0000 32.6048 0.0000
# 6 0.0000 0.0000 0.0000 0.0000 0.0000 25.5509
#
#
#
# Elastic Compliance Matrix: (Units=1/GPa)
#
#
# Indices 1 2 3 4 5 6 
#
# 1 0.007092 -0.002170 -0.003043 0.000000 0.000000 0.000000
# 2 -0.002170 0.009984 -0.003350 0.000000 0.000000 0.000000
# 3 -0.003043 -0.003350 0.011184 0.000000 0.000000 0.000000
# 4 0.000000 0.000000 0.000000 0.087411 0.000000 0.000000
# 5 0.000000 0.000000 0.000000 0.000000 0.030670 0.000000
# 6 0.000000 0.000000 0.000000 0.000000 0.000000 0.039138
#
#
# Mechanical properties :
#
#
# Convention : Reuss Voigt Hill
#
# Bulk Modulus (GPa) = 89.81286 93.81429 91.81358
# Shear Modulus (GPa) = 24.23463 31.01668 27.62566
#
# Velocity S-wave (km/s) = 3.36281 3.80436 3.59038
# Velocity P-wave (km/s) = 7.54896 7.94188 7.74791
#
# Compressibility (1/GPa) = 0.01113426
#
# Stress axis : x y z
#
# Youngs Moduli (GPa) = 141.00676 100.15706 89.41378
#
# Poissons Ratio (x) = 0.21737 0.27209
# Poissons Ratio (y) = 0.30602 0.29950
# Poissons Ratio (z) = 0.42909 0.33549
#
# Static dielectric constant tensor:
#      x y z
#    x 1.809790 0.000000 0.000000 
#    y 0.000000 1.787710 0.000000 
#    z 0.000000 0.000000 1.786950 
# 
# From -- ./inp_files/35471.got.cif
#   From: 2010.05.17/outbox.cif.g08.bks.cpg/sg70_18_cif.got.tgz:35471.got - 2010.06.03 15:57:51.
