data_PCOD9516785
_publ_section_title
;
Structure prediction by ZEFSAII (Michael W. Deem and Ramdas Pophale) SiO2 
 PCOD9516785
Probable space group: F D D D
;
_chemical_formula_sum "Si O2"
_cell_formula_units_Z 112
_cell_length_a 11.517580
_cell_length_b 16.767091
_cell_length_c 26.327187
_cell_angle_alpha 90.000000
_cell_angle_beta 90.000000
_cell_angle_gamma 90.000000
_cell_volume 5084.209258
_symmetry_space_group_name_H-M "F D D D"
_symmetry_group_IT_number 70
_space_group.IT_coordinate_system_code '2'
_symmetry_cell_setting 'orthorhombic'
loop_
_space_group_symop_operation_xyz
x,y,z
1/4-x,1/4-y,z
x,1/4-y,1/4-z
1/4-x,y,1/4-z
-x,-y,-z
3/4+x,3/4+y,-z
-x,3/4+y,3/4+z
3/4+x,-y,3/4+z
x,1/2+y,1/2+z
1/4-x,3/4-y,1/2+z
x,3/4-y,3/4-z
1/4-x,1/2+y,3/4-z
-x,1/2-y,1/2-z
3/4+x,1/4+y,1/2-z
-x,1/4+y,1/4+z
3/4+x,1/2-y,1/4+z
1/2+x,y,1/2+z
3/4-x,1/4-y,1/2+z
1/2+x,1/4-y,3/4-z
3/4-x,y,3/4-z
1/2-x,-y,1/2-z
1/4+x,3/4+y,1/2-z
1/2-x,3/4+y,1/4+z
1/4+x,-y,1/4+z
1/2+x,1/2+y,z
3/4-x,3/4-y,z
1/2+x,3/4-y,1/4-z
3/4-x,1/2+y,1/4-z
1/2-x,1/2-y,-z
1/4+x,1/4+y,-z
1/2-x,1/4+y,3/4+z
1/4+x,1/2-y,3/4+z
loop_
_atom_site_type_symbol
_atom_site_label
_atom_site_fract_x
_atom_site_fract_y
_atom_site_fract_z
Si Si1 0.369408 0.251501 0.730364
Si Si2 0.856759 0.682668 0.225546
Si Si3 0.875000 0.875000 0.109967
Si Si4 0.785161 0.722516 0.416229
O O1 0.500000 0.250000 0.750000
O O2 0.279693 0.296097 0.768497
O O3 0.347617 0.157853 0.722548
O O4 0.370889 0.300173 0.677915
O O5 0.900658 0.713661 0.280419
O O6 0.919766 0.728380 0.179900
O O7 0.762281 0.888327 0.144710
O O8 0.875000 0.756200 0.375000
#
# Coordination Sequence:
#
# PCOD9516785 Si02
#       4
#    32  32  16  32
#     4  12  22  45  71 103 142 195 229 294 358 443
#     4  11  25  44  74 101 147 188 238 293 373 423
#     4  12  24  42  70 100 144 180 236 292 356 428
#     4  11  23  46  69 106 139 184 237 302 350 431
#
# _framework density 22.028991000000001
#
# number of rings (size 3 to 8) (size 9 to 14) (size 15 to 20)
#    0.000    0.571    5.714    1.714    0.000    4.571 
#    5.143    0.000    0.000    3.429    0.000    0.000 
#    0.000    0.000    0.000    0.000    0.000    0.000 
#
# Total GULP energy -156286.546642 kJ/mol
# GULP energy per Si atom -5581.662380 kJ/mol
# Density = 2.197885 g / cm^3
# Si number density = 22.028991 Si / 1000 Ang^3
#
#
#
# Elastic Constant Matrix: (Units=GPa)
#
#
# Indices 1 2 3 4 5 6 
#
# 1 128.9736 14.1628 45.6900 0.0000 0.0000 0.0000
# 2 14.1628 94.5430 23.1651 0.0000 0.0000 0.0000
# 3 45.6900 23.1651 109.7181 0.0000 0.0000 0.0000
# 4 0.0000 0.0000 0.0000 10.3308 0.0000 0.0000
# 5 0.0000 0.0000 0.0000 0.0000 7.7789 0.0000
# 6 0.0000 0.0000 0.0000 0.0000 0.0000 26.1154
#
#
#
# Elastic Compliance Matrix: (Units=1/GPa)
#
#
# Indices 1 2 3 4 5 6 
#
# 1 0.009114 -0.000459 -0.003698 0.000000 0.000000 0.000000
# 2 -0.000459 0.011177 -0.002169 0.000000 0.000000 0.000000
# 3 -0.003698 -0.002169 0.011112 0.000000 0.000000 0.000000
# 4 0.000000 0.000000 0.000000 0.096798 0.000000 0.000000
# 5 0.000000 0.000000 0.000000 0.000000 0.128553 0.000000
# 6 0.000000 0.000000 0.000000 0.000000 0.000000 0.038292
#
#
# Mechanical properties :
#
#
# Convention : Reuss Voigt Hill
#
# Bulk Modulus (GPa) = 53.32991 55.47449 54.40220
# Shear Modulus (GPa) = 15.92615 25.52613 20.72614
#
# Velocity S-wave (km/s) = 2.69171 3.40774 3.07067
# Velocity P-wave (km/s) = 5.82426 6.38128 6.10912
#
# Compressibility (1/GPa) = 0.01875120
#
# Stress axis : x y z
#
# Youngs Moduli (GPa) = 109.71941 89.46655 89.99023
#
# Poissons Ratio (x) = 0.04108 0.33283
# Poissons Ratio (y) = 0.05037 0.19516
# Poissons Ratio (z) = 0.40579 0.19403
#
# Static dielectric constant tensor:
#      x y z
#    x 2.745100 0.000000 0.000000 
#    y 0.000000 1.169880 0.000000 
#    z 0.000000 0.000000 1.807300 
# 
# From -- ./inp_files/15070.got.cif
#   From: 2010.05.17/outbox.cif.g08.bks.cpg/sg70_8_cif.got.tgz:15070.got - 2010.06.03 15:57:51.
