data_PCOD9516252
_publ_section_title
;
Structure prediction by ZEFSAII (Michael W. Deem and Ramdas Pophale) SiO2 
 PCOD9516252
Probable space group: F D D D
;
_chemical_formula_sum "Si O2"
_cell_formula_units_Z 176
_cell_length_a 31.678087
_cell_length_b 20.590154
_cell_length_c 11.485261
_cell_angle_alpha 90.000000
_cell_angle_beta 90.000000
_cell_angle_gamma 90.000000
_cell_volume 7491.338321
_symmetry_space_group_name_H-M "F D D D"
_symmetry_group_IT_number 70
_space_group.IT_coordinate_system_code '2'
_symmetry_cell_setting 'orthorhombic'
loop_
_space_group_symop_operation_xyz
x,y,z
1/4-x,1/4-y,z
x,1/4-y,1/4-z
1/4-x,y,1/4-z
-x,-y,-z
3/4+x,3/4+y,-z
-x,3/4+y,3/4+z
3/4+x,-y,3/4+z
x,1/2+y,1/2+z
1/4-x,3/4-y,1/2+z
x,3/4-y,3/4-z
1/4-x,1/2+y,3/4-z
-x,1/2-y,1/2-z
3/4+x,1/4+y,1/2-z
-x,1/4+y,1/4+z
3/4+x,1/2-y,1/4+z
1/2+x,y,1/2+z
3/4-x,1/4-y,1/2+z
1/2+x,1/4-y,3/4-z
3/4-x,y,3/4-z
1/2-x,-y,1/2-z
1/4+x,3/4+y,1/2-z
1/2-x,3/4+y,1/4+z
1/4+x,-y,1/4+z
1/2+x,1/2+y,z
3/4-x,3/4-y,z
1/2+x,3/4-y,1/4-z
3/4-x,1/2+y,1/4-z
1/2-x,1/2-y,-z
1/4+x,1/4+y,-z
1/2-x,1/4+y,3/4+z
1/4+x,1/2-y,3/4+z
loop_
_atom_site_type_symbol
_atom_site_label
_atom_site_fract_x
_atom_site_fract_y
_atom_site_fract_z
Si Si1 0.079846 0.731302 0.112751
Si Si2 0.010194 0.659945 0.816435
Si Si3 0.175577 0.047596 0.868106
Si Si4 0.308000 0.625000 0.625000
Si Si5 0.663858 0.516987 0.351001
Si Si6 0.008572 0.302830 0.924858
O O1 0.125000 0.770307 0.125000
O O2 0.082677 0.690296 0.231086
O O3 0.029454 0.746391 0.113626
O O4 0.080559 0.704026 0.981668
O O5 0.041658 0.599553 0.835790
O O6 0.044974 0.713982 0.776874
O O7 0.973516 0.636231 0.732612
O O8 0.991165 0.687697 0.936323
O O9 0.131415 0.043194 0.936410
O O10 0.198339 0.977873 0.878973
O O11 0.335378 0.559764 0.623423
O O12 0.000913 0.375000 0.875000
#
# Coordination Sequence:
#
# PCOD9516252 Si02
#       6
#    32  32  32  16  32  32
#     4   9  19  37  62  93 130 164 205 261 319 378
#     4  11  23  44  67  90 124 173 218 263 315 384
#     4  11  22  40  64  97 133 161 213 266 327 387
#     4  12  26  46  65  88 134 172 219 266 320 382
#     4  10  24  41  65  95 128 171 214 262 322 384
#     4  11  22  34  62  96 128 161 207 257 327 377
#
# _framework density 23.493798999999999
#
# number of rings (size 3 to 8) (size 9 to 14) (size 15 to 20)
#    0.000    1.455    1.818    3.818    3.818    0.364 
#    0.000    4.545    0.000    0.000    0.000    0.000 
#    0.000    0.000    0.000    0.000    0.000    0.000 
#
# Total GULP energy -244986.316170 kJ/mol
# GULP energy per Si atom -5567.870822 kJ/mol
# Density = 2.344033 g / cm^3
# Si number density = 23.493799 Si / 1000 Ang^3
#
#
#
# Elastic Constant Matrix: (Units=GPa)
#
#
# Indices 1 2 3 4 5 6 
#
# 1 76.1032 19.8778 2.0548 0.0000 0.0000 0.0000
# 2 19.8778 117.6349 12.4969 0.0000 0.0000 0.0000
# 3 2.0548 12.4969 55.1014 0.0000 0.0000 0.0000
# 4 0.0000 0.0000 0.0000 12.5557 0.0000 0.0000
# 5 0.0000 0.0000 0.0000 0.0000 17.0120 0.0000
# 6 0.0000 0.0000 0.0000 0.0000 0.0000 25.2334
#
#
#
# Elastic Compliance Matrix: (Units=1/GPa)
#
#
# Indices 1 2 3 4 5 6 
#
# 1 0.013747 -0.002324 0.000015 0.000000 0.000000 0.000000
# 2 -0.002324 0.009104 -0.001978 0.000000 0.000000 0.000000
# 3 0.000015 -0.001978 0.018596 0.000000 0.000000 0.000000
# 4 0.000000 0.000000 0.000000 0.079645 0.000000 0.000000
# 5 0.000000 0.000000 0.000000 0.000000 0.058782 0.000000
# 6 0.000000 0.000000 0.000000 0.000000 0.000000 0.039630
#
#
# Mechanical properties :
#
#
# Convention : Reuss Voigt Hill
#
# Bulk Modulus (GPa) = 30.42186 35.29984 32.86085
# Shear Modulus (GPa) = 20.91728 25.25423 23.08575
#
# Velocity S-wave (km/s) = 2.98708 3.28217 3.13810
# Velocity P-wave (km/s) = 4.98737 5.42414 5.21034
#
# Compressibility (1/GPa) = 0.03287110
#
# Stress axis : x y z
#
# Youngs Moduli (GPa) = 72.74427 109.84431 53.77378
#
# Poissons Ratio (x) = 0.25533 -0.00078
# Poissons Ratio (y) = 0.16909 0.10637
# Poissons Ratio (z) = -0.00106 0.21728
#
# Static dielectric constant tensor:
#      x y z
#    x 1.970310 0.000000 0.000000 
#    y 0.000000 1.952160 0.000000 
#    z 0.000000 0.000000 1.882660 
# 
# From -- ./inp_files/22288.got.cif
#   From: 2010.05.17/outbox.cif.g08.bks.cpg/sg70_12_cif.got.tgz:22288.got - 2010.06.03 15:57:51.
