data_PCOD9516075
_publ_section_title
;
Structure prediction by ZEFSAII (Michael W. Deem and Ramdas Pophale) SiO2 
 PCOD9516075
Probable space group: F D D D
;
_chemical_formula_sum "Si O2"
_cell_formula_units_Z 176
_cell_length_a 30.922428
_cell_length_b 17.717917
_cell_length_c 16.429965
_cell_angle_alpha 90.000000
_cell_angle_beta 90.000000
_cell_angle_gamma 90.000000
_cell_volume 9001.665864
_symmetry_space_group_name_H-M "F D D D"
_symmetry_group_IT_number 70
_space_group.IT_coordinate_system_code '2'
_symmetry_cell_setting 'orthorhombic'
loop_
_space_group_symop_operation_xyz
x,y,z
1/4-x,1/4-y,z
x,1/4-y,1/4-z
1/4-x,y,1/4-z
-x,-y,-z
3/4+x,3/4+y,-z
-x,3/4+y,3/4+z
3/4+x,-y,3/4+z
x,1/2+y,1/2+z
1/4-x,3/4-y,1/2+z
x,3/4-y,3/4-z
1/4-x,1/2+y,3/4-z
-x,1/2-y,1/2-z
3/4+x,1/4+y,1/2-z
-x,1/4+y,1/4+z
3/4+x,1/2-y,1/4+z
1/2+x,y,1/2+z
3/4-x,1/4-y,1/2+z
1/2+x,1/4-y,3/4-z
3/4-x,y,3/4-z
1/2-x,-y,1/2-z
1/4+x,3/4+y,1/2-z
1/2-x,3/4+y,1/4+z
1/4+x,-y,1/4+z
1/2+x,1/2+y,z
3/4-x,3/4-y,z
1/2+x,3/4-y,1/4-z
3/4-x,1/2+y,1/4-z
1/2-x,1/2-y,-z
1/4+x,1/4+y,-z
1/2-x,1/4+y,3/4+z
1/4+x,1/2-y,3/4+z
loop_
_atom_site_type_symbol
_atom_site_label
_atom_site_fract_x
_atom_site_fract_y
_atom_site_fract_z
Si Si1 0.575487 0.761027 0.649226
Si Si2 0.447135 0.325876 0.189442
Si Si3 0.875000 0.375000 0.182227
Si Si4 0.830152 0.453488 0.331034
Si Si5 0.744515 0.292886 0.837182
Si Si6 0.531091 0.827687 0.079439
O O1 0.625000 0.761646 0.625000
O O2 0.568054 0.699658 0.721217
O O3 0.543643 0.734975 0.576646
O O4 0.559834 0.846152 0.670746
O O5 0.407393 0.333043 0.128342
O O6 0.475793 0.257204 0.158532
O O7 0.480919 0.394845 0.175938
O O8 0.845900 0.428561 0.241204
O O9 0.815905 0.375000 0.375000
O O10 0.875000 0.477270 0.375000
O O11 0.796157 0.520342 0.349682
O O12 0.743828 0.375000 0.875000
O O13 0.715403 0.285811 0.757277
#
# Coordination Sequence:
#
# PCOD9516075 Si02
#       6
#    32  32  16  32  32  32
#     4  11  24  37  59  97 125 163 212 254 322 392
#     4  11  23  38  60  93 128 166 212 253 324 387
#     4  10  23  40  59  90 124 166 212 270 317 374
#     4   9  19  39  65  89 115 162 220 264 317 365
#     4  11  19  38  62  86 124 164 203 256 315 375
#     4  11  21  40  63  89 123 166 209 265 315 385
#
# _framework density 19.551936999999999
#
# number of rings (size 3 to 8) (size 9 to 14) (size 15 to 20)
#    0.000    1.636    3.636    3.818    2.545    1.091 
#    0.000    0.000    0.000    1.091    0.000    0.000 
#    0.000    0.000    0.000    0.000    0.000    0.000 
#
# Total GULP energy -245126.467728 kJ/mol
# GULP energy per Si atom -5571.056085 kJ/mol
# Density = 1.950744 g / cm^3
# Si number density = 19.551937 Si / 1000 Ang^3
#
#
#
# Elastic Constant Matrix: (Units=GPa)
#
#
# Indices 1 2 3 4 5 6 
#
# 1 107.6489 47.8734 42.3167 0.0000 0.0000 0.0000
# 2 47.8734 85.3906 38.7210 0.0000 0.0000 0.0000
# 3 42.3167 38.7210 89.7818 0.0000 0.0000 0.0000
# 4 0.0000 0.0000 0.0000 23.2143 0.0000 0.0000
# 5 0.0000 0.0000 0.0000 0.0000 11.0970 0.0000
# 6 0.0000 0.0000 0.0000 0.0000 0.0000 24.8001
#
#
#
# Elastic Compliance Matrix: (Units=1/GPa)
#
#
# Indices 1 2 3 4 5 6 
#
# 1 0.013346 -0.005755 -0.003808 0.000000 0.000000 0.000000
# 2 -0.005755 0.017040 -0.004636 0.000000 0.000000 0.000000
# 3 -0.003808 -0.004636 0.014933 0.000000 0.000000 0.000000
# 4 0.000000 0.000000 0.000000 0.043077 0.000000 0.000000
# 5 0.000000 0.000000 0.000000 0.000000 0.090115 0.000000
# 6 0.000000 0.000000 0.000000 0.000000 0.000000 0.040322
#
#
# Mechanical properties :
#
#
# Convention : Reuss Voigt Hill
#
# Bulk Modulus (GPa) = 59.10603 60.07152 59.58877
# Shear Modulus (GPa) = 19.77287 22.08296 20.92791
#
# Velocity S-wave (km/s) = 3.18354 3.36438 3.27521
# Velocity P-wave (km/s) = 6.61885 6.77369 6.69671
#
# Compressibility (1/GPa) = 0.01691875
#
# Stress axis : x y z
#
# Youngs Moduli (GPa) = 74.92886 58.68550 66.96795
#
# Poissons Ratio (x) = 0.33776 0.25502
# Poissons Ratio (y) = 0.43125 0.31048
# Poissons Ratio (z) = 0.28534 0.27208
#
# Static dielectric constant tensor:
#      x y z
#    x 1.740400 0.000000 0.000000 
#    y 0.000000 1.737230 0.000000 
#    z 0.000000 0.000000 1.726060 
# 
# From -- ./inp_files/39691.got.cif
#   From: 2010.05.17/outbox.cif.g08.bks.cpg/sg70_20_cif.got.tgz:39691.got - 2010.06.03 15:57:51.
