data_PCOD9516131
_publ_section_title
;
Structure prediction by ZEFSAII (Michael W. Deem and Ramdas Pophale) SiO2 
 PCOD9516131
Probable space group: F D D D
;
_chemical_formula_sum "Si O2"
_cell_formula_units_Z 112
_cell_length_a 7.139114
_cell_length_b 25.002766
_cell_length_c 26.577785
_cell_angle_alpha 90.000000
_cell_angle_beta 90.000000
_cell_angle_gamma 90.000000
_cell_volume 4744.070750
_symmetry_space_group_name_H-M "F D D D"
_symmetry_group_IT_number 70
_space_group.IT_coordinate_system_code '2'
_symmetry_cell_setting 'orthorhombic'
loop_
_space_group_symop_operation_xyz
x,y,z
1/4-x,1/4-y,z
x,1/4-y,1/4-z
1/4-x,y,1/4-z
-x,-y,-z
3/4+x,3/4+y,-z
-x,3/4+y,3/4+z
3/4+x,-y,3/4+z
x,1/2+y,1/2+z
1/4-x,3/4-y,1/2+z
x,3/4-y,3/4-z
1/4-x,1/2+y,3/4-z
-x,1/2-y,1/2-z
3/4+x,1/4+y,1/2-z
-x,1/4+y,1/4+z
3/4+x,1/2-y,1/4+z
1/2+x,y,1/2+z
3/4-x,1/4-y,1/2+z
1/2+x,1/4-y,3/4-z
3/4-x,y,3/4-z
1/2-x,-y,1/2-z
1/4+x,3/4+y,1/2-z
1/2-x,3/4+y,1/4+z
1/4+x,-y,1/4+z
1/2+x,1/2+y,z
3/4-x,3/4-y,z
1/2+x,3/4-y,1/4-z
3/4-x,1/2+y,1/4-z
1/2-x,1/2-y,-z
1/4+x,1/4+y,-z
1/2-x,1/4+y,3/4+z
1/4+x,1/2-y,3/4+z
loop_
_atom_site_type_symbol
_atom_site_label
_atom_site_fract_x
_atom_site_fract_y
_atom_site_fract_z
Si Si1 0.625000 0.813737 0.125000
Si Si2 0.904955 0.144093 0.786315
Si Si3 0.594245 0.859754 0.930362
Si Si4 0.221012 0.503758 0.411396
O O1 0.586083 0.851159 0.172879
O O2 0.810886 0.778333 0.124337
O O3 0.831534 0.139750 0.729578
O O4 0.833771 0.201059 0.807662
O O5 0.125000 0.125000 0.785251
O O6 0.668303 0.875000 0.875000
O O7 0.375000 0.875000 0.929778
O O8 0.613057 0.796257 0.941072
O O9 0.375000 0.478324 0.375000
#
# Coordination Sequence:
#
# PCOD9516131 Si02
#       4
#    16  32  32  32
#     4  12  24  42  69 106 133 180 238 274 346 398
#     4  11  22  40  71 102 136 183 228 282 340 407
#     4  10  23  42  69 101 137 184 228 273 352 409
#     4  12  23  44  72  98 141 179 225 290 338 405
#
# _framework density 23.608415999999998
#
# number of rings (size 3 to 8) (size 9 to 14) (size 15 to 20)
#    0.000    0.857    7.143    0.857    0.000    8.000 
#    0.000    3.571    0.000    0.000    0.000    0.000 
#    0.000    0.000    0.000    0.000    0.000    0.000 
#
# Total GULP energy -156194.876997 kJ/mol
# GULP energy per Si atom -5578.388464 kJ/mol
# Density = 2.355468 g / cm^3
# Si number density = 23.608416 Si / 1000 Ang^3
#
#
#
# Elastic Constant Matrix: (Units=GPa)
#
#
# Indices 1 2 3 4 5 6 
#
# 1 98.6922 24.5646 27.6219 0.0000 0.0000 0.0000
# 2 24.5646 134.2240 24.7431 0.0000 0.0000 0.0000
# 3 27.6219 24.7431 106.6579 0.0000 0.0000 0.0000
# 4 0.0000 0.0000 0.0000 -35.1271 0.0000 0.0000
# 5 0.0000 0.0000 0.0000 0.0000 0.5692 0.0000
# 6 0.0000 0.0000 0.0000 0.0000 0.0000 -16.4940
#
#
#
# Elastic Compliance Matrix: (Units=1/GPa)
#
#
# Indices 1 2 3 4 5 6 
#
# 1 0.011239 -0.001588 -0.002542 0.000000 0.000000 0.000000
# 2 -0.001588 0.008008 -0.001446 0.000000 0.000000 0.000000
# 3 -0.002542 -0.001446 0.010370 0.000000 0.000000 0.000000
# 4 0.000000 0.000000 0.000000 -0.028468 0.000000 0.000000
# 5 0.000000 0.000000 0.000000 0.000000 1.756952 0.000000
# 6 0.000000 0.000000 0.000000 0.000000 0.000000 -0.060628
#
#
# Mechanical properties :
#
#
# Convention : Reuss Voigt Hill
#
# Bulk Modulus (GPa) = 54.16285 54.82594 54.49440
# Shear Modulus (GPa) = 2.91582 7.29925 5.10754
#
# Velocity S-wave (km/s) = 1.11255 1.76026 1.47246
# Velocity P-wave (km/s) = 4.96410 5.23496 5.10133
#
# Compressibility (1/GPa) = 0.01846284
#
# Stress axis : x y z
#
# Youngs Moduli (GPa) = 88.97290 124.88258 96.43493
#
# Poissons Ratio (x) = 0.19835 0.24516
# Poissons Ratio (y) = 0.14132 0.13947
# Poissons Ratio (z) = 0.22619 0.18062
#
# Static dielectric constant tensor:
#      x y z
#    x 1.939910 0.000000 0.000000 
#    y 0.000000 1.881080 0.000000 
#    z 0.000000 0.000000 1.730970 
# 
# From -- ./inp_files/56424.got.cif
#   From: 2010.05.17/outbox.cif.g08.bks.cpg/sg70_29_cif.got.tgz:56424.got - 2010.06.03 15:57:51.
