data_PCOD9516445
_publ_section_title
;
Structure prediction by ZEFSAII (Michael W. Deem and Ramdas Pophale) SiO2 
 PCOD9516445
Probable space group: F D D D
;
_chemical_formula_sum "Si O2"
_cell_formula_units_Z 88
_cell_length_a 20.547908
_cell_length_b 6.861218
_cell_length_c 31.352565
_cell_angle_alpha 90.000000
_cell_angle_beta 90.000000
_cell_angle_gamma 90.000000
_cell_volume 4420.199873
_symmetry_space_group_name_H-M "F D D D"
_symmetry_group_IT_number 70
_space_group.IT_coordinate_system_code '2'
_symmetry_cell_setting 'orthorhombic'
loop_
_space_group_symop_operation_xyz
x,y,z
1/4-x,1/4-y,z
x,1/4-y,1/4-z
1/4-x,y,1/4-z
-x,-y,-z
3/4+x,3/4+y,-z
-x,3/4+y,3/4+z
3/4+x,-y,3/4+z
x,1/2+y,1/2+z
1/4-x,3/4-y,1/2+z
x,3/4-y,3/4-z
1/4-x,1/2+y,3/4-z
-x,1/2-y,1/2-z
3/4+x,1/4+y,1/2-z
-x,1/4+y,1/4+z
3/4+x,1/2-y,1/4+z
1/2+x,y,1/2+z
3/4-x,1/4-y,1/2+z
1/2+x,1/4-y,3/4-z
3/4-x,y,3/4-z
1/2-x,-y,1/2-z
1/4+x,3/4+y,1/2-z
1/2-x,3/4+y,1/4+z
1/4+x,-y,1/4+z
1/2+x,1/2+y,z
3/4-x,3/4-y,z
1/2+x,3/4-y,1/4-z
3/4-x,1/2+y,1/4-z
1/2-x,1/2-y,-z
1/4+x,1/4+y,-z
1/2-x,1/4+y,3/4+z
1/4+x,1/2-y,3/4+z
loop_
_atom_site_type_symbol
_atom_site_label
_atom_site_fract_x
_atom_site_fract_y
_atom_site_fract_z
Si Si1 0.829936 0.058234 0.077917
Si Si2 0.570248 0.465929 0.680998
Si Si3 0.875000 0.875000 0.236870
Si Si4 0.625000 0.125000 0.625000
O O1 0.852063 0.125000 0.125000
O O2 0.836454 0.230386 0.043747
O O3 0.875000 0.875000 0.065496
O O4 0.753721 0.010949 0.079999
O O5 0.625000 0.625000 0.667577
O O6 0.580771 0.489085 0.732124
O O7 0.586092 0.265792 0.657090
#
# Coordination Sequence:
#
# PCOD9516445 Si02
#       4
#    32  32  16   8
#     4  12  25  44  70 104 140 183 232 289 356 412
#     4  10  26  45  71  99 141 181 236 288 347 418
#     4  10  26  47  69 102 140 184 231 293 340 422
#     4  12  22  44  74 102 132 188 234 284 352 414
#
# _framework density 19.908601999999998
#
# number of rings (size 3 to 8) (size 9 to 14) (size 15 to 20)
#    1.091    0.000    1.818    3.818    5.091    4.364 
#    0.000    0.000    0.000    0.000    0.000    0.000 
#    0.000    0.000    0.000    0.000    0.000    0.000 
#
# Total GULP energy -122584.013927 kJ/mol
# GULP energy per Si atom -5572.000633 kJ/mol
# Density = 1.986329 g / cm^3
# Si number density = 19.908602 Si / 1000 Ang^3
#
#
#
# Elastic Constant Matrix: (Units=GPa)
#
#
# Indices 1 2 3 4 5 6 
#
# 1 124.1469 75.3367 16.7371 -0.0003 -0.0001 0.0000
# 2 75.3367 145.1912 64.7768 -0.0006 -0.0001 -0.0001
# 3 16.7371 64.7768 137.7971 -0.0001 0.0000 0.0000
# 4 -0.0003 -0.0006 -0.0001 -78.7519 -0.0003 0.0003
# 5 -0.0001 -0.0001 0.0000 -0.0003 -0.8128 0.0001
# 6 0.0000 -0.0001 0.0000 0.0003 0.0001 24.8731
#
#
#
# Elastic Compliance Matrix: (Units=1/GPa)
#
#
# Indices 1 2 3 4 5 6 
#
# 1 0.012130 -0.007132 0.001880 0.000000 0.000000 0.000000
# 2 -0.007132 0.012909 -0.005202 0.000000 -0.000001 0.000000
# 3 0.001880 -0.005202 0.009474 0.000000 0.000000 0.000000
# 4 0.000000 0.000000 0.000000 -0.012698 0.000004 0.000000
# 5 0.000000 -0.000001 0.000000 0.000004 -1.230314 0.000003
# 6 0.000000 0.000000 0.000000 0.000000 0.000003 0.040204
#
#
# Mechanical properties :
#
#
# Convention : Reuss Voigt Hill
#
# Bulk Modulus (GPa) = 73.51218 80.09292 76.80255
# Shear Modulus (GPa) = -4.37503 5.74733 0.68615
#
# Velocity S-wave (km/s) = -1.48402 1.70092 0.58771
# Velocity P-wave (km/s) = 5.83683 6.64644 6.25475
#
# Compressibility (1/GPa) = 0.01360319
#
# Stress axis : x y z
#
# Youngs Moduli (GPa) = 82.44155 77.46349 105.54940
#
# Poissons Ratio (x) = 0.55251 -0.19839
# Poissons Ratio (y) = 0.58801 0.54909
# Poissons Ratio (z) = -0.15496 0.40298
#
# Static dielectric constant tensor:
#      x y z
#    x 1.878370 0.000000 0.000000 
#    y 0.000000 1.706340 0.000000 
#    z 0.000000 0.000000 1.761400 
# 
# From -- ./inp_files/3803.got.cif
#   From: 2010.05.17/outbox.cif.g08.bks.cpg/sg70_2_cif.got.tgz:3803.got - 2010.06.03 15:57:51.
