data_PCOD9516463
_publ_section_title
;
Structure prediction by ZEFSAII (Michael W. Deem and Ramdas Pophale) SiO2 
 PCOD9516463
Probable space group: F D D D
;
_chemical_formula_sum "Si O2"
_cell_formula_units_Z 128
_cell_length_a 18.112613
_cell_length_b 23.662389
_cell_length_c 12.428381
_cell_angle_alpha 90.000000
_cell_angle_beta 90.000000
_cell_angle_gamma 90.000000
_cell_volume 5326.651161
_symmetry_space_group_name_H-M "F D D D"
_symmetry_group_IT_number 70
_space_group.IT_coordinate_system_code '2'
_symmetry_cell_setting 'orthorhombic'
loop_
_space_group_symop_operation_xyz
x,y,z
1/4-x,1/4-y,z
x,1/4-y,1/4-z
1/4-x,y,1/4-z
-x,-y,-z
3/4+x,3/4+y,-z
-x,3/4+y,3/4+z
3/4+x,-y,3/4+z
x,1/2+y,1/2+z
1/4-x,3/4-y,1/2+z
x,3/4-y,3/4-z
1/4-x,1/2+y,3/4-z
-x,1/2-y,1/2-z
3/4+x,1/4+y,1/2-z
-x,1/4+y,1/4+z
3/4+x,1/2-y,1/4+z
1/2+x,y,1/2+z
3/4-x,1/4-y,1/2+z
1/2+x,1/4-y,3/4-z
3/4-x,y,3/4-z
1/2-x,-y,1/2-z
1/4+x,3/4+y,1/2-z
1/2-x,3/4+y,1/4+z
1/4+x,-y,1/4+z
1/2+x,1/2+y,z
3/4-x,3/4-y,z
1/2+x,3/4-y,1/4-z
3/4-x,1/2+y,1/4-z
1/2-x,1/2-y,-z
1/4+x,1/4+y,-z
1/2-x,1/4+y,3/4+z
1/4+x,1/2-y,3/4+z
loop_
_atom_site_type_symbol
_atom_site_label
_atom_site_fract_x
_atom_site_fract_y
_atom_site_fract_z
Si Si1 0.625000 0.125000 0.625000
Si Si2 0.270507 0.839060 0.545237
Si Si3 0.540324 0.721171 0.929260
Si Si4 0.625000 0.125000 0.125000
Si Si5 0.875000 0.212114 0.375000
Si Si6 0.093588 0.023774 0.771228
O O1 0.685228 0.164808 0.566029
O O2 0.295901 0.902883 0.575051
O O3 0.184392 0.827109 0.560272
O O4 0.305291 0.790178 0.617399
O O5 0.575432 0.741365 0.815583
O O6 0.580884 0.754578 0.028303
O O7 0.453828 0.730529 0.953021
O O8 0.585003 0.081406 0.203122
#
# Coordination Sequence:
#
# PCOD9516463 Si02
#       6
#     8  32  32   8  16  32
#     4  12  20  36  82  98 138 194 246 288 382 406
#     4  11  23  45  68 108 147 191 235 318 361 432
#     4  11  23  45  69 108 141 191 241 303 365 440
#     4  12  22  50  62  86 138 188 228 302 352 438
#     4  10  27  41  69 114 152 181 255 300 369 448
#     4  11  25  43  71  98 141 185 246 292 373 434
#
# _framework density 24.030107999999998
#
# number of rings (size 3 to 8) (size 9 to 14) (size 15 to 20)
#    0.000    1.000    5.000    0.750    3.500    4.000 
#    9.000    0.000    0.000    0.000    0.000    0.000 
#    0.000    0.000    0.000    0.000    0.000    0.000 
#
# Total GULP energy -178153.400733 kJ/mol
# GULP energy per Si atom -5567.293773 kJ/mol
# Density = 2.397541 g / cm^3
# Si number density = 24.030108 Si / 1000 Ang^3
#
#
#
# Elastic Constant Matrix: (Units=GPa)
#
#
# Indices 1 2 3 4 5 6 
#
# 1 160.8948 41.5131 64.7661 0.0000 0.0000 0.0000
# 2 41.5131 61.0021 14.0905 0.0000 0.0000 0.0000
# 3 64.7661 14.0905 104.6000 0.0000 0.0000 0.0000
# 4 0.0000 0.0000 0.0000 -2.7118 0.0000 0.0000
# 5 0.0000 0.0000 0.0000 0.0000 14.0826 0.0000
# 6 0.0000 0.0000 0.0000 0.0000 0.0000 86.2941
#
#
#
# Elastic Compliance Matrix: (Units=1/GPa)
#
#
# Indices 1 2 3 4 5 6 
#
# 1 0.009746 -0.005407 -0.005306 0.000000 0.000000 0.000000
# 2 -0.005407 0.019919 0.000665 0.000000 0.000000 0.000000
# 3 -0.005306 0.000665 0.012756 0.000000 0.000000 0.000000
# 4 0.000000 0.000000 0.000000 -0.368763 0.000000 0.000000
# 5 0.000000 0.000000 0.000000 0.000000 0.071009 0.000000
# 6 0.000000 0.000000 0.000000 0.000000 0.000000 0.011588
#
#
# Mechanical properties :
#
#
# Convention : Reuss Voigt Hill
#
# Bulk Modulus (GPa) = 44.79452 63.02627 53.91039
# Shear Modulus (GPa) = -23.12617 33.27480 5.07432
#
# Velocity S-wave (km/s) = -3.10560 3.72521 1.45473
# Velocity P-wave (km/s) = 2.41285 6.69238 5.03039
#
# Compressibility (1/GPa) = 0.02232416
#
# Stress axis : x y z
#
# Youngs Moduli (GPa) = 102.60313 50.20371 78.39272
#
# Poissons Ratio (x) = 0.27144 0.41598
# Poissons Ratio (y) = 0.55476 -0.05210
# Poissons Ratio (z) = 0.54445 -0.03336
#
# Static dielectric constant tensor:
#      x y z
#    x 2.123320 0.000000 0.000000 
#    y 0.000000 2.007020 0.000000 
#    z 0.000000 0.000000 2.985400 
# 
# From -- ./inp_files/17632.got.cif
#   From: 2010.05.17/outbox.cif.g08.bks.cpg/sg70_9_cif.got.tgz:17632.got - 2010.06.03 15:57:51.
