data_PCOD9516232
_publ_section_title
;
Structure prediction by ZEFSAII (Michael W. Deem and Ramdas Pophale) SiO2 
 PCOD9516232
Probable space group: F D D D
;
_chemical_formula_sum "Si O2"
_cell_formula_units_Z 88
_cell_length_a 4.721921
_cell_length_b 26.201393
_cell_length_c 24.914790
_cell_angle_alpha 90.000000
_cell_angle_beta 90.000000
_cell_angle_gamma 90.000000
_cell_volume 3082.480437
_symmetry_space_group_name_H-M "F D D D"
_symmetry_group_IT_number 70
_space_group.IT_coordinate_system_code '2'
_symmetry_cell_setting 'orthorhombic'
loop_
_space_group_symop_operation_xyz
x,y,z
1/4-x,1/4-y,z
x,1/4-y,1/4-z
1/4-x,y,1/4-z
-x,-y,-z
3/4+x,3/4+y,-z
-x,3/4+y,3/4+z
3/4+x,-y,3/4+z
x,1/2+y,1/2+z
1/4-x,3/4-y,1/2+z
x,3/4-y,3/4-z
1/4-x,1/2+y,3/4-z
-x,1/2-y,1/2-z
3/4+x,1/4+y,1/2-z
-x,1/4+y,1/4+z
3/4+x,1/2-y,1/4+z
1/2+x,y,1/2+z
3/4-x,1/4-y,1/2+z
1/2+x,1/4-y,3/4-z
3/4-x,y,3/4-z
1/2-x,-y,1/2-z
1/4+x,3/4+y,1/2-z
1/2-x,3/4+y,1/4+z
1/4+x,-y,1/4+z
1/2+x,1/2+y,z
3/4-x,3/4-y,z
1/2+x,3/4-y,1/4-z
3/4-x,1/2+y,1/4-z
1/2-x,1/2-y,-z
1/4+x,1/4+y,-z
1/2-x,1/4+y,3/4+z
1/4+x,1/2-y,3/4+z
loop_
_atom_site_type_symbol
_atom_site_label
_atom_site_fract_x
_atom_site_fract_y
_atom_site_fract_z
Si Si1 0.744187 0.807884 0.294198
Si Si2 0.481784 0.059344 0.782467
Si Si3 0.375000 0.375000 0.875000
Si Si4 0.875000 0.875000 0.619985
O O1 0.541133 0.811571 0.242400
O O2 0.801330 0.747872 0.303902
O O3 0.586021 0.837764 0.341266
O O4 0.043117 0.824525 0.269377
O O5 0.385798 0.097924 0.829174
O O6 0.625000 0.920951 0.625000
#
# Coordination Sequence:
#
# PCOD9516232 Si02
#       4
#    32  32   8  16
#     4  10  24  44  72 101 150 193 234 304 384 446
#     4  10  23  48  67  98 149 200 232 295 394 446
#     4  12  26  42  76 126 144 190 272 326 354 452
#     4  12  25  40  74 103 132 187 262 306 337 446
#
# _framework density 28.548438999999998
#
# number of rings (size 3 to 8) (size 9 to 14) (size 15 to 20)
#    0.000    1.455    0.000    3.273    2.545    7.273 
#    0.000    0.000    0.000    0.000    0.000    0.000 
#    0.000    0.000    0.000    0.000    0.000    0.000 
#
# Total GULP energy -123007.315818 kJ/mol
# GULP energy per Si atom -5591.241628 kJ/mol
# Density = 2.848346 g / cm^3
# Si number density = 28.548439 Si / 1000 Ang^3
#
#
#
# Elastic Constant Matrix: (Units=GPa)
#
#
# Indices 1 2 3 4 5 6 
#
# 1 235.7240 33.0643 11.3747 0.0000 0.0000 0.0000
# 2 33.0643 209.8528 109.3881 0.0000 0.0000 0.0000
# 3 11.3747 109.3881 171.1484 0.0000 0.0000 0.0000
# 4 0.0000 0.0000 0.0000 40.3035 0.0000 0.0000
# 5 0.0000 0.0000 0.0000 0.0000 49.4044 0.0000
# 6 0.0000 0.0000 0.0000 0.0000 0.0000 46.3626
#
#
#
# Elastic Compliance Matrix: (Units=1/GPa)
#
#
# Indices 1 2 3 4 5 6 
#
# 1 0.004344 -0.000801 0.000223 0.000000 0.000000 0.000000
# 2 -0.000801 0.007294 -0.004608 0.000000 0.000000 0.000000
# 3 0.000223 -0.004608 0.008773 0.000000 0.000000 0.000000
# 4 0.000000 0.000000 0.000000 0.024812 0.000000 0.000000
# 5 0.000000 0.000000 0.000000 0.000000 0.020241 0.000000
# 6 0.000000 0.000000 0.000000 0.000000 0.000000 0.021569
#
#
# Mechanical properties :
#
#
# Convention : Reuss Voigt Hill
#
# Bulk Modulus (GPa) = 99.61363 102.70880 101.16121
# Shear Modulus (GPa) = 49.62720 58.07398 53.85059
#
# Velocity S-wave (km/s) = 4.17388 4.51513 4.34785
# Velocity P-wave (km/s) = 7.62869 7.95217 7.79211
#
# Compressibility (1/GPa) = 0.01003879
#
# Stress axis : x y z
#
# Youngs Moduli (GPa) = 230.21345 137.10669 113.97965
#
# Poissons Ratio (x) = 0.10978 -0.02542
# Poissons Ratio (y) = 0.18433 0.52527
# Poissons Ratio (z) = -0.05135 0.63185
#
# Static dielectric constant tensor:
#      x y z
#    x 2.387990 0.000000 0.000000 
#    y 0.000000 2.196850 0.000000 
#    z 0.000000 0.000000 2.251250 
# 
# From -- ./inp_files/2542.got.cif
#   From: 2010.05.17/outbox.cif.g08.bks.cpg/sg70_2_cif.got.tgz:2542.got - 2010.06.03 15:57:51.
