data_PCOD9516687
_publ_section_title
;
Structure prediction by ZEFSAII (Michael W. Deem and Ramdas Pophale) SiO2 
 PCOD9516687
Probable space group: F D D D
;
_chemical_formula_sum "Si O2"
_cell_formula_units_Z 168
_cell_length_a 16.872815
_cell_length_b 26.885059
_cell_length_c 16.228713
_cell_angle_alpha 90.000000
_cell_angle_beta 90.000000
_cell_angle_gamma 90.000000
_cell_volume 7361.776335
_symmetry_space_group_name_H-M "F D D D"
_symmetry_group_IT_number 70
_space_group.IT_coordinate_system_code '2'
_symmetry_cell_setting 'orthorhombic'
loop_
_space_group_symop_operation_xyz
x,y,z
1/4-x,1/4-y,z
x,1/4-y,1/4-z
1/4-x,y,1/4-z
-x,-y,-z
3/4+x,3/4+y,-z
-x,3/4+y,3/4+z
3/4+x,-y,3/4+z
x,1/2+y,1/2+z
1/4-x,3/4-y,1/2+z
x,3/4-y,3/4-z
1/4-x,1/2+y,3/4-z
-x,1/2-y,1/2-z
3/4+x,1/4+y,1/2-z
-x,1/4+y,1/4+z
3/4+x,1/2-y,1/4+z
1/2+x,y,1/2+z
3/4-x,1/4-y,1/2+z
1/2+x,1/4-y,3/4-z
3/4-x,y,3/4-z
1/2-x,-y,1/2-z
1/4+x,3/4+y,1/2-z
1/2-x,3/4+y,1/4+z
1/4+x,-y,1/4+z
1/2+x,1/2+y,z
3/4-x,3/4-y,z
1/2+x,3/4-y,1/4-z
3/4-x,1/2+y,1/4-z
1/2-x,1/2-y,-z
1/4+x,1/4+y,-z
1/2-x,1/4+y,3/4+z
1/4+x,1/2-y,3/4+z
loop_
_atom_site_type_symbol
_atom_site_label
_atom_site_fract_x
_atom_site_fract_y
_atom_site_fract_z
Si Si1 0.730852 0.695064 0.332671
Si Si2 0.334274 0.173592 0.174895
Si Si3 0.125000 0.125000 0.625000
Si Si4 0.196073 0.227049 0.928375
Si Si5 0.235082 0.940094 0.910454
Si Si6 0.207686 0.894766 0.079918
O O1 0.788545 0.675684 0.260546
O O2 0.639824 0.702536 0.301950
O O3 0.753538 0.752128 0.350727
O O4 0.743037 0.656938 0.408606
O O5 0.306392 0.125000 0.125000
O O6 0.317470 0.225974 0.131087
O O7 0.430636 0.173199 0.166871
O O8 0.183610 0.089209 0.577014
O O9 0.243660 0.184888 0.881597
O O10 0.250000 0.250000 0.000000
O O11 0.189567 0.923325 0.993594
O O12 0.125000 0.886095 0.125000
#
# Coordination Sequence:
#
# PCOD9516687 Si02
#       6
#    32  32   8  32  32  32
#     4  11  25  45  74 107 142 200 248 305 381 452
#     4  11  22  45  69 103 146 185 248 306 372 451
#     4  12  28  44  76  96 160 186 242 296 386 424
#     4  11  24  42  70 105 152 192 248 313 378 448
#     4  11  26  47  70 109 143 197 243 313 371 449
#     4  12  25  45  74 106 151 191 253 309 376 450
#
# _framework density 22.820578999999999
#
# number of rings (size 3 to 8) (size 9 to 14) (size 15 to 20)
#    0.000    0.762    2.857    5.143    4.000    0.000 
#    0.000    2.857    0.000    0.000    0.000    0.000 
#    0.000    0.000    0.000    0.000    0.000    0.000 
#
# Total GULP energy -234501.891447 kJ/mol
# GULP energy per Si atom -5583.378368 kJ/mol
# Density = 2.276864 g / cm^3
# Si number density = 22.820579 Si / 1000 Ang^3
#
#
#
# Elastic Constant Matrix: (Units=GPa)
#
#
# Indices 1 2 3 4 5 6 
#
# 1 124.5376 32.7781 30.2602 0.0000 0.0000 0.0000
# 2 32.7781 185.5642 31.3877 0.0000 0.0000 0.0000
# 3 30.2602 31.3877 73.7740 0.0000 0.0000 0.0000
# 4 0.0000 0.0000 0.0000 23.0540 0.0000 0.0000
# 5 0.0000 0.0000 0.0000 0.0000 17.3679 0.0000
# 6 0.0000 0.0000 0.0000 0.0000 0.0000 41.5679
#
#
#
# Elastic Compliance Matrix: (Units=1/GPa)
#
#
# Indices 1 2 3 4 5 6 
#
# 1 0.009105 -0.001052 -0.003287 0.000000 0.000000 0.000000
# 2 -0.001052 0.005928 -0.002091 0.000000 0.000000 0.000000
# 3 -0.003287 -0.002091 0.015793 0.000000 0.000000 0.000000
# 4 0.000000 0.000000 0.000000 0.043376 0.000000 0.000000
# 5 0.000000 0.000000 0.000000 0.000000 0.057578 0.000000
# 6 0.000000 0.000000 0.000000 0.000000 0.000000 0.024057
#
#
# Mechanical properties :
#
#
# Convention : Reuss Voigt Hill
#
# Bulk Modulus (GPa) = 55.65961 63.63642 59.64802
# Shear Modulus (GPa) = 28.62273 35.69464 32.15868
#
# Velocity S-wave (km/s) = 3.54538 3.95921 3.75800
# Velocity P-wave (km/s) = 6.41893 6.98903 6.71004
#
# Compressibility (1/GPa) = 0.01796635
#
# Stress axis : x y z
#
# Youngs Moduli (GPa) = 109.82522 168.67702 63.32053
#
# Poissons Ratio (x) = 0.17751 0.20814
# Poissons Ratio (y) = 0.11558 0.13238
# Poissons Ratio (z) = 0.36100 0.35265
#
# Static dielectric constant tensor:
#      x y z
#    x 1.914880 0.000000 0.000000 
#    y 0.000000 1.847550 0.000000 
#    z 0.000000 0.000000 1.856580 
# 
# From -- ./inp_files/42842.got.cif
#   From: 2010.05.17/outbox.cif.g08.bks.cpg/sg70_22_cif.got.tgz:42842.got - 2010.06.03 15:57:51.
