data_PCOD9516038
_publ_section_title
;
Structure prediction by ZEFSAII (Michael W. Deem and Ramdas Pophale) SiO2 
 PCOD9516038
Probable space group: F D D D
;
_chemical_formula_sum "Si O2"
_cell_formula_units_Z 176
_cell_length_a 22.113431
_cell_length_b 12.355401
_cell_length_c 31.130072
_cell_angle_alpha 90.000000
_cell_angle_beta 90.000000
_cell_angle_gamma 90.000000
_cell_volume 8505.367844
_symmetry_space_group_name_H-M "F D D D"
_symmetry_group_IT_number 70
_space_group.IT_coordinate_system_code '2'
_symmetry_cell_setting 'orthorhombic'
loop_
_space_group_symop_operation_xyz
x,y,z
1/4-x,1/4-y,z
x,1/4-y,1/4-z
1/4-x,y,1/4-z
-x,-y,-z
3/4+x,3/4+y,-z
-x,3/4+y,3/4+z
3/4+x,-y,3/4+z
x,1/2+y,1/2+z
1/4-x,3/4-y,1/2+z
x,3/4-y,3/4-z
1/4-x,1/2+y,3/4-z
-x,1/2-y,1/2-z
3/4+x,1/4+y,1/2-z
-x,1/4+y,1/4+z
3/4+x,1/2-y,1/4+z
1/2+x,y,1/2+z
3/4-x,1/4-y,1/2+z
1/2+x,1/4-y,3/4-z
3/4-x,y,3/4-z
1/2-x,-y,1/2-z
1/4+x,3/4+y,1/2-z
1/2-x,3/4+y,1/4+z
1/4+x,-y,1/4+z
1/2+x,1/2+y,z
3/4-x,3/4-y,z
1/2+x,3/4-y,1/4-z
3/4-x,1/2+y,1/4-z
1/2-x,1/2-y,-z
1/4+x,1/4+y,-z
1/2-x,1/4+y,3/4+z
1/4+x,1/2-y,3/4+z
loop_
_atom_site_type_symbol
_atom_site_label
_atom_site_fract_x
_atom_site_fract_y
_atom_site_fract_z
Si Si1 0.456537 0.694979 0.581939
Si Si2 0.163914 0.024607 0.539686
Si Si3 0.876758 0.202526 0.426801
Si Si4 0.125000 0.625000 0.873043
Si Si5 0.777848 0.375072 0.426803
Si Si6 0.347568 0.201743 0.195092
O O1 0.470337 0.625000 0.625000
O O2 0.517709 0.717257 0.556380
O O3 0.423801 0.807343 0.595604
O O4 0.408219 0.619634 0.556929
O O5 0.125000 0.125000 0.555888
O O6 0.132308 0.915670 0.555724
O O7 0.160345 0.018850 0.488299
O O8 0.875000 0.199891 0.375000
O O9 0.820495 0.277233 0.441074
O O10 0.937858 0.264436 0.440079
O O11 0.096526 0.716640 0.904410
O O12 0.777483 0.375000 0.375000
O O13 0.709790 0.372739 0.442241
#
# Coordination Sequence:
#
# PCOD9516038 Si02
#       6
#    32  32  32  16  32  32
#     4  10  26  45  69 101 131 180 235 270 329 414
#     4  12  28  43  64 102 142 180 219 281 347 401
#     4   9  22  39  65  98 134 175 218 277 336 407
#     4  10  22  48  70  98 127 184 229 276 332 414
#     4   9  19  41  69  98 125 172 227 270 341 400
#     4  11  24  44  69  95 137 178 221 287 340 400
#
# _framework density 20.692813999999998
#
# number of rings (size 3 to 8) (size 9 to 14) (size 15 to 20)
#    0.000    1.818    0.909    2.727   12.727    2.909 
#    0.000    0.000    0.000    0.000    0.000    0.000 
#    0.000    0.000    0.000    0.000    0.000    0.000 
#
# Total GULP energy -245919.718971 kJ/mol
# GULP energy per Si atom -5589.084522 kJ/mol
# Density = 2.064572 g / cm^3
# Si number density = 20.692814 Si / 1000 Ang^3
#
#
#
# Elastic Constant Matrix: (Units=GPa)
#
#
# Indices 1 2 3 4 5 6 
#
# 1 124.3327 65.0975 52.6243 0.0000 0.0000 0.0000
# 2 65.0975 134.5250 31.9251 0.0000 0.0000 0.0000
# 3 52.6243 31.9251 53.7561 0.0000 0.0000 0.0000
# 4 0.0000 0.0000 0.0000 23.9838 0.0000 0.0000
# 5 0.0000 0.0000 0.0000 0.0000 -10.9118 0.0000
# 6 0.0000 0.0000 0.0000 0.0000 0.0000 18.3458
#
#
#
# Elastic Compliance Matrix: (Units=1/GPa)
#
#
# Indices 1 2 3 4 5 6 
#
# 1 0.015897 -0.004656 -0.012797 0.000000 0.000000 0.000000
# 2 -0.004656 0.010017 -0.001391 0.000000 0.000000 0.000000
# 3 -0.012797 -0.001391 0.031957 0.000000 0.000000 0.000000
# 4 0.000000 0.000000 0.000000 0.041695 0.000000 0.000000
# 5 0.000000 0.000000 0.000000 0.000000 -0.091644 0.000000
# 6 0.000000 0.000000 0.000000 0.000000 0.000000 0.054508
#
#
# Mechanical properties :
#
#
# Convention : Reuss Voigt Hill
#
# Bulk Modulus (GPa) = 49.54916 67.98973 58.76944
# Shear Modulus (GPa) = 46.79669 17.14803 31.97236
#
# Velocity S-wave (km/s) = 4.76068 2.88183 3.93503
# Velocity P-wave (km/s) = 7.36314 6.63335 7.00775
#
# Compressibility (1/GPa) = 0.02018198
#
# Stress axis : x y z
#
# Youngs Moduli (GPa) = 62.90453 99.83437 31.29231
#
# Poissons Ratio (x) = 0.46479 0.40046
# Poissons Ratio (y) = 0.29286 0.04353
# Poissons Ratio (z) = 0.80502 0.13888
#
# Static dielectric constant tensor:
#      x y z
#    x 1.709340 0.000000 0.000000 
#    y 0.000000 1.443640 0.000000 
#    z 0.000000 0.000000 1.775170 
# 
# From -- ./inp_files/67784.got.cif
#   From: 2010.05.17/outbox.cif.g08.bks.cpg/sg70_34_cif.got.tgz:67784.got - 2010.06.03 15:57:51.
