data_PCOD9516988
_publ_section_title
;
Structure prediction by ZEFSAII (Michael W. Deem and Ramdas Pophale) SiO2 
 PCOD9516988
Probable space group: F D D D
;
_chemical_formula_sum "Si O2"
_cell_formula_units_Z 120
_cell_length_a 18.633719
_cell_length_b 27.938916
_cell_length_c 8.529897
_cell_angle_alpha 90.000000
_cell_angle_beta 90.000000
_cell_angle_gamma 90.000000
_cell_volume 4440.714789
_symmetry_space_group_name_H-M "F D D D"
_symmetry_group_IT_number 70
_space_group.IT_coordinate_system_code '2'
_symmetry_cell_setting 'orthorhombic'
loop_
_space_group_symop_operation_xyz
x,y,z
1/4-x,1/4-y,z
x,1/4-y,1/4-z
1/4-x,y,1/4-z
-x,-y,-z
3/4+x,3/4+y,-z
-x,3/4+y,3/4+z
3/4+x,-y,3/4+z
x,1/2+y,1/2+z
1/4-x,3/4-y,1/2+z
x,3/4-y,3/4-z
1/4-x,1/2+y,3/4-z
-x,1/2-y,1/2-z
3/4+x,1/4+y,1/2-z
-x,1/4+y,1/4+z
3/4+x,1/2-y,1/4+z
1/2+x,y,1/2+z
3/4-x,1/4-y,1/2+z
1/2+x,1/4-y,3/4-z
3/4-x,y,3/4-z
1/2-x,-y,1/2-z
1/4+x,3/4+y,1/2-z
1/2-x,3/4+y,1/4+z
1/4+x,-y,1/4+z
1/2+x,1/2+y,z
3/4-x,3/4-y,z
1/2+x,3/4-y,1/4-z
3/4-x,1/2+y,1/4-z
1/2-x,1/2-y,-z
1/4+x,1/4+y,-z
1/2-x,1/4+y,3/4+z
1/4+x,1/2-y,3/4+z
loop_
_atom_site_type_symbol
_atom_site_label
_atom_site_fract_x
_atom_site_fract_y
_atom_site_fract_z
Si Si1 0.831665 0.527546 0.035598
Si Si2 0.841025 0.307500 0.116570
Si Si3 0.625000 0.125000 0.625000
Si Si4 0.989161 0.809241 0.453306
Si Si5 0.862822 0.125000 0.125000
O O1 0.879418 0.495968 0.153184
O O2 0.761002 0.495623 0.016827
O O3 0.836978 0.583204 0.060755
O O4 0.875000 0.518818 0.875000
O O5 0.828726 0.339973 0.265943
O O6 0.915474 0.327500 0.034296
O O7 0.778826 0.308197 0.984125
O O8 0.056082 0.844009 0.480113
#
# Coordination Sequence:
#
# PCOD9516988 Si02
#       5
#    32  32   8  32  16
#     4   8  20  39  54  95 126 152 218 273 287 391
#     4   8  18  35  52  90 129 149 210 275 280 380
#     4  12  16  26  64  82 112 182 182 236 372 324
#     4   8  18  38  59  90 124 155 224 262 289 390
#     4  12  18  33  78  89 112 192 196 256 352 330
#
# _framework density 27.022677999999999
#
# number of rings (size 3 to 8) (size 9 to 14) (size 15 to 20)
#    1.600    1.600    0.000    1.600    0.000    6.400 
#    2.400    0.000    0.000   22.400    0.000    0.000 
#    0.000    0.000    0.000    0.000    0.000    0.000 
#
# Total GULP energy -167232.290272 kJ/mol
# GULP energy per Si atom -5574.409676 kJ/mol
# Density = 2.696117 g / cm^3
# Si number density = 27.022678 Si / 1000 Ang^3
#
#
#
# Elastic Constant Matrix: (Units=GPa)
#
#
# Indices 1 2 3 4 5 6 
#
# 1 144.6792 60.3247 26.1922 0.0000 0.0000 0.0000
# 2 60.3247 279.8159 57.9529 0.0000 0.0000 0.0000
# 3 26.1922 57.9529 62.3492 -0.0001 0.0001 0.0000
# 4 0.0000 0.0000 -0.0001 54.0535 0.0000 0.0000
# 5 0.0000 0.0000 0.0001 0.0000 0.3522 0.0000
# 6 0.0000 0.0000 0.0000 0.0000 0.0000 21.1758
#
#
#
# Elastic Compliance Matrix: (Units=1/GPa)
#
#
# Indices 1 2 3 4 5 6 
#
# 1 0.007816 -0.001245 -0.002127 0.000000 0.000000 0.000000
# 2 -0.001245 0.004624 -0.003775 0.000000 0.000001 0.000000
# 3 -0.002127 -0.003775 0.020441 0.000000 -0.000006 0.000000
# 4 0.000000 0.000000 0.000000 0.018500 -0.000002 0.000000
# 5 0.000000 0.000001 -0.000006 -0.000002 2.839683 0.000001
# 6 0.000000 0.000000 0.000000 0.000000 0.000001 0.047224
#
#
# Mechanical properties :
#
#
# Convention : Reuss Voigt Hill
#
# Bulk Modulus (GPa) = 53.79719 86.19819 69.99769
# Shear Modulus (GPa) = 1.68989 37.94127 19.81558
#
# Velocity S-wave (km/s) = 0.79165 3.75113 2.71088
# Velocity P-wave (km/s) = 4.55928 7.12243 5.97980
#
# Compressibility (1/GPa) = 0.01858833
#
# Stress axis : x y z
#
# Youngs Moduli (GPa) = 127.94695 216.26542 48.92144
#
# Poissons Ratio (x) = 0.26915 0.10403
# Poissons Ratio (y) = 0.15924 0.18468
# Poissons Ratio (z) = 0.27208 0.81642
#
# Static dielectric constant tensor:
#      x y z
#    x 2.196380 0.000000 0.000000 
#    y 0.000000 2.248680 0.000000 
#    z 0.000000 0.000000 2.162840 
# 
# From -- ./inp_files/17814.got.cif
#   From: 2010.05.17/outbox.cif.g08.bks.cpg/sg70_9_cif.got.tgz:17814.got - 2010.06.03 15:57:51.
