data_PCOD9516827
_publ_section_title
;
Structure prediction by ZEFSAII (Michael W. Deem and Ramdas Pophale) SiO2 
 PCOD9516827
Probable space group: F D D D
;
_chemical_formula_sum "Si O2"
_cell_formula_units_Z 176
_cell_length_a 26.148489
_cell_length_b 10.804236
_cell_length_c 29.969502
_cell_angle_alpha 90.000000
_cell_angle_beta 90.000000
_cell_angle_gamma 90.000000
_cell_volume 8466.817260
_symmetry_space_group_name_H-M "F D D D"
_symmetry_group_IT_number 70
_space_group.IT_coordinate_system_code '2'
_symmetry_cell_setting 'orthorhombic'
loop_
_space_group_symop_operation_xyz
x,y,z
1/4-x,1/4-y,z
x,1/4-y,1/4-z
1/4-x,y,1/4-z
-x,-y,-z
3/4+x,3/4+y,-z
-x,3/4+y,3/4+z
3/4+x,-y,3/4+z
x,1/2+y,1/2+z
1/4-x,3/4-y,1/2+z
x,3/4-y,3/4-z
1/4-x,1/2+y,3/4-z
-x,1/2-y,1/2-z
3/4+x,1/4+y,1/2-z
-x,1/4+y,1/4+z
3/4+x,1/2-y,1/4+z
1/2+x,y,1/2+z
3/4-x,1/4-y,1/2+z
1/2+x,1/4-y,3/4-z
3/4-x,y,3/4-z
1/2-x,-y,1/2-z
1/4+x,3/4+y,1/2-z
1/2-x,3/4+y,1/4+z
1/4+x,-y,1/4+z
1/2+x,1/2+y,z
3/4-x,3/4-y,z
1/2+x,3/4-y,1/4-z
3/4-x,1/2+y,1/4-z
1/2-x,1/2-y,-z
1/4+x,1/4+y,-z
1/2-x,1/4+y,3/4+z
1/4+x,1/2-y,3/4+z
loop_
_atom_site_type_symbol
_atom_site_label
_atom_site_fract_x
_atom_site_fract_y
_atom_site_fract_z
Si Si1 0.905100 0.756043 0.303569
Si Si2 0.712340 0.625000 0.125000
Si Si3 0.625000 0.625000 0.931896
Si Si4 0.625000 0.305714 0.625000
Si Si5 0.880981 0.635299 0.211426
Si Si6 0.014638 0.312428 0.826720
Si Si7 0.445437 0.796379 0.099324
O O1 0.875000 0.875000 0.320563
O O2 0.900282 0.643968 0.338196
O O3 0.882177 0.709627 0.257098
O O4 0.963030 0.801818 0.299156
O O5 0.670914 0.721794 0.104535
O O6 0.753463 0.537376 0.100335
O O7 0.615271 0.507126 0.963670
O O8 0.579074 0.594245 0.896067
O O9 0.938788 0.614317 0.194307
O O10 0.847518 0.714515 0.176029
O O11 0.003603 0.375000 0.875000
O O12 0.037717 0.174518 0.827754
#
# Coordination Sequence:
#
# PCOD9516827 Si02
#       7
#    32  16  16  16  32  32  32
#     4  12  27  45  68  98 140 184 236 281 334 410
#     4  11  24  42  74  96 132 182 229 278 334 414
#     4  12  22  40  72 101 142 171 224 276 358 412
#     4  11  25  48  70  94 135 191 236 266 340 421
#     4  12  25  42  68 107 143 171 228 294 340 407
#     4  12  22  42  72 100 138 182 227 278 350 410
#     4  12  21  42  70 104 131 178 223 284 347 407
#
# _framework density 20.787032
#
# number of rings (size 3 to 8) (size 9 to 14) (size 15 to 20)
#    0.000    0.182    7.273    3.000    0.000    1.455 
#    0.000    0.909    0.000    0.000    0.000    0.000 
#    0.000    0.000    0.000    0.000    0.000    0.000 
#
# Total GULP energy -245112.904328 kJ/mol
# GULP energy per Si atom -5570.747826 kJ/mol
# Density = 2.073972 g / cm^3
# Si number density = 20.787032 Si / 1000 Ang^3
#
#
#
# Elastic Constant Matrix: (Units=GPa)
#
#
# Indices 1 2 3 4 5 6 
#
# 1 115.4272 10.0860 5.2154 0.0000 0.0000 0.0000
# 2 10.0860 95.1331 12.4306 0.0000 0.0000 0.0000
# 3 5.2154 12.4306 39.9056 0.0000 0.0000 0.0000
# 4 0.0000 0.0000 0.0000 10.4870 0.0000 0.0000
# 5 0.0000 0.0000 0.0000 0.0000 5.4880 0.0000
# 6 0.0000 0.0000 0.0000 0.0000 0.0000 67.1528
#
#
#
# Elastic Compliance Matrix: (Units=1/GPa)
#
#
# Indices 1 2 3 4 5 6 
#
# 1 0.008775 -0.000814 -0.000893 0.000000 0.000000 0.000000
# 2 -0.000814 0.011033 -0.003330 0.000000 0.000000 0.000000
# 3 -0.000893 -0.003330 0.026213 0.000000 0.000000 0.000000
# 4 0.000000 0.000000 0.000000 0.095356 0.000000 0.000000
# 5 0.000000 0.000000 0.000000 0.000000 0.182214 0.000000
# 6 0.000000 0.000000 0.000000 0.000000 0.000000 0.014891
#
#
# Mechanical properties :
#
#
# Convention : Reuss Voigt Hill
#
# Bulk Modulus (GPa) = 27.81918 33.99221 30.90569
# Shear Modulus (GPa) = 13.86808 31.47449 22.67128
#
# Velocity S-wave (km/s) = 2.58573 3.89542 3.30608
# Velocity P-wave (km/s) = 4.72511 6.05149 5.42896
#
# Compressibility (1/GPa) = 0.03594642
#
# Stress axis : x y z
#
# Youngs Moduli (GPa) = 113.96112 90.63706 38.14851
#
# Poissons Ratio (x) = 0.07374 0.03408
# Poissons Ratio (y) = 0.09272 0.12705
# Poissons Ratio (z) = 0.10181 0.30186
#
# Static dielectric constant tensor:
#      x y z
#    x 1.768060 0.000000 0.000000 
#    y 0.000000 1.790840 0.000000 
#    z 0.000000 0.000000 1.758630 
# 
# From -- ./inp_files/67817.got.cif
#   From: 2010.05.17/outbox.cif.g08.bks.cpg/sg70_34_cif.got.tgz:67817.got - 2010.06.03 15:57:51.
