data_PCOD9516278
_publ_section_title
;
Structure prediction by ZEFSAII (Michael W. Deem and Ramdas Pophale) SiO2 
 PCOD9516278
Probable space group: F D D D
;
_chemical_formula_sum "Si O2"
_cell_formula_units_Z 176
_cell_length_a 21.118112
_cell_length_b 16.560879
_cell_length_c 19.729466
_cell_angle_alpha 90.000000
_cell_angle_beta 90.000000
_cell_angle_gamma 90.000000
_cell_volume 6900.074878
_symmetry_space_group_name_H-M "F D D D"
_symmetry_group_IT_number 70
_space_group.IT_coordinate_system_code '2'
_symmetry_cell_setting 'orthorhombic'
loop_
_space_group_symop_operation_xyz
x,y,z
1/4-x,1/4-y,z
x,1/4-y,1/4-z
1/4-x,y,1/4-z
-x,-y,-z
3/4+x,3/4+y,-z
-x,3/4+y,3/4+z
3/4+x,-y,3/4+z
x,1/2+y,1/2+z
1/4-x,3/4-y,1/2+z
x,3/4-y,3/4-z
1/4-x,1/2+y,3/4-z
-x,1/2-y,1/2-z
3/4+x,1/4+y,1/2-z
-x,1/4+y,1/4+z
3/4+x,1/2-y,1/4+z
1/2+x,y,1/2+z
3/4-x,1/4-y,1/2+z
1/2+x,1/4-y,3/4-z
3/4-x,y,3/4-z
1/2-x,-y,1/2-z
1/4+x,3/4+y,1/2-z
1/2-x,3/4+y,1/4+z
1/4+x,-y,1/4+z
1/2+x,1/2+y,z
3/4-x,3/4-y,z
1/2+x,3/4-y,1/4-z
3/4-x,1/2+y,1/4-z
1/2-x,1/2-y,-z
1/4+x,1/4+y,-z
1/2-x,1/4+y,3/4+z
1/4+x,1/2-y,3/4+z
loop_
_atom_site_type_symbol
_atom_site_label
_atom_site_fract_x
_atom_site_fract_y
_atom_site_fract_z
Si Si1 0.571910 0.058784 0.367113
Si Si2 0.712921 0.353354 0.061653
Si Si3 0.987629 0.588952 0.701068
Si Si4 0.125000 0.125000 0.211296
Si Si5 0.058208 0.170467 0.687846
Si Si6 0.398372 0.532204 0.990794
O O1 0.625000 0.125000 0.350078
O O2 0.504983 0.105578 0.370053
O O3 0.555954 0.990425 0.310774
O O4 0.597096 0.017554 0.436799
O O5 0.685587 0.265314 0.078177
O O6 0.764213 0.339229 0.002493
O O7 0.660027 0.413361 0.033329
O O8 0.990902 0.625000 0.625000
O O9 0.952499 0.653168 0.746878
O O10 0.058536 0.579494 0.730369
O O11 0.091140 0.208689 0.188263
O O12 0.125000 0.125000 0.696497
O O13 0.025550 0.125000 0.625000
#
# Coordination Sequence:
#
# PCOD9516278 Si02
#       6
#    32  32  32  16  32  32
#     4  11  24  44  71 108 150 200 260 328 401 487
#     4  11  25  44  76 111 151 208 260 331 411 467
#     4  10  24  43  67  99 142 192 250 317 390 467
#     4  12  21  46  66 100 144 190 257 318 390 458
#     4  10  25  46  70 107 156 198 257 328 400 491
#     4  11  25  42  72 106 145 202 264 324 394 486
#
# _framework density 25.506969999999999
#
# number of rings (size 3 to 8) (size 9 to 14) (size 15 to 20)
#    0.000    1.273    2.727    1.364   10.182    0.727 
#    0.000    7.273    0.000    0.000    0.000    0.000 
#    0.000    0.000    0.000    0.000    0.000    0.000 
#
# Total GULP energy -245453.996622 kJ/mol
# GULP energy per Si atom -5578.499923 kJ/mol
# Density = 2.544891 g / cm^3
# Si number density = 25.506970 Si / 1000 Ang^3
#
#
#
# Elastic Constant Matrix: (Units=GPa)
#
#
# Indices 1 2 3 4 5 6 
#
# 1 177.7166 89.4107 56.0462 0.0000 0.0000 0.0000
# 2 89.4107 261.2005 56.8561 0.0000 0.0000 0.0000
# 3 56.0462 56.8561 119.1863 0.0000 0.0000 0.0000
# 4 0.0000 0.0000 0.0000 2.7530 0.0000 0.0000
# 5 0.0000 0.0000 0.0000 0.0000 37.9626 0.0000
# 6 0.0000 0.0000 0.0000 0.0000 0.0000 46.8670
#
#
#
# Elastic Compliance Matrix: (Units=1/GPa)
#
#
# Indices 1 2 3 4 5 6 
#
# 1 0.007431 -0.001990 -0.002545 0.000000 0.000000 0.000000
# 2 -0.001990 0.004805 -0.001356 0.000000 0.000000 0.000000
# 3 -0.002545 -0.001356 0.010234 0.000000 0.000000 0.000000
# 4 0.000000 0.000000 0.000000 0.363240 0.000000 0.000000
# 5 0.000000 0.000000 0.000000 0.000000 0.026342 0.000000
# 6 0.000000 0.000000 0.000000 0.000000 0.000000 0.021337
#
#
# Mechanical properties :
#
#
# Convention : Reuss Voigt Hill
#
# Bulk Modulus (GPa) = 93.56942 106.96995 100.26968
# Shear Modulus (GPa) = 11.14249 41.23588 26.18918
#
# Velocity S-wave (km/s) = 2.09234 4.02512 3.20776
# Velocity P-wave (km/s) = 6.52692 7.97689 7.28805
#
# Compressibility (1/GPa) = 0.01068725
#
# Stress axis : x y z
#
# Youngs Moduli (GPa) = 134.58027 208.12622 97.71249
#
# Poissons Ratio (x) = 0.41407 0.24868
# Poissons Ratio (y) = 0.26775 0.13255
# Poissons Ratio (z) = 0.34251 0.28232
#
# Static dielectric constant tensor:
#      x y z
#    x 2.044770 0.000000 0.000000 
#    y 0.000000 2.067030 0.000000 
#    z 0.000000 0.000000 2.329560 
# 
# From -- ./inp_files/59481.got.cif
#   From: 2010.05.17/outbox.cif.g08.bks.cpg/sg70_30_cif.got.tgz:59481.got - 2010.06.03 15:57:51.
