data_PCOD9516536
_publ_section_title
;
Structure prediction by ZEFSAII (Michael W. Deem and Ramdas Pophale) SiO2 
 PCOD9516536
Probable space group: F D D D
;
_chemical_formula_sum "Si O2"
_cell_formula_units_Z 208
_cell_length_a 17.810590
_cell_length_b 24.861040
_cell_length_c 19.534938
_cell_angle_alpha 90.000000
_cell_angle_beta 90.000000
_cell_angle_gamma 90.000000
_cell_volume 8649.871103
_symmetry_space_group_name_H-M "F D D D"
_symmetry_group_IT_number 70
_space_group.IT_coordinate_system_code '2'
_symmetry_cell_setting 'orthorhombic'
loop_
_space_group_symop_operation_xyz
x,y,z
1/4-x,1/4-y,z
x,1/4-y,1/4-z
1/4-x,y,1/4-z
-x,-y,-z
3/4+x,3/4+y,-z
-x,3/4+y,3/4+z
3/4+x,-y,3/4+z
x,1/2+y,1/2+z
1/4-x,3/4-y,1/2+z
x,3/4-y,3/4-z
1/4-x,1/2+y,3/4-z
-x,1/2-y,1/2-z
3/4+x,1/4+y,1/2-z
-x,1/4+y,1/4+z
3/4+x,1/2-y,1/4+z
1/2+x,y,1/2+z
3/4-x,1/4-y,1/2+z
1/2+x,1/4-y,3/4-z
3/4-x,y,3/4-z
1/2-x,-y,1/2-z
1/4+x,3/4+y,1/2-z
1/2-x,3/4+y,1/4+z
1/4+x,-y,1/4+z
1/2+x,1/2+y,z
3/4-x,3/4-y,z
1/2+x,3/4-y,1/4-z
3/4-x,1/2+y,1/4-z
1/2-x,1/2-y,-z
1/4+x,1/4+y,-z
1/2-x,1/4+y,3/4+z
1/4+x,1/2-y,3/4+z
loop_
_atom_site_type_symbol
_atom_site_label
_atom_site_fract_x
_atom_site_fract_y
_atom_site_fract_z
Si Si1 0.960074 0.579015 0.034196
Si Si2 0.703763 0.528117 0.099833
Si Si3 0.942832 0.834345 0.510014
Si Si4 0.764671 0.474375 0.643958
Si Si5 0.375000 0.375000 0.974049
Si Si6 0.933032 0.451527 0.592289
Si Si7 0.815622 0.529721 0.986626
O O1 0.988973 0.538193 0.091863
O O2 0.870175 0.569093 0.027350
O O3 0.988862 0.639774 0.032776
O O4 0.992093 0.554579 0.963405
O O5 0.625000 0.504343 0.125000
O O6 0.765618 0.506056 0.154874
O O7 0.679161 0.587933 0.072884
O O8 0.741400 0.511790 0.028535
O O9 0.875000 0.875000 0.504686
O O10 0.963439 0.831172 0.591419
O O11 0.902891 0.780090 0.482434
O O12 0.848474 0.464479 0.616485
O O13 0.708848 0.451928 0.586814
O O14 0.327253 0.334668 0.024045
#
# Coordination Sequence:
#
# PCOD9516536 Si02
#       7
#    32  32  32  32  16  32  32
#     4  11  21  38  67  99 141 188 232 300 365 449
#     4  11  26  48  69 110 146 190 266 326 366 464
#     4  11  20  39  66  96 142 189 234 291 367 452
#     4  11  20  41  67  98 138 186 232 303 368 442
#     4  12  23  48  84 102 144 217 236 312 416 438
#     4  11  22  46  73 104 148 193 255 311 377 470
#     4  11  24  43  64 101 142 182 245 305 365 452
#
# _framework density 24.046600999999999
#
# number of rings (size 3 to 8) (size 9 to 14) (size 15 to 20)
#    0.000    0.923    6.923    1.615    0.000    1.231 
#    5.538    2.308    0.000    0.000    0.000    0.000 
#    0.000    0.000    0.000    0.000    0.000    0.000 
#
# Total GULP energy -289549.244290 kJ/mol
# GULP energy per Si atom -5568.254698 kJ/mol
# Density = 2.399187 g / cm^3
# Si number density = 24.046601 Si / 1000 Ang^3
#
#
#
# Elastic Constant Matrix: (Units=GPa)
#
#
# Indices 1 2 3 4 5 6 
#
# 1 78.3048 13.7185 19.7919 0.0000 0.0000 0.0000
# 2 13.7185 81.2853 25.2329 0.0000 0.0000 0.0000
# 3 19.7919 25.2329 40.0078 0.0000 0.0000 0.0000
# 4 0.0000 0.0000 0.0000 42.0290 0.0000 0.0000
# 5 0.0000 0.0000 0.0000 0.0000 6.9523 0.0000
# 6 0.0000 0.0000 0.0000 0.0000 0.0000 44.2435
#
#
#
# Elastic Compliance Matrix: (Units=1/GPa)
#
#
# Indices 1 2 3 4 5 6 
#
# 1 0.014601 -0.000276 -0.007049 0.000000 0.000000 0.000000
# 2 -0.000276 0.015303 -0.009515 0.000000 0.000000 0.000000
# 3 -0.007049 -0.009515 0.034483 0.000000 0.000000 0.000000
# 4 0.000000 0.000000 0.000000 0.023793 0.000000 0.000000
# 5 0.000000 0.000000 0.000000 0.000000 0.143838 0.000000
# 6 0.000000 0.000000 0.000000 0.000000 0.000000 0.022602
#
#
# Mechanical properties :
#
#
# Convention : Reuss Voigt Hill
#
# Bulk Modulus (GPa) = 32.56583 35.23163 33.89873
# Shear Modulus (GPa) = 16.74850 28.03525 22.39188
#
# Velocity S-wave (km/s) = 2.64200 3.41819 3.05485
# Velocity P-wave (km/s) = 4.78321 5.50108 5.15466
#
# Compressibility (1/GPa) = 0.03070703
#
# Stress axis : x y z
#
# Youngs Moduli (GPa) = 68.49035 65.34861 28.99964
#
# Poissons Ratio (x) = 0.01804 0.20441
# Poissons Ratio (y) = 0.01890 0.27593
# Poissons Ratio (z) = 0.48278 0.62178
#
# Static dielectric constant tensor:
#      x y z
#    x 2.042330 0.000000 0.000000 
#    y 0.000000 2.339630 0.000000 
#    z 0.000000 0.000000 1.966560 
# 
# From -- ./inp_files/43924.got.cif
#   From: 2010.05.17/outbox.cif.g08.bks.cpg/sg70_22_cif.got.tgz:43924.got - 2010.06.03 15:57:51.
