data_PCOD9516937
_publ_section_title
;
Structure prediction by ZEFSAII (Michael W. Deem and Ramdas Pophale) SiO2 
 PCOD9516937
Probable space group: F D D D
;
_chemical_formula_sum "Si O2"
_cell_formula_units_Z 136
_cell_length_a 19.314198
_cell_length_b 23.018368
_cell_length_c 11.174174
_cell_angle_alpha 90.000000
_cell_angle_beta 90.000000
_cell_angle_gamma 90.000000
_cell_volume 4967.828995
_symmetry_space_group_name_H-M "F D D D"
_symmetry_group_IT_number 70
_space_group.IT_coordinate_system_code '2'
_symmetry_cell_setting 'orthorhombic'
loop_
_space_group_symop_operation_xyz
x,y,z
1/4-x,1/4-y,z
x,1/4-y,1/4-z
1/4-x,y,1/4-z
-x,-y,-z
3/4+x,3/4+y,-z
-x,3/4+y,3/4+z
3/4+x,-y,3/4+z
x,1/2+y,1/2+z
1/4-x,3/4-y,1/2+z
x,3/4-y,3/4-z
1/4-x,1/2+y,3/4-z
-x,1/2-y,1/2-z
3/4+x,1/4+y,1/2-z
-x,1/4+y,1/4+z
3/4+x,1/2-y,1/4+z
1/2+x,y,1/2+z
3/4-x,1/4-y,1/2+z
1/2+x,1/4-y,3/4-z
3/4-x,y,3/4-z
1/2-x,-y,1/2-z
1/4+x,3/4+y,1/2-z
1/2-x,3/4+y,1/4+z
1/4+x,-y,1/4+z
1/2+x,1/2+y,z
3/4-x,3/4-y,z
1/2+x,3/4-y,1/4-z
3/4-x,1/2+y,1/4-z
1/2-x,1/2-y,-z
1/4+x,1/4+y,-z
1/2-x,1/4+y,3/4+z
1/4+x,1/2-y,3/4+z
loop_
_atom_site_type_symbol
_atom_site_label
_atom_site_fract_x
_atom_site_fract_y
_atom_site_fract_z
Si Si1 0.286158 0.478354 0.578860
Si Si2 0.375000 0.375000 0.875000
Si Si3 0.627127 0.412044 0.492281
Si Si4 0.282195 0.900256 0.748210
Si Si5 0.409538 0.472077 0.709582
O O1 0.325835 0.529519 0.501353
O O2 0.291684 0.408397 0.577985
O O3 0.328866 0.490866 0.702283
O O4 0.209690 0.483533 0.523642
O O5 0.419105 0.416258 0.792156
O O6 0.625000 0.384196 0.625000
O O7 0.649618 0.375000 0.375000
O O8 0.545209 0.422315 0.475255
O O9 0.306767 0.875000 0.875000
O O10 0.319803 0.950705 0.673618
#
# Coordination Sequence:
#
# PCOD9516937 Si02
#       5
#    32   8  32  32  32
#     4  12  27  50  80 121 161 224 279 348 443 502
#     4  12  28  56  70 108 168 204 272 348 420 500
#     4  11  25  48  76 116 164 213 282 350 419 516
#     4  11  25  47  78 117 164 210 277 349 423 512
#     4  12  27  50  80 117 161 219 277 350 418 527
#
# _framework density 27.376145000000001
#
# number of rings (size 3 to 8) (size 9 to 14) (size 15 to 20)
#    0.000    0.471    4.706    2.824    4.941    3.765 
#    8.471    0.000    0.000    0.000    0.000    0.000 
#    0.000    0.000    0.000    0.000    0.000    0.000 
#
# Total GULP energy -189493.061135 kJ/mol
# GULP energy per Si atom -5573.325327 kJ/mol
# Density = 2.731384 g / cm^3
# Si number density = 27.376145 Si / 1000 Ang^3
#
#
#
# Elastic Constant Matrix: (Units=GPa)
#
#
# Indices 1 2 3 4 5 6 
#
# 1 109.5225 27.6882 15.3473 0.0000 0.0000 0.0000
# 2 27.6882 126.3544 39.9386 0.0000 0.0000 0.0000
# 3 15.3473 39.9386 174.6469 0.0000 0.0000 0.0000
# 4 0.0000 0.0000 0.0000 20.7688 0.0000 0.0000
# 5 0.0000 0.0000 0.0000 0.0000 118.7564 0.0000
# 6 0.0000 0.0000 0.0000 0.0000 0.0000 30.7355
#
#
#
# Elastic Compliance Matrix: (Units=1/GPa)
#
#
# Indices 1 2 3 4 5 6 
#
# 1 0.009691 -0.001999 -0.000395 0.000000 0.000000 0.000000
# 2 -0.001999 0.008943 -0.001869 0.000000 0.000000 0.000000
# 3 -0.000395 -0.001869 0.006188 0.000000 0.000000 0.000000
# 4 0.000000 0.000000 0.000000 0.048149 0.000000 0.000000
# 5 0.000000 0.000000 0.000000 0.000000 0.008421 0.000000
# 6 0.000000 0.000000 0.000000 0.000000 0.000000 0.032536
#
#
# Mechanical properties :
#
#
# Convention : Reuss Voigt Hill
#
# Bulk Modulus (GPa) = 61.36278 64.05246 62.70762
# Shear Modulus (GPa) = 39.09733 55.88877 47.49305
#
# Velocity S-wave (km/s) = 3.78319 4.52321 4.16965
# Velocity P-wave (km/s) = 6.44568 7.12231 6.79242
#
# Compressibility (1/GPa) = 0.01629652
#
# Stress axis : x y z
#
# Youngs Moduli (GPa) = 103.18660 111.81691 161.60246
#
# Poissons Ratio (x) = 0.22352 0.06375
# Poissons Ratio (y) = 0.20626 0.30211
# Poissons Ratio (z) = 0.04071 0.20904
#
# Static dielectric constant tensor:
#      x y z
#    x 2.246270 0.000000 0.000000 
#    y 0.000000 2.117250 0.000000 
#    z 0.000000 0.000000 2.052460 
# 
# From -- ./inp_files/17702.got.cif
#   From: 2010.05.17/outbox.cif.g08.bks.cpg/sg70_9_cif.got.tgz:17702.got - 2010.06.03 15:57:51.
