data_PCOD9516521
_publ_section_title
;
Structure prediction by ZEFSAII (Michael W. Deem and Ramdas Pophale) SiO2 
 PCOD9516521
Probable space group: F D D D
;
_chemical_formula_sum "Si O2"
_cell_formula_units_Z 208
_cell_length_a 26.154996
_cell_length_b 19.035264
_cell_length_c 17.889881
_cell_angle_alpha 90.000000
_cell_angle_beta 90.000000
_cell_angle_gamma 90.000000
_cell_volume 8906.785924
_symmetry_space_group_name_H-M "F D D D"
_symmetry_group_IT_number 70
_space_group.IT_coordinate_system_code '2'
_symmetry_cell_setting 'orthorhombic'
loop_
_space_group_symop_operation_xyz
x,y,z
1/4-x,1/4-y,z
x,1/4-y,1/4-z
1/4-x,y,1/4-z
-x,-y,-z
3/4+x,3/4+y,-z
-x,3/4+y,3/4+z
3/4+x,-y,3/4+z
x,1/2+y,1/2+z
1/4-x,3/4-y,1/2+z
x,3/4-y,3/4-z
1/4-x,1/2+y,3/4-z
-x,1/2-y,1/2-z
3/4+x,1/4+y,1/2-z
-x,1/4+y,1/4+z
3/4+x,1/2-y,1/4+z
1/2+x,y,1/2+z
3/4-x,1/4-y,1/2+z
1/2+x,1/4-y,3/4-z
3/4-x,y,3/4-z
1/2-x,-y,1/2-z
1/4+x,3/4+y,1/2-z
1/2-x,3/4+y,1/4+z
1/4+x,-y,1/4+z
1/2+x,1/2+y,z
3/4-x,3/4-y,z
1/2+x,3/4-y,1/4-z
3/4-x,1/2+y,1/4-z
1/2-x,1/2-y,-z
1/4+x,1/4+y,-z
1/2-x,1/4+y,3/4+z
1/4+x,1/2-y,3/4+z
loop_
_atom_site_type_symbol
_atom_site_label
_atom_site_fract_x
_atom_site_fract_y
_atom_site_fract_z
Si Si1 0.368074 0.734862 0.457863
Si Si2 0.533642 0.240810 0.874129
Si Si3 0.713443 0.362144 0.717566
Si Si4 0.990225 0.875000 0.375000
Si Si5 0.359577 0.797766 0.142195
Si Si6 0.489098 0.028201 0.845129
Si Si7 0.764291 0.593990 0.248331
O O1 0.375000 0.762855 0.375000
O O2 0.409197 0.673920 0.470117
O O3 0.382215 0.791811 0.519073
O O4 0.314579 0.695486 0.469839
O O5 0.502329 0.198174 0.936500
O O6 0.594094 0.250793 0.889860
O O7 0.510347 0.310521 0.834522
O O8 0.529295 0.185078 0.803984
O O9 0.728617 0.388467 0.799073
O O10 0.714119 0.423667 0.658020
O O11 0.965879 0.799715 0.396925
O O12 0.375000 0.875000 0.113640
O O13 0.300184 0.776767 0.133869
O O14 0.482803 0.073527 0.767972
#
# Coordination Sequence:
#
# PCOD9516521 Si02
#       7
#    32  32  32  16  32  32  32
#     4  11  20  36  64  96 136 172 214 272 350 419
#     4   9  18  34  63  97 130 173 216 272 339 410
#     4  11  22  41  69  93 134 179 226 283 336 407
#     4  12  26  44  62  99 122 176 244 275 332 398
#     4  11  20  36  64  96 136 172 214 272 350 419
#     4  11  22  41  69  93 134 179 226 283 336 407
#     4   9  18  34  63  97 130 173 216 272 339 410
#
# _framework density 23.352981
#
# number of rings (size 3 to 8) (size 9 to 14) (size 15 to 20)
#    0.000    1.538    7.692    0.462    0.000    0.308 
#    0.000    2.308    0.000    5.538    0.000    0.000 
#    0.000    0.000    0.000    0.000    0.000    0.000 
#
# Total GULP energy -289914.075944 kJ/mol
# GULP energy per Si atom -5575.270691 kJ/mol
# Density = 2.329983 g / cm^3
# Si number density = 23.352981 Si / 1000 Ang^3
#
#
#
# Elastic Constant Matrix: (Units=GPa)
#
#
# Indices 1 2 3 4 5 6 
#
# 1 72.3238 -1.3617 -12.6668 0.0000 0.0000 0.0000
# 2 -1.3617 158.7861 33.0940 0.0000 0.0000 0.0000
# 3 -12.6668 33.0940 70.7593 0.0000 0.0000 0.0000
# 4 0.0000 0.0000 0.0000 37.7763 0.0000 0.0000
# 5 0.0000 0.0000 0.0000 0.0000 -36.2582 0.0000
# 6 0.0000 0.0000 0.0000 0.0000 0.0000 20.4673
#
#
#
# Elastic Compliance Matrix: (Units=1/GPa)
#
#
# Indices 1 2 3 4 5 6 
#
# 1 0.014304 -0.000455 0.002774 0.000000 0.000000 0.000000
# 2 -0.000455 0.006992 -0.003352 0.000000 0.000000 0.000000
# 3 0.002774 -0.003352 0.016197 0.000000 0.000000 0.000000
# 4 0.000000 0.000000 0.000000 0.026472 0.000000 0.000000
# 5 0.000000 0.000000 0.000000 0.000000 -0.027580 0.000000
# 6 0.000000 0.000000 0.000000 0.000000 0.000000 0.048859
#
#
# Mechanical properties :
#
#
# Convention : Reuss Voigt Hill
#
# Bulk Modulus (GPa) = 28.22825 37.77782 33.00303
# Shear Modulus (GPa) = 50.44436 23.25065 36.84751
#
# Velocity S-wave (km/s) = 4.65271 3.15876 3.97653
# Velocity P-wave (km/s) = 6.40137 5.43284 5.93689
#
# Compressibility (1/GPa) = 0.03542551
#
# Stress axis : x y z
#
# Youngs Moduli (GPa) = 69.91104 143.01090 61.74133
#
# Poissons Ratio (x) = 0.06513 -0.17124
# Poissons Ratio (y) = 0.03184 0.20695
# Poissons Ratio (z) = -0.19390 0.47936
#
# Static dielectric constant tensor:
#      x y z
#    x 1.914950 0.000000 0.000000 
#    y 0.000000 1.950300 0.000000 
#    z 0.000000 0.000000 1.870170 
# 
# From -- ./inp_files/38737.got.cif
#   From: 2010.05.17/outbox.cif.g08.bks.cpg/sg70_20_cif.got.tgz:38737.got - 2010.06.03 15:57:51.
