data_PCOD9516495
_publ_section_title
;
Structure prediction by ZEFSAII (Michael W. Deem and Ramdas Pophale) SiO2 
 PCOD9516495
Probable space group: F D D D
;
_chemical_formula_sum "Si O2"
_cell_formula_units_Z 144
_cell_length_a 21.961189
_cell_length_b 12.223786
_cell_length_c 21.170387
_cell_angle_alpha 90.000000
_cell_angle_beta 90.000000
_cell_angle_gamma 90.000000
_cell_volume 5683.166566
_symmetry_space_group_name_H-M "F D D D"
_symmetry_group_IT_number 70
_space_group.IT_coordinate_system_code '2'
_symmetry_cell_setting 'orthorhombic'
loop_
_space_group_symop_operation_xyz
x,y,z
1/4-x,1/4-y,z
x,1/4-y,1/4-z
1/4-x,y,1/4-z
-x,-y,-z
3/4+x,3/4+y,-z
-x,3/4+y,3/4+z
3/4+x,-y,3/4+z
x,1/2+y,1/2+z
1/4-x,3/4-y,1/2+z
x,3/4-y,3/4-z
1/4-x,1/2+y,3/4-z
-x,1/2-y,1/2-z
3/4+x,1/4+y,1/2-z
-x,1/4+y,1/4+z
3/4+x,1/2-y,1/4+z
1/2+x,y,1/2+z
3/4-x,1/4-y,1/2+z
1/2+x,1/4-y,3/4-z
3/4-x,y,3/4-z
1/2-x,-y,1/2-z
1/4+x,3/4+y,1/2-z
1/2-x,3/4+y,1/4+z
1/4+x,-y,1/4+z
1/2+x,1/2+y,z
3/4-x,3/4-y,z
1/2+x,3/4-y,1/4-z
3/4-x,1/2+y,1/4-z
1/2-x,1/2-y,-z
1/4+x,1/4+y,-z
1/2-x,1/4+y,3/4+z
1/4+x,1/2-y,3/4+z
loop_
_atom_site_type_symbol
_atom_site_label
_atom_site_fract_x
_atom_site_fract_y
_atom_site_fract_z
Si Si1 0.469891 0.471673 0.824841
Si Si2 0.705716 0.829264 0.646703
Si Si3 0.599360 0.831339 0.475726
Si Si4 0.295214 0.125000 0.625000
Si Si5 0.931944 0.919594 0.042294
O O1 0.459166 0.375000 0.875000
O O2 0.439369 0.589386 0.839039
O O3 0.542653 0.478443 0.809960
O O4 0.438999 0.419411 0.762791
O O5 0.658205 0.792963 0.701091
O O6 0.749245 0.726406 0.634500
O O7 0.753441 0.916768 0.675458
O O8 0.660340 0.836625 0.433016
O O9 0.580484 0.958141 0.476924
O O10 0.875000 0.875000 0.082552
#
# Coordination Sequence:
#
# PCOD9516495 Si02
#       5
#    32  32  32  16  32
#     4  11  19  35  61  96 132 166 209 291 348 392
#     4  11  23  40  64 100 136 174 235 286 340 426
#     4  11  21  38  64 102 135 169 235 292 339 417
#     4  12  24  42  74  96 134 202 224 272 374 414
#     4  11  20  36  63  97 129 168 220 292 347 406
#
# _framework density 25.337987999999999
#
# number of rings (size 3 to 8) (size 9 to 14) (size 15 to 20)
#    0.000    0.889    7.778    1.333    0.000    0.444 
#    0.000    4.444    4.889    0.000    0.000    0.000 
#    0.000    0.000    0.000    0.000    0.000    0.000 
#
# Total GULP energy -200907.383149 kJ/mol
# GULP energy per Si atom -5580.760643 kJ/mol
# Density = 2.528032 g / cm^3
# Si number density = 25.337988 Si / 1000 Ang^3
#
#
#
# Elastic Constant Matrix: (Units=GPa)
#
#
# Indices 1 2 3 4 5 6 
#
# 1 116.8620 46.5852 46.5487 0.0000 0.0000 0.0000
# 2 46.5852 109.3046 58.4990 0.0000 0.0000 0.0000
# 3 46.5487 58.4990 82.6923 0.0000 0.0000 0.0000
# 4 0.0000 0.0000 0.0000 30.9221 0.0000 0.0000
# 5 0.0000 0.0000 0.0000 0.0000 19.4927 0.0000
# 6 0.0000 0.0000 0.0000 0.0000 0.0000 52.5630
#
#
#
# Elastic Compliance Matrix: (Units=1/GPa)
#
#
# Indices 1 2 3 4 5 6 
#
# 1 0.011375 -0.002287 -0.004785 0.000000 0.000000 0.000000
# 2 -0.002287 0.015183 -0.009453 0.000000 0.000000 0.000000
# 3 -0.004785 -0.009453 0.021474 0.000000 0.000000 0.000000
# 4 0.000000 0.000000 0.000000 0.032339 0.000000 0.000000
# 5 0.000000 0.000000 0.000000 0.000000 0.051301 0.000000
# 6 0.000000 0.000000 0.000000 0.000000 0.000000 0.019025
#
#
# Mechanical properties :
#
#
# Convention : Reuss Voigt Hill
#
# Bulk Modulus (GPa) = 66.75196 68.01386 67.38291
# Shear Modulus (GPa) = 26.49119 31.07731 28.78425
#
# Velocity S-wave (km/s) = 3.23695 3.50596 3.37413
# Velocity P-wave (km/s) = 6.35392 6.57951 6.46769
#
# Compressibility (1/GPa) = 0.01498083
#
# Stress axis : x y z
#
# Youngs Moduli (GPa) = 87.91368 65.86394 46.56720
#
# Poissons Ratio (x) = 0.15062 0.22283
# Poissons Ratio (y) = 0.20105 0.44022
# Poissons Ratio (z) = 0.42069 0.62264
#
# Static dielectric constant tensor:
#      x y z
#    x 2.110230 0.000000 0.000000 
#    y 0.000000 2.023640 0.000000 
#    z 0.000000 0.000000 2.228360 
# 
# From -- ./inp_files/19172.got.cif
#   From: 2010.05.17/outbox.cif.g08.bks.cpg/sg70_10_cif.got.tgz:19172.got - 2010.06.03 15:57:51.
