data_PCOD9516198
_publ_section_title
;
Structure prediction by ZEFSAII (Michael W. Deem and Ramdas Pophale) SiO2 
 PCOD9516198
Probable space group: F D D D
;
_chemical_formula_sum "Si O2"
_cell_formula_units_Z 96
_cell_length_a 21.901623
_cell_length_b 9.985487
_cell_length_c 16.699624
_cell_angle_alpha 90.000000
_cell_angle_beta 90.000000
_cell_angle_gamma 90.000000
_cell_volume 3652.180578
_symmetry_space_group_name_H-M "F D D D"
_symmetry_group_IT_number 70
_space_group.IT_coordinate_system_code '2'
_symmetry_cell_setting 'orthorhombic'
loop_
_space_group_symop_operation_xyz
x,y,z
1/4-x,1/4-y,z
x,1/4-y,1/4-z
1/4-x,y,1/4-z
-x,-y,-z
3/4+x,3/4+y,-z
-x,3/4+y,3/4+z
3/4+x,-y,3/4+z
x,1/2+y,1/2+z
1/4-x,3/4-y,1/2+z
x,3/4-y,3/4-z
1/4-x,1/2+y,3/4-z
-x,1/2-y,1/2-z
3/4+x,1/4+y,1/2-z
-x,1/4+y,1/4+z
3/4+x,1/2-y,1/4+z
1/2+x,y,1/2+z
3/4-x,1/4-y,1/2+z
1/2+x,1/4-y,3/4-z
3/4-x,y,3/4-z
1/2-x,-y,1/2-z
1/4+x,3/4+y,1/2-z
1/2-x,3/4+y,1/4+z
1/4+x,-y,1/4+z
1/2+x,1/2+y,z
3/4-x,3/4-y,z
1/2+x,3/4-y,1/4-z
3/4-x,1/2+y,1/4-z
1/2-x,1/2-y,-z
1/4+x,1/4+y,-z
1/2-x,1/4+y,3/4+z
1/4+x,1/2-y,3/4+z
loop_
_atom_site_type_symbol
_atom_site_label
_atom_site_fract_x
_atom_site_fract_y
_atom_site_fract_z
Si Si1 0.735018 0.604671 0.034075
Si Si2 0.320269 0.153300 0.437288
Si Si3 0.687616 0.125074 0.321997
O O1 0.712158 0.625000 0.125000
O O2 0.560663 0.767289 0.010243
O O3 0.798813 0.525162 0.042507
O O4 0.750000 0.750000 0.000000
O O5 0.375000 0.148565 0.375000
O O6 0.322710 0.277855 0.496943
O O7 0.253565 0.166867 0.392618
O O8 0.625000 0.125000 0.370435
#
# Coordination Sequence:
#
# PCOD9516198 Si02
#       3
#    32  32  32
#     4  10  23  45  70 112 159 205 264 335 414 492
#     4   9  21  42  72 110 152 208 265 327 405 498
#     4   9  21  43  70 107 155 201 266 333 402 489
#
# _framework density 26.285665999999999
#
# number of rings (size 3 to 8) (size 9 to 14) (size 15 to 20)
#    2.000    0.667    0.000    0.000    4.667    1.333 
#    0.000    8.333    7.333    0.000    0.000    0.000 
#    0.000    0.000    0.000    0.000    0.000    0.000 
#
# Total GULP energy -133738.630452 kJ/mol
# GULP energy per Si atom -5572.442935 kJ/mol
# Density = 2.622584 g / cm^3
# Si number density = 26.285666 Si / 1000 Ang^3
#
#
#
# Elastic Constant Matrix: (Units=GPa)
#
#
# Indices 1 2 3 4 5 6 
#
# 1 229.4471 25.1780 34.5315 0.0000 0.0000 0.0000
# 2 25.1780 204.7423 46.1730 0.0000 0.0000 0.0000
# 3 34.5315 46.1730 52.0244 0.0000 0.0000 0.0000
# 4 0.0000 0.0000 0.0000 47.7922 0.0000 0.0000
# 5 0.0000 0.0000 0.0000 0.0000 42.5139 0.0000
# 6 0.0000 0.0000 0.0000 0.0000 0.0000 28.8614
#
#
#
# Elastic Compliance Matrix: (Units=1/GPa)
#
#
# Indices 1 2 3 4 5 6 
#
# 1 0.004846 0.000162 -0.003360 0.000000 0.000000 0.000000
# 2 0.000162 0.006112 -0.005532 0.000000 0.000000 0.000000
# 3 -0.003360 -0.005532 0.026362 0.000000 0.000000 0.000000
# 4 0.000000 0.000000 0.000000 0.020924 0.000000 0.000000
# 5 0.000000 0.000000 0.000000 0.000000 0.023522 0.000000
# 6 0.000000 0.000000 0.000000 0.000000 0.000000 0.034648
#
#
# Mechanical properties :
#
#
# Convention : Reuss Voigt Hill
#
# Bulk Modulus (GPa) = 50.35439 77.55319 63.95379
# Shear Modulus (GPa) = 35.58860 49.18891 42.38875
#
# Velocity S-wave (km/s) = 3.68355 4.33057 4.02010
# Velocity P-wave (km/s) = 6.10652 7.38736 6.77727
#
# Compressibility (1/GPa) = 0.01985924
#
# Stress axis : x y z
#
# Youngs Moduli (GPa) = 206.34393 163.61766 37.93354
#
# Poissons Ratio (x) = -0.02648 0.12747
# Poissons Ratio (y) = -0.03340 0.20984
# Poissons Ratio (z) = 0.69340 0.90511
#
# Static dielectric constant tensor:
#      x y z
#    x 2.234550 0.000000 0.000000 
#    y 0.000000 2.055190 0.000000 
#    z 0.000000 0.000000 2.343680 
# 
# From -- ./inp_files/18501.got.cif
#   From: 2010.05.17/outbox.cif.g08.bks.cpg/sg70_10_cif.got.tgz:18501.got - 2010.06.03 15:57:51.
