data_PCOD9516945
_publ_section_title
;
Structure prediction by ZEFSAII (Michael W. Deem and Ramdas Pophale) SiO2 
 PCOD9516945
Probable space group: F D D D
;
_chemical_formula_sum "Si O2"
_cell_formula_units_Z 112
_cell_length_a 31.564839
_cell_length_b 15.219451
_cell_length_c 10.567051
_cell_angle_alpha 90.000000
_cell_angle_beta 90.000000
_cell_angle_gamma 90.000000
_cell_volume 5076.406233
_symmetry_space_group_name_H-M "F D D D"
_symmetry_group_IT_number 70
_space_group.IT_coordinate_system_code '2'
_symmetry_cell_setting 'orthorhombic'
loop_
_space_group_symop_operation_xyz
x,y,z
1/4-x,1/4-y,z
x,1/4-y,1/4-z
1/4-x,y,1/4-z
-x,-y,-z
3/4+x,3/4+y,-z
-x,3/4+y,3/4+z
3/4+x,-y,3/4+z
x,1/2+y,1/2+z
1/4-x,3/4-y,1/2+z
x,3/4-y,3/4-z
1/4-x,1/2+y,3/4-z
-x,1/2-y,1/2-z
3/4+x,1/4+y,1/2-z
-x,1/4+y,1/4+z
3/4+x,1/2-y,1/4+z
1/2+x,y,1/2+z
3/4-x,1/4-y,1/2+z
1/2+x,1/4-y,3/4-z
3/4-x,y,3/4-z
1/2-x,-y,1/2-z
1/4+x,3/4+y,1/2-z
1/2-x,3/4+y,1/4+z
1/4+x,-y,1/4+z
1/2+x,1/2+y,z
3/4-x,3/4-y,z
1/2+x,3/4-y,1/4-z
3/4-x,1/2+y,1/4-z
1/2-x,1/2-y,-z
1/4+x,1/4+y,-z
1/2-x,1/4+y,3/4+z
1/4+x,1/2-y,3/4+z
loop_
_atom_site_type_symbol
_atom_site_label
_atom_site_fract_x
_atom_site_fract_y
_atom_site_fract_z
Si Si1 0.860730 0.691726 0.013369
Si Si2 0.125000 0.125000 0.867734
Si Si3 0.463092 0.324425 0.498020
Si Si4 0.018925 0.372893 0.238777
O O1 0.873542 0.625000 0.125000
O O2 0.878323 0.787539 0.047256
O O3 0.875000 0.662525 0.875000
O O4 0.809572 0.689671 0.008774
O O5 0.166380 0.141201 0.782851
O O6 0.479500 0.375000 0.375000
O O7 0.491839 0.343829 0.620059
O O8 0.463629 0.221146 0.467954
O O9 0.995428 0.375000 0.375000
#
# Coordination Sequence:
#
# PCOD9516945 Si02
#       4
#    32  16  32  32
#     4  11  26  46  74 106 150 194 247 305 367 439
#     4  12  26  46  72 112 148 198 248 302 370 444
#     4  12  27  46  77 109 150 191 249 305 377 434
#     4  11  25  49  71 110 148 197 238 310 362 454
#
# _framework density 22.062850999999998
#
# number of rings (size 3 to 8) (size 9 to 14) (size 15 to 20)
#    0.000    0.571    5.714    2.571    8.000    1.143 
#    0.000    0.000    0.000    0.000    0.000    0.000 
#    0.000    0.000    0.000    0.000    0.000    0.000 
#
# Total GULP energy -156741.410336 kJ/mol
# GULP energy per Si atom -5597.907512 kJ/mol
# Density = 2.201263 g / cm^3
# Si number density = 22.062851 Si / 1000 Ang^3
#
#
#
# Elastic Constant Matrix: (Units=GPa)
#
#
# Indices 1 2 3 4 5 6 
#
# 1 53.2679 43.6557 16.0277 0.0000 0.0000 0.0000
# 2 43.6557 157.3823 44.7866 0.0000 0.0000 0.0000
# 3 16.0277 44.7866 154.3940 0.0000 0.0000 0.0000
# 4 0.0000 0.0000 0.0000 31.6876 0.0000 0.0000
# 5 0.0000 0.0000 0.0000 0.0000 7.5365 0.0000
# 6 0.0000 0.0000 0.0000 0.0000 0.0000 32.9273
#
#
#
# Elastic Compliance Matrix: (Units=1/GPa)
#
#
# Indices 1 2 3 4 5 6 
#
# 1 0.024351 -0.006578 -0.000620 0.000000 0.000000 0.000000
# 2 -0.006578 0.008703 -0.001842 0.000000 0.000000 0.000000
# 3 -0.000620 -0.001842 0.007075 0.000000 0.000000 0.000000
# 4 0.000000 0.000000 0.000000 0.031558 0.000000 0.000000
# 5 0.000000 0.000000 0.000000 0.000000 0.132688 0.000000
# 6 0.000000 0.000000 0.000000 0.000000 0.000000 0.030370
#
#
# Mechanical properties :
#
#
# Convention : Reuss Voigt Hill
#
# Bulk Modulus (GPa) = 45.35160 63.77600 54.56380
# Shear Modulus (GPa) = 19.21794 31.80190 25.50992
#
# Velocity S-wave (km/s) = 2.95456 3.80073 3.40404
# Velocity P-wave (km/s) = 5.67799 6.94478 6.34309
#
# Compressibility (1/GPa) = 0.02204994
#
# Stress axis : x y z
#
# Youngs Moduli (GPa) = 41.06673 114.90653 141.33334
#
# Poissons Ratio (x) = 0.75588 0.08758
# Poissons Ratio (y) = 0.27014 0.26028
# Poissons Ratio (z) = 0.02545 0.21161
#
# Static dielectric constant tensor:
#      x y z
#    x 1.809970 0.000000 0.000000 
#    y 0.000000 1.814940 0.000000 
#    z 0.000000 0.000000 1.828760 
# 
# From -- ./inp_files/15055.got.cif
#   From: 2010.05.17/outbox.cif.g08.bks.cpg/sg70_8_cif.got.tgz:15055.got - 2010.06.03 15:57:51.
