data_PCOD9516730
_publ_section_title
;
Structure prediction by ZEFSAII (Michael W. Deem and Ramdas Pophale) SiO2 
 PCOD9516730
Probable space group: F D D D
;
_chemical_formula_sum "Si O2"
_cell_formula_units_Z 176
_cell_length_a 10.456862
_cell_length_b 25.382153
_cell_length_c 28.352632
_cell_angle_alpha 90.000000
_cell_angle_beta 90.000000
_cell_angle_gamma 90.000000
_cell_volume 7525.289557
_symmetry_space_group_name_H-M "F D D D"
_symmetry_group_IT_number 70
_space_group.IT_coordinate_system_code '2'
_symmetry_cell_setting 'orthorhombic'
loop_
_space_group_symop_operation_xyz
x,y,z
1/4-x,1/4-y,z
x,1/4-y,1/4-z
1/4-x,y,1/4-z
-x,-y,-z
3/4+x,3/4+y,-z
-x,3/4+y,3/4+z
3/4+x,-y,3/4+z
x,1/2+y,1/2+z
1/4-x,3/4-y,1/2+z
x,3/4-y,3/4-z
1/4-x,1/2+y,3/4-z
-x,1/2-y,1/2-z
3/4+x,1/4+y,1/2-z
-x,1/4+y,1/4+z
3/4+x,1/2-y,1/4+z
1/2+x,y,1/2+z
3/4-x,1/4-y,1/2+z
1/2+x,1/4-y,3/4-z
3/4-x,y,3/4-z
1/2-x,-y,1/2-z
1/4+x,3/4+y,1/2-z
1/2-x,3/4+y,1/4+z
1/4+x,-y,1/4+z
1/2+x,1/2+y,z
3/4-x,3/4-y,z
1/2+x,3/4-y,1/4-z
3/4-x,1/2+y,1/4-z
1/2-x,1/2-y,-z
1/4+x,1/4+y,-z
1/2-x,1/4+y,3/4+z
1/4+x,1/2-y,3/4+z
loop_
_atom_site_type_symbol
_atom_site_label
_atom_site_fract_x
_atom_site_fract_y
_atom_site_fract_z
Si Si1 0.274493 0.737636 0.115739
Si Si2 0.281892 0.468104 0.682005
Si Si3 0.973629 0.827701 0.786974
Si Si4 0.625000 0.888505 0.625000
Si Si5 0.024249 0.892215 0.443676
Si Si6 0.731946 0.670613 0.453611
O O1 0.334655 0.760734 0.162944
O O2 0.314775 0.679670 0.099226
O O3 0.308962 0.776489 0.072568
O O4 0.125000 0.735474 0.125000
O O5 0.285480 0.439052 0.731995
O O6 0.199347 0.522052 0.686500
O O7 0.234514 0.427216 0.643127
O O8 0.875000 0.875000 0.797346
O O9 0.118089 0.848120 0.797071
O O10 0.589428 0.853045 0.669336
O O11 0.875000 0.875000 0.436902
O O12 0.023349 0.925778 0.492473
O O13 0.625000 0.625000 0.454013
#
# Coordination Sequence:
#
# PCOD9516730 Si02
#       6
#    32  32  32  16  32  32
#     4  12  26  43  74 107 140 189 243 297 356 438
#     4  11  27  46  71 107 143 182 245 295 358 433
#     4  11  27  48  74 103 146 193 233 299 365 429
#     4  12  22  44  71 102 135 182 240 298 346 426
#     4  11  26  49  70 105 149 190 236 297 369 429
#     4  11  23  41  70 102 139 184 235 299 355 422
#
# _framework density 23.387805
#
# number of rings (size 3 to 8) (size 9 to 14) (size 15 to 20)
#    0.000    0.727    4.545    1.636    7.636    2.545 
#    3.273    0.000    0.000    0.000    0.000    0.000 
#    0.000    0.000    0.000    0.000    0.000    0.000 
#
# Total GULP energy -246086.029884 kJ/mol
# GULP energy per Si atom -5592.864316 kJ/mol
# Density = 2.333457 g / cm^3
# Si number density = 23.387805 Si / 1000 Ang^3
#
#
#
# Elastic Constant Matrix: (Units=GPa)
#
#
# Indices 1 2 3 4 5 6 
#
# 1 78.5667 29.3729 30.6178 0.0000 0.0000 0.0000
# 2 29.3729 126.9664 31.2950 0.0000 0.0000 0.0000
# 3 30.6178 31.2950 94.7207 0.0000 0.0000 0.0000
# 4 0.0000 0.0000 0.0000 140.2112 0.0000 0.0000
# 5 0.0000 0.0000 0.0000 0.0000 5.4715 0.0000
# 6 0.0000 0.0000 0.0000 0.0000 0.0000 24.9971
#
#
#
# Elastic Compliance Matrix: (Units=1/GPa)
#
#
# Indices 1 2 3 4 5 6 
#
# 1 0.015269 -0.002521 -0.004103 0.000000 0.000000 0.000000
# 2 -0.002521 0.008991 -0.002155 0.000000 0.000000 0.000000
# 3 -0.004103 -0.002155 0.012596 0.000000 0.000000 0.000000
# 4 0.000000 0.000000 0.000000 0.007132 0.000000 0.000000
# 5 0.000000 0.000000 0.000000 0.000000 0.182764 0.000000
# 6 0.000000 0.000000 0.000000 0.000000 0.000000 0.040005
#
#
# Mechanical properties :
#
#
# Convention : Reuss Voigt Hill
#
# Bulk Modulus (GPa) = 51.82178 53.64723 52.73450
# Shear Modulus (GPa) = 17.19703 48.06718 32.63211
#
# Velocity S-wave (km/s) = 2.71458 4.53838 3.73937
# Velocity P-wave (km/s) = 5.65959 7.10284 6.42189
#
# Compressibility (1/GPa) = 0.01929691
#
# Stress axis : x y z
#
# Youngs Moduli (GPa) = 65.49010 111.22661 79.39226
#
# Poissons Ratio (x) = 0.28043 0.32573
# Poissons Ratio (y) = 0.16512 0.17113
# Poissons Ratio (z) = 0.26869 0.23975
#
# Static dielectric constant tensor:
#      x y z
#    x 1.864020 0.000000 0.000000 
#    y 0.000000 1.896660 0.000000 
#    z 0.000000 0.000000 1.862530 
# 
# From -- ./inp_files/64758.got.cif
#   From: 2010.05.17/outbox.cif.g08.bks.cpg/sg70_33_cif.got.tgz:64758.got - 2010.06.03 15:57:51.
