data_PCOD9516293
_publ_section_title
;
Structure prediction by ZEFSAII (Michael W. Deem and Ramdas Pophale) SiO2 
 PCOD9516293
Probable space group: F D D D
;
_chemical_formula_sum "Si O2"
_cell_formula_units_Z 144
_cell_length_a 15.795725
_cell_length_b 33.985539
_cell_length_c 12.696592
_cell_angle_alpha 90.000000
_cell_angle_beta 90.000000
_cell_angle_gamma 90.000000
_cell_volume 6815.863592
_symmetry_space_group_name_H-M "F D D D"
_symmetry_group_IT_number 70
_space_group.IT_coordinate_system_code '2'
_symmetry_cell_setting 'orthorhombic'
loop_
_space_group_symop_operation_xyz
x,y,z
1/4-x,1/4-y,z
x,1/4-y,1/4-z
1/4-x,y,1/4-z
-x,-y,-z
3/4+x,3/4+y,-z
-x,3/4+y,3/4+z
3/4+x,-y,3/4+z
x,1/2+y,1/2+z
1/4-x,3/4-y,1/2+z
x,3/4-y,3/4-z
1/4-x,1/2+y,3/4-z
-x,1/2-y,1/2-z
3/4+x,1/4+y,1/2-z
-x,1/4+y,1/4+z
3/4+x,1/2-y,1/4+z
1/2+x,y,1/2+z
3/4-x,1/4-y,1/2+z
1/2+x,1/4-y,3/4-z
3/4-x,y,3/4-z
1/2-x,-y,1/2-z
1/4+x,3/4+y,1/2-z
1/2-x,3/4+y,1/4+z
1/4+x,-y,1/4+z
1/2+x,1/2+y,z
3/4-x,3/4-y,z
1/2+x,3/4-y,1/4-z
3/4-x,1/2+y,1/4-z
1/2-x,1/2-y,-z
1/4+x,1/4+y,-z
1/2-x,1/4+y,3/4+z
1/4+x,1/2-y,3/4+z
loop_
_atom_site_type_symbol
_atom_site_label
_atom_site_fract_x
_atom_site_fract_y
_atom_site_fract_z
Si Si1 0.375000 0.232114 0.375000
Si Si2 0.721887 0.846187 0.105080
Si Si3 0.774065 0.820683 0.648608
Si Si4 0.272909 0.444005 0.863993
Si Si5 0.311361 0.475889 0.581493
O O1 0.298328 0.203950 0.410155
O O2 0.341481 0.258599 0.280649
O O3 0.625000 0.857333 0.125000
O O4 0.777051 0.884205 0.135461
O O5 0.741663 0.808059 0.175404
O O6 0.744821 0.831945 0.985947
O O7 0.747263 0.822843 0.771701
O O8 0.859579 0.795655 0.637216
O O9 0.375000 0.447246 0.875000
O O10 0.227639 0.486497 0.859276
#
# Coordination Sequence:
#
# PCOD9516293 Si02
#       5
#    16  32  32  32  32
#     4  10  24  44  63  94 128 186 226 270 333 408
#     4  12  25  42  67 104 141 171 224 286 346 405
#     4  11  23  45  66  95 137 180 220 284 342 404
#     4  11  24  42  72 103 134 173 228 282 349 406
#     4  11  24  41  71  93 134 177 230 276 333 412
#
# _framework density 21.127182000000001
#
# number of rings (size 3 to 8) (size 9 to 14) (size 15 to 20)
#    0.000    0.889    3.333    3.333    6.222    0.889 
#    0.000    2.222    0.000    0.000    0.000    0.000 
#    0.000    0.000    0.000    0.000    0.000    0.000 
#
# Total GULP energy -201082.809074 kJ/mol
# GULP energy per Si atom -5585.633585 kJ/mol
# Density = 2.107910 g / cm^3
# Si number density = 21.127182 Si / 1000 Ang^3
#
#
#
# Elastic Constant Matrix: (Units=GPa)
#
#
# Indices 1 2 3 4 5 6 
#
# 1 89.2151 9.6997 -5.1160 0.0000 0.0000 0.0000
# 2 9.6997 127.2454 17.1336 0.0000 0.0000 0.0000
# 3 -5.1160 17.1336 72.8039 0.0000 0.0000 0.0000
# 4 0.0000 0.0000 0.0000 11.5279 0.0000 0.0000
# 5 0.0000 0.0000 0.0000 0.0000 28.9514 0.0000
# 6 0.0000 0.0000 0.0000 0.0000 0.0000 -115.2387
#
#
#
# Elastic Compliance Matrix: (Units=1/GPa)
#
#
# Indices 1 2 3 4 5 6 
#
# 1 0.011378 -0.001007 0.001036 0.000000 0.000000 0.000000
# 2 -0.001007 0.008205 -0.002002 0.000000 0.000000 0.000000
# 3 0.001036 -0.002002 0.014279 0.000000 0.000000 0.000000
# 4 0.000000 0.000000 0.000000 0.086746 0.000000 0.000000
# 5 0.000000 0.000000 0.000000 0.000000 0.034541 0.000000
# 6 0.000000 0.000000 0.000000 0.000000 0.000000 -0.008678
#
#
# Mechanical properties :
#
#
# Convention : Reuss Voigt Hill
#
# Bulk Modulus (GPa) = 33.42461 36.96657 35.19559
# Shear Modulus (GPa) = 31.17425 2.88456 17.02941
#
# Velocity S-wave (km/s) = 3.84546 1.16974 2.84217
# Velocity P-wave (km/s) = 5.96421 4.39995 5.24077
#
# Compressibility (1/GPa) = 0.02991807
#
# Stress axis : x y z
#
# Youngs Moduli (GPa) = 87.89065 121.87514 70.03069
#
# Poissons Ratio (x) = 0.12271 -0.07259
# Poissons Ratio (y) = 0.08849 0.14018
# Poissons Ratio (z) = -0.09110 0.24396
#
# Static dielectric constant tensor:
#      x y z
#    x 1.796300 0.000000 0.000000 
#    y 0.000000 1.759130 0.000000 
#    z 0.000000 0.000000 1.767380 
# 
# From -- ./inp_files/26588.got.cif
#   From: 2010.05.17/outbox.cif.g08.bks.cpg/sg70_14_cif.got.tgz:26588.got - 2010.06.03 15:57:51.
