data_PCOD9516514
_publ_section_title
;
Structure prediction by ZEFSAII (Michael W. Deem and Ramdas Pophale) SiO2 
 PCOD9516514
Probable space group: F D D D
;
_chemical_formula_sum "Si O2"
_cell_formula_units_Z 128
_cell_length_a 18.695738
_cell_length_b 24.511620
_cell_length_c 12.543540
_cell_angle_alpha 90.000000
_cell_angle_beta 90.000000
_cell_angle_gamma 90.000000
_cell_volume 5748.238082
_symmetry_space_group_name_H-M "F D D D"
_symmetry_group_IT_number 70
_space_group.IT_coordinate_system_code '2'
_symmetry_cell_setting 'orthorhombic'
loop_
_space_group_symop_operation_xyz
x,y,z
1/4-x,1/4-y,z
x,1/4-y,1/4-z
1/4-x,y,1/4-z
-x,-y,-z
3/4+x,3/4+y,-z
-x,3/4+y,3/4+z
3/4+x,-y,3/4+z
x,1/2+y,1/2+z
1/4-x,3/4-y,1/2+z
x,3/4-y,3/4-z
1/4-x,1/2+y,3/4-z
-x,1/2-y,1/2-z
3/4+x,1/4+y,1/2-z
-x,1/4+y,1/4+z
3/4+x,1/2-y,1/4+z
1/2+x,y,1/2+z
3/4-x,1/4-y,1/2+z
1/2+x,1/4-y,3/4-z
3/4-x,y,3/4-z
1/2-x,-y,1/2-z
1/4+x,3/4+y,1/2-z
1/2-x,3/4+y,1/4+z
1/4+x,-y,1/4+z
1/2+x,1/2+y,z
3/4-x,3/4-y,z
1/2+x,3/4-y,1/4-z
3/4-x,1/2+y,1/4-z
1/2-x,1/2-y,-z
1/4+x,1/4+y,-z
1/2-x,1/4+y,3/4+z
1/4+x,1/2-y,3/4+z
loop_
_atom_site_type_symbol
_atom_site_label
_atom_site_fract_x
_atom_site_fract_y
_atom_site_fract_z
Si Si1 0.625000 0.625000 0.812573
Si Si2 0.508445 0.012688 0.873955
Si Si3 0.625000 0.051371 0.125000
Si Si4 0.390397 0.173322 0.041898
Si Si5 0.237429 0.358614 0.090007
O O1 0.658859 0.585511 0.722852
O O2 0.681127 0.657261 0.884456
O O3 0.438647 0.983052 0.825616
O O4 0.579032 0.980774 0.834225
O O5 0.497879 0.075467 0.839505
O O6 0.500000 0.000000 0.000000
O O7 0.404041 0.125000 0.125000
O O8 0.307203 0.167363 0.006852
O O9 0.439327 0.157502 0.941015
#
# Coordination Sequence:
#
# PCOD9516514 Si02
#       5
#    16  32  16  32  32
#     4  11  20  38  59  94 132 174 221 290 349 402
#     4  12  22  37  68 104 128 179 237 293 371 431
#     4  11  20  34  62  96 130 156 226 308 340 397
#     4  11  22  42  65 101 139 179 232 299 364 432
#     4  11  24  40  67  93 142 180 226 301 363 419
#
# _framework density 22.267693000000001
#
# number of rings (size 3 to 8) (size 9 to 14) (size 15 to 20)
#    0.000    0.750    7.500    1.500    0.000    0.000 
#    0.000    1.875    5.500    0.000    0.000    0.000 
#    0.000    0.000    0.000    0.000    0.000    0.000 
#
# Total GULP energy -178270.644153 kJ/mol
# GULP energy per Si atom -5570.957630 kJ/mol
# Density = 2.221701 g / cm^3
# Si number density = 22.267693 Si / 1000 Ang^3
#
#
#
# Elastic Constant Matrix: (Units=GPa)
#
#
# Indices 1 2 3 4 5 6 
#
# 1 122.6249 33.2683 34.4871 0.0000 0.0000 0.0000
# 2 33.2683 108.3242 25.3346 0.0000 0.0000 0.0000
# 3 34.4871 25.3346 56.9142 0.0000 0.0000 0.0000
# 4 0.0000 0.0000 0.0000 21.3339 0.0000 0.0000
# 5 0.0000 0.0000 0.0000 0.0000 37.6269 0.0000
# 6 0.0000 0.0000 0.0000 0.0000 0.0000 38.8182
#
#
#
# Elastic Compliance Matrix: (Units=1/GPa)
#
#
# Indices 1 2 3 4 5 6 
#
# 1 0.010161 -0.001876 -0.005322 0.000000 0.000000 0.000000
# 2 -0.001876 0.010651 -0.003604 0.000000 0.000000 0.000000
# 3 -0.005322 -0.003604 0.022399 0.000000 0.000000 0.000000
# 4 0.000000 0.000000 0.000000 0.046874 0.000000 0.000000
# 5 0.000000 0.000000 0.000000 0.000000 0.026577 0.000000
# 6 0.000000 0.000000 0.000000 0.000000 0.000000 0.025761
#
#
# Mechanical properties :
#
#
# Convention : Reuss Voigt Hill
#
# Bulk Modulus (GPa) = 46.28184 52.67149 49.47666
# Shear Modulus (GPa) = 29.20075 32.54067 30.87071
#
# Velocity S-wave (km/s) = 3.62519 3.82689 3.72741
# Velocity P-wave (km/s) = 6.19290 6.57510 6.38686
#
# Compressibility (1/GPa) = 0.02160675
#
# Stress axis : x y z
#
# Youngs Moduli (GPa) = 98.41971 93.89125 44.64397
#
# Poissons Ratio (x) = 0.17613 0.23759
# Poissons Ratio (y) = 0.18462 0.16091
# Poissons Ratio (z) = 0.52377 0.33841
#
# Static dielectric constant tensor:
#      x y z
#    x 1.989080 0.000000 0.000000 
#    y 0.000000 2.261600 0.000000 
#    z 0.000000 0.000000 1.992180 
# 
# From -- ./inp_files/27727.got.cif
#   From: 2010.05.17/outbox.cif.g08.bks.cpg/sg70_14_cif.got.tgz:27727.got - 2010.06.03 15:57:51.
