data_PCOD9516161
_publ_section_title
;
Structure prediction by ZEFSAII (Michael W. Deem and Ramdas Pophale) SiO2 
 PCOD9516161
Probable space group: F D D D
;
_chemical_formula_sum "Si O2"
_cell_formula_units_Z 192
_cell_length_a 29.589966
_cell_length_b 9.912468
_cell_length_c 25.108779
_cell_angle_alpha 90.000000
_cell_angle_beta 90.000000
_cell_angle_gamma 90.000000
_cell_volume 7364.645701
_symmetry_space_group_name_H-M "F D D D"
_symmetry_group_IT_number 70
_space_group.IT_coordinate_system_code '2'
_symmetry_cell_setting 'orthorhombic'
loop_
_space_group_symop_operation_xyz
x,y,z
1/4-x,1/4-y,z
x,1/4-y,1/4-z
1/4-x,y,1/4-z
-x,-y,-z
3/4+x,3/4+y,-z
-x,3/4+y,3/4+z
3/4+x,-y,3/4+z
x,1/2+y,1/2+z
1/4-x,3/4-y,1/2+z
x,3/4-y,3/4-z
1/4-x,1/2+y,3/4-z
-x,1/2-y,1/2-z
3/4+x,1/4+y,1/2-z
-x,1/4+y,1/4+z
3/4+x,1/2-y,1/4+z
1/2+x,y,1/2+z
3/4-x,1/4-y,1/2+z
1/2+x,1/4-y,3/4-z
3/4-x,y,3/4-z
1/2-x,-y,1/2-z
1/4+x,3/4+y,1/2-z
1/2-x,3/4+y,1/4+z
1/4+x,-y,1/4+z
1/2+x,1/2+y,z
3/4-x,3/4-y,z
1/2+x,3/4-y,1/4-z
3/4-x,1/2+y,1/4-z
1/2-x,1/2-y,-z
1/4+x,1/4+y,-z
1/2-x,1/4+y,3/4+z
1/4+x,1/2-y,3/4+z
loop_
_atom_site_type_symbol
_atom_site_label
_atom_site_fract_x
_atom_site_fract_y
_atom_site_fract_z
Si Si1 0.826233 0.143464 0.352656
Si Si2 0.079881 0.166226 0.917604
Si Si3 0.439241 0.601402 0.024282
Si Si4 0.000000 0.500000 0.000000
Si Si5 0.592109 0.435940 0.480646
Si Si6 0.995982 0.375000 0.375000
Si Si7 0.233367 0.766836 0.177559
O O1 0.875000 0.181919 0.375000
O O2 0.827573 0.114959 0.290031
O O3 0.789071 0.254967 0.364381
O O4 0.807515 0.017142 0.386054
O O5 0.125000 0.125000 0.884859
O O6 0.028750 0.180292 0.898417
O O7 0.077489 0.053211 0.965127
O O8 0.088835 0.314667 0.939079
O O9 0.470251 0.627079 0.075066
O O10 0.396084 0.701586 0.017722
O O11 0.468793 0.623263 0.971941
O O12 0.050293 0.534945 0.971913
O O13 0.006178 0.630556 0.040538
#
# Coordination Sequence:
#
# PCOD9516161 Si02
#       7
#    32  32  32  16  32  16  32
#     4  12  25  41  67 113 146 193 248 308 391 480
#     4   9  19  37  66  94 134 184 231 300 376 446
#     4  11  22  41  66 100 142 192 244 312 388 458
#     4  10  24  46  68  92 132 194 242 308 364 450
#     4  10  23  43  69  99 141 189 251 298 381 459
#     4  12  25  38  72 110 158 186 252 321 396 474
#     4  11  22  41  68  97 144 191 242 304 379 454
#
# _framework density 26.070499999999999
#
# number of rings (size 3 to 8) (size 9 to 14) (size 15 to 20)
#    0.000    1.333    3.333    2.750    2.333    2.667 
#    0.000    5.833    3.667    0.000    0.000    0.000 
#    0.000    0.000    0.000    0.000    0.000    0.000 
#
# Total GULP energy -267232.893112 kJ/mol
# GULP energy per Si atom -5567.351940 kJ/mol
# Density = 2.601116 g / cm^3
# Si number density = 26.070500 Si / 1000 Ang^3
#
#
#
# Elastic Constant Matrix: (Units=GPa)
#
#
# Indices 1 2 3 4 5 6 
#
# 1 211.9478 34.4228 39.6723 0.0000 0.0000 0.0000
# 2 34.4228 74.8473 7.9199 0.0000 0.0000 0.0001
# 3 39.6723 7.9199 117.1112 0.0000 0.0000 0.0000
# 4 0.0000 0.0000 0.0000 76.9999 0.0000 -0.0001
# 5 0.0000 0.0000 0.0000 0.0000 29.1273 0.0000
# 6 0.0000 0.0001 0.0000 -0.0001 0.0000 263.5977
#
#
#
# Elastic Compliance Matrix: (Units=1/GPa)
#
#
# Indices 1 2 3 4 5 6 
#
# 1 0.005407 -0.002309 -0.001675 0.000000 0.000000 0.000000
# 2 -0.002309 0.014443 -0.000194 0.000000 0.000000 0.000000
# 3 -0.001675 -0.000194 0.009120 0.000000 0.000000 0.000000
# 4 0.000000 0.000000 0.000000 0.012987 0.000000 0.000000
# 5 0.000000 0.000000 0.000000 0.000000 0.034332 0.000000
# 6 0.000000 0.000000 0.000000 0.000000 0.000000 0.003794
#
#
# Mechanical properties :
#
#
# Convention : Reuss Voigt Hill
#
# Bulk Modulus (GPa) = 48.51737 63.10404 55.81071
# Shear Modulus (GPa) = 52.45977 95.40442 73.93209
#
# Velocity S-wave (km/s) = 4.49065 6.05592 5.33105
# Velocity P-wave (km/s) = 6.74822 8.55317 7.70374
#
# Compressibility (1/GPa) = 0.02061117
#
# Stress axis : x y z
#
# Youngs Moduli (GPa) = 184.95179 69.23680 109.65391
#
# Poissons Ratio (x) = 0.15989 0.18372
# Poissons Ratio (y) = 0.42712 0.02132
# Poissons Ratio (z) = 0.30987 0.01346
#
# Static dielectric constant tensor:
#      x y z
#    x 2.100780 0.000000 0.000000 
#    y 0.000000 2.240970 0.000000 
#    z 0.000000 0.000000 1.943410 
# 
# From -- ./inp_files/68998.got.cif
#   From: 2010.05.17/outbox.cif.g08.bks.cpg/sg70_35_cif.got.tgz:68998.got - 2010.06.03 15:57:51.
