data_PCOD9516801
_publ_section_title
;
Structure prediction by ZEFSAII (Michael W. Deem and Ramdas Pophale) SiO2 
 PCOD9516801
Probable space group: F D D D
;
_chemical_formula_sum "Si O2"
_cell_formula_units_Z 176
_cell_length_a 23.026455
_cell_length_b 11.886491
_cell_length_c 29.953904
_cell_angle_alpha 90.000000
_cell_angle_beta 90.000000
_cell_angle_gamma 90.000000
_cell_volume 8198.495856
_symmetry_space_group_name_H-M "F D D D"
_symmetry_group_IT_number 70
_space_group.IT_coordinate_system_code '2'
_symmetry_cell_setting 'orthorhombic'
loop_
_space_group_symop_operation_xyz
x,y,z
1/4-x,1/4-y,z
x,1/4-y,1/4-z
1/4-x,y,1/4-z
-x,-y,-z
3/4+x,3/4+y,-z
-x,3/4+y,3/4+z
3/4+x,-y,3/4+z
x,1/2+y,1/2+z
1/4-x,3/4-y,1/2+z
x,3/4-y,3/4-z
1/4-x,1/2+y,3/4-z
-x,1/2-y,1/2-z
3/4+x,1/4+y,1/2-z
-x,1/4+y,1/4+z
3/4+x,1/2-y,1/4+z
1/2+x,y,1/2+z
3/4-x,1/4-y,1/2+z
1/2+x,1/4-y,3/4-z
3/4-x,y,3/4-z
1/2-x,-y,1/2-z
1/4+x,3/4+y,1/2-z
1/2-x,3/4+y,1/4+z
1/4+x,-y,1/4+z
1/2+x,1/2+y,z
3/4-x,3/4-y,z
1/2+x,3/4-y,1/4-z
3/4-x,1/2+y,1/4-z
1/2-x,1/2-y,-z
1/4+x,1/4+y,-z
1/2-x,1/4+y,3/4+z
1/4+x,1/2-y,3/4+z
loop_
_atom_site_type_symbol
_atom_site_label
_atom_site_fract_x
_atom_site_fract_y
_atom_site_fract_z
Si Si1 0.035922 0.427281 0.626463
Si Si2 0.625000 0.125000 0.199434
Si Si3 0.406136 0.496888 0.140492
Si Si4 0.258733 0.931860 0.834087
Si Si5 0.126810 0.494585 0.700394
Si Si6 0.400000 0.561302 0.520268
O O1 0.028272 0.302504 0.647282
O O2 0.074856 0.483943 0.664580
O O3 0.068825 0.445822 0.579051
O O4 0.972098 0.478545 0.625731
O O5 0.684401 0.145938 0.173355
O O6 0.603395 0.226710 0.229269
O O7 0.391323 0.625000 0.125000
O O8 0.375000 0.375000 0.128310
O O9 0.394430 0.511684 0.193343
O O10 0.225614 0.875000 0.875000
O O11 0.213443 0.937223 0.793388
O O12 0.125000 0.625000 0.711778
O O13 0.117121 0.427054 0.746340
#
# Coordination Sequence:
#
# PCOD9516801 Si02
#       6
#    32  16  32  32  32  32
#     4  11  23  48  73 101 145 193 252 301 375 446
#     4  12  23  42  70 106 140 188 242 306 370 429
#     4  12  26  47  73 106 148 203 248 309 382 454
#     4  12  25  42  72 108 147 191 247 310 368 459
#     4  11  25  46  72 105 142 194 245 306 363 448
#     4  12  25  44  70 105 147 189 241 307 382 427
#
# _framework density 21.467352000000002
#
# number of rings (size 3 to 8) (size 9 to 14) (size 15 to 20)
#    0.000    0.364    4.545    4.636    5.091    0.727 
#    0.000    1.818    0.000    0.000    0.000    0.000 
#    0.000    0.000    0.000    0.000    0.000    0.000 
#
# Total GULP energy -245249.428214 kJ/mol
# GULP energy per Si atom -5573.850641 kJ/mol
# Density = 2.141849 g / cm^3
# Si number density = 21.467352 Si / 1000 Ang^3
#
#
#
# Elastic Constant Matrix: (Units=GPa)
#
#
# Indices 1 2 3 4 5 6 
#
# 1 178.0120 54.7681 49.9166 0.0000 0.0000 0.0000
# 2 54.7681 161.7731 59.1301 0.0000 0.0000 -0.0004
# 3 49.9166 59.1301 84.0212 0.0000 0.0000 0.0000
# 4 0.0000 0.0000 0.0000 -34.4783 0.0000 0.0001
# 5 0.0000 0.0000 0.0000 0.0000 41.7567 0.0000
# 6 0.0000 -0.0004 0.0000 0.0001 0.0000**********
#
#
#
# Elastic Compliance Matrix: (Units=1/GPa)
#
#
# Indices 1 2 3 4 5 6 
#
# 1 0.006890 -0.001126 -0.003301 0.000000 0.000000 0.000000
# 2 -0.001126 0.008506 -0.005317 0.000000 0.000000 0.000000
# 3 -0.003301 -0.005317 0.017605 0.000000 0.000000 0.000000
# 4 0.000000 0.000000 0.000000 -0.029004 0.000000 0.000000
# 5 0.000000 0.000000 0.000000 0.000000 0.023948 0.000000
# 6 0.000000 0.000000 0.000000 0.000000 0.000000 -0.000034
#
#
# Mechanical properties :
#
#
# Convention : Reuss Voigt Hill
#
# Bulk Modulus (GPa) = 74.00501 83.49289 78.74895
# Shear Modulus (GPa) = 96.33394 -5791.41064 -2847.53835
#
# Velocity S-wave (km/s) = 6.70612 -51.99647 -36.45998
# Velocity P-wave (km/s) = 9.72167 59.71487 41.66146
#
# Compressibility (1/GPa) = 0.01351260
#
# Stress axis : x y z
#
# Youngs Moduli (GPa) = 145.14690 117.56041 56.80295
#
# Poissons Ratio (x) = 0.13238 0.18748
# Poissons Ratio (y) = 0.16344 0.30204
# Poissons Ratio (z) = 0.47907 0.62511
#
# Static dielectric constant tensor:
#      x y z
#    x 1.810400 0.000000 0.000000 
#    y 0.000000 1.746210 0.000000 
#    z 0.000000 0.000000 2.237800 
# 
# From -- ./inp_files/67788.got.cif
#   From: 2010.05.17/outbox.cif.g08.bks.cpg/sg70_34_cif.got.tgz:67788.got - 2010.06.03 15:57:51.
