data_PCOD9516099
_publ_section_title
;
Structure prediction by ZEFSAII (Michael W. Deem and Ramdas Pophale) SiO2 
 PCOD9516099
Probable space group: F D D D
;
_chemical_formula_sum "Si O2"
_cell_formula_units_Z 160
_cell_length_a 25.342466
_cell_length_b 23.799728
_cell_length_c 11.678866
_cell_angle_alpha 90.000000
_cell_angle_beta 90.000000
_cell_angle_gamma 90.000000
_cell_volume 7044.035591
_symmetry_space_group_name_H-M "F D D D"
_symmetry_group_IT_number 70
_space_group.IT_coordinate_system_code '2'
_symmetry_cell_setting 'orthorhombic'
loop_
_space_group_symop_operation_xyz
x,y,z
1/4-x,1/4-y,z
x,1/4-y,1/4-z
1/4-x,y,1/4-z
-x,-y,-z
3/4+x,3/4+y,-z
-x,3/4+y,3/4+z
3/4+x,-y,3/4+z
x,1/2+y,1/2+z
1/4-x,3/4-y,1/2+z
x,3/4-y,3/4-z
1/4-x,1/2+y,3/4-z
-x,1/2-y,1/2-z
3/4+x,1/4+y,1/2-z
-x,1/4+y,1/4+z
3/4+x,1/2-y,1/4+z
1/2+x,y,1/2+z
3/4-x,1/4-y,1/2+z
1/2+x,1/4-y,3/4-z
3/4-x,y,3/4-z
1/2-x,-y,1/2-z
1/4+x,3/4+y,1/2-z
1/2-x,3/4+y,1/4+z
1/4+x,-y,1/4+z
1/2+x,1/2+y,z
3/4-x,3/4-y,z
1/2+x,3/4-y,1/4-z
3/4-x,1/2+y,1/4-z
1/2-x,1/2-y,-z
1/4+x,1/4+y,-z
1/2-x,1/4+y,3/4+z
1/4+x,1/2-y,3/4+z
loop_
_atom_site_type_symbol
_atom_site_label
_atom_site_fract_x
_atom_site_fract_y
_atom_site_fract_z
Si Si1 0.819440 0.937976 0.415025
Si Si2 0.798974 0.523523 0.321758
Si Si3 0.523256 0.737815 0.918337
Si Si4 0.927273 0.594353 0.796815
Si Si5 0.609747 0.503501 0.867835
O O1 0.820765 0.875000 0.375000
O O2 0.875000 0.965362 0.375000
O O3 0.764899 0.963341 0.372456
O O4 0.825083 0.950250 0.550251
O O5 0.750000 0.500000 0.250000
O O6 0.788990 0.505514 0.451915
O O7 0.807700 0.590042 0.302475
O O8 0.847373 0.496273 0.252016
O O9 0.482091 0.686328 0.918294
O O10 0.578402 0.733751 0.853258
O O11 0.875000 0.590085 0.875000
O O12 0.908504 0.557034 0.685750
#
# Coordination Sequence:
#
# PCOD9516099 Si02
#       5
#    32  32  32  32  32
#     4  10  23  41  64  96 138 179 225 282 344 412
#     4  12  24  45  71 102 142 186 237 296 362 421
#     4  11  24  43  72 105 139 185 236 289 352 433
#     4  11  25  43  70 106 142 189 236 298 356 427
#     4  11  23  44  68 103 142 180 234 295 351 428
#
# _framework density 22.714252999999999
#
# number of rings (size 3 to 8) (size 9 to 14) (size 15 to 20)
#    0.000    1.000    4.000    4.800    0.000    9.600 
#    0.000    0.000    0.000    4.800    0.000    0.000 
#    0.000    0.000    0.000    0.000    0.000    0.000 
#
# Total GULP energy -223101.046581 kJ/mol
# GULP energy per Si atom -5577.526165 kJ/mol
# Density = 2.266255 g / cm^3
# Si number density = 22.714253 Si / 1000 Ang^3
#
#
#
# Elastic Constant Matrix: (Units=GPa)
#
#
# Indices 1 2 3 4 5 6 
#
# 1 193.7853 43.5125 23.9127 0.0000 0.0000 0.0000
# 2 43.5125 130.9715 39.6647 0.0000 0.0000 0.0000
# 3 23.9127 39.6647 98.8946 -0.0001 0.0000 0.0001
# 4 0.0000 0.0000 -0.0001 5.9567 0.0000 0.0000
# 5 0.0000 0.0000 0.0000 0.0000 46.1525 0.0000
# 6 0.0000 0.0000 0.0001 0.0000 0.0000 4.7485
#
#
#
# Elastic Compliance Matrix: (Units=1/GPa)
#
#
# Indices 1 2 3 4 5 6 
#
# 1 0.005618 -0.001656 -0.000694 0.000000 0.000000 0.000000
# 2 -0.001656 0.009179 -0.003281 0.000000 0.000000 0.000000
# 3 -0.000694 -0.003281 0.011596 0.000000 0.000000 0.000000
# 4 0.000000 0.000000 0.000000 0.167879 0.000000 -0.000002
# 5 0.000000 0.000000 0.000000 0.000000 0.021667 0.000000
# 6 0.000000 0.000000 0.000000 -0.000002 0.000000 0.210591
#
#
# Mechanical properties :
#
#
# Convention : Reuss Voigt Hill
#
# Bulk Modulus (GPa) = 66.09490 70.87013 68.48251
# Shear Modulus (GPa) = 11.29086 32.47565 21.88326
#
# Velocity S-wave (km/s) = 2.23195 3.78530 3.10726
# Velocity P-wave (km/s) = 5.98362 7.09740 6.56418
#
# Compressibility (1/GPa) = 0.01512976
#
# Stress axis : x y z
#
# Youngs Moduli (GPa) = 178.00281 108.94226 86.23955
#
# Poissons Ratio (x) = 0.18043 0.05986
# Poissons Ratio (y) = 0.29481 0.28296
# Poissons Ratio (z) = 0.12356 0.35745
#
# Static dielectric constant tensor:
#      x y z
#    x 1.877600 0.000000 0.000000 
#    y 0.000000 1.837530 0.000000 
#    z 0.000000 0.000000 1.957530 
# 
# From -- ./inp_files/20842.got.cif
#   From: 2010.05.17/outbox.cif.g08.bks.cpg/sg70_11_cif.got.tgz:20842.got - 2010.06.03 15:57:51.
