data_PCOD9516380
_publ_section_title
;
Structure prediction by ZEFSAII (Michael W. Deem and Ramdas Pophale) SiO2 
 PCOD9516380
Probable space group: F D D D
;
_chemical_formula_sum "Si O2"
_cell_formula_units_Z 144
_cell_length_a 15.993408
_cell_length_b 19.420143
_cell_length_c 20.133056
_cell_angle_alpha 90.000000
_cell_angle_beta 90.000000
_cell_angle_gamma 90.000000
_cell_volume 6253.211840
_symmetry_space_group_name_H-M "F D D D"
_symmetry_group_IT_number 70
_space_group.IT_coordinate_system_code '2'
_symmetry_cell_setting 'orthorhombic'
loop_
_space_group_symop_operation_xyz
x,y,z
1/4-x,1/4-y,z
x,1/4-y,1/4-z
1/4-x,y,1/4-z
-x,-y,-z
3/4+x,3/4+y,-z
-x,3/4+y,3/4+z
3/4+x,-y,3/4+z
x,1/2+y,1/2+z
1/4-x,3/4-y,1/2+z
x,3/4-y,3/4-z
1/4-x,1/2+y,3/4-z
-x,1/2-y,1/2-z
3/4+x,1/4+y,1/2-z
-x,1/4+y,1/4+z
3/4+x,1/2-y,1/4+z
1/2+x,y,1/2+z
3/4-x,1/4-y,1/2+z
1/2+x,1/4-y,3/4-z
3/4-x,y,3/4-z
1/2-x,-y,1/2-z
1/4+x,3/4+y,1/2-z
1/2-x,3/4+y,1/4+z
1/4+x,-y,1/4+z
1/2+x,1/2+y,z
3/4-x,3/4-y,z
1/2+x,3/4-y,1/4-z
3/4-x,1/2+y,1/4-z
1/2-x,1/2-y,-z
1/4+x,1/4+y,-z
1/2-x,1/4+y,3/4+z
1/4+x,1/2-y,3/4+z
loop_
_atom_site_type_symbol
_atom_site_label
_atom_site_fract_x
_atom_site_fract_y
_atom_site_fract_z
Si Si1 0.125000 0.457536 0.125000
Si Si2 0.098654 0.375000 0.375000
Si Si3 0.764396 0.705510 0.700591
Si Si4 0.875000 0.375000 0.141376
Si Si5 0.763492 0.926893 0.215773
Si Si6 0.708608 0.155436 0.731662
O O1 0.190183 0.506533 0.087753
O O2 0.177577 0.413243 0.176391
O O3 0.160893 0.316859 0.347635
O O4 0.039006 0.393681 0.313197
O O5 0.728820 0.636336 0.734006
O O6 0.796837 0.763568 0.751686
O O7 0.837788 0.321198 0.088352
O O8 0.799341 0.382580 0.195209
O O9 0.750000 0.000000 0.250000
O O10 0.625000 0.125000 0.698687
#
# Coordination Sequence:
#
# PCOD9516380 Si02
#       6
#    16  16  32  16  32  32
#     4  12  24  51  66 114 149 190 260 302 393 456
#     4  12  27  49  72 116 150 198 272 309 403 470
#     4  12  27  43  79 107 152 203 248 325 385 474
#     4  10  24  49  74 107 146 200 252 316 392 458
#     4  12  26  45  75 108 155 199 251 321 385 470
#     4  10  25  50  73 107 151 201 257 330 381 469
#
# _framework density 23.028165999999999
#
# number of rings (size 3 to 8) (size 9 to 14) (size 15 to 20)
#    0.667    0.000    2.222    4.333    3.111    4.000 
#    4.000    0.000    0.000    0.000    0.000    0.000 
#    0.000    0.000    0.000    0.000    0.000    0.000 
#
# Total GULP energy -200958.714409 kJ/mol
# GULP energy per Si atom -5582.186511 kJ/mol
# Density = 2.297575 g / cm^3
# Si number density = 23.028166 Si / 1000 Ang^3
#
#
#
# Elastic Constant Matrix: (Units=GPa)
#
#
# Indices 1 2 3 4 5 6 
#
# 1 83.5593 35.6101 40.2512 0.0000 0.0000 0.0000
# 2 35.6101 111.4438 39.6799 0.0000 0.0000 0.0000
# 3 40.2512 39.6799 117.0969 0.0000 0.0000 0.0000
# 4 0.0000 0.0000 0.0000 5.1201 0.0000 0.0000
# 5 0.0000 0.0000 0.0000 0.0000 66.7215 0.0000
# 6 0.0000 0.0000 0.0000 0.0000 0.0000 39.7144
#
#
#
# Elastic Compliance Matrix: (Units=1/GPa)
#
#
# Indices 1 2 3 4 5 6 
#
# 1 0.015433 -0.003460 -0.004132 0.000000 0.000000 0.000000
# 2 -0.003460 0.010980 -0.002531 0.000000 0.000000 0.000000
# 3 -0.004132 -0.002531 0.010818 0.000000 0.000000 0.000000
# 4 0.000000 0.000000 0.000000 0.195307 0.000000 0.000000
# 5 0.000000 0.000000 0.000000 0.000000 0.014988 0.000000
# 6 0.000000 0.000000 0.000000 0.000000 0.000000 0.025180
#
#
# Mechanical properties :
#
#
# Convention : Reuss Voigt Hill
#
# Bulk Modulus (GPa) = 58.88096 60.35361 59.61729
# Shear Modulus (GPa) = 16.74400 35.41513 26.07957
#
# Velocity S-wave (km/s) = 2.69942 3.92587 3.36893
# Velocity P-wave (km/s) = 5.94478 6.84218 6.40921
#
# Compressibility (1/GPa) = 0.01698342
#
# Stress axis : x y z
#
# Youngs Moduli (GPa) = 64.79758 91.07462 92.43660
#
# Poissons Ratio (x) = 0.31511 0.38199
# Poissons Ratio (y) = 0.22419 0.23399
# Poissons Ratio (z) = 0.26777 0.23055
#
# Static dielectric constant tensor:
#      x y z
#    x 1.914190 0.000000 0.000000 
#    y 0.000000 1.844930 0.000000 
#    z 0.000000 0.000000 1.957220 
# 
# From -- ./inp_files/43619.got.cif
#   From: 2010.05.17/outbox.cif.g08.bks.cpg/sg70_22_cif.got.tgz:43619.got - 2010.06.03 15:57:51.
