data_PCOD9516623
_publ_section_title
;
Structure prediction by ZEFSAII (Michael W. Deem and Ramdas Pophale) SiO2 
 PCOD9516623
Probable space group: F D D D
;
_chemical_formula_sum "Si O2"
_cell_formula_units_Z 160
_cell_length_a 23.007445
_cell_length_b 14.347475
_cell_length_c 23.397743
_cell_angle_alpha 90.000000
_cell_angle_beta 90.000000
_cell_angle_gamma 90.000000
_cell_volume 7723.565529
_symmetry_space_group_name_H-M "F D D D"
_symmetry_group_IT_number 70
_space_group.IT_coordinate_system_code '2'
_symmetry_cell_setting 'orthorhombic'
loop_
_space_group_symop_operation_xyz
x,y,z
1/4-x,1/4-y,z
x,1/4-y,1/4-z
1/4-x,y,1/4-z
-x,-y,-z
3/4+x,3/4+y,-z
-x,3/4+y,3/4+z
3/4+x,-y,3/4+z
x,1/2+y,1/2+z
1/4-x,3/4-y,1/2+z
x,3/4-y,3/4-z
1/4-x,1/2+y,3/4-z
-x,1/2-y,1/2-z
3/4+x,1/4+y,1/2-z
-x,1/4+y,1/4+z
3/4+x,1/2-y,1/4+z
1/2+x,y,1/2+z
3/4-x,1/4-y,1/2+z
1/2+x,1/4-y,3/4-z
3/4-x,y,3/4-z
1/2-x,-y,1/2-z
1/4+x,3/4+y,1/2-z
1/2-x,3/4+y,1/4+z
1/4+x,-y,1/4+z
1/2+x,1/2+y,z
3/4-x,3/4-y,z
1/2+x,3/4-y,1/4-z
3/4-x,1/2+y,1/4-z
1/2-x,1/2-y,-z
1/4+x,1/4+y,-z
1/2-x,1/4+y,3/4+z
1/4+x,1/2-y,3/4+z
loop_
_atom_site_type_symbol
_atom_site_label
_atom_site_fract_x
_atom_site_fract_y
_atom_site_fract_z
Si Si1 0.309840 0.484935 0.891285
Si Si2 0.037159 0.039423 0.946497
Si Si3 0.958342 0.137977 0.496269
Si Si4 0.080895 0.204638 0.781284
Si Si5 0.915040 0.259376 0.583447
O O1 0.306591 0.375000 0.875000
O O2 0.375000 0.514501 0.875000
O O3 0.257036 0.528759 0.855971
O O4 0.303511 0.524692 0.955043
O O5 0.059508 0.145947 0.944856
O O6 0.099100 0.987742 0.937922
O O7 0.000000 0.000000 0.000000
O O8 0.955870 0.177915 0.560274
O O9 0.018288 0.091083 0.478715
O O10 0.913832 0.050992 0.496500
O O11 0.125000 0.125000 0.763849
O O12 0.087877 0.225682 0.848821
#
# Coordination Sequence:
#
# PCOD9516623 Si02
#       5
#    32  32  32  32  32
#     4  11  23  41  63  99 145 178 228 294 361 426
#     4  11  22  39  67 100 137 177 229 289 362 428
#     4  11  24  40  69  96 132 179 232 291 343 420
#     4  11  23  46  66  96 134 182 236 286 350 434
#     4  11  22  43  67  97 137 180 235 288 355 434
#
# _framework density 20.715820999999998
#
# number of rings (size 3 to 8) (size 9 to 14) (size 15 to 20)
#    0.000    1.000    4.000    3.000    0.000    9.600 
#    0.000    0.000    0.000    0.000    0.000    0.000 
#    0.000    0.000    0.000    0.000    0.000    0.000 
#
# Total GULP energy -223021.694233 kJ/mol
# GULP energy per Si atom -5575.542356 kJ/mol
# Density = 2.066867 g / cm^3
# Si number density = 20.715821 Si / 1000 Ang^3
#
#
#
# Elastic Constant Matrix: (Units=GPa)
#
#
# Indices 1 2 3 4 5 6 
#
# 1 111.3142 32.0550 52.4705 0.0000 0.0000 0.0000
# 2 32.0550 96.6665 35.4994 0.0000 0.0000 0.0000
# 3 52.4705 35.4994 76.9601 0.0000 0.0000 0.0000
# 4 0.0000 0.0000 0.0000 -7.2370 0.0000 0.0000
# 5 0.0000 0.0000 0.0000 0.0000 27.7044 0.0000
# 6 0.0000 0.0000 0.0000 0.0000 0.0000 30.5606
#
#
#
# Elastic Compliance Matrix: (Units=1/GPa)
#
#
# Indices 1 2 3 4 5 6 
#
# 1 0.013374 -0.001308 -0.008515 0.000000 0.000000 0.000000
# 2 -0.001308 0.012582 -0.004912 0.000000 0.000000 0.000000
# 3 -0.008515 -0.004912 0.021065 0.000000 0.000000 0.000000
# 4 0.000000 0.000000 0.000000 -0.138178 0.000000 0.000000
# 5 0.000000 0.000000 0.000000 0.000000 0.036095 0.000000
# 6 0.000000 0.000000 0.000000 0.000000 0.000000 0.032722
#
#
# Mechanical properties :
#
#
# Convention : Reuss Voigt Hill
#
# Bulk Modulus (GPa) = 56.97562 58.33229 57.65396
# Shear Modulus (GPa) = 385.18529 21.19999 203.19264
#
# Velocity S-wave (km/s) = 13.65069 3.20249 9.91457
# Velocity P-wave (km/s) = 16.61380 6.47256 12.60778
#
# Compressibility (1/GPa) = 0.01755137
#
# Stress axis : x y z
#
# Youngs Moduli (GPa) = 74.77262 79.47555 47.47227
#
# Poissons Ratio (x) = 0.10394 0.40422
# Poissons Ratio (y) = 0.09779 0.23319
# Poissons Ratio (z) = 0.63668 0.39040
#
# Static dielectric constant tensor:
#      x y z
#    x 1.741240 0.000000 0.000000 
#    y 0.000000 1.826950 0.000000 
#    z 0.000000 0.000000 1.771450 
# 
# From -- ./inp_files/51133.got.cif
#   From: 2010.05.17/outbox.cif.g08.bks.cpg/sg70_26_cif.got.tgz:51133.got - 2010.06.03 15:57:51.
