data_PCOD9516356
_publ_section_title
;
Structure prediction by ZEFSAII (Michael W. Deem and Ramdas Pophale) SiO2 
 PCOD9516356
Probable space group: F D D D
;
_chemical_formula_sum "Si O2"
_cell_formula_units_Z 88
_cell_length_a 6.878103
_cell_length_b 24.116608
_cell_length_c 22.061386
_cell_angle_alpha 90.000000
_cell_angle_beta 90.000000
_cell_angle_gamma 90.000000
_cell_volume 3659.465800
_symmetry_space_group_name_H-M "F D D D"
_symmetry_group_IT_number 70
_space_group.IT_coordinate_system_code '2'
_symmetry_cell_setting 'orthorhombic'
loop_
_space_group_symop_operation_xyz
x,y,z
1/4-x,1/4-y,z
x,1/4-y,1/4-z
1/4-x,y,1/4-z
-x,-y,-z
3/4+x,3/4+y,-z
-x,3/4+y,3/4+z
3/4+x,-y,3/4+z
x,1/2+y,1/2+z
1/4-x,3/4-y,1/2+z
x,3/4-y,3/4-z
1/4-x,1/2+y,3/4-z
-x,1/2-y,1/2-z
3/4+x,1/4+y,1/2-z
-x,1/4+y,1/4+z
3/4+x,1/2-y,1/4+z
1/2+x,y,1/2+z
3/4-x,1/4-y,1/2+z
1/2+x,1/4-y,3/4-z
3/4-x,y,3/4-z
1/2-x,-y,1/2-z
1/4+x,3/4+y,1/2-z
1/2-x,3/4+y,1/4+z
1/4+x,-y,1/4+z
1/2+x,1/2+y,z
3/4-x,3/4-y,z
1/2+x,3/4-y,1/4-z
3/4-x,1/2+y,1/4-z
1/2-x,1/2-y,-z
1/4+x,1/4+y,-z
1/2-x,1/4+y,3/4+z
1/4+x,1/2-y,3/4+z
loop_
_atom_site_type_symbol
_atom_site_label
_atom_site_fract_x
_atom_site_fract_y
_atom_site_fract_z
Si Si1 0.461951 0.552599 0.178321
Si Si2 0.151206 0.567182 0.351361
Si Si3 0.375000 0.875000 0.875000
Si Si4 0.875000 0.375000 0.214651
O O1 0.625000 0.559517 0.125000
O O2 0.414901 0.487642 0.181833
O O3 0.267511 0.584616 0.160677
O O4 0.526331 0.582106 0.239700
O O5 0.125000 0.625000 0.315137
O O6 0.375000 0.560272 0.375000
O O7 0.038289 0.581988 0.414525
#
# Coordination Sequence:
#
# PCOD9516356 Si02
#       4
#    32  32   8  16
#     4  12  23  48  73 104 153 183 245 305 344 439
#     4  10  24  47  68 108 147 187 244 298 353 433
#     4  12  22  44  74 106 140 194 238 298 360 414
#     4  10  25  46  71 108 140 201 229 300 378 402
#
# _framework density 24.047224
#
# number of rings (size 3 to 8) (size 9 to 14) (size 15 to 20)
#    1.091    0.000    5.455    1.091    0.000    2.909 
#    3.273    0.000    0.000    0.000    0.000    0.000 
#    0.000    0.000    0.000    0.000    0.000    0.000 
#
# Total GULP energy -122717.116524 kJ/mol
# GULP energy per Si atom -5578.050751 kJ/mol
# Density = 2.399249 g / cm^3
# Si number density = 24.047224 Si / 1000 Ang^3
#
#
#
# Elastic Constant Matrix: (Units=GPa)
#
#
# Indices 1 2 3 4 5 6 
#
# 1 104.2053 70.0709 48.3438 0.0000 0.0000 0.0000
# 2 70.0709 278.3010 72.6657 0.0000 0.0000 0.0000
# 3 48.3438 72.6657 129.2416 0.0000 0.0000 0.0000
# 4 0.0000 0.0000 0.0000 16.8622 0.0000 0.0000
# 5 0.0000 0.0000 0.0000 0.0000 30.8305 0.0000
# 6 0.0000 0.0000 0.0000 0.0000 0.0000 47.0069
#
#
#
# Elastic Compliance Matrix: (Units=1/GPa)
#
#
# Indices 1 2 3 4 5 6 
#
# 1 0.012759 -0.002305 -0.003477 0.000000 0.000000 0.000000
# 2 -0.002305 0.004628 -0.001740 0.000000 0.000000 0.000000
# 3 -0.003477 -0.001740 0.010016 0.000000 0.000000 0.000000
# 4 0.000000 0.000000 0.000000 0.059304 0.000000 0.000000
# 5 0.000000 0.000000 0.000000 0.000000 0.032435 0.000000
# 6 0.000000 0.000000 0.000000 0.000000 0.000000 0.021273
#
#
# Mechanical properties :
#
#
# Convention : Reuss Voigt Hill
#
# Bulk Modulus (GPa) = 80.90382 99.32320 90.11351
# Shear Modulus (GPa) = 31.33235 40.31775 35.82505
#
# Velocity S-wave (km/s) = 3.61356 4.09908 3.86395
# Velocity P-wave (km/s) = 7.15033 7.98726 7.58035
#
# Compressibility (1/GPa) = 0.01236036
#
# Stress axis : x y z
#
# Youngs Moduli (GPa) = 78.37475 216.08535 99.83792
#
# Poissons Ratio (x) = 0.49801 0.34712
# Poissons Ratio (y) = 0.18063 0.17371
# Poissons Ratio (z) = 0.27250 0.37596
#
# Static dielectric constant tensor:
#      x y z
#    x 2.168410 0.000000 0.000000 
#    y 0.000000 1.921900 0.000000 
#    z 0.000000 0.000000 1.914300 
# 
# From -- ./inp_files/63444.got.cif
#   From: 2010.05.17/outbox.cif.g08.bks.cpg/sg70_32_cif.got.tgz:63444.got - 2010.06.03 15:57:51.
