data_PCOD9516867
_publ_section_title
;
Structure prediction by ZEFSAII (Michael W. Deem and Ramdas Pophale) SiO2 
 PCOD9516867
Probable space group: F D D D
;
_chemical_formula_sum "Si O2"
_cell_formula_units_Z 120
_cell_length_a 14.823302
_cell_length_b 28.232309
_cell_length_c 12.663635
_cell_angle_alpha 90.000000
_cell_angle_beta 90.000000
_cell_angle_gamma 90.000000
_cell_volume 5299.681131
_symmetry_space_group_name_H-M "F D D D"
_symmetry_group_IT_number 70
_space_group.IT_coordinate_system_code '2'
_symmetry_cell_setting 'orthorhombic'
loop_
_space_group_symop_operation_xyz
x,y,z
1/4-x,1/4-y,z
x,1/4-y,1/4-z
1/4-x,y,1/4-z
-x,-y,-z
3/4+x,3/4+y,-z
-x,3/4+y,3/4+z
3/4+x,-y,3/4+z
x,1/2+y,1/2+z
1/4-x,3/4-y,1/2+z
x,3/4-y,3/4-z
1/4-x,1/2+y,3/4-z
-x,1/2-y,1/2-z
3/4+x,1/4+y,1/2-z
-x,1/4+y,1/4+z
3/4+x,1/2-y,1/4+z
1/2+x,y,1/2+z
3/4-x,1/4-y,1/2+z
1/2+x,1/4-y,3/4-z
3/4-x,y,3/4-z
1/2-x,-y,1/2-z
1/4+x,3/4+y,1/2-z
1/2-x,3/4+y,1/4+z
1/4+x,-y,1/4+z
1/2+x,1/2+y,z
3/4-x,3/4-y,z
1/2+x,3/4-y,1/4-z
3/4-x,1/2+y,1/4-z
1/2-x,1/2-y,-z
1/4+x,1/4+y,-z
1/2-x,1/4+y,3/4+z
1/4+x,1/2-y,3/4+z
loop_
_atom_site_type_symbol
_atom_site_label
_atom_site_fract_x
_atom_site_fract_y
_atom_site_fract_z
Si Si1 0.903567 0.056256 0.986297
Si Si2 0.542647 0.375000 0.375000
Si Si3 0.875000 0.375000 0.375000
Si Si4 0.683665 0.044891 0.231155
Si Si5 0.866951 0.299589 0.532696
O O1 0.875000 0.077200 0.875000
O O2 0.011040 0.055972 0.992102
O O3 0.856967 0.086594 0.074228
O O4 0.862510 0.003529 0.995590
O O5 0.482646 0.344666 0.294088
O O6 0.918382 0.338141 0.460172
O O7 0.625000 0.035151 0.125000
O O8 0.631662 0.052004 0.341920
O O9 0.750000 0.000000 0.250000
#
# Coordination Sequence:
#
# PCOD9516867 Si02
#       5
#    32  16   8  32  32
#     4  11  24  46  71 103 149 195 259 313 383 461
#     4  12  26  50  76 116 152 212 258 322 394 474
#     4  12  26  44  74 110 144 200 246 318 394 454
#     4  12  28  50  80 113 160 210 267 326 397 469
#     4  11  26  47  74 107 152 200 258 318 391 464
#
# _framework density 22.642873000000002
#
# number of rings (size 3 to 8) (size 9 to 14) (size 15 to 20)
#    0.000    0.533    4.000    2.800    7.467    1.067 
#    0.000    0.000    0.000    0.000    0.000    0.000 
#    0.000    0.000    0.000    0.000    0.000    0.000 
#
# Total GULP energy -167712.276738 kJ/mol
# GULP energy per Si atom -5590.409225 kJ/mol
# Density = 2.259134 g / cm^3
# Si number density = 22.642873 Si / 1000 Ang^3
#
#
#
# Elastic Constant Matrix: (Units=GPa)
#
#
# Indices 1 2 3 4 5 6 
#
# 1 59.0391 35.8725 40.1347 0.0000 0.0000 0.0000
# 2 35.8725 148.7270 41.8551 0.0000 0.0000 0.0000
# 3 40.1347 41.8551 178.8779 0.0000 0.0000 0.0000
# 4 0.0000 0.0000 0.0000 44.5298 0.0000 0.0000
# 5 0.0000 0.0000 0.0000 0.0000 45.2286 0.0000
# 6 0.0000 0.0000 0.0000 0.0000 0.0000 480.8510
#
#
#
# Elastic Compliance Matrix: (Units=1/GPa)
#
#
# Indices 1 2 3 4 5 6 
#
# 1 0.022229 -0.004237 -0.003996 0.000000 0.000000 0.000000
# 2 -0.004237 0.008005 -0.000922 0.000000 0.000000 0.000000
# 3 -0.003996 -0.000922 0.006703 0.000000 0.000000 0.000000
# 4 0.000000 0.000000 0.000000 0.022457 0.000000 0.000000
# 5 0.000000 0.000000 0.000000 0.000000 0.022110 0.000000
# 6 0.000000 0.000000 0.000000 0.000000 0.000000 0.002080
#
#
# Mechanical properties :
#
#
# Convention : Reuss Voigt Hill
#
# Bulk Modulus (GPa) = 53.68854 69.15207 61.42031
# Shear Modulus (GPa) = 46.25216 132.04065 89.14641
#
# Velocity S-wave (km/s) = 4.52451 7.64467 6.28141
# Velocity P-wave (km/s) = 7.14544 10.41768 8.93268
#
# Compressibility (1/GPa) = 0.01862595
#
# Stress axis : x y z
#
# Youngs Moduli (GPa) = 44.98661 124.91755 149.19027
#
# Poissons Ratio (x) = 0.52927 0.59617
# Poissons Ratio (y) = 0.19061 0.13763
# Poissons Ratio (z) = 0.17977 0.11524
#
# Static dielectric constant tensor:
#      x y z
#    x 1.734460 0.000000 0.000000 
#    y 0.000000 1.819770 0.000000 
#    z 0.000000 0.000000 1.966690 
# 
# From -- ./inp_files/25496.got.cif
#   From: 2010.05.17/outbox.cif.g08.bks.cpg/sg70_13_cif.got.tgz:25496.got - 2010.06.03 15:57:51.
