data_PCOD9516834
_publ_section_title
;
Structure prediction by ZEFSAII (Michael W. Deem and Ramdas Pophale) SiO2 
 PCOD9516834
Probable space group: F D D D
;
_chemical_formula_sum "Si O2"
_cell_formula_units_Z 96
_cell_length_a 9.258864
_cell_length_b 16.724528
_cell_length_c 22.198731
_cell_angle_alpha 90.000000
_cell_angle_beta 90.000000
_cell_angle_gamma 90.000000
_cell_volume 3437.476386
_symmetry_space_group_name_H-M "F D D D"
_symmetry_group_IT_number 70
_space_group.IT_coordinate_system_code '2'
_symmetry_cell_setting 'orthorhombic'
loop_
_space_group_symop_operation_xyz
x,y,z
1/4-x,1/4-y,z
x,1/4-y,1/4-z
1/4-x,y,1/4-z
-x,-y,-z
3/4+x,3/4+y,-z
-x,3/4+y,3/4+z
3/4+x,-y,3/4+z
x,1/2+y,1/2+z
1/4-x,3/4-y,1/2+z
x,3/4-y,3/4-z
1/4-x,1/2+y,3/4-z
-x,1/2-y,1/2-z
3/4+x,1/4+y,1/2-z
-x,1/4+y,1/4+z
3/4+x,1/2-y,1/4+z
1/2+x,y,1/2+z
3/4-x,1/4-y,1/2+z
1/2+x,1/4-y,3/4-z
3/4-x,y,3/4-z
1/2-x,-y,1/2-z
1/4+x,3/4+y,1/2-z
1/2-x,3/4+y,1/4+z
1/4+x,-y,1/4+z
1/2+x,1/2+y,z
3/4-x,3/4-y,z
1/2+x,3/4-y,1/4-z
3/4-x,1/2+y,1/4-z
1/2-x,1/2-y,-z
1/4+x,1/4+y,-z
1/2-x,1/4+y,3/4+z
1/4+x,1/2-y,3/4+z
loop_
_atom_site_type_symbol
_atom_site_label
_atom_site_fract_x
_atom_site_fract_y
_atom_site_fract_z
Si Si1 0.375000 0.375000 0.973148
Si Si2 0.625000 0.381076 0.125000
Si Si3 0.020032 0.249331 0.543816
Si Si4 0.126614 0.375000 0.875000
Si Si5 0.875000 0.875000 0.553623
O O1 0.234719 0.383998 0.931377
O O2 0.364984 0.454640 0.013426
O O3 0.615186 0.323711 0.066904
O O4 0.772260 0.419934 0.105477
O O5 0.972737 0.196798 0.601043
O O6 0.104745 0.195618 0.496383
#
# Coordination Sequence:
#
# PCOD9516834 Si02
#       5
#    16  16  32  16  16
#     4  11  25  42  69 108 151 192 243 307 372 436
#     4  12  26  45  72 105 142 192 244 306 370 437
#     4  12  24  46  71 105 145 195 248 305 366 442
#     4  11  24  43  72 108 146 194 244 302 370 444
#     4  12  27  47  73 106 147 193 247 306 370 442
#
# _framework density 27.927464000000001
#
# number of rings (size 3 to 8) (size 9 to 14) (size 15 to 20)
#    0.000    0.333    0.000    9.000    0.000    5.333 
#    0.000    0.000    0.000    0.000    0.000    0.000 
#    0.000    0.000    0.000    0.000    0.000    0.000 
#
# Total GULP energy -133902.076625 kJ/mol
# GULP energy per Si atom -5579.253193 kJ/mol
# Density = 2.786390 g / cm^3
# Si number density = 27.927464 Si / 1000 Ang^3
#
#
#
# Elastic Constant Matrix: (Units=GPa)
#
#
# Indices 1 2 3 4 5 6 
#
# 1 54.2287 26.8608 39.6972 0.0000 0.0000 0.0000
# 2 26.8608 114.3001 55.2879 0.0000 0.0000 0.0000
# 3 39.6972 55.2879 167.2613 0.0000 0.0000 0.0000
# 4 0.0000 0.0000 0.0000 36.6299 0.0000 0.0000
# 5 0.0000 0.0000 0.0000 0.0000 14.4466 0.0000
# 6 0.0000 0.0000 0.0000 0.0000 0.0000 -52.3492
#
#
#
# Elastic Compliance Matrix: (Units=1/GPa)
#
#
# Indices 1 2 3 4 5 6 
#
# 1 0.023342 -0.003340 -0.004436 0.000000 0.000000 0.000000
# 2 -0.003340 0.010892 -0.002808 0.000000 0.000000 0.000000
# 3 -0.004436 -0.002808 0.007960 0.000000 0.000000 0.000000
# 4 0.000000 0.000000 0.000000 0.027300 0.000000 0.000000
# 5 0.000000 0.000000 0.000000 0.000000 0.069220 0.000000
# 6 0.000000 0.000000 0.000000 0.000000 0.000000 -0.019102
#
#
# Mechanical properties :
#
#
# Convention : Reuss Voigt Hill
#
# Bulk Modulus (GPa) = 47.55861 64.38688 55.97275
# Shear Modulus (GPa) = 33.83256 14.00840 23.92048
#
# Velocity S-wave (km/s) = 3.48436 2.24207 2.92981
# Velocity P-wave (km/s) = 5.76662 5.45963 5.61523
#
# Compressibility (1/GPa) = 0.02102669
#
# Stress axis : x y z
#
# Youngs Moduli (GPa) = 42.84135 91.81208 125.63536
#
# Poissons Ratio (x) = 0.30663 0.55731
# Poissons Ratio (y) = 0.14308 0.35274
# Poissons Ratio (z) = 0.19004 0.25777
#
# Static dielectric constant tensor:
#      x y z
#    x 1.378220 0.000000 0.000000 
#    y 0.000000 1.879560 0.000000 
#    z 0.000000 0.000000 2.135350 
# 
# From -- ./inp_files/15939.got.cif
#   From: 2010.05.17/outbox.cif.g08.bks.cpg/sg70_8_cif.got.tgz:15939.got - 2010.06.03 15:57:51.
