data_PCOD9516697
_publ_section_title
;
Structure prediction by ZEFSAII (Michael W. Deem and Ramdas Pophale) SiO2 
 PCOD9516697
Probable space group: F D D D
;
_chemical_formula_sum "Si O2"
_cell_formula_units_Z 112
_cell_length_a 15.141398
_cell_length_b 14.140583
_cell_length_c 19.870325
_cell_angle_alpha 90.000000
_cell_angle_beta 90.000000
_cell_angle_gamma 90.000000
_cell_volume 4254.399423
_symmetry_space_group_name_H-M "F D D D"
_symmetry_group_IT_number 70
_space_group.IT_coordinate_system_code '2'
_symmetry_cell_setting 'orthorhombic'
loop_
_space_group_symop_operation_xyz
x,y,z
1/4-x,1/4-y,z
x,1/4-y,1/4-z
1/4-x,y,1/4-z
-x,-y,-z
3/4+x,3/4+y,-z
-x,3/4+y,3/4+z
3/4+x,-y,3/4+z
x,1/2+y,1/2+z
1/4-x,3/4-y,1/2+z
x,3/4-y,3/4-z
1/4-x,1/2+y,3/4-z
-x,1/2-y,1/2-z
3/4+x,1/4+y,1/2-z
-x,1/4+y,1/4+z
3/4+x,1/2-y,1/4+z
1/2+x,y,1/2+z
3/4-x,1/4-y,1/2+z
1/2+x,1/4-y,3/4-z
3/4-x,y,3/4-z
1/2-x,-y,1/2-z
1/4+x,3/4+y,1/2-z
1/2-x,3/4+y,1/4+z
1/4+x,-y,1/4+z
1/2+x,1/2+y,z
3/4-x,3/4-y,z
1/2+x,3/4-y,1/4-z
3/4-x,1/2+y,1/4-z
1/2-x,1/2-y,-z
1/4+x,1/4+y,-z
1/2-x,1/4+y,3/4+z
1/4+x,1/2-y,3/4+z
loop_
_atom_site_type_symbol
_atom_site_label
_atom_site_fract_x
_atom_site_fract_y
_atom_site_fract_z
Si Si1 0.089546 0.023603 0.739508
Si Si2 0.145127 0.875000 0.375000
Si Si3 0.498133 0.734513 0.854941
Si Si4 0.020146 0.769581 0.618577
O O1 0.125000 0.125000 0.764130
O O2 0.013084 0.995590 0.792529
O O3 0.175295 0.974973 0.703579
O O4 0.036233 0.040288 0.669941
O O5 0.084215 0.796919 0.336587
O O6 0.212007 0.946698 0.337218
O O7 0.508036 0.627535 0.881448
O O8 0.125000 0.759496 0.625000
#
# Coordination Sequence:
#
# PCOD9516697 Si02
#       4
#    32  16  32  32
#     4  11  22  45  83 110 151 204 272 342 378 470
#     4  12  25  45  74 108 160 200 254 343 393 474
#     4  11  23  47  79 120 146 204 280 321 406 471
#     4  12  28  48  73 115 166 210 265 327 411 495
#
# _framework density 26.325690000000002
#
# number of rings (size 3 to 8) (size 9 to 14) (size 15 to 20)
#    0.000    0.571    5.714    3.857    4.000    2.286 
#    0.000    8.571    0.000    0.000    0.000    0.000 
#    0.000    0.000    0.000    0.000    0.000    0.000 
#
# Total GULP energy -156047.786118 kJ/mol
# GULP energy per Si atom -5573.135219 kJ/mol
# Density = 2.626577 g / cm^3
# Si number density = 26.325690 Si / 1000 Ang^3
#
#
#
# Elastic Constant Matrix: (Units=GPa)
#
#
# Indices 1 2 3 4 5 6 
#
# 1 211.6719 66.3151 49.8477 0.0000 0.0000 0.0000
# 2 66.3151 209.5622 -11.4505 0.0000 0.0000 0.0000
# 3 49.8477 -11.4505 84.7741 0.0000 0.0000 0.0000
# 4 0.0000 0.0000 0.0000 -456.8198 0.0000 0.0000
# 5 0.0000 0.0000 0.0000 0.0000 23.9617 0.0000
# 6 0.0000 0.0000 0.0000 0.0000 0.0000 50.2600
#
#
#
# Elastic Compliance Matrix: (Units=1/GPa)
#
#
# Indices 1 2 3 4 5 6 
#
# 1 0.006381 -0.002241 -0.004055 0.000000 0.000000 0.000000
# 2 -0.002241 0.005594 0.002073 0.000000 0.000000 0.000000
# 3 -0.004055 0.002073 0.014460 0.000000 0.000000 0.000000
# 4 0.000000 0.000000 0.000000 -0.002189 0.000000 0.000000
# 5 0.000000 0.000000 0.000000 0.000000 0.041733 0.000000
# 6 0.000000 0.000000 0.000000 0.000000 0.000000 0.019897
#
#
# Mechanical properties :
#
#
# Convention : Reuss Voigt Hill
#
# Bulk Modulus (GPa) = 55.58365 79.49253 67.53809
# Shear Modulus (GPa) = 49.84123 -49.76656 0.03734
#
# Velocity S-wave (km/s) = 4.35587 -4.35261 0.11922
# Velocity P-wave (km/s) = 6.81600 2.23631 5.07242
#
# Compressibility (1/GPa) = 0.01799090
#
# Stress axis : x y z
#
# Youngs Moduli (GPa) = 156.70911 178.75484 69.15438
#
# Poissons Ratio (x) = 0.40057 0.28041
# Poissons Ratio (y) = 0.35117 -0.14338
# Poissons Ratio (z) = 0.63544 -0.37061
#
# Static dielectric constant tensor:
#      x y z
#    x 2.283400 0.000000 0.000000 
#    y 0.000000 2.233480 0.000000 
#    z 0.000000 0.000000 2.206890 
# 
# From -- ./inp_files/50845.got.cif
#   From: 2010.05.17/outbox.cif.g08.bks.cpg/sg70_26_cif.got.tgz:50845.got - 2010.06.03 15:57:51.
