data_PCOD9516621
_publ_section_title
;
Structure prediction by ZEFSAII (Michael W. Deem and Ramdas Pophale) SiO2 
 PCOD9516621
Probable space group: F D D D
;
_chemical_formula_sum "Si O2"
_cell_formula_units_Z 144
_cell_length_a 29.045007
_cell_length_b 11.255092
_cell_length_c 21.798355
_cell_angle_alpha 90.000000
_cell_angle_beta 90.000000
_cell_angle_gamma 90.000000
_cell_volume 7125.974368
_symmetry_space_group_name_H-M "F D D D"
_symmetry_group_IT_number 70
_space_group.IT_coordinate_system_code '2'
_symmetry_cell_setting 'orthorhombic'
loop_
_space_group_symop_operation_xyz
x,y,z
1/4-x,1/4-y,z
x,1/4-y,1/4-z
1/4-x,y,1/4-z
-x,-y,-z
3/4+x,3/4+y,-z
-x,3/4+y,3/4+z
3/4+x,-y,3/4+z
x,1/2+y,1/2+z
1/4-x,3/4-y,1/2+z
x,3/4-y,3/4-z
1/4-x,1/2+y,3/4-z
-x,1/2-y,1/2-z
3/4+x,1/4+y,1/2-z
-x,1/4+y,1/4+z
3/4+x,1/2-y,1/4+z
1/2+x,y,1/2+z
3/4-x,1/4-y,1/2+z
1/2+x,1/4-y,3/4-z
3/4-x,y,3/4-z
1/2-x,-y,1/2-z
1/4+x,3/4+y,1/2-z
1/2-x,3/4+y,1/4+z
1/4+x,-y,1/4+z
1/2+x,1/2+y,z
3/4-x,3/4-y,z
1/2+x,3/4-y,1/4-z
3/4-x,1/2+y,1/4-z
1/2-x,1/2-y,-z
1/4+x,1/4+y,-z
1/2-x,1/4+y,3/4+z
1/4+x,1/2-y,3/4+z
loop_
_atom_site_type_symbol
_atom_site_label
_atom_site_fract_x
_atom_site_fract_y
_atom_site_fract_z
Si Si1 0.457665 0.240758 0.702349
Si Si2 0.040804 0.535492 0.311927
Si Si3 0.875000 0.375000 0.262294
Si Si4 0.875000 0.375000 0.767415
Si Si5 0.945725 0.746838 0.907859
Si Si6 0.625000 0.431868 0.625000
O O1 0.500000 0.250000 0.750000
O O2 0.465749 0.299025 0.635613
O O3 0.413673 0.308625 0.725760
O O4 0.446341 0.102207 0.696469
O O5 0.079505 0.609058 0.275893
O O6 0.986410 0.544251 0.296513
O O7 0.901244 0.468539 0.303658
O O8 0.870133 0.486234 0.814207
O O9 0.958490 0.875000 0.875000
O O10 0.922966 0.643242 0.867185
#
# Coordination Sequence:
#
# PCOD9516621 Si02
#       6
#    32  32  16  16  32  16
#     4  11  22  39  65 103 136 171 223 291 348 409
#     4  11  24  41  63  97 137 180 225 284 346 415
#     4  12  20  34  65 103 128 166 216 290 350 394
#     4  11  27  46  61  93 150 200 220 278 346 437
#     4  12  21  38  72 104 124 169 237 298 343 393
#     4  11  25  44  68  94 141 191 238 276 350 421
#
# _framework density 20.207763
#
# number of rings (size 3 to 8) (size 9 to 14) (size 15 to 20)
#    0.000    0.667    6.667    2.000    3.111    0.889 
#    0.000    0.000    0.000    5.333    0.000    0.000 
#    0.000    0.000    0.000    0.000    0.000    0.000 
#
# Total GULP energy -200618.099108 kJ/mol
# GULP energy per Si atom -5572.724975 kJ/mol
# Density = 2.016177 g / cm^3
# Si number density = 20.207763 Si / 1000 Ang^3
#
#
#
# Elastic Constant Matrix: (Units=GPa)
#
#
# Indices 1 2 3 4 5 6 
#
# 1 145.9435 50.1407 49.5801 0.0000 0.0000 0.0000
# 2 50.1407 74.2487 29.1514 0.0000 0.0000 0.0000
# 3 49.5801 29.1514 101.2095 0.0000 0.0000 0.0000
# 4 0.0000 0.0000 0.0000 13.0130 0.0000 0.0000
# 5 0.0000 0.0000 0.0000 0.0000 37.4687 0.0000
# 6 0.0000 0.0000 0.0000 0.0000 0.0000 44.8277
#
#
#
# Elastic Compliance Matrix: (Units=1/GPa)
#
#
# Indices 1 2 3 4 5 6 
#
# 1 0.009792 -0.005332 -0.003261 0.000000 0.000000 0.000000
# 2 -0.005332 0.018089 -0.002598 0.000000 0.000000 0.000000
# 3 -0.003261 -0.002598 0.012226 0.000000 0.000000 0.000000
# 4 0.000000 0.000000 0.000000 0.076846 0.000000 0.000000
# 5 0.000000 0.000000 0.000000 0.000000 0.026689 0.000000
# 6 0.000000 0.000000 0.000000 0.000000 0.000000 0.022308
#
#
# Mechanical properties :
#
#
# Convention : Reuss Voigt Hill
#
# Bulk Modulus (GPa) = 56.41817 64.34957 60.38387
# Shear Modulus (GPa) = 25.74130 31.89718 28.81924
#
# Velocity S-wave (km/s) = 3.57295 3.97730 3.78053
# Velocity P-wave (km/s) = 6.70828 7.28045 7.00021
#
# Compressibility (1/GPa) = 0.01772479
#
# Stress axis : x y z
#
# Youngs Moduli (GPa) = 102.12761 55.28178 81.79098
#
# Poissons Ratio (x) = 0.29477 0.26671
# Poissons Ratio (y) = 0.54455 0.21251
# Poissons Ratio (z) = 0.33303 0.14363
#
# Static dielectric constant tensor:
#      x y z
#    x 1.789650 0.000000 0.000000 
#    y 0.000000 1.641150 0.000000 
#    z 0.000000 0.000000 1.856220 
# 
# From -- ./inp_files/54213.got.cif
#   From: 2010.05.17/outbox.cif.g08.bks.cpg/sg70_28_cif.got.tgz:54213.got - 2010.06.03 15:57:51.
