data_PCOD9516292
_publ_section_title
;
Structure prediction by ZEFSAII (Michael W. Deem and Ramdas Pophale) SiO2 
 PCOD9516292
Probable space group: F D D D
;
_chemical_formula_sum "Si O2"
_cell_formula_units_Z 144
_cell_length_a 21.980641
_cell_length_b 29.060901
_cell_length_c 11.040823
_cell_angle_alpha 90.000000
_cell_angle_beta 90.000000
_cell_angle_gamma 90.000000
_cell_volume 7052.626355
_symmetry_space_group_name_H-M "F D D D"
_symmetry_group_IT_number 70
_space_group.IT_coordinate_system_code '2'
_symmetry_cell_setting 'orthorhombic'
loop_
_space_group_symop_operation_xyz
x,y,z
1/4-x,1/4-y,z
x,1/4-y,1/4-z
1/4-x,y,1/4-z
-x,-y,-z
3/4+x,3/4+y,-z
-x,3/4+y,3/4+z
3/4+x,-y,3/4+z
x,1/2+y,1/2+z
1/4-x,3/4-y,1/2+z
x,3/4-y,3/4-z
1/4-x,1/2+y,3/4-z
-x,1/2-y,1/2-z
3/4+x,1/4+y,1/2-z
-x,1/4+y,1/4+z
3/4+x,1/2-y,1/4+z
1/2+x,y,1/2+z
3/4-x,1/4-y,1/2+z
1/2+x,1/4-y,3/4-z
3/4-x,y,3/4-z
1/2-x,-y,1/2-z
1/4+x,3/4+y,1/2-z
1/2-x,3/4+y,1/4+z
1/4+x,-y,1/4+z
1/2+x,1/2+y,z
3/4-x,3/4-y,z
1/2+x,3/4-y,1/4-z
3/4-x,1/2+y,1/4-z
1/2-x,1/2-y,-z
1/4+x,1/4+y,-z
1/2-x,1/4+y,3/4+z
1/4+x,1/2-y,3/4+z
loop_
_atom_site_type_symbol
_atom_site_label
_atom_site_fract_x
_atom_site_fract_y
_atom_site_fract_z
Si Si1 0.062282 0.944548 0.567816
Si Si2 0.523235 0.794453 0.179672
Si Si3 0.048571 0.002221 0.327191
Si Si4 0.375000 0.645739 0.375000
Si Si5 0.144857 0.673620 0.483026
O O1 0.125000 0.963997 0.625000
O O2 0.076702 0.889829 0.565346
O O3 0.005699 0.960968 0.649164
O O4 0.051563 0.966837 0.437807
O O5 0.500000 0.750000 0.250000
O O6 0.585190 0.821438 0.211868
O O7 0.466115 0.826422 0.206398
O O8 0.534923 0.776178 0.044213
O O9 0.110262 0.032082 0.319818
O O10 0.125000 0.625000 0.430392
O O11 0.125000 0.674781 0.625000
#
# Coordination Sequence:
#
# PCOD9516292 Si02
#       5
#    32  32  32  16  32
#     4   9  22  43  67  95 130 180 227 288 333 419
#     4  12  23  41  64  98 138 174 227 283 349 422
#     4  11  21  42  68  96 133 178 226 279 356 402
#     4  10  24  44  62 102 132 188 238 286 352 412
#     4  11  23  40  61  94 134 175 216 274 340 417
#
# _framework density 20.417926000000001
#
# number of rings (size 3 to 8) (size 9 to 14) (size 15 to 20)
#    0.667    0.667    2.222    4.000    0.000    0.889 
#    4.000    0.000    0.000    8.667    0.000    0.000 
#    0.000    0.000    0.000    0.000    0.000    0.000 
#
# Total GULP energy -200650.583569 kJ/mol
# GULP energy per Si atom -5573.627321 kJ/mol
# Density = 2.037145 g / cm^3
# Si number density = 20.417926 Si / 1000 Ang^3
#
#
#
# Elastic Constant Matrix: (Units=GPa)
#
#
# Indices 1 2 3 4 5 6 
#
# 1 133.0878 31.3036 6.0862 0.0000 0.0000 0.0000
# 2 31.3036 104.4725 7.8033 0.0000 0.0000 0.0000
# 3 6.0862 7.8033 56.0121 0.0000 0.0000 0.0000
# 4 0.0000 0.0000 0.0000 13.9149 0.0000 0.0000
# 5 0.0000 0.0000 0.0000 0.0000 26.0244 0.0000
# 6 0.0000 0.0000 0.0000 0.0000 0.0000 117.9931
#
#
#
# Elastic Compliance Matrix: (Units=1/GPa)
#
#
# Indices 1 2 3 4 5 6 
#
# 1 0.008100 -0.002386 -0.000548 0.000000 0.000000 0.000000
# 2 -0.002386 0.010375 -0.001186 0.000000 0.000000 0.000000
# 3 -0.000548 -0.001186 0.018078 0.000000 0.000000 0.000000
# 4 0.000000 0.000000 0.000000 0.071866 0.000000 0.000000
# 5 0.000000 0.000000 0.000000 0.000000 0.038426 0.000000
# 6 0.000000 0.000000 0.000000 0.000000 0.000000 0.008475
#
#
# Mechanical properties :
#
#
# Convention : Reuss Voigt Hill
#
# Bulk Modulus (GPa) = 35.31882 42.66207 38.99044
# Shear Modulus (GPa) = 28.90210 48.14508 38.52359
#
# Velocity S-wave (km/s) = 3.76643 4.86117 4.34839
# Velocity P-wave (km/s) = 6.02081 7.24208 6.65950
#
# Compressibility (1/GPa) = 0.02831352
#
# Stress axis : x y z
#
# Youngs Moduli (GPa) = 123.45475 96.38112 55.31568
#
# Poissons Ratio (x) = 0.22998 0.03030
# Poissons Ratio (y) = 0.29458 0.06561
# Poissons Ratio (z) = 0.06762 0.11433
#
# Static dielectric constant tensor:
#      x y z
#    x 1.702630 0.000000 0.000000 
#    y 0.000000 1.834420 0.000000 
#    z 0.000000 0.000000 1.710340 
# 
# From -- ./inp_files/19214.got.cif
#   From: 2010.05.17/outbox.cif.g08.bks.cpg/sg70_10_cif.got.tgz:19214.got - 2010.06.03 15:57:51.
