data_PCOD9516726
_publ_section_title
;
Structure prediction by ZEFSAII (Michael W. Deem and Ramdas Pophale) SiO2 
 PCOD9516726
Probable space group: F D D D
;
_chemical_formula_sum "Si O2"
_cell_formula_units_Z 96
_cell_length_a 25.802218
_cell_length_b 13.484759
_cell_length_c 13.722646
_cell_angle_alpha 90.000000
_cell_angle_beta 90.000000
_cell_angle_gamma 90.000000
_cell_volume 4774.612046
_symmetry_space_group_name_H-M "F D D D"
_symmetry_group_IT_number 70
_space_group.IT_coordinate_system_code '2'
_symmetry_cell_setting 'orthorhombic'
loop_
_space_group_symop_operation_xyz
x,y,z
1/4-x,1/4-y,z
x,1/4-y,1/4-z
1/4-x,y,1/4-z
-x,-y,-z
3/4+x,3/4+y,-z
-x,3/4+y,3/4+z
3/4+x,-y,3/4+z
x,1/2+y,1/2+z
1/4-x,3/4-y,1/2+z
x,3/4-y,3/4-z
1/4-x,1/2+y,3/4-z
-x,1/2-y,1/2-z
3/4+x,1/4+y,1/2-z
-x,1/4+y,1/4+z
3/4+x,1/2-y,1/4+z
1/2+x,y,1/2+z
3/4-x,1/4-y,1/2+z
1/2+x,1/4-y,3/4-z
3/4-x,y,3/4-z
1/2-x,-y,1/2-z
1/4+x,3/4+y,1/2-z
1/2-x,3/4+y,1/4+z
1/4+x,-y,1/4+z
1/2+x,1/2+y,z
3/4-x,3/4-y,z
1/2+x,3/4-y,1/4-z
3/4-x,1/2+y,1/4-z
1/2-x,1/2-y,-z
1/4+x,1/4+y,-z
1/2-x,1/4+y,3/4+z
1/4+x,1/2-y,3/4+z
loop_
_atom_site_type_symbol
_atom_site_label
_atom_site_fract_x
_atom_site_fract_y
_atom_site_fract_z
Si Si1 0.621707 0.918319 0.238181
Si Si2 0.502546 0.366693 0.767071
Si Si3 0.411413 0.968166 0.172020
O O1 0.625000 0.944994 0.125000
O O2 0.561375 0.905424 0.266227
O O3 0.648407 0.994596 0.312975
O O4 0.648346 0.811771 0.259275
O O5 0.479383 0.375000 0.875000
O O6 0.500000 0.250000 0.750000
O O7 0.469031 0.429108 0.690755
O O8 0.375000 0.875000 0.195472
#
# Coordination Sequence:
#
# PCOD9516726 Si02
#       3
#    32  32  32
#     4  11  24  43  64 101 142 175 230 286 346 414
#     4  12  22  41  70  98 132 182 235 287 342 407
#     4  11  23  41  66 100 134 179 236 285 339 406
#
# _framework density 20.106347
#
# number of rings (size 3 to 8) (size 9 to 14) (size 15 to 20)
#    0.000    0.667    6.667    2.000    0.000    2.000 
#    0.000    3.333    0.000    0.000    0.000    0.000 
#    0.000    0.000    0.000    0.000    0.000    0.000 
#
# Total GULP energy -134142.486356 kJ/mol
# GULP energy per Si atom -5589.270265 kJ/mol
# Density = 2.006058 g / cm^3
# Si number density = 20.106347 Si / 1000 Ang^3
#
#
#
# Elastic Constant Matrix: (Units=GPa)
#
#
# Indices 1 2 3 4 5 6 
#
# 1 113.5243 56.5317 49.6868 0.0000 0.0000 0.0000
# 2 56.5317 93.4576 26.9094 0.0000 0.0000 0.0000
# 3 49.6868 26.9094 134.1969 0.0000 0.0000 0.0000
# 4 0.0000 0.0000 0.0000 18.5290 0.0000 0.0000
# 5 0.0000 0.0000 0.0000 0.0000 24.1280 0.0000
# 6 0.0000 0.0000 0.0000 0.0000 0.0000 10.3373
#
#
#
# Elastic Compliance Matrix: (Units=1/GPa)
#
#
# Indices 1 2 3 4 5 6 
#
# 1 0.014184 -0.007501 -0.003748 0.000000 0.000000 0.000000
# 2 -0.007501 0.015322 -0.000295 0.000000 0.000000 0.000000
# 3 -0.003748 -0.000295 0.008899 0.000000 0.000000 0.000000
# 4 0.000000 0.000000 0.000000 0.053969 0.000000 0.000000
# 5 0.000000 0.000000 0.000000 0.000000 0.041446 0.000000
# 6 0.000000 0.000000 0.000000 0.000000 0.000000 0.096737
#
#
# Mechanical properties :
#
#
# Convention : Reuss Voigt Hill
#
# Bulk Modulus (GPa) = 65.28482 67.49271 66.38877
# Shear Modulus (GPa) = 19.32369 24.46894 21.89632
#
# Velocity S-wave (km/s) = 3.10348 3.49230 3.30362
# Velocity P-wave (km/s) = 6.73665 7.06416 6.90234
#
# Compressibility (1/GPa) = 0.01531750
#
# Stress axis : x y z
#
# Youngs Moduli (GPa) = 70.50149 65.26479 112.37834
#
# Poissons Ratio (x) = 0.48954 0.42115
# Poissons Ratio (y) = 0.52882 0.03318
# Poissons Ratio (z) = 0.26421 0.01927
#
# Static dielectric constant tensor:
#      x y z
#    x 1.732620 0.000000 0.000000 
#    y 0.000000 1.657170 0.000000 
#    z 0.000000 0.000000 1.706110 
# 
# From -- ./inp_files/34348.got.cif
#   From: 2010.05.17/outbox.cif.g08.bks.cpg/sg70_18_cif.got.tgz:34348.got - 2010.06.03 15:57:51.
