data_PCOD9516242
_publ_section_title
;
Structure prediction by ZEFSAII (Michael W. Deem and Ramdas Pophale) SiO2 
 PCOD9516242
Probable space group: F D D D
;
_chemical_formula_sum "Si O2"
_cell_formula_units_Z 152
_cell_length_a 20.842212
_cell_length_b 19.648096
_cell_length_c 15.977326
_cell_angle_alpha 90.000000
_cell_angle_beta 90.000000
_cell_angle_gamma 90.000000
_cell_volume 6542.871291
_symmetry_space_group_name_H-M "F D D D"
_symmetry_group_IT_number 70
_space_group.IT_coordinate_system_code '2'
_symmetry_cell_setting 'orthorhombic'
loop_
_space_group_symop_operation_xyz
x,y,z
1/4-x,1/4-y,z
x,1/4-y,1/4-z
1/4-x,y,1/4-z
-x,-y,-z
3/4+x,3/4+y,-z
-x,3/4+y,3/4+z
3/4+x,-y,3/4+z
x,1/2+y,1/2+z
1/4-x,3/4-y,1/2+z
x,3/4-y,3/4-z
1/4-x,1/2+y,3/4-z
-x,1/2-y,1/2-z
3/4+x,1/4+y,1/2-z
-x,1/4+y,1/4+z
3/4+x,1/2-y,1/4+z
1/2+x,y,1/2+z
3/4-x,1/4-y,1/2+z
1/2+x,1/4-y,3/4-z
3/4-x,y,3/4-z
1/2-x,-y,1/2-z
1/4+x,3/4+y,1/2-z
1/2-x,3/4+y,1/4+z
1/4+x,-y,1/4+z
1/2+x,1/2+y,z
3/4-x,3/4-y,z
1/2+x,3/4-y,1/4-z
3/4-x,1/2+y,1/4-z
1/2-x,1/2-y,-z
1/4+x,1/4+y,-z
1/2-x,1/4+y,3/4+z
1/4+x,1/2-y,3/4+z
loop_
_atom_site_type_symbol
_atom_site_label
_atom_site_fract_x
_atom_site_fract_y
_atom_site_fract_z
Si Si1 0.595071 0.875000 0.375000
Si Si2 0.976559 0.379962 0.689750
Si Si3 0.875000 0.761234 0.375000
Si Si4 0.875000 0.375000 0.375000
Si Si5 0.113720 0.505745 0.947806
Si Si6 0.985334 0.375000 0.875000
Si Si7 0.009644 0.669409 0.749731
O O1 0.632614 0.804279 0.381745
O O2 0.546635 0.868743 0.298359
O O3 0.946696 0.304339 0.686454
O O4 0.921883 0.439431 0.696404
O O5 0.013337 0.380829 0.779752
O O6 0.997921 0.394195 0.595328
O O7 0.868536 0.722218 0.460880
O O8 0.936695 0.810768 0.372330
O O9 0.925371 0.342278 0.306495
O O10 0.000000 0.750000 0.750000
#
# Coordination Sequence:
#
# PCOD9516242 Si02
#       7
#    16  32  16   8  32  16  32
#     4  11  22  33  54  92 130 162 225 264 327 416
#     4   9  16  32  61  88 118 167 217 267 343 401
#     4   7  12  24  47  78 107 135 202 256 314 363
#     4  10  24  40  62  98 140 174 236 286 338 432
#     4   9  16  30  55  84 117 160 211 271 320 397
#     4   7  12  24  52  92 101 143 215 257 304 398
#     4  11  22  38  61  97 132 181 222 278 351 428
#
# _framework density 23.231390999999999
#
# number of rings (size 3 to 8) (size 9 to 14) (size 15 to 20)
#    0.000    2.737    2.105    3.789    0.000    0.000 
#    0.000    1.053    0.000   11.368   10.947   10.316 
#    0.000    0.000    0.000    0.000    0.000    0.000 
#
# Total GULP energy -211549.420299 kJ/mol
# GULP energy per Si atom -5567.090008 kJ/mol
# Density = 2.317852 g / cm^3
# Si number density = 23.231391 Si / 1000 Ang^3
#
#
#
# Elastic Constant Matrix: (Units=GPa)
#
#
# Indices 1 2 3 4 5 6 
#
# 1 54.6346 53.8971 55.6292 0.0000 0.0000 0.0000
# 2 53.8971 108.2170 53.4496 0.0000 0.0000 0.0000
# 3 55.6292 53.4496 253.0527 0.0000 0.0000 0.0000
# 4 0.0000 0.0000 0.0000 35.0030 0.0000 0.0000
# 5 0.0000 0.0000 0.0000 0.0000 19.9965 0.0000
# 6 0.0000 0.0000 0.0000 0.0000 0.0000 -19.3434
#
#
#
# Elastic Compliance Matrix: (Units=1/GPa)
#
#
# Indices 1 2 3 4 5 6 
#
# 1 0.041531 -0.018059 -0.005315 0.000000 0.000000 0.000000
# 2 -0.018059 0.018170 0.000132 0.000000 0.000000 0.000000
# 3 -0.005315 0.000132 0.005092 0.000000 0.000000 0.000000
# 4 0.000000 0.000000 0.000000 0.028569 0.000000 0.000000
# 5 0.000000 0.000000 0.000000 0.000000 0.050009 0.000000
# 6 0.000000 0.000000 0.000000 0.000000 0.000000 -0.051697
#
#
# Mechanical properties :
#
#
# Convention : Reuss Voigt Hill
#
# Bulk Modulus (GPa) = 54.61988 82.42846 68.52417
# Shear Modulus (GPa) = 34.65957 23.99310 29.32634
#
# Velocity S-wave (km/s) = 3.86674 3.21719 3.55682
# Velocity P-wave (km/s) = 6.59529 7.02559 6.81384
#
# Compressibility (1/GPa) = 0.01830835
#
# Stress axis : x y z
#
# Youngs Moduli (GPa) = 24.07856 55.03701 196.37370
#
# Poissons Ratio (x) = 0.99391 1.04381
# Poissons Ratio (y) = 0.43483 -0.02595
# Poissons Ratio (z) = 0.12799 -0.00727
#
# Static dielectric constant tensor:
#      x y z
#    x 2.093890 0.000000 0.000000 
#    y 0.000000 1.826790 0.000000 
#    z 0.000000 0.000000 1.965460 
# 
# From -- ./inp_files/31064.got.cif
#   From: 2010.05.17/outbox.cif.g08.bks.cpg/sg70_16_cif.got.tgz:31064.got - 2010.06.03 15:57:51.
