data_PCOD9516919
_publ_section_title
;
Structure prediction by ZEFSAII (Michael W. Deem and Ramdas Pophale) SiO2 
 PCOD9516919
Probable space group: F D D D
;
_chemical_formula_sum "Si O2"
_cell_formula_units_Z 104
_cell_length_a 28.836726
_cell_length_b 13.680050
_cell_length_c 10.407933
_cell_angle_alpha 90.000000
_cell_angle_beta 90.000000
_cell_angle_gamma 90.000000
_cell_volume 4105.803149
_symmetry_space_group_name_H-M "F D D D"
_symmetry_group_IT_number 70
_space_group.IT_coordinate_system_code '2'
_symmetry_cell_setting 'orthorhombic'
loop_
_space_group_symop_operation_xyz
x,y,z
1/4-x,1/4-y,z
x,1/4-y,1/4-z
1/4-x,y,1/4-z
-x,-y,-z
3/4+x,3/4+y,-z
-x,3/4+y,3/4+z
3/4+x,-y,3/4+z
x,1/2+y,1/2+z
1/4-x,3/4-y,1/2+z
x,3/4-y,3/4-z
1/4-x,1/2+y,3/4-z
-x,1/2-y,1/2-z
3/4+x,1/4+y,1/2-z
-x,1/4+y,1/4+z
3/4+x,1/2-y,1/4+z
1/2+x,y,1/2+z
3/4-x,1/4-y,1/2+z
1/2+x,1/4-y,3/4-z
3/4-x,y,3/4-z
1/2-x,-y,1/2-z
1/4+x,3/4+y,1/2-z
1/2-x,3/4+y,1/4+z
1/4+x,-y,1/4+z
1/2+x,1/2+y,z
3/4-x,3/4-y,z
1/2+x,3/4-y,1/4-z
3/4-x,1/2+y,1/4-z
1/2-x,1/2-y,-z
1/4+x,1/4+y,-z
1/2-x,1/4+y,3/4+z
1/4+x,1/2-y,3/4+z
loop_
_atom_site_type_symbol
_atom_site_label
_atom_site_fract_x
_atom_site_fract_y
_atom_site_fract_z
Si Si1 0.549136 0.561479 0.319247
Si Si2 0.963840 0.011216 0.168205
Si Si3 0.125000 0.125000 0.125000
Si Si4 0.386081 0.044938 0.014203
O O1 0.531025 0.673332 0.318164
O O2 0.505808 0.500477 0.267683
O O3 0.591570 0.562375 0.217658
O O4 0.569497 0.522163 0.454085
O O5 0.962180 0.125000 0.125000
O O6 0.911968 0.988019 0.216136
O O7 0.390063 0.125000 0.125000
O O8 0.375000 0.089346 0.875000
#
# Coordination Sequence:
#
# PCOD9516919 Si02
#       4
#    32  32   8  32
#     4  12  26  46  78 112 159 206 261 320 391 465
#     4  11  25  45  75 116 153 202 261 326 381 471
#     4  12  24  44  78 108 156 206 254 308 400 448
#     4  11  28  50  77 112 157 204 261 327 395 465
#
# _framework density 25.330002
#
# number of rings (size 3 to 8) (size 9 to 14) (size 15 to 20)
#    0.000    0.615    4.615    0.923    6.462    3.692 
#    0.000    0.000    0.000    0.000    0.000    0.000 
#    0.000    0.000    0.000    0.000    0.000    0.000 
#
# Total GULP energy -145183.886280 kJ/mol
# GULP energy per Si atom -5583.995626 kJ/mol
# Density = 2.527235 g / cm^3
# Si number density = 25.330002 Si / 1000 Ang^3
#
#
#
# Elastic Constant Matrix: (Units=GPa)
#
#
# Indices 1 2 3 4 5 6 
#
# 1 145.8954 31.7675 14.0312 0.0000 0.0000 0.0000
# 2 31.7675 116.4314 52.4290 0.0000 0.0000 0.0000
# 3 14.0312 52.4290 96.3059 0.0000 0.0000 0.0000
# 4 0.0000 0.0000 0.0000 33.9967 0.0000 0.0000
# 5 0.0000 0.0000 0.0000 0.0000 29.5016 0.0000
# 6 0.0000 0.0000 0.0000 0.0000 0.0000 19.2043
#
#
#
# Elastic Compliance Matrix: (Units=1/GPa)
#
#
# Indices 1 2 3 4 5 6 
#
# 1 0.007287 -0.002001 0.000027 0.000000 0.000000 0.000000
# 2 -0.002001 0.011927 -0.006202 0.000000 0.000000 0.000000
# 3 0.000027 -0.006202 0.013756 0.000000 0.000000 0.000000
# 4 0.000000 0.000000 0.000000 0.029415 0.000000 0.000000
# 5 0.000000 0.000000 0.000000 0.000000 0.033896 0.000000
# 6 0.000000 0.000000 0.000000 0.000000 0.000000 0.052072
#
#
# Mechanical properties :
#
#
# Convention : Reuss Voigt Hill
#
# Bulk Modulus (GPa) = 60.16689 61.67647 60.92168
# Shear Modulus (GPa) = 29.36979 33.90085 31.63532
#
# Velocity S-wave (km/s) = 3.40882 3.66234 3.53785
# Velocity P-wave (km/s) = 6.26882 6.50274 6.38685
#
# Compressibility (1/GPa) = 0.01662044
#
# Stress axis : x y z
#
# Youngs Moduli (GPa) = 137.22681 83.84172 72.69662
#
# Poissons Ratio (x) = 0.16774 -0.00199
# Poissons Ratio (y) = 0.27454 0.45084
# Poissons Ratio (z) = -0.00376 0.51996
#
# Static dielectric constant tensor:
#      x y z
#    x 2.007400 0.000000 0.000000 
#    y 0.000000 2.019060 0.000000 
#    z 0.000000 0.000000 2.293610 
# 
# From -- ./inp_files/21723.got.cif
#   From: 2010.05.17/outbox.cif.g08.bks.cpg/sg70_11_cif.got.tgz:21723.got - 2010.06.03 15:57:51.
