data_PCOD9516997
_publ_section_title
;
Structure prediction by ZEFSAII (Michael W. Deem and Ramdas Pophale) SiO2 
 PCOD9516997
Probable space group: F D D D
;
_chemical_formula_sum "Si O2"
_cell_formula_units_Z 192
_cell_length_a 13.370964
_cell_length_b 27.474205
_cell_length_c 27.489874
_cell_angle_alpha 90.000000
_cell_angle_beta 90.000000
_cell_angle_gamma 90.000000
_cell_volume 10098.586812
_symmetry_space_group_name_H-M "F D D D"
_symmetry_group_IT_number 70
_space_group.IT_coordinate_system_code '2'
_symmetry_cell_setting 'orthorhombic'
loop_
_space_group_symop_operation_xyz
x,y,z
1/4-x,1/4-y,z
x,1/4-y,1/4-z
1/4-x,y,1/4-z
-x,-y,-z
3/4+x,3/4+y,-z
-x,3/4+y,3/4+z
3/4+x,-y,3/4+z
x,1/2+y,1/2+z
1/4-x,3/4-y,1/2+z
x,3/4-y,3/4-z
1/4-x,1/2+y,3/4-z
-x,1/2-y,1/2-z
3/4+x,1/4+y,1/2-z
-x,1/4+y,1/4+z
3/4+x,1/2-y,1/4+z
1/2+x,y,1/2+z
3/4-x,1/4-y,1/2+z
1/2+x,1/4-y,3/4-z
3/4-x,y,3/4-z
1/2-x,-y,1/2-z
1/4+x,3/4+y,1/2-z
1/2-x,3/4+y,1/4+z
1/4+x,-y,1/4+z
1/2+x,1/2+y,z
3/4-x,3/4-y,z
1/2+x,3/4-y,1/4-z
3/4-x,1/2+y,1/4-z
1/2-x,1/2-y,-z
1/4+x,1/4+y,-z
1/2-x,1/4+y,3/4+z
1/4+x,1/2-y,3/4+z
loop_
_atom_site_type_symbol
_atom_site_label
_atom_site_fract_x
_atom_site_fract_y
_atom_site_fract_z
Si Si1 0.125000 0.290673 0.125000
Si Si2 0.756808 0.377218 0.585503
Si Si3 0.758993 0.290669 0.082469
Si Si4 0.624803 0.918334 0.251520
Si Si5 0.625000 0.544023 0.625000
Si Si6 0.281915 0.906603 0.968469
Si Si7 0.527767 0.239045 0.951394
O O1 0.207849 0.326677 0.102056
O O2 0.181868 0.260995 0.166678
O O3 0.875000 0.375000 0.577163
O O4 0.740200 0.416528 0.628677
O O5 0.698676 0.393886 0.537487
O O6 0.706077 0.241512 0.100360
O O7 0.876427 0.283148 0.076373
O O8 0.708130 0.304355 0.031390
O O9 0.685853 0.878454 0.282168
O O10 0.563424 0.958225 0.281120
O O11 0.680218 0.574880 0.583639
O O12 0.375000 0.875000 0.989365
O O13 0.260833 0.952711 0.003062
#
# Coordination Sequence:
#
# PCOD9516997 Si02
#       7
#    16  32  32  32  16  32  32
#     4  12  23  40  64  95 137 172 224 280 333 406
#     4  12  22  38  65  99 129 172 228 275 327 404
#     4  12  20  37  65  95 135 170 211 282 335 405
#     4  12  23  41  64  95 137 174 220 277 341 405
#     4  12  24  40  60 101 138 174 219 270 349 417
#     4  12  23  38  63  96 135 172 217 279 345 404
#     4  12  24  40  64  98 131 174 226 275 342 403
#
# _framework density 19.012561000000002
#
# number of rings (size 3 to 8) (size 9 to 14) (size 15 to 20)
#    0.000    0.000   10.000    1.750    0.000    0.000 
#    0.000    2.500    0.000    0.000    0.000    0.000 
#    0.000    0.000    0.000    0.000    0.000    0.000 
#
# Total GULP energy -268520.648120 kJ/mol
# GULP energy per Si atom -5594.180169 kJ/mol
# Density = 1.896929 g / cm^3
# Si number density = 19.012561 Si / 1000 Ang^3
#
#
#
# Elastic Constant Matrix: (Units=GPa)
#
#
# Indices 1 2 3 4 5 6 
#
# 1 111.2177 46.5251 53.4444 0.0000 0.0000 0.0000
# 2 46.5251 110.0761 63.6296 0.0000 0.0000 0.0000
# 3 53.4444 63.6296 113.7464 0.0000 0.0000 0.0000
# 4 0.0000 0.0000 0.0000 18.9844 0.0000 0.0000
# 5 0.0000 0.0000 0.0000 0.0000 35.2871 0.0000
# 6 0.0000 0.0000 0.0000 0.0000 0.0000 23.3649
#
#
#
# Elastic Compliance Matrix: (Units=1/GPa)
#
#
# Indices 1 2 3 4 5 6 
#
# 1 0.012137 -0.002710 -0.004187 0.000000 0.000000 0.000000
# 2 -0.002710 0.014031 -0.006576 0.000000 0.000000 0.000000
# 3 -0.004187 -0.006576 0.014437 0.000000 0.000000 0.000000
# 4 0.000000 0.000000 0.000000 0.052675 0.000000 0.000000
# 5 0.000000 0.000000 0.000000 0.000000 0.028339 0.000000
# 6 0.000000 0.000000 0.000000 0.000000 0.000000 0.042799
#
#
# Mechanical properties :
#
#
# Convention : Reuss Voigt Hill
#
# Bulk Modulus (GPa) = 73.20336 73.58206 73.39271
# Shear Modulus (GPa) = 25.52114 26.95667 26.23890
#
# Velocity S-wave (km/s) = 3.66776 3.76950 3.71898
# Velocity P-wave (km/s) = 7.51817 7.59811 7.55825
#
# Compressibility (1/GPa) = 0.01366057
#
# Stress axis : x y z
#
# Youngs Moduli (GPa) = 82.39412 71.27058 69.26548
#
# Poissons Ratio (x) = 0.19311 0.29000
# Poissons Ratio (y) = 0.22325 0.45548
# Poissons Ratio (z) = 0.34497 0.46866
#
# Static dielectric constant tensor:
#      x y z
#    x 1.644350 0.000000 0.000000 
#    y 0.000000 1.688310 0.000000 
#    z 0.000000 0.000000 1.665800 
# 
# From -- ./inp_files/57830.got.cif
#   From: 2010.05.17/outbox.cif.g08.bks.cpg/sg70_29_cif.got.tgz:57830.got - 2010.06.03 15:57:51.
