data_PCOD9516330
_publ_section_title
;
Structure prediction by ZEFSAII (Michael W. Deem and Ramdas Pophale) SiO2 
 PCOD9516330
Probable space group: F D D D
;
_chemical_formula_sum "Si O2"
_cell_formula_units_Z 208
_cell_length_a 17.296936
_cell_length_b 22.497161
_cell_length_c 27.483901
_cell_angle_alpha 90.000000
_cell_angle_beta 90.000000
_cell_angle_gamma 90.000000
_cell_volume 10694.864100
_symmetry_space_group_name_H-M "F D D D"
_symmetry_group_IT_number 70
_space_group.IT_coordinate_system_code '2'
_symmetry_cell_setting 'orthorhombic'
loop_
_space_group_symop_operation_xyz
x,y,z
1/4-x,1/4-y,z
x,1/4-y,1/4-z
1/4-x,y,1/4-z
-x,-y,-z
3/4+x,3/4+y,-z
-x,3/4+y,3/4+z
3/4+x,-y,3/4+z
x,1/2+y,1/2+z
1/4-x,3/4-y,1/2+z
x,3/4-y,3/4-z
1/4-x,1/2+y,3/4-z
-x,1/2-y,1/2-z
3/4+x,1/4+y,1/2-z
-x,1/4+y,1/4+z
3/4+x,1/2-y,1/4+z
1/2+x,y,1/2+z
3/4-x,1/4-y,1/2+z
1/2+x,1/4-y,3/4-z
3/4-x,y,3/4-z
1/2-x,-y,1/2-z
1/4+x,3/4+y,1/2-z
1/2-x,3/4+y,1/4+z
1/4+x,-y,1/4+z
1/2+x,1/2+y,z
3/4-x,3/4-y,z
1/2+x,3/4-y,1/4-z
3/4-x,1/2+y,1/4-z
1/2-x,1/2-y,-z
1/4+x,1/4+y,-z
1/2-x,1/4+y,3/4+z
1/4+x,1/2-y,3/4+z
loop_
_atom_site_type_symbol
_atom_site_label
_atom_site_fract_x
_atom_site_fract_y
_atom_site_fract_z
Si Si1 0.497364 0.875000 0.375000
Si Si2 0.872642 0.127961 0.542439
Si Si3 0.499939 0.375000 0.375000
Si Si4 0.440812 0.686345 0.952731
Si Si5 0.347326 0.490561 0.008577
Si Si6 0.449649 0.001935 0.354391
Si Si7 0.125000 0.228476 0.625000
Si Si8 0.053064 0.584395 0.416653
O O1 0.550293 0.869192 0.422226
O O2 0.454837 0.812735 0.370743
O O3 0.859655 0.082496 0.498990
O O4 0.874377 0.193719 0.520643
O O5 0.946661 0.122391 0.577177
O O6 0.447449 0.316229 0.373772
O O7 0.516759 0.724819 0.965467
O O8 0.387384 0.726676 0.919289
O O9 0.481370 0.627220 0.930365
O O10 0.411987 0.447569 0.034173
O O11 0.321905 0.489865 0.951914
O O12 0.375000 0.035247 0.375000
O O13 0.523805 0.038241 0.375048
O O14 0.125000 0.625000 0.398941
#
# Coordination Sequence:
#
# PCOD9516330 Si02
#       8
#    16  32  16  32  32  32  16  32
#     4  11  23  39  65  95 135 170 220 284 324 414
#     4  11  22  41  67  95 130 174 222 275 340 396
#     4  10  24  45  73  94 130 180 218 286 346 392
#     4  11  24  41  67  97 131 174 223 276 337 408
#     4  11  23  43  65  94 135 175 221 268 341 402
#     4  12  25  39  65 103 131 178 228 276 338 408
#     4  11  24  46  68  98 134 171 228 276 344 409
#     4  10  25  44  65  95 141 185 218 282 347 402
#
# _framework density 19.448587
#
# number of rings (size 3 to 8) (size 9 to 14) (size 15 to 20)
#    0.000    1.077    4.615    1.154    5.385    3.077 
#    0.000    1.538    0.000    0.000    0.000    0.000 
#    0.000    0.000    0.000    0.000    0.000    0.000 
#
# Total GULP energy -289851.115953 kJ/mol
# GULP energy per Si atom -5574.059922 kJ/mol
# Density = 1.940432 g / cm^3
# Si number density = 19.448587 Si / 1000 Ang^3
#
#
#
# Elastic Constant Matrix: (Units=GPa)
#
#
# Indices 1 2 3 4 5 6 
#
# 1 102.5922 57.7371 48.8894 0.0000 0.0000 0.0000
# 2 57.7371 95.4467 70.8441 0.0000 0.0000 0.0000
# 3 48.8894 70.8441 103.2435 0.0000 0.0000 0.0000
# 4 0.0000 0.0000 0.0000 17.4101 0.0000 0.0000
# 5 0.0000 0.0000 0.0000 0.0000 -38.2170 0.0000
# 6 0.0000 0.0000 0.0000 0.0000 0.0000 5.5613
#
#
#
# Elastic Compliance Matrix: (Units=1/GPa)
#
#
# Indices 1 2 3 4 5 6 
#
# 1 0.014937 -0.007715 -0.001779 0.000000 0.000000 0.000000
# 2 -0.007715 0.025336 -0.013732 0.000000 0.000000 0.000000
# 3 -0.001779 -0.013732 0.019951 0.000000 0.000000 0.000000
# 4 0.000000 0.000000 0.000000 0.057438 0.000000 0.000000
# 5 0.000000 0.000000 0.000000 0.000000 -0.026166 0.000000
# 6 0.000000 0.000000 0.000000 0.000000 0.000000 0.179813
#
#
# Mechanical properties :
#
#
# Convention : Reuss Voigt Hill
#
# Bulk Modulus (GPa) = 72.61209 72.91371 72.76290
# Shear Modulus (GPa) = 15.51094 5.20501 10.35797
#
# Velocity S-wave (km/s) = 2.82713 1.63771 2.31028
# Velocity P-wave (km/s) = 6.93349 6.41467 6.67912
#
# Compressibility (1/GPa) = 0.01377181
#
# Stress axis : x y z
#
# Youngs Moduli (GPa) = 66.94731 39.46882 50.12219
#
# Poissons Ratio (x) = 0.30450 0.08919
# Poissons Ratio (y) = 0.51650 0.68829
# Poissons Ratio (z) = 0.11912 0.54199
#
# Static dielectric constant tensor:
#      x y z
#    x 1.679860 0.000000 0.000000 
#    y 0.000000 1.663190 0.000000 
#    z 0.000000 0.000000 1.687040 
# 
# From -- ./inp_files/59643.got.cif
#   From: 2010.05.17/outbox.cif.g08.bks.cpg/sg70_30_cif.got.tgz:59643.got - 2010.06.03 15:57:51.
