data_PCOD9516857
_publ_section_title
;
Structure prediction by ZEFSAII (Michael W. Deem and Ramdas Pophale) SiO2 
 PCOD9516857
Probable space group: F D D D
;
_chemical_formula_sum "Si O2"
_cell_formula_units_Z 192
_cell_length_a 28.041424
_cell_length_b 12.652530
_cell_length_c 23.112571
_cell_angle_alpha 90.000000
_cell_angle_beta 90.000000
_cell_angle_gamma 90.000000
_cell_volume 8200.223667
_symmetry_space_group_name_H-M "F D D D"
_symmetry_group_IT_number 70
_space_group.IT_coordinate_system_code '2'
_symmetry_cell_setting 'orthorhombic'
loop_
_space_group_symop_operation_xyz
x,y,z
1/4-x,1/4-y,z
x,1/4-y,1/4-z
1/4-x,y,1/4-z
-x,-y,-z
3/4+x,3/4+y,-z
-x,3/4+y,3/4+z
3/4+x,-y,3/4+z
x,1/2+y,1/2+z
1/4-x,3/4-y,1/2+z
x,3/4-y,3/4-z
1/4-x,1/2+y,3/4-z
-x,1/2-y,1/2-z
3/4+x,1/4+y,1/2-z
-x,1/4+y,1/4+z
3/4+x,1/2-y,1/4+z
1/2+x,y,1/2+z
3/4-x,1/4-y,1/2+z
1/2+x,1/4-y,3/4-z
3/4-x,y,3/4-z
1/2-x,-y,1/2-z
1/4+x,3/4+y,1/2-z
1/2-x,3/4+y,1/4+z
1/4+x,-y,1/4+z
1/2+x,1/2+y,z
3/4-x,3/4-y,z
1/2+x,3/4-y,1/4-z
3/4-x,1/2+y,1/4-z
1/2-x,1/2-y,-z
1/4+x,1/4+y,-z
1/2-x,1/4+y,3/4+z
1/4+x,1/2-y,3/4+z
loop_
_atom_site_type_symbol
_atom_site_label
_atom_site_fract_x
_atom_site_fract_y
_atom_site_fract_z
Si Si1 0.633266 0.375000 0.375000
Si Si2 0.565939 0.836665 0.256202
Si Si3 0.125000 0.625000 0.625000
Si Si4 0.452073 0.479706 0.452924
Si Si5 0.549594 0.222548 0.334770
Si Si6 0.666621 0.292401 0.709995
Si Si7 0.625000 0.625000 0.625000
Si Si8 0.218493 0.607707 0.456232
O O1 0.667538 0.382575 0.319983
O O2 0.596823 0.281190 0.357361
O O3 0.613777 0.838580 0.218831
O O4 0.549902 0.715136 0.264233
O O5 0.523184 0.901574 0.227201
O O6 0.159209 0.701719 0.662311
O O7 0.503552 0.451704 0.426388
O O8 0.443677 0.437111 0.518098
O O9 0.450355 0.607777 0.450668
O O10 0.409379 0.443011 0.414170
O O11 0.536507 0.143245 0.386918
O O12 0.685852 0.234474 0.767291
#
# Coordination Sequence:
#
# PCOD9516857 Si02
#       8
#    16  32   8  32  32  32   8  32
#     4  12  23  45  76 103 151 188 254 306 372 444
#     4  11  25  45  70 113 145 199 244 306 381 449
#     4  12  26  38  78 102 146 192 250 296 392 434
#     4  11  27  46  72 106 143 196 252 306 386 441
#     4  11  24  45  71 102 138 192 241 304 370 444
#     4  12  24  48  72 106 149 196 243 315 373 461
#     4  12  28  48  70 102 150 188 258 320 368 462
#     4  11  25  45  74 105 153 189 246 311 380 456
#
# _framework density 23.413995
#
# number of rings (size 3 to 8) (size 9 to 14) (size 15 to 20)
#    0.000    0.667    5.000    1.000    4.667    4.667 
#    0.000    0.000    0.000    0.000    0.000    0.000 
#    0.000    0.000    0.000    0.000    0.000    0.000 
#
# Total GULP energy -268397.214770 kJ/mol
# GULP energy per Si atom -5591.608641 kJ/mol
# Density = 2.336070 g / cm^3
# Si number density = 23.413995 Si / 1000 Ang^3
#
#
#
# Elastic Constant Matrix: (Units=GPa)
#
#
# Indices 1 2 3 4 5 6 
#
# 1 109.6694 5.1906 24.0666 0.0000 0.0000 0.0000
# 2 5.1906 41.5515 30.8870 0.0000 0.0000 0.0000
# 3 24.0666 30.8870 123.6288 0.0000 0.0000 0.0000
# 4 0.0000 0.0000 0.0000 40.1088 0.0000 0.0000
# 5 0.0000 0.0000 0.0000 0.0000 52.3787 0.0000
# 6 0.0000 0.0000 0.0000 0.0000 0.0000 18.9485
#
#
#
# Elastic Compliance Matrix: (Units=1/GPa)
#
#
# Indices 1 2 3 4 5 6 
#
# 1 0.009527 0.000231 -0.001912 0.000000 0.000000 0.000000
# 2 0.000231 0.029561 -0.007430 0.000000 0.000000 0.000000
# 3 -0.001912 -0.007430 0.010317 0.000000 0.000000 0.000000
# 4 0.000000 0.000000 0.000000 0.024932 0.000000 0.000000
# 5 0.000000 0.000000 0.000000 0.000000 0.019092 0.000000
# 6 0.000000 0.000000 0.000000 0.000000 0.000000 0.052775
#
#
# Mechanical properties :
#
#
# Convention : Reuss Voigt Hill
#
# Bulk Modulus (GPa) = 32.06920 43.90423 37.98671
# Shear Modulus (GPa) = 28.60070 36.60092 32.60081
#
# Velocity S-wave (km/s) = 3.49882 3.95803 3.73549
# Velocity P-wave (km/s) = 5.48166 6.29921 5.90460
#
# Compressibility (1/GPa) = 0.03118257
#
# Stress axis : x y z
#
# Youngs Moduli (GPa) = 104.96445 33.82843 96.92349
#
# Poissons Ratio (x) = -0.00783 0.18536
# Poissons Ratio (y) = -0.02430 0.72019
# Poissons Ratio (z) = 0.20074 0.25136
#
# Static dielectric constant tensor:
#      x y z
#    x 1.852190 0.000000 0.000000 
#    y 0.000000 1.926590 0.000000 
#    z 0.000000 0.000000 1.928100 
# 
# From -- ./inp_files/54374.got.cif
#   From: 2010.05.17/outbox.cif.g08.bks.cpg/sg70_28_cif.got.tgz:54374.got - 2010.06.03 15:57:51.
