data_PCOD9516381
_publ_section_title
;
Structure prediction by ZEFSAII (Michael W. Deem and Ramdas Pophale) SiO2 
 PCOD9516381
Probable space group: F D D D
;
_chemical_formula_sum "Si O2"
_cell_formula_units_Z 112
_cell_length_a 10.238164
_cell_length_b 24.425495
_cell_length_c 17.173933
_cell_angle_alpha 90.000000
_cell_angle_beta 90.000000
_cell_angle_gamma 90.000000
_cell_volume 4294.723613
_symmetry_space_group_name_H-M "F D D D"
_symmetry_group_IT_number 70
_space_group.IT_coordinate_system_code '2'
_symmetry_cell_setting 'orthorhombic'
loop_
_space_group_symop_operation_xyz
x,y,z
1/4-x,1/4-y,z
x,1/4-y,1/4-z
1/4-x,y,1/4-z
-x,-y,-z
3/4+x,3/4+y,-z
-x,3/4+y,3/4+z
3/4+x,-y,3/4+z
x,1/2+y,1/2+z
1/4-x,3/4-y,1/2+z
x,3/4-y,3/4-z
1/4-x,1/2+y,3/4-z
-x,1/2-y,1/2-z
3/4+x,1/4+y,1/2-z
-x,1/4+y,1/4+z
3/4+x,1/2-y,1/4+z
1/2+x,y,1/2+z
3/4-x,1/4-y,1/2+z
1/2+x,1/4-y,3/4-z
3/4-x,y,3/4-z
1/2-x,-y,1/2-z
1/4+x,3/4+y,1/2-z
1/2-x,3/4+y,1/4+z
1/4+x,-y,1/4+z
1/2+x,1/2+y,z
3/4-x,3/4-y,z
1/2+x,3/4-y,1/4-z
3/4-x,1/2+y,1/4-z
1/2-x,1/2-y,-z
1/4+x,1/4+y,-z
1/2-x,1/4+y,3/4+z
1/4+x,1/2-y,3/4+z
loop_
_atom_site_type_symbol
_atom_site_label
_atom_site_fract_x
_atom_site_fract_y
_atom_site_fract_z
Si Si1 0.778310 0.220344 0.711210
Si Si2 0.738880 0.307867 0.454738
Si Si3 0.375000 0.567555 0.375000
Si Si4 0.252296 0.899899 0.029622
O O1 0.644717 0.184451 0.705225
O O2 0.834822 0.203593 0.627289
O O3 0.844366 0.214597 0.795538
O O4 0.762901 0.286164 0.701408
O O5 0.750000 0.250000 0.500000
O O6 0.642975 0.351659 0.493040
O O7 0.492354 0.608034 0.398481
O O8 0.375000 0.875000 0.983034
#
# Coordination Sequence:
#
# PCOD9516381 Si02
#       4
#    32  32  16  32
#     4  10  24  49  79 108 150 213 264 328 386 483
#     4   9  20  47  81 104 147 201 274 320 378 468
#     4  12  28  46  75 110 158 201 260 326 414 464
#     4  11  26  45  75 112 155 196 259 326 395 468
#
# _framework density 26.078510999999999
#
# number of rings (size 3 to 8) (size 9 to 14) (size 15 to 20)
#    0.000    1.714    0.000    3.429   12.000    2.286 
#    5.143    2.857    0.000    0.000    0.000    0.000 
#    0.000    0.000    0.000    0.000    0.000    0.000 
#
# Total GULP energy -155958.762760 kJ/mol
# GULP energy per Si atom -5569.955813 kJ/mol
# Density = 2.601915 g / cm^3
# Si number density = 26.078511 Si / 1000 Ang^3
#
#
#
# Elastic Constant Matrix: (Units=GPa)
#
#
# Indices 1 2 3 4 5 6 
#
# 1 106.7510 15.6462 8.3267 0.0000 0.0000 0.0000
# 2 15.6462 83.7224 16.2137 0.0000 0.0000 0.0000
# 3 8.3267 16.2137 168.5066 0.0000 0.0000 0.0000
# 4 0.0000 0.0000 0.0000 14.8679 0.0000 0.0000
# 5 0.0000 0.0000 0.0000 0.0000 28.4353 0.0000
# 6 0.0000 0.0000 0.0000 0.0000 0.0000 49.8046
#
#
#
# Elastic Compliance Matrix: (Units=1/GPa)
#
#
# Indices 1 2 3 4 5 6 
#
# 1 0.009647 -0.001743 -0.000309 0.000000 0.000000 0.000000
# 2 -0.001743 0.012486 -0.001115 0.000000 0.000000 0.000000
# 3 -0.000309 -0.001115 0.006057 0.000000 0.000000 0.000000
# 4 0.000000 0.000000 0.000000 0.067259 0.000000 0.000000
# 5 0.000000 0.000000 0.000000 0.000000 0.035168 0.000000
# 6 0.000000 0.000000 0.000000 0.000000 0.000000 0.020078
#
#
# Mechanical properties :
#
#
# Convention : Reuss Voigt Hill
#
# Bulk Modulus (GPa) = 45.75489 48.81703 47.28596
# Shear Modulus (GPa) = 30.42932 39.87445 35.15188
#
# Velocity S-wave (km/s) = 3.41960 3.91450 3.67539
# Velocity P-wave (km/s) = 5.75975 6.26027 6.01522
#
# Compressibility (1/GPa) = 0.02185559
#
# Stress axis : x y z
#
# Youngs Moduli (GPa) = 103.65740 80.08991 165.09644
#
# Poissons Ratio (x) = 0.13960 0.05101
# Poissons Ratio (y) = 0.18068 0.18413
# Poissons Ratio (z) = 0.03203 0.08932
#
# Static dielectric constant tensor:
#      x y z
#    x 2.678850 0.000000 0.000000 
#    y 0.000000 2.060960 0.000000 
#    z 0.000000 0.000000 2.377520 
# 
# From -- ./inp_files/24454.got.cif
#   From: 2010.05.17/outbox.cif.g08.bks.cpg/sg70_13_cif.got.tgz:24454.got - 2010.06.03 15:57:51.
