data_PCOD9516856
_publ_section_title
;
Structure prediction by ZEFSAII (Michael W. Deem and Ramdas Pophale) SiO2 
 PCOD9516856
Probable space group: F D D D
;
_chemical_formula_sum "Si O2"
_cell_formula_units_Z 216
_cell_length_a 14.783475
_cell_length_b 26.675348
_cell_length_c 25.189032
_cell_angle_alpha 90.000000
_cell_angle_beta 90.000000
_cell_angle_gamma 90.000000
_cell_volume 9933.404097
_symmetry_space_group_name_H-M "F D D D"
_symmetry_group_IT_number 70
_space_group.IT_coordinate_system_code '2'
_symmetry_cell_setting 'orthorhombic'
loop_
_space_group_symop_operation_xyz
x,y,z
1/4-x,1/4-y,z
x,1/4-y,1/4-z
1/4-x,y,1/4-z
-x,-y,-z
3/4+x,3/4+y,-z
-x,3/4+y,3/4+z
3/4+x,-y,3/4+z
x,1/2+y,1/2+z
1/4-x,3/4-y,1/2+z
x,3/4-y,3/4-z
1/4-x,1/2+y,3/4-z
-x,1/2-y,1/2-z
3/4+x,1/4+y,1/2-z
-x,1/4+y,1/4+z
3/4+x,1/2-y,1/4+z
1/2+x,y,1/2+z
3/4-x,1/4-y,1/2+z
1/2+x,1/4-y,3/4-z
3/4-x,y,3/4-z
1/2-x,-y,1/2-z
1/4+x,3/4+y,1/2-z
1/2-x,3/4+y,1/4+z
1/4+x,-y,1/4+z
1/2+x,1/2+y,z
3/4-x,3/4-y,z
1/2+x,3/4-y,1/4-z
3/4-x,1/2+y,1/4-z
1/2-x,1/2-y,-z
1/4+x,1/4+y,-z
1/2-x,1/4+y,3/4+z
1/4+x,1/2-y,3/4+z
loop_
_atom_site_type_symbol
_atom_site_label
_atom_site_fract_x
_atom_site_fract_y
_atom_site_fract_z
Si Si1 0.288180 0.578574 0.593286
Si Si2 0.477872 0.385990 0.734469
Si Si3 0.085432 0.784169 0.734436
Si Si4 0.416516 0.988963 0.064760
Si Si5 0.625000 0.625000 0.625000
Si Si6 0.900058 0.792146 0.298679
Si Si7 0.875000 0.265200 0.375000
Si Si8 0.719601 0.511021 0.930038
O O1 0.330841 0.625000 0.625000
O O2 0.228451 0.601974 0.546652
O O3 0.358223 0.540142 0.566807
O O4 0.216373 0.547877 0.628381
O O5 0.375000 0.375000 0.717724
O O6 0.546807 0.340134 0.727671
O O7 0.503312 0.437513 0.706044
O O8 0.128664 0.766606 0.678880
O O9 0.155677 0.771296 0.781120
O O10 0.000000 0.750000 0.750000
O O11 0.416748 0.973500 0.126500
O O12 0.521241 0.001580 0.054580
O O13 0.385070 0.954535 0.015376
O O14 0.678617 0.590810 0.667667
O O15 0.808184 0.773015 0.325726
#
# Coordination Sequence:
#
# PCOD9516856 Si02
#       8
#    32  32  32  32   8  32  16  32
#     4  12  23  39  72 105 136 187 249 300 370 454
#     4  12  24  43  69 102 141 193 234 294 380 448
#     4  12  24  43  70 103 148 191 240 302 374 450
#     4  11  24  45  71 100 140 185 241 308 371 433
#     4  12  24  48  78  96 144 188 248 302 364 414
#     4  11  25  47  72 104 140 184 245 311 361 435
#     4  12  23  44  63 104 156 187 236 315 366 444
#     4  12  23  48  70  99 154 188 236 317 375 437
#
# _framework density 21.744810999999999
#
# number of rings (size 3 to 8) (size 9 to 14) (size 15 to 20)
#    0.000    0.296    5.926    3.778    1.037    1.185 
#    4.000    0.000    0.000    0.000    0.000    0.000 
#    0.000    0.000    0.000    0.000    0.000    0.000 
#
# Total GULP energy -301483.826892 kJ/mol
# GULP energy per Si atom -5583.033831 kJ/mol
# Density = 2.169532 g / cm^3
# Si number density = 21.744811 Si / 1000 Ang^3
#
#
#
# Elastic Constant Matrix: (Units=GPa)
#
#
# Indices 1 2 3 4 5 6 
#
# 1 80.4809 21.6379 6.1544 0.0000 0.0000 0.0000
# 2 21.6379 99.6353 45.9742 0.0000 0.0000 0.0000
# 3 6.1544 45.9742 157.9811 0.0000 0.0000 0.0000
# 4 0.0000 0.0000 0.0000 32.1235 0.0000 0.0000
# 5 0.0000 0.0000 0.0000 0.0000 27.8057 0.0000
# 6 0.0000 0.0000 0.0000 0.0000 0.0000 22.9016
#
#
#
# Elastic Compliance Matrix: (Units=1/GPa)
#
#
# Indices 1 2 3 4 5 6 
#
# 1 0.013214 -0.003041 0.000370 0.000000 0.000000 0.000000
# 2 -0.003041 0.012293 -0.003459 0.000000 0.000000 0.000000
# 3 0.000370 -0.003459 0.007322 0.000000 0.000000 0.000000
# 4 0.000000 0.000000 0.000000 0.031130 0.000000 0.000000
# 5 0.000000 0.000000 0.000000 0.000000 0.035964 0.000000
# 6 0.000000 0.000000 0.000000 0.000000 0.000000 0.043665
#
#
# Mechanical properties :
#
#
# Convention : Reuss Voigt Hill
#
# Bulk Modulus (GPa) = 48.61307 53.95893 51.28600
# Shear Modulus (GPa) = 30.73063 34.18820 32.45941
#
# Velocity S-wave (km/s) = 3.76339 3.96946 3.86779
# Velocity P-wave (km/s) = 6.42564 6.77328 6.60175
#
# Compressibility (1/GPa) = 0.02057060
#
# Stress axis : x y z
#
# Youngs Moduli (GPa) = 75.67456 81.34741 136.57390
#
# Poissons Ratio (x) = 0.24734 -0.05054
# Poissons Ratio (y) = 0.23009 0.47240
# Poissons Ratio (z) = -0.02800 0.28138
#
# Static dielectric constant tensor:
#      x y z
#    x 1.796700 0.000000 0.000000 
#    y 0.000000 1.817500 0.000000 
#    z 0.000000 0.000000 1.873990 
# 
# From -- ./inp_files/58811.got.cif
#   From: 2010.05.17/outbox.cif.g08.bks.cpg/sg70_30_cif.got.tgz:58811.got - 2010.06.03 15:57:51.
