data_PCOD9516215
_publ_section_title
;
Structure prediction by ZEFSAII (Michael W. Deem and Ramdas Pophale) SiO2 
 PCOD9516215
Probable space group: F D D D
;
_chemical_formula_sum "Si O2"
_cell_formula_units_Z 88
_cell_length_a 26.416634
_cell_length_b 18.319093
_cell_length_c 8.823084
_cell_angle_alpha 90.000000
_cell_angle_beta 90.000000
_cell_angle_gamma 90.000000
_cell_volume 4269.744232
_symmetry_space_group_name_H-M "F D D D"
_symmetry_group_IT_number 70
_space_group.IT_coordinate_system_code '2'
_symmetry_cell_setting 'orthorhombic'
loop_
_space_group_symop_operation_xyz
x,y,z
1/4-x,1/4-y,z
x,1/4-y,1/4-z
1/4-x,y,1/4-z
-x,-y,-z
3/4+x,3/4+y,-z
-x,3/4+y,3/4+z
3/4+x,-y,3/4+z
x,1/2+y,1/2+z
1/4-x,3/4-y,1/2+z
x,3/4-y,3/4-z
1/4-x,1/2+y,3/4-z
-x,1/2-y,1/2-z
3/4+x,1/4+y,1/2-z
-x,1/4+y,1/4+z
3/4+x,1/2-y,1/4+z
1/2+x,y,1/2+z
3/4-x,1/4-y,1/2+z
1/2+x,1/4-y,3/4-z
3/4-x,y,3/4-z
1/2-x,-y,1/2-z
1/4+x,3/4+y,1/2-z
1/2-x,3/4+y,1/4+z
1/4+x,-y,1/4+z
1/2+x,1/2+y,z
3/4-x,3/4-y,z
1/2+x,3/4-y,1/4-z
3/4-x,1/2+y,1/4-z
1/2-x,1/2-y,-z
1/4+x,1/4+y,-z
1/2-x,1/4+y,3/4+z
1/4+x,1/2-y,3/4+z
loop_
_atom_site_type_symbol
_atom_site_label
_atom_site_fract_x
_atom_site_fract_y
_atom_site_fract_z
Si Si1 0.867279 0.125000 0.125000
Si Si2 0.537407 0.297406 0.848606
Si Si3 0.443387 0.003745 0.941021
Si Si4 0.375000 0.875000 0.875000
O O1 0.907768 0.073322 0.035013
O O2 0.834123 0.072452 0.230329
O O3 0.510264 0.375000 0.875000
O O4 0.500000 0.250000 0.750000
O O5 0.551413 0.262709 0.010037
O O6 0.411133 0.930196 0.967823
O O7 0.500000 0.000000 0.000000
#
# Coordination Sequence:
#
# PCOD9516215 Si02
#       4
#    16  32  32   8
#     4  10  23  46  70  99 147 190 233 294 358 424
#     4  10  24  43  68 100 144 183 234 289 358 426
#     4  12  26  42  74 101 142 187 240 293 356 428
#     4  12  22  44  68 110 132 178 246 286 340 426
#
# _framework density 20.610136000000001
#
# number of rings (size 3 to 8) (size 9 to 14) (size 15 to 20)
#    1.091    0.000    3.636    1.091   10.182    0.000 
#    0.000    0.000    0.000    4.364    0.000    0.000 
#    0.000    0.000    0.000    0.000    0.000    0.000 
#
# Total GULP energy -122632.668078 kJ/mol
# GULP energy per Si atom -5574.212185 kJ/mol
# Density = 2.056323 g / cm^3
# Si number density = 20.610136 Si / 1000 Ang^3
#
#
#
# Elastic Constant Matrix: (Units=GPa)
#
#
# Indices 1 2 3 4 5 6 
#
# 1 212.6937 103.0281 74.3106 0.0000 0.0000 0.0000
# 2 103.0281 161.8841 79.0765 0.0000 0.0000 0.0000
# 3 74.3106 79.0765 89.6631 0.0000 0.0000 0.0000
# 4 0.0000 0.0000 0.0000 39.9401 0.0000 0.0000
# 5 0.0000 0.0000 0.0000 0.0000 19.0515 0.0000
# 6 0.0000 0.0000 0.0000 0.0000 0.0000 14.3597
#
#
#
# Elastic Compliance Matrix: (Units=1/GPa)
#
#
# Indices 1 2 3 4 5 6 
#
# 1 0.007361 -0.002995 -0.003459 0.000000 0.000000 0.000000
# 2 -0.002995 0.012071 -0.008164 0.000000 0.000000 0.000000
# 3 -0.003459 -0.008164 0.021220 0.000000 0.000000 0.000000
# 4 0.000000 0.000000 0.000000 0.025037 0.000000 0.000000
# 5 0.000000 0.000000 0.000000 0.000000 0.052489 0.000000
# 6 0.000000 0.000000 0.000000 0.000000 0.000000 0.069639
#
#
# Mechanical properties :
#
#
# Convention : Reuss Voigt Hill
#
# Bulk Modulus (GPa) = 87.59752 108.56349 98.08051
# Shear Modulus (GPa) = 22.63889 28.52530 25.58209
#
# Velocity S-wave (km/s) = 3.31786 3.72431 3.52694
# Velocity P-wave (km/s) = 7.56783 8.44293 8.01733
#
# Compressibility (1/GPa) = 0.01141585
#
# Stress axis : x y z
#
# Youngs Moduli (GPa) = 135.85240 82.84207 47.12629
#
# Poissons Ratio (x) = 0.24811 0.16302
# Poissons Ratio (y) = 0.40688 0.38473
# Poissons Ratio (z) = 0.46994 0.67630
#
# Static dielectric constant tensor:
#      x y z
#    x 1.758760 0.000000 0.000000 
#    y 0.000000 1.784030 0.000000 
#    z 0.000000 0.000000 1.740360 
# 
# From -- ./inp_files/7144.got.cif
#   From: 2010.05.17/outbox.cif.g08.bks.cpg/sg70_4_cif.got.tgz:7144.got - 2010.06.03 15:57:51.
