data_PCOD9516940
_publ_section_title
;
Structure prediction by ZEFSAII (Michael W. Deem and Ramdas Pophale) SiO2 
 PCOD9516940
Probable space group: F D D D
;
_chemical_formula_sum "Si O2"
_cell_formula_units_Z 104
_cell_length_a 31.269337
_cell_length_b 6.315470
_cell_length_c 24.818954
_cell_angle_alpha 90.000000
_cell_angle_beta 90.000000
_cell_angle_gamma 90.000000
_cell_volume 4901.260928
_symmetry_space_group_name_H-M "F D D D"
_symmetry_group_IT_number 70
_space_group.IT_coordinate_system_code '2'
_symmetry_cell_setting 'orthorhombic'
loop_
_space_group_symop_operation_xyz
x,y,z
1/4-x,1/4-y,z
x,1/4-y,1/4-z
1/4-x,y,1/4-z
-x,-y,-z
3/4+x,3/4+y,-z
-x,3/4+y,3/4+z
3/4+x,-y,3/4+z
x,1/2+y,1/2+z
1/4-x,3/4-y,1/2+z
x,3/4-y,3/4-z
1/4-x,1/2+y,3/4-z
-x,1/2-y,1/2-z
3/4+x,1/4+y,1/2-z
-x,1/4+y,1/4+z
3/4+x,1/2-y,1/4+z
1/2+x,y,1/2+z
3/4-x,1/4-y,1/2+z
1/2+x,1/4-y,3/4-z
3/4-x,y,3/4-z
1/2-x,-y,1/2-z
1/4+x,3/4+y,1/2-z
1/2-x,3/4+y,1/4+z
1/4+x,-y,1/4+z
1/2+x,1/2+y,z
3/4-x,3/4-y,z
1/2+x,3/4-y,1/4-z
3/4-x,1/2+y,1/4-z
1/2-x,1/2-y,-z
1/4+x,1/4+y,-z
1/2-x,1/4+y,3/4+z
1/4+x,1/2-y,3/4+z
loop_
_atom_site_type_symbol
_atom_site_label
_atom_site_fract_x
_atom_site_fract_y
_atom_site_fract_z
Si Si1 0.060959 0.875000 0.375000
Si Si2 0.875000 0.375000 0.701743
Si Si3 0.265645 0.024416 0.522059
Si Si4 0.574602 0.458210 0.026239
Si Si5 0.625000 0.125000 0.625000
O O1 0.089445 0.722380 0.338025
O O2 0.030756 0.757029 0.416553
O O3 0.895130 0.565947 0.737584
O O4 0.250000 0.250000 0.500000
O O5 0.308489 0.943495 0.491294
O O6 0.221432 0.898848 0.521243
O O7 0.596150 0.484422 0.084464
#
# Coordination Sequence:
#
# PCOD9516940 Si02
#       5
#    16  16  32  32   8
#     4  12  24  40  77  97 136 188 234 289 377 408
#     4  12  24  46  70 110 144 186 250 312 354 446
#     4  11  25  48  69 104 141 189 239 300 356 452
#     4  11  27  46  70 102 148 183 245 296 363 434
#     4  12  28  44  74 104 146 198 236 302 374 426
#
# _framework density 21.21903
#
# number of rings (size 3 to 8) (size 9 to 14) (size 15 to 20)
#    0.000    0.615    3.077    3.692    4.308    0.615 
#    0.000    0.000    0.000    0.000    0.000    0.000 
#    0.000    0.000    0.000    0.000    0.000    0.000 
#
# Total GULP energy -144896.945624 kJ/mol
# GULP energy per Si atom -5572.959447 kJ/mol
# Density = 2.117073 g / cm^3
# Si number density = 21.219030 Si / 1000 Ang^3
#
#
#
# Elastic Constant Matrix: (Units=GPa)
#
#
# Indices 1 2 3 4 5 6 
#
# 1 138.9965 58.1214 59.0772 0.0006 -0.0001 -0.0010
# 2 58.1214 90.7868 45.3764 -0.0009 0.0015 0.0006
# 3 59.0772 45.3764 131.6122 -0.0002 0.0000 0.0003
# 4 0.0006 -0.0009 -0.0002 41.9216 0.0005 0.0000
# 5 -0.0001 0.0015 0.0000 0.0005 68.4026 -0.0005
# 6 -0.0010 0.0006 0.0003 0.0000 -0.0005 26.6468
#
#
#
# Elastic Compliance Matrix: (Units=1/GPa)
#
#
# Indices 1 2 3 4 5 6 
#
# 1 0.010694 -0.005373 -0.002948 0.000000 0.000000 0.000001
# 2 -0.005373 0.016008 -0.003107 0.000000 0.000000 -0.000001
# 3 -0.002948 -0.003107 0.009993 0.000000 0.000000 0.000000
# 4 0.000000 0.000000 0.000000 0.023854 0.000000 0.000000
# 5 0.000000 0.000000 0.000000 0.000000 0.014619 0.000000
# 6 0.000001 -0.000001 0.000000 0.000000 0.000000 0.037528
#
#
# Mechanical properties :
#
#
# Convention : Reuss Voigt Hill
#
# Bulk Modulus (GPa) = 72.26361 76.28286 74.27324
# Shear Modulus (GPa) = 35.67245 40.64890 38.16067
#
# Velocity S-wave (km/s) = 4.10464 4.38160 4.24538
# Velocity P-wave (km/s) = 7.52290 7.85023 7.68831
#
# Compressibility (1/GPa) = 0.01383822
#
# Stress axis : x y z
#
# Youngs Moduli (GPa) = 93.51026 62.47042 100.07435
#
# Poissons Ratio (x) = 0.33565 0.29500
# Poissons Ratio (y) = 0.50242 0.31095
# Poissons Ratio (z) = 0.27565 0.19411
#
# Static dielectric constant tensor:
#      x y z
#    x 1.842810 0.000000 0.000000 
#    y 0.000000 2.053340 0.000060 
#    z 0.000000 0.000060 3.450710 
# 
# From -- ./inp_files/41278.got.cif
#   From: 2010.05.17/outbox.cif.g08.bks.cpg/sg70_21_cif.got.tgz:41278.got - 2010.06.03 15:57:51.
