data_PCOD9516466
_publ_section_title
;
Structure prediction by ZEFSAII (Michael W. Deem and Ramdas Pophale) SiO2 
 PCOD9516466
Probable space group: F D D D
;
_chemical_formula_sum "Si O2"
_cell_formula_units_Z 104
_cell_length_a 24.642612
_cell_length_b 9.820210
_cell_length_c 16.981900
_cell_angle_alpha 90.000000
_cell_angle_beta 90.000000
_cell_angle_gamma 90.000000
_cell_volume 4109.545501
_symmetry_space_group_name_H-M "F D D D"
_symmetry_group_IT_number 70
_space_group.IT_coordinate_system_code '2'
_symmetry_cell_setting 'orthorhombic'
loop_
_space_group_symop_operation_xyz
x,y,z
1/4-x,1/4-y,z
x,1/4-y,1/4-z
1/4-x,y,1/4-z
-x,-y,-z
3/4+x,3/4+y,-z
-x,3/4+y,3/4+z
3/4+x,-y,3/4+z
x,1/2+y,1/2+z
1/4-x,3/4-y,1/2+z
x,3/4-y,3/4-z
1/4-x,1/2+y,3/4-z
-x,1/2-y,1/2-z
3/4+x,1/4+y,1/2-z
-x,1/4+y,1/4+z
3/4+x,1/2-y,1/4+z
1/2+x,y,1/2+z
3/4-x,1/4-y,1/2+z
1/2+x,1/4-y,3/4-z
3/4-x,y,3/4-z
1/2-x,-y,1/2-z
1/4+x,3/4+y,1/2-z
1/2-x,3/4+y,1/4+z
1/4+x,-y,1/4+z
1/2+x,1/2+y,z
3/4-x,3/4-y,z
1/2+x,3/4-y,1/4-z
3/4-x,1/2+y,1/4-z
1/2-x,1/2-y,-z
1/4+x,1/4+y,-z
1/2-x,1/4+y,3/4+z
1/4+x,1/2-y,3/4+z
loop_
_atom_site_type_symbol
_atom_site_label
_atom_site_fract_x
_atom_site_fract_y
_atom_site_fract_z
Si Si1 0.125000 0.625000 0.625000
Si Si2 0.068594 0.202823 0.515974
Si Si3 0.469906 0.472531 0.623166
Si Si4 0.186160 0.996581 0.264869
O O1 0.159320 0.532763 0.682535
O O2 0.125000 0.125000 0.534077
O O3 0.030130 0.254737 0.588109
O O4 0.080051 0.341724 0.467209
O O5 0.032669 0.103518 0.460658
O O6 0.447131 0.625000 0.625000
O O7 0.432813 0.373754 0.676283
O O8 0.250000 0.000000 0.250000
#
# Coordination Sequence:
#
# PCOD9516466 Si02
#       4
#     8  32  32  32
#     4  12  28  48  82 116 160 216 264 324 420 478
#     4  11  27  48  79 117 162 213 267 331 411 484
#     4  11  26  48  75 116 161 203 270 338 393 483
#     4  10  27  48  79 113 160 207 275 324 404 479
#
# _framework density 25.306933999999998
#
# number of rings (size 3 to 8) (size 9 to 14) (size 15 to 20)
#    0.000    1.231    0.000    1.846   23.692    5.538 
#    0.000    0.000    0.000    0.000    0.000    0.000 
#    0.000    0.000    0.000    0.000    0.000    0.000 
#
# Total GULP energy -145316.022034 kJ/mol
# GULP energy per Si atom -5589.077771 kJ/mol
# Density = 2.524933 g / cm^3
# Si number density = 25.306934 Si / 1000 Ang^3
#
#
#
# Elastic Constant Matrix: (Units=GPa)
#
#
# Indices 1 2 3 4 5 6 
#
# 1 187.4883 63.2316 67.3654 0.0000 0.0000 0.0000
# 2 63.2316 274.6318 57.2237 0.0000 0.0000 0.0000
# 3 67.3654 57.2237 97.0469 0.0000 0.0000 0.0000
# 4 0.0000 0.0000 0.0000 227.8564 0.0000 0.0000
# 5 0.0000 0.0000 0.0000 0.0000 54.2032 0.0000
# 6 0.0000 0.0000 0.0000 0.0000 0.0000 18.9941
#
#
#
# Elastic Compliance Matrix: (Units=1/GPa)
#
#
# Indices 1 2 3 4 5 6 
#
# 1 0.007224 -0.000705 -0.004599 0.000000 0.000000 0.000000
# 2 -0.000705 0.004220 -0.001999 0.000000 0.000000 0.000000
# 3 -0.004599 -0.001999 0.014675 0.000000 0.000000 0.000000
# 4 0.000000 0.000000 0.000000 0.004389 0.000000 0.000000
# 5 0.000000 0.000000 0.000000 0.000000 0.018449 0.000000
# 6 0.000000 0.000000 0.000000 0.000000 0.000000 0.052648
#
#
# Mechanical properties :
#
#
# Convention : Reuss Voigt Hill
#
# Bulk Modulus (GPa) = 86.85332 103.86763 95.36047
# Shear Modulus (GPa) = 41.64996 84.96716 63.30856
#
# Velocity S-wave (km/s) = 4.06124 5.80065 5.00705
# Velocity P-wave (km/s) = 7.50906 9.27338 8.43747
#
# Compressibility (1/GPa) = 0.01151366
#
# Stress axis : x y z
#
# Youngs Moduli (GPa) = 138.43198 236.96236 68.14220
#
# Poissons Ratio (x) = 0.16706 0.31337
# Poissons Ratio (y) = 0.09759 0.13622
# Poissons Ratio (z) = 0.63661 0.47369
#
# Static dielectric constant tensor:
#      x y z
#    x 1.971660 0.000000 0.000000 
#    y 0.000000 2.039290 0.000000 
#    z 0.000000 0.000000 2.102910 
# 
# From -- ./inp_files/38197.got.cif
#   From: 2010.05.17/outbox.cif.g08.bks.cpg/sg70_20_cif.got.tgz:38197.got - 2010.06.03 15:57:51.
