data_PCOD9516518
_publ_section_title
;
Structure prediction by ZEFSAII (Michael W. Deem and Ramdas Pophale) SiO2 
 PCOD9516518
Probable space group: F D D D
;
_chemical_formula_sum "Si O2"
_cell_formula_units_Z 176
_cell_length_a 15.731118
_cell_length_b 20.542413
_cell_length_c 27.654586
_cell_angle_alpha 90.000000
_cell_angle_beta 90.000000
_cell_angle_gamma 90.000000
_cell_volume 8936.721138
_symmetry_space_group_name_H-M "F D D D"
_symmetry_group_IT_number 70
_space_group.IT_coordinate_system_code '2'
_symmetry_cell_setting 'orthorhombic'
loop_
_space_group_symop_operation_xyz
x,y,z
1/4-x,1/4-y,z
x,1/4-y,1/4-z
1/4-x,y,1/4-z
-x,-y,-z
3/4+x,3/4+y,-z
-x,3/4+y,3/4+z
3/4+x,-y,3/4+z
x,1/2+y,1/2+z
1/4-x,3/4-y,1/2+z
x,3/4-y,3/4-z
1/4-x,1/2+y,3/4-z
-x,1/2-y,1/2-z
3/4+x,1/4+y,1/2-z
-x,1/4+y,1/4+z
3/4+x,1/2-y,1/4+z
1/2+x,y,1/2+z
3/4-x,1/4-y,1/2+z
1/2+x,1/4-y,3/4-z
3/4-x,y,3/4-z
1/2-x,-y,1/2-z
1/4+x,3/4+y,1/2-z
1/2-x,3/4+y,1/4+z
1/4+x,-y,1/4+z
1/2+x,1/2+y,z
3/4-x,3/4-y,z
1/2+x,3/4-y,1/4-z
3/4-x,1/2+y,1/4-z
1/2-x,1/2-y,-z
1/4+x,1/4+y,-z
1/2-x,1/4+y,3/4+z
1/4+x,1/2-y,3/4+z
loop_
_atom_site_type_symbol
_atom_site_label
_atom_site_fract_x
_atom_site_fract_y
_atom_site_fract_z
Si Si1 0.742591 0.531143 0.954772
Si Si2 0.694617 0.172997 0.274600
Si Si3 0.875000 0.875000 0.768497
Si Si4 0.366005 0.295975 0.124553
Si Si5 0.383482 0.132396 0.932972
Si Si6 0.057669 0.236954 0.169106
O O1 0.698621 0.519257 0.902892
O O2 0.828205 0.572793 0.950573
O O3 0.763410 0.467376 0.984602
O O4 0.677677 0.575746 0.985343
O O5 0.625000 0.125000 0.253497
O O6 0.649196 0.212906 0.318234
O O7 0.769437 0.132999 0.301152
O O8 0.936824 0.829733 0.801057
O O9 0.375000 0.375000 0.118104
O O10 0.283298 0.262470 0.099873
O O11 0.375000 0.133090 0.875000
O O12 0.343548 0.201575 0.949384
O O13 0.125000 0.228156 0.125000
#
# Coordination Sequence:
#
# PCOD9516518 Si02
#       6
#    32  32  16  32  32  32
#     4  12  24  37  65  98 120 169 214 267 323 389
#     4  11  24  42  64  91 128 171 221 271 321 390
#     4  12  23  32  58 102 132 154 202 264 339 398
#     4  11  20  39  65  93 128 170 215 260 327 400
#     4  11  20  40  64  87 123 166 213 264 322 385
#     4  11  20  36  57  93 135 167 197 262 335 393
#
# _framework density 19.694025
#
# number of rings (size 3 to 8) (size 9 to 14) (size 15 to 20)
#    0.000    0.727    8.182    1.364    2.545    2.182 
#    0.000    0.000    0.000    2.727    0.000    0.000 
#    0.000    0.000    0.000    0.000    0.000    0.000 
#
# Total GULP energy -245667.475446 kJ/mol
# GULP energy per Si atom -5583.351715 kJ/mol
# Density = 1.964920 g / cm^3
# Si number density = 19.694025 Si / 1000 Ang^3
#
#
#
# Elastic Constant Matrix: (Units=GPa)
#
#
# Indices 1 2 3 4 5 6 
#
# 1 85.2364 34.0126 22.1600 0.0000 0.0000 0.0000
# 2 34.0126 24.8853 6.1453 0.0000 0.0000 0.0000
# 3 22.1600 6.1453 50.9183 0.0000 0.0000 0.0000
# 4 0.0000 0.0000 0.0000 -2.1966 0.0000 0.0000
# 5 0.0000 0.0000 0.0000 0.0000 28.3172 0.0000
# 6 0.0000 0.0000 0.0000 0.0000 0.0000 41.6954
#
#
#
# Elastic Compliance Matrix: (Units=1/GPa)
#
#
# Indices 1 2 3 4 5 6 
#
# 1 0.028641 -0.037175 -0.007978 0.000000 0.000000 0.000000
# 2 -0.037175 0.089672 0.005356 0.000000 0.000000 0.000000
# 3 -0.007978 0.005356 0.022465 0.000000 0.000000 0.000000
# 4 0.000000 0.000000 0.000000 -0.455252 0.000000 0.000000
# 5 0.000000 0.000000 0.000000 0.000000 0.035314 0.000000
# 6 0.000000 0.000000 0.000000 0.000000 0.000000 0.023983
#
#
# Mechanical properties :
#
#
# Convention : Reuss Voigt Hill
#
# Bulk Modulus (GPa) = 16.34412 31.74177 24.04294
# Shear Modulus (GPa) = -32.21870 20.14468 -6.03701
#
# Velocity S-wave (km/s) = -4.04909 3.20172 -1.75273
# Velocity P-wave (km/s) = 3.68010 5.46081 2.85284
#
# Compressibility (1/GPa) = 0.06118410
#
# Stress axis : x y z
#
# Youngs Moduli (GPa) = 34.91554 11.15177 44.51386
#
# Poissons Ratio (x) = 0.41457 0.35513
# Poissons Ratio (y) = 1.29799 -0.23844
# Poissons Ratio (z) = 0.27855 -0.05973
#
# Static dielectric constant tensor:
#      x y z
#    x 1.991210 0.000000 0.000000 
#    y 0.000000 1.693720 0.000000 
#    z 0.000000 0.000000 1.736230 
# 
# From -- ./inp_files/59455.got.cif
#   From: 2010.05.17/outbox.cif.g08.bks.cpg/sg70_30_cif.got.tgz:59455.got - 2010.06.03 15:57:51.
