data_PCOD9516258
_publ_section_title
;
Structure prediction by ZEFSAII (Michael W. Deem and Ramdas Pophale) SiO2 
 PCOD9516258
Probable space group: F D D D
;
_chemical_formula_sum "Si O2"
_cell_formula_units_Z 168
_cell_length_a 13.602997
_cell_length_b 29.247827
_cell_length_c 21.090637
_cell_angle_alpha 90.000000
_cell_angle_beta 90.000000
_cell_angle_gamma 90.000000
_cell_volume 8391.080827
_symmetry_space_group_name_H-M "F D D D"
_symmetry_group_IT_number 70
_space_group.IT_coordinate_system_code '2'
_symmetry_cell_setting 'orthorhombic'
loop_
_space_group_symop_operation_xyz
x,y,z
1/4-x,1/4-y,z
x,1/4-y,1/4-z
1/4-x,y,1/4-z
-x,-y,-z
3/4+x,3/4+y,-z
-x,3/4+y,3/4+z
3/4+x,-y,3/4+z
x,1/2+y,1/2+z
1/4-x,3/4-y,1/2+z
x,3/4-y,3/4-z
1/4-x,1/2+y,3/4-z
-x,1/2-y,1/2-z
3/4+x,1/4+y,1/2-z
-x,1/4+y,1/4+z
3/4+x,1/2-y,1/4+z
1/2+x,y,1/2+z
3/4-x,1/4-y,1/2+z
1/2+x,1/4-y,3/4-z
3/4-x,y,3/4-z
1/2-x,-y,1/2-z
1/4+x,3/4+y,1/2-z
1/2-x,3/4+y,1/4+z
1/4+x,-y,1/4+z
1/2+x,1/2+y,z
3/4-x,3/4-y,z
1/2+x,3/4-y,1/4-z
3/4-x,1/2+y,1/4-z
1/2-x,1/2-y,-z
1/4+x,1/4+y,-z
1/2-x,1/4+y,3/4+z
1/4+x,1/2-y,3/4+z
loop_
_atom_site_type_symbol
_atom_site_label
_atom_site_fract_x
_atom_site_fract_y
_atom_site_fract_z
Si Si1 0.266939 0.064561 0.537937
Si Si2 0.375000 0.375000 0.375000
Si Si3 0.893945 0.119611 0.301257
Si Si4 0.061831 0.187202 0.277177
Si Si5 0.274486 0.715417 0.744086
Si Si6 0.969008 0.030077 0.095352
O O1 0.193749 0.094188 0.580076
O O2 0.317775 0.095256 0.482583
O O3 0.358633 0.046789 0.580115
O O4 0.214614 0.018634 0.512135
O O5 0.875000 0.112793 0.375000
O O6 0.002099 0.142837 0.296968
O O7 0.893549 0.071032 0.265053
O O8 0.176906 0.196983 0.279402
O O9 0.017170 0.228466 0.319462
O O10 0.036143 0.191647 0.202728
O O11 0.260135 0.714214 0.668663
#
# Coordination Sequence:
#
# PCOD9516258 Si02
#       6
#    32   8  32  32  32  32
#     4  10  24  42  63  87 122 170 205 265 306 375
#     4  12  24  48  60  80 122 172 232 238 312 368
#     4  11  23  41  61  90 129 161 206 264 322 371
#     4   9  19  35  62  93 125 164 191 254 319 387
#     4  11  21  37  64  97 119 160 208 259 311 378
#     4   9  18  37  63  91 127 156 203 251 321 373
#
# _framework density 20.021259000000001
#
# number of rings (size 3 to 8) (size 9 to 14) (size 15 to 20)
#    0.000    1.905    0.000    4.571    1.333    2.286 
#   10.286    5.714    0.000    0.000    0.000    0.000 
#    0.000    0.000    0.000    0.000    0.000    0.000 
#
# Total GULP energy -234241.123538 kJ/mol
# GULP energy per Si atom -5577.169608 kJ/mol
# Density = 1.997569 g / cm^3
# Si number density = 20.021259 Si / 1000 Ang^3
#
#
#
# Elastic Constant Matrix: (Units=GPa)
#
#
# Indices 1 2 3 4 5 6 
#
# 1 33.5582 37.6488 16.5222 0.0000 0.0000 0.0000
# 2 37.6488 140.8941 66.8322 0.0000 0.0000 0.0000
# 3 16.5222 66.8322 125.4085 0.0000 0.0000 0.0000
# 4 0.0000 0.0000 0.0000 19.4029 0.0000 0.0000
# 5 0.0000 0.0000 0.0000 0.0000 18.7667 0.0000
# 6 0.0000 0.0000 0.0000 0.0000 0.0000 7.2185
#
#
#
# Elastic Compliance Matrix: (Units=1/GPa)
#
#
# Indices 1 2 3 4 5 6 
#
# 1 0.042592 -0.011669 0.000607 0.000000 0.000000 0.000000
# 2 -0.011669 0.012696 -0.005228 0.000000 0.000000 0.000000
# 3 0.000607 -0.005228 0.010680 0.000000 0.000000 0.000000
# 4 0.000000 0.000000 0.000000 0.051539 0.000000 0.000000
# 5 0.000000 0.000000 0.000000 0.000000 0.053286 0.000000
# 6 0.000000 0.000000 0.000000 0.000000 0.000000 0.138532
#
#
# Mechanical properties :
#
#
# Convention : Reuss Voigt Hill
#
# Bulk Modulus (GPa) = 29.95163 60.20746 45.07955
# Shear Modulus (GPa) = 14.16294 21.00146 17.58220
#
# Velocity S-wave (km/s) = 2.66258 3.24228 2.96662
# Velocity P-wave (km/s) = 4.94417 6.64481 5.85655
#
# Compressibility (1/GPa) = 0.03338716
#
# Stress axis : x y z
#
# Youngs Moduli (GPa) = 23.47882 78.76661 93.63110
#
# Poissons Ratio (x) = 0.91914 -0.05687
# Poissons Ratio (y) = 0.27398 0.48954
# Poissons Ratio (z) = -0.01426 0.41182
#
# Static dielectric constant tensor:
#      x y z
#    x 1.746780 0.000000 0.000000 
#    y 0.000000 1.753490 0.000000 
#    z 0.000000 0.000000 1.659280 
# 
# From -- ./inp_files/42853.got.cif
#   From: 2010.05.17/outbox.cif.g08.bks.cpg/sg70_22_cif.got.tgz:42853.got - 2010.06.03 15:57:51.
