data_PCOD9516454
_publ_section_title
;
Structure prediction by ZEFSAII (Michael W. Deem and Ramdas Pophale) SiO2 
 PCOD9516454
Probable space group: F D D D
;
_chemical_formula_sum "Si O2"
_cell_formula_units_Z 176
_cell_length_a 24.101393
_cell_length_b 14.973152
_cell_length_c 21.976508
_cell_angle_alpha 90.000000
_cell_angle_beta 90.000000
_cell_angle_gamma 90.000000
_cell_volume 7930.746410
_symmetry_space_group_name_H-M "F D D D"
_symmetry_group_IT_number 70
_space_group.IT_coordinate_system_code '2'
_symmetry_cell_setting 'orthorhombic'
loop_
_space_group_symop_operation_xyz
x,y,z
1/4-x,1/4-y,z
x,1/4-y,1/4-z
1/4-x,y,1/4-z
-x,-y,-z
3/4+x,3/4+y,-z
-x,3/4+y,3/4+z
3/4+x,-y,3/4+z
x,1/2+y,1/2+z
1/4-x,3/4-y,1/2+z
x,3/4-y,3/4-z
1/4-x,1/2+y,3/4-z
-x,1/2-y,1/2-z
3/4+x,1/4+y,1/2-z
-x,1/4+y,1/4+z
3/4+x,1/2-y,1/4+z
1/2+x,y,1/2+z
3/4-x,1/4-y,1/2+z
1/2+x,1/4-y,3/4-z
3/4-x,y,3/4-z
1/2-x,-y,1/2-z
1/4+x,3/4+y,1/2-z
1/2-x,3/4+y,1/4+z
1/4+x,-y,1/4+z
1/2+x,1/2+y,z
3/4-x,3/4-y,z
1/2+x,3/4-y,1/4-z
3/4-x,1/2+y,1/4-z
1/2-x,1/2-y,-z
1/4+x,1/4+y,-z
1/2-x,1/4+y,3/4+z
1/4+x,1/2-y,3/4+z
loop_
_atom_site_type_symbol
_atom_site_label
_atom_site_fract_x
_atom_site_fract_y
_atom_site_fract_z
Si Si1 0.003069 0.914122 0.237187
Si Si2 0.576552 0.570311 0.561937
Si Si3 0.961692 0.125000 0.125000
Si Si4 0.682895 0.677311 0.884484
Si Si5 0.868736 0.633731 0.807369
Si Si6 0.011156 0.387656 0.241113
O O1 0.068318 0.924880 0.229413
O O2 0.981172 0.834313 0.278511
O O3 0.974274 0.902813 0.171302
O O4 0.984254 0.005992 0.268421
O O5 0.625000 0.625000 0.526621
O O6 0.571190 0.625000 0.625000
O O7 0.597551 0.469373 0.565565
O O8 0.926220 0.215844 0.126735
O O9 0.997685 0.125355 0.186835
O O10 0.625000 0.625000 0.881814
O O11 0.715823 0.654625 0.946711
O O12 0.875000 0.671480 0.875000
O O13 0.927206 0.645279 0.774885
#
# Coordination Sequence:
#
# PCOD9516454 Si02
#       6
#    32  32  16  32  32  32
#     4  11  24  41  66 102 134 180 229 284 355 423
#     4  11  20  38  62  92 140 181 218 277 348 416
#     4  10  26  48  69  98 140 185 226 302 350 410
#     4  11  25  46  74 100 138 180 234 294 355 420
#     4  12  22  41  66  94 138 185 226 287 345 423
#     4  11  24  46  69  98 138 177 239 287 351 418
#
# _framework density 22.192112000000002
#
# number of rings (size 3 to 8) (size 9 to 14) (size 15 to 20)
#    0.000    0.909    5.455    1.636    5.091    0.000 
#    1.636    0.455    2.000    0.000    0.000    0.000 
#    0.000    0.000    0.000    0.000    0.000    0.000 
#
# Total GULP energy -245855.585339 kJ/mol
# GULP energy per Si atom -5587.626940 kJ/mol
# Density = 2.214160 g / cm^3
# Si number density = 22.192112 Si / 1000 Ang^3
#
#
#
# Elastic Constant Matrix: (Units=GPa)
#
#
# Indices 1 2 3 4 5 6 
#
# 1 137.0928 10.0686 39.8118 0.0000 0.0000 0.0000
# 2 10.0686 74.4085 20.7683 0.0000 0.0000 0.0000
# 3 39.8118 20.7683 108.7370 0.0000 0.0000 0.0000
# 4 0.0000 0.0000 0.0000 18.9506 0.0000 0.0000
# 5 0.0000 0.0000 0.0000 0.0000 33.7310 0.0000
# 6 0.0000 0.0000 0.0000 0.0000 0.0000 12.5757
#
#
#
# Elastic Compliance Matrix: (Units=1/GPa)
#
#
# Indices 1 2 3 4 5 6 
#
# 1 0.008168 -0.000286 -0.002936 0.000000 0.000000 0.000000
# 2 -0.000286 0.014206 -0.002609 0.000000 0.000000 0.000000
# 3 -0.002936 -0.002609 0.010770 0.000000 0.000000 0.000000
# 4 0.000000 0.000000 0.000000 0.052769 0.000000 0.000000
# 5 0.000000 0.000000 0.000000 0.000000 0.029646 0.000000
# 6 0.000000 0.000000 0.000000 0.000000 0.000000 0.079519
#
#
# Mechanical properties :
#
#
# Convention : Reuss Voigt Hill
#
# Bulk Modulus (GPa) = 46.54863 51.28177 48.91520
# Shear Modulus (GPa) = 23.37551 29.69076 26.53313
#
# Velocity S-wave (km/s) = 3.24902 3.66170 3.46151
# Velocity P-wave (km/s) = 5.92416 6.40591 6.16974
#
# Compressibility (1/GPa) = 0.02148291
#
# Stress axis : x y z
#
# Youngs Moduli (GPa) = 122.43029 70.39226 92.85331
#
# Poissons Ratio (x) = 0.02012 0.27261
# Poissons Ratio (y) = 0.03499 0.24222
# Poissons Ratio (z) = 0.35945 0.18363
#
# Static dielectric constant tensor:
#      x y z
#    x 1.813370 0.000000 0.000000 
#    y 0.000000 1.858710 0.000000 
#    z 0.000000 0.000000 1.848090 
# 
# From -- ./inp_files/53646.got.cif
#   From: 2010.05.17/outbox.cif.g08.bks.cpg/sg70_27_cif.got.tgz:53646.got - 2010.06.03 15:57:51.
