data_PCOD9516425
_publ_section_title
;
Structure prediction by ZEFSAII (Michael W. Deem and Ramdas Pophale) SiO2 
 PCOD9516425
Probable space group: F D D D
;
_chemical_formula_sum "Si O2"
_cell_formula_units_Z 120
_cell_length_a 30.284092
_cell_length_b 8.447822
_cell_length_c 20.816663
_cell_angle_alpha 90.000000
_cell_angle_beta 90.000000
_cell_angle_gamma 90.000000
_cell_volume 5325.623040
_symmetry_space_group_name_H-M "F D D D"
_symmetry_group_IT_number 70
_space_group.IT_coordinate_system_code '2'
_symmetry_cell_setting 'orthorhombic'
loop_
_space_group_symop_operation_xyz
x,y,z
1/4-x,1/4-y,z
x,1/4-y,1/4-z
1/4-x,y,1/4-z
-x,-y,-z
3/4+x,3/4+y,-z
-x,3/4+y,3/4+z
3/4+x,-y,3/4+z
x,1/2+y,1/2+z
1/4-x,3/4-y,1/2+z
x,3/4-y,3/4-z
1/4-x,1/2+y,3/4-z
-x,1/2-y,1/2-z
3/4+x,1/4+y,1/2-z
-x,1/4+y,1/4+z
3/4+x,1/2-y,1/4+z
1/2+x,y,1/2+z
3/4-x,1/4-y,1/2+z
1/2+x,1/4-y,3/4-z
3/4-x,y,3/4-z
1/2-x,-y,1/2-z
1/4+x,3/4+y,1/2-z
1/2-x,3/4+y,1/4+z
1/4+x,-y,1/4+z
1/2+x,1/2+y,z
3/4-x,3/4-y,z
1/2+x,3/4-y,1/4-z
3/4-x,1/2+y,1/4-z
1/2-x,1/2-y,-z
1/4+x,1/4+y,-z
1/2-x,1/4+y,3/4+z
1/4+x,1/2-y,3/4+z
loop_
_atom_site_type_symbol
_atom_site_label
_atom_site_fract_x
_atom_site_fract_y
_atom_site_fract_z
Si Si1 0.435200 0.087937 0.962765
Si Si2 0.125000 0.125000 0.625000
Si Si3 0.375000 0.875000 0.276346
Si Si4 0.463791 0.886655 0.078807
Si Si5 0.204891 0.770193 0.459470
O O1 0.412867 0.257827 0.946988
O O2 0.484935 0.085762 0.936700
O O3 0.406275 0.972398 0.921005
O O4 0.437727 0.016172 0.035734
O O5 0.342733 0.996075 0.240879
O O6 0.454626 0.704659 0.059245
O O7 0.456607 0.868283 0.155030
O O8 0.250000 0.750000 0.500000
#
# Coordination Sequence:
#
# PCOD9516425 Si02
#       5
#    32   8  16  32  32
#     4  11  26  45  68 108 142 200 236 320 364 454
#     4  12  28  40  72 104 150 186 268 298 380 446
#     4  12  26  44  76 104 147 185 258 302 380 450
#     4  10  25  46  71 100 155 187 245 298 389 437
#     4  11  24  45  71 107 140 193 243 306 369 453
#
# _framework density 22.532574
#
# number of rings (size 3 to 8) (size 9 to 14) (size 15 to 20)
#    0.000    1.067    2.667    1.600    7.467    6.933 
#    0.000    0.000    0.000    0.000    0.000    0.000 
#    0.000    0.000    0.000    0.000    0.000    0.000 
#
# Total GULP energy -167206.129599 kJ/mol
# GULP energy per Si atom -5573.537653 kJ/mol
# Density = 2.248129 g / cm^3
# Si number density = 22.532574 Si / 1000 Ang^3
#
#
#
# Elastic Constant Matrix: (Units=GPa)
#
#
# Indices 1 2 3 4 5 6 
#
# 1 108.7680 22.6791 2.9260 0.0000 0.0000 0.0000
# 2 22.6791 105.6643 11.6773 0.0000 0.0000 0.0000
# 3 2.9260 11.6773 30.4895 0.0000 0.0000 0.0000
# 4 0.0000 0.0000 0.0000 20.9895 0.0000 0.0000
# 5 0.0000 0.0000 0.0000 0.0000 9.2526 0.0000
# 6 0.0000 0.0000 0.0000 0.0000 0.0000 63.3642
#
#
#
# Elastic Compliance Matrix: (Units=1/GPa)
#
#
# Indices 1 2 3 4 5 6 
#
# 1 0.009625 -0.002051 -0.000138 0.000000 0.000000 0.000000
# 2 -0.002051 0.010319 -0.003755 0.000000 0.000000 0.000000
# 3 -0.000138 -0.003755 0.034250 0.000000 0.000000 0.000000
# 4 0.000000 0.000000 0.000000 0.047643 0.000000 0.000000
# 5 0.000000 0.000000 0.000000 0.000000 0.108077 0.000000
# 6 0.000000 0.000000 0.000000 0.000000 0.000000 0.015782
#
#
# Mechanical properties :
#
#
# Convention : Reuss Voigt Hill
#
# Bulk Modulus (GPa) = 23.63765 35.49850 29.56808
# Shear Modulus (GPa) = 19.86602 32.56391 26.21497
#
# Velocity S-wave (km/s) = 2.97249 3.80569 3.41460
# Velocity P-wave (km/s) = 4.72167 5.92449 5.35695
#
# Compressibility (1/GPa) = 0.04230539
#
# Stress axis : x y z
#
# Youngs Moduli (GPa) = 103.89427 96.90786 29.19736
#
# Poissons Ratio (x) = 0.19872 0.00404
# Poissons Ratio (y) = 0.21305 0.10965
# Poissons Ratio (z) = 0.01437 0.36392
#
# Static dielectric constant tensor:
#      x y z
#    x 1.893220 0.000000 0.000000 
#    y 0.000000 1.769810 0.000000 
#    z 0.000000 0.000000 2.075650 
# 
# From -- ./inp_files/54080.got.cif
#   From: 2010.05.17/outbox.cif.g08.bks.cpg/sg70_28_cif.got.tgz:54080.got - 2010.06.03 15:57:51.
