data_PCOD9516402
_publ_section_title
;
Structure prediction by ZEFSAII (Michael W. Deem and Ramdas Pophale) SiO2 
 PCOD9516402
Probable space group: F D D D
;
_chemical_formula_sum "Si O2"
_cell_formula_units_Z 96
_cell_length_a 15.046140
_cell_length_b 12.336277
_cell_length_c 22.455332
_cell_angle_alpha 90.000000
_cell_angle_beta 90.000000
_cell_angle_gamma 90.000000
_cell_volume 4168.009416
_symmetry_space_group_name_H-M "F D D D"
_symmetry_group_IT_number 70
_space_group.IT_coordinate_system_code '2'
_symmetry_cell_setting 'orthorhombic'
loop_
_space_group_symop_operation_xyz
x,y,z
1/4-x,1/4-y,z
x,1/4-y,1/4-z
1/4-x,y,1/4-z
-x,-y,-z
3/4+x,3/4+y,-z
-x,3/4+y,3/4+z
3/4+x,-y,3/4+z
x,1/2+y,1/2+z
1/4-x,3/4-y,1/2+z
x,3/4-y,3/4-z
1/4-x,1/2+y,3/4-z
-x,1/2-y,1/2-z
3/4+x,1/4+y,1/2-z
-x,1/4+y,1/4+z
3/4+x,1/2-y,1/4+z
1/2+x,y,1/2+z
3/4-x,1/4-y,1/2+z
1/2+x,1/4-y,3/4-z
3/4-x,y,3/4-z
1/2-x,-y,1/2-z
1/4+x,3/4+y,1/2-z
1/2-x,3/4+y,1/4+z
1/4+x,-y,1/4+z
1/2+x,1/2+y,z
3/4-x,3/4-y,z
1/2+x,3/4-y,1/4-z
3/4-x,1/2+y,1/4-z
1/2-x,1/2-y,-z
1/4+x,1/4+y,-z
1/2-x,1/4+y,3/4+z
1/4+x,1/2-y,3/4+z
loop_
_atom_site_type_symbol
_atom_site_label
_atom_site_fract_x
_atom_site_fract_y
_atom_site_fract_z
Si Si1 0.492421 0.666628 0.402342
Si Si2 0.669737 0.430945 0.221894
Si Si3 0.663442 0.956972 0.327455
O O1 0.459180 0.627012 0.337855
O O2 0.419035 0.732261 0.440767
O O3 0.577216 0.740902 0.390660
O O4 0.524537 0.559279 0.436680
O O5 0.750000 0.500000 0.250000
O O6 0.628385 0.353267 0.271239
O O7 0.705744 0.875000 0.375000
#
# Coordination Sequence:
#
# PCOD9516402 Si02
#       3
#    32  32  32
#     4  10  25  43  65 102 134 176 238 277 352 417
#     4  11  23  44  68  97 137 182 229 290 342 417
#     4  11  23  42  67  97 136 183 221 290 347 409
#
# _framework density 23.032577
#
# number of rings (size 3 to 8) (size 9 to 14) (size 15 to 20)
#    0.000    1.333    3.333    1.000    4.667    1.333 
#    0.000    1.667    0.000    0.000    0.000    0.000 
#    0.000    0.000    0.000    0.000    0.000    0.000 
#
# Total GULP energy -133778.433910 kJ/mol
# GULP energy per Si atom -5574.101413 kJ/mol
# Density = 2.298015 g / cm^3
# Si number density = 23.032577 Si / 1000 Ang^3
#
#
#
# Elastic Constant Matrix: (Units=GPa)
#
#
# Indices 1 2 3 4 5 6 
#
# 1 99.5888 25.4173 27.9605 0.0000 0.0000 0.0000
# 2 25.4173 56.3973 26.1347 0.0000 0.0000 0.0000
# 3 27.9605 26.1347 124.1069 0.0000 0.0000 0.0000
# 4 0.0000 0.0000 0.0000 34.1244 0.0000 0.0000
# 5 0.0000 0.0000 0.0000 0.0000 37.3032 0.0000
# 6 0.0000 0.0000 0.0000 0.0000 0.0000 31.2081
#
#
#
# Elastic Compliance Matrix: (Units=1/GPa)
#
#
# Indices 1 2 3 4 5 6 
#
# 1 0.011656 -0.004473 -0.001684 0.000000 0.000000 0.000000
# 2 -0.004473 0.021365 -0.003491 0.000000 0.000000 0.000000
# 3 -0.001684 -0.003491 0.009172 0.000000 0.000000 0.000000
# 4 0.000000 0.000000 0.000000 0.029305 0.000000 0.000000
# 5 0.000000 0.000000 0.000000 0.000000 0.026807 0.000000
# 6 0.000000 0.000000 0.000000 0.000000 0.000000 0.032043
#
#
# Mechanical properties :
#
#
# Convention : Reuss Voigt Hill
#
# Bulk Modulus (GPa) = 43.67460 48.79091 46.23276
# Shear Modulus (GPa) = 31.79120 33.89915 32.84518
#
# Velocity S-wave (km/s) = 3.71923 3.84056 3.78038
# Velocity P-wave (km/s) = 6.11938 6.39499 6.25870
#
# Compressibility (1/GPa) = 0.02289660
#
# Stress axis : x y z
#
# Youngs Moduli (GPa) = 85.79557 46.80553 109.02484
#
# Poissons Ratio (x) = 0.20934 0.18361
# Poissons Ratio (y) = 0.38373 0.38066
# Poissons Ratio (z) = 0.14449 0.16342
#
# Static dielectric constant tensor:
#      x y z
#    x 1.982890 0.000000 0.000000 
#    y 0.000000 1.857940 0.000000 
#    z 0.000000 0.000000 1.884900 
# 
# From -- ./inp_files/18380.got.cif
#   From: 2010.05.17/outbox.cif.g08.bks.cpg/sg70_10_cif.got.tgz:18380.got - 2010.06.03 15:57:51.
