data_PCOD9517030
_publ_section_title
;
Structure prediction by ZEFSAII (Michael W. Deem and Ramdas Pophale) SiO2 
 PCOD9517030
Probable space group: F D D D
;
_chemical_formula_sum "Si O2"
_cell_formula_units_Z 160
_cell_length_a 20.719464
_cell_length_b 18.339614
_cell_length_c 15.508730
_cell_angle_alpha 90.000000
_cell_angle_beta 90.000000
_cell_angle_gamma 90.000000
_cell_volume 5893.115353
_symmetry_space_group_name_H-M "F D D D"
_symmetry_group_IT_number 70
_space_group.IT_coordinate_system_code '2'
_symmetry_cell_setting 'orthorhombic'
loop_
_space_group_symop_operation_xyz
x,y,z
1/4-x,1/4-y,z
x,1/4-y,1/4-z
1/4-x,y,1/4-z
-x,-y,-z
3/4+x,3/4+y,-z
-x,3/4+y,3/4+z
3/4+x,-y,3/4+z
x,1/2+y,1/2+z
1/4-x,3/4-y,1/2+z
x,3/4-y,3/4-z
1/4-x,1/2+y,3/4-z
-x,1/2-y,1/2-z
3/4+x,1/4+y,1/2-z
-x,1/4+y,1/4+z
3/4+x,1/2-y,1/4+z
1/2+x,y,1/2+z
3/4-x,1/4-y,1/2+z
1/2+x,1/4-y,3/4-z
3/4-x,y,3/4-z
1/2-x,-y,1/2-z
1/4+x,3/4+y,1/2-z
1/2-x,3/4+y,1/4+z
1/4+x,-y,1/4+z
1/2+x,1/2+y,z
3/4-x,3/4-y,z
1/2+x,3/4-y,1/4-z
3/4-x,1/2+y,1/4-z
1/2-x,1/2-y,-z
1/4+x,1/4+y,-z
1/2-x,1/4+y,3/4+z
1/4+x,1/2-y,3/4+z
loop_
_atom_site_type_symbol
_atom_site_label
_atom_site_fract_x
_atom_site_fract_y
_atom_site_fract_z
Si Si1 0.608073 0.893192 0.018507
Si Si2 0.375000 0.875000 0.159683
Si Si3 0.990190 0.125000 0.625000
Si Si4 0.826994 0.259558 0.450290
Si Si5 0.780257 0.048149 0.577801
Si Si6 0.250382 0.791241 0.133227
O O1 0.552936 0.861571 0.957504
O O2 0.646436 0.953794 0.960614
O O3 0.653192 0.822667 0.027612
O O4 0.685370 0.920271 0.151503
O O5 0.407548 0.814259 0.221656
O O6 0.316208 0.834813 0.107054
O O7 0.015322 0.042931 0.607500
O O8 0.875000 0.285336 0.375000
O O9 0.758436 0.253504 0.400464
O O10 0.776291 0.125000 0.625000
O O11 0.744022 0.044055 0.486855
#
# Coordination Sequence:
#
# PCOD9517030 Si02
#       6
#    32  16  16  32  32  32
#     4  12  28  53  82 127 177 234 303 373 455 544
#     4  12  23  48  82 131 170 220 296 359 468 532
#     4  12  26  58  85 116 179 240 304 370 440 542
#     4  12  22  48  80 124 176 217 282 375 455 542
#     4  12  24  47  84 126 175 223 279 377 466 532
#     4  12  27  51  86 127 179 235 303 369 454 560
#
# _framework density 27.150324999999999
#
# number of rings (size 3 to 8) (size 9 to 14) (size 15 to 20)
#    0.000    0.000    7.000    2.700    0.000    0.800 
#   21.600    2.000    0.000    0.000    0.000    1.400 
#    0.000    0.000    0.000    0.000    0.000    0.000 
#
# Total GULP energy -223269.530706 kJ/mol
# GULP energy per Si atom -5581.738268 kJ/mol
# Density = 2.708853 g / cm^3
# Si number density = 27.150325 Si / 1000 Ang^3
#
#
#
# Elastic Constant Matrix: (Units=GPa)
#
#
# Indices 1 2 3 4 5 6 
#
# 1 157.3119 110.4578 56.9074 0.0000 0.0000 0.0000
# 2 110.4578 186.4980 68.6952 0.0000 0.0000 0.0000
# 3 56.9074 68.6952 91.5792 0.0000 0.0000 0.0000
# 4 0.0000 0.0000 0.0000 0.5335 0.0000 0.0000
# 5 0.0000 0.0000 0.0000 0.0000 52.1365 0.0000
# 6 0.0000 0.0000 0.0000 0.0000 0.0000 58.1883
#
#
#
# Elastic Compliance Matrix: (Units=1/GPa)
#
#
# Indices 1 2 3 4 5 6 
#
# 1 0.011374 -0.005711 -0.002784 0.000000 0.000000 0.000000
# 2 -0.005711 0.010277 -0.004160 0.000000 0.000000 0.000000
# 3 -0.002784 -0.004160 0.015770 0.000000 0.000000 0.000000
# 4 0.000000 0.000000 0.000000 1.874394 0.000000 0.000000
# 5 0.000000 0.000000 0.000000 0.000000 0.019180 0.000000
# 6 0.000000 0.000000 0.000000 0.000000 0.000000 0.017186
#
#
# Mechanical properties :
#
#
# Convention : Reuss Voigt Hill
#
# Bulk Modulus (GPa) = 82.57014 100.83441 91.70228
# Shear Modulus (GPa) = 2.52841 35.46022 18.99432
#
# Velocity S-wave (km/s) = 0.96607 3.61788 2.64786
# Velocity P-wave (km/s) = 5.63228 7.39405 6.57247
#
# Compressibility (1/GPa) = 0.01211092
#
# Stress axis : x y z
#
# Youngs Moduli (GPa) = 87.92053 97.30665 63.41236
#
# Poissons Ratio (x) = 0.55573 0.17653
# Poissons Ratio (y) = 0.50212 0.26379
# Poissons Ratio (z) = 0.24475 0.40479
#
# Static dielectric constant tensor:
#      x y z
#    x 2.269980 0.000000 0.000000 
#    y 0.000000 2.101200 0.000000 
#    z 0.000000 0.000000 2.781240 
# 
# From -- ./inp_files/46865.got.cif
#   From: 2010.05.17/outbox.cif.g08.bks.cpg/sg70_24_cif.got.tgz:46865.got - 2010.06.03 15:57:51.
