data_PCOD9517153
_publ_section_title
;
Structure prediction by ZEFSAII (Michael W. Deem and Ramdas Pophale) SiO2 
 PCOD9517153
Probable space group: F D D D
;
_chemical_formula_sum "Si O2"
_cell_formula_units_Z 80
_cell_length_a 9.277769
_cell_length_b 12.941349
_cell_length_c 26.513737
_cell_angle_alpha 90.000000
_cell_angle_beta 90.000000
_cell_angle_gamma 90.000000
_cell_volume 3183.420792
_symmetry_space_group_name_H-M "F D D D"
_symmetry_group_IT_number 70
_space_group.IT_coordinate_system_code '2'
_symmetry_cell_setting 'orthorhombic'
loop_
_space_group_symop_operation_xyz
x,y,z
1/4-x,1/4-y,z
x,1/4-y,1/4-z
1/4-x,y,1/4-z
-x,-y,-z
3/4+x,3/4+y,-z
-x,3/4+y,3/4+z
3/4+x,-y,3/4+z
x,1/2+y,1/2+z
1/4-x,3/4-y,1/2+z
x,3/4-y,3/4-z
1/4-x,1/2+y,3/4-z
-x,1/2-y,1/2-z
3/4+x,1/4+y,1/2-z
-x,1/4+y,1/4+z
3/4+x,1/2-y,1/4+z
1/2+x,y,1/2+z
3/4-x,1/4-y,1/2+z
1/2+x,1/4-y,3/4-z
3/4-x,y,3/4-z
1/2-x,-y,1/2-z
1/4+x,3/4+y,1/2-z
1/2-x,3/4+y,1/4+z
1/4+x,-y,1/4+z
1/2+x,1/2+y,z
3/4-x,3/4-y,z
1/2+x,3/4-y,1/4-z
3/4-x,1/2+y,1/4-z
1/2-x,1/2-y,-z
1/4+x,1/4+y,-z
1/2-x,1/4+y,3/4+z
1/4+x,1/2-y,3/4+z
loop_
_atom_site_type_symbol
_atom_site_label
_atom_site_fract_x
_atom_site_fract_y
_atom_site_fract_z
Si Si1 0.863691 0.758595 0.157683
Si Si2 0.325396 0.054556 0.204133
Si Si3 0.875000 0.875000 0.311326
O O1 0.875000 0.875000 0.175543
O O2 0.779206 0.672440 0.190075
O O3 0.812748 0.754275 0.099602
O O4 0.747292 0.813597 0.283843
O O5 0.523105 0.208113 0.160637
O O6 0.250000 0.000000 0.250000
#
# Coordination Sequence:
#
# PCOD9517153 Si02
#       3
#    32  32  16
#     4   9  17  34  67 106 154 218 266 332 419 490
#     4   9  17  34  67 110 151 206 278 340 399 488
#     4   8  17  36  66 104 154 228 258 320 432 474
#
# _framework density 25.130198
#
# number of rings (size 3 to 8) (size 9 to 14) (size 15 to 20)
#    2.400    0.800    0.000    2.400    0.000    0.000 
#    0.000    2.000    4.400   19.200    0.000   14.000 
#    0.000    0.000    0.800    0.000    0.000    6.400 
#
# Total GULP energy -111516.312883 kJ/mol
# GULP energy per Si atom -5575.815644 kJ/mol
# Density = 2.507300 g / cm^3
# Si number density = 25.130198 Si / 1000 Ang^3
#
#
#
# Elastic Constant Matrix: (Units=GPa)
#
#
# Indices 1 2 3 4 5 6 
#
# 1 107.1276 36.8783 71.6646 0.0000 0.0000 0.0000
# 2 36.8783 200.2697 80.9540 0.0000 0.0000 0.0000
# 3 71.6646 80.9540 187.0593 0.0000 0.0000 0.0000
# 4 0.0000 0.0000 0.0000 36.6576 0.0000 0.0000
# 5 0.0000 0.0000 0.0000 0.0000 4.1935 0.0000
# 6 0.0000 0.0000 0.0000 0.0000 0.0000 31.3614
#
#
#
# Elastic Compliance Matrix: (Units=1/GPa)
#
#
# Indices 1 2 3 4 5 6 
#
# 1 0.012584 -0.000447 -0.004628 0.000000 0.000000 0.000000
# 2 -0.000447 0.006068 -0.002455 0.000000 0.000000 0.000000
# 3 -0.004628 -0.002455 0.008181 0.000000 0.000000 0.000000
# 4 0.000000 0.000000 0.000000 0.027280 0.000000 0.000000
# 5 0.000000 0.000000 0.000000 0.000000 0.238465 0.000000
# 6 0.000000 0.000000 0.000000 0.000000 0.000000 0.031886
#
#
# Mechanical properties :
#
#
# Convention : Reuss Voigt Hill
#
# Bulk Modulus (GPa) = 84.92826 97.05005 90.98916
# Shear Modulus (GPa) = 14.55824 34.77314 24.66569
#
# Velocity S-wave (km/s) = 2.40950 3.72387 3.13631
# Velocity P-wave (km/s) = 6.45055 7.56256 7.02858
#
# Compressibility (1/GPa) = 0.01177464
#
# Stress axis : x y z
#
# Youngs Moduli (GPa) = 79.46400 164.80355 122.22971
#
# Poissons Ratio (x) = 0.07360 0.56567
# Poissons Ratio (y) = 0.03549 0.30006
# Poissons Ratio (z) = 0.36775 0.40457
#
# Static dielectric constant tensor:
#      x y z
#    x 2.063560 0.000000 0.000000 
#    y 0.000000 1.920490 0.000000 
#    z 0.000000 0.000000 2.091090 
# 
# From -- ./inp_files/24250.got.cif
#   From: 2010.05.17/outbox.cif.g08.bks.cpg/sg70_13_cif.got.tgz:24250.got - 2010.06.03 15:57:51.
