data_PCOD9517594
_publ_section_title
;
Structure prediction by ZEFSAII (Michael W. Deem and Ramdas Pophale) SiO2 
 PCOD9517594
Probable space group: I M M M
;
_chemical_formula_sum "Si O2"
_cell_formula_units_Z 104
_cell_length_a 7.238484
_cell_length_b 19.964396
_cell_length_c 27.267200
_cell_angle_alpha 90.000000
_cell_angle_beta 90.000000
_cell_angle_gamma 90.000000
_cell_volume 3940.436543
_symmetry_space_group_name_H-M "I M M M"
_symmetry_group_IT_number 71
_symmetry_cell_setting 'orthorhombic'
loop_
_space_group_symop_operation_xyz
x,y,z
-x,-y,z
x,-y,-z
-x,y,-z
-x,-y,-z
x,y,-z
-x,y,z
x,-y,z
1/2+x,1/2+y,1/2+z
1/2-x,1/2-y,1/2+z
1/2+x,1/2-y,1/2-z
1/2-x,1/2+y,1/2-z
1/2-x,1/2-y,1/2-z
1/2+x,1/2+y,1/2-z
1/2-x,1/2+y,1/2+z
1/2+x,1/2-y,1/2+z
loop_
_atom_site_type_symbol
_atom_site_label
_atom_site_fract_x
_atom_site_fract_y
_atom_site_fract_z
Si Si1 0.775791 0.276108 0.445959
Si Si2 0.277576 0.256909 0.836764
Si Si3 0.224536 0.572274 0.579673
Si Si4 0.711473 0.079605 0.397893
Si Si5 0.790091 0.393627 0.793585
Si Si6 0.226320 0.421565 0.000000
Si Si7 0.775545 0.606369 0.688046
O O1 0.715066 0.251439 0.500000
O O2 0.719966 0.240662 0.394554
O O3 0.720026 0.355255 0.441438
O O4 0.000000 0.275177 0.445565
O O5 0.500000 0.261418 0.836227
O O6 0.204159 0.313436 0.800415
O O7 0.225232 0.183853 0.818290
O O8 0.282718 0.500000 0.558652
O O9 0.278638 0.572942 0.637177
O O10 0.000000 0.573255 0.577174
O O11 0.500000 0.103979 0.394150
O O12 0.800986 0.088556 0.345277
O O13 0.791200 0.107985 0.448432
O O14 0.702564 0.000000 0.405069
O O15 0.710406 0.415473 0.741670
O O16 0.000000 0.420301 0.794864
O O17 0.281206 0.500000 0.000000
O O18 0.000000 0.420157 0.000000
O O19 0.000000 0.602144 0.689595
#
# Coordination Sequence:
#
# PCOD9517594 Si02
#       7
#    16  16  16  16  16   8  16
#     4   8  14  25  40  57  80 112 145 174 208 253
#     4   9  17  30  44  57  80 115 145 166 201 251
#     4   8  13  21  35  58  86 113 140 171 210 252
#     4   8  14  24  38  57  80 104 128 158 201 247
#     4  10  18  27  42  65  85 103 137 178 207 238
#     4   7  10  20  36  50  71 103 127 143 180 239
#     4   8  15  26  39  56  82 113 138 165 205 250
#
# _framework density 26.393014999999998
#
# number of rings (size 3 to 8) (size 9 to 14) (size 15 to 20)
#    0.000    3.615    0.000    3.231    0.000    0.923 
#    1.385    4.615    0.000    0.462    0.000    0.000 
#    0.000   16.615    0.000    5.538    0.000    6.154 
#
# Total GULP energy -290221.491956 kJ/mol
# GULP energy per Si atom -5581.182538 kJ/mol
# Density = 2.633294 g / cm^3
# Si number density = 26.393015 Si / 1000 Ang^3
#
#
#
# Elastic Constant Matrix: (Units=GPa)
#
#
# Indices 1 2 3 4 5 6 
#
# 1 128.0198 -0.3218 7.7000 0.0000 0.0000 0.0000
# 2 -0.3218 80.7296 -3.3522 0.0000 0.0000 0.0000
# 3 7.7000 -3.3522 216.1304 0.0000 0.0000 0.0000
# 4 0.0000 0.0000 0.0000 -122.9624 0.0000 0.0000
# 5 0.0000 0.0000 0.0000 0.0000 -16.9356 0.0000
# 6 0.0000 0.0000 0.0000 0.0000 0.0000 -4.4116
#
#
#
# Elastic Compliance Matrix: (Units=1/GPa)
#
#
# Indices 1 2 3 4 5 6 
#
# 1 0.007828 0.000020 -0.000279 0.000000 0.000000 0.000000
# 2 0.000020 0.012395 0.000192 0.000000 0.000000 0.000000
# 3 -0.000279 0.000192 0.004640 0.000000 0.000000 0.000000
# 4 0.000000 0.000000 0.000000 -0.008133 0.000000 0.000000
# 5 0.000000 0.000000 0.000000 0.000000 -0.059047 0.000000
# 6 0.000000 0.000000 0.000000 0.000000 0.000000 -0.226674
#
#
# Mechanical properties :
#
#
# Convention : Reuss Voigt Hill
#
# Bulk Modulus (GPa) = 40.43985 48.10354 44.27169
# Shear Modulus (GPa) = -19.18554 -0.80500 -9.99527
#
# Velocity S-wave (km/s) = -2.69907 -0.55287 -1.94816
# Velocity P-wave (km/s) = 2.37533 4.22586 3.42783
#
# Compressibility (1/GPa) = 0.02472809
#
# Stress axis : x y z
#
# Youngs Moduli (GPa) = 127.74501 80.67728 215.52970
#
# Poissons Ratio (x) = -0.00158 0.06004
# Poissons Ratio (y) = -0.00251 -0.04128
# Poissons Ratio (z) = 0.03559 -0.01545
#
# Static dielectric constant tensor:
#      x y z
#    x 2.021100 0.000000 0.000000 
#    y 0.000000 2.095180 0.000000 
#    z 0.000000 0.000000 2.095530 
# 
# From -- ./inp_files/64910.got.cif
#   From: 2010.05.17/outbox.cif.g08.bks.cpg/sg71_33_cif.got.tgz:64910.got - 2010.06.03 16:22:01.
