data_PCOD9517919
_publ_section_title
;
Structure prediction by ZEFSAII (Michael W. Deem and Ramdas Pophale) SiO2 
 PCOD9517919
Probable space group: I M M M
;
_chemical_formula_sum "Si O2"
_cell_formula_units_Z 104
_cell_length_a 21.847055
_cell_length_b 7.659764
_cell_length_c 30.806606
_cell_angle_alpha 90.000000
_cell_angle_beta 90.000000
_cell_angle_gamma 90.000000
_cell_volume 5155.278660
_symmetry_space_group_name_H-M "I M M M"
_symmetry_group_IT_number 71
_symmetry_cell_setting 'orthorhombic'
loop_
_space_group_symop_operation_xyz
x,y,z
-x,-y,z
x,-y,-z
-x,y,-z
-x,-y,-z
x,y,-z
-x,y,z
x,-y,z
1/2+x,1/2+y,1/2+z
1/2-x,1/2-y,1/2+z
1/2+x,1/2-y,1/2-z
1/2-x,1/2+y,1/2-z
1/2-x,1/2-y,1/2-z
1/2+x,1/2+y,1/2-z
1/2-x,1/2+y,1/2+z
1/2+x,1/2-y,1/2+z
loop_
_atom_site_type_symbol
_atom_site_label
_atom_site_fract_x
_atom_site_fract_y
_atom_site_fract_z
Si Si1 0.872832 0.788690 0.136443
Si Si2 0.571531 0.712680 0.547036
Si Si3 0.568467 0.286551 0.274453
Si Si4 0.068931 0.000000 0.552464
Si Si5 0.267117 0.705316 0.131727
Si Si6 0.337963 0.197913 0.049961
Si Si7 0.811639 0.210348 0.277282
O O1 0.894588 0.723770 0.089642
O O2 0.915849 0.734171 0.176125
O O3 0.803506 0.732174 0.143468
O O4 0.873943 0.000000 0.135814
O O5 0.595582 0.770618 0.500000
O O6 0.500000 0.758863 0.549678
O O7 0.574242 0.500000 0.547398
O O8 0.500000 0.229833 0.261957
O O9 0.568584 0.500000 0.273292
O O10 0.626074 0.227208 0.245563
O O11 0.108818 0.169229 0.563776
O O12 0.064741 0.000000 0.500000
O O13 0.000000 0.000000 0.569984
O O14 0.279227 0.500000 0.127253
O O15 0.284813 0.787713 0.085657
O O16 0.304255 0.774696 0.173328
O O17 0.360788 0.000000 0.049700
O O18 0.319019 0.240359 0.000000
O O19 0.750000 0.250000 0.250000
O O20 0.815014 0.000000 0.279054
#
# Coordination Sequence:
#
# PCOD9517919 Si02
#       7
#    16  16  16   8  16  16  16
#     4  10  18  29  50  77 101 137 188 236 282 341
#     4   8  14  25  42  68 102 133 166 219 281 335
#     4   9  17  31  53  80 106 136 184 244 298 350
#     4   9  18  36  62  90 122 158 195 241 297 357
#     4  11  22  35  53  79 115 154 196 239 294 356
#     4  10  21  38  61  89 121 158 199 245 297 356
#     4  10  20  35  56  80 110 147 193 240 296 359
#
# _framework density 20.173497000000001
#
# number of rings (size 3 to 8) (size 9 to 14) (size 15 to 20)
#    0.000    2.385    2.308    1.385    0.000    3.385 
#    0.000    3.846    0.000    3.231    0.000    1.077 
#    0.000    0.000    0.000    0.000    0.000    0.000 
#
# Total GULP energy -290109.511897 kJ/mol
# GULP energy per Si atom -5579.029075 kJ/mol
# Density = 2.012758 g / cm^3
# Si number density = 20.173497 Si / 1000 Ang^3
#
#
#
# Elastic Constant Matrix: (Units=GPa)
#
#
# Indices 1 2 3 4 5 6 
#
# 1 122.1210 5.9694 59.3937 0.0000 0.0000 0.0000
# 2 5.9694 52.7935 10.4634 0.0000 0.0000 0.0000
# 3 59.3937 10.4634 132.9056 0.0000 0.0000 0.0000
# 4 0.0000 0.0000 0.0000 3.4619 0.0000 0.0000
# 5 0.0000 0.0000 0.0000 0.0000 36.5387 0.0000
# 6 0.0000 0.0000 0.0000 0.0000 0.0000 7.3203
#
#
#
# Elastic Compliance Matrix: (Units=1/GPa)
#
#
# Indices 1 2 3 4 5 6 
#
# 1 0.010466 -0.000260 -0.004657 0.000000 0.000000 0.000000
# 2 -0.000260 0.019248 -0.001399 0.000000 0.000000 0.000000
# 3 -0.004657 -0.001399 0.009715 0.000000 0.000000 0.000000
# 4 0.000000 0.000000 0.000000 0.288862 0.000000 0.000000
# 5 0.000000 0.000000 0.000000 0.000000 0.027368 0.000000
# 6 0.000000 0.000000 0.000000 0.000000 0.000000 0.136606
#
#
# Mechanical properties :
#
#
# Convention : Reuss Voigt Hill
#
# Bulk Modulus (GPa) = 37.31683 51.05258 44.18470
# Shear Modulus (GPa) = 9.73082 24.93041 17.33061
#
# Velocity S-wave (km/s) = 2.19864 3.51921 2.93418
# Velocity P-wave (km/s) = 4.99835 6.47107 5.78179
#
# Compressibility (1/GPa) = 0.02679756
#
# Stress axis : x y z
#
# Youngs Moduli (GPa) = 95.54653 51.95226 102.93077
#
# Poissons Ratio (x) = 0.01353 0.47931
# Poissons Ratio (y) = 0.02489 0.14400
# Poissons Ratio (z) = 0.44493 0.07268
#
# Static dielectric constant tensor:
#      x y z
#    x 1.686460 0.000000 0.000000 
#    y 0.000000 1.747760 0.000000 
#    z 0.000000 0.000000 1.728780 
# 
# From -- ./inp_files/70739.got.cif
#   From: 2010.05.17/outbox.cif.g08.bks.cpg/sg71_36_cif.got.tgz:70739.got - 2010.06.03 16:22:01.
