data_PCOD9517530
_publ_section_title
;
Structure prediction by ZEFSAII (Michael W. Deem and Ramdas Pophale) SiO2 
 PCOD9517530
Probable space group: I M M M
;
_chemical_formula_sum "Si O2"
_cell_formula_units_Z 72
_cell_length_a 14.863169
_cell_length_b 14.207170
_cell_length_c 13.750985
_cell_angle_alpha 90.000000
_cell_angle_beta 90.000000
_cell_angle_gamma 90.000000
_cell_volume 2903.707066
_symmetry_space_group_name_H-M "I M M M"
_symmetry_group_IT_number 71
_symmetry_cell_setting 'orthorhombic'
loop_
_space_group_symop_operation_xyz
x,y,z
-x,-y,z
x,-y,-z
-x,y,-z
-x,-y,-z
x,y,-z
-x,y,z
x,-y,z
1/2+x,1/2+y,1/2+z
1/2-x,1/2-y,1/2+z
1/2+x,1/2-y,1/2-z
1/2-x,1/2+y,1/2-z
1/2-x,1/2-y,1/2-z
1/2+x,1/2+y,1/2-z
1/2-x,1/2+y,1/2+z
1/2+x,1/2-y,1/2+z
loop_
_atom_site_type_symbol
_atom_site_label
_atom_site_fract_x
_atom_site_fract_y
_atom_site_fract_z
Si Si1 0.354255 0.799462 0.389718
Si Si2 0.637150 0.602530 0.304084
Si Si3 0.105498 0.500000 0.890236
Si Si4 0.840861 0.602052 0.617541
Si Si5 0.637225 0.694664 0.109225
O O1 0.387733 0.807827 0.500000
O O2 0.392231 0.701873 0.349795
O O3 0.245959 0.794617 0.391075
O O4 0.372512 0.900529 0.341274
O O5 0.603621 0.500000 0.337237
O O6 0.743992 0.601591 0.329048
O O7 0.617594 0.617856 0.190332
O O8 0.000000 0.500000 0.901788
O O9 0.149576 0.500000 0.000000
O O10 0.822664 0.607022 0.500000
O O11 0.884571 0.500000 0.634719
O O12 0.892063 0.699431 0.638384
O O13 0.608043 0.672165 0.000000
#
# Coordination Sequence:
#
# PCOD9517530 Si02
#       5
#    16  16   8  16  16
#     4   9  17  29  45  64  87 118 151 183 221 264
#     4  10  18  26  38  59  87 119 153 183 213 258
#     4   9  18  32  50  70  91 115 147 191 233 270
#     4   8  13  22  35  50  72 105 146 186 215 245
#     4   9  17  27  37  56  88 125 159 184 213 254
#
# _framework density 24.79589
#
# number of rings (size 3 to 8) (size 9 to 14) (size 15 to 20)
#    0.000    3.000    0.000    4.667    1.556    1.778 
#    2.000    0.000    0.000    0.667    0.000    3.111 
#    0.000    1.778    0.000    2.000    0.000    0.000 
#
# Total GULP energy -200836.933196 kJ/mol
# GULP energy per Si atom -5578.803700 kJ/mol
# Density = 2.473945 g / cm^3
# Si number density = 24.795890 Si / 1000 Ang^3
#
#
#
# Elastic Constant Matrix: (Units=GPa)
#
#
# Indices 1 2 3 4 5 6 
#
# 1 72.3835 14.4574 -3.5184 0.0000 0.0000 0.0000
# 2 14.4574 251.1044 55.7657 0.0000 0.0000 0.0000
# 3 -3.5184 55.7657 82.8739 0.0000 0.0000 0.0000
# 4 0.0000 0.0000 0.0000 38.3571 0.0000 0.0000
# 5 0.0000 0.0000 0.0000 0.0000 -10.3036 0.0000
# 6 0.0000 0.0000 0.0000 0.0000 0.0000 -63.6596
#
#
#
# Elastic Compliance Matrix: (Units=1/GPa)
#
#
# Indices 1 2 3 4 5 6 
#
# 1 0.014103 -0.001111 0.001346 0.000000 0.000000 0.000000
# 2 -0.001111 0.004770 -0.003257 0.000000 0.000000 0.000000
# 3 0.001346 -0.003257 0.014315 0.000000 0.000000 0.000000
# 4 0.000000 0.000000 0.000000 0.026071 0.000000 0.000000
# 5 0.000000 0.000000 0.000000 0.000000 -0.097053 0.000000
# 6 0.000000 0.000000 0.000000 0.000000 0.000000 -0.015709
#
#
# Mechanical properties :
#
#
# Convention : Reuss Voigt Hill
#
# Bulk Modulus (GPa) = 36.83960 59.97457 48.40709
# Shear Modulus (GPa) = -130.16519 15.52257 -57.32131
#
# Velocity S-wave (km/s) = -7.25318 2.50474 -4.81326
# Velocity P-wave (km/s) = 7.43340 5.71006 3.36531
#
# Compressibility (1/GPa) = 0.02714471
#
# Stress axis : x y z
#
# Youngs Moduli (GPa) = 70.90873 209.66094 69.85652
#
# Poissons Ratio (x) = 0.23292 -0.09405
# Poissons Ratio (y) = 0.07878 0.22750
# Poissons Ratio (z) = -0.09546 0.68279
#
# Static dielectric constant tensor:
#      x y z
#    x 1.921300 0.000000 0.000000 
#    y 0.000000 2.033170 0.000000 
#    z 0.000000 0.000000 2.032270 
# 
# From -- ./inp_files/34039.got.cif
#   From: 2010.05.17/outbox.cif.g08.bks.cpg/sg71_18_cif.got.tgz:34039.got - 2010.06.03 16:22:01.
