data_PCOD9517142
_publ_section_title
;
Structure prediction by ZEFSAII (Michael W. Deem and Ramdas Pophale) SiO2 
 PCOD9517142
Probable space group: F D D D
;
_chemical_formula_sum "Si O2"
_cell_formula_units_Z 104
_cell_length_a 39.090988
_cell_length_b 8.172597
_cell_length_c 13.431636
_cell_angle_alpha 90.000000
_cell_angle_beta 90.000000
_cell_angle_gamma 90.000000
_cell_volume 4291.070450
_symmetry_space_group_name_H-M "F D D D"
_symmetry_group_IT_number 70
_space_group.IT_coordinate_system_code '2'
_symmetry_cell_setting 'orthorhombic'
loop_
_space_group_symop_operation_xyz
x,y,z
1/4-x,1/4-y,z
x,1/4-y,1/4-z
1/4-x,y,1/4-z
-x,-y,-z
3/4+x,3/4+y,-z
-x,3/4+y,3/4+z
3/4+x,-y,3/4+z
x,1/2+y,1/2+z
1/4-x,3/4-y,1/2+z
x,3/4-y,3/4-z
1/4-x,1/2+y,3/4-z
-x,1/2-y,1/2-z
3/4+x,1/4+y,1/2-z
-x,1/4+y,1/4+z
3/4+x,1/2-y,1/4+z
1/2+x,y,1/2+z
3/4-x,1/4-y,1/2+z
1/2+x,1/4-y,3/4-z
3/4-x,y,3/4-z
1/2-x,-y,1/2-z
1/4+x,3/4+y,1/2-z
1/2-x,3/4+y,1/4+z
1/4+x,-y,1/4+z
1/2+x,1/2+y,z
3/4-x,3/4-y,z
1/2+x,3/4-y,1/4-z
3/4-x,1/2+y,1/4-z
1/2-x,1/2-y,-z
1/4+x,1/4+y,-z
1/2-x,1/4+y,3/4+z
1/4+x,1/2-y,3/4+z
loop_
_atom_site_type_symbol
_atom_site_label
_atom_site_fract_x
_atom_site_fract_y
_atom_site_fract_z
Si Si1 0.460537 0.204806 0.265606
Si Si2 0.915130 0.386398 0.253084
Si Si3 0.066828 0.290067 0.514138
Si Si4 0.875000 0.875000 0.375000
O O1 0.500000 0.250000 0.250000
O O2 0.456009 0.198483 0.385490
O O3 0.442609 0.365067 0.219998
O O4 0.439367 0.043699 0.231789
O O5 0.914252 0.375000 0.375000
O O6 0.875000 0.375000 0.220134
O O7 0.932659 0.217455 0.217205
O O8 0.104196 0.248582 0.556548
#
# Coordination Sequence:
#
# PCOD9517142 Si02
#       4
#    32  32  32   8
#     4   9  17  26  37  58  87 109 133 163 202 249
#     4   9  15  25  42  61  82 109 134 164 207 256
#     4   9  16  26  41  59  85 112 131 164 208 252
#     4   8  12  24  42  60  80 106 124 168 214 248
#
# _framework density 24.236377999999998
#
# number of rings (size 3 to 8) (size 9 to 14) (size 15 to 20)
#    0.000    3.385    0.000    5.538    0.000    1.231 
#    0.000    0.000    0.000    0.000    0.000    0.000 
#  110.769    0.000    0.000    0.000    0.000    0.000 
#
# Total GULP energy -144806.732557 kJ/mol
# GULP energy per Si atom -5569.489714 kJ/mol
# Density = 2.418121 g / cm^3
# Si number density = 24.236378 Si / 1000 Ang^3
#
#
#
# Elastic Constant Matrix: (Units=GPa)
#
#
# Indices 1 2 3 4 5 6 
#
# 1 172.4400 120.6777 15.3498 0.0000 0.0000 0.0000
# 2 120.6777 331.8787 51.4483 0.0000 0.0000 0.0000
# 3 15.3498 51.4483 60.8271 0.0000 0.0000 0.0000
# 4 0.0000 0.0000 0.0000 44.2477 0.0000 0.0000
# 5 0.0000 0.0000 0.0000 0.0000 2.0304 0.0000
# 6 0.0000 0.0000 0.0000 0.0000 0.0000 121.5541
#
#
#
# Elastic Compliance Matrix: (Units=1/GPa)
#
#
# Indices 1 2 3 4 5 6 
#
# 1 0.007791 -0.002910 0.000495 0.000000 0.000000 0.000000
# 2 -0.002910 0.004555 -0.003118 0.000000 0.000000 0.000000
# 3 0.000495 -0.003118 0.018952 0.000000 0.000000 0.000000
# 4 0.000000 0.000000 0.000000 0.022600 0.000000 0.000000
# 5 0.000000 0.000000 0.000000 0.000000 0.492514 0.000000
# 6 0.000000 0.000000 0.000000 0.000000 0.000000 0.008227
#
#
# Mechanical properties :
#
#
# Convention : Reuss Voigt Hill
#
# Bulk Modulus (GPa) = 49.42496 104.45525 76.94011
# Shear Modulus (GPa) = 8.73439 58.74444 33.73942
#
# Velocity S-wave (km/s) = 1.90044 4.92856 3.73513
# Velocity P-wave (km/s) = 5.02521 8.69366 7.10044
#
# Compressibility (1/GPa) = 0.02023269
#
# Stress axis : x y z
#
# Youngs Moduli (GPa) = 128.34583 219.55848 52.76379
#
# Poissons Ratio (x) = 0.63889 -0.02612
# Poissons Ratio (y) = 0.37347 0.16452
# Poissons Ratio (z) = -0.06353 0.68459
#
# Static dielectric constant tensor:
#      x y z
#    x 2.053270 0.000000 0.000000 
#    y 0.000000 1.982980 0.000000 
#    z 0.000000 0.000000 1.844250 
# 
# From -- ./inp_files/9689.got.cif
#   From: 2010.05.17/outbox.cif.g08.bks.cpg/sg70_5_cif.got.tgz:9689.got - 2010.06.03 15:57:51.
