data_PCOD9517771
_publ_section_title
;
Structure prediction by ZEFSAII (Michael W. Deem and Ramdas Pophale) SiO2 
 PCOD9517771
Probable space group: I M M M
;
_chemical_formula_sum "Si O2"
_cell_formula_units_Z 88
_cell_length_a 8.768693
_cell_length_b 31.441478
_cell_length_c 24.452023
_cell_angle_alpha 90.000000
_cell_angle_beta 90.000000
_cell_angle_gamma 90.000000
_cell_volume 6741.439076
_symmetry_space_group_name_H-M "I M M M"
_symmetry_group_IT_number 71
_symmetry_cell_setting 'orthorhombic'
loop_
_space_group_symop_operation_xyz
x,y,z
-x,-y,z
x,-y,-z
-x,y,-z
-x,-y,-z
x,y,-z
-x,y,z
x,-y,z
1/2+x,1/2+y,1/2+z
1/2-x,1/2-y,1/2+z
1/2+x,1/2-y,1/2-z
1/2-x,1/2+y,1/2-z
1/2-x,1/2-y,1/2-z
1/2+x,1/2+y,1/2-z
1/2-x,1/2+y,1/2+z
1/2+x,1/2-y,1/2+z
loop_
_atom_site_type_symbol
_atom_site_label
_atom_site_fract_x
_atom_site_fract_y
_atom_site_fract_z
Si Si1 0.317056 0.752224 0.116721
Si Si2 0.685083 0.160980 0.819646
Si Si3 0.181866 0.000000 0.063450
Si Si4 0.325707 0.144747 0.000000
Si Si5 0.320400 0.913935 0.106849
Si Si6 0.816703 0.709933 0.216706
Si Si7 0.678884 0.265525 0.500000
O O1 0.500000 0.751476 0.117111
O O2 0.268702 0.798266 0.142920
O O3 0.253027 0.715768 0.156852
O O4 0.254460 0.748753 0.055690
O O5 0.500000 0.160262 0.823071
O O6 0.739235 0.116490 0.844632
O O7 0.724816 0.170797 0.756662
O O8 0.238121 0.042158 0.094135
O O9 0.000000 0.000000 0.061382
O O10 0.239238 0.000000 0.000000
O O11 0.308434 0.115527 0.052970
O O12 0.500000 0.162245 0.000000
O O13 0.211983 0.183897 0.000000
O O14 0.500000 0.922748 0.115715
O O15 0.750000 0.750000 0.250000
O O16 0.000000 0.712651 0.214073
O O17 0.500000 0.257001 0.500000
#
# Coordination Sequence:
#
# PCOD9517771 Si02
#       7
#    16  16   8   8  16  16   8
#     4  10  18  30  43  57  79 106 134 166 199 237
#     4   8  15  27  44  60  75  96 128 166 200 237
#     4  11  23  33  39  55  81 103 127 172 219 248
#     4  10  18  29  45  58  75 100 134 170 203 247
#     4  10  18  31  47  59  71 101 138 166 202 253
#     4   9  16  27  41  60  81 102 127 161 202 241
#     4  12  22  28  39  61  84 106 133 167 209 250
#
# _framework density 13.053592999999999
#
# number of rings (size 3 to 8) (size 9 to 14) (size 15 to 20)
#    0.000    2.273    2.727    3.273    0.000    1.091 
#    0.000    1.818    0.000    0.000    0.000    0.000 
#    0.000    0.000    0.000    0.000    0.000    0.909 
#
# Total GULP energy -245101.682969 kJ/mol
# GULP energy per Si atom -5570.492795 kJ/mol
# Density = 1.302388 g / cm^3
# Si number density = 13.053593 Si / 1000 Ang^3
#
#
#
# Elastic Constant Matrix: (Units=GPa)
#
#
# Indices 1 2 3 4 5 6 
#
# 1 47.6108 24.2127 37.2609 0.0000 0.0000 0.0000
# 2 24.2127 65.9573 50.0461 0.0000 0.0000 0.0000
# 3 37.2609 50.0461 105.3330 0.0000 0.0000 0.0000
# 4 0.0000 0.0000 0.0000 12.0003 0.0000 0.0000
# 5 0.0000 0.0000 0.0000 0.0000 19.7986 0.0000
# 6 0.0000 0.0000 0.0000 0.0000 0.0000 15.4332
#
#
#
# Elastic Compliance Matrix: (Units=1/GPa)
#
#
# Indices 1 2 3 4 5 6 
#
# 1 0.029917 -0.004617 -0.008389 0.000000 0.000000 0.000000
# 2 -0.004617 0.024421 -0.009970 0.000000 0.000000 0.000000
# 3 -0.008389 -0.009970 0.017198 0.000000 0.000000 0.000000
# 4 0.000000 0.000000 0.000000 0.083331 0.000000 0.000000
# 5 0.000000 0.000000 0.000000 0.000000 0.050509 0.000000
# 6 0.000000 0.000000 0.000000 0.000000 0.000000 0.064795
#
#
# Mechanical properties :
#
#
# Convention : Reuss Voigt Hill
#
# Bulk Modulus (GPa) = 39.08655 49.10452 44.09553
# Shear Modulus (GPa) = 15.40110 16.60517 16.00313
#
# Velocity S-wave (km/s) = 3.43860 3.57049 3.50516
# Velocity P-wave (km/s) = 6.76561 7.39575 7.08769
#
# Compressibility (1/GPa) = 0.02558425
#
# Stress axis : x y z
#
# Youngs Moduli (GPa) = 33.42544 40.94863 58.14538
#
# Poissons Ratio (x) = 0.18906 0.48781
# Poissons Ratio (y) = 0.15432 0.57969
# Poissons Ratio (z) = 0.28042 0.40825
#
# Static dielectric constant tensor:
#      x y z
#    x 1.442500 0.000000 0.000000 
#    y 0.000000 1.412500 0.000000 
#    z 0.000000 0.000000 1.478830 
# 
# From -- ./inp_files/17404.got.cif
#   From: 2010.05.17/outbox.cif.g08.bks.cpg/sg71_9_cif.got.tgz:17404.got - 2010.06.03 16:22:01.
