data_PCOD9517901
_publ_section_title
;
Structure prediction by ZEFSAII (Michael W. Deem and Ramdas Pophale) SiO2 
 PCOD9517901
Probable space group: I M M M
;
_chemical_formula_sum "Si O2"
_cell_formula_units_Z 96
_cell_length_a 34.083875
_cell_length_b 10.391880
_cell_length_c 16.212698
_cell_angle_alpha 90.000000
_cell_angle_beta 90.000000
_cell_angle_gamma 90.000000
_cell_volume 5742.465306
_symmetry_space_group_name_H-M "I M M M"
_symmetry_group_IT_number 71
_symmetry_cell_setting 'orthorhombic'
loop_
_space_group_symop_operation_xyz
x,y,z
-x,-y,z
x,-y,-z
-x,y,-z
-x,-y,-z
x,y,-z
-x,y,z
x,-y,z
1/2+x,1/2+y,1/2+z
1/2-x,1/2-y,1/2+z
1/2+x,1/2-y,1/2-z
1/2-x,1/2+y,1/2-z
1/2-x,1/2-y,1/2-z
1/2+x,1/2+y,1/2-z
1/2-x,1/2+y,1/2+z
1/2+x,1/2-y,1/2+z
loop_
_atom_site_type_symbol
_atom_site_label
_atom_site_fract_x
_atom_site_fract_y
_atom_site_fract_z
Si Si1 0.156431 0.651156 0.593375
Si Si2 0.453060 0.500000 0.251385
Si Si3 0.912554 0.750876 0.686472
Si Si4 0.954010 0.500000 0.260042
Si Si5 0.640759 0.763740 0.649285
Si Si6 0.892838 0.000000 0.093824
Si Si7 0.907045 0.500000 0.911128
Si Si8 0.713480 0.846569 0.751440
O O1 0.170436 0.670587 0.500000
O O2 0.144828 0.500000 0.602614
O O3 0.118193 0.737415 0.612105
O O4 0.189487 0.672502 0.662761
O O5 0.500000 0.500000 0.265219
O O6 0.438715 0.376284 0.199700
O O7 0.428037 0.500000 0.337852
O O8 0.939358 0.625479 0.692245
O O9 0.884204 0.743231 0.766215
O O10 0.934986 0.500000 0.168478
O O11 0.000000 0.500000 0.251290
O O12 0.633930 0.625914 0.608087
O O13 0.620434 0.875314 0.596790
O O14 0.683902 0.805511 0.677843
O O15 0.908114 0.000000 0.000000
O O16 0.927472 0.500000 0.000000
O O17 0.750000 0.750000 0.750000
O O18 0.722798 0.000000 0.745108
#
# Coordination Sequence:
#
# PCOD9517901 Si02
#       8
#    16   8  16   8  16   8   8  16
#     4   9  17  34  60  83 102 131 175 220 256 297
#     4  10  20  33  51  75 106 142 174 214 270 321
#     4   9  17  32  52  74  99 134 174 210 253 311
#     4  10  18  29  49  75 100 128 170 220 258 301
#     4   9  18  33  51  72  99 136 181 213 250 304
#     4  10  20  33  51  76 103 137 186 229 255 298
#     4  10  18  31  49  68  99 139 174 209 255 308
#     4  10  20  35  58  82 109 140 171 208 257 316
#
# _framework density 16.717558
#
# number of rings (size 3 to 8) (size 9 to 14) (size 15 to 20)
#    0.000    2.500    1.667    1.000    1.167    0.333 
#    1.500    2.083    0.000    9.000    0.000    0.000 
#    0.000    0.000    0.000    0.000    0.000    0.000 
#
# Total GULP energy -267295.558592 kJ/mol
# GULP energy per Si atom -5568.657471 kJ/mol
# Density = 1.667951 g / cm^3
# Si number density = 16.717558 Si / 1000 Ang^3
#
#
#
# Elastic Constant Matrix: (Units=GPa)
#
#
# Indices 1 2 3 4 5 6 
#
# 1 107.9924 61.0954 23.9365 0.0000 0.0000 0.0000
# 2 61.0954 142.5149 25.1745 0.0000 0.0000 0.0000
# 3 23.9365 25.1745 61.6181 0.0000 0.0000 0.0000
# 4 0.0000 0.0000 0.0000 39.4856 0.0000 0.0000
# 5 0.0000 0.0000 0.0000 0.0000 12.7539 0.0000
# 6 0.0000 0.0000 0.0000 0.0000 0.0000 17.4398
#
#
#
# Elastic Compliance Matrix: (Units=1/GPa)
#
#
# Indices 1 2 3 4 5 6 
#
# 1 0.012694 -0.004926 -0.002918 0.000000 0.000000 0.000000
# 2 -0.004926 0.009474 -0.001957 0.000000 0.000000 0.000000
# 3 -0.002918 -0.001957 0.018162 0.000000 0.000000 0.000000
# 4 0.000000 0.000000 0.000000 0.025326 0.000000 0.000000
# 5 0.000000 0.000000 0.000000 0.000000 0.078408 0.000000
# 6 0.000000 0.000000 0.000000 0.000000 0.000000 0.057340
#
#
# Mechanical properties :
#
#
# Convention : Reuss Voigt Hill
#
# Bulk Modulus (GPa) = 48.24666 59.17089 53.70878
# Shear Modulus (GPa) = 21.93785 27.39711 24.66748
#
# Velocity S-wave (km/s) = 3.62645 4.05263 3.84545
# Velocity P-wave (km/s) = 6.81596 7.57428 7.20510
#
# Compressibility (1/GPa) = 0.02072682
#
# Stress axis : x y z
#
# Youngs Moduli (GPa) = 78.77907 105.54785 55.05901
#
# Poissons Ratio (x) = 0.51995 0.16069
# Poissons Ratio (y) = 0.38808 0.10776
# Poissons Ratio (z) = 0.22991 0.20657
#
# Static dielectric constant tensor:
#      x y z
#    x 1.545490 0.000000 0.000000 
#    y 0.000000 1.630170 0.000000 
#    z 0.000000 0.000000 1.571790 
# 
# From -- ./inp_files/40911.got.cif
#   From: 2010.05.17/outbox.cif.g08.bks.cpg/sg71_21_cif.got.tgz:40911.got - 2010.06.03 16:22:01.
