data_PCOD9517055
_publ_section_title
;
Structure prediction by ZEFSAII (Michael W. Deem and Ramdas Pophale) SiO2 
 PCOD9517055
Probable space group: F D D D
;
_chemical_formula_sum "Si O2"
_cell_formula_units_Z 144
_cell_length_a 19.013207
_cell_length_b 18.026187
_cell_length_c 17.671506
_cell_angle_alpha 90.000000
_cell_angle_beta 90.000000
_cell_angle_gamma 90.000000
_cell_volume 6056.654651
_symmetry_space_group_name_H-M "F D D D"
_symmetry_group_IT_number 70
_space_group.IT_coordinate_system_code '2'
_symmetry_cell_setting 'orthorhombic'
loop_
_space_group_symop_operation_xyz
x,y,z
1/4-x,1/4-y,z
x,1/4-y,1/4-z
1/4-x,y,1/4-z
-x,-y,-z
3/4+x,3/4+y,-z
-x,3/4+y,3/4+z
3/4+x,-y,3/4+z
x,1/2+y,1/2+z
1/4-x,3/4-y,1/2+z
x,3/4-y,3/4-z
1/4-x,1/2+y,3/4-z
-x,1/2-y,1/2-z
3/4+x,1/4+y,1/2-z
-x,1/4+y,1/4+z
3/4+x,1/2-y,1/4+z
1/2+x,y,1/2+z
3/4-x,1/4-y,1/2+z
1/2+x,1/4-y,3/4-z
3/4-x,y,3/4-z
1/2-x,-y,1/2-z
1/4+x,3/4+y,1/2-z
1/2-x,3/4+y,1/4+z
1/4+x,-y,1/4+z
1/2+x,1/2+y,z
3/4-x,3/4-y,z
1/2+x,3/4-y,1/4-z
3/4-x,1/2+y,1/4-z
1/2-x,1/2-y,-z
1/4+x,1/4+y,-z
1/2-x,1/4+y,3/4+z
1/4+x,1/2-y,3/4+z
loop_
_atom_site_type_symbol
_atom_site_label
_atom_site_fract_x
_atom_site_fract_y
_atom_site_fract_z
Si Si1 0.375000 0.875000 0.725311
Si Si2 0.125000 0.298556 0.625000
Si Si3 0.971233 0.144962 0.741507
Si Si4 0.137108 0.998034 0.876896
Si Si5 0.496353 0.974061 0.232071
Si Si6 0.466148 0.125000 0.625000
O O1 0.444456 0.842421 0.765421
O O2 0.346139 0.806155 0.676177
O O3 0.064834 0.305160 0.823211
O O4 0.180103 0.266535 0.686841
O O5 0.931623 0.163424 0.819188
O O6 0.964969 0.056743 0.737778
O O7 0.081594 0.940338 0.911946
O O8 0.186274 0.053207 0.924342
O O9 0.499110 0.920557 0.305207
#
# Coordination Sequence:
#
# PCOD9517055 Si02
#       6
#    16  16  32  32  32  16
#     4  12  24  40  71 111 148 190 242 318 394 443
#     4  12  24  44  75 111 146 200 256 306 394 447
#     4  12  24  44  72 111 151 192 251 320 386 454
#     4  12  24  46  71 110 151 192 259 316 377 462
#     4  12  25  44  73 105 150 203 252 316 381 459
#     4  12  24  48  72 106 154 196 252 318 384 458
#
# _framework density 23.775500999999998
#
# number of rings (size 3 to 8) (size 9 to 14) (size 15 to 20)
#    0.000    0.000    8.889    0.667    3.111    0.000 
#    0.000    6.667    0.000    0.000    0.000    0.000 
#    0.000    0.000    0.000    0.000    0.000    0.000 
#
# Total GULP energy -200528.980811 kJ/mol
# GULP energy per Si atom -5570.249467 kJ/mol
# Density = 2.372139 g / cm^3
# Si number density = 23.775501 Si / 1000 Ang^3
#
#
#
# Elastic Constant Matrix: (Units=GPa)
#
#
# Indices 1 2 3 4 5 6 
#
# 1 74.9788 10.8016 59.0374 0.0000 0.0000 0.0000
# 2 10.8016 122.2488 60.2036 0.0000 0.0000 0.0000
# 3 59.0374 60.2036 151.7351 0.0000 0.0000 0.0000
# 4 0.0000 0.0000 0.0000 32.8310 0.0000 0.0000
# 5 0.0000 0.0000 0.0000 0.0000 38.5665 0.0000
# 6 0.0000 0.0000 0.0000 0.0000 0.0000 30.0882
#
#
#
# Elastic Compliance Matrix: (Units=1/GPa)
#
#
# Indices 1 2 3 4 5 6 
#
# 1 0.019846 0.002547 -0.008732 0.000000 0.000000 0.000000
# 2 0.002547 0.010493 -0.005154 0.000000 0.000000 0.000000
# 3 -0.008732 -0.005154 0.012033 0.000000 0.000000 0.000000
# 4 0.000000 0.000000 0.000000 0.030459 0.000000 0.000000
# 5 0.000000 0.000000 0.000000 0.000000 0.025929 0.000000
# 6 0.000000 0.000000 0.000000 0.000000 0.000000 0.033236
#
#
# Mechanical properties :
#
#
# Convention : Reuss Voigt Hill
#
# Bulk Modulus (GPa) = 50.78003 67.67200 59.22601
# Shear Modulus (GPa) = 31.00978 34.89183 32.95080
#
# Velocity S-wave (km/s) = 3.61539 3.83502 3.72683
# Velocity P-wave (km/s) = 6.23158 6.93791 6.59421
#
# Compressibility (1/GPa) = 0.01969278
#
# Stress axis : x y z
#
# Youngs Moduli (GPa) = 50.38865 95.29845 83.10481
#
# Poissons Ratio (x) = -0.24270 0.72568
# Poissons Ratio (y) = -0.12833 0.42835
# Poissons Ratio (z) = 0.44000 0.49120
#
# Static dielectric constant tensor:
#      x y z
#    x 2.002990 0.000000 0.000000 
#    y 0.000000 1.975330 0.000000 
#    z 0.000000 0.000000 2.129720 
# 
# From -- ./inp_files/36252.got.cif
#   From: 2010.05.17/outbox.cif.g08.bks.cpg/sg70_19_cif.got.tgz:36252.got - 2010.06.03 15:57:51.
