data_PCOD9517156
_publ_section_title
;
Structure prediction by ZEFSAII (Michael W. Deem and Ramdas Pophale) SiO2 
 PCOD9517156
Probable space group: F D D D
;
_chemical_formula_sum "Si O2"
_cell_formula_units_Z 192
_cell_length_a 9.554953
_cell_length_b 30.817154
_cell_length_c 29.358045
_cell_angle_alpha 90.000000
_cell_angle_beta 90.000000
_cell_angle_gamma 90.000000
_cell_volume 8644.665946
_symmetry_space_group_name_H-M "F D D D"
_symmetry_group_IT_number 70
_space_group.IT_coordinate_system_code '2'
_symmetry_cell_setting 'orthorhombic'
loop_
_space_group_symop_operation_xyz
x,y,z
1/4-x,1/4-y,z
x,1/4-y,1/4-z
1/4-x,y,1/4-z
-x,-y,-z
3/4+x,3/4+y,-z
-x,3/4+y,3/4+z
3/4+x,-y,3/4+z
x,1/2+y,1/2+z
1/4-x,3/4-y,1/2+z
x,3/4-y,3/4-z
1/4-x,1/2+y,3/4-z
-x,1/2-y,1/2-z
3/4+x,1/4+y,1/2-z
-x,1/4+y,1/4+z
3/4+x,1/2-y,1/4+z
1/2+x,y,1/2+z
3/4-x,1/4-y,1/2+z
1/2+x,1/4-y,3/4-z
3/4-x,y,3/4-z
1/2-x,-y,1/2-z
1/4+x,3/4+y,1/2-z
1/2-x,3/4+y,1/4+z
1/4+x,-y,1/4+z
1/2+x,1/2+y,z
3/4-x,3/4-y,z
1/2+x,3/4-y,1/4-z
3/4-x,1/2+y,1/4-z
1/2-x,1/2-y,-z
1/4+x,1/4+y,-z
1/2-x,1/4+y,3/4+z
1/4+x,1/2-y,3/4+z
loop_
_atom_site_type_symbol
_atom_site_label
_atom_site_fract_x
_atom_site_fract_y
_atom_site_fract_z
Si Si1 0.375000 0.601973 0.375000
Si Si2 0.625000 0.203960 0.125000
Si Si3 0.608253 0.221988 0.382142
Si Si4 0.900562 0.947601 0.017222
Si Si5 0.291903 0.755569 0.712365
Si Si6 0.346304 0.124857 0.274260
Si Si7 0.456791 0.933986 0.971632
O O1 0.509264 0.569918 0.377460
O O2 0.372623 0.628744 0.421655
O O3 0.495342 0.236642 0.116340
O O4 0.598905 0.177614 0.170897
O O5 0.669355 0.215725 0.432051
O O6 0.710318 0.228928 0.339625
O O7 0.772922 0.912506 0.021135
O O8 0.033241 0.918990 0.004271
O O9 0.846166 0.983260 0.982200
O O10 0.417070 0.719608 0.715992
O O11 0.344338 0.793646 0.745408
O O12 0.475813 0.143033 0.246345
#
# Coordination Sequence:
#
# PCOD9517156 Si02
#       7
#    16  16  32  32  32  32  32
#     4   9  14  22  36  54  78 124 178 233 294 344
#     4   9  14  20  36  56  84 120 179 239 296 344
#     4   9  14  21  36  55  81 122 177 241 295 337
#     4   9  16  24  34  56  88 126 177 246 294 345
#     4   9  14  22  35  54  83 123 178 238 293 346
#     4   9  16  24  35  54  88 128 177 237 302 349
#     4   9  14  22  34  56  82 125 178 235 296 350
#
# _framework density 22.210228000000001
#
# number of rings (size 3 to 8) (size 9 to 14) (size 15 to 20)
#    0.000    3.000    3.333    0.000    0.000    0.000 
#    0.000    0.000    0.000    0.000    0.000    1.167 
#    0.000    0.000    0.000    4.500    2.000    1.583 
#
# Total GULP energy -268461.839450 kJ/mol
# GULP energy per Si atom -5592.954989 kJ/mol
# Density = 2.215968 g / cm^3
# Si number density = 22.210228 Si / 1000 Ang^3
#
#
#
# Elastic Constant Matrix: (Units=GPa)
#
#
# Indices 1 2 3 4 5 6 
#
# 1 87.0111 58.3916 71.6316 0.0000 0.0000 0.0000
# 2 58.3916 100.1645 67.9150 0.0000 0.0000 0.0000
# 3 71.6316 67.9150 174.1572 0.0000 0.0000 0.0000
# 4 0.0000 0.0000 0.0000 0.4193 0.0000 0.0000
# 5 0.0000 0.0000 0.0000 0.0000 22.9070 0.0000
# 6 0.0000 0.0000 0.0000 0.0000 0.0000 25.3687
#
#
#
# Elastic Compliance Matrix: (Units=1/GPa)
#
#
# Indices 1 2 3 4 5 6 
#
# 1 0.022243 -0.009195 -0.005563 0.000000 0.000000 0.000000
# 2 -0.009195 0.017373 -0.002993 0.000000 0.000000 0.000000
# 3 -0.005563 -0.002993 0.009197 0.000000 0.000000 0.000000
# 4 0.000000 0.000000 0.000000 2.384782 0.000000 0.000000
# 5 0.000000 0.000000 0.000000 0.000000 0.043655 0.000000
# 6 0.000000 0.000000 0.000000 0.000000 0.000000 0.039419
#
#
# Mechanical properties :
#
#
# Convention : Reuss Voigt Hill
#
# Bulk Modulus (GPa) = 75.12216 84.13436 79.62826
# Shear Modulus (GPa) = 1.95572 20.63198 11.29385
#
# Velocity S-wave (km/s) = 0.93939 3.05116 2.25744
# Velocity P-wave (km/s) = 5.92227 7.09760 6.53640
#
# Compressibility (1/GPa) = 0.01331165
#
# Stress axis : x y z
#
# Youngs Moduli (GPa) = 44.95805 57.56013 108.72889
#
# Poissons Ratio (x) = 0.52925 0.60486
# Poissons Ratio (y) = 0.41338 0.32543
# Poissons Ratio (z) = 0.25010 0.17228
#
# Static dielectric constant tensor:
#      x y z
#    x 1.835850 0.000000 0.000000 
#    y 0.000000 1.822550 0.000000 
#    z 0.000000 0.000000 1.752340 
# 
# From -- ./inp_files/64982.got.cif
#   From: 2010.05.17/outbox.cif.g08.bks.cpg/sg70_33_cif.got.tgz:64982.got - 2010.06.03 15:57:51.
