data_PCOD9517059
_publ_section_title
;
Structure prediction by ZEFSAII (Michael W. Deem and Ramdas Pophale) SiO2 
 PCOD9517059
Probable space group: F D D D
;
_chemical_formula_sum "Si O2"
_cell_formula_units_Z 192
_cell_length_a 12.388463
_cell_length_b 26.024023
_cell_length_c 27.321453
_cell_angle_alpha 90.000000
_cell_angle_beta 90.000000
_cell_angle_gamma 90.000000
_cell_volume 8808.372134
_symmetry_space_group_name_H-M "F D D D"
_symmetry_group_IT_number 70
_space_group.IT_coordinate_system_code '2'
_symmetry_cell_setting 'orthorhombic'
loop_
_space_group_symop_operation_xyz
x,y,z
1/4-x,1/4-y,z
x,1/4-y,1/4-z
1/4-x,y,1/4-z
-x,-y,-z
3/4+x,3/4+y,-z
-x,3/4+y,3/4+z
3/4+x,-y,3/4+z
x,1/2+y,1/2+z
1/4-x,3/4-y,1/2+z
x,3/4-y,3/4-z
1/4-x,1/2+y,3/4-z
-x,1/2-y,1/2-z
3/4+x,1/4+y,1/2-z
-x,1/4+y,1/4+z
3/4+x,1/2-y,1/4+z
1/2+x,y,1/2+z
3/4-x,1/4-y,1/2+z
1/2+x,1/4-y,3/4-z
3/4-x,y,3/4-z
1/2-x,-y,1/2-z
1/4+x,3/4+y,1/2-z
1/2-x,3/4+y,1/4+z
1/4+x,-y,1/4+z
1/2+x,1/2+y,z
3/4-x,3/4-y,z
1/2+x,3/4-y,1/4-z
3/4-x,1/2+y,1/4-z
1/2-x,1/2-y,-z
1/4+x,1/4+y,-z
1/2-x,1/4+y,3/4+z
1/4+x,1/2-y,3/4+z
loop_
_atom_site_type_symbol
_atom_site_label
_atom_site_fract_x
_atom_site_fract_y
_atom_site_fract_z
Si Si1 0.433008 0.052357 0.262843
Si Si2 0.040954 0.789792 0.400792
Si Si3 0.875000 0.375000 0.875000
Si Si4 0.992327 0.677193 0.379168
Si Si5 0.222802 0.951663 0.433665
Si Si6 0.494775 0.881211 0.231920
Si Si7 0.125000 0.125000 0.125000
Si Si8 0.625000 0.625000 0.454416
O O1 0.416358 0.035455 0.206349
O O2 0.320946 0.081587 0.275628
O O3 0.533057 0.092899 0.267314
O O4 0.469488 0.004300 0.297396
O O5 0.983597 0.737298 0.387015
O O6 0.128414 0.793818 0.356904
O O7 0.957440 0.836842 0.401951
O O8 0.032949 0.656387 0.430329
O O9 0.062942 0.663488 0.332429
O O10 0.875000 0.652511 0.375000
O O11 0.189910 0.920764 0.483049
O O12 0.302950 0.913443 0.406314
O O13 0.375000 0.875000 0.253988
#
# Coordination Sequence:
#
# PCOD9517059 Si02
#       8
#    32  32   8  32  32  32   8  16
#     4  12  27  46  78 112 149 205 259 309 387 464
#     4  12  26  47  71 108 149 203 253 313 388 457
#     4  12  24  44  72 100 154 200 238 312 378 472
#     4  12  24  46  75 109 154 192 253 322 385 447
#     4  12  27  48  75 107 150 199 250 322 380 458
#     4  12  26  47  74 111 155 199 254 319 382 460
#     4  12  26  46  68 104 146 184 244 312 380 444
#     4  12  25  47  76 115 152 201 261 318 379 464
#
# _framework density 21.797443000000001
#
# number of rings (size 3 to 8) (size 9 to 14) (size 15 to 20)
#    0.000    0.000    7.500    3.000    0.000    3.333 
#    0.000    3.333    0.000    0.000    0.000    0.000 
#    0.000    0.000    0.000    0.000    0.000    0.000 
#
# Total GULP energy -267764.063448 kJ/mol
# GULP energy per Si atom -5578.417989 kJ/mol
# Density = 2.174783 g / cm^3
# Si number density = 21.797443 Si / 1000 Ang^3
#
#
#
# Elastic Constant Matrix: (Units=GPa)
#
#
# Indices 1 2 3 4 5 6 
#
# 1 118.1811 54.3247 49.6186 0.0000 0.0000 0.0000
# 2 54.3247 139.9167 47.7716 0.0000 0.0000 0.0000
# 3 49.6186 47.7716 127.8835 0.0000 0.0000 0.0000
# 4 0.0000 0.0000 0.0000 -41.8204 0.0000 0.0000
# 5 0.0000 0.0000 0.0000 0.0000 -52.5565 0.0000
# 6 0.0000 0.0000 0.0000 0.0000 0.0000 35.7014
#
#
#
# Elastic Compliance Matrix: (Units=1/GPa)
#
#
# Indices 1 2 3 4 5 6 
#
# 1 0.011308 -0.003315 -0.003149 0.000000 0.000000 0.000000
# 2 -0.003315 0.009164 -0.002137 0.000000 0.000000 0.000000
# 3 -0.003149 -0.002137 0.009840 0.000000 0.000000 0.000000
# 4 0.000000 0.000000 0.000000 -0.023912 0.000000 0.000000
# 5 0.000000 0.000000 0.000000 0.000000 -0.019027 0.000000
# 6 0.000000 0.000000 0.000000 0.000000 0.000000 0.028010
#
#
# Mechanical properties :
#
#
# Convention : Reuss Voigt Hill
#
# Bulk Modulus (GPa) = 76.28323 76.60121 76.44222
# Shear Modulus (GPa) = 135.30309 3.88266 69.59288
#
# Velocity S-wave (km/s) = 7.88718 1.33608 5.65654
# Velocity P-wave (km/s) = 10.86351 6.13178 8.82085
#
# Compressibility (1/GPa) = 0.01310904
#
# Stress axis : x y z
#
# Youngs Moduli (GPa) = 88.43631 109.12396 101.62963
#
# Poissons Ratio (x) = 0.36177 0.32002
# Poissons Ratio (y) = 0.29318 0.21718
# Poissons Ratio (z) = 0.27848 0.23319
#
# Static dielectric constant tensor:
#      x y z
#    x 1.766700 0.000000 0.000000 
#    y 0.000000 1.615350 0.000000 
#    z 0.000000 0.000000 1.886280 
# 
# From -- ./inp_files/57861.got.cif
#   From: 2010.05.17/outbox.cif.g08.bks.cpg/sg70_29_cif.got.tgz:57861.got - 2010.06.03 15:57:51.
