data_PCOD9517881
_publ_section_title
;
Structure prediction by ZEFSAII (Michael W. Deem and Ramdas Pophale) SiO2 
 PCOD9517881
Probable space group: I M M M
;
_chemical_formula_sum "Si O2"
_cell_formula_units_Z 104
_cell_length_a 29.075620
_cell_length_b 23.794123
_cell_length_c 7.514515
_cell_angle_alpha 90.000000
_cell_angle_beta 90.000000
_cell_angle_gamma 90.000000
_cell_volume 5198.758486
_symmetry_space_group_name_H-M "I M M M"
_symmetry_group_IT_number 71
_symmetry_cell_setting 'orthorhombic'
loop_
_space_group_symop_operation_xyz
x,y,z
-x,-y,z
x,-y,-z
-x,y,-z
-x,-y,-z
x,y,-z
-x,y,z
x,-y,z
1/2+x,1/2+y,1/2+z
1/2-x,1/2-y,1/2+z
1/2+x,1/2-y,1/2-z
1/2-x,1/2+y,1/2-z
1/2-x,1/2-y,1/2-z
1/2+x,1/2+y,1/2-z
1/2-x,1/2+y,1/2+z
1/2+x,1/2-y,1/2+z
loop_
_atom_site_type_symbol
_atom_site_label
_atom_site_fract_x
_atom_site_fract_y
_atom_site_fract_z
Si Si1 0.446790 0.439184 0.217038
Si Si2 0.107862 0.831938 0.285633
Si Si3 0.193021 0.318742 0.793837
Si Si4 0.107455 0.388514 0.206408
Si Si5 0.292197 0.692517 0.708797
Si Si6 0.947138 0.277492 0.715789
Si Si7 0.945902 0.500000 0.218406
O O1 0.500000 0.435918 0.268314
O O2 0.428263 0.500000 0.273024
O O3 0.420504 0.384872 0.281284
O O4 0.445671 0.438185 0.000000
O O5 0.104728 0.830495 0.500000
O O6 0.160629 0.839356 0.235898
O O7 0.085693 0.773267 0.222666
O O8 0.155174 0.361682 0.717088
O O9 0.246562 0.335750 0.786768
O O10 0.196541 0.255326 0.715854
O O11 0.179290 0.311428 0.000000
O O12 0.071922 0.336800 0.218199
O O13 0.082220 0.444297 0.278185
O O14 0.117264 0.402123 0.000000
O O15 0.282956 0.698968 0.500000
O O16 0.945743 0.278939 0.500000
O O17 0.000000 0.267937 0.768458
O O18 0.000000 0.500000 0.273361
O O19 0.946993 0.500000 0.000000
#
# Coordination Sequence:
#
# PCOD9517881 Si02
#       7
#    16  16  16  16  16  16   8
#     4   8  14  26  46  71  97 127 165 204 238 278
#     4  10  18  29  48  73 101 130 161 201 246 289
#     4   9  18  32  50  72  97 126 160 200 245 294
#     4  10  19  34  54  75  99 129 168 209 250 297
#     4  10  19  31  49  74 101 127 159 198 245 298
#     4  10  20  31  45  71 105 135 162 196 243 295
#     4   9  18  32  53  79 103 131 167 209 256 299
#
# _framework density 20.004777000000001
#
# number of rings (size 3 to 8) (size 9 to 14) (size 15 to 20)
#    0.000    2.538    1.538    1.846    0.000    4.000 
#    0.000    0.385    1.692    3.231    0.000    1.077 
#    0.000    0.000    0.000    0.000    0.000    0.000 
#
# Total GULP energy -289906.263276 kJ/mol
# GULP energy per Si atom -5575.120448 kJ/mol
# Density = 1.995924 g / cm^3
# Si number density = 20.004777 Si / 1000 Ang^3
#
#
#
# Elastic Constant Matrix: (Units=GPa)
#
#
# Indices 1 2 3 4 5 6 
#
# 1 142.9641 60.7442 -0.1070 0.0000 0.0000 0.0000
# 2 60.7442 112.8008 7.1864 0.0000 0.0000 0.0000
# 3 -0.1070 7.1864 54.1158 0.0000 0.0000 0.0000
# 4 0.0000 0.0000 0.0000 0.6977 0.0000 0.0000
# 5 0.0000 0.0000 0.0000 0.0000 13.2562 0.0000
# 6 0.0000 0.0000 0.0000 0.0000 0.0000 32.1261
#
#
#
# Elastic Compliance Matrix: (Units=1/GPa)
#
#
# Indices 1 2 3 4 5 6 
#
# 1 0.009094 -0.004940 0.000674 0.000000 0.000000 0.000000
# 2 -0.004940 0.011625 -0.001553 0.000000 0.000000 0.000000
# 3 0.000674 -0.001553 0.018687 0.000000 0.000000 0.000000
# 4 0.000000 0.000000 0.000000 1.433201 0.000000 0.000000
# 5 0.000000 0.000000 0.000000 0.000000 0.075436 0.000000
# 6 0.000000 0.000000 0.000000 0.000000 0.000000 0.031127
#
#
# Mechanical properties :
#
#
# Convention : Reuss Voigt Hill
#
# Bulk Modulus (GPa) = 36.01535 49.50309 42.75922
# Shear Modulus (GPa) = 3.12487 25.35313 14.23900
#
# Velocity S-wave (km/s) = 1.25118 3.56385 2.67082
# Velocity P-wave (km/s) = 4.48662 6.46019 5.56165
#
# Compressibility (1/GPa) = 0.02776594
#
# Stress axis : x y z
#
# Youngs Moduli (GPa) = 109.95801 86.02463 53.51450
#
# Poissons Ratio (x) = 0.42499 -0.03607
# Poissons Ratio (y) = 0.54323 0.08313
# Poissons Ratio (z) = -0.07412 0.13364
#
# Static dielectric constant tensor:
#      x y z
#    x 1.724230 0.000000 0.000000 
#    y 0.000000 1.700640 0.000000 
#    z 0.000000 0.000000 1.775180 
# 
# From -- ./inp_files/11552.got.cif
#   From: 2010.05.17/outbox.cif.g08.bks.cpg/sg71_6_cif.got.tgz:11552.got - 2010.06.03 16:22:01.
