data_PCOD9517451
_publ_section_title
;
Structure prediction by ZEFSAII (Michael W. Deem and Ramdas Pophale) SiO2 
 PCOD9517451
Probable space group: I M M M
;
_chemical_formula_sum "Si O2"
_cell_formula_units_Z 104
_cell_length_a 20.615187
_cell_length_b 16.975612
_cell_length_c 14.485719
_cell_angle_alpha 90.000000
_cell_angle_beta 90.000000
_cell_angle_gamma 90.000000
_cell_volume 5069.355816
_symmetry_space_group_name_H-M "I M M M"
_symmetry_group_IT_number 71
_symmetry_cell_setting 'orthorhombic'
loop_
_space_group_symop_operation_xyz
x,y,z
-x,-y,z
x,-y,-z
-x,y,-z
-x,-y,-z
x,y,-z
-x,y,z
x,-y,z
1/2+x,1/2+y,1/2+z
1/2-x,1/2-y,1/2+z
1/2+x,1/2-y,1/2-z
1/2-x,1/2+y,1/2-z
1/2-x,1/2-y,1/2-z
1/2+x,1/2+y,1/2-z
1/2-x,1/2+y,1/2+z
1/2+x,1/2-y,1/2+z
loop_
_atom_site_type_symbol
_atom_site_label
_atom_site_fract_x
_atom_site_fract_y
_atom_site_fract_z
Si Si1 0.697042 0.087778 0.825231
Si Si2 0.599894 0.245848 0.600420
Si Si3 0.249194 0.245842 0.862700
Si Si4 0.925559 0.589344 0.807801
Si Si5 0.426716 0.369220 0.744381
Si Si6 0.201112 0.089448 0.345411
Si Si7 0.921781 0.000000 0.899807
O O1 0.711427 0.166127 0.884183
O O2 0.629093 0.099779 0.770914
O O3 0.753890 0.085088 0.746982
O O4 0.696232 0.000000 0.868611
O O5 0.574758 0.273046 0.500000
O O6 0.675951 0.263072 0.605082
O O7 0.587484 0.153611 0.614000
O O8 0.572795 0.285294 0.693813
O O9 0.250000 0.250000 0.750000
O O10 0.273153 0.331734 0.895134
O O11 0.917730 0.500000 0.842316
O O12 0.000000 0.597900 0.774887
O O13 0.500000 0.389313 0.773436
O O14 0.372523 0.386810 0.819389
O O15 0.405366 0.424649 0.659477
O O16 0.203357 0.000000 0.384582
O O17 0.000000 0.000000 0.907474
O O18 0.891897 0.000000 0.000000
#
# Coordination Sequence:
#
# PCOD9517451 Si02
#       7
#    16  16  16  16  16  16   8
#     4   9  16  30  53  72  89 123 165 206 252 291
#     4  12  23  34  48  71 101 136 175 207 238 286
#     4  10  17  33  52  69  90 125 169 210 247 288
#     4  10  20  34  51  73 100 131 169 209 247 293
#     4  11  20  31  46  69 100 134 167 196 232 285
#     4  10  17  29  52  70  88 125 167 207 248 285
#     4   9  18  30  40  56  94 138 162 182 217 266
#
# _framework density 20.515426999999999
#
# number of rings (size 3 to 8) (size 9 to 14) (size 15 to 20)
#    0.000    1.769    6.923    0.923    0.000    2.154 
#    0.000    0.769    0.000    0.000    0.000    0.000 
#    0.000    2.462    0.000    5.231    0.000    0.000 
#
# Total GULP energy -289702.393688 kJ/mol
# GULP energy per Si atom -5571.199879 kJ/mol
# Density = 2.046873 g / cm^3
# Si number density = 20.515427 Si / 1000 Ang^3
#
#
#
# Elastic Constant Matrix: (Units=GPa)
#
#
# Indices 1 2 3 4 5 6 
#
# 1 119.3404 19.3036 9.7926 0.0000 0.0000 0.0000
# 2 19.3036 156.1118 7.5884 0.0000 0.0000 0.0000
# 3 9.7926 7.5884 30.7879 0.0000 0.0000 0.0000
# 4 0.0000 0.0000 0.0000 -145.5005 0.0000 0.0000
# 5 0.0000 0.0000 0.0000 0.0000 -8.4932 0.0000
# 6 0.0000 0.0000 0.0000 0.0000 0.0000 26.6333
#
#
#
# Elastic Compliance Matrix: (Units=1/GPa)
#
#
# Indices 1 2 3 4 5 6 
#
# 1 0.008743 -0.000957 -0.002545 0.000000 0.000000 0.000000
# 2 -0.000957 0.006588 -0.001319 0.000000 0.000000 0.000000
# 3 -0.002545 -0.001319 0.033615 0.000000 0.000000 0.000000
# 4 0.000000 0.000000 0.000000 -0.006873 0.000000 0.000000
# 5 0.000000 0.000000 0.000000 0.000000 -0.117742 0.000000
# 6 0.000000 0.000000 0.000000 0.000000 0.000000 0.037547
#
#
# Mechanical properties :
#
#
# Convention : Reuss Voigt Hill
#
# Bulk Modulus (GPa) = 25.44335 42.17880 33.81107
# Shear Modulus (GPa) = -325.15761 -7.50172 -166.32966
#
# Velocity S-wave (km/s) = -12.60311 -1.91430 -9.01396
# Velocity P-wave (km/s) = 14.11933 3.96461 9.58220
#
# Compressibility (1/GPa) = 0.03930301
#
# Stress axis : x y z
#
# Youngs Moduli (GPa) = 114.37617 151.78697 29.74868
#
# Poissons Ratio (x) = 0.14532 0.07571
# Poissons Ratio (y) = 0.10950 0.03925
# Poissons Ratio (z) = 0.29108 0.20025
#
# Static dielectric constant tensor:
#      x y z
#    x 1.727840 0.000000 0.000000 
#    y 0.000000 1.806200 0.000000 
#    z 0.000000 0.000000 1.718040 
# 
# From -- ./inp_files/46127.got.cif
#   From: 2010.05.17/outbox.cif.g08.bks.cpg/sg71_24_cif.got.tgz:46127.got - 2010.06.03 16:22:01.
