data_PCOD9517626
_publ_section_title
;
Structure prediction by ZEFSAII (Michael W. Deem and Ramdas Pophale) SiO2 
 PCOD9517626
Probable space group: I M M M
;
_chemical_formula_sum "Si O2"
_cell_formula_units_Z 88
_cell_length_a 30.685990
_cell_length_b 24.676783
_cell_length_c 8.998318
_cell_angle_alpha 90.000000
_cell_angle_beta 90.000000
_cell_angle_gamma 90.000000
_cell_volume 6813.809984
_symmetry_space_group_name_H-M "I M M M"
_symmetry_group_IT_number 71
_symmetry_cell_setting 'orthorhombic'
loop_
_space_group_symop_operation_xyz
x,y,z
-x,-y,z
x,-y,-z
-x,y,-z
-x,-y,-z
x,y,-z
-x,y,z
x,-y,z
1/2+x,1/2+y,1/2+z
1/2-x,1/2-y,1/2+z
1/2+x,1/2-y,1/2-z
1/2-x,1/2+y,1/2-z
1/2-x,1/2-y,1/2-z
1/2+x,1/2+y,1/2-z
1/2-x,1/2+y,1/2+z
1/2+x,1/2-y,1/2+z
loop_
_atom_site_type_symbol
_atom_site_label
_atom_site_fract_x
_atom_site_fract_y
_atom_site_fract_z
Si Si1 0.500000 0.936084 0.178229
Si Si2 0.237593 0.500000 0.322592
Si Si3 0.412712 0.893801 0.674269
Si Si4 0.251952 0.620122 0.679605
Si Si5 0.353329 0.000000 0.669850
Si Si6 0.840874 0.676778 0.677558
Si Si7 0.209047 0.780906 0.322332
O O1 0.542727 0.906517 0.240881
O O2 0.500000 0.000000 0.224621
O O3 0.500000 0.934861 0.000000
O O4 0.241858 0.500000 0.500000
O O5 0.256079 0.442197 0.270480
O O6 0.186828 0.500000 0.280575
O O7 0.421338 0.885202 0.500000
O O8 0.382898 0.846270 0.740587
O O9 0.383058 0.947519 0.689971
O O10 0.255015 0.623491 0.500000
O O11 0.203216 0.642734 0.718610
O O12 0.287470 0.659684 0.752513
O O13 0.336421 0.000000 0.500000
O O14 0.846028 0.670324 0.500000
O O15 0.830730 0.739995 0.709176
O O16 0.214189 0.783526 0.500000
O O17 0.250000 0.750000 0.250000
#
# Coordination Sequence:
#
# PCOD9517626 Si02
#       7
#     8   8  16  16   8  16  16
#     4  11  23  35  47  59  75 103 133 162 201 248
#     4  10  18  28  41  57  80 108 135 165 199 240
#     4  11  21  32  45  60  78  99 127 167 209 244
#     4   9  17  27  40  58  79 103 131 163 198 236
#     4  10  20  29  39  58  79 100 128 166 207 243
#     4   9  17  29  43  58  75  99 131 163 197 240
#     4   9  17  28  41  56  76 100 127 162 199 235
#
# _framework density 12.914948000000001
#
# number of rings (size 3 to 8) (size 9 to 14) (size 15 to 20)
#    0.000    2.273    2.727    2.455    0.000    5.455 
#    0.000    0.000    0.000    0.000    0.000    0.000 
#    0.000    0.000    0.000    0.000    0.000    0.909 
#
# Total GULP energy -245090.010878 kJ/mol
# GULP energy per Si atom -5570.227520 kJ/mol
# Density = 1.288555 g / cm^3
# Si number density = 12.914948 Si / 1000 Ang^3
#
#
#
# Elastic Constant Matrix: (Units=GPa)
#
#
# Indices 1 2 3 4 5 6 
#
# 1 56.0480 44.9113 32.9324 0.0000 0.0000 0.0000
# 2 44.9113 107.3743 38.7909 0.0000 0.0000 0.0000
# 3 32.9324 38.7909 34.1666 0.0000 0.0000 0.0000
# 4 0.0000 0.0000 0.0000 20.0573 0.0000 0.0000
# 5 0.0000 0.0000 0.0000 0.0000 19.1258 0.0000
# 6 0.0000 0.0000 0.0000 0.0000 0.0000 12.3769
#
#
#
# Elastic Compliance Matrix: (Units=1/GPa)
#
#
# Indices 1 2 3 4 5 6 
#
# 1 0.042713 -0.005073 -0.035411 0.000000 0.000000 0.000000
# 2 -0.005073 0.016392 -0.013721 0.000000 0.000000 0.000000
# 3 -0.035411 -0.013721 0.078978 0.000000 0.000000 0.000000
# 4 0.000000 0.000000 0.000000 0.049857 0.000000 0.000000
# 5 0.000000 0.000000 0.000000 0.000000 0.052285 0.000000
# 6 0.000000 0.000000 0.000000 0.000000 0.000000 0.080796
#
#
# Mechanical properties :
#
#
# Convention : Reuss Voigt Hill
#
# Bulk Modulus (GPa) = 33.69959 47.87311 40.78635
# Shear Modulus (GPa) = 11.38117 15.70896 13.54507
#
# Velocity S-wave (km/s) = 2.97179 3.49139 3.24202
# Velocity P-wave (km/s) = 6.15837 7.30763 6.75748
#
# Compressibility (1/GPa) = 0.02967395
#
# Stress axis : x y z
#
# Youngs Moduli (GPa) = 23.41195 61.00562 12.66175
#
# Poissons Ratio (x) = 0.30947 0.44836
# Poissons Ratio (y) = 0.11876 0.17373
# Poissons Ratio (z) = 0.82904 0.83705
#
# Static dielectric constant tensor:
#      x y z
#    x 1.390240 0.000000 0.000000 
#    y 0.000000 1.456740 0.000000 
#    z 0.000000 0.000000 1.433040 
# 
# From -- ./inp_files/13564.got.cif
#   From: 2010.05.17/outbox.cif.g08.bks.cpg/sg71_7_cif.got.tgz:13564.got - 2010.06.03 16:22:01.
