data_PCOD9517244
_publ_section_title
;
Structure prediction by ZEFSAII (Michael W. Deem and Ramdas Pophale) SiO2 
 PCOD9517244
Probable space group: I M M M
;
_chemical_formula_sum "Si O2"
_cell_formula_units_Z 96
_cell_length_a 9.913485
_cell_length_b 32.132614
_cell_length_c 17.601963
_cell_angle_alpha 90.000000
_cell_angle_beta 90.000000
_cell_angle_gamma 90.000000
_cell_volume 5607.038196
_symmetry_space_group_name_H-M "I M M M"
_symmetry_group_IT_number 71
_symmetry_cell_setting 'orthorhombic'
loop_
_space_group_symop_operation_xyz
x,y,z
-x,-y,z
x,-y,-z
-x,y,-z
-x,-y,-z
x,y,-z
-x,y,z
x,-y,z
1/2+x,1/2+y,1/2+z
1/2-x,1/2-y,1/2+z
1/2+x,1/2-y,1/2-z
1/2-x,1/2+y,1/2-z
1/2-x,1/2-y,1/2-z
1/2+x,1/2+y,1/2-z
1/2-x,1/2+y,1/2+z
1/2+x,1/2-y,1/2+z
loop_
_atom_site_type_symbol
_atom_site_label
_atom_site_fract_x
_atom_site_fract_y
_atom_site_fract_z
Si Si1 0.660810 0.887767 0.242182
Si Si2 0.847370 0.951796 0.330000
Si Si3 0.659229 0.852491 0.086431
Si Si4 0.663778 0.184553 0.649744
Si Si5 0.751653 0.453429 0.000000
Si Si6 0.844020 0.638308 0.000000
Si Si7 0.658339 0.271203 0.589365
O O1 0.500000 0.893634 0.254147
O O2 0.741851 0.922300 0.288175
O O3 0.688752 0.885468 0.152578
O O4 0.698892 0.842544 0.276990
O O5 0.830249 0.950442 0.421427
O O6 0.000000 0.939553 0.310682
O O7 0.826271 0.000000 0.308164
O O8 0.500000 0.841627 0.093872
O O9 0.750301 0.811730 0.097997
O O10 0.681253 0.867307 0.000000
O O11 0.500000 0.185923 0.647720
O O12 0.713943 0.158105 0.576773
O O13 0.706583 0.232176 0.639656
O O14 0.815894 0.500000 0.000000
O O15 0.838951 0.411525 0.000000
O O16 0.000000 0.650827 0.000000
O O17 0.665451 0.258222 0.500000
O O18 0.500000 0.279998 0.605005
#
# Coordination Sequence:
#
# PCOD9517244 Si02
#       7
#    16  16  16  16   8   8  16
#     4  10  20  34  53  75  98 129 169 210 250 294
#     4  10  21  36  53  75 106 138 163 194 239 289
#     4   9  19  35  52  71  99 130 161 206 263 308
#     4   9  16  27  45  70  99 132 167 205 248 288
#     4  10  19  31  50  73 102 142 174 194 232 293
#     4  10  16  26  45  70 104 138 168 208 247 281
#     4   9  16  28  48  70  94 129 170 205 242 294
#
# _framework density 17.121338000000002
#
# number of rings (size 3 to 8) (size 9 to 14) (size 15 to 20)
#    0.000    2.500    2.500    0.250    0.000    2.833 
#    0.000    2.500    0.000    0.500    0.000    3.500 
#    0.000    0.000    0.000    0.000    0.000    0.000 
#
# Total GULP energy -267284.322723 kJ/mol
# GULP energy per Si atom -5568.423390 kJ/mol
# Density = 1.708237 g / cm^3
# Si number density = 17.121338 Si / 1000 Ang^3
#
#
#
# Elastic Constant Matrix: (Units=GPa)
#
#
# Indices 1 2 3 4 5 6 
#
# 1 43.0294 33.0099 39.9254 0.0000 0.0000 0.0000
# 2 33.0099 56.4662 42.1476 0.0000 0.0000 0.0000
# 3 39.9254 42.1476 100.3089 -0.0004 0.0000 0.0000
# 4 0.0000 0.0000 -0.0004 18.0549 0.0000 0.0000
# 5 0.0000 0.0000 0.0000 0.0000 9.2658 0.0000
# 6 0.0000 0.0000 0.0000 0.0000 0.0000 23.2594
#
#
#
# Elastic Compliance Matrix: (Units=1/GPa)
#
#
# Indices 1 2 3 4 5 6 
#
# 1 0.049169 -0.020596 -0.010917 0.000000 0.000000 0.000000
# 2 -0.020596 0.034429 -0.006269 0.000000 0.000000 0.000000
# 3 -0.010917 -0.006269 0.016948 0.000000 0.000000 0.000000
# 4 0.000000 0.000000 0.000000 0.055387 0.000000 0.000000
# 5 0.000000 0.000000 0.000000 0.000000 0.107923 0.000000
# 6 0.000000 0.000000 0.000000 0.000000 0.000000 0.042993
#
#
# Mechanical properties :
#
#
# Convention : Reuss Voigt Hill
#
# Bulk Modulus (GPa) = 40.02517 47.77447 43.89982
# Shear Modulus (GPa) = 12.79625 15.76414 14.28020
#
# Velocity S-wave (km/s) = 2.73680 3.03765 2.89114
# Velocity P-wave (km/s) = 5.78056 6.34564 6.06968
#
# Compressibility (1/GPa) = 0.02498428
#
# Stress axis : x y z
#
# Youngs Moduli (GPa) = 20.33802 29.04538 59.00303
#
# Poissons Ratio (x) = 0.59821 0.64412
# Poissons Ratio (y) = 0.41887 0.36987
# Poissons Ratio (z) = 0.22202 0.18208
#
# Static dielectric constant tensor:
#      x y z
#    x 1.569260 0.000000 0.000000 
#    y 0.000000 1.568400 0.000000 
#    z 0.000000 0.000000 1.613320 
# 
# From -- ./inp_files/43603.got.cif
#   From: 2010.05.17/outbox.cif.g08.bks.cpg/sg71_22_cif.got.tgz:43603.got - 2010.06.03 16:22:01.
