data_PCOD9517127
_publ_section_title
;
Structure prediction by ZEFSAII (Michael W. Deem and Ramdas Pophale) SiO2 
 PCOD9517127
Probable space group: F D D D
;
_chemical_formula_sum "Si O2"
_cell_formula_units_Z 160
_cell_length_a 19.652055
_cell_length_b 19.357965
_cell_length_c 18.090260
_cell_angle_alpha 90.000000
_cell_angle_beta 90.000000
_cell_angle_gamma 90.000000
_cell_volume 6881.965323
_symmetry_space_group_name_H-M "F D D D"
_symmetry_group_IT_number 70
_space_group.IT_coordinate_system_code '2'
_symmetry_cell_setting 'orthorhombic'
loop_
_space_group_symop_operation_xyz
x,y,z
1/4-x,1/4-y,z
x,1/4-y,1/4-z
1/4-x,y,1/4-z
-x,-y,-z
3/4+x,3/4+y,-z
-x,3/4+y,3/4+z
3/4+x,-y,3/4+z
x,1/2+y,1/2+z
1/4-x,3/4-y,1/2+z
x,3/4-y,3/4-z
1/4-x,1/2+y,3/4-z
-x,1/2-y,1/2-z
3/4+x,1/4+y,1/2-z
-x,1/4+y,1/4+z
3/4+x,1/2-y,1/4+z
1/2+x,y,1/2+z
3/4-x,1/4-y,1/2+z
1/2+x,1/4-y,3/4-z
3/4-x,y,3/4-z
1/2-x,-y,1/2-z
1/4+x,3/4+y,1/2-z
1/2-x,3/4+y,1/4+z
1/4+x,-y,1/4+z
1/2+x,1/2+y,z
3/4-x,3/4-y,z
1/2+x,3/4-y,1/4-z
3/4-x,1/2+y,1/4-z
1/2-x,1/2-y,-z
1/4+x,1/4+y,-z
1/2-x,1/4+y,3/4+z
1/4+x,1/2-y,3/4+z
loop_
_atom_site_type_symbol
_atom_site_label
_atom_site_fract_x
_atom_site_fract_y
_atom_site_fract_z
Si Si1 0.063856 0.175484 0.026699
Si Si2 0.504482 0.811620 0.085124
Si Si3 0.429458 0.137732 0.763767
Si Si4 0.880968 0.746129 0.100908
Si Si5 0.954130 0.682827 0.234482
O O1 0.125000 0.125000 0.046806
O O2 0.053390 0.246944 0.068268
O O3 0.075453 0.195983 0.940821
O O4 0.992172 0.138732 0.034306
O O5 0.538250 0.843400 0.158124
O O6 0.429496 0.782441 0.103387
O O7 0.505830 0.865820 0.016672
O O8 0.401193 0.201176 0.715416
O O9 0.369755 0.081255 0.772413
O O10 0.928487 0.697679 0.150951
O O11 0.000000 0.750000 0.250000
#
# Coordination Sequence:
#
# PCOD9517127 Si02
#       5
#    32  32  32  32  32
#     4  12  27  46  83 116 160 210 265 327 420 485
#     4  12  27  49  79 118 158 214 269 337 408 494
#     4  12  26  51  76 115 162 206 264 340 403 480
#     4  12  27  53  74 115 163 206 263 341 404 479
#     4  12  28  48  78 107 157 217 271 329 404 483
#
# _framework density 23.249172999999999
#
# number of rings (size 3 to 8) (size 9 to 14) (size 15 to 20)
#    0.000    0.000    6.000    3.000    0.000    0.000 
#    3.600    0.000    0.000    2.400    0.000    0.000 
#    0.000    0.000    0.000    0.000    0.000    0.000 
#
# Total GULP energy -223615.156670 kJ/mol
# GULP energy per Si atom -5590.378917 kJ/mol
# Density = 2.319626 g / cm^3
# Si number density = 23.249173 Si / 1000 Ang^3
#
#
#
# Elastic Constant Matrix: (Units=GPa)
#
#
# Indices 1 2 3 4 5 6 
#
# 1 134.5461 61.0928 21.3453 0.0000 0.0000 0.0000
# 2 61.0928 123.4735 33.3293 0.0000 0.0000 0.0000
# 3 21.3453 33.3293 99.8775 0.0000 0.0000 0.0000
# 4 0.0000 0.0000 0.0000 53.3531 0.0000 0.0000
# 5 0.0000 0.0000 0.0000 0.0000 8.3073 0.0000
# 6 0.0000 0.0000 0.0000 0.0000 0.0000 58.0033
#
#
#
# Elastic Compliance Matrix: (Units=1/GPa)
#
#
# Indices 1 2 3 4 5 6 
#
# 1 0.009610 -0.004616 -0.000513 0.000000 0.000000 0.000000
# 2 -0.004616 0.011118 -0.002724 0.000000 0.000000 0.000000
# 3 -0.000513 -0.002724 0.011031 0.000000 0.000000 0.000000
# 4 0.000000 0.000000 0.000000 0.018743 0.000000 0.000000
# 5 0.000000 0.000000 0.000000 0.000000 0.120376 0.000000
# 6 0.000000 0.000000 0.000000 0.000000 0.000000 0.017240
#
#
# Mechanical properties :
#
#
# Convention : Reuss Voigt Hill
#
# Bulk Modulus (GPa) = 62.29542 65.49243 63.89392
# Shear Modulus (GPa) = 23.90337 40.07474 31.98906
#
# Velocity S-wave (km/s) = 3.20994 4.15626 3.71337
# Velocity P-wave (km/s) = 6.37112 7.15986 6.77697
#
# Compressibility (1/GPa) = 0.01605254
#
# Stress axis : x y z
#
# Youngs Moduli (GPa) = 104.05905 89.94302 90.65500
#
# Poissons Ratio (x) = 0.41520 0.04653
# Poissons Ratio (y) = 0.48037 0.24691
# Poissons Ratio (z) = 0.05342 0.24497
#
# Static dielectric constant tensor:
#      x y z
#    x 1.849580 0.000000 0.000000 
#    y 0.000000 1.943230 0.000000 
#    z 0.000000 0.000000 1.944910 
# 
# From -- ./inp_files/44706.got.cif
#   From: 2010.05.17/outbox.cif.g08.bks.cpg/sg70_23_cif.got.tgz:44706.got - 2010.06.03 15:57:51.
