data_PCOD9517551
_publ_section_title
;
Structure prediction by ZEFSAII (Michael W. Deem and Ramdas Pophale) SiO2 
 PCOD9517551
Probable space group: I M M M
;
_chemical_formula_sum "Si O2"
_cell_formula_units_Z 80
_cell_length_a 25.683598
_cell_length_b 21.121293
_cell_length_c 9.122265
_cell_angle_alpha 90.000000
_cell_angle_beta 90.000000
_cell_angle_gamma 90.000000
_cell_volume 4948.562380
_symmetry_space_group_name_H-M "I M M M"
_symmetry_group_IT_number 71
_symmetry_cell_setting 'orthorhombic'
loop_
_space_group_symop_operation_xyz
x,y,z
-x,-y,z
x,-y,-z
-x,y,-z
-x,-y,-z
x,y,-z
-x,y,z
x,-y,z
1/2+x,1/2+y,1/2+z
1/2-x,1/2-y,1/2+z
1/2+x,1/2-y,1/2-z
1/2-x,1/2+y,1/2-z
1/2-x,1/2-y,1/2-z
1/2+x,1/2+y,1/2-z
1/2-x,1/2+y,1/2+z
1/2+x,1/2-y,1/2+z
loop_
_atom_site_type_symbol
_atom_site_label
_atom_site_fract_x
_atom_site_fract_y
_atom_site_fract_z
Si Si1 0.717715 0.193478 0.322896
Si Si2 0.114285 0.110001 0.172743
Si Si3 0.000000 0.116491 0.823545
Si Si4 0.604250 0.238145 0.673670
Si Si5 0.000000 0.254250 0.325844
Si Si6 0.719316 0.569909 0.823643
O O1 0.721520 0.198999 0.500000
O O2 0.750000 0.250000 0.250000
O O3 0.657089 0.202225 0.285122
O O4 0.743165 0.127063 0.276531
O O5 0.055903 0.085476 0.208525
O O6 0.113525 0.186284 0.196808
O O7 0.161448 0.081398 0.262845
O O8 0.123259 0.099045 0.000000
O O9 0.000000 0.182515 0.737050
O O10 0.000000 0.129823 0.000000
O O11 0.594585 0.230363 0.500000
O O12 0.553363 0.217502 0.762155
O O13 0.000000 0.254281 0.500000
O O14 0.737344 0.500000 0.778113
O O15 0.717319 0.571690 0.000000
#
# Coordination Sequence:
#
# PCOD9517551 Si02
#       6
#    16  16   8  16   8  16
#     4  10  19  32  51  72  96 126 162 201 239 282
#     4   9  16  29  48  67  89 122 162 201 237 277
#     4   8  16  30  45  63  92 124 159 201 238 276
#     4   9  17  30  47  68  95 126 157 194 238 281
#     4  10  18  26  42  71 100 123 150 191 240 287
#     4  10  21  34  47  68  99 129 156 195 246 290
#
# _framework density 16.166311
#
# number of rings (size 3 to 8) (size 9 to 14) (size 15 to 20)
#    0.000    2.600    2.000    2.100    0.000    4.400 
#    0.000    0.500    0.000    3.000    0.000    0.700 
#    0.000    5.600    0.000    0.000    0.000    0.000 
#
# Total GULP energy -222886.268007 kJ/mol
# GULP energy per Si atom -5572.156700 kJ/mol
# Density = 1.612952 g / cm^3
# Si number density = 16.166311 Si / 1000 Ang^3
#
#
#
# Elastic Constant Matrix: (Units=GPa)
#
#
# Indices 1 2 3 4 5 6 
#
# 1 138.5668 60.2397 44.0967 0.0000 0.0000 0.0000
# 2 60.2397 84.5126 26.2117 0.0000 0.0000 0.0000
# 3 44.0967 26.2117 21.8740 0.0000 0.0000 0.0000
# 4 0.0000 0.0000 0.0000 11.1644 0.0000 0.0000
# 5 0.0000 0.0000 0.0000 0.0000 26.9978 0.0000
# 6 0.0000 0.0000 0.0000 0.0000 0.0000 8.8994
#
#
#
# Elastic Compliance Matrix: (Units=1/GPa)
#
#
# Indices 1 2 3 4 5 6 
#
# 1 0.020559 -0.002864 -0.038014 0.000000 0.000000 0.000000
# 2 -0.002864 0.019230 -0.017269 0.000000 0.000000 0.000000
# 3 -0.038014 -0.017269 0.143044 0.000000 0.000000 0.000000
# 4 0.000000 0.000000 0.000000 0.089570 0.000000 0.000000
# 5 0.000000 0.000000 0.000000 0.000000 0.037040 0.000000
# 6 0.000000 0.000000 0.000000 0.000000 0.000000 0.112367
#
#
# Mechanical properties :
#
#
# Convention : Reuss Voigt Hill
#
# Bulk Modulus (GPa) = 15.02893 56.22773 35.62833
# Shear Modulus (GPa) = 8.92401 17.03934 12.98168
#
# Velocity S-wave (km/s) = 2.35204 3.25006 2.83681
# Velocity P-wave (km/s) = 4.08568 6.99573 5.72857
#
# Compressibility (1/GPa) = 0.06653833
#
# Stress axis : x y z
#
# Youngs Moduli (GPa) = 48.63966 52.00114 6.99086
#
# Poissons Ratio (x) = 0.14895 0.26575
# Poissons Ratio (y) = 0.13932 0.12073
# Poissons Ratio (z) = 1.84899 0.89802
#
# Static dielectric constant tensor:
#      x y z
#    x 1.563550 0.000000 0.000000 
#    y 0.000000 1.545830 0.000000 
#    z 0.000000 0.000000 1.535250 
# 
# From -- ./inp_files/10208.got.cif
#   From: 2010.05.17/outbox.cif.g08.bks.cpg/sg71_6_cif.got.tgz:10208.got - 2010.06.03 16:22:01.
