data_PCOD9517112
_publ_section_title
;
Structure prediction by ZEFSAII (Michael W. Deem and Ramdas Pophale) SiO2 
 PCOD9517112
Probable space group: F D D D
;
_chemical_formula_sum "Si O2"
_cell_formula_units_Z 144
_cell_length_a 10.585089
_cell_length_b 25.032252
_cell_length_c 24.804972
_cell_angle_alpha 90.000000
_cell_angle_beta 90.000000
_cell_angle_gamma 90.000000
_cell_volume 6572.539083
_symmetry_space_group_name_H-M "F D D D"
_symmetry_group_IT_number 70
_space_group.IT_coordinate_system_code '2'
_symmetry_cell_setting 'orthorhombic'
loop_
_space_group_symop_operation_xyz
x,y,z
1/4-x,1/4-y,z
x,1/4-y,1/4-z
1/4-x,y,1/4-z
-x,-y,-z
3/4+x,3/4+y,-z
-x,3/4+y,3/4+z
3/4+x,-y,3/4+z
x,1/2+y,1/2+z
1/4-x,3/4-y,1/2+z
x,3/4-y,3/4-z
1/4-x,1/2+y,3/4-z
-x,1/2-y,1/2-z
3/4+x,1/4+y,1/2-z
-x,1/4+y,1/4+z
3/4+x,1/2-y,1/4+z
1/2+x,y,1/2+z
3/4-x,1/4-y,1/2+z
1/2+x,1/4-y,3/4-z
3/4-x,y,3/4-z
1/2-x,-y,1/2-z
1/4+x,3/4+y,1/2-z
1/2-x,3/4+y,1/4+z
1/4+x,-y,1/4+z
1/2+x,1/2+y,z
3/4-x,3/4-y,z
1/2+x,3/4-y,1/4-z
3/4-x,1/2+y,1/4-z
1/2-x,1/2-y,-z
1/4+x,1/4+y,-z
1/2-x,1/4+y,3/4+z
1/4+x,1/2-y,3/4+z
loop_
_atom_site_type_symbol
_atom_site_label
_atom_site_fract_x
_atom_site_fract_y
_atom_site_fract_z
Si Si1 0.487650 0.606966 0.530405
Si Si2 0.617270 0.461394 0.011620
Si Si3 0.541650 0.962007 0.216957
Si Si4 0.375000 0.875000 0.158970
Si Si5 0.125000 0.841130 0.625000
Si Si6 0.125000 0.042825 0.625000
O O1 0.625000 0.625000 0.509647
O O2 0.399866 0.660974 0.527948
O O3 0.414077 0.567029 0.490720
O O4 0.527680 0.671818 0.662384
O O5 0.597768 0.439446 0.070782
O O6 0.500000 0.500000 0.000000
O O7 0.737906 0.499737 0.012823
O O8 0.433785 0.920011 0.198805
O O9 0.562623 0.002255 0.167462
O O10 0.255716 0.878743 0.118936
#
# Coordination Sequence:
#
# PCOD9517112 Si02
#       6
#    32  32  32  16  16  16
#     4  12  27  48  74 114 158 201 268 333 394 488
#     4  12  27  49  76 110 154 205 259 327 406 484
#     4  12  26  47  77 108 159 201 265 328 410 473
#     4  12  26  48  74 115 152 209 270 326 390 496
#     4  12  27  46  77 113 152 204 268 313 398 472
#     4  12  28  46  73 122 148 207 254 338 404 474
#
# _framework density 21.909341999999999
#
# number of rings (size 3 to 8) (size 9 to 14) (size 15 to 20)
#    0.000    0.000    6.667    1.667    4.667    0.000 
#    0.000    0.000    0.000    1.333    0.000    0.000 
#    0.000    0.000    0.000    0.000    0.000    0.000 
#
# Total GULP energy -200541.099356 kJ/mol
# GULP energy per Si atom -5570.586093 kJ/mol
# Density = 2.185948 g / cm^3
# Si number density = 21.909342 Si / 1000 Ang^3
#
#
#
# Elastic Constant Matrix: (Units=GPa)
#
#
# Indices 1 2 3 4 5 6 
#
# 1 140.2721 57.6980 43.8548 0.0000 0.0000 0.0000
# 2 57.6980 133.6632 54.7452 0.0000 0.0000 0.0000
# 3 43.8548 54.7452 92.8108 0.0000 0.0000 0.0000
# 4 0.0000 0.0000 0.0000 31.0331 0.0000 0.0000
# 5 0.0000 0.0000 0.0000 0.0000 43.7492 0.0000
# 6 0.0000 0.0000 0.0000 0.0000 0.0000 45.9845
#
#
#
# Elastic Compliance Matrix: (Units=1/GPa)
#
#
# Indices 1 2 3 4 5 6 
#
# 1 0.009128 -0.002866 -0.002622 0.000000 0.000000 0.000000
# 2 -0.002866 0.010765 -0.004995 0.000000 0.000000 0.000000
# 3 -0.002622 -0.004995 0.014960 0.000000 0.000000 0.000000
# 4 0.000000 0.000000 0.000000 0.032224 0.000000 0.000000
# 5 0.000000 0.000000 0.000000 0.000000 0.022858 0.000000
# 6 0.000000 0.000000 0.000000 0.000000 0.000000 0.021746
#
#
# Mechanical properties :
#
#
# Convention : Reuss Voigt Hill
#
# Bulk Modulus (GPa) = 72.02024 75.48245 73.75135
# Shear Modulus (GPa) = 36.42282 38.18323 37.30303
#
# Velocity S-wave (km/s) = 4.08172 4.17919 4.13074
# Velocity P-wave (km/s) = 7.42679 7.60359 7.51571
#
# Compressibility (1/GPa) = 0.01388499
#
# Stress axis : x y z
#
# Youngs Moduli (GPa) = 109.55553 92.89658 66.84347
#
# Poissons Ratio (x) = 0.26625 0.17530
# Poissons Ratio (y) = 0.31399 0.33391
# Poissons Ratio (z) = 0.28731 0.46405
#
# Static dielectric constant tensor:
#      x y z
#    x 1.137650 0.000000 0.000000 
#    y 0.000000 1.908290 0.000000 
#    z 0.000000 0.000000 1.666160 
# 
# From -- ./inp_files/57430.got.cif
#   From: 2010.05.17/outbox.cif.g08.bks.cpg/sg70_29_cif.got.tgz:57430.got - 2010.06.03 15:57:51.
