data_PCOD9517717
_publ_section_title
;
Structure prediction by ZEFSAII (Michael W. Deem and Ramdas Pophale) SiO2 
 PCOD9517717
Probable space group: I M M M
;
_chemical_formula_sum "Si O2"
_cell_formula_units_Z 80
_cell_length_a 15.138467
_cell_length_b 7.600249
_cell_length_c 34.321610
_cell_angle_alpha 90.000000
_cell_angle_beta 90.000000
_cell_angle_gamma 90.000000
_cell_volume 3948.911233
_symmetry_space_group_name_H-M "I M M M"
_symmetry_group_IT_number 71
_symmetry_cell_setting 'orthorhombic'
loop_
_space_group_symop_operation_xyz
x,y,z
-x,-y,z
x,-y,-z
-x,y,-z
-x,-y,-z
x,y,-z
-x,y,z
x,-y,z
1/2+x,1/2+y,1/2+z
1/2-x,1/2-y,1/2+z
1/2+x,1/2-y,1/2-z
1/2-x,1/2+y,1/2-z
1/2-x,1/2-y,1/2-z
1/2+x,1/2+y,1/2-z
1/2-x,1/2+y,1/2+z
1/2+x,1/2-y,1/2+z
loop_
_atom_site_type_symbol
_atom_site_label
_atom_site_fract_x
_atom_site_fract_y
_atom_site_fract_z
Si Si1 0.100057 0.706694 0.753540
Si Si2 0.242011 0.792984 0.306931
Si Si3 0.250101 0.787148 0.897554
Si Si4 0.601212 0.785366 0.956387
Si Si5 0.898636 0.214628 0.043651
O O1 0.091381 0.500000 0.762400
O O2 0.152757 0.720706 0.712754
O O3 0.170683 0.780898 0.784952
O O4 0.000000 0.779880 0.753199
O O5 0.247741 0.766230 0.352840
O O6 0.239584 0.000000 0.298714
O O7 0.334488 0.725880 0.922376
O O8 0.164980 0.725977 0.921972
O O9 0.249889 0.000000 0.898165
O O10 0.500000 0.730439 0.950818
O O11 0.602227 0.000000 0.956214
O O12 0.629929 0.732198 0.000000
O O13 0.000000 0.269302 0.049041
O O14 0.897481 0.000000 0.043775
O O15 0.869705 0.267799 0.000000
#
# Coordination Sequence:
#
# PCOD9517717 Si02
#       5
#    16  16  16  16  16
#     4   9  19  38  60  75  92 125 165 201 239 287
#     4  10  21  35  51  76 105 128 156 197 245 297
#     4  10  18  28  46  71  97 126 160 198 240 287
#     4   8  14  25  42  65  91 120 159 203 237 266
#     4   8  14  25  42  66  95 126 164 210 251 281
#
# _framework density 20.258748000000001
#
# number of rings (size 3 to 8) (size 9 to 14) (size 15 to 20)
#    0.000    3.000    0.000    2.400    0.000    5.200 
#    0.000    2.000    0.000    2.400    0.000    2.800 
#    0.000    0.000    0.000    0.000    0.000    0.000 
#
# Total GULP energy -223066.032266 kJ/mol
# GULP energy per Si atom -5576.650807 kJ/mol
# Density = 2.021264 g / cm^3
# Si number density = 20.258748 Si / 1000 Ang^3
#
#
#
# Elastic Constant Matrix: (Units=GPa)
#
#
# Indices 1 2 3 4 5 6 
#
# 1 151.3579 3.5356 90.3502 0.0000 0.0000 0.0000
# 2 3.5356 42.3958 -9.2743 0.0000 0.0000 0.0000
# 3 90.3502 -9.2743 168.2332 0.0000 0.0000 0.0000
# 4 0.0000 0.0000 0.0000 12.8510 0.0000 0.0000
# 5 0.0000 0.0000 0.0000 0.0000 -337.7678 0.0000
# 6 0.0000 0.0000 0.0000 0.0000 0.0000 0.6391
#
#
#
# Elastic Compliance Matrix: (Units=1/GPa)
#
#
# Indices 1 2 3 4 5 6 
#
# 1 0.009891 -0.002011 -0.005423 0.000000 0.000000 0.000000
# 2 -0.002011 0.024284 0.002419 0.000000 0.000000 0.000000
# 3 -0.005423 0.002419 0.008990 0.000000 0.000000 0.000000
# 4 0.000000 0.000000 0.000000 0.077815 0.000000 0.000000
# 5 0.000000 0.000000 0.000000 0.000000 -0.002961 0.000000
# 6 0.000000 0.000000 0.000000 0.000000 0.000000 1.564749
#
#
# Mechanical properties :
#
#
# Convention : Reuss Voigt Hill
#
# Bulk Modulus (GPa) = 30.17998 59.02332 44.60165
# Shear Modulus (GPa) = 2.93454 -46.36385 -21.71466
#
# Velocity S-wave (km/s) = 1.20485 -4.78911 -3.27749
# Velocity P-wave (km/s) = 4.10672 1.17589 2.78231
#
# Compressibility (1/GPa) = 0.03313455
#
# Stress axis : x y z
#
# Youngs Moduli (GPa) = 101.10338 41.17921 111.23723
#
# Poissons Ratio (x) = 0.08282 0.60322
# Poissons Ratio (y) = 0.20333 -0.26906
# Poissons Ratio (z) = 0.54826 -0.09960
#
# Static dielectric constant tensor:
#      x y z
#    x 1.727780 0.000000 0.000000 
#    y 0.000000 1.784060 0.000000 
#    z 0.000000 0.000000 1.678630 
# 
# From -- ./inp_files/69773.got.cif
#   From: 2010.05.17/outbox.cif.g08.bks.cpg/sg71_35_cif.got.tgz:69773.got - 2010.06.03 16:22:01.
