data_PCOD9517662
_publ_section_title
;
Structure prediction by ZEFSAII (Michael W. Deem and Ramdas Pophale) SiO2 
 PCOD9517662
Probable space group: I M M M
;
_chemical_formula_sum "Si O2"
_cell_formula_units_Z 112
_cell_length_a 20.443563
_cell_length_b 19.099269
_cell_length_c 18.491585
_cell_angle_alpha 90.000000
_cell_angle_beta 90.000000
_cell_angle_gamma 90.000000
_cell_volume 7220.170821
_symmetry_space_group_name_H-M "I M M M"
_symmetry_group_IT_number 71
_symmetry_cell_setting 'orthorhombic'
loop_
_space_group_symop_operation_xyz
x,y,z
-x,-y,z
x,-y,-z
-x,y,-z
-x,-y,-z
x,y,-z
-x,y,z
x,-y,z
1/2+x,1/2+y,1/2+z
1/2-x,1/2-y,1/2+z
1/2+x,1/2-y,1/2-z
1/2-x,1/2+y,1/2-z
1/2-x,1/2-y,1/2-z
1/2+x,1/2+y,1/2-z
1/2-x,1/2+y,1/2+z
1/2+x,1/2-y,1/2+z
loop_
_atom_site_type_symbol
_atom_site_label
_atom_site_fract_x
_atom_site_fract_y
_atom_site_fract_z
Si Si1 0.127205 0.579361 0.783175
Si Si2 0.274001 0.422123 0.717940
Si Si3 0.329910 0.579877 0.877937
Si Si4 0.307204 0.143789 0.417388
Si Si5 0.422078 0.293378 0.080838
Si Si6 0.698381 0.272203 0.312845
Si Si7 0.075083 0.719759 0.272313
O O1 0.103039 0.500000 0.780221
O O2 0.198774 0.581798 0.744927
O O3 0.141777 0.603889 0.865275
O O4 0.083936 0.637865 0.744736
O O5 0.284745 0.500000 0.687096
O O6 0.316627 0.415817 0.791601
O O7 0.289581 0.353691 0.671378
O O8 0.346672 0.500000 0.896114
O O9 0.260671 0.601181 0.912897
O O10 0.383443 0.635613 0.901936
O O11 0.328133 0.150454 0.500000
O O12 0.294198 0.218719 0.379112
O O13 0.500000 0.305842 0.082118
O O14 0.407480 0.239060 0.145081
O O15 0.404187 0.269170 0.000000
O O16 0.750000 0.250000 0.250000
O O17 0.626843 0.259184 0.278758
O O18 0.000000 0.740663 0.259473
#
# Coordination Sequence:
#
# PCOD9517662 Si02
#       7
#    16  16  16  16  16  16  16
#     4   9  18  31  49  69  92 124 156 191 239 286
#     4   9  16  28  48  70  90 117 156 199 236 272
#     4  10  18  28  43  65  93 124 158 193 232 274
#     4  10  19  28  46  75  99 119 151 195 239 287
#     4  10  20  31  42  60  91 131 165 193 231 274
#     4  11  16  31  52  67  91 125 163 196 235 280
#     4  10  19  31  48  70  94 122 162 204 233 276
#
# _framework density 15.512098999999999
#
# number of rings (size 3 to 8) (size 9 to 14) (size 15 to 20)
#    0.000    2.143    5.714    1.714    0.000    2.571 
#    0.000    0.714    0.000    8.143    0.000    8.000 
#    0.000    0.000    0.000    5.143    0.000    0.000 
#
# Total GULP energy -312026.685345 kJ/mol
# GULP energy per Si atom -5571.905095 kJ/mol
# Density = 1.547679 g / cm^3
# Si number density = 15.512099 Si / 1000 Ang^3
#
#
#
# Elastic Constant Matrix: (Units=GPa)
#
#
# Indices 1 2 3 4 5 6 
#
# 1 31.9165 16.6917 17.3131 0.0000 0.0000 0.0000
# 2 16.6917 107.8222 35.4043 0.0000 0.0000 0.0000
# 3 17.3131 35.4043 61.0431 0.0000 0.0000 0.0000
# 4 0.0000 0.0000 0.0000 13.1675 0.0000 0.0000
# 5 0.0000 0.0000 0.0000 0.0000 11.9926 0.0000
# 6 0.0000 0.0000 0.0000 0.0000 0.0000 12.4539
#
#
#
# Elastic Compliance Matrix: (Units=1/GPa)
#
#
# Indices 1 2 3 4 5 6 
#
# 1 0.037737 -0.002875 -0.009035 0.000000 0.000000 0.000000
# 2 -0.002875 0.011675 -0.005956 0.000000 0.000000 0.000000
# 3 -0.009035 -0.005956 0.022399 0.000000 0.000000 0.000000
# 4 0.000000 0.000000 0.000000 0.075944 0.000000 0.000000
# 5 0.000000 0.000000 0.000000 0.000000 0.083385 0.000000
# 6 0.000000 0.000000 0.000000 0.000000 0.000000 0.080296
#
#
# Mechanical properties :
#
#
# Convention : Reuss Voigt Hill
#
# Bulk Modulus (GPa) = 27.71789 37.73332 32.72561
# Shear Modulus (GPa) = 13.92002 16.28100 15.10051
#
# Velocity S-wave (km/s) = 2.99886 3.24322 3.12343
# Velocity P-wave (km/s) = 5.46792 6.19698 5.84383
#
# Compressibility (1/GPa) = 0.03607778
#
# Stress axis : x y z
#
# Youngs Moduli (GPa) = 26.49947 85.65049 44.64491
#
# Poissons Ratio (x) = 0.24625 0.40338
# Poissons Ratio (y) = 0.07619 0.26591
# Poissons Ratio (z) = 0.23943 0.51015
#
# Static dielectric constant tensor:
#      x y z
#    x 1.513870 0.000000 0.000000 
#    y 0.000000 1.535840 0.000000 
#    z 0.000000 0.000000 1.515190 
# 
# From -- ./inp_files/46404.got.cif
#   From: 2010.05.17/outbox.cif.g08.bks.cpg/sg71_24_cif.got.tgz:46404.got - 2010.06.03 16:22:01.
