data_PCOD9517745
_publ_section_title
;
Structure prediction by ZEFSAII (Michael W. Deem and Ramdas Pophale) SiO2 
 PCOD9517745
Probable space group: I M M M
;
_chemical_formula_sum "Si O2"
_cell_formula_units_Z 88
_cell_length_a 23.139199
_cell_length_b 9.081179
_cell_length_c 22.999200
_cell_angle_alpha 90.000000
_cell_angle_beta 90.000000
_cell_angle_gamma 90.000000
_cell_volume 4832.849680
_symmetry_space_group_name_H-M "I M M M"
_symmetry_group_IT_number 71
_symmetry_cell_setting 'orthorhombic'
loop_
_space_group_symop_operation_xyz
x,y,z
-x,-y,z
x,-y,-z
-x,y,-z
-x,-y,-z
x,y,-z
-x,y,z
x,-y,z
1/2+x,1/2+y,1/2+z
1/2-x,1/2-y,1/2+z
1/2+x,1/2-y,1/2-z
1/2-x,1/2+y,1/2-z
1/2-x,1/2-y,1/2-z
1/2+x,1/2+y,1/2-z
1/2-x,1/2+y,1/2+z
1/2+x,1/2-y,1/2+z
loop_
_atom_site_type_symbol
_atom_site_label
_atom_site_fract_x
_atom_site_fract_y
_atom_site_fract_z
Si Si1 0.286570 0.172687 0.000000
Si Si2 0.210531 0.825053 0.382671
Si Si3 0.587964 0.676234 0.157712
Si Si4 0.500000 0.177534 0.930793
Si Si5 0.563182 0.677084 0.289065
Si Si6 0.335222 0.173395 0.500000
Si Si7 0.656703 0.174497 0.630234
O O1 0.308917 0.246729 0.058234
O O2 0.219172 0.218150 0.000000
O O3 0.295481 0.000000 0.000000
O O4 0.157085 0.798334 0.340375
O O5 0.275591 0.777215 0.365993
O O6 0.214690 0.000000 0.393190
O O7 0.578663 0.500000 0.149883
O O8 0.554651 0.758223 0.105631
O O9 0.565581 0.719882 0.221213
O O10 0.500000 0.000000 0.927804
O O11 0.500000 0.217802 0.000000
O O12 0.500000 0.720406 0.312581
O O13 0.567543 0.500000 0.290753
O O14 0.614974 0.744294 0.325775
O O15 0.363563 0.196118 0.437081
O O16 0.315830 0.000000 0.500000
O O17 0.655367 0.000000 0.641902
#
# Coordination Sequence:
#
# PCOD9517745 Si02
#       7
#     8  16  16   8  16   8  16
#     4  10  18  28  48  78 114 146 176 218 277 333
#     4   9  19  35  55  80 109 145 188 230 270 329
#     4  10  21  40  62  80 106 152 199 228 266 335
#     4  11  25  41  57  85 123 150 181 242 291 315
#     4  10  21  38  57  79 109 145 188 234 276 326
#     4   8  16  34  55  77 111 146 180 221 262 325
#     4   9  18  34  57  84 112 143 181 227 280 331
#
# _framework density 18.208718999999999
#
# number of rings (size 3 to 8) (size 9 to 14) (size 15 to 20)
#    0.000    2.455    0.909    2.182    1.273    6.182 
#    0.000    0.455    0.000    2.727    0.000    0.000 
#    0.000    0.000    0.000    0.000    0.000    0.000 
#
# Total GULP energy -245066.842605 kJ/mol
# GULP energy per Si atom -5569.700968 kJ/mol
# Density = 1.816728 g / cm^3
# Si number density = 18.208719 Si / 1000 Ang^3
#
#
#
# Elastic Constant Matrix: (Units=GPa)
#
#
# Indices 1 2 3 4 5 6 
#
# 1 118.6985 37.3618 70.4864 0.0000 0.0000 0.0000
# 2 37.3618 22.5382 27.6816 0.0000 0.0000 0.0000
# 3 70.4864 27.6816 96.9180 0.0000 0.0000 0.0000
# 4 0.0000 0.0000 0.0000 27.5330 0.0000 0.0000
# 5 0.0000 0.0000 0.0000 0.0000 50.3352 0.0000
# 6 0.0000 0.0000 0.0000 0.0000 0.0000 25.4798
#
#
#
# Elastic Compliance Matrix: (Units=1/GPa)
#
#
# Indices 1 2 3 4 5 6 
#
# 1 0.021210 -0.024976 -0.008292 0.000000 0.000000 0.000000
# 2 -0.024976 0.097755 -0.009756 0.000000 0.000000 0.000000
# 3 -0.008292 -0.009756 0.019135 0.000000 0.000000 0.000000
# 4 0.000000 0.000000 0.000000 0.036320 0.000000 0.000000
# 5 0.000000 0.000000 0.000000 0.000000 0.019867 0.000000
# 6 0.000000 0.000000 0.000000 0.000000 0.000000 0.039247
#
#
# Mechanical properties :
#
#
# Convention : Reuss Voigt Hill
#
# Bulk Modulus (GPa) = 19.21169 56.57936 37.89552
# Shear Modulus (GPa) = 14.83976 27.51128 21.17552
#
# Velocity S-wave (km/s) = 2.85788 3.89123 3.41388
# Velocity P-wave (km/s) = 4.63290 7.16443 6.03294
#
# Compressibility (1/GPa) = 0.05205164
#
# Stress axis : x y z
#
# Youngs Moduli (GPa) = 47.14673 10.22971 52.25966
#
# Poissons Ratio (x) = 0.25550 0.43335
# Poissons Ratio (y) = 1.17754 0.50984
# Poissons Ratio (z) = 0.39095 0.09980
#
# Static dielectric constant tensor:
#      x y z
#    x 1.643240 0.000000 0.000000 
#    y 0.000000 1.606430 0.000000 
#    z 0.000000 0.000000 1.634690 
# 
# From -- ./inp_files/55597.got.cif
#   From: 2010.05.17/outbox.cif.g08.bks.cpg/sg71_28_cif.got.tgz:55597.got - 2010.06.03 16:22:01.
