data_PCOD9517411
_publ_section_title
;
Structure prediction by ZEFSAII (Michael W. Deem and Ramdas Pophale) SiO2 
 PCOD9517411
Probable space group: I M M M
;
_chemical_formula_sum "Si O2"
_cell_formula_units_Z 104
_cell_length_a 25.046384
_cell_length_b 8.754570
_cell_length_c 29.171810
_cell_angle_alpha 90.000000
_cell_angle_beta 90.000000
_cell_angle_gamma 90.000000
_cell_volume 6396.512171
_symmetry_space_group_name_H-M "I M M M"
_symmetry_group_IT_number 71
_symmetry_cell_setting 'orthorhombic'
loop_
_space_group_symop_operation_xyz
x,y,z
-x,-y,z
x,-y,-z
-x,y,-z
-x,-y,-z
x,y,-z
-x,y,z
x,-y,z
1/2+x,1/2+y,1/2+z
1/2-x,1/2-y,1/2+z
1/2+x,1/2-y,1/2-z
1/2-x,1/2+y,1/2-z
1/2-x,1/2-y,1/2-z
1/2+x,1/2+y,1/2-z
1/2-x,1/2+y,1/2+z
1/2+x,1/2-y,1/2+z
loop_
_atom_site_type_symbol
_atom_site_label
_atom_site_fract_x
_atom_site_fract_y
_atom_site_fract_z
Si Si1 0.643097 0.684330 0.553421
Si Si2 0.438193 0.815197 0.373373
Si Si3 0.435227 0.823978 0.272126
Si Si4 0.736414 0.814244 0.052993
Si Si5 0.561998 0.681924 0.176234
Si Si6 0.625513 0.184840 0.908736
Si Si7 0.938559 0.686002 0.500000
O O1 0.634086 0.725413 0.500000
O O2 0.640954 0.500000 0.556215
O O3 0.599766 0.754208 0.587108
O O4 0.703685 0.733714 0.565800
O O5 0.500000 0.767169 0.380057
O O6 0.419168 0.765387 0.322451
O O7 0.437754 0.000000 0.372968
O O8 0.500000 0.824061 0.273738
O O9 0.419809 0.731708 0.227034
O O10 0.417993 0.000000 0.266934
O O11 0.686758 0.764553 0.083777
O O12 0.736462 0.000000 0.053275
O O13 0.726657 0.769345 0.000000
O O14 0.500000 0.733462 0.170527
O O15 0.562870 0.500000 0.172895
O O16 0.597933 0.752848 0.136617
O O17 0.624589 0.000000 0.907287
O O18 0.592188 0.232970 0.953919
O O19 0.938525 0.500000 0.500000
O O20 0.000000 0.737062 0.500000
#
# Coordination Sequence:
#
# PCOD9517411 Si02
#       7
#    16  16  16  16  16  16   8
#     4   9  18  31  48  71  99 128 157 189 225 272
#     4   9  18  32  50  73  99 124 151 187 232 276
#     4   8  15  30  50  68  87 116 155 193 227 271
#     4   8  14  28  48  68  89 118 160 202 234 264
#     4  10  20  31  43  65  97 126 151 186 236 287
#     4  10  17  28  48  68  88 119 159 201 235 270
#     4   9  16  24  39  67  93 113 148 195 234 270
#
# _framework density 16.258859999999999
#
# number of rings (size 3 to 8) (size 9 to 14) (size 15 to 20)
#    0.000    3.000    0.769    2.769    0.000    3.077 
#    0.000    4.231    0.000    3.231    0.000    0.000 
#    0.000    0.000    0.000    0.000    0.000    0.000 
#
# Total GULP energy -289610.916387 kJ/mol
# GULP energy per Si atom -5569.440700 kJ/mol
# Density = 1.622185 g / cm^3
# Si number density = 16.258860 Si / 1000 Ang^3
#
#
#
# Elastic Constant Matrix: (Units=GPa)
#
#
# Indices 1 2 3 4 5 6 
#
# 1 111.6254 24.5975 90.8074 0.0000 0.0000 0.0000
# 2 24.5975 11.6946 30.4422 0.0000 0.0000 0.0000
# 3 90.8074 30.4422 144.2156 0.0000 0.0000 0.0000
# 4 0.0000 0.0000 0.0000 19.7814 0.0000 0.0000
# 5 0.0000 0.0000 0.0000 0.0000 7.7930 0.0000
# 6 0.0000 0.0000 0.0000 0.0000 0.0000 14.9990
#
#
#
# Elastic Compliance Matrix: (Units=1/GPa)
#
#
# Indices 1 2 3 4 5 6 
#
# 1 0.020470 -0.021094 -0.008436 0.000000 0.000000 0.000000
# 2 -0.021094 0.211541 -0.031372 0.000000 0.000000 0.000000
# 3 -0.008436 -0.031372 0.018868 0.000000 0.000000 0.000000
# 4 0.000000 0.000000 0.000000 0.050553 0.000000 0.000000
# 5 0.000000 0.000000 0.000000 0.000000 0.128320 0.000000
# 6 0.000000 0.000000 0.000000 0.000000 0.000000 0.066671
#
#
# Mechanical properties :
#
#
# Convention : Reuss Voigt Hill
#
# Bulk Modulus (GPa) = 7.74743 62.13664 34.94203
# Shear Modulus (GPa) = 7.56142 16.62723 12.09433
#
# Velocity S-wave (km/s) = 2.15888 3.20137 2.73034
# Velocity P-wave (km/s) = 3.31507 7.20868 5.61047
#
# Compressibility (1/GPa) = 0.12907513
#
# Stress axis : x y z
#
# Youngs Moduli (GPa) = 48.85251 4.72722 52.99870
#
# Poissons Ratio (x) = 0.09971 0.44712
# Poissons Ratio (y) = 1.03048 1.66266
# Poissons Ratio (z) = 0.41214 0.14830
#
# Static dielectric constant tensor:
#      x y z
#    x 1.544480 0.000000 0.000000 
#    y 0.000000 1.554420 0.000000 
#    z 0.000000 0.000000 1.536040 
# 
# From -- ./inp_files/61976.got.cif
#   From: 2010.05.17/outbox.cif.g08.bks.cpg/sg71_31_cif.got.tgz:61976.got - 2010.06.03 16:22:01.
