data_PCOD9517935
_publ_section_title
;
Structure prediction by ZEFSAII (Michael W. Deem and Ramdas Pophale) SiO2 
 PCOD9517935
Probable space group: I M M M
;
_chemical_formula_sum "Si O2"
_cell_formula_units_Z 112
_cell_length_a 13.121429
_cell_length_b 18.925959
_cell_length_c 31.771771
_cell_angle_alpha 90.000000
_cell_angle_beta 90.000000
_cell_angle_gamma 90.000000
_cell_volume 7890.062681
_symmetry_space_group_name_H-M "I M M M"
_symmetry_group_IT_number 71
_symmetry_cell_setting 'orthorhombic'
loop_
_space_group_symop_operation_xyz
x,y,z
-x,-y,z
x,-y,-z
-x,y,-z
-x,-y,-z
x,y,-z
-x,y,z
x,-y,z
1/2+x,1/2+y,1/2+z
1/2-x,1/2-y,1/2+z
1/2+x,1/2-y,1/2-z
1/2-x,1/2+y,1/2-z
1/2-x,1/2-y,1/2-z
1/2+x,1/2+y,1/2-z
1/2-x,1/2+y,1/2+z
1/2+x,1/2-y,1/2+z
loop_
_atom_site_type_symbol
_atom_site_label
_atom_site_fract_x
_atom_site_fract_y
_atom_site_fract_z
Si Si1 0.116879 0.000000 0.665824
Si Si2 0.175351 0.915751 0.451692
Si Si3 0.611610 0.085095 0.412323
Si Si4 0.881076 0.415185 0.816172
Si Si5 0.121384 0.250836 0.299343
Si Si6 0.882428 0.145357 0.367949
Si Si7 0.617874 0.500000 0.266817
Si Si8 0.766379 0.859665 0.243019
O O1 0.164911 0.072103 0.649352
O O2 0.114419 0.000000 0.715720
O O3 0.000000 0.000000 0.649844
O O4 0.147687 0.903865 0.500000
O O5 0.294922 0.901352 0.443149
O O6 0.122764 0.865163 0.417742
O O7 0.155762 0.000000 0.442681
O O8 0.500000 0.109250 0.426860
O O9 0.628804 0.111418 0.364516
O O10 0.607378 0.000000 0.408727
O O11 0.864809 0.500000 0.815785
O O12 0.807563 0.381908 0.781597
O O13 0.000000 0.403069 0.804686
O O14 0.154251 0.214429 0.343686
O O15 0.148487 0.191691 0.263828
O O16 0.194337 0.316140 0.288499
O O17 0.000000 0.267193 0.298852
O O18 0.000000 0.143472 0.354172
O O19 0.500000 0.500000 0.281425
O O20 0.679575 0.428423 0.276645
#
# Coordination Sequence:
#
# PCOD9517935 Si02
#       8
#     8  16  16  16  16  16   8  16
#     4   9  16  26  43  61  76 105 147 181 211 249
#     4  10  19  27  39  60  81 104 140 187 230 261
#     4   8  15  25  36  51  73 102 133 166 207 254
#     4   9  16  26  41  62  83 106 142 182 221 261
#     4  10  21  32  42  60  85 116 151 180 216 265
#     4  10  18  30  44  58  81 112 144 182 220 259
#     4  11  20  30  47  70  87 109 150 188 222 264
#     4  11  19  29  45  63  86 113 142 187 227 251
#
# _framework density 14.195071
#
# number of rings (size 3 to 8) (size 9 to 14) (size 15 to 20)
#    0.000    2.286    2.857    2.571    0.000    0.571 
#    0.000    2.143    0.000    0.857    0.000    0.000 
#    0.000    0.000    0.000    0.643    0.000    5.857 
#
# Total GULP energy -311892.631338 kJ/mol
# GULP energy per Si atom -5569.511274 kJ/mol
# Density = 1.416276 g / cm^3
# Si number density = 14.195071 Si / 1000 Ang^3
#
#
#
# Elastic Constant Matrix: (Units=GPa)
#
#
# Indices 1 2 3 4 5 6 
#
# 1 61.4824 27.4825 9.5248 0.0000 0.0000 0.0000
# 2 27.4825 66.3760 28.2523 0.0000 0.0000 0.0000
# 3 9.5248 28.2523 59.3713 0.0000 0.0000 0.0000
# 4 0.0000 0.0000 0.0000 18.7206 0.0000 0.0000
# 5 0.0000 0.0000 0.0000 0.0000 12.7464 0.0000
# 6 0.0000 0.0000 0.0000 0.0000 0.0000 12.3230
#
#
#
# Elastic Compliance Matrix: (Units=1/GPa)
#
#
# Indices 1 2 3 4 5 6 
#
# 1 0.019999 -0.008671 0.000918 0.000000 0.000000 0.000000
# 2 -0.008671 0.022652 -0.009388 0.000000 0.000000 0.000000
# 3 0.000918 -0.009388 0.021163 0.000000 0.000000 0.000000
# 4 0.000000 0.000000 0.000000 0.053417 0.000000 0.000000
# 5 0.000000 0.000000 0.000000 0.000000 0.078453 0.000000
# 6 0.000000 0.000000 0.000000 0.000000 0.000000 0.081149
#
#
# Mechanical properties :
#
#
# Convention : Reuss Voigt Hill
#
# Bulk Modulus (GPa) = 33.86227 35.30542 34.58384
# Shear Modulus (GPa) = 15.57833 16.88935 16.23384
#
# Velocity S-wave (km/s) = 3.31637 3.45310 3.38542
# Velocity P-wave (km/s) = 6.21057 6.38937 6.30060
#
# Compressibility (1/GPa) = 0.02953139
#
# Stress axis : x y z
#
# Youngs Moduli (GPa) = 50.00374 44.14678 47.25172
#
# Poissons Ratio (x) = 0.38279 -0.04337
# Poissons Ratio (y) = 0.43358 0.44360
# Poissons Ratio (z) = -0.04589 0.41445
#
# Static dielectric constant tensor:
#      x y z
#    x 1.548930 0.000000 0.000000 
#    y 0.000000 1.470530 0.000000 
#    z 0.000000 0.000000 1.473210 
# 
# From -- ./inp_files/70195.got.cif
#   From: 2010.05.17/outbox.cif.g08.bks.cpg/sg71_36_cif.got.tgz:70195.got - 2010.06.03 16:22:01.
