data_PCOD9517281
_publ_section_title
;
Structure prediction by ZEFSAII (Michael W. Deem and Ramdas Pophale) SiO2 
 PCOD9517281
Probable space group: I M M M
;
_chemical_formula_sum "Si O2"
_cell_formula_units_Z 38
_cell_length_a 23.287212
_cell_length_b 15.548152
_cell_length_c 5.267499
_cell_angle_alpha 90.000000
_cell_angle_beta 90.000000
_cell_angle_gamma 90.000000
_cell_volume 1907.219755
_symmetry_space_group_name_H-M "I M M M"
_symmetry_group_IT_number 71
_symmetry_cell_setting 'orthorhombic'
loop_
_space_group_symop_operation_xyz
x,y,z
-x,-y,z
x,-y,-z
-x,y,-z
-x,-y,-z
x,y,-z
-x,y,z
x,-y,z
1/2+x,1/2+y,1/2+z
1/2-x,1/2-y,1/2+z
1/2+x,1/2-y,1/2-z
1/2-x,1/2+y,1/2-z
1/2-x,1/2-y,1/2-z
1/2+x,1/2+y,1/2-z
1/2-x,1/2+y,1/2+z
1/2+x,1/2-y,1/2+z
loop_
_atom_site_type_symbol
_atom_site_label
_atom_site_fract_x
_atom_site_fract_y
_atom_site_fract_z
Si Si1 0.619376 0.248278 0.000000
Si Si2 0.500000 0.000000 0.000000
Si Si3 0.432564 0.816379 0.500000
Si Si4 0.208368 0.900601 0.500000
Si Si5 0.285942 0.900214 0.000000
Si Si6 0.081622 0.500000 0.000000
O O1 0.581263 0.236444 0.249585
O O2 0.655778 0.335058 0.000000
O O3 0.664295 0.169493 0.000000
O O4 0.451354 0.000000 0.771596
O O5 0.500000 0.842232 0.500000
O O6 0.393607 0.903481 0.500000
O O7 0.246907 0.887134 0.750413
O O8 0.189403 0.000000 0.500000
O O9 0.306151 0.000000 0.000000
#
# Coordination Sequence:
#
# PCOD9517281 Si02
#       6
#     8   2   8   8   8   4
#     4  12  24  37  63  89 119 157 204 242 287 356
#     4  10  16  34  56  70 100 154 210 214 272 338
#     4  12  25  39  57  83 125 160 203 242 286 340
#     4  10  21  41  64  87 118 155 192 247 305 356
#     4  10  21  37  61  90 124 150 188 240 300 361
#     4  11  22  36  58  76 114 168 198 226 292 338
#
# _framework density 19.924289999999999
#
# number of rings (size 3 to 8) (size 9 to 14) (size 15 to 20)
#    0.000    1.053    2.105    5.684    2.947    0.000 
#    0.000    0.000    0.000    3.789    0.000    0.000 
#    0.000    0.000    0.000    0.000    0.000    0.000 
#
# Total GULP energy -105944.980584 kJ/mol
# GULP energy per Si atom -5576.051610 kJ/mol
# Density = 1.987894 g / cm^3
# Si number density = 19.924290 Si / 1000 Ang^3
#
#
#
# Elastic Constant Matrix: (Units=GPa)
#
#
# Indices 1 2 3 4 5 6 
#
# 1 63.9692 48.5258 43.1333 0.0000 0.0000 0.0000
# 2 48.5258 65.8652 47.3226 0.0000 0.0000 0.0000
# 3 43.1333 47.3226 214.2031 0.0000 0.0000 0.0000
# 4 0.0000 0.0000 0.0000 -12.4982 0.0000 0.0000
# 5 0.0000 0.0000 0.0000 0.0000 25.5979 0.0000
# 6 0.0000 0.0000 0.0000 0.0000 0.0000 22.3193
#
#
#
# Elastic Compliance Matrix: (Units=1/GPa)
#
#
# Indices 1 2 3 4 5 6 
#
# 1 0.035921 -0.025281 -0.001648 0.000000 0.000000 0.000000
# 2 -0.025281 0.035839 -0.002827 0.000000 0.000000 0.000000
# 3 -0.001648 -0.002827 0.005625 0.000000 0.000000 0.000000
# 4 0.000000 0.000000 0.000000 -0.080012 0.000000 0.000000
# 5 0.000000 0.000000 0.000000 0.000000 0.039066 0.000000
# 6 0.000000 0.000000 0.000000 0.000000 0.000000 0.044804
#
#
# Mechanical properties :
#
#
# Convention : Reuss Voigt Hill
#
# Bulk Modulus (GPa) = 55.94875 69.11119 62.52997
# Shear Modulus (GPa) = 34.08018 20.75419 27.41718
#
# Velocity S-wave (km/s) = 4.14029 3.23097 3.71356
# Velocity P-wave (km/s) = 7.14126 6.97718 7.05970
#
# Compressibility (1/GPa) = 0.01787350
#
# Stress axis : x y z
#
# Youngs Moduli (GPa) = 27.83871 27.90260 177.77998
#
# Poissons Ratio (x) = 0.70539 0.29303
# Poissons Ratio (y) = 0.70378 0.50259
# Poissons Ratio (z) = 0.04589 0.07888
#
# Static dielectric constant tensor:
#      x y z
#    x 1.717600 0.000000 0.000000 
#    y 0.000000 1.717070 0.000000 
#    z 0.000000 0.000000 1.699760 
# 
# From -- ./inp_files/1076.got.cif
#   From: 2010.05.17/outbox.cif.g08.bks.cpg/sg71_1_cif.got.tgz:1076.got - 2010.06.03 16:22:01.
