data_PCOD9517476
_publ_section_title
;
Structure prediction by ZEFSAII (Michael W. Deem and Ramdas Pophale) SiO2 
 PCOD9517476
Probable space group: I M M M
;
_chemical_formula_sum "Si O2"
_cell_formula_units_Z 64
_cell_length_a 24.508620
_cell_length_b 14.931134
_cell_length_c 9.352085
_cell_angle_alpha 90.000000
_cell_angle_beta 90.000000
_cell_angle_gamma 90.000000
_cell_volume 3422.315914
_symmetry_space_group_name_H-M "I M M M"
_symmetry_group_IT_number 71
_symmetry_cell_setting 'orthorhombic'
loop_
_space_group_symop_operation_xyz
x,y,z
-x,-y,z
x,-y,-z
-x,y,-z
-x,-y,-z
x,y,-z
-x,y,z
x,-y,z
1/2+x,1/2+y,1/2+z
1/2-x,1/2-y,1/2+z
1/2+x,1/2-y,1/2-z
1/2-x,1/2+y,1/2-z
1/2-x,1/2-y,1/2-z
1/2+x,1/2+y,1/2-z
1/2-x,1/2+y,1/2+z
1/2+x,1/2-y,1/2+z
loop_
_atom_site_type_symbol
_atom_site_label
_atom_site_fract_x
_atom_site_fract_y
_atom_site_fract_z
Si Si1 0.123897 0.896636 0.337747
Si Si2 0.000000 0.301292 0.164134
Si Si3 0.000000 0.100419 0.754171
Si Si4 0.607754 0.102179 0.674115
Si Si5 0.307724 0.250354 0.671747
O O1 0.139877 0.873129 0.500000
O O2 0.153450 0.830283 0.228732
O O3 0.057820 0.894382 0.327613
O O4 0.139603 0.000000 0.310058
O O5 0.000000 0.193986 0.161936
O O6 0.054890 0.343189 0.228013
O O7 0.000000 0.331596 0.000000
O O8 0.000000 0.000000 0.822681
O O9 0.606144 0.100890 0.500000
O O10 0.661057 0.158539 0.710425
O O11 0.607360 0.000000 0.723638
O O12 0.302194 0.256180 0.500000
O O13 0.250000 0.250000 0.750000
#
# Coordination Sequence:
#
# PCOD9517476 Si02
#       5
#    16   8   8  16  16
#     4  10  21  38  60  86 117 155 195 235 289 357
#     4  10  17  30  53  86 118 145 182 232 293 354
#     4  10  19  32  55  88 119 150 190 236 293 358
#     4   9  18  33  55  82 112 147 188 234 283 342
#     4  11  23  39  59  85 115 151 198 246 296 346
#
# _framework density 18.700786000000001
#
# number of rings (size 3 to 8) (size 9 to 14) (size 15 to 20)
#    0.000    2.000    2.500    1.500    0.000    4.750 
#    0.000    5.000    0.000    2.250    0.000    1.750 
#    0.000    0.000    0.000    0.000    0.000    0.000 
#
# Total GULP energy -178291.553750 kJ/mol
# GULP energy per Si atom -5571.611055 kJ/mol
# Density = 1.865822 g / cm^3
# Si number density = 18.700786 Si / 1000 Ang^3
#
#
#
# Elastic Constant Matrix: (Units=GPa)
#
#
# Indices 1 2 3 4 5 6 
#
# 1 138.9824 76.0041 39.4039 0.0000 0.0000 0.0000
# 2 76.0041 140.5789 35.8925 0.0000 0.0000 0.0000
# 3 39.4039 35.8925 51.2338 0.0000 0.0000 0.0000
# 4 0.0000 0.0000 0.0000 21.9961 0.0000 0.0000
# 5 0.0000 0.0000 0.0000 0.0000 17.8477 0.0000
# 6 0.0000 0.0000 0.0000 0.0000 0.0000 10.8755
#
#
#
# Elastic Compliance Matrix: (Units=1/GPa)
#
#
# Indices 1 2 3 4 5 6 
#
# 1 0.011314 -0.004744 -0.005378 0.000000 0.000000 0.000000
# 2 -0.004744 0.010652 -0.003814 0.000000 0.000000 0.000000
# 3 -0.005378 -0.003814 0.026327 0.000000 0.000000 0.000000
# 4 0.000000 0.000000 0.000000 0.045463 0.000000 0.000000
# 5 0.000000 0.000000 0.000000 0.000000 0.056029 0.000000
# 6 0.000000 0.000000 0.000000 0.000000 0.000000 0.091950
#
#
# Mechanical properties :
#
#
# Convention : Reuss Voigt Hill
#
# Bulk Modulus (GPa) = 48.96996 70.37734 59.67365
# Shear Modulus (GPa) = 18.08883 22.11019 20.09951
#
# Velocity S-wave (km/s) = 3.11348 3.44221 3.28196
# Velocity P-wave (km/s) = 6.25843 7.31529 6.80740
#
# Compressibility (1/GPa) = 0.02042068
#
# Stress axis : x y z
#
# Youngs Moduli (GPa) = 88.38410 93.87932 37.98418
#
# Poissons Ratio (x) = 0.44535 0.20429
# Poissons Ratio (y) = 0.41928 0.14487
# Poissons Ratio (z) = 0.47537 0.35804
#
# Static dielectric constant tensor:
#      x y z
#    x 1.656160 0.000000 0.000000 
#    y 0.000000 1.643770 0.000000 
#    z 0.000000 0.000000 1.646720 
# 
# From -- ./inp_files/5568.got.cif
#   From: 2010.05.17/outbox.cif.g08.bks.cpg/sg71_3_cif.got.tgz:5568.got - 2010.06.03 16:22:01.
