data_PCOD9517452
_publ_section_title
;
Structure prediction by ZEFSAII (Michael W. Deem and Ramdas Pophale) SiO2 
 PCOD9517452
Probable space group: I M M M
;
_chemical_formula_sum "Si O2"
_cell_formula_units_Z 104
_cell_length_a 25.711869
_cell_length_b 14.842280
_cell_length_c 15.189057
_cell_angle_alpha 90.000000
_cell_angle_beta 90.000000
_cell_angle_gamma 90.000000
_cell_volume 5796.489839
_symmetry_space_group_name_H-M "I M M M"
_symmetry_group_IT_number 71
_symmetry_cell_setting 'orthorhombic'
loop_
_space_group_symop_operation_xyz
x,y,z
-x,-y,z
x,-y,-z
-x,y,-z
-x,-y,-z
x,y,-z
-x,y,z
x,-y,z
1/2+x,1/2+y,1/2+z
1/2-x,1/2-y,1/2+z
1/2+x,1/2-y,1/2-z
1/2-x,1/2+y,1/2-z
1/2-x,1/2-y,1/2-z
1/2+x,1/2+y,1/2-z
1/2-x,1/2+y,1/2+z
1/2+x,1/2-y,1/2+z
loop_
_atom_site_type_symbol
_atom_site_label
_atom_site_fract_x
_atom_site_fract_y
_atom_site_fract_z
Si Si1 0.272871 0.098643 0.396625
Si Si2 0.057200 0.211527 0.103651
Si Si3 0.864988 0.395371 0.655350
Si Si4 0.737261 0.210307 0.892193
Si Si5 0.157964 0.104101 0.107376
Si Si6 0.558966 0.890554 0.000000
Si Si7 0.394174 0.101358 0.357450
O O1 0.259758 0.094058 0.500000
O O2 0.244334 0.186636 0.361303
O O3 0.335036 0.113586 0.391422
O O4 0.262279 0.000000 0.355994
O O5 0.106289 0.155682 0.139875
O O6 0.070489 0.317209 0.111126
O O7 0.000000 0.192369 0.141845
O O8 0.054920 0.189627 0.000000
O O9 0.851349 0.500000 0.635283
O O10 0.813318 0.336783 0.646818
O O11 0.907846 0.364466 0.585192
O O12 0.888848 0.393279 0.752221
O O13 0.789515 0.156242 0.867969
O O14 0.733296 0.208626 0.000000
O O15 0.158779 0.000000 0.134782
O O16 0.156867 0.105747 0.000000
O O17 0.500000 0.856843 0.000000
O O18 0.556427 0.000000 0.000000
O O19 0.411132 0.000000 0.382138
#
# Coordination Sequence:
#
# PCOD9517452 Si02
#       7
#    16  16  16  16  16   8  16
#     4   9  17  30  48  69  99 137 167 196 243 293
#     4  10  20  34  50  69  96 132 174 210 242 288
#     4  10  20  32  50  77 102 128 161 201 252 300
#     4  10  17  29  52  75  98 127 163 202 241 294
#     4   9  17  29  47  72  98 128 165 205 248 287
#     4   9  18  34  52  70  99 133 162 196 246 303
#     4  10  20  33  48  70 100 130 164 208 251 293
#
# _framework density 17.941891999999999
#
# number of rings (size 3 to 8) (size 9 to 14) (size 15 to 20)
#    0.000    2.385    2.308    0.923    0.000    3.385 
#    0.000    3.846    0.000    0.000    0.000    0.000 
#    0.000    1.231    0.000    0.000    0.000    0.154 
#
# Total GULP energy -290025.423393 kJ/mol
# GULP energy per Si atom -5577.411988 kJ/mol
# Density = 1.790106 g / cm^3
# Si number density = 17.941892 Si / 1000 Ang^3
#
#
#
# Elastic Constant Matrix: (Units=GPa)
#
#
# Indices 1 2 3 4 5 6 
#
# 1 105.6897 41.6453 10.8989 0.0000 0.0000 0.0000
# 2 41.6453 85.8966 4.6419 0.0000 0.0000 0.0000
# 3 10.8989 4.6419 25.6476 0.0000 0.0000 0.0000
# 4 0.0000 0.0000 0.0000 11.3919 0.0000 0.0000
# 5 0.0000 0.0000 0.0000 0.0000 3.7536 0.0000
# 6 0.0000 0.0000 0.0000 0.0000 0.0000 14.7468
#
#
#
# Elastic Compliance Matrix: (Units=1/GPa)
#
#
# Indices 1 2 3 4 5 6 
#
# 1 0.012113 -0.005650 -0.004125 0.000000 0.000000 0.000000
# 2 -0.005650 0.014392 -0.000204 0.000000 0.000000 0.000000
# 3 -0.004125 -0.000204 0.040780 0.000000 0.000000 0.000000
# 4 0.000000 0.000000 0.000000 0.087782 0.000000 0.000000
# 5 0.000000 0.000000 0.000000 0.000000 0.266413 0.000000
# 6 0.000000 0.000000 0.000000 0.000000 0.000000 0.067811
#
#
# Mechanical properties :
#
#
# Convention : Reuss Voigt Hill
#
# Bulk Modulus (GPa) = 21.12926 36.84512 28.98719
# Shear Modulus (GPa) = 9.52335 16.64830 13.08583
#
# Velocity S-wave (km/s) = 2.30638 3.04945 2.70357
# Velocity P-wave (km/s) = 4.34679 5.74276 5.09283
#
# Compressibility (1/GPa) = 0.04732773
#
# Stress axis : x y z
#
# Youngs Moduli (GPa) = 82.55376 69.48207 24.52193
#
# Poissons Ratio (x) = 0.39257 0.10115
# Poissons Ratio (y) = 0.46643 0.00500
# Poissons Ratio (z) = 0.34053 0.01417
#
# Static dielectric constant tensor:
#      x y z
#    x 1.601610 0.000000 0.000000 
#    y 0.000000 1.633070 0.000000 
#    z 0.000000 0.000000 1.646720 
# 
# From -- ./inp_files/48236.got.cif
#   From: 2010.05.17/outbox.cif.g08.bks.cpg/sg71_25_cif.got.tgz:48236.got - 2010.06.03 16:22:01.
