data_PCOD9517924
_publ_section_title
;
Structure prediction by ZEFSAII (Michael W. Deem and Ramdas Pophale) SiO2 
 PCOD9517924
Probable space group: I M M M
;
_chemical_formula_sum "Si O2"
_cell_formula_units_Z 88
_cell_length_a 7.455755
_cell_length_b 24.748473
_cell_length_c 20.730366
_cell_angle_alpha 90.000000
_cell_angle_beta 90.000000
_cell_angle_gamma 90.000000
_cell_volume 3825.137102
_symmetry_space_group_name_H-M "I M M M"
_symmetry_group_IT_number 71
_symmetry_cell_setting 'orthorhombic'
loop_
_space_group_symop_operation_xyz
x,y,z
-x,-y,z
x,-y,-z
-x,y,-z
-x,-y,-z
x,y,-z
-x,y,z
x,-y,z
1/2+x,1/2+y,1/2+z
1/2-x,1/2-y,1/2+z
1/2+x,1/2-y,1/2-z
1/2-x,1/2+y,1/2-z
1/2-x,1/2-y,1/2-z
1/2+x,1/2+y,1/2-z
1/2-x,1/2+y,1/2+z
1/2+x,1/2-y,1/2+z
loop_
_atom_site_type_symbol
_atom_site_label
_atom_site_fract_x
_atom_site_fract_y
_atom_site_fract_z
Si Si1 0.209362 0.343978 0.145678
Si Si2 0.788337 0.394970 0.361283
Si Si3 0.783588 0.226760 0.000000
Si Si4 0.294943 0.646967 0.000000
Si Si5 0.781264 0.563846 0.500000
Si Si6 0.279933 0.941389 0.731591
Si Si7 0.716180 0.278869 0.639917
O O1 0.218684 0.364580 0.071167
O O2 0.286462 0.390836 0.189922
O O3 0.282554 0.282080 0.154209
O O4 0.000000 0.338343 0.161458
O O5 0.715187 0.408259 0.433111
O O6 0.722335 0.434850 0.305695
O O7 0.764032 0.335342 0.327953
O O8 0.000000 0.403048 0.367242
O O9 0.717631 0.206017 0.067675
O O10 0.726032 0.288527 0.000000
O O11 0.000000 0.223986 0.000000
O O12 0.500000 0.629677 0.000000
O O13 0.736988 0.500000 0.500000
O O14 0.000000 0.567600 0.500000
O O15 0.500000 0.939761 0.730356
O O16 0.226463 0.000000 0.705968
O O17 0.500000 0.275597 0.639887
#
# Coordination Sequence:
#
# PCOD9517924 Si02
#       7
#    16  16   8   8   8  16  16
#     4   9  18  34  54  74 100 135 171 207 251 305
#     4  10  19  30  49  77 104 132 170 214 255 296
#     4   8  15  29  47  68 101 141 172 199 236 290
#     4  10  18  29  50  79 104 126 156 198 249 303
#     4   9  17  30  49  74 104 135 167 208 255 294
#     4   9  18  34  55  75  95 127 176 225 259 294
#     4   9  17  29  46  70 101 135 166 199 249 308
#
# _framework density 23.005713
#
# number of rings (size 3 to 8) (size 9 to 14) (size 15 to 20)
#    0.000    2.818    0.000    3.000    0.000    5.818 
#    0.000    2.273    0.000    7.091    0.000    0.000 
#    0.000    0.000    0.000    0.000    0.000    0.000 
#
# Total GULP energy -244942.491337 kJ/mol
# GULP energy per Si atom -5566.874803 kJ/mol
# Density = 2.295335 g / cm^3
# Si number density = 23.005713 Si / 1000 Ang^3
#
#
#
# Elastic Constant Matrix: (Units=GPa)
#
#
# Indices 1 2 3 4 5 6 
#
# 1 65.3149 -0.8930 -9.3769 0.0000 0.0000 0.0000
# 2 -0.8930 166.8138 76.1032 0.0000 0.0000 0.0000
# 3 -9.3769 76.1032 84.0828 -0.0001 0.0000 0.0000
# 4 0.0000 0.0000 -0.0001 32.6496 0.0000 0.0000
# 5 0.0000 0.0000 0.0000 0.0000 -18.9389 0.0000
# 6 0.0000 0.0000 0.0000 0.0000 0.0000 11.9326
#
#
#
# Elastic Compliance Matrix: (Units=1/GPa)
#
#
# Indices 1 2 3 4 5 6 
#
# 1 0.015703 -0.001218 0.002853 0.000000 0.000000 0.000000
# 2 -0.001218 0.010305 -0.009463 0.000000 0.000000 0.000000
# 3 0.002853 -0.009463 0.020776 0.000000 0.000000 0.000000
# 4 0.000000 0.000000 0.000000 0.030628 0.000000 0.000000
# 5 0.000000 0.000000 0.000000 0.000000 -0.052801 0.000000
# 6 0.000000 0.000000 0.000000 0.000000 0.000000 0.083804
#
#
# Mechanical properties :
#
#
# Convention : Reuss Voigt Hill
#
# Bulk Modulus (GPa) = 32.12316 49.76423 40.94370
# Shear Modulus (GPa) = 37.18906 21.82054 29.50480
#
# Velocity S-wave (km/s) = 4.02495 3.08309 3.58508
# Velocity P-wave (km/s) = 5.96605 5.86107 5.91379
#
# Compressibility (1/GPa) = 0.03113018
#
# Stress axis : x y z
#
# Youngs Moduli (GPa) = 63.68036 97.03560 48.13142
#
# Poissons Ratio (x) = 0.11816 -0.13734
# Poissons Ratio (y) = 0.07754 0.45548
# Poissons Ratio (z) = -0.18170 0.91828
#
# Static dielectric constant tensor:
#      x y z
#    x 1.759960 0.000000 0.000000 
#    y 0.000000 1.854340 0.000000 
#    z 0.000000 0.000000 1.952070 
# 
# From -- ./inp_files/50602.got.cif
#   From: 2010.05.17/outbox.cif.g08.bks.cpg/sg71_26_cif.got.tgz:50602.got - 2010.06.03 16:22:01.
