data_PCOD9517206
_publ_section_title
;
Structure prediction by ZEFSAII (Michael W. Deem and Ramdas Pophale) SiO2 
 PCOD9517206
Probable space group: F D D D
;
_chemical_formula_sum "Si O2"
_cell_formula_units_Z 48
_cell_length_a 15.000000
_cell_length_b 27.000000
_cell_length_c 24.000000
_cell_angle_alpha 90.000000
_cell_angle_beta 90.000000
_cell_angle_gamma 90.000000
_cell_volume 9720.000000
_symmetry_space_group_name_H-M "F D D D"
_symmetry_group_IT_number 70
_space_group.IT_coordinate_system_code '2'
_symmetry_cell_setting 'orthorhombic'
loop_
_space_group_symop_operation_xyz
x,y,z
1/4-x,1/4-y,z
x,1/4-y,1/4-z
1/4-x,y,1/4-z
-x,-y,-z
3/4+x,3/4+y,-z
-x,3/4+y,3/4+z
3/4+x,-y,3/4+z
x,1/2+y,1/2+z
1/4-x,3/4-y,1/2+z
x,3/4-y,3/4-z
1/4-x,1/2+y,3/4-z
-x,1/2-y,1/2-z
3/4+x,1/4+y,1/2-z
-x,1/4+y,1/4+z
3/4+x,1/2-y,1/4+z
1/2+x,y,1/2+z
3/4-x,1/4-y,1/2+z
1/2+x,1/4-y,3/4-z
3/4-x,y,3/4-z
1/2-x,-y,1/2-z
1/4+x,3/4+y,1/2-z
1/2-x,3/4+y,1/4+z
1/4+x,-y,1/4+z
1/2+x,1/2+y,z
3/4-x,3/4-y,z
1/2+x,3/4-y,1/4-z
3/4-x,1/2+y,1/4-z
1/2-x,1/2-y,-z
1/4+x,1/4+y,-z
1/2-x,1/4+y,3/4+z
1/4+x,1/2-y,3/4+z
loop_
_atom_site_type_symbol
_atom_site_label
_atom_site_fract_x
_atom_site_fract_y
_atom_site_fract_z
Si Si1 0.671972 0.499152 0.796815
Si Si2 0.017623 0.699442 0.713936
Si Si3 0.147471 0.372384 0.440739
Si Si4 0.625000 0.625000 0.960788
Si Si5 0.125000 0.758125 0.625000
Si Si6 0.251073 0.677010 0.290831
Si Si7 0.236252 0.917697 0.629826
O O1 0.750000 0.500000 0.750000
O O2 0.645252 0.439092 0.799604
O O3 0.584230 0.534981 0.785504
O O4 0.720824 0.529785 0.848422
O O5 0.088579 0.668878 0.750378
O O6 0.055021 0.722452 0.656474
O O7 0.000000 0.750000 0.750000
O O8 0.941076 0.657472 0.701362
O O9 0.169901 0.375000 0.375000
O O10 0.215312 0.402624 0.482160
O O11 0.707489 0.601843 0.924232
O O12 0.174824 0.792004 0.672258
O O13 0.239151 0.626595 0.326938
O O14 0.125000 0.920085 0.625000
#
# Coordination Sequence:
#
# PCOD9517206 Si02
#       7
#    32  32  32  16  16  32  32
#     4  12  28  46  75 110 153 204 259 329 387 475
#     4  12  28  49  74 117 156 201 261 327 401 470
#     4  12  29  49  74 113 161 208 259 330 401 470
#     4  12  28  45  80 118 149 204 264 326 404 478
#     4  12  26  47  84 114 154 204 257 342 404 468
#     4  12  24  51  78 110 154 203 268 323 396 475
#     4  12  25  49  81 112 150 207 269 324 390 481
#
# _framework density 4.9382720000000004
#
# number of rings (size 3 to 8) (size 9 to 14) (size 15 to 20)
#    0.000    0.000    5.833    3.000    7.000    1.333 
#    0.000    0.833    0.000    0.000    0.000    0.000 
#    0.000    0.000    0.000    0.000    0.000    0.000 
#
# Total GULP energy -267518.059949 kJ/mol
# GULP energy per Si atom -5573.292916 kJ/mol
# Density = 0.492703 g / cm^3
# Si number density = 4.938272 Si / 1000 Ang^3
#
#
#
# Elastic Constant Matrix: (Units=GPa)
#
#
# Indices 1 2 3 4 5 6 
#
# 1 123.8581 62.5090 44.6310 0.0000 0.0000 0.0000
# 2 62.5090 204.8895 55.8685 0.0000 0.0000 0.0000
# 3 44.6310 55.8685 127.7192 0.0000 0.0000 0.0000
# 4 0.0000 0.0000 0.0000 56.4042 0.0000 0.0000
# 5 0.0000 0.0000 0.0000 0.0000 49.1057 0.0000
# 6 0.0000 0.0000 0.0000 0.0000 0.0000 53.7027
#
#
#
# Elastic Compliance Matrix: (Units=1/GPa)
#
#
# Indices 1 2 3 4 5 6 
#
# 1 0.010202 -0.002430 -0.002502 0.000000 0.000000 0.000000
# 2 -0.002430 0.006121 -0.001828 0.000000 0.000000 0.000000
# 3 -0.002502 -0.001828 0.009504 0.000000 0.000000 0.000000
# 4 0.000000 0.000000 0.000000 0.017729 0.000000 0.000000
# 5 0.000000 0.000000 0.000000 0.000000 0.020364 0.000000
# 6 0.000000 0.000000 0.000000 0.000000 0.000000 0.018621
#
#
# Mechanical properties :
#
#
# Convention : Reuss Voigt Hill
#
# Bulk Modulus (GPa) = 81.26436 86.94264 84.10350
# Shear Modulus (GPa) = 49.91874 51.40641 50.66258
#
# Velocity S-wave (km/s) = 5.03252 5.10696 5.06987
# Velocity P-wave (km/s) = 8.66012 8.88172 8.77162
#
# Compressibility (1/GPa) = 0.01230552
#
# Stress axis : x y z
#
# Youngs Moduli (GPa) = 98.02208 163.38299 105.22284
#
# Poissons Ratio (x) = 0.39705 0.26326
# Poissons Ratio (y) = 0.23821 0.19236
# Poissons Ratio (z) = 0.24524 0.29868
#
# Static dielectric constant tensor:
#      x y z
#    x 1.762200 0.000000 0.000000 
#    y 0.000000 1.698910 0.000000 
#    z 0.000000 0.000000 1.738400 
# 
# From -- ./inp_files/51420.got.cif
#   From: 2010.05.17/outbox.ucp.g08.bks.cvg/sg70_26_cif.got.tgz:51420.got - 2010.06.11 16:26:41.
