data_PCOD9517755
_publ_section_title
;
Structure prediction by ZEFSAII (Michael W. Deem and Ramdas Pophale) SiO2 
 PCOD9517755
Probable space group: I M M M
;
_chemical_formula_sum "Si O2"
_cell_formula_units_Z 88
_cell_length_a 20.996453
_cell_length_b 7.492392
_cell_length_c 31.300945
_cell_angle_alpha 90.000000
_cell_angle_beta 90.000000
_cell_angle_gamma 90.000000
_cell_volume 4924.066109
_symmetry_space_group_name_H-M "I M M M"
_symmetry_group_IT_number 71
_symmetry_cell_setting 'orthorhombic'
loop_
_space_group_symop_operation_xyz
x,y,z
-x,-y,z
x,-y,-z
-x,y,-z
-x,-y,-z
x,y,-z
-x,y,z
x,-y,z
1/2+x,1/2+y,1/2+z
1/2-x,1/2-y,1/2+z
1/2+x,1/2-y,1/2-z
1/2-x,1/2+y,1/2-z
1/2-x,1/2-y,1/2-z
1/2+x,1/2+y,1/2-z
1/2-x,1/2+y,1/2+z
1/2+x,1/2-y,1/2+z
loop_
_atom_site_type_symbol
_atom_site_label
_atom_site_fract_x
_atom_site_fract_y
_atom_site_fract_z
Si Si1 0.000000 0.287480 0.950574
Si Si2 0.069200 0.286383 0.726731
Si Si3 0.067970 0.786338 0.827800
Si Si4 0.290802 0.785509 0.793210
Si Si5 0.699384 0.280912 0.368027
Si Si6 0.641858 0.710857 0.548103
O O1 0.930703 0.229523 0.934103
O O2 0.000000 0.500000 0.950538
O O3 0.000000 0.221520 0.000000
O O4 0.069071 0.500000 0.720273
O O5 0.070246 0.251134 0.777399
O O6 0.136756 0.216663 0.709706
O O7 0.000000 0.218704 0.710827
O O8 0.132827 0.719119 0.847563
O O9 0.000000 0.715834 0.844325
O O10 0.067606 0.000000 0.833692
O O11 0.250000 0.750000 0.750000
O O12 0.254323 0.721750 0.835697
O O13 0.294116 0.000000 0.795870
O O14 0.700644 0.500000 0.367899
O O15 0.692721 0.222169 0.417230
O O16 0.644269 0.787642 0.500000
O O17 0.652469 0.500000 0.544459
#
# Coordination Sequence:
#
# PCOD9517755 Si02
#       6
#     8  16  16  16  16  16
#     4   9  17  29  43  59  81 107 135 171 213 247
#     4   9  17  28  41  57  79 105 132 164 197 233
#     4   9  16  25  38  55  76 104 134 162 195 234
#     4  10  18  29  43  59  82 108 133 165 202 241
#     4   9  17  27  41  59  77 101 134 169 203 235
#     4   9  17  29  44  59  76 102 138 175 208 244
#
# _framework density 17.871410000000001
#
# number of rings (size 3 to 8) (size 9 to 14) (size 15 to 20)
#    0.000    2.818    1.818    0.273    1.273    1.091 
#    0.000    1.818    0.000    0.000    0.000    0.000 
#    0.000    0.727    0.000   10.182    0.000    0.000 
#
# Total GULP energy -245164.361687 kJ/mol
# GULP energy per Si atom -5571.917311 kJ/mol
# Density = 1.783073 g / cm^3
# Si number density = 17.871410 Si / 1000 Ang^3
#
#
#
# Elastic Constant Matrix: (Units=GPa)
#
#
# Indices 1 2 3 4 5 6 
#
# 1 148.1910 7.4649 70.4166 0.0000 0.0000 0.0000
# 2 7.4649 54.0994 0.9955 0.0000 0.0000 0.0000
# 3 70.4166 0.9955 100.6936 0.0000 0.0000 0.0000
# 4 0.0000 0.0000 0.0000 6.6373 0.0000 0.0000
# 5 0.0000 0.0000 0.0000 0.0000 34.1592 0.0000
# 6 0.0000 0.0000 0.0000 0.0000 0.0000 0.6898
#
#
#
# Elastic Compliance Matrix: (Units=1/GPa)
#
#
# Indices 1 2 3 4 5 6 
#
# 1 0.010194 -0.001276 -0.007116 0.000000 0.000000 0.000000
# 2 -0.001276 0.018647 0.000708 0.000000 0.000000 0.000000
# 3 -0.007116 0.000708 0.014900 0.000000 0.000000 0.000000
# 4 0.000000 0.000000 0.000000 0.150663 0.000000 0.000000
# 5 0.000000 0.000000 0.000000 0.000000 0.029275 0.000000
# 6 0.000000 0.000000 0.000000 0.000000 0.000000 1.449738
#
#
# Mechanical properties :
#
#
# Convention : Reuss Voigt Hill
#
# Bulk Modulus (GPa) = 35.24381 51.19311 43.21846
# Shear Modulus (GPa) = 2.94422 23.23772 13.09097
#
# Velocity S-wave (km/s) = 1.28492 3.60984 2.70943
# Velocity P-wave (km/s) = 4.68668 6.78838 5.83297
#
# Compressibility (1/GPa) = 0.02837378
#
# Stress axis : x y z
#
# Youngs Moduli (GPa) = 98.10058 53.62656 67.11229
#
# Poissons Ratio (x) = 0.06841 0.47757
# Poissons Ratio (y) = 0.12514 -0.04750
# Poissons Ratio (z) = 0.69808 -0.03795
#
# Static dielectric constant tensor:
#      x y z
#    x 1.645360 0.000000 0.000000 
#    y 0.000000 1.440360 0.000000 
#    z 0.000000 0.000000 1.650690 
# 
# From -- ./inp_files/11324.got.cif
#   From: 2010.05.17/outbox.cif.g08.bks.cpg/sg71_6_cif.got.tgz:11324.got - 2010.06.03 16:22:01.
