data_PCOD9517651
_publ_section_title
;
Structure prediction by ZEFSAII (Michael W. Deem and Ramdas Pophale) SiO2 
 PCOD9517651
Probable space group: I M M M
;
_chemical_formula_sum "Si O2"
_cell_formula_units_Z 96
_cell_length_a 29.450004
_cell_length_b 27.341075
_cell_length_c 8.661503
_cell_angle_alpha 90.000000
_cell_angle_beta 90.000000
_cell_angle_gamma 90.000000
_cell_volume 6974.196900
_symmetry_space_group_name_H-M "I M M M"
_symmetry_group_IT_number 71
_symmetry_cell_setting 'orthorhombic'
loop_
_space_group_symop_operation_xyz
x,y,z
-x,-y,z
x,-y,-z
-x,y,-z
-x,-y,-z
x,y,-z
-x,y,z
x,-y,z
1/2+x,1/2+y,1/2+z
1/2-x,1/2-y,1/2+z
1/2+x,1/2-y,1/2-z
1/2-x,1/2+y,1/2-z
1/2-x,1/2-y,1/2-z
1/2+x,1/2+y,1/2-z
1/2-x,1/2+y,1/2+z
1/2+x,1/2-y,1/2+z
loop_
_atom_site_type_symbol
_atom_site_label
_atom_site_fract_x
_atom_site_fract_y
_atom_site_fract_z
Si Si1 0.222848 0.297124 0.184444
Si Si2 0.696936 0.649292 0.685782
Si Si3 0.359762 0.554667 0.313900
Si Si4 0.448199 0.711251 0.684386
Si Si5 0.643029 0.256609 0.183758
Si Si6 0.551314 0.601576 0.184519
O O1 0.250000 0.250000 0.250000
O O2 0.252676 0.341834 0.248061
O O3 0.172323 0.288032 0.246969
O O4 0.223445 0.296334 0.000000
O O5 0.697940 0.652999 0.500000
O O6 0.674603 0.597882 0.732204
O O7 0.665327 0.693278 0.749462
O O8 0.362729 0.556249 0.500000
O O9 0.345779 0.500000 0.267551
O O10 0.409118 0.567317 0.246795
O O11 0.442131 0.712527 0.500000
O O12 0.500000 0.726077 0.721088
O O13 0.409114 0.742538 0.764730
O O14 0.443019 0.655227 0.740955
O O15 0.647502 0.257202 0.000000
O O16 0.500000 0.584531 0.220939
O O17 0.555120 0.606373 0.000000
#
# Coordination Sequence:
#
# PCOD9517651 Si02
#       6
#    16  16  16  16  16  16
#     4  10  18  28  43  62  83 104 130 160 201 246
#     4  10  18  30  45  60  81 104 132 169 208 248
#     4  10  21  34  47  61  78 105 138 172 213 259
#     4  10  19  30  44  61  82 109 138 168 205 248
#     4  11  19  28  44  64  85 105 132 165 203 245
#     4  10  20  32  45  60  77 100 133 175 219 257
#
# _framework density 13.765025
#
# number of rings (size 3 to 8) (size 9 to 14) (size 15 to 20)
#    0.000    1.833    1.667    6.500    0.000    3.333 
#    0.000    1.667    0.000    0.000    0.000    0.000 
#    0.000    0.000    0.000    0.000    0.000    0.833 
#
# Total GULP energy -267731.809212 kJ/mol
# GULP energy per Si atom -5577.746025 kJ/mol
# Density = 1.373370 g / cm^3
# Si number density = 13.765025 Si / 1000 Ang^3
#
#
#
# Elastic Constant Matrix: (Units=GPa)
#
#
# Indices 1 2 3 4 5 6 
#
# 1 94.6809 54.3456 40.3402 0.0000 0.0000 0.0000
# 2 54.3456 56.4696 28.4907 0.0000 0.0000 0.0000
# 3 40.3402 28.4907 69.9991 0.0000 0.0000 0.0000
# 4 0.0000 0.0000 0.0000 10.1677 0.0000 0.0000
# 5 0.0000 0.0000 0.0000 0.0000 24.7072 0.0000
# 6 0.0000 0.0000 0.0000 0.0000 0.0000 19.0865
#
#
#
# Elastic Compliance Matrix: (Units=1/GPa)
#
#
# Indices 1 2 3 4 5 6 
#
# 1 0.025395 -0.021464 -0.005899 0.000000 0.000000 0.000000
# 2 -0.021464 0.040426 -0.004084 0.000000 0.000000 0.000000
# 3 -0.005899 -0.004084 0.019348 0.000000 0.000000 0.000000
# 4 0.000000 0.000000 0.000000 0.098351 0.000000 0.000000
# 5 0.000000 0.000000 0.000000 0.000000 0.040474 0.000000
# 6 0.000000 0.000000 0.000000 0.000000 0.000000 0.052393
#
#
# Mechanical properties :
#
#
# Convention : Reuss Voigt Hill
#
# Bulk Modulus (GPa) = 44.89456 51.94473 48.41964
# Shear Modulus (GPa) = 14.42148 17.32383 15.87266
#
# Velocity S-wave (km/s) = 3.24032 3.55144 3.39944
# Velocity P-wave (km/s) = 6.83266 7.39159 7.11762
#
# Compressibility (1/GPa) = 0.02227441
#
# Stress axis : x y z
#
# Youngs Moduli (GPa) = 39.37792 24.73681 51.68511
#
# Poissons Ratio (x) = 0.53094 0.30489
# Poissons Ratio (y) = 0.84519 0.21111
# Poissons Ratio (z) = 0.23229 0.10104
#
# Static dielectric constant tensor:
#      x y z
#    x 1.484780 0.000000 0.000000 
#    y 0.000000 1.436340 0.000000 
#    z 0.000000 0.000000 1.460540 
# 
# From -- ./inp_files/15459.got.cif
#   From: 2010.05.17/outbox.cif.g08.bks.cpg/sg71_8_cif.got.tgz:15459.got - 2010.06.03 16:22:01.
