data_PCOD9517056
_publ_section_title
;
Structure prediction by ZEFSAII (Michael W. Deem and Ramdas Pophale) SiO2 
 PCOD9517056
Probable space group: F D D D
;
_chemical_formula_sum "Si O2"
_cell_formula_units_Z 200
_cell_length_a 27.810364
_cell_length_b 18.390164
_cell_length_c 16.741479
_cell_angle_alpha 90.000000
_cell_angle_beta 90.000000
_cell_angle_gamma 90.000000
_cell_volume 8562.214388
_symmetry_space_group_name_H-M "F D D D"
_symmetry_group_IT_number 70
_space_group.IT_coordinate_system_code '2'
_symmetry_cell_setting 'orthorhombic'
loop_
_space_group_symop_operation_xyz
x,y,z
1/4-x,1/4-y,z
x,1/4-y,1/4-z
1/4-x,y,1/4-z
-x,-y,-z
3/4+x,3/4+y,-z
-x,3/4+y,3/4+z
3/4+x,-y,3/4+z
x,1/2+y,1/2+z
1/4-x,3/4-y,1/2+z
x,3/4-y,3/4-z
1/4-x,1/2+y,3/4-z
-x,1/2-y,1/2-z
3/4+x,1/4+y,1/2-z
-x,1/4+y,1/4+z
3/4+x,1/2-y,1/4+z
1/2+x,y,1/2+z
3/4-x,1/4-y,1/2+z
1/2+x,1/4-y,3/4-z
3/4-x,y,3/4-z
1/2-x,-y,1/2-z
1/4+x,3/4+y,1/2-z
1/2-x,3/4+y,1/4+z
1/4+x,-y,1/4+z
1/2+x,1/2+y,z
3/4-x,3/4-y,z
1/2+x,3/4-y,1/4-z
3/4-x,1/2+y,1/4-z
1/2-x,1/2-y,-z
1/4+x,1/4+y,-z
1/2-x,1/4+y,3/4+z
1/4+x,1/2-y,3/4+z
loop_
_atom_site_type_symbol
_atom_site_label
_atom_site_fract_x
_atom_site_fract_y
_atom_site_fract_z
Si Si1 0.201636 0.001964 0.192087
Si Si2 0.549439 0.547848 0.667245
Si Si3 0.141826 0.941619 0.313798
Si Si4 0.947841 0.216092 0.764703
Si Si5 0.886546 0.452027 0.679778
Si Si6 0.375000 0.375000 0.875000
Si Si7 0.043395 0.292654 0.010258
O O1 0.171527 0.935316 0.232589
O O2 0.213053 0.983790 0.100260
O O3 0.250000 0.000000 0.250000
O O4 0.162805 0.071663 0.177267
O O5 0.540323 0.625000 0.625000
O O6 0.567927 0.491814 0.602146
O O7 0.585514 0.562068 0.738822
O O8 0.500681 0.519134 0.705806
O O9 0.136170 0.875000 0.375000
O O10 0.092612 0.977598 0.283232
O O11 0.167502 0.001637 0.368519
O O12 0.909959 0.251011 0.703942
O O13 0.952653 0.130320 0.759234
O O14 0.000000 0.250000 0.750000
O O15 0.875000 0.375000 0.643021
#
# Coordination Sequence:
#
# PCOD9517056 Si02
#       7
#    32  32  32  32  32   8  32
#     4  12  30  53  85 119 160 223 288 356 438 515
#     4  12  24  41  68 104 148 188 244 319 391 478
#     4  12  26  47  74 109 151 201 264 337 408 498
#     4  12  24  41  68 102 146 198 241 312 395 479
#     4  12  25  40  67 103 141 190 247 306 390 483
#     4  12  28  60  84 124 180 224 300 380 432 522
#     4  12  25  50  73 108 151 203 263 324 411 500
#
# _framework density 23.358443000000001
#
# number of rings (size 3 to 8) (size 9 to 14) (size 15 to 20)
#    0.000    0.000    6.400    2.880    4.480    2.560 
#    0.000    0.000    0.000    0.000    0.000    0.000 
#    0.000    0.000    0.000    0.000    0.000    0.000 
#
# Total GULP energy -279044.452305 kJ/mol
# GULP energy per Si atom -5580.889046 kJ/mol
# Density = 2.330528 g / cm^3
# Si number density = 23.358443 Si / 1000 Ang^3
#
#
#
# Elastic Constant Matrix: (Units=GPa)
#
#
# Indices 1 2 3 4 5 6 
#
# 1 118.1239 4.8665 39.0591 0.0000 0.0000 0.0000
# 2 4.8665 76.1231 25.1523 0.0000 0.0000 0.0000
# 3 39.0591 25.1523 138.1699 0.0000 0.0000 0.0000
# 4 0.0000 0.0000 0.0000 44.9076 0.0000 0.0000
# 5 0.0000 0.0000 0.0000 0.0000 26.0548 0.0000
# 6 0.0000 0.0000 0.0000 0.0000 0.0000 15.7220
#
#
#
# Elastic Compliance Matrix: (Units=1/GPa)
#
#
# Indices 1 2 3 4 5 6 
#
# 1 0.009345 0.000293 -0.002695 0.000000 0.000000 0.000000
# 2 0.000293 0.013987 -0.002629 0.000000 0.000000 0.000000
# 3 -0.002695 -0.002629 0.008478 0.000000 0.000000 0.000000
# 4 0.000000 0.000000 0.000000 0.022268 0.000000 0.000000
# 5 0.000000 0.000000 0.000000 0.000000 0.038381 0.000000
# 6 0.000000 0.000000 0.000000 0.000000 0.000000 0.063605
#
#
# Mechanical properties :
#
#
# Convention : Reuss Voigt Hill
#
# Bulk Modulus (GPa) = 45.98250 52.28585 49.13418
# Shear Modulus (GPa) = 28.83944 34.89283 31.86613
#
# Velocity S-wave (km/s) = 3.51757 3.86916 3.69755
# Velocity P-wave (km/s) = 6.01881 6.51101 6.26974
#
# Compressibility (1/GPa) = 0.02174740
#
# Stress axis : x y z
#
# Youngs Moduli (GPa) = 107.01194 71.49743 117.95402
#
# Poissons Ratio (x) = -0.02095 0.31789
# Poissons Ratio (y) = -0.03136 0.31009
# Poissons Ratio (z) = 0.28840 0.18796
#
# Static dielectric constant tensor:
#      x y z
#    x 2.030450 0.000000 0.000000 
#    y 0.000000 1.932740 0.000000 
#    z 0.000000 0.000000 1.935620 
# 
# From -- ./inp_files/38727.got.cif
#   From: 2010.05.17/outbox.cif.g08.bks.cpg/sg70_20_cif.got.tgz:38727.got - 2010.06.03 15:57:51.
