data_PCOD9517888
_publ_section_title
;
Structure prediction by ZEFSAII (Michael W. Deem and Ramdas Pophale) SiO2 
 PCOD9517888
Probable space group: I M M M
;
_chemical_formula_sum "Si O2"
_cell_formula_units_Z 96
_cell_length_a 28.201953
_cell_length_b 24.466278
_cell_length_c 9.526684
_cell_angle_alpha 90.000000
_cell_angle_beta 90.000000
_cell_angle_gamma 90.000000
_cell_volume 6573.381686
_symmetry_space_group_name_H-M "I M M M"
_symmetry_group_IT_number 71
_symmetry_cell_setting 'orthorhombic'
loop_
_space_group_symop_operation_xyz
x,y,z
-x,-y,z
x,-y,-z
-x,y,-z
-x,-y,-z
x,y,-z
-x,y,z
x,-y,z
1/2+x,1/2+y,1/2+z
1/2-x,1/2-y,1/2+z
1/2+x,1/2-y,1/2-z
1/2-x,1/2+y,1/2-z
1/2-x,1/2-y,1/2-z
1/2+x,1/2+y,1/2-z
1/2-x,1/2+y,1/2+z
1/2+x,1/2-y,1/2+z
loop_
_atom_site_type_symbol
_atom_site_label
_atom_site_fract_x
_atom_site_fract_y
_atom_site_fract_z
Si Si1 0.604468 0.083137 0.655312
Si Si2 0.907473 0.287408 0.837144
Si Si3 0.823450 0.235159 0.663996
Si Si4 0.694618 0.059789 0.167507
Si Si5 0.752268 0.834391 0.835825
Si Si6 0.500000 0.938411 0.765283
Si Si7 0.500000 0.188069 0.160459
O O1 0.618205 0.064822 0.500000
O O2 0.607791 0.148887 0.659788
O O3 0.642337 0.062813 0.766976
O O4 0.550024 0.065671 0.682593
O O5 0.868678 0.251627 0.756578
O O6 0.955041 0.290262 0.746008
O O7 0.914363 0.270821 0.000000
O O8 0.834563 0.224914 0.500000
O O9 0.794676 0.186238 0.737752
O O10 0.788083 0.287455 0.668164
O O11 0.727793 0.109620 0.213846
O O12 0.714969 0.000000 0.199448
O O13 0.689754 0.065335 0.000000
O O14 0.766957 0.839607 0.000000
O O15 0.500000 0.879008 0.841992
O O16 0.500000 0.000000 0.830995
O O17 0.500000 0.206422 0.000000
#
# Coordination Sequence:
#
# PCOD9517888 Si02
#       7
#    16  16  16  16  16   8   8
#     4  10  20  32  46  61  80 109 148 190 233 277
#     4  10  19  32  48  66  89 116 145 182 229 275
#     4  10  18  29  49  70  88 112 145 186 227 268
#     4  10  20  33  47  63  87 117 148 184 227 273
#     4   9  18  31  45  65  90 115 145 183 227 270
#     4  10  21  33  43  59  81 109 147 194 239 275
#     4  10  21  34  48  64  86 114 149 187 225 270
#
# _framework density 14.604355
#
# number of rings (size 3 to 8) (size 9 to 14) (size 15 to 20)
#    0.000    2.167    1.667    2.000    0.000    7.833 
#    0.000    0.000    0.000    0.000    0.000    0.000 
#    0.000    0.000    0.000    0.750    0.000   15.500 
#
# Total GULP energy -267394.487719 kJ/mol
# GULP energy per Si atom -5570.718494 kJ/mol
# Density = 1.457111 g / cm^3
# Si number density = 14.604355 Si / 1000 Ang^3
#
#
#
# Elastic Constant Matrix: (Units=GPa)
#
#
# Indices 1 2 3 4 5 6 
#
# 1 85.0243 49.4431 55.9208 0.0000 0.0000 0.0000
# 2 49.4431 72.8121 34.3667 0.0000 0.0000 0.0000
# 3 55.9208 34.3667 99.3792 0.0000 0.0000 0.0000
# 4 0.0000 0.0000 0.0000 9.1950 0.0000 0.0000
# 5 0.0000 0.0000 0.0000 0.0000 13.7159 0.0000
# 6 0.0000 0.0000 0.0000 0.0000 0.0000 9.5583
#
#
#
# Elastic Compliance Matrix: (Units=1/GPa)
#
#
# Indices 1 2 3 4 5 6 
#
# 1 0.025851 -0.012773 -0.010129 0.000000 0.000000 0.000000
# 2 -0.012773 0.022724 -0.000671 0.000000 0.000000 0.000000
# 3 -0.010129 -0.000671 0.015994 0.000000 0.000000 0.000000
# 4 0.000000 0.000000 0.000000 0.108755 0.000000 0.000000
# 5 0.000000 0.000000 0.000000 0.000000 0.072908 0.000000
# 6 0.000000 0.000000 0.000000 0.000000 0.000000 0.104621
#
#
# Mechanical properties :
#
#
# Convention : Reuss Voigt Hill
#
# Bulk Modulus (GPa) = 57.39590 59.63075 58.51332
# Shear Modulus (GPa) = 12.38207 14.32617 13.35412
#
# Velocity S-wave (km/s) = 2.91492 3.13541 3.02717
# Velocity P-wave (km/s) = 7.12144 7.35032 7.23678
#
# Compressibility (1/GPa) = 0.01742285
#
# Stress axis : x y z
#
# Youngs Moduli (GPa) = 38.68251 44.00550 62.52248
#
# Poissons Ratio (x) = 0.56210 0.63332
# Poissons Ratio (y) = 0.49411 0.04194
# Poissons Ratio (z) = 0.39183 0.02952
#
# Static dielectric constant tensor:
#      x y z
#    x 1.461770 0.000000 0.000000 
#    y 0.000000 1.484900 0.000000 
#    z 0.000000 0.000000 1.494830 
# 
# From -- ./inp_files/13213.got.cif
#   From: 2010.05.17/outbox.cif.g08.bks.cpg/sg71_7_cif.got.tgz:13213.got - 2010.06.03 16:22:01.
