data_PCOD9517955
_publ_section_title
;
Structure prediction by ZEFSAII (Michael W. Deem and Ramdas Pophale) SiO2 
 PCOD9517955
Probable space group: I M M M
;
_chemical_formula_sum "Si O2"
_cell_formula_units_Z 88
_cell_length_a 17.242204
_cell_length_b 21.751398
_cell_length_c 17.195045
_cell_angle_alpha 90.000000
_cell_angle_beta 90.000000
_cell_angle_gamma 90.000000
_cell_volume 6448.864782
_symmetry_space_group_name_H-M "I M M M"
_symmetry_group_IT_number 71
_symmetry_cell_setting 'orthorhombic'
loop_
_space_group_symop_operation_xyz
x,y,z
-x,-y,z
x,-y,-z
-x,y,-z
-x,-y,-z
x,y,-z
-x,y,z
x,-y,z
1/2+x,1/2+y,1/2+z
1/2-x,1/2-y,1/2+z
1/2+x,1/2-y,1/2-z
1/2-x,1/2+y,1/2-z
1/2-x,1/2-y,1/2-z
1/2+x,1/2+y,1/2-z
1/2-x,1/2+y,1/2+z
1/2+x,1/2-y,1/2+z
loop_
_atom_site_type_symbol
_atom_site_label
_atom_site_fract_x
_atom_site_fract_y
_atom_site_fract_z
Si Si1 0.410240 0.266998 0.408182
Si Si2 0.412795 0.500000 0.405961
Si Si3 0.592826 0.865159 0.340131
Si Si4 0.805364 0.885414 0.093084
Si Si5 0.000000 0.574192 0.587813
Si Si6 0.594103 0.929644 0.500000
Si Si7 0.153491 0.574794 0.685035
O O1 0.404296 0.249094 0.500000
O O2 0.500000 0.288018 0.397701
O O3 0.397406 0.207563 0.354627
O O4 0.349203 0.321072 0.393678
O O5 0.500000 0.500000 0.375131
O O6 0.417420 0.500000 0.500000
O O7 0.365144 0.560515 0.385047
O O8 0.500000 0.876606 0.329018
O O9 0.617821 0.896766 0.420795
O O10 0.638448 0.894930 0.268823
O O11 0.728064 0.897486 0.141848
O O12 0.789091 0.890469 0.000000
O O13 0.922513 0.590537 0.634047
O O14 0.000000 0.500000 0.583571
O O15 0.000000 0.598452 0.500000
O O16 0.500000 0.928045 0.500000
O O17 0.619224 0.000000 0.500000
O O18 0.159712 0.500000 0.690117
#
# Coordination Sequence:
#
# PCOD9517955 Si02
#       7
#    16   8  16  16   8   8  16
#     4   9  17  31  49  68  91 121 154 188 232 287
#     4   9  16  28  46  67  89 116 151 189 229 274
#     4  10  18  30  46  66  92 123 157 191 229 279
#     4  10  19  30  46  67  93 123 155 190 231 273
#     4   9  18  30  44  59  85 127 165 189 218 257
#     4   9  16  26  44  66  88 117 153 191 232 272
#     4  11  20  30  44  66  95 125 158 195 226 267
#
# _framework density 13.645811999999999
#
# number of rings (size 3 to 8) (size 9 to 14) (size 15 to 20)
#    0.000    2.273    2.727    1.636    0.000    4.364 
#    0.000    0.000    0.000    0.000    0.000    0.000 
#    0.000    0.000    0.000    3.364    0.000    0.000 
#
# Total GULP energy -245122.502257 kJ/mol
# GULP energy per Si atom -5570.965960 kJ/mol
# Density = 1.361475 g / cm^3
# Si number density = 13.645812 Si / 1000 Ang^3
#
#
#
# Elastic Constant Matrix: (Units=GPa)
#
#
# Indices 1 2 3 4 5 6 
#
# 1 106.8734 53.3242 61.3117 0.0000 0.0000 0.0000
# 2 53.3242 78.7935 52.4523 0.0000 0.0000 0.0000
# 3 61.3117 52.4523 100.9721 0.0000 0.0000 0.0000
# 4 0.0000 0.0000 0.0000 16.8987 0.0000 0.0000
# 5 0.0000 0.0000 0.0000 0.0000 17.3065 0.0000
# 6 0.0000 0.0000 0.0000 0.0000 0.0000 12.5852
#
#
#
# Elastic Compliance Matrix: (Units=1/GPa)
#
#
# Indices 1 2 3 4 5 6 
#
# 1 0.016475 -0.006864 -0.006438 0.000000 0.000000 0.000000
# 2 -0.006864 0.022260 -0.007396 0.000000 0.000000 0.000000
# 3 -0.006438 -0.007396 0.017655 0.000000 0.000000 0.000000
# 4 0.000000 0.000000 0.000000 0.059176 0.000000 0.000000
# 5 0.000000 0.000000 0.000000 0.000000 0.057782 0.000000
# 6 0.000000 0.000000 0.000000 0.000000 0.000000 0.079458
#
#
# Mechanical properties :
#
#
# Convention : Reuss Voigt Hill
#
# Bulk Modulus (GPa) = 66.69136 68.97951 67.83543
# Shear Modulus (GPa) = 16.71127 17.32814 17.01971
#
# Velocity S-wave (km/s) = 3.50329 3.56736 3.53547
# Velocity P-wave (km/s) = 8.08352 8.22361 8.15387
#
# Compressibility (1/GPa) = 0.01499445
#
# Stress axis : x y z
#
# Youngs Moduli (GPa) = 60.69764 44.92436 56.64108
#
# Poissons Ratio (x) = 0.30835 0.36468
# Poissons Ratio (y) = 0.41661 0.41889
# Poissons Ratio (z) = 0.39080 0.33224
#
# Static dielectric constant tensor:
#      x y z
#    x 1.433730 0.000000 0.000000 
#    y 0.000000 1.446680 0.000000 
#    z 0.000000 0.000000 1.437540 
# 
# From -- ./inp_files/34718.got.cif
#   From: 2010.05.17/outbox.cif.g08.bks.cpg/sg71_18_cif.got.tgz:34718.got - 2010.06.03 16:22:01.
