data_PCOD9517685
_publ_section_title
;
Structure prediction by ZEFSAII (Michael W. Deem and Ramdas Pophale) SiO2 
 PCOD9517685
Probable space group: I M M M
;
_chemical_formula_sum "Si O2"
_cell_formula_units_Z 120
_cell_length_a 22.941466
_cell_length_b 23.148165
_cell_length_c 13.777317
_cell_angle_alpha 90.000000
_cell_angle_beta 90.000000
_cell_angle_gamma 90.000000
_cell_volume 7316.483325
_symmetry_space_group_name_H-M "I M M M"
_symmetry_group_IT_number 71
_symmetry_cell_setting 'orthorhombic'
loop_
_space_group_symop_operation_xyz
x,y,z
-x,-y,z
x,-y,-z
-x,y,-z
-x,-y,-z
x,y,-z
-x,y,z
x,-y,z
1/2+x,1/2+y,1/2+z
1/2-x,1/2-y,1/2+z
1/2+x,1/2-y,1/2-z
1/2-x,1/2+y,1/2-z
1/2-x,1/2-y,1/2-z
1/2+x,1/2+y,1/2-z
1/2-x,1/2+y,1/2+z
1/2+x,1/2-y,1/2+z
loop_
_atom_site_type_symbol
_atom_site_label
_atom_site_fract_x
_atom_site_fract_y
_atom_site_fract_z
Si Si1 0.111951 0.565189 0.197668
Si Si2 0.706252 0.644385 0.615430
Si Si3 0.930762 0.000000 0.614690
Si Si4 0.844213 0.936534 0.261029
Si Si5 0.321025 0.932586 0.111520
Si Si6 0.765449 0.397628 0.884734
Si Si7 0.936324 0.319492 0.117184
Si Si8 0.687952 0.774151 0.382438
O O1 0.089721 0.500000 0.186891
O O2 0.128641 0.576838 0.309891
O O3 0.174403 0.570975 0.143372
O O4 0.072146 0.615451 0.155486
O O5 0.693528 0.641905 0.500000
O O6 0.657629 0.612224 0.679498
O O7 0.766266 0.609066 0.630821
O O8 0.710798 0.711298 0.645351
O O9 0.900211 0.054022 0.669985
O O10 0.916801 0.000000 0.500000
O O11 0.000000 0.000000 0.625982
O O12 0.789168 0.924433 0.330177
O O13 0.836345 0.000000 0.213971
O O14 0.302993 0.000000 0.122133
O O15 0.339424 0.923992 0.000000
O O16 0.775173 0.330593 0.854280
O O17 0.757303 0.400553 0.000000
O O18 0.878964 0.284545 0.150016
O O19 0.000000 0.296929 0.146435
O O20 0.934407 0.321021 0.000000
O O21 0.687549 0.775271 0.500000
#
# Coordination Sequence:
#
# PCOD9517685 Si02
#       8
#    16  16   8  16  16  16  16  16
#     4  10  18  28  44  70  99 125 158 197 240 291
#     4  10  18  31  49  73 103 130 161 198 243 295
#     4   9  20  38  55  71  97 131 165 201 243 294
#     4  10  20  30  49  76  95 126 166 197 244 295
#     4   9  17  29  45  67  99 133 158 188 238 298
#     4  10  18  29  44  69 103 128 156 199 244 290
#     4   9  18  33  49  66  93 129 165 198 239 291
#     4   8  17  31  47  69  97 131 162 199 246 288
#
# _framework density 16.401323000000001
#
# number of rings (size 3 to 8) (size 9 to 14) (size 15 to 20)
#    0.400    2.200    1.333    2.400    0.000    3.200 
#    0.000    1.333    0.000    2.000    0.000    1.867 
#    0.000    0.000    0.000    0.000    0.000    0.000 
#
# Total GULP energy -334088.271147 kJ/mol
# GULP energy per Si atom -5568.137852 kJ/mol
# Density = 1.636399 g / cm^3
# Si number density = 16.401323 Si / 1000 Ang^3
#
#
#
# Elastic Constant Matrix: (Units=GPa)
#
#
# Indices 1 2 3 4 5 6 
#
# 1 33.7151 -6.9982 -10.0808 0.0000 0.0000 0.0000
# 2 -6.9982 62.1806 -7.7979 0.0000 0.0000 0.0000
# 3 -10.0808 -7.7979 36.0328 0.0000 0.0000 0.0000
# 4 0.0000 0.0000 0.0000 21.7815 0.0000 0.0000
# 5 0.0000 0.0000 0.0000 0.0000 16.9873 0.0000
# 6 0.0000 0.0000 0.0000 0.0000 0.0000 10.7001
#
#
#
# Elastic Compliance Matrix: (Units=1/GPa)
#
#
# Indices 1 2 3 4 5 6 
#
# 1 0.033896 0.005144 0.010596 0.000000 0.000000 0.000000
# 2 0.005144 0.017311 0.005185 0.000000 0.000000 0.000000
# 3 0.010596 0.005185 0.031839 0.000000 0.000000 0.000000
# 4 0.000000 0.000000 0.000000 0.045910 0.000000 0.000000
# 5 0.000000 0.000000 0.000000 0.000000 0.058868 0.000000
# 6 0.000000 0.000000 0.000000 0.000000 0.000000 0.093457
#
#
# Mechanical properties :
#
#
# Convention : Reuss Voigt Hill
#
# Bulk Modulus (GPa) = 8.00655 9.13051 8.56853
# Shear Modulus (GPa) = 17.78958 20.34748 19.06853
#
# Velocity S-wave (km/s) = 3.29696 3.52604 3.41342
# Velocity P-wave (km/s) = 4.40290 4.70704 4.55751
#
# Compressibility (1/GPa) = 0.12489769
#
# Stress axis : x y z
#
# Youngs Moduli (GPa) = 29.50176 57.76539 31.40785
#
# Poissons Ratio (x) = -0.29713 -0.33280
# Poissons Ratio (y) = -0.15175 -0.16286
# Poissons Ratio (z) = -0.31261 -0.29954
#
# Static dielectric constant tensor:
#      x y z
#    x 1.539940 0.000000 0.000000 
#    y 0.000000 1.565890 0.000000 
#    z 0.000000 0.000000 1.574310 
# 
# From -- ./inp_files/39659.got.cif
#   From: 2010.05.17/outbox.cif.g08.bks.cpg/sg71_20_cif.got.tgz:39659.got - 2010.06.03 16:22:01.
