data_PCOD9517560
_publ_section_title
;
Structure prediction by ZEFSAII (Michael W. Deem and Ramdas Pophale) SiO2 
 PCOD9517560
Probable space group: I M M M
;
_chemical_formula_sum "Si O2"
_cell_formula_units_Z 112
_cell_length_a 13.590233
_cell_length_b 18.850979
_cell_length_c 26.455995
_cell_angle_alpha 90.000000
_cell_angle_beta 90.000000
_cell_angle_gamma 90.000000
_cell_volume 6777.740112
_symmetry_space_group_name_H-M "I M M M"
_symmetry_group_IT_number 71
_symmetry_cell_setting 'orthorhombic'
loop_
_space_group_symop_operation_xyz
x,y,z
-x,-y,z
x,-y,-z
-x,y,-z
-x,-y,-z
x,y,-z
-x,y,z
x,-y,z
1/2+x,1/2+y,1/2+z
1/2-x,1/2-y,1/2+z
1/2+x,1/2-y,1/2-z
1/2-x,1/2+y,1/2-z
1/2-x,1/2-y,1/2-z
1/2+x,1/2+y,1/2-z
1/2-x,1/2+y,1/2+z
1/2+x,1/2-y,1/2+z
loop_
_atom_site_type_symbol
_atom_site_label
_atom_site_fract_x
_atom_site_fract_y
_atom_site_fract_z
Si Si1 0.381690 0.923769 0.753717
Si Si2 0.118765 0.730031 0.250700
Si Si3 0.380154 0.651081 0.442575
Si Si4 0.380993 0.500000 0.716835
Si Si5 0.618592 0.776190 0.367924
Si Si6 0.295370 0.921597 0.640667
Si Si7 0.382307 0.379488 0.796819
Si Si8 0.620111 0.500000 0.398888
O O1 0.500000 0.924190 0.758369
O O2 0.347345 0.846308 0.772066
O O3 0.354259 0.923504 0.694269
O O4 0.345697 0.000000 0.774550
O O5 0.144118 0.736439 0.191200
O O6 0.146586 0.799669 0.281684
O O7 0.000000 0.729284 0.251810
O O8 0.349522 0.666228 0.500000
O O9 0.500000 0.650794 0.441703
O O10 0.348866 0.711022 0.402846
O O11 0.348321 0.572471 0.425820
O O12 0.500000 0.500000 0.713920
O O13 0.356212 0.430907 0.749826
O O14 0.347311 0.500000 0.659365
O O15 0.500000 0.781027 0.370211
O O16 0.663178 0.851374 0.385547
O O17 0.182742 0.907108 0.656914
O O18 0.306167 0.000000 0.617508
O O19 0.500000 0.383709 0.804990
O O20 0.500000 0.500000 0.399670
#
# Coordination Sequence:
#
# PCOD9517560 Si02
#       8
#    16  16  16   8  16  16  16   8
#     4   8  14  24  36  50  68  91 126 171 205 232
#     4   8  14  24  37  52  72 100 133 167 203 239
#     4   9  16  26  41  62  87 112 139 172 209 250
#     4   9  16  25  36  51  79 111 136 172 211 240
#     4   9  17  28  41  59  82 109 142 176 207 242
#     4  10  18  27  40  56  74 103 143 178 213 249
#     4  10  18  27  38  55  79 107 140 178 215 250
#     4   9  15  24  41  62  84 115 149 171 197 245
#
# _framework density 16.524681000000001
#
# number of rings (size 3 to 8) (size 9 to 14) (size 15 to 20)
#    0.000    3.000    0.714    2.357    0.000    7.429 
#    0.000    0.000    0.000    0.429    0.000    2.000 
#    0.000    0.571    0.000    1.286    0.000    4.143 
#
# Total GULP energy -311827.265894 kJ/mol
# GULP energy per Si atom -5568.344034 kJ/mol
# Density = 1.648707 g / cm^3
# Si number density = 16.524681 Si / 1000 Ang^3
#
#
#
# Elastic Constant Matrix: (Units=GPa)
#
#
# Indices 1 2 3 4 5 6 
#
# 1 46.1499 9.7045 4.8189 0.0000 0.0000 0.0000
# 2 9.7045 130.2099 8.6334 0.0000 0.0000 0.0000
# 3 4.8189 8.6334 19.1772 0.0000 0.0000 0.0000
# 4 0.0000 0.0000 0.0000 7.7951 0.0000 0.0000
# 5 0.0000 0.0000 0.0000 0.0000 6.6175 0.0000
# 6 0.0000 0.0000 0.0000 0.0000 0.0000 19.7512
#
#
#
# Elastic Compliance Matrix: (Units=1/GPa)
#
#
# Indices 1 2 3 4 5 6 
#
# 1 0.022477 -0.001341 -0.005045 0.000000 0.000000 0.000000
# 2 -0.001341 0.007996 -0.003263 0.000000 0.000000 0.000000
# 3 -0.005045 -0.003263 0.054882 0.000000 0.000000 0.000000
# 4 0.000000 0.000000 0.000000 0.128285 0.000000 0.000000
# 5 0.000000 0.000000 0.000000 0.000000 0.151114 0.000000
# 6 0.000000 0.000000 0.000000 0.000000 0.000000 0.050630
#
#
# Mechanical properties :
#
#
# Convention : Reuss Voigt Hill
#
# Bulk Modulus (GPa) = 15.13804 26.87229 21.00516
# Shear Modulus (GPa) = 10.94810 18.32479 14.63644
#
# Velocity S-wave (km/s) = 2.57676 3.33368 2.97935
# Velocity P-wave (km/s) = 4.24661 5.57809 4.95726
#
# Compressibility (1/GPa) = 0.06605877
#
# Stress axis : x y z
#
# Youngs Moduli (GPa) = 44.48951 125.05984 18.22099
#
# Poissons Ratio (x) = 0.16767 0.09192
# Poissons Ratio (y) = 0.05965 0.05945
# Poissons Ratio (z) = 0.22443 0.40805
#
# Static dielectric constant tensor:
#      x y z
#    x 1.592890 0.000000 0.000000 
#    y 0.000000 1.623540 0.000000 
#    z 0.000000 0.000000 1.512230 
# 
# From -- ./inp_files/70204.got.cif
#   From: 2010.05.17/outbox.cif.g08.bks.cpg/sg71_36_cif.got.tgz:70204.got - 2010.06.03 16:22:01.
