data_PCOD9517470
_publ_section_title
;
Structure prediction by ZEFSAII (Michael W. Deem and Ramdas Pophale) SiO2 
 PCOD9517470
Probable space group: I M M M
;
_chemical_formula_sum "Si O2"
_cell_formula_units_Z 88
_cell_length_a 20.320008
_cell_length_b 7.458182
_cell_length_c 28.467838
_cell_angle_alpha 90.000000
_cell_angle_beta 90.000000
_cell_angle_gamma 90.000000
_cell_volume 4314.309899
_symmetry_space_group_name_H-M "I M M M"
_symmetry_group_IT_number 71
_symmetry_cell_setting 'orthorhombic'
loop_
_space_group_symop_operation_xyz
x,y,z
-x,-y,z
x,-y,-z
-x,y,-z
-x,-y,-z
x,y,-z
-x,y,z
x,-y,z
1/2+x,1/2+y,1/2+z
1/2-x,1/2-y,1/2+z
1/2+x,1/2-y,1/2-z
1/2-x,1/2+y,1/2-z
1/2-x,1/2-y,1/2-z
1/2+x,1/2+y,1/2-z
1/2-x,1/2+y,1/2+z
1/2+x,1/2-y,1/2+z
loop_
_atom_site_type_symbol
_atom_site_label
_atom_site_fract_x
_atom_site_fract_y
_atom_site_fract_z
Si Si1 0.671738 0.714882 0.582942
Si Si2 0.924137 0.780478 0.000000
Si Si3 0.317179 0.218808 0.946712
Si Si4 0.574446 0.780098 0.128113
Si Si5 0.153336 0.293466 0.285502
Si Si6 0.701851 0.212715 0.686988
O O1 0.672697 0.500000 0.578558
O O2 0.616330 0.777772 0.546405
O O3 0.744250 0.780072 0.567864
O O4 0.665189 0.755526 0.638096
O O5 0.000000 0.722674 0.000000
O O6 0.924519 0.000000 0.000000
O O7 0.373230 0.278027 0.910892
O O8 0.316063 0.000000 0.945458
O O9 0.330958 0.272428 0.000000
O O10 0.500000 0.725574 0.118540
O O11 0.600401 0.716318 0.178770
O O12 0.575908 0.000000 0.128556
O O13 0.134368 0.500000 0.277930
O O14 0.224126 0.289734 0.311956
O O15 0.165722 0.215698 0.233743
O O16 0.710419 0.000000 0.692955
#
# Coordination Sequence:
#
# PCOD9517470 Si02
#       6
#    16   8  16  16  16  16
#     4  10  17  30  52  73  97 127 158 200 245 287
#     4   9  18  32  53  79 100 126 167 206 245 298
#     4   9  15  24  42  69  95 120 155 195 236 275
#     4   9  16  26  43  67  96 127 157 192 234 281
#     4   9  17  31  48  68  96 128 163 200 242 288
#     4  10  19  29  47  74  98 122 161 207 244 284
#
# _framework density 20.397237000000001
#
# number of rings (size 3 to 8) (size 9 to 14) (size 15 to 20)
#    0.000    2.636    2.727    0.545    0.000    1.091 
#    0.000    3.182    0.000    2.727    0.000    0.000 
#    0.000    1.455    0.000    0.000    0.000    0.000 
#
# Total GULP energy -245508.657293 kJ/mol
# GULP energy per Si atom -5579.742211 kJ/mol
# Density = 2.035081 g / cm^3
# Si number density = 20.397237 Si / 1000 Ang^3
#
#
#
# Elastic Constant Matrix: (Units=GPa)
#
#
# Indices 1 2 3 4 5 6 
#
# 1 150.6500 3.8456 92.1922 0.0000 0.0000 0.0000
# 2 3.8456 61.7139 -2.2283 0.0000 0.0000 0.0000
# 3 92.1922 -2.2283 169.4976 0.0000 0.0000 0.0000
# 4 0.0000 0.0000 0.0000 9.8211 0.0000 0.0000
# 5 0.0000 0.0000 0.0000 0.0000 31.2577 0.0000
# 6 0.0000 0.0000 0.0000 0.0000 0.0000 -1.3414
#
#
#
# Elastic Compliance Matrix: (Units=1/GPa)
#
#
# Indices 1 2 3 4 5 6 
#
# 1 0.009991 -0.000819 -0.005445 0.000000 0.000000 0.000000
# 2 -0.000819 0.016279 0.000660 0.000000 0.000000 0.000000
# 3 -0.005445 0.000660 0.008870 0.000000 0.000000 0.000000
# 4 0.000000 0.000000 0.000000 0.101822 0.000000 0.000000
# 5 0.000000 0.000000 0.000000 0.000000 0.031992 0.000000
# 6 0.000000 0.000000 0.000000 0.000000 0.000000 -0.745513
#
#
# Mechanical properties :
#
#
# Convention : Reuss Voigt Hill
#
# Bulk Modulus (GPa) = 41.78769 63.27562 52.53166
# Shear Modulus (GPa) = -8.97064 27.15094 9.09015
#
# Velocity S-wave (km/s) = -2.09941 3.65239 2.11335
# Velocity P-wave (km/s) = 3.82815 6.99111 5.63606
#
# Compressibility (1/GPa) = 0.02393049
#
# Stress axis : x y z
#
# Youngs Moduli (GPa) = 100.09070 61.43007 112.73875
#
# Poissons Ratio (x) = 0.05032 0.61386
# Poissons Ratio (y) = 0.08199 -0.07436
# Poissons Ratio (z) = 0.54499 -0.04052
#
# Static dielectric constant tensor:
#      x y z
#    x 1.683380 0.000000 0.000000 
#    y 0.000000 1.873810 0.000000 
#    z 0.000000 0.000000 1.735820 
# 
# From -- ./inp_files/70355.got.cif
#   From: 2010.05.17/outbox.cif.g08.bks.cpg/sg71_36_cif.got.tgz:70355.got - 2010.06.03 16:22:01.
