data_PCOD9517170
_publ_section_title
;
Structure prediction by ZEFSAII (Michael W. Deem and Ramdas Pophale) SiO2 
 PCOD9517170
Probable space group: F D D D
;
_chemical_formula_sum "Si O2"
_cell_formula_units_Z 40
_cell_length_a 21.000000
_cell_length_b 18.000000
_cell_length_c 21.000000
_cell_angle_alpha 90.000000
_cell_angle_beta 90.000000
_cell_angle_gamma 90.000000
_cell_volume 7938.000000
_symmetry_space_group_name_H-M "F D D D"
_symmetry_group_IT_number 70
_space_group.IT_coordinate_system_code '2'
_symmetry_cell_setting 'orthorhombic'
loop_
_space_group_symop_operation_xyz
x,y,z
1/4-x,1/4-y,z
x,1/4-y,1/4-z
1/4-x,y,1/4-z
-x,-y,-z
3/4+x,3/4+y,-z
-x,3/4+y,3/4+z
3/4+x,-y,3/4+z
x,1/2+y,1/2+z
1/4-x,3/4-y,1/2+z
x,3/4-y,3/4-z
1/4-x,1/2+y,3/4-z
-x,1/2-y,1/2-z
3/4+x,1/4+y,1/2-z
-x,1/4+y,1/4+z
3/4+x,1/2-y,1/4+z
1/2+x,y,1/2+z
3/4-x,1/4-y,1/2+z
1/2+x,1/4-y,3/4-z
3/4-x,y,3/4-z
1/2-x,-y,1/2-z
1/4+x,3/4+y,1/2-z
1/2-x,3/4+y,1/4+z
1/4+x,-y,1/4+z
1/2+x,1/2+y,z
3/4-x,3/4-y,z
1/2+x,3/4-y,1/4-z
3/4-x,1/2+y,1/4-z
1/2-x,1/2-y,-z
1/4+x,1/4+y,-z
1/2-x,1/4+y,3/4+z
1/4+x,1/2-y,3/4+z
loop_
_atom_site_type_symbol
_atom_site_label
_atom_site_fract_x
_atom_site_fract_y
_atom_site_fract_z
Si Si1 0.867976 0.088611 0.946276
Si Si2 0.011048 0.134823 0.739940
Si Si3 0.910978 0.297299 0.526685
Si Si4 0.947524 0.222046 0.999143
Si Si5 0.422523 0.503437 0.578338
O O1 0.875000 0.060645 0.875000
O O2 0.796099 0.115181 0.961029
O O3 0.913652 0.159913 0.955511
O O4 0.877897 0.021065 0.995527
O O5 0.972809 0.179949 0.685297
O O6 0.057598 0.190305 0.777208
O O7 0.044948 0.056939 0.723014
O O8 0.875000 0.375000 0.523628
O O9 0.925175 0.275921 0.600118
O O10 0.979362 0.301797 0.491322
O O11 0.899745 0.224567 0.059538
#
# Coordination Sequence:
#
# PCOD9517170 Si02
#       5
#    32  32  32  32  32
#     4  10  22  39  57  84 122 163 211 266 319 376
#     4   9  19  36  63  93 125 157 199 260 324 396
#     4  11  24  41  63  88 121 168 220 268 316 379
#     4  10  21  37  60  90 122 160 204 254 320 384
#     4  10  20  39  64  94 128 163 205 259 324 389
#
# _framework density 5.039053
#
# number of rings (size 3 to 8) (size 9 to 14) (size 15 to 20)
#    0.000    2.000    0.000    3.000    0.000   10.000 
#    0.000    6.000    0.000    0.000    0.000    0.000 
#    0.000    0.000    0.000    0.000    0.000    0.000 
#
# Total GULP energy -223270.607730 kJ/mol
# GULP energy per Si atom -5581.765193 kJ/mol
# Density = 0.502758 g / cm^3
# Si number density = 5.039053 Si / 1000 Ang^3
#
#
#
# Elastic Constant Matrix: (Units=GPa)
#
#
# Indices 1 2 3 4 5 6 
#
# 1 82.8132 66.2281 32.8939 0.0000 0.0000 0.0000
# 2 66.2281 135.0013 59.7699 0.0000 0.0000 0.0000
# 3 32.8939 59.7699 64.1320 0.0000 0.0000 0.0000
# 4 0.0000 0.0000 0.0000 21.2770 0.0000 0.0000
# 5 0.0000 0.0000 0.0000 0.0000 4.3971 0.0000
# 6 0.0000 0.0000 0.0000 0.0000 0.0000 41.8518
#
#
#
# Elastic Compliance Matrix: (Units=1/GPa)
#
#
# Indices 1 2 3 4 5 6 
#
# 1 0.020006 -0.008975 -0.001897 0.000000 0.000000 0.000000
# 2 -0.008975 0.016637 -0.010902 0.000000 0.000000 0.000000
# 3 -0.001897 -0.010902 0.026726 0.000000 0.000000 0.000000
# 4 0.000000 0.000000 0.000000 0.046999 0.000000 0.000000
# 5 0.000000 0.000000 0.000000 0.000000 0.227421 0.000000
# 6 0.000000 0.000000 0.000000 0.000000 0.000000 0.023894
#
#
# Mechanical properties :
#
#
# Convention : Reuss Voigt Hill
#
# Bulk Modulus (GPa) = 50.44961 66.63668 58.54315
# Shear Modulus (GPa) = 12.14069 21.70882 16.92476
#
# Velocity S-wave (km/s) = 2.45690 3.28537 2.90087
# Velocity P-wave (km/s) = 5.75605 6.89373 6.35042
#
# Compressibility (1/GPa) = 0.01982176
#
# Stress axis : x y z
#
# Youngs Moduli (GPa) = 49.98467 60.10804 37.41612
#
# Poissons Ratio (x) = 0.53944 0.07099
# Poissons Ratio (y) = 0.44859 0.40791
# Poissons Ratio (z) = 0.09483 0.65530
#
# Static dielectric constant tensor:
#      x y z
#    x 1.721090 0.000000 0.000000 
#    y 0.000000 1.747330 0.000000 
#    z 0.000000 0.000000 1.679810 
# 
# From -- ./inp_files/44732.got.cif
#   From: 2010.05.17/outbox.ucp.g08.bks.cvg/sg70_23_cif.got.tgz:44732.got - 2010.06.11 16:26:41.
