data_PCOD9517998
_publ_section_title
;
Structure prediction by ZEFSAII (Michael W. Deem and Ramdas Pophale) SiO2 
 PCOD9517998
Probable space group: I M M M
;
_chemical_formula_sum "Si O2"
_cell_formula_units_Z 104
_cell_length_a 9.362438
_cell_length_b 27.387151
_cell_length_c 24.484197
_cell_angle_alpha 90.000000
_cell_angle_beta 90.000000
_cell_angle_gamma 90.000000
_cell_volume 6278.005274
_symmetry_space_group_name_H-M "I M M M"
_symmetry_group_IT_number 71
_symmetry_cell_setting 'orthorhombic'
loop_
_space_group_symop_operation_xyz
x,y,z
-x,-y,z
x,-y,-z
-x,y,-z
-x,-y,-z
x,y,-z
-x,y,z
x,-y,z
1/2+x,1/2+y,1/2+z
1/2-x,1/2-y,1/2+z
1/2+x,1/2-y,1/2-z
1/2-x,1/2+y,1/2-z
1/2-x,1/2-y,1/2-z
1/2+x,1/2+y,1/2-z
1/2-x,1/2+y,1/2+z
1/2+x,1/2-y,1/2+z
loop_
_atom_site_type_symbol
_atom_site_label
_atom_site_fract_x
_atom_site_fract_y
_atom_site_fract_z
Si Si1 0.828597 0.585762 0.854345
Si Si2 0.325286 0.000000 0.435818
Si Si3 0.663981 0.056488 0.231716
Si Si4 0.840967 0.442897 0.565089
Si Si5 0.668082 0.207862 0.182326
Si Si6 0.332036 0.618217 0.644706
Si Si7 0.329853 0.191429 0.688509
O O1 0.778049 0.549042 0.902411
O O2 0.802823 0.560483 0.795822
O O3 0.782270 0.642149 0.843366
O O4 0.000000 0.588844 0.861383
O O5 0.500000 0.000000 0.434317
O O6 0.283879 0.000000 0.500000
O O7 0.500000 0.074606 0.224617
O O8 0.771327 0.087269 0.195630
O O9 0.667809 0.000000 0.215367
O O10 0.839060 0.438568 0.500000
O O11 0.825158 0.500000 0.578500
O O12 0.718388 0.411943 0.592431
O O13 0.000000 0.427621 0.584800
O O14 0.500000 0.209606 0.171454
O O15 0.750931 0.169402 0.145606
O O16 0.686037 0.189062 0.245344
O O17 0.738972 0.260757 0.174575
O O18 0.500000 0.624516 0.648368
O O19 0.500000 0.198463 0.678503
#
# Coordination Sequence:
#
# PCOD9517998 Si02
#       7
#    16   8  16  16  16  16  16
#     4   9  15  27  46  69 101 137 168 203 254 311
#     4   9  16  26  46  78 109 137 174 215 252 299
#     4  10  18  30  48  69  98 138 176 206 249 310
#     4   9  19  37  58  76  97 133 178 213 245 297
#     4  10  19  32  50  71  98 133 174 213 256 315
#     4  12  23  32  47  74 108 137 167 212 262 305
#     4   9  17  30  48  70  99 135 171 212 260 311
#
# _framework density 16.565771000000002
#
# number of rings (size 3 to 8) (size 9 to 14) (size 15 to 20)
#    0.000    2.231    2.308    2.769    0.000    3.385 
#    0.000    0.769    0.000    0.923    0.000    2.154 
#    0.000    4.308    0.000    0.000    0.000    0.000 
#
# Total GULP energy -289752.824171 kJ/mol
# GULP energy per Si atom -5572.169696 kJ/mol
# Density = 1.652807 g / cm^3
# Si number density = 16.565771 Si / 1000 Ang^3
#
#
#
# Elastic Constant Matrix: (Units=GPa)
#
#
# Indices 1 2 3 4 5 6 
#
# 1 65.3388 49.7699 22.9616 0.0000 0.0000 0.0000
# 2 49.7699 122.7537 45.7709 0.0000 0.0000 0.0000
# 3 22.9616 45.7709 72.3958 0.0000 0.0000 0.0000
# 4 0.0000 0.0000 0.0000 68.5139 0.0000 0.0000
# 5 0.0000 0.0000 0.0000 0.0000 1.5871 0.0000
# 6 0.0000 0.0000 0.0000 0.0000 0.0000 25.2920
#
#
#
# Elastic Compliance Matrix: (Units=1/GPa)
#
#
# Indices 1 2 3 4 5 6 
#
# 1 0.022317 -0.008386 -0.001776 0.000000 0.000000 0.000000
# 2 -0.008386 0.013810 -0.006072 0.000000 0.000000 0.000000
# 3 -0.001776 -0.006072 0.018215 0.000000 0.000000 0.000000
# 4 0.000000 0.000000 0.000000 0.014596 0.000000 0.000000
# 5 0.000000 0.000000 0.000000 0.000000 0.630090 0.000000
# 6 0.000000 0.000000 0.000000 0.000000 0.000000 0.039538
#
#
# Mechanical properties :
#
#
# Convention : Reuss Voigt Hill
#
# Bulk Modulus (GPa) = 45.71538 55.27701 50.49620
# Shear Modulus (GPa) = 6.42405 28.54433 17.48419
#
# Velocity S-wave (km/s) = 1.97138 4.15552 3.25228
# Velocity P-wave (km/s) = 5.73044 7.51432 6.68218
#
# Compressibility (1/GPa) = 0.02187448
#
# Stress axis : x y z
#
# Youngs Moduli (GPa) = 44.80924 72.40962 54.89984
#
# Poissons Ratio (x) = 0.60722 0.09752
# Poissons Ratio (y) = 0.37577 0.33333
# Poissons Ratio (z) = 0.07960 0.43964
#
# Static dielectric constant tensor:
#      x y z
#    x 1.547330 0.000000 0.000000 
#    y 0.000000 1.587600 0.000000 
#    z 0.000000 0.000000 1.563220 
# 
# From -- ./inp_files/58220.got.cif
#   From: 2010.05.17/outbox.cif.g08.bks.cpg/sg71_30_cif.got.tgz:58220.got - 2010.06.03 16:22:01.
