data_PCOD9517515
_publ_section_title
;
Structure prediction by ZEFSAII (Michael W. Deem and Ramdas Pophale) SiO2 
 PCOD9517515
Probable space group: I M M M
;
_chemical_formula_sum "Si O2"
_cell_formula_units_Z 36
_cell_length_a 7.411233
_cell_length_b 19.038965
_cell_length_c 14.678846
_cell_angle_alpha 90.000000
_cell_angle_beta 90.000000
_cell_angle_gamma 90.000000
_cell_volume 2071.217548
_symmetry_space_group_name_H-M "I M M M"
_symmetry_group_IT_number 71
_symmetry_cell_setting 'orthorhombic'
loop_
_space_group_symop_operation_xyz
x,y,z
-x,-y,z
x,-y,-z
-x,y,-z
-x,-y,-z
x,y,-z
-x,y,z
x,-y,z
1/2+x,1/2+y,1/2+z
1/2-x,1/2-y,1/2+z
1/2+x,1/2-y,1/2-z
1/2-x,1/2+y,1/2-z
1/2-x,1/2-y,1/2-z
1/2+x,1/2+y,1/2-z
1/2-x,1/2+y,1/2+z
1/2+x,1/2-y,1/2+z
loop_
_atom_site_type_symbol
_atom_site_label
_atom_site_fract_x
_atom_site_fract_y
_atom_site_fract_z
Si Si1 0.284580 0.824991 0.798110
Si Si2 0.000000 0.083495 0.693999
Si Si3 0.705089 0.203580 0.000000
Si Si4 0.500000 0.342493 0.000000
O O1 0.500000 0.836975 0.797021
O O2 0.250000 0.750000 0.750000
O O3 0.218469 0.818839 0.903008
O O4 0.172989 0.883402 0.744739
O O5 0.000000 0.112290 0.590881
O O6 0.000000 0.000000 0.696554
O O7 0.500000 0.174319 0.000000
O O8 0.669053 0.287848 0.000000
#
# Coordination Sequence:
#
# PCOD9517515 Si02
#       4
#    16   8   8   4
#     4  11  19  37  62  87 117 154 203 246 286 351
#     4  12  25  39  58  91 127 158 190 242 310 359
#     4   8  16  32  61  90 109 143 206 248 284 330
#     4  10  17  38  62  86 117 154 190 256 293 350
#
# _framework density 17.381080999999998
#
# number of rings (size 3 to 8) (size 9 to 14) (size 15 to 20)
#    0.667    0.889    6.667    0.333    0.000    1.778 
#    0.000    5.556    0.000    6.667    0.000    0.000 
#    0.000    0.000    0.000    0.000    0.000    0.000 
#
# Total GULP energy -100298.684227 kJ/mol
# GULP energy per Si atom -5572.149124 kJ/mol
# Density = 1.734152 g / cm^3
# Si number density = 17.381081 Si / 1000 Ang^3
#
#
#
# Elastic Constant Matrix: (Units=GPa)
#
#
# Indices 1 2 3 4 5 6 
#
# 1 107.5569 47.4183 52.1106 0.0000 0.0000 0.0000
# 2 47.4183 137.0903 81.4006 0.0000 0.0000 0.0000
# 3 52.1106 81.4006 209.6680 0.0000 0.0000 0.0000
# 4 0.0000 0.0000 0.0000 11.6444 0.0000 0.0000
# 5 0.0000 0.0000 0.0000 0.0000 14.8060 0.0000
# 6 0.0000 0.0000 0.0000 0.0000 0.0000 23.6397
#
#
#
# Elastic Compliance Matrix: (Units=1/GPa)
#
#
# Indices 1 2 3 4 5 6 
#
# 1 0.011416 -0.002942 -0.001695 0.000000 0.000000 0.000000
# 2 -0.002942 0.010238 -0.003244 0.000000 0.000000 0.000000
# 3 -0.001695 -0.003244 0.006450 0.000000 0.000000 0.000000
# 4 0.000000 0.000000 0.000000 0.085878 0.000000 0.000000
# 5 0.000000 0.000000 0.000000 0.000000 0.067540 0.000000
# 6 0.000000 0.000000 0.000000 0.000000 0.000000 0.042302
#
#
# Mechanical properties :
#
#
# Convention : Reuss Voigt Hill
#
# Bulk Modulus (GPa) = 81.02170 90.68601 85.85386
# Shear Modulus (GPa) = 20.51710 28.24375 24.38042
#
# Velocity S-wave (km/s) = 3.43946 4.03547 3.74933
# Velocity P-wave (km/s) = 7.90502 8.60242 8.26108
#
# Compressibility (1/GPa) = 0.01234237
#
# Stress axis : x y z
#
# Youngs Moduli (GPa) = 87.59859 97.67486 155.03939
#
# Poissons Ratio (x) = 0.28737 0.26279
# Poissons Ratio (y) = 0.25773 0.50288
# Poissons Ratio (z) = 0.14848 0.31681
#
# Static dielectric constant tensor:
#      x y z
#    x 1.631060 0.000000 0.000000 
#    y 0.000000 1.542430 0.000000 
#    z 0.000000 0.000000 1.608930 
# 
# From -- ./inp_files/30749.got.cif
#   From: 2010.05.17/outbox.cif.g08.bks.cpg/sg71_16_cif.got.tgz:30749.got - 2010.06.03 16:22:01.
