data_PCOD9517259
_publ_section_title
;
Structure prediction by ZEFSAII (Michael W. Deem and Ramdas Pophale) SiO2 
 PCOD9517259
Probable space group: I M M M
;
_chemical_formula_sum "Si O2"
_cell_formula_units_Z 88
_cell_length_a 15.269488
_cell_length_b 18.730860
_cell_length_c 18.950971
_cell_angle_alpha 90.000000
_cell_angle_beta 90.000000
_cell_angle_gamma 90.000000
_cell_volume 5420.179382
_symmetry_space_group_name_H-M "I M M M"
_symmetry_group_IT_number 71
_symmetry_cell_setting 'orthorhombic'
loop_
_space_group_symop_operation_xyz
x,y,z
-x,-y,z
x,-y,-z
-x,y,-z
-x,-y,-z
x,y,-z
-x,y,z
x,-y,z
1/2+x,1/2+y,1/2+z
1/2-x,1/2-y,1/2+z
1/2+x,1/2-y,1/2-z
1/2-x,1/2+y,1/2-z
1/2-x,1/2-y,1/2-z
1/2+x,1/2+y,1/2-z
1/2-x,1/2+y,1/2+z
1/2+x,1/2-y,1/2+z
loop_
_atom_site_type_symbol
_atom_site_label
_atom_site_fract_x
_atom_site_fract_y
_atom_site_fract_z
Si Si1 0.345053 0.680251 0.418808
Si Si2 0.160078 0.726266 0.214136
Si Si3 0.358151 0.863543 0.920888
Si Si4 0.396416 0.921760 0.230258
Si Si5 0.500000 0.261578 0.078848
Si Si6 0.500000 0.585465 0.646249
Si Si7 0.000000 0.816715 0.275504
O O1 0.366185 0.697040 0.500000
O O2 0.346728 0.747886 0.366507
O O3 0.245392 0.651677 0.416343
O O4 0.414694 0.622160 0.389790
O O5 0.250000 0.750000 0.250000
O O6 0.147936 0.642923 0.228548
O O7 0.083127 0.769329 0.253140
O O8 0.383248 0.910400 0.853648
O O9 0.415994 0.791230 0.914109
O O10 0.377001 0.892148 0.000000
O O11 0.500000 0.917795 0.243844
O O12 0.363458 0.000000 0.250191
O O13 0.500000 0.319670 0.140286
O O14 0.500000 0.291284 0.000000
O O15 0.500000 0.500000 0.639661
O O16 0.500000 0.612655 0.727606
#
# Coordination Sequence:
#
# PCOD9517259 Si02
#       7
#    16  16  16  16   8   8   8
#     4  10  21  34  54  77  99 133 173 215 257 300
#     4  11  18  34  55  73 100 135 176 215 249 303
#     4  10  18  31  50  76 106 133 165 200 249 306
#     4  11  21  33  50  75 109 142 170 208 260 311
#     4  10  16  28  53  79 105 131 162 204 249 303
#     4  10  23  38  52  71 100 135 173 217 260 301
#     4  10  18  33  52  73  98 133 177 211 252 300
#
# _framework density 16.235624999999999
#
# number of rings (size 3 to 8) (size 9 to 14) (size 15 to 20)
#    0.000    1.636    5.455    0.273    0.000    1.818 
#    0.000    2.727    0.000    0.818    0.000    1.273 
#    0.000    7.636    0.000    0.000    0.000    1.091 
#
# Total GULP energy -245317.995061 kJ/mol
# GULP energy per Si atom -5575.408979 kJ/mol
# Density = 1.619867 g / cm^3
# Si number density = 16.235625 Si / 1000 Ang^3
#
#
#
# Elastic Constant Matrix: (Units=GPa)
#
#
# Indices 1 2 3 4 5 6 
#
# 1 101.2769 34.2350 31.1592 0.0000 0.0000 0.0000
# 2 34.2350 124.8004 68.0590 0.0000 0.0000 0.0000
# 3 31.1592 68.0590 124.5213 0.0000 0.0000 0.0000
# 4 0.0000 0.0000 0.0000 17.4058 0.0000 0.0000
# 5 0.0000 0.0000 0.0000 0.0000 21.8745 0.0000
# 6 0.0000 0.0000 0.0000 0.0000 0.0000 12.1682
#
#
#
# Elastic Compliance Matrix: (Units=1/GPa)
#
#
# Indices 1 2 3 4 5 6 
#
# 1 0.011099 -0.002180 -0.001586 0.000000 0.000000 0.000000
# 2 -0.002180 0.011843 -0.005928 0.000000 0.000000 0.000000
# 3 -0.001586 -0.005928 0.011667 0.000000 0.000000 0.000000
# 4 0.000000 0.000000 0.000000 0.057452 0.000000 0.000000
# 5 0.000000 0.000000 0.000000 0.000000 0.045715 0.000000
# 6 0.000000 0.000000 0.000000 0.000000 0.000000 0.082181
#
#
# Mechanical properties :
#
#
# Convention : Reuss Voigt Hill
#
# Bulk Modulus (GPa) = 65.69073 68.61166 67.15120
# Shear Modulus (GPa) = 20.45666 24.76607 22.61137
#
# Velocity S-wave (km/s) = 3.55348 3.90989 3.73594
# Velocity P-wave (km/s) = 7.57529 7.92052 7.74983
#
# Compressibility (1/GPa) = 0.01522285
#
# Stress axis : x y z
#
# Youngs Moduli (GPa) = 90.10103 84.43537 85.70830
#
# Poissons Ratio (x) = 0.18405 0.13592
# Poissons Ratio (y) = 0.19639 0.50806
# Poissons Ratio (z) = 0.14289 0.50051
#
# Static dielectric constant tensor:
#      x y z
#    x 1.554710 0.000000 0.000000 
#    y 0.000000 1.525120 0.000000 
#    z 0.000000 0.000000 1.568830 
# 
# From -- ./inp_files/36410.got.cif
#   From: 2010.05.17/outbox.cif.g08.bks.cpg/sg71_19_cif.got.tgz:36410.got - 2010.06.03 16:22:01.
