data_PCOD9517906
_publ_section_title
;
Structure prediction by ZEFSAII (Michael W. Deem and Ramdas Pophale) SiO2 
 PCOD9517906
Probable space group: I M M M
;
_chemical_formula_sum "Si O2"
_cell_formula_units_Z 104
_cell_length_a 23.450268
_cell_length_b 8.256931
_cell_length_c 27.507935
_cell_angle_alpha 90.000000
_cell_angle_beta 90.000000
_cell_angle_gamma 90.000000
_cell_volume 5326.285664
_symmetry_space_group_name_H-M "I M M M"
_symmetry_group_IT_number 71
_symmetry_cell_setting 'orthorhombic'
loop_
_space_group_symop_operation_xyz
x,y,z
-x,-y,z
x,-y,-z
-x,y,-z
-x,-y,-z
x,y,-z
-x,y,z
x,-y,z
1/2+x,1/2+y,1/2+z
1/2-x,1/2-y,1/2+z
1/2+x,1/2-y,1/2-z
1/2-x,1/2+y,1/2-z
1/2-x,1/2-y,1/2-z
1/2+x,1/2+y,1/2-z
1/2-x,1/2+y,1/2+z
1/2+x,1/2-y,1/2+z
loop_
_atom_site_type_symbol
_atom_site_label
_atom_site_fract_x
_atom_site_fract_y
_atom_site_fract_z
Si Si1 0.730101 0.694609 0.198094
Si Si2 0.168818 0.697270 0.872176
Si Si3 0.067904 0.813948 0.500000
Si Si4 0.563974 0.804633 0.694719
Si Si5 0.878607 0.310203 0.401393
Si Si6 0.759913 0.195567 0.444730
Si Si7 0.601247 0.693287 0.801842
O O1 0.727425 0.500000 0.193869
O O2 0.750000 0.750000 0.250000
O O3 0.779429 0.749376 0.162521
O O4 0.666192 0.756134 0.194054
O O5 0.164799 0.500000 0.873087
O O6 0.111226 0.753790 0.844692
O O7 0.197467 0.745841 0.923700
O O8 0.090328 0.729105 0.451750
O O9 0.000000 0.815479 0.500000
O O10 0.089498 0.000000 0.500000
O O11 0.500000 0.748630 0.682591
O O12 0.576423 0.759219 0.751175
O O13 0.565105 0.000000 0.692915
O O14 0.873915 0.500000 0.393482
O O15 0.814017 0.242819 0.410992
O O16 0.916350 0.238406 0.356746
O O17 0.768752 0.254133 0.500000
O O18 0.759929 0.000000 0.445187
O O19 0.599106 0.500000 0.797457
#
# Coordination Sequence:
#
# PCOD9517906 Si02
#       7
#    16  16   8  16  16  16  16
#     4  10  18  29  49  76 106 137 174 219 271 328
#     4   9  17  32  53  80 110 144 186 229 282 344
#     4  11  25  45  65  81 105 149 198 235 272 323
#     4  10  21  37  56  78 110 151 192 236 286 340
#     4  12  24  37  58  87 118 148 184 233 285 333
#     4  10  19  34  58  84 114 149 186 232 287 345
#     4  11  22  36  55  80 111 146 186 229 276 334
#
# _framework density 19.525801000000001
#
# number of rings (size 3 to 8) (size 9 to 14) (size 15 to 20)
#    0.000    1.615    3.846    2.077    0.000    2.154 
#    0.000    0.769    0.000    0.462    0.000    3.231 
#    0.000    0.000    0.000    2.769    0.000    3.077 
#
# Total GULP energy -289628.792841 kJ/mol
# GULP energy per Si atom -5569.784478 kJ/mol
# Density = 1.948136 g / cm^3
# Si number density = 19.525801 Si / 1000 Ang^3
#
#
#
# Elastic Constant Matrix: (Units=GPa)
#
#
# Indices 1 2 3 4 5 6 
#
# 1 97.2004 12.4220 23.0608 0.0000 0.0000 0.0000
# 2 12.4220 22.9272 1.8328 0.0000 0.0000 0.0000
# 3 23.0608 1.8328 70.3102 0.0000 0.0000 0.0000
# 4 0.0000 0.0000 0.0000 21.4226 0.0000 0.0000
# 5 0.0000 0.0000 0.0000 0.0000 14.8028 0.0000
# 6 0.0000 0.0000 0.0000 0.0000 0.0000 10.7030
#
#
#
# Elastic Compliance Matrix: (Units=1/GPa)
#
#
# Indices 1 2 3 4 5 6 
#
# 1 0.011972 -0.006185 -0.003765 0.000000 0.000000 0.000000
# 2 -0.006185 0.046903 0.000806 0.000000 0.000000 0.000000
# 3 -0.003765 0.000806 0.015437 0.000000 0.000000 0.000000
# 4 0.000000 0.000000 0.000000 0.046680 0.000000 0.000000
# 5 0.000000 0.000000 0.000000 0.000000 0.067555 0.000000
# 6 0.000000 0.000000 0.000000 0.000000 0.000000 0.093431
#
#
# Mechanical properties :
#
#
# Convention : Reuss Voigt Hill
#
# Bulk Modulus (GPa) = 17.85007 29.45213 23.65110
# Shear Modulus (GPa) = 15.67688 19.59382 17.63535
#
# Velocity S-wave (km/s) = 2.83659 3.17122 3.00856
# Velocity P-wave (km/s) = 4.45981 5.34091 4.92012
#
# Compressibility (1/GPa) = 0.05602220
#
# Stress axis : x y z
#
# Youngs Moduli (GPa) = 83.52939 21.32059 64.78079
#
# Poissons Ratio (x) = 0.13188 0.24392
# Poissons Ratio (y) = 0.51666 -0.05222
# Poissons Ratio (z) = 0.31452 -0.01719
#
# Static dielectric constant tensor:
#      x y z
#    x 1.731990 0.000000 0.000000 
#    y 0.000000 1.702310 0.000000 
#    z 0.000000 0.000000 1.775880 
# 
# From -- ./inp_files/66830.got.cif
#   From: 2010.05.17/outbox.cif.g08.bks.cpg/sg71_34_cif.got.tgz:66830.got - 2010.06.03 16:22:01.
