data_PCOD9517251
_publ_section_title
;
Structure prediction by ZEFSAII (Michael W. Deem and Ramdas Pophale) SiO2 
 PCOD9517251
Probable space group: I M M M
;
_chemical_formula_sum "Si O2"
_cell_formula_units_Z 96
_cell_length_a 18.086191
_cell_length_b 20.477587
_cell_length_c 16.764477
_cell_angle_alpha 90.000000
_cell_angle_beta 90.000000
_cell_angle_gamma 90.000000
_cell_volume 6208.917682
_symmetry_space_group_name_H-M "I M M M"
_symmetry_group_IT_number 71
_symmetry_cell_setting 'orthorhombic'
loop_
_space_group_symop_operation_xyz
x,y,z
-x,-y,z
x,-y,-z
-x,y,-z
-x,-y,-z
x,y,-z
-x,y,z
x,-y,z
1/2+x,1/2+y,1/2+z
1/2-x,1/2-y,1/2+z
1/2+x,1/2-y,1/2-z
1/2-x,1/2+y,1/2-z
1/2-x,1/2-y,1/2-z
1/2+x,1/2+y,1/2-z
1/2-x,1/2+y,1/2+z
1/2+x,1/2-y,1/2+z
loop_
_atom_site_type_symbol
_atom_site_label
_atom_site_fract_x
_atom_site_fract_y
_atom_site_fract_z
Si Si1 0.087164 0.217532 0.405204
Si Si2 0.087052 0.215319 0.000000
Si Si3 0.416818 0.624290 0.765827
Si Si4 0.190679 0.299911 0.709725
Si Si5 0.140600 0.928638 0.000000
Si Si6 0.914958 0.739059 0.832839
Si Si7 0.282098 0.571805 0.328918
O O1 0.098624 0.212324 0.500000
O O2 0.095830 0.149807 0.355894
O O3 0.145196 0.266548 0.362926
O O4 0.000000 0.236841 0.391922
O O5 0.093487 0.137204 0.000000
O O6 0.118580 0.245752 0.080686
O O7 0.000000 0.229681 0.000000
O O8 0.500000 0.597296 0.758318
O O9 0.414500 0.691576 0.713996
O O10 0.353034 0.580389 0.729052
O O11 0.250000 0.250000 0.750000
O O12 0.131496 0.310082 0.780054
O O13 0.230079 0.366424 0.685684
O O14 0.188683 0.925717 0.919682
O O15 0.102141 0.000000 0.000000
O O16 0.000000 0.718823 0.839511
O O17 0.248639 0.500000 0.315753
#
# Coordination Sequence:
#
# PCOD9517251 Si02
#       7
#    16   8  16  16   8  16  16
#     4   9  18  32  53  78  99 125 166 212 252 291
#     4  10  16  27  46  72  99 121 151 193 233 278
#     4   9  16  31  49  69  98 129 161 198 238 289
#     4  11  18  32  50  73  97 128 164 204 249 290
#     4  10  20  31  40  62 101 137 161 180 218 287
#     4   9  17  29  48  71  96 123 157 199 238 283
#     4  11  22  33  46  70 102 134 166 198 238 289
#
# _framework density 15.461632
#
# number of rings (size 3 to 8) (size 9 to 14) (size 15 to 20)
#    0.000    2.167    5.000    1.500    1.167    0.500 
#    1.500    1.667    0.000    2.500    0.000    3.500 
#    0.000    2.000    0.000    0.000    0.000    0.000 
#
# Total GULP energy -267207.495292 kJ/mol
# GULP energy per Si atom -5566.822819 kJ/mol
# Density = 1.542644 g / cm^3
# Si number density = 15.461632 Si / 1000 Ang^3
#
#
#
# Elastic Constant Matrix: (Units=GPa)
#
#
# Indices 1 2 3 4 5 6 
#
# 1 58.8928 28.8953 39.1157 0.0000 0.0000 0.0000
# 2 28.8953 55.7915 33.3502 0.0000 0.0000 0.0000
# 3 39.1157 33.3502 127.9890 0.0000 0.0000 0.0000
# 4 0.0000 0.0000 0.0000 -20.9054 0.0000 0.0000
# 5 0.0000 0.0000 0.0000 0.0000 17.9459 0.0000
# 6 0.0000 0.0000 0.0000 0.0000 0.0000 20.4830
#
#
#
# Elastic Compliance Matrix: (Units=1/GPa)
#
#
# Indices 1 2 3 4 5 6 
#
# 1 0.025309 -0.010050 -0.005116 0.000000 0.000000 0.000000
# 2 -0.010050 0.025221 -0.003501 0.000000 0.000000 0.000000
# 3 -0.005116 -0.003501 0.010289 0.000000 0.000000 0.000000
# 4 0.000000 0.000000 0.000000 -0.047834 0.000000 0.000000
# 5 0.000000 0.000000 0.000000 0.000000 0.055723 0.000000
# 6 0.000000 0.000000 0.000000 0.000000 0.000000 0.048821
#
#
# Mechanical properties :
#
#
# Convention : Reuss Voigt Hill
#
# Bulk Modulus (GPa) = 42.57807 49.48843 46.03325
# Shear Modulus (GPa) = 30.73327 12.92550 21.82939
#
# Velocity S-wave (km/s) = 4.46321 2.89446 3.76153
# Velocity P-wave (km/s) = 7.35921 6.57626 6.97873
#
# Compressibility (1/GPa) = 0.02348627
#
# Stress axis : x y z
#
# Youngs Moduli (GPa) = 39.51185 39.64909 97.19192
#
# Poissons Ratio (x) = 0.39846 0.49725
# Poissons Ratio (y) = 0.39708 0.34023
# Poissons Ratio (z) = 0.20215 0.13879
#
# Static dielectric constant tensor:
#      x y z
#    x 1.545540 0.000000 0.000000 
#    y 0.000000 1.499850 0.000000 
#    z 0.000000 0.000000 1.552520 
# 
# From -- ./inp_files/46316.got.cif
#   From: 2010.05.17/outbox.cif.g08.bks.cpg/sg71_24_cif.got.tgz:46316.got - 2010.06.03 16:22:01.
