data_PCOD9517148
_publ_section_title
;
Structure prediction by ZEFSAII (Michael W. Deem and Ramdas Pophale) SiO2 
 PCOD9517148
Probable space group: F D D D
;
_chemical_formula_sum "Si O2"
_cell_formula_units_Z 112
_cell_length_a 36.293623
_cell_length_b 7.294856
_cell_length_c 18.407511
_cell_angle_alpha 90.000000
_cell_angle_beta 90.000000
_cell_angle_gamma 90.000000
_cell_volume 4873.512852
_symmetry_space_group_name_H-M "F D D D"
_symmetry_group_IT_number 70
_space_group.IT_coordinate_system_code '2'
_symmetry_cell_setting 'orthorhombic'
loop_
_space_group_symop_operation_xyz
x,y,z
1/4-x,1/4-y,z
x,1/4-y,1/4-z
1/4-x,y,1/4-z
-x,-y,-z
3/4+x,3/4+y,-z
-x,3/4+y,3/4+z
3/4+x,-y,3/4+z
x,1/2+y,1/2+z
1/4-x,3/4-y,1/2+z
x,3/4-y,3/4-z
1/4-x,1/2+y,3/4-z
-x,1/2-y,1/2-z
3/4+x,1/4+y,1/2-z
-x,1/4+y,1/4+z
3/4+x,1/2-y,1/4+z
1/2+x,y,1/2+z
3/4-x,1/4-y,1/2+z
1/2+x,1/4-y,3/4-z
3/4-x,y,3/4-z
1/2-x,-y,1/2-z
1/4+x,3/4+y,1/2-z
1/2-x,3/4+y,1/4+z
1/4+x,-y,1/4+z
1/2+x,1/2+y,z
3/4-x,3/4-y,z
1/2+x,3/4-y,1/4-z
3/4-x,1/2+y,1/4-z
1/2-x,1/2-y,-z
1/4+x,1/4+y,-z
1/2-x,1/4+y,3/4+z
1/4+x,1/2-y,3/4+z
loop_
_atom_site_type_symbol
_atom_site_label
_atom_site_fract_x
_atom_site_fract_y
_atom_site_fract_z
Si Si1 0.795581 0.835479 0.155399
Si Si2 0.515017 0.833224 0.545861
Si Si3 0.093282 0.321013 0.582424
Si Si4 0.625000 0.625000 0.802466
O O1 0.798052 0.625000 0.125000
O O2 0.766724 0.941876 0.104935
O O3 0.778892 0.819357 0.237658
O O4 0.837171 0.914897 0.155279
O O5 0.552920 0.900145 0.582206
O O6 0.500000 0.000000 0.500000
O O7 0.088521 0.125000 0.625000
O O8 0.125000 0.423061 0.625000
O O9 0.109946 0.281684 0.502720
#
# Coordination Sequence:
#
# PCOD9517148 Si02
#       4
#    32  32  32  16
#     4   9  17  31  49  69  96 127 158 196 243 292
#     4   9  17  31  50  70  96 128 158 197 246 292
#     4   8  15  30  49  68  93 125 157 193 240 291
#     4   8  15  30  48  68  93 122 158 198 240 278
#
# _framework density 22.981369000000001
#
# number of rings (size 3 to 8) (size 9 to 14) (size 15 to 20)
#    0.000    3.714    0.000    0.000    0.000    0.000 
#    0.000   25.714    0.000    6.000    0.000    0.000 
#    0.000    0.000    0.000    0.000    0.000    0.000 
#
# Total GULP energy -155913.608719 kJ/mol
# GULP energy per Si atom -5568.343169 kJ/mol
# Density = 2.292906 g / cm^3
# Si number density = 22.981369 Si / 1000 Ang^3
#
#
#
# Elastic Constant Matrix: (Units=GPa)
#
#
# Indices 1 2 3 4 5 6 
#
# 1 305.0394 40.2736 95.4060 0.0000 -0.0014 -0.0001
# 2 40.2736 69.4144 14.4889 0.0001 -0.0016 -0.0001
# 3 95.4060 14.4889 93.9422 0.0000 -0.0004 0.0000
# 4 0.0000 0.0001 0.0000 -26.1463 -0.0005 0.0000
# 5 -0.0014 -0.0016 -0.0004 -0.0005 239.1292 0.0013
# 6 -0.0001 -0.0001 0.0000 0.0000 0.0013 22.0695
#
#
#
# Elastic Compliance Matrix: (Units=1/GPa)
#
#
# Indices 1 2 3 4 5 6 
#
# 1 0.005040 -0.001917 -0.004823 0.000000 0.000000 0.000000
# 2 -0.001917 0.015615 -0.000461 0.000000 0.000000 0.000000
# 3 -0.004823 -0.000461 0.015614 0.000000 0.000000 0.000000
# 4 0.000000 0.000000 0.000000 -0.038246 0.000000 0.000000
# 5 0.000000 0.000000 0.000000 0.000000 0.004182 0.000000
# 6 0.000000 0.000000 0.000000 0.000000 0.000000 0.045311
#
#
# Mechanical properties :
#
#
# Convention : Reuss Voigt Hill
#
# Bulk Modulus (GPa) = 45.73243 85.41478 65.57361
# Shear Modulus (GPa) = 72.24811 68.22566 70.23688
#
# Velocity S-wave (km/s) = 5.61301 5.45452 5.53434
# Velocity P-wave (km/s) = 7.87089 8.77022 8.33270
#
# Compressibility (1/GPa) = 0.02186632
#
# Stress axis : x y z
#
# Youngs Moduli (GPa) = 198.42283 64.04130 64.04659
#
# Poissons Ratio (x) = 0.12279 0.30887
# Poissons Ratio (y) = 0.38046 0.02953
# Poissons Ratio (z) = 0.95690 0.02953
#
# Static dielectric constant tensor:
#      x y z
#    x 1.844290 0.000000 0.000000 
#    y 0.000000 1.891920 0.000000 
#    z 0.000000 0.000000 1.948770 
# 
# From -- ./inp_files/17285.got.cif
#   From: 2010.05.17/outbox.cif.g08.bks.cpg/sg70_9_cif.got.tgz:17285.got - 2010.06.03 15:57:51.
