data_PCOD9517019
_publ_section_title
;
Structure prediction by ZEFSAII (Michael W. Deem and Ramdas Pophale) SiO2 
 PCOD9517019
Probable space group: F D D D
;
_chemical_formula_sum "Si O2"
_cell_formula_units_Z 96
_cell_length_a 27.532019
_cell_length_b 4.849750
_cell_length_c 32.792007
_cell_angle_alpha 90.000000
_cell_angle_beta 90.000000
_cell_angle_gamma 90.000000
_cell_volume 4378.500567
_symmetry_space_group_name_H-M "F D D D"
_symmetry_group_IT_number 70
_space_group.IT_coordinate_system_code '2'
_symmetry_cell_setting 'orthorhombic'
loop_
_space_group_symop_operation_xyz
x,y,z
1/4-x,1/4-y,z
x,1/4-y,1/4-z
1/4-x,y,1/4-z
-x,-y,-z
3/4+x,3/4+y,-z
-x,3/4+y,3/4+z
3/4+x,-y,3/4+z
x,1/2+y,1/2+z
1/4-x,3/4-y,1/2+z
x,3/4-y,3/4-z
1/4-x,1/2+y,3/4-z
-x,1/2-y,1/2-z
3/4+x,1/4+y,1/2-z
-x,1/4+y,1/4+z
3/4+x,1/2-y,1/4+z
1/2+x,y,1/2+z
3/4-x,1/4-y,1/2+z
1/2+x,1/4-y,3/4-z
3/4-x,y,3/4-z
1/2-x,-y,1/2-z
1/4+x,3/4+y,1/2-z
1/2-x,3/4+y,1/4+z
1/4+x,-y,1/4+z
1/2+x,1/2+y,z
3/4-x,3/4-y,z
1/2+x,3/4-y,1/4-z
3/4-x,1/2+y,1/4-z
1/2-x,1/2-y,-z
1/4+x,1/4+y,-z
1/2-x,1/4+y,3/4+z
1/4+x,1/2-y,3/4+z
loop_
_atom_site_type_symbol
_atom_site_label
_atom_site_fract_x
_atom_site_fract_y
_atom_site_fract_z
Si Si1 0.875000 0.875000 0.702457
Si Si2 0.225711 0.434686 0.206273
Si Si3 0.625000 0.625000 0.512509
Si Si4 0.771416 0.821316 0.085471
O O1 0.888317 0.621446 0.731857
O O2 0.826780 0.848345 0.675641
O O3 0.250000 0.500000 0.250000
O O4 0.169068 0.500986 0.211600
O O5 0.244845 0.637289 0.170846
O O6 0.242338 0.126182 0.196128
O O7 0.772087 0.625000 0.125000
#
# Coordination Sequence:
#
# PCOD9517019 Si02
#       4
#    16  32  16  32
#     4  12  22  41  68 100 131 169 220 289 341 404
#     4  12  23  45  68  98 135 180 229 280 330 417
#     4  12  24  39  73 100 124 173 240 277 324 400
#     4  12  26  43  67 101 142 175 219 283 358 408
#
# _framework density 21.925314
#
# number of rings (size 3 to 8) (size 9 to 14) (size 15 to 20)
#    0.000    0.000    6.667    4.000    0.000    4.000 
#    0.000    5.000    0.000    0.000    0.000    0.000 
#    0.000    0.000    0.000    0.000    0.000    0.000 
#
# Total GULP energy -134029.890889 kJ/mol
# GULP energy per Si atom -5584.578787 kJ/mol
# Density = 2.187541 g / cm^3
# Si number density = 21.925314 Si / 1000 Ang^3
#
#
#
# Elastic Constant Matrix: (Units=GPa)
#
#
# Indices 1 2 3 4 5 6 
#
# 1 129.0871 -18.5661 11.5751 -0.0336 0.0910 0.0856
# 2 -18.5661 92.7216 -8.7870 -0.1000 0.1647 0.1359
# 3 11.5751 -8.7870 62.3311 -0.0049 0.0401 -0.0122
# 4 -0.0336 -0.1000 -0.0049 38.3325 0.0044 -0.0164
# 5 0.0910 0.1647 0.0401 0.0044 9.0852 -0.0716
# 6 0.0856 0.1359 -0.0122 -0.0164 -0.0716 36.1483
#
#
#
# Elastic Compliance Matrix: (Units=1/GPa)
#
#
# Indices 1 2 3 4 5 6 
#
# 1 0.008077 0.001495 -0.001289 0.000011 -0.000103 -0.000025
# 2 0.001495 0.011208 0.001303 0.000031 -0.000224 -0.000046
# 3 -0.001289 0.001303 0.016466 0.000004 -0.000083 0.000004
# 4 0.000011 0.000031 0.000004 0.026088 -0.000013 0.000012
# 5 -0.000103 -0.000224 -0.000083 -0.000013 0.110076 0.000219
# 6 -0.000025 -0.000046 0.000004 0.000012 0.000219 0.027665
#
#
# Mechanical properties :
#
#
# Convention : Reuss Voigt Hill
#
# Bulk Modulus (GPa) = 25.79320 28.06486 26.92903
# Shear Modulus (GPa) = 23.86790 36.70771 30.28781
#
# Velocity S-wave (km/s) = 3.30297 4.09616 3.72076
# Velocity P-wave (km/s) = 5.13185 5.93290 5.54685
#
# Compressibility (1/GPa) = 0.03876991
#
# Stress axis : x y z
#
# Youngs Moduli (GPa) = 123.80104 89.21917 60.72966
#
# Poissons Ratio (x) = -0.13342 0.07829
# Poissons Ratio (y) = -0.18514 -0.07910
# Poissons Ratio (z) = 0.15960 -0.11621
#
# Static dielectric constant tensor:
#      x y z
#    x 1.793430 -0.000050 0.000020 
#    y -0.000050 1.768670 -0.000040 
#    z 0.000020 -0.000040 1.861900 
# 
# From -- ./inp_files/4006.got.cif
#   From: 2010.05.17/outbox.cif.g08.bks.cpg/sg70_3_cif.got.tgz:4006.got - 2010.06.03 15:57:51.
