data_PCOD9517375
_publ_section_title
;
Structure prediction by ZEFSAII (Michael W. Deem and Ramdas Pophale) SiO2 
 PCOD9517375
Probable space group: I M M M
;
_chemical_formula_sum "Si O2"
_cell_formula_units_Z 120
_cell_length_a 19.724788
_cell_length_b 25.792185
_cell_length_c 14.634578
_cell_angle_alpha 90.000000
_cell_angle_beta 90.000000
_cell_angle_gamma 90.000000
_cell_volume 7445.273963
_symmetry_space_group_name_H-M "I M M M"
_symmetry_group_IT_number 71
_symmetry_cell_setting 'orthorhombic'
loop_
_space_group_symop_operation_xyz
x,y,z
-x,-y,z
x,-y,-z
-x,y,-z
-x,-y,-z
x,y,-z
-x,y,z
x,-y,z
1/2+x,1/2+y,1/2+z
1/2-x,1/2-y,1/2+z
1/2+x,1/2-y,1/2-z
1/2-x,1/2+y,1/2-z
1/2-x,1/2-y,1/2-z
1/2+x,1/2+y,1/2-z
1/2-x,1/2+y,1/2+z
1/2+x,1/2-y,1/2+z
loop_
_atom_site_type_symbol
_atom_site_label
_atom_site_fract_x
_atom_site_fract_y
_atom_site_fract_z
Si Si1 0.324352 0.259361 0.103981
Si Si2 0.000000 0.437305 0.897149
Si Si3 0.364811 0.060362 0.712430
Si Si4 0.836762 0.282280 0.101333
Si Si5 0.822348 0.659006 0.285834
Si Si6 0.419517 0.675476 0.396421
Si Si7 0.722810 0.439469 0.106265
Si Si8 0.833411 0.853693 0.735116
O O1 0.242217 0.265161 0.105615
O O2 0.341521 0.202372 0.141002
O O3 0.349992 0.303476 0.173102
O O4 0.346655 0.267481 0.000000
O O5 0.932264 0.424449 0.842128
O O6 0.000000 0.500000 0.904172
O O7 0.000000 0.416025 0.000000
O O8 0.351473 0.101296 0.793074
O O9 0.299236 0.064575 0.645899
O O10 0.369930 0.000000 0.740249
O O11 0.846240 0.319951 0.186542
O O12 0.883517 0.231707 0.110659
O O13 0.848059 0.305224 0.000000
O O14 0.740683 0.655872 0.279845
O O15 0.405707 0.656497 0.500000
O O16 0.500000 0.680409 0.385608
O O17 0.386737 0.641373 0.316524
O O18 0.703427 0.500000 0.112357
O O19 0.676776 0.402294 0.167957
O O20 0.721711 0.423597 0.000000
#
# Coordination Sequence:
#
# PCOD9517375 Si02
#       8
#    16   8  16  16  16  16  16  16
#     4  10  17  27  47  71  92 119 152 191 237 276
#     4   9  16  28  44  62  91 129 161 185 221 278
#     4   9  18  29  43  64  93 128 162 194 231 278
#     4   9  16  28  44  67  95 119 150 187 227 280
#     4  10  17  28  45  67  95 123 157 197 237 271
#     4  10  19  31  48  70  98 129 154 182 230 290
#     4   9  17  29  48  74  99 122 153 197 241 275
#     4  10  17  30  48  70  96 125 157 190 230 284
#
# _framework density 16.117605999999999
#
# number of rings (size 3 to 8) (size 9 to 14) (size 15 to 20)
#    0.000    2.467    2.667    1.600    0.000    5.333 
#    1.200    0.000    0.000    2.800    0.000    5.600 
#    0.000    1.600    0.000    0.133    0.000    0.000 
#
# Total GULP energy -334297.201280 kJ/mol
# GULP energy per Si atom -5571.620021 kJ/mol
# Density = 1.608092 g / cm^3
# Si number density = 16.117606 Si / 1000 Ang^3
#
#
#
# Elastic Constant Matrix: (Units=GPa)
#
#
# Indices 1 2 3 4 5 6 
#
# 1 41.7786 18.5584 37.4258 0.0000 0.0000 0.0000
# 2 18.5584 63.3443 35.3000 0.0000 0.0000 0.0000
# 3 37.4258 35.3000 75.5250 0.0000 0.0000 0.0000
# 4 0.0000 0.0000 0.0000 21.7197 0.0000 0.0000
# 5 0.0000 0.0000 0.0000 0.0000 16.8515 0.0000
# 6 0.0000 0.0000 0.0000 0.0000 0.0000 14.7990
#
#
#
# Elastic Compliance Matrix: (Units=1/GPa)
#
#
# Indices 1 2 3 4 5 6 
#
# 1 0.043088 -0.000980 -0.020894 0.000000 0.000000 0.000000
# 2 -0.000980 0.021369 -0.009502 0.000000 0.000000 0.000000
# 3 -0.020894 -0.009502 0.028036 0.000000 0.000000 0.000000
# 4 0.000000 0.000000 0.000000 0.046041 0.000000 0.000000
# 5 0.000000 0.000000 0.000000 0.000000 0.059342 0.000000
# 6 0.000000 0.000000 0.000000 0.000000 0.000000 0.067572
#
#
# Mechanical properties :
#
#
# Convention : Reuss Voigt Hill
#
# Bulk Modulus (GPa) = 33.62410 40.35738 36.99074
# Shear Modulus (GPa) = 14.78792 16.63162 15.70977
#
# Velocity S-wave (km/s) = 3.03231 3.21579 3.12540
# Velocity P-wave (km/s) = 5.75907 6.23555 6.00204
#
# Compressibility (1/GPa) = 0.02974058
#
# Stress axis : x y z
#
# Youngs Moduli (GPa) = 23.20830 46.79641 35.66896
#
# Poissons Ratio (x) = 0.04588 0.74526
# Poissons Ratio (y) = 0.02275 0.33893
# Poissons Ratio (z) = 0.48491 0.44466
#
# Static dielectric constant tensor:
#      x y z
#    x 1.524730 0.000000 0.000000 
#    y 0.000000 1.568370 0.000000 
#    z 0.000000 0.000000 1.549290 
# 
# From -- ./inp_files/38571.got.cif
#   From: 2010.05.17/outbox.cif.g08.bks.cpg/sg71_20_cif.got.tgz:38571.got - 2010.06.03 16:22:01.
