data_PCOD9517113
_publ_section_title
;
Structure prediction by ZEFSAII (Michael W. Deem and Ramdas Pophale) SiO2 
 PCOD9517113
Probable space group: F D D D
;
_chemical_formula_sum "Si O2"
_cell_formula_units_Z 112
_cell_length_a 27.466489
_cell_length_b 15.134053
_cell_length_c 10.919469
_cell_angle_alpha 90.000000
_cell_angle_beta 90.000000
_cell_angle_gamma 90.000000
_cell_volume 4538.997233
_symmetry_space_group_name_H-M "F D D D"
_symmetry_group_IT_number 70
_space_group.IT_coordinate_system_code '2'
_symmetry_cell_setting 'orthorhombic'
loop_
_space_group_symop_operation_xyz
x,y,z
1/4-x,1/4-y,z
x,1/4-y,1/4-z
1/4-x,y,1/4-z
-x,-y,-z
3/4+x,3/4+y,-z
-x,3/4+y,3/4+z
3/4+x,-y,3/4+z
x,1/2+y,1/2+z
1/4-x,3/4-y,1/2+z
x,3/4-y,3/4-z
1/4-x,1/2+y,3/4-z
-x,1/2-y,1/2-z
3/4+x,1/4+y,1/2-z
-x,1/4+y,1/4+z
3/4+x,1/2-y,1/4+z
1/2+x,y,1/2+z
3/4-x,1/4-y,1/2+z
1/2+x,1/4-y,3/4-z
3/4-x,y,3/4-z
1/2-x,-y,1/2-z
1/4+x,3/4+y,1/2-z
1/2-x,3/4+y,1/4+z
1/4+x,-y,1/4+z
1/2+x,1/2+y,z
3/4-x,3/4-y,z
1/2+x,3/4-y,1/4-z
3/4-x,1/2+y,1/4-z
1/2-x,1/2-y,-z
1/4+x,1/4+y,-z
1/2-x,1/4+y,3/4+z
1/4+x,1/2-y,3/4+z
loop_
_atom_site_type_symbol
_atom_site_label
_atom_site_fract_x
_atom_site_fract_y
_atom_site_fract_z
Si Si1 0.086822 0.885097 0.515657
Si Si2 0.955791 0.803883 0.982483
Si Si3 0.375000 0.875000 0.671498
Si Si4 0.046398 0.720098 0.091902
O O1 0.125000 0.890404 0.625000
O O2 0.103681 0.875000 0.375000
O O3 0.058239 0.796300 0.549994
O O4 0.058762 0.977279 0.534326
O O5 0.953765 0.875000 0.875000
O O6 0.915895 0.835139 0.081367
O O7 0.010966 0.788820 0.026109
O O8 0.407216 0.940330 0.758659
O O9 0.022860 0.625000 0.125000
#
# Coordination Sequence:
#
# PCOD9517113 Si02
#       4
#    32  32  16  32
#     4  12  26  47  77 109 149 204 261 324 400 477
#     4  12  28  48  75 114 162 212 269 340 411 482
#     4  12  26  52  80 114 167 216 269 342 409 486
#     4  12  27  48  76 111 154 209 273 335 404 490
#
# _framework density 24.675053999999999
#
# number of rings (size 3 to 8) (size 9 to 14) (size 15 to 20)
#    0.000    0.000    0.000   10.286    0.000   11.429 
#    0.000    1.429    0.000    0.000    0.000    0.000 
#    0.000    0.000    0.000    0.000    0.000    0.000 
#
# Total GULP energy -156639.557018 kJ/mol
# GULP energy per Si atom -5594.269894 kJ/mol
# Density = 2.461889 g / cm^3
# Si number density = 24.675054 Si / 1000 Ang^3
#
#
#
# Elastic Constant Matrix: (Units=GPa)
#
#
# Indices 1 2 3 4 5 6 
#
# 1 133.1421 61.2316 86.0029 0.0000 0.0000 0.0000
# 2 61.2316 173.7606 117.1617 0.0000 0.0000 0.0000
# 3 86.0029 117.1617 185.9664 0.0000 0.0000 0.0000
# 4 0.0000 0.0000 0.0000 70.3662 0.0000 0.0000
# 5 0.0000 0.0000 0.0000 0.0000 50.2774 0.0000
# 6 0.0000 0.0000 0.0000 0.0000 0.0000 43.8043
#
#
#
# Elastic Compliance Matrix: (Units=1/GPa)
#
#
# Indices 1 2 3 4 5 6 
#
# 1 0.010768 -0.000759 -0.004501 0.000000 0.000000 0.000000
# 2 -0.000759 0.010059 -0.005986 0.000000 0.000000 0.000000
# 3 -0.004501 -0.005986 0.011230 0.000000 0.000000 0.000000
# 4 0.000000 0.000000 0.000000 0.014211 0.000000 0.000000
# 5 0.000000 0.000000 0.000000 0.000000 0.019890 0.000000
# 6 0.000000 0.000000 0.000000 0.000000 0.000000 0.022829
#
#
# Mechanical properties :
#
#
# Convention : Reuss Voigt Hill
#
# Bulk Modulus (GPa) = 104.56490 113.51797 109.04143
# Shear Modulus (GPa) = 43.60430 48.12110 45.86270
#
# Velocity S-wave (km/s) = 4.20830 4.42089 4.31590
# Velocity P-wave (km/s) = 8.12907 8.49494 8.31402
#
# Compressibility (1/GPa) = 0.00956344
#
# Stress axis : x y z
#
# Youngs Moduli (GPa) = 92.87167 99.41479 89.04497
#
# Poissons Ratio (x) = 0.07549 0.40081
# Poissons Ratio (y) = 0.07052 0.53303
# Poissons Ratio (z) = 0.41803 0.59510
#
# Static dielectric constant tensor:
#      x y z
#    x 2.273350 0.000000 0.000000 
#    y 0.000000 1.950780 0.000000 
#    z 0.000000 0.000000 1.977960 
# 
# From -- ./inp_files/21745.got.cif
#   From: 2010.05.17/outbox.cif.g08.bks.cpg/sg70_11_cif.got.tgz:21745.got - 2010.06.03 15:57:51.
