data_PCOD9517985
_publ_section_title
;
Structure prediction by ZEFSAII (Michael W. Deem and Ramdas Pophale) SiO2 
 PCOD9517985
Probable space group: I M M M
;
_chemical_formula_sum "Si O2"
_cell_formula_units_Z 80
_cell_length_a 28.955070
_cell_length_b 20.992057
_cell_length_c 7.794678
_cell_angle_alpha 90.000000
_cell_angle_beta 90.000000
_cell_angle_gamma 90.000000
_cell_volume 4737.811691
_symmetry_space_group_name_H-M "I M M M"
_symmetry_group_IT_number 71
_symmetry_cell_setting 'orthorhombic'
loop_
_space_group_symop_operation_xyz
x,y,z
-x,-y,z
x,-y,-z
-x,y,-z
-x,-y,-z
x,y,-z
-x,y,z
x,-y,z
1/2+x,1/2+y,1/2+z
1/2-x,1/2-y,1/2+z
1/2+x,1/2-y,1/2-z
1/2-x,1/2+y,1/2-z
1/2-x,1/2-y,1/2-z
1/2+x,1/2+y,1/2-z
1/2-x,1/2+y,1/2+z
1/2+x,1/2-y,1/2+z
loop_
_atom_site_type_symbol
_atom_site_label
_atom_site_fract_x
_atom_site_fract_y
_atom_site_fract_z
Si Si1 0.783696 0.691732 0.205796
Si Si2 0.882494 0.740360 0.690423
Si Si3 0.553131 0.397259 0.500000
Si Si4 0.773946 0.070293 0.290976
Si Si5 0.877679 0.893940 0.700104
Si Si6 0.552484 0.242058 0.500000
O O1 0.750000 0.750000 0.250000
O O2 0.833614 0.706241 0.282973
O O3 0.758937 0.627235 0.267741
O O4 0.788685 0.688810 0.000000
O O5 0.900272 0.728261 0.500000
O O6 0.874666 0.816771 0.706566
O O7 0.918963 0.721550 0.833977
O O8 0.500000 0.419397 0.500000
O O9 0.582386 0.415261 0.669369
O O10 0.551705 0.319642 0.500000
O O11 0.773653 0.072419 0.500000
O O12 0.827445 0.081295 0.243612
O O13 0.759117 0.000000 0.236178
O O14 0.885887 0.911699 0.500000
O O15 0.500000 0.219863 0.500000
#
# Coordination Sequence:
#
# PCOD9517985 Si02
#       6
#    16  16   8  16  16   8
#     4  11  19  29  49  74 101 135 170 212 254 303
#     4  10  18  30  47  73 101 128 170 210 247 304
#     4   9  18  30  47  70  95 123 166 220 261 297
#     4   9  18  32  49  70  98 134 173 208 250 302
#     4   9  17  30  48  67  92 129 167 207 254 299
#     4   9  18  32  48  71 103 135 165 209 261 301
#
# _framework density 16.885432000000002
#
# number of rings (size 3 to 8) (size 9 to 14) (size 15 to 20)
#    0.000    2.400    3.000    0.600    0.000    0.800 
#    1.800    4.500    0.000    1.200    0.000    2.800 
#    0.000    1.600    0.000    1.800    0.000    0.200 
#
# Total GULP energy -223180.779840 kJ/mol
# GULP energy per Si atom -5579.519496 kJ/mol
# Density = 1.684700 g / cm^3
# Si number density = 16.885432 Si / 1000 Ang^3
#
#
#
# Elastic Constant Matrix: (Units=GPa)
#
#
# Indices 1 2 3 4 5 6 
#
# 1 122.9969 45.2274 53.2189 0.0000 0.0000 0.0000
# 2 45.2274 74.0534 27.4531 0.0000 0.0000 0.0000
# 3 53.2189 27.4531 91.9457 0.0000 0.0000 0.0000
# 4 0.0000 0.0000 0.0000 6.1735 0.0000 0.0000
# 5 0.0000 0.0000 0.0000 0.0000 19.8069 0.0000
# 6 0.0000 0.0000 0.0000 0.0000 0.0000 5.5955
#
#
#
# Elastic Compliance Matrix: (Units=1/GPa)
#
#
# Indices 1 2 3 4 5 6 
#
# 1 0.012638 -0.005630 -0.005634 0.000000 0.000000 0.000000
# 2 -0.005630 0.017693 -0.002024 0.000000 0.000000 0.000000
# 3 -0.005634 -0.002024 0.014741 0.000000 0.000000 0.000000
# 4 0.000000 0.000000 0.000000 0.161983 0.000000 0.000000
# 5 0.000000 0.000000 0.000000 0.000000 0.050488 0.000000
# 6 0.000000 0.000000 0.000000 0.000000 0.000000 0.178714
#
#
# Mechanical properties :
#
#
# Convention : Reuss Voigt Hill
#
# Bulk Modulus (GPa) = 54.06562 60.08831 57.07697
# Shear Modulus (GPa) = 10.66103 17.18829 13.92466
#
# Velocity S-wave (km/s) = 2.51544 3.19397 2.87480
# Velocity P-wave (km/s) = 6.36594 7.01891 6.70038
#
# Compressibility (1/GPa) = 0.01849604
#
# Stress axis : x y z
#
# Youngs Moduli (GPa) = 79.12445 56.52093 67.83626
#
# Poissons Ratio (x) = 0.31821 0.38220
# Poissons Ratio (y) = 0.44547 0.13730
# Poissons Ratio (z) = 0.44580 0.11439
#
# Static dielectric constant tensor:
#      x y z
#    x 1.542120 0.000000 0.000000 
#    y 0.000000 1.573640 0.000000 
#    z 0.000000 0.000000 1.594790 
# 
# From -- ./inp_files/12392.got.cif
#   From: 2010.05.17/outbox.cif.g08.bks.cpg/sg71_7_cif.got.tgz:12392.got - 2010.06.03 16:22:01.
