data_PCOD9517846
_publ_section_title
;
Structure prediction by ZEFSAII (Michael W. Deem and Ramdas Pophale) SiO2 
 PCOD9517846
Probable space group: I M M M
;
_chemical_formula_sum "Si O2"
_cell_formula_units_Z 96
_cell_length_a 15.659636
_cell_length_b 22.228301
_cell_length_c 15.496738
_cell_angle_alpha 90.000000
_cell_angle_beta 90.000000
_cell_angle_gamma 90.000000
_cell_volume 5394.214630
_symmetry_space_group_name_H-M "I M M M"
_symmetry_group_IT_number 71
_symmetry_cell_setting 'orthorhombic'
loop_
_space_group_symop_operation_xyz
x,y,z
-x,-y,z
x,-y,-z
-x,y,-z
-x,-y,-z
x,y,-z
-x,y,z
x,-y,z
1/2+x,1/2+y,1/2+z
1/2-x,1/2-y,1/2+z
1/2+x,1/2-y,1/2-z
1/2-x,1/2+y,1/2-z
1/2-x,1/2-y,1/2-z
1/2+x,1/2+y,1/2-z
1/2-x,1/2+y,1/2+z
1/2+x,1/2-y,1/2+z
loop_
_atom_site_type_symbol
_atom_site_label
_atom_site_fract_x
_atom_site_fract_y
_atom_site_fract_z
Si Si1 0.779607 0.881692 0.098122
Si Si2 0.406149 0.129730 0.901604
Si Si3 0.095969 0.180900 0.356052
Si Si4 0.771761 0.736437 0.905258
Si Si5 0.407252 0.213992 0.732922
Si Si6 0.599982 0.430401 0.747793
O O1 0.682254 0.905887 0.106774
O O2 0.772008 0.808808 0.107561
O O3 0.840613 0.908487 0.169925
O O4 0.808936 0.893583 0.000000
O O5 0.500000 0.099749 0.896805
O O6 0.404225 0.176092 0.821724
O O7 0.401886 0.156368 0.000000
O O8 0.176126 0.210308 0.403100
O O9 0.094086 0.217369 0.265538
O O10 0.112678 0.112224 0.330726
O O11 0.000000 0.188128 0.393426
O O12 0.828165 0.706268 0.830445
O O13 0.809009 0.725131 0.000000
O O14 0.500000 0.201777 0.692019
O O15 0.500000 0.423806 0.723700
O O16 0.616514 0.500000 0.766727
#
# Coordination Sequence:
#
# PCOD9517846 Si02
#       6
#    16  16  16  16  16  16
#     4  10  19  30  47  72 102 134 169 211 260 316
#     4   9  17  29  48  76 105 131 161 199 251 317
#     4  10  19  32  51  74 101 134 173 216 262 309
#     4  11  21  31  48  76 108 138 169 210 264 324
#     4  10  18  29  47  70 102 139 165 198 252 311
#     4  10  21  36  52  70  96 137 187 228 259 296
#
# _framework density 17.796845999999999
#
# number of rings (size 3 to 8) (size 9 to 14) (size 15 to 20)
#    0.000    2.000    3.333    1.500    0.000    1.333 
#    0.000    2.500    0.000    1.000    0.000    4.667 
#    0.000    0.000    0.000    6.000    0.000    0.333 
#
# Total GULP energy -267234.674449 kJ/mol
# GULP energy per Si atom -5567.389051 kJ/mol
# Density = 1.775634 g / cm^3
# Si number density = 17.796846 Si / 1000 Ang^3
#
#
#
# Elastic Constant Matrix: (Units=GPa)
#
#
# Indices 1 2 3 4 5 6 
#
# 1 75.5111 10.9092 31.8997 0.0000 0.0000 0.0000
# 2 10.9092 48.0932 5.6747 0.0004 0.0000 0.0000
# 3 31.8997 5.6747 52.0931 0.0008 0.0000 0.0000
# 4 0.0000 0.0004 0.0008 9.4643 0.0000 0.0000
# 5 0.0000 0.0000 0.0000 0.0000 13.2923 0.0000
# 6 0.0000 0.0000 0.0000 0.0000 0.0000 17.6180
#
#
#
# Elastic Compliance Matrix: (Units=1/GPa)
#
#
# Indices 1 2 3 4 5 6 
#
# 1 0.018244 -0.002857 -0.010861 0.000001 0.000000 0.000000
# 2 -0.002857 0.021511 -0.000594 -0.000001 0.000000 0.000000
# 3 -0.010861 -0.000594 0.025912 -0.000002 0.000000 0.000000
# 4 0.000001 -0.000001 -0.000002 0.105660 0.000000 0.000000
# 5 0.000000 0.000000 0.000000 0.000000 0.075231 0.000000
# 6 0.000000 0.000000 0.000000 0.000000 0.000000 0.056760
#
#
# Mechanical properties :
#
#
# Convention : Reuss Voigt Hill
#
# Bulk Modulus (GPa) = 26.99493 30.29606 28.64549
# Shear Modulus (GPa) = 14.52269 16.55586 15.53928
#
# Velocity S-wave (km/s) = 2.85972 3.05334 2.95811
# Velocity P-wave (km/s) = 5.10933 5.43054 5.27238
#
# Compressibility (1/GPa) = 0.03704400
#
# Stress axis : x y z
#
# Youngs Moduli (GPa) = 54.81289 46.48773 38.59262
#
# Poissons Ratio (x) = 0.13281 0.41914
# Poissons Ratio (y) = 0.15659 0.02292
# Poissons Ratio (z) = 0.59530 0.02761
#
# Static dielectric constant tensor:
#      x y z
#    x 1.660050 0.000000 0.000000 
#    y 0.000000 1.624400 0.000000 
#    z 0.000000 0.000000 1.598780 
# 
# From -- ./inp_files/34514.got.cif
#   From: 2010.05.17/outbox.cif.g08.bks.cpg/sg71_18_cif.got.tgz:34514.got - 2010.06.03 16:22:01.
