data_PCOD9517660
_publ_section_title
;
Structure prediction by ZEFSAII (Michael W. Deem and Ramdas Pophale) SiO2 
 PCOD9517660
Probable space group: I M M M
;
_chemical_formula_sum "Si O2"
_cell_formula_units_Z 88
_cell_length_a 14.277432
_cell_length_b 20.794855
_cell_length_c 18.442063
_cell_angle_alpha 90.000000
_cell_angle_beta 90.000000
_cell_angle_gamma 90.000000
_cell_volume 5475.395543
_symmetry_space_group_name_H-M "I M M M"
_symmetry_group_IT_number 71
_symmetry_cell_setting 'orthorhombic'
loop_
_space_group_symop_operation_xyz
x,y,z
-x,-y,z
x,-y,-z
-x,y,-z
-x,-y,-z
x,y,-z
-x,y,z
x,-y,z
1/2+x,1/2+y,1/2+z
1/2-x,1/2-y,1/2+z
1/2+x,1/2-y,1/2-z
1/2-x,1/2+y,1/2-z
1/2-x,1/2-y,1/2-z
1/2+x,1/2+y,1/2-z
1/2-x,1/2+y,1/2+z
1/2+x,1/2-y,1/2+z
loop_
_atom_site_type_symbol
_atom_site_label
_atom_site_fract_x
_atom_site_fract_y
_atom_site_fract_z
Si Si1 0.716407 0.202310 0.412389
Si Si2 0.612040 0.429844 0.000000
Si Si3 0.610277 0.928280 0.587899
Si Si4 0.886474 0.073127 0.788895
Si Si5 0.887204 0.165682 0.083192
Si Si6 0.610982 0.652121 0.856528
O O1 0.729943 0.200151 0.500000
O O2 0.666696 0.135301 0.389076
O O3 0.652661 0.264184 0.398082
O O4 0.815130 0.208408 0.370809
O O5 0.632047 0.392918 0.073775
O O6 0.656722 0.500000 0.000000
O O7 0.500000 0.436288 0.000000
O O8 0.615465 0.928438 0.500000
O O9 0.500000 0.921658 0.606441
O O10 0.641804 0.000000 0.612394
O O11 0.854813 0.112464 0.859386
O O12 0.867093 0.113218 0.716226
O O13 0.000000 0.069577 0.792633
O O14 0.851342 0.000000 0.785462
O O15 0.000000 0.168658 0.086169
O O16 0.860847 0.150361 0.000000
O O17 0.500000 0.668345 0.857151
#
# Coordination Sequence:
#
# PCOD9517660 Si02
#       6
#    16   8  16  16  16  16
#     4  10  18  28  43  65  90 121 154 189 222 266
#     4   9  16  26  40  58  83 117 152 181 211 249
#     4   8  14  24  37  55  81 113 149 187 222 257
#     4   9  18  32  48  67  92 120 150 187 231 278
#     4   9  18  32  50  70  91 116 149 190 236 280
#     4  10  19  30  43  63  92 125 154 184 219 260
#
# _framework density 16.071898999999998
#
# number of rings (size 3 to 8) (size 9 to 14) (size 15 to 20)
#    0.000    2.818    0.909    1.636    0.000    6.909 
#    0.000    1.818    0.000    0.000    0.000    0.000 
#    0.000    2.182    0.000    4.000    0.000    0.182 
#
# Total GULP energy -244953.118667 kJ/mol
# GULP energy per Si atom -5567.116333 kJ/mol
# Density = 1.603532 g / cm^3
# Si number density = 16.071899 Si / 1000 Ang^3
#
#
#
# Elastic Constant Matrix: (Units=GPa)
#
#
# Indices 1 2 3 4 5 6 
#
# 1 36.4972 11.7940 14.5877 0.0000 0.0000 0.0000
# 2 11.7940 38.4958 28.6205 0.0000 0.0000 0.0000
# 3 14.5877 28.6205 72.9791 0.0000 0.0000 0.0000
# 4 0.0000 0.0000 0.0000 5.3667 0.0000 0.0000
# 5 0.0000 0.0000 0.0000 0.0000 10.4975 0.0000
# 6 0.0000 0.0000 0.0000 0.0000 0.0000 9.4872
#
#
#
# Elastic Compliance Matrix: (Units=1/GPa)
#
#
# Indices 1 2 3 4 5 6 
#
# 1 0.031028 -0.006910 -0.003492 0.000000 0.000000 0.000000
# 2 -0.006910 0.038207 -0.013603 0.000000 0.000000 0.000000
# 3 -0.003492 -0.013603 0.019735 0.000000 0.000000 0.000000
# 4 0.000000 0.000000 0.000000 0.186333 0.000000 0.000000
# 5 0.000000 0.000000 0.000000 0.000000 0.095260 0.000000
# 6 0.000000 0.000000 0.000000 0.000000 0.000000 0.105405
#
#
# Mechanical properties :
#
#
# Convention : Reuss Voigt Hill
#
# Bulk Modulus (GPa) = 24.41349 28.66408 26.53878
# Shear Modulus (GPa) = 9.30006 11.26829 10.28417
#
# Velocity S-wave (km/s) = 2.40813 2.65074 2.53234
# Velocity P-wave (km/s) = 4.79117 5.21940 5.00986
#
# Compressibility (1/GPa) = 0.04096096
#
# Stress axis : x y z
#
# Youngs Moduli (GPa) = 32.22892 26.17326 50.67074
#
# Poissons Ratio (x) = 0.18085 0.17696
# Poissons Ratio (y) = 0.22269 0.68926
# Poissons Ratio (z) = 0.11256 0.35603
#
# Static dielectric constant tensor:
#      x y z
#    x 1.568370 0.000000 0.000000 
#    y 0.000000 1.561150 0.000000 
#    z 0.000000 0.000000 1.527610 
# 
# From -- ./inp_files/36610.got.cif
#   From: 2010.05.17/outbox.cif.g08.bks.cpg/sg71_19_cif.got.tgz:36610.got - 2010.06.03 16:22:01.
