data_PCOD9517921
_publ_section_title
;
Structure prediction by ZEFSAII (Michael W. Deem and Ramdas Pophale) SiO2 
 PCOD9517921
Probable space group: I M M M
;
_chemical_formula_sum "Si O2"
_cell_formula_units_Z 104
_cell_length_a 24.872369
_cell_length_b 7.729067
_cell_length_c 26.857483
_cell_angle_alpha 90.000000
_cell_angle_beta 90.000000
_cell_angle_gamma 90.000000
_cell_volume 5163.088077
_symmetry_space_group_name_H-M "I M M M"
_symmetry_group_IT_number 71
_symmetry_cell_setting 'orthorhombic'
loop_
_space_group_symop_operation_xyz
x,y,z
-x,-y,z
x,-y,-z
-x,y,-z
-x,-y,-z
x,y,-z
-x,y,z
x,-y,z
1/2+x,1/2+y,1/2+z
1/2-x,1/2-y,1/2+z
1/2+x,1/2-y,1/2-z
1/2-x,1/2+y,1/2-z
1/2-x,1/2-y,1/2-z
1/2+x,1/2+y,1/2-z
1/2-x,1/2+y,1/2+z
1/2+x,1/2-y,1/2+z
loop_
_atom_site_type_symbol
_atom_site_label
_atom_site_fract_x
_atom_site_fract_y
_atom_site_fract_z
Si Si1 0.865272 0.293079 0.410387
Si Si2 0.246467 0.787907 0.941612
Si Si3 0.060418 0.702078 0.205730
Si Si4 0.557579 0.288907 0.442957
Si Si5 0.559636 0.706598 0.821147
Si Si6 0.060850 0.712203 0.500000
Si Si7 0.850787 0.792816 0.127524
O O1 0.862099 0.500000 0.415289
O O2 0.805850 0.229887 0.424572
O O3 0.891667 0.256899 0.357092
O O4 0.907229 0.228927 0.451498
O O5 0.205297 0.731859 0.897447
O O6 0.245292 0.000000 0.942803
O O7 0.235185 0.736565 0.000000
O O8 0.057127 0.500000 0.194836
O O9 0.066346 0.728343 0.264871
O O10 0.115426 0.762457 0.178496
O O11 0.000000 0.778476 0.192902
O O12 0.561639 0.238712 0.500000
O O13 0.500000 0.232679 0.423123
O O14 0.558780 0.500000 0.441542
O O15 0.606148 0.222860 0.411747
O O16 0.500000 0.767830 0.839101
O O17 0.558180 0.500000 0.819305
O O18 0.060504 0.500000 0.500000
O O19 0.000000 0.771479 0.500000
O O20 0.846583 0.000000 0.125143
#
# Coordination Sequence:
#
# PCOD9517921 Si02
#       7
#    16  16  16  16  16   8  16
#     4  10  18  32  54  80 111 145 181 217 257 311
#     4   9  17  31  52  80 112 146 184 225 263 303
#     4  10  21  37  56  78 105 137 175 221 273 328
#     4   8  13  21  36  63  96 126 160 206 257 307
#     4  10  21  37  57  81 108 136 170 218 275 328
#     4   9  16  26  47  79 109 139 176 213 250 306
#     4  10  18  29  50  77 104 137 179 223 266 310
#
# _framework density 20.142983999999998
#
# number of rings (size 3 to 8) (size 9 to 14) (size 15 to 20)
#    0.000    2.538    0.769    2.769    0.000    4.923 
#    0.000    1.923    0.000    4.154    0.000    5.385 
#    0.000    0.000    0.000    0.000    0.000    0.000 
#
# Total GULP energy -289493.233311 kJ/mol
# GULP energy per Si atom -5567.177564 kJ/mol
# Density = 2.009714 g / cm^3
# Si number density = 20.142984 Si / 1000 Ang^3
#
#
#
# Elastic Constant Matrix: (Units=GPa)
#
#
# Indices 1 2 3 4 5 6 
#
# 1 160.6329 13.1419 71.0703 0.0000 0.0000 0.0000
# 2 13.1419 33.4166 -3.0869 0.0000 0.0000 0.0000
# 3 71.0703 -3.0869 110.7474 0.0000 0.0000 0.0000
# 4 0.0000 0.0000 0.0000 50.3901 0.0000 0.0000
# 5 0.0000 0.0000 0.0000 0.0000 37.5781 0.0000
# 6 0.0000 0.0000 0.0000 0.0000 0.0000 9.1626
#
#
#
# Elastic Compliance Matrix: (Units=1/GPa)
#
#
# Indices 1 2 3 4 5 6 
#
# 1 0.009245 -0.004195 -0.006050 0.000000 0.000000 0.000000
# 2 -0.004195 0.031906 0.003581 0.000000 0.000000 0.000000
# 3 -0.006050 0.003581 0.013012 0.000000 0.000000 0.000000
# 4 0.000000 0.000000 0.000000 0.019845 0.000000 0.000000
# 5 0.000000 0.000000 0.000000 0.000000 0.026611 0.000000
# 6 0.000000 0.000000 0.000000 0.000000 0.000000 0.109140
#
#
# Mechanical properties :
#
#
# Convention : Reuss Voigt Hill
#
# Bulk Modulus (GPa) = 24.48820 51.89416 38.19118
# Shear Modulus (GPa) = 21.12397 34.33760 27.73079
#
# Velocity S-wave (km/s) = 3.24188 4.13327 3.71441
# Velocity P-wave (km/s) = 5.11826 6.97118 6.11531
#
# Compressibility (1/GPa) = 0.04083600
#
# Stress axis : x y z
#
# Youngs Moduli (GPa) = 108.16309 31.34224 76.85314
#
# Poissons Ratio (x) = 0.13147 0.46496
# Poissons Ratio (y) = 0.45372 -0.27523
# Poissons Ratio (z) = 0.65438 -0.11225
#
# Static dielectric constant tensor:
#      x y z
#    x 1.746360 0.000000 0.000000 
#    y 0.000000 1.755830 0.000000 
#    z 0.000000 0.000000 1.725280 
# 
# From -- ./inp_files/66791.got.cif
#   From: 2010.05.17/outbox.cif.g08.bks.cpg/sg71_34_cif.got.tgz:66791.got - 2010.06.03 16:22:01.
