data_PCOD9517234
_publ_section_title
;
Structure prediction by ZEFSAII (Michael W. Deem and Ramdas Pophale) SiO2 
 PCOD9517234
Probable space group: I M M M
;
_chemical_formula_sum "Si O2"
_cell_formula_units_Z 64
_cell_length_a 14.026933
_cell_length_b 21.034932
_cell_length_c 11.123321
_cell_angle_alpha 90.000000
_cell_angle_beta 90.000000
_cell_angle_gamma 90.000000
_cell_volume 3281.997949
_symmetry_space_group_name_H-M "I M M M"
_symmetry_group_IT_number 71
_symmetry_cell_setting 'orthorhombic'
loop_
_space_group_symop_operation_xyz
x,y,z
-x,-y,z
x,-y,-z
-x,y,-z
-x,-y,-z
x,y,-z
-x,y,z
x,-y,z
1/2+x,1/2+y,1/2+z
1/2-x,1/2-y,1/2+z
1/2+x,1/2-y,1/2-z
1/2-x,1/2+y,1/2-z
1/2-x,1/2-y,1/2-z
1/2+x,1/2+y,1/2-z
1/2-x,1/2+y,1/2+z
1/2+x,1/2-y,1/2+z
loop_
_atom_site_type_symbol
_atom_site_label
_atom_site_fract_x
_atom_site_fract_y
_atom_site_fract_z
Si Si1 0.794790 0.289614 0.500000
Si Si2 0.115183 0.147781 0.500000
Si Si3 0.887948 0.711118 0.000000
Si Si4 0.384735 0.644970 0.740342
Si Si5 0.612622 0.204561 0.238991
Si Si6 0.615917 0.573193 0.500000
O O1 0.848174 0.220513 0.500000
O O2 0.684660 0.269866 0.500000
O O3 0.830497 0.320337 0.624181
O O4 0.145269 0.118940 0.628247
O O5 0.000000 0.149742 0.500000
O O6 0.870828 0.676575 0.872662
O O7 0.000000 0.731548 0.000000
O O8 0.500000 0.642366 0.736306
O O9 0.362402 0.720414 0.744382
O O10 0.352273 0.607308 0.622950
O O11 0.500000 0.200609 0.213128
O O12 0.645398 0.500000 0.500000
O O13 0.500000 0.575019 0.500000
#
# Coordination Sequence:
#
# PCOD9517234 Si02
#       6
#     8   8   8  16  16   8
#     4  10  16  25  38  52  67  87 118 154 182 205
#     4   8  14  24  38  51  61  81 117 152 172 189
#     4  10  19  26  33  50  74  94 113 144 185 219
#     4   8  13  22  34  46  61  82 112 145 167 188
#     4   9  16  26  39  52  66  89 121 153 179 201
#     4   9  15  21  30  46  68  92 113 132 159 196
#
# _framework density 19.500316999999999
#
# number of rings (size 3 to 8) (size 9 to 14) (size 15 to 20)
#    0.000    3.125    0.000    4.125    0.000    3.000 
#    0.000    0.625    0.000    3.750    0.000    0.000 
#    0.000    0.000    0.000    0.000    0.000   60.000 
#
# Total GULP energy -178227.159558 kJ/mol
# GULP energy per Si atom -5569.598736 kJ/mol
# Density = 1.945593 g / cm^3
# Si number density = 19.500317 Si / 1000 Ang^3
#
#
#
# Elastic Constant Matrix: (Units=GPa)
#
#
# Indices 1 2 3 4 5 6 
#
# 1 78.3512 7.6277 42.0948 0.0000 0.0000 0.0000
# 2 7.6277 35.0334 30.2391 0.0000 0.0000 0.0000
# 3 42.0948 30.2391 222.9628 0.0000 0.0000 0.0000
# 4 0.0000 0.0000 0.0000 5.1756 0.0000 0.0000
# 5 0.0000 0.0000 0.0000 0.0000 12.4639 0.0000
# 6 0.0000 0.0000 0.0000 0.0000 0.0000 10.0369
#
#
#
# Elastic Compliance Matrix: (Units=1/GPa)
#
#
# Indices 1 2 3 4 5 6 
#
# 1 0.014228 -0.000882 -0.002566 0.000000 0.000000 0.000000
# 2 -0.000882 0.032383 -0.004225 0.000000 0.000000 0.000000
# 3 -0.002566 -0.004225 0.005543 0.000000 0.000000 0.000000
# 4 0.000000 0.000000 0.000000 0.193214 0.000000 0.000000
# 5 0.000000 0.000000 0.000000 0.000000 0.080232 0.000000
# 6 0.000000 0.000000 0.000000 0.000000 0.000000 0.099632
#
#
# Mechanical properties :
#
#
# Convention : Reuss Voigt Hill
#
# Bulk Modulus (GPa) = 27.17004 55.14118 41.15561
# Shear Modulus (GPa) = 11.04123 22.62769 16.83446
#
# Velocity S-wave (km/s) = 2.38209 3.41012 2.94137
# Velocity P-wave (km/s) = 4.63996 6.62146 5.71721
#
# Compressibility (1/GPa) = 0.03680524
#
# Stress axis : x y z
#
# Youngs Moduli (GPa) = 70.28484 30.87997 180.41879
#
# Poissons Ratio (x) = 0.02725 0.46304
# Poissons Ratio (y) = 0.06203 0.76233
# Poissons Ratio (z) = 0.18039 0.13048
#
# Static dielectric constant tensor:
#      x y z
#    x 1.743880 0.000000 0.000000 
#    y 0.000000 1.623570 0.000000 
#    z 0.000000 0.000000 1.840300 
# 
# From -- ./inp_files/6375.got.cif
#   From: 2010.05.17/outbox.cif.g08.bks.cpg/sg71_4_cif.got.tgz:6375.got - 2010.06.03 16:22:01.
