data_PCOD9517101
_publ_section_title
;
Structure prediction by ZEFSAII (Michael W. Deem and Ramdas Pophale) SiO2 
 PCOD9517101
Probable space group: F D D D
;
_chemical_formula_sum "Si O2"
_cell_formula_units_Z 88
_cell_length_a 17.977499
_cell_length_b 26.781519
_cell_length_c 7.516824
_cell_angle_alpha 90.000000
_cell_angle_beta 90.000000
_cell_angle_gamma 90.000000
_cell_volume 3619.085645
_symmetry_space_group_name_H-M "F D D D"
_symmetry_group_IT_number 70
_space_group.IT_coordinate_system_code '2'
_symmetry_cell_setting 'orthorhombic'
loop_
_space_group_symop_operation_xyz
x,y,z
1/4-x,1/4-y,z
x,1/4-y,1/4-z
1/4-x,y,1/4-z
-x,-y,-z
3/4+x,3/4+y,-z
-x,3/4+y,3/4+z
3/4+x,-y,3/4+z
x,1/2+y,1/2+z
1/4-x,3/4-y,1/2+z
x,3/4-y,3/4-z
1/4-x,1/2+y,3/4-z
-x,1/2-y,1/2-z
3/4+x,1/4+y,1/2-z
-x,1/4+y,1/4+z
3/4+x,1/2-y,1/4+z
1/2+x,y,1/2+z
3/4-x,1/4-y,1/2+z
1/2+x,1/4-y,3/4-z
3/4-x,y,3/4-z
1/2-x,-y,1/2-z
1/4+x,3/4+y,1/2-z
1/2-x,3/4+y,1/4+z
1/4+x,-y,1/4+z
1/2+x,1/2+y,z
3/4-x,3/4-y,z
1/2+x,3/4-y,1/4-z
3/4-x,1/2+y,1/4-z
1/2-x,1/2-y,-z
1/4+x,1/4+y,-z
1/2-x,1/4+y,3/4+z
1/4+x,1/2-y,3/4+z
loop_
_atom_site_type_symbol
_atom_site_label
_atom_site_fract_x
_atom_site_fract_y
_atom_site_fract_z
Si Si1 0.187158 0.375000 0.875000
Si Si2 0.732171 0.197373 0.341324
Si Si3 0.375000 0.375000 0.375000
Si Si4 0.364479 0.523786 0.171006
O O1 0.231945 0.408060 0.731192
O O2 0.134741 0.331403 0.807685
O O3 0.677843 0.160062 0.238522
O O4 0.678018 0.240166 0.423776
O O5 0.789841 0.223490 0.199445
O O6 0.375000 0.505186 0.375000
#
# Coordination Sequence:
#
# PCOD9517101 Si02
#       4
#    16  32   8  32
#     4  12  27  47  76 108 164 204 268 316 418 478
#     4  12  28  48  78 116 157 215 261 342 393 494
#     4  12  26  50  76 110 156 206 278 320 424 458
#     4  12  25  50  79 116 157 205 267 332 408 475
#
# _framework density 24.315532999999999
#
# number of rings (size 3 to 8) (size 9 to 14) (size 15 to 20)
#    0.000    0.000    1.818    8.727    5.091    0.727 
#    0.000    0.000    0.000    0.000    0.000    0.000 
#    0.000    0.000    0.000    0.000    0.000    0.000 
#
# Total GULP energy -122638.597324 kJ/mol
# GULP energy per Si atom -5574.481697 kJ/mol
# Density = 2.426019 g / cm^3
# Si number density = 24.315533 Si / 1000 Ang^3
#
#
#
# Elastic Constant Matrix: (Units=GPa)
#
#
# Indices 1 2 3 4 5 6 
#
# 1 161.7524 42.0314 54.7959 0.0001 0.0001 0.0000
# 2 42.0314 154.2742 4.5137 0.0001 0.0000 0.0000
# 3 54.7959 4.5137 107.1945 0.0004 0.0002 0.0001
# 4 0.0001 0.0001 0.0004 -17.7504 -0.0001 -0.0001
# 5 0.0001 0.0000 0.0002 -0.0001 7.5597 0.0000
# 6 0.0000 0.0000 0.0001 -0.0001 0.0000 75.1188
#
#
#
# Elastic Compliance Matrix: (Units=1/GPa)
#
#
# Indices 1 2 3 4 5 6 
#
# 1 0.008097 -0.002088 -0.004051 0.000000 0.000000 0.000000
# 2 -0.002088 0.007028 0.000771 0.000000 0.000000 0.000000
# 3 -0.004051 0.000771 0.011367 0.000000 0.000000 0.000000
# 4 0.000000 0.000000 0.000000 -0.056337 -0.000001 0.000000
# 5 0.000000 0.000000 0.000000 -0.000001 0.132281 0.000000
# 6 0.000000 0.000000 0.000000 0.000000 0.000000 0.013312
#
#
# Mechanical properties :
#
#
# Convention : Reuss Voigt Hill
#
# Bulk Modulus (GPa) = 63.46214 69.54479 66.50346
# Shear Modulus (GPa) = 37.95452 34.44427 36.19940
#
# Velocity S-wave (km/s) = 3.95513 3.76780 3.86260
# Velocity P-wave (km/s) = 6.85664 6.89866 6.87768
#
# Compressibility (1/GPa) = 0.01575743
#
# Stress axis : x y z
#
# Youngs Moduli (GPa) = 123.50052 142.28527 87.97187
#
# Poissons Ratio (x) = 0.29702 0.35639
# Poissons Ratio (y) = 0.25781 -0.06784
# Poissons Ratio (z) = 0.50033 -0.10972
#
# Static dielectric constant tensor:
#      x y z
#    x 2.017750 0.000000 0.000000 
#    y 0.000000 2.835460 0.000000 
#    z 0.000000 0.000000 2.446160 
# 
# From -- ./inp_files/7116.got.cif
#   From: 2010.05.17/outbox.cif.g08.bks.cpg/sg70_4_cif.got.tgz:7116.got - 2010.06.03 15:57:51.
