data_PCOD9517457
_publ_section_title
;
Structure prediction by ZEFSAII (Michael W. Deem and Ramdas Pophale) SiO2 
 PCOD9517457
Probable space group: I M M M
;
_chemical_formula_sum "Si O2"
_cell_formula_units_Z 104
_cell_length_a 26.355277
_cell_length_b 9.960075
_cell_length_c 23.250601
_cell_angle_alpha 90.000000
_cell_angle_beta 90.000000
_cell_angle_gamma 90.000000
_cell_volume 6103.295215
_symmetry_space_group_name_H-M "I M M M"
_symmetry_group_IT_number 71
_symmetry_cell_setting 'orthorhombic'
loop_
_space_group_symop_operation_xyz
x,y,z
-x,-y,z
x,-y,-z
-x,y,-z
-x,-y,-z
x,y,-z
-x,y,z
x,-y,z
1/2+x,1/2+y,1/2+z
1/2-x,1/2-y,1/2+z
1/2+x,1/2-y,1/2-z
1/2-x,1/2+y,1/2-z
1/2-x,1/2-y,1/2-z
1/2+x,1/2+y,1/2-z
1/2-x,1/2+y,1/2+z
1/2+x,1/2-y,1/2+z
loop_
_atom_site_type_symbol
_atom_site_label
_atom_site_fract_x
_atom_site_fract_y
_atom_site_fract_z
Si Si1 0.000000 0.837835 0.930470
Si Si2 0.306799 0.157160 0.685989
Si Si3 0.560529 0.000000 0.933014
Si Si4 0.209782 0.341384 0.677981
Si Si5 0.418749 0.158996 0.362756
Si Si6 0.059057 0.000000 0.568602
Si Si7 0.442142 0.849100 0.231001
Si Si8 0.890529 0.752663 0.628661
O O1 0.049277 0.758781 0.903800
O O2 0.000000 0.000000 0.917000
O O3 0.000000 0.825637 0.000000
O O4 0.261958 0.260053 0.671628
O O5 0.310769 0.169874 0.755802
O O6 0.358750 0.184138 0.650546
O O7 0.293470 0.000000 0.675612
O O8 0.583202 0.873235 0.901215
O O9 0.500000 0.000000 0.929025
O O10 0.574391 0.000000 0.000000
O O11 0.215770 0.500000 0.666687
O O12 0.168559 0.275601 0.636036
O O13 0.441422 0.174196 0.298688
O O14 0.424563 0.000000 0.379409
O O15 0.090096 0.124419 0.592498
O O16 0.058114 0.000000 0.500000
O O17 0.000000 0.000000 0.588210
O O18 0.500000 0.850939 0.210915
O O19 0.412531 0.742701 0.193333
O O20 0.420081 0.000000 0.222411
#
# Coordination Sequence:
#
# PCOD9517457 Si02
#       8
#     8  16   8  16  16   8  16  16
#     4  11  25  43  61  87 125 163 194 233 290 349
#     4   9  19  34  56  85 124 157 186 232 291 352
#     4  11  22  36  58  83 108 150 204 244 283 349
#     4  10  19  34  55  86 119 154 192 235 294 353
#     4  10  19  36  60  90 119 154 194 237 280 346
#     4  11  26  44  56  75 116 162 200 246 301 349
#     4  10  17  29  53  84 120 146 177 233 295 338
#     4  12  21  36  57  83 114 153 195 249 293 350
#
# _framework density 17.039975999999999
#
# number of rings (size 3 to 8) (size 9 to 14) (size 15 to 20)
#    0.000    1.615    3.846    2.077    1.077    2.462 
#    1.385    0.000    0.000    1.846    0.000    0.000 
#    0.000    0.000    0.000    0.000    0.000    0.000 
#
# Total GULP energy -289816.344863 kJ/mol
# GULP energy per Si atom -5573.391247 kJ/mol
# Density = 1.700119 g / cm^3
# Si number density = 17.039976 Si / 1000 Ang^3
#
#
#
# Elastic Constant Matrix: (Units=GPa)
#
#
# Indices 1 2 3 4 5 6 
#
# 1 132.3302 75.0550 40.9063 0.0000 0.0000 0.0000
# 2 75.0550 131.4955 49.4956 0.0000 0.0000 0.0000
# 3 40.9063 49.4956 71.0749 0.0000 0.0000 0.0000
# 4 0.0000 0.0000 0.0000 -93.3223 0.0000 0.0000
# 5 0.0000 0.0000 0.0000 0.0000 3.8032 0.0000
# 6 0.0000 0.0000 0.0000 0.0000 0.0000 39.1844
#
#
#
# Elastic Compliance Matrix: (Units=1/GPa)
#
#
# Indices 1 2 3 4 5 6 
#
# 1 0.011569 -0.005553 -0.002792 0.000000 0.000000 0.000000
# 2 -0.005553 0.012971 -0.005837 0.000000 0.000000 0.000000
# 3 -0.002792 -0.005837 0.019741 0.000000 0.000000 0.000000
# 4 0.000000 0.000000 0.000000 -0.010716 0.000000 0.000000
# 5 0.000000 0.000000 0.000000 0.000000 0.262936 0.000000
# 6 0.000000 0.000000 0.000000 0.000000 0.000000 0.025520
#
#
# Mechanical properties :
#
#
# Convention : Reuss Voigt Hill
#
# Bulk Modulus (GPa) = 62.81955 73.97940 68.39948
# Shear Modulus (GPa) = 14.05708 1.22932 7.64320
#
# Velocity S-wave (km/s) = 2.87531 0.85029 2.12019
# Velocity P-wave (km/s) = 6.92598 6.66884 6.79863
#
# Compressibility (1/GPa) = 0.01591861
#
# Stress axis : x y z
#
# Youngs Moduli (GPa) = 86.43653 77.09287 50.65486
#
# Poissons Ratio (x) = 0.42807 0.14141
# Poissons Ratio (y) = 0.47995 0.29569
# Poissons Ratio (z) = 0.24131 0.45002
#
# Static dielectric constant tensor:
#      x y z
#    x 1.610550 0.000000 0.000000 
#    y 0.000000 1.576380 0.000000 
#    z 0.000000 0.000000 1.585700 
# 
# From -- ./inp_files/62014.got.cif
#   From: 2010.05.17/outbox.cif.g08.bks.cpg/sg71_32_cif.got.tgz:62014.got - 2010.06.03 16:22:01.
