data_PCOD9517620
_publ_section_title
;
Structure prediction by ZEFSAII (Michael W. Deem and Ramdas Pophale) SiO2 
 PCOD9517620
Probable space group: I M M M
;
_chemical_formula_sum "Si O2"
_cell_formula_units_Z 84
_cell_length_a 21.146335
_cell_length_b 20.030779
_cell_length_c 11.546921
_cell_angle_alpha 90.000000
_cell_angle_beta 90.000000
_cell_angle_gamma 90.000000
_cell_volume 4891.016658
_symmetry_space_group_name_H-M "I M M M"
_symmetry_group_IT_number 71
_symmetry_cell_setting 'orthorhombic'
loop_
_space_group_symop_operation_xyz
x,y,z
-x,-y,z
x,-y,-z
-x,y,-z
-x,-y,-z
x,y,-z
-x,y,z
x,-y,z
1/2+x,1/2+y,1/2+z
1/2-x,1/2-y,1/2+z
1/2+x,1/2-y,1/2-z
1/2-x,1/2+y,1/2-z
1/2-x,1/2-y,1/2-z
1/2+x,1/2+y,1/2-z
1/2-x,1/2+y,1/2+z
1/2+x,1/2-y,1/2+z
loop_
_atom_site_type_symbol
_atom_site_label
_atom_site_fract_x
_atom_site_fract_y
_atom_site_fract_z
Si Si1 0.136391 0.123878 0.736962
Si Si2 0.773511 0.626142 0.136713
Si Si3 0.000000 0.343662 0.865361
Si Si4 0.634538 0.000000 0.363303
Si Si5 0.426961 0.500000 0.361910
Si Si6 0.500000 0.000000 0.312930
Si Si7 0.924321 0.921462 0.500000
Si Si8 0.876103 0.734894 0.140041
O O1 0.211048 0.117451 0.712061
O O2 0.102132 0.114128 0.613843
O O3 0.123187 0.194658 0.796324
O O4 0.108987 0.064872 0.815741
O O5 0.822018 0.564765 0.150897
O O6 0.812492 0.693076 0.163948
O O7 0.755903 0.627336 0.000000
O O8 0.064096 0.309992 0.819783
O O9 0.000000 0.423664 0.860575
O O10 0.000000 0.326426 0.000000
O O11 0.611406 0.000000 0.500000
O O12 0.574590 0.000000 0.277409
O O13 0.500000 0.500000 0.318883
O O14 0.428214 0.500000 0.500000
O O15 0.000000 0.920309 0.500000
O O16 0.904048 0.000000 0.500000
O O17 0.879093 0.743634 0.000000
#
# Coordination Sequence:
#
# PCOD9517620 Si02
#       8
#    16  16   8   8   8   4   8  16
#     4  12  22  39  60  81 113 154 192 236 287 346
#     4  10  20  35  53  84 115 151 192 232 284 340
#     4  10  19  32  52  84 116 150 185 225 290 337
#     4  10  18  27  50  78 112 142 182 230 275 333
#     4  11  25  41  60  86 111 147 193 239 293 353
#     4  12  17  30  54  82 110 149 186 233 280 330
#     4  11  24  40  58  84 110 146 196 244 287 330
#     4  10  22  36  55  83 120 153 188 238 290 345
#
# _framework density 17.174344000000001
#
# number of rings (size 3 to 8) (size 9 to 14) (size 15 to 20)
#    0.000    1.333    3.810    3.143    2.667    0.000 
#    0.000    0.000    0.000    0.000    0.000    0.000 
#    0.000    0.762    0.000    2.667    0.000    0.000 
#
# Total GULP energy -234150.921270 kJ/mol
# GULP energy per Si atom -5575.021935 kJ/mol
# Density = 1.713525 g / cm^3
# Si number density = 17.174344 Si / 1000 Ang^3
#
#
#
# Elastic Constant Matrix: (Units=GPa)
#
#
# Indices 1 2 3 4 5 6 
#
# 1 136.3885 69.5130 38.8836 0.0000 0.0000 0.0000
# 2 69.5130 152.7749 44.4987 0.0000 0.0000 0.0000
# 3 38.8836 44.4987 55.1753 0.0000 0.0000 0.0000
# 4 0.0000 0.0000 0.0000 10.1152 0.0000 0.0000
# 5 0.0000 0.0000 0.0000 0.0000 13.3823 0.0000
# 6 0.0000 0.0000 0.0000 0.0000 0.0000 22.2030
#
#
#
# Elastic Compliance Matrix: (Units=1/GPa)
#
#
# Indices 1 2 3 4 5 6 
#
# 1 0.010359 -0.003381 -0.004573 0.000000 0.000000 0.000000
# 2 -0.003381 0.009659 -0.005407 0.000000 0.000000 0.000000
# 3 -0.004573 -0.005407 0.025708 0.000000 0.000000 0.000000
# 4 0.000000 0.000000 0.000000 0.098861 0.000000 0.000000
# 5 0.000000 0.000000 0.000000 0.000000 0.074725 0.000000
# 6 0.000000 0.000000 0.000000 0.000000 0.000000 0.045039
#
#
# Mechanical properties :
#
#
# Convention : Reuss Voigt Hill
#
# Bulk Modulus (GPa) = 52.62465 72.23657 62.43061
# Shear Modulus (GPa) = 16.81185 21.90299 19.35742
#
# Velocity S-wave (km/s) = 3.13212 3.57505 3.36089
# Velocity P-wave (km/s) = 6.61726 7.69372 7.17571
#
# Compressibility (1/GPa) = 0.01900250
#
# Stress axis : x y z
#
# Youngs Moduli (GPa) = 96.53229 103.53011 38.89871
#
# Poissons Ratio (x) = 0.35008 0.17790
# Poissons Ratio (y) = 0.32641 0.21033
# Poissons Ratio (z) = 0.44148 0.55979
#
# Static dielectric constant tensor:
#      x y z
#    x 1.605210 0.000000 0.000000 
#    y 0.000000 1.563360 0.000000 
#    z 0.000000 0.000000 1.561990 
# 
# From -- ./inp_files/25932.got.cif
#   From: 2010.05.17/outbox.cif.g08.bks.cpg/sg71_13_cif.got.tgz:25932.got - 2010.06.03 16:22:01.
