data_PCOD9517570
_publ_section_title
;
Structure prediction by ZEFSAII (Michael W. Deem and Ramdas Pophale) SiO2 
 PCOD9517570
Probable space group: I M M M
;
_chemical_formula_sum "Si O2"
_cell_formula_units_Z 128
_cell_length_a 24.061973
_cell_length_b 7.279260
_cell_length_c 35.282683
_cell_angle_alpha 90.000000
_cell_angle_beta 90.000000
_cell_angle_gamma 90.000000
_cell_volume 6179.880392
_symmetry_space_group_name_H-M "I M M M"
_symmetry_group_IT_number 71
_symmetry_cell_setting 'orthorhombic'
loop_
_space_group_symop_operation_xyz
x,y,z
-x,-y,z
x,-y,-z
-x,y,-z
-x,-y,-z
x,y,-z
-x,y,z
x,-y,z
1/2+x,1/2+y,1/2+z
1/2-x,1/2-y,1/2+z
1/2+x,1/2-y,1/2-z
1/2-x,1/2+y,1/2-z
1/2-x,1/2-y,1/2-z
1/2+x,1/2+y,1/2-z
1/2-x,1/2+y,1/2+z
1/2+x,1/2-y,1/2+z
loop_
_atom_site_type_symbol
_atom_site_label
_atom_site_fract_x
_atom_site_fract_y
_atom_site_fract_z
Si Si1 0.129221 0.221092 0.267964
Si Si2 0.168781 0.777149 0.386209
Si Si3 0.436166 0.224663 0.615372
Si Si4 0.738436 0.723640 0.042863
Si Si5 0.139098 0.712748 0.815472
Si Si6 0.062963 0.776077 0.342550
Si Si7 0.763948 0.222988 0.689386
Si Si8 0.633990 0.776729 0.457030
O O1 0.112282 0.278850 0.226079
O O2 0.088803 0.279622 0.301979
O O3 0.191843 0.284838 0.278820
O O4 0.129716 0.000000 0.268418
O O5 0.195815 0.713250 0.425195
O O6 0.106941 0.718126 0.374607
O O7 0.208320 0.729304 0.350867
O O8 0.167881 0.000000 0.387493
O O9 0.500000 0.283149 0.617956
O O10 0.399221 0.287392 0.651103
O O11 0.407053 0.282066 0.576169
O O12 0.436564 0.000000 0.615685
O O13 0.738112 0.500000 0.043298
O O14 0.802195 0.777775 0.051171
O O15 0.724936 0.780378 0.000000
O O16 0.147900 0.500000 0.825775
O O17 0.201053 0.791917 0.810219
O O18 0.000000 0.714773 0.347635
O O19 0.062683 0.000000 0.342529
O O20 0.762877 0.000000 0.692033
O O21 0.619909 0.718838 0.500000
O O22 0.633373 0.000000 0.457175
#
# Coordination Sequence:
#
# PCOD9517570 Si02
#       8
#    16  16  16  16  16  16  16  16
#     4   9  17  28  41  57  75  95 125 164 195 219
#     4   8  12  19  32  48  67  91 119 153 188 219
#     4   9  17  26  34  48  72 100 127 152 182 225
#     4   8  12  17  27  45  67  90 118 151 186 224
#     4  10  18  27  40  56  77 103 125 150 190 236
#     4   8  14  24  37  51  65  86 121 160 190 216
#     4   8  14  24  38  55  72  93 124 158 190 224
#     4   8  13  21  33  48  67  94 126 155 182 216
#
# _framework density 20.712375999999999
#
# number of rings (size 3 to 8) (size 9 to 14) (size 15 to 20)
#    0.000    3.500    0.000    3.375    0.000    3.750 
#    0.000    1.250    0.000    0.375    0.000    2.625 
#    0.000    0.500    0.000    1.125    0.000   24.125 
#
# Total GULP energy -357110.803297 kJ/mol
# GULP energy per Si atom -5579.856302 kJ/mol
# Density = 2.066523 g / cm^3
# Si number density = 20.712376 Si / 1000 Ang^3
#
#
#
# Elastic Constant Matrix: (Units=GPa)
#
#
# Indices 1 2 3 4 5 6 
#
# 1 147.0218 5.6305 109.1121 0.0000 0.0000 0.0000
# 2 5.6305 87.8219 -0.3214 0.0000 0.0000 0.0000
# 3 109.1121 -0.3214 168.2107 0.0000 0.0000 0.0000
# 4 0.0000 0.0000 0.0000 -2.1499 0.0000 0.0000
# 5 0.0000 0.0000 0.0000 0.0000 18.2351 0.0000
# 6 0.0000 0.0000 0.0000 0.0000 0.0000 -19.5340
#
#
#
# Elastic Compliance Matrix: (Units=1/GPa)
#
#
# Indices 1 2 3 4 5 6 
#
# 1 0.013183 -0.000876 -0.008553 0.000000 0.000000 0.000000
# 2 -0.000876 0.011445 0.000590 0.000000 0.000000 0.000000
# 3 -0.008553 0.000590 0.011494 0.000000 0.000000 0.000000
# 4 0.000000 0.000000 0.000000 -0.465129 0.000000 0.000000
# 5 0.000000 0.000000 0.000000 0.000000 0.054839 0.000000
# 6 0.000000 0.000000 0.000000 0.000000 0.000000 -0.051193
#
#
# Mechanical properties :
#
#
# Convention : Reuss Voigt Hill
#
# Bulk Modulus (GPa) = 54.21840 70.21077 62.21458
# Shear Modulus (GPa) = -12.45222 18.55245 3.05011
#
# Velocity S-wave (km/s) = -2.45459 2.99610 1.21483
# Velocity P-wave (km/s) = 4.26618 6.77793 5.66307
#
# Compressibility (1/GPa) = 0.01844392
#
# Stress axis : x y z
#
# Youngs Moduli (GPa) = 75.85652 87.37413 87.00204
#
# Poissons Ratio (x) = 0.07658 0.74412
# Poissons Ratio (y) = 0.06649 -0.05137
# Poissons Ratio (z) = 0.64879 -0.05159
#
# Static dielectric constant tensor:
#      x y z
#    x 1.713240 0.000000 0.000000 
#    y 0.000000 7.430460 0.000000 
#    z 0.000000 0.000000 1.713050 
# 
# From -- ./inp_files/67021.got.cif
#   From: 2010.05.17/outbox.cif.g08.bks.cpg/sg71_34_cif.got.tgz:67021.got - 2010.06.03 16:22:01.
