data_PCOD9517205
_publ_section_title
;
Structure prediction by ZEFSAII (Michael W. Deem and Ramdas Pophale) SiO2 
 PCOD9517205
Probable space group: F D D D
;
_chemical_formula_sum "Si O2"
_cell_formula_units_Z 48
_cell_length_a 24.000000
_cell_length_b 15.000000
_cell_length_c 27.000000
_cell_angle_alpha 90.000000
_cell_angle_beta 90.000000
_cell_angle_gamma 90.000000
_cell_volume 9720.000000
_symmetry_space_group_name_H-M "F D D D"
_symmetry_group_IT_number 70
_space_group.IT_coordinate_system_code '2'
_symmetry_cell_setting 'orthorhombic'
loop_
_space_group_symop_operation_xyz
x,y,z
1/4-x,1/4-y,z
x,1/4-y,1/4-z
1/4-x,y,1/4-z
-x,-y,-z
3/4+x,3/4+y,-z
-x,3/4+y,3/4+z
3/4+x,-y,3/4+z
x,1/2+y,1/2+z
1/4-x,3/4-y,1/2+z
x,3/4-y,3/4-z
1/4-x,1/2+y,3/4-z
-x,1/2-y,1/2-z
3/4+x,1/4+y,1/2-z
-x,1/4+y,1/4+z
3/4+x,1/2-y,1/4+z
1/2+x,y,1/2+z
3/4-x,1/4-y,1/2+z
1/2+x,1/4-y,3/4-z
3/4-x,y,3/4-z
1/2-x,-y,1/2-z
1/4+x,3/4+y,1/2-z
1/2-x,3/4+y,1/4+z
1/4+x,-y,1/4+z
1/2+x,1/2+y,z
3/4-x,3/4-y,z
1/2+x,3/4-y,1/4-z
3/4-x,1/2+y,1/4-z
1/2-x,1/2-y,-z
1/4+x,1/4+y,-z
1/2-x,1/4+y,3/4+z
1/4+x,1/2-y,3/4+z
loop_
_atom_site_type_symbol
_atom_site_label
_atom_site_fract_x
_atom_site_fract_y
_atom_site_fract_z
Si Si1 0.817697 0.928672 0.123141
Si Si2 0.625000 0.856179 0.625000
Si Si3 0.718185 0.475368 0.974784
Si Si4 0.864446 0.069932 0.197180
Si Si5 0.980768 0.038992 0.838162
Si Si6 0.459296 0.625000 0.125000
Si Si7 0.905830 0.785612 0.458029
O O1 0.875000 0.875000 0.118552
O O2 0.775806 0.868554 0.155622
O O3 0.796387 0.952705 0.067950
O O4 0.831517 0.018084 0.153810
O O5 0.673637 0.918072 0.604992
O O6 0.646493 0.792476 0.668696
O O7 0.673728 0.396289 0.970146
O O8 0.779503 0.441836 0.961569
O O9 0.723267 0.500058 0.032769
O O10 0.918556 0.113986 0.171965
O O11 0.883143 0.000116 0.239178
O O12 0.002815 0.962077 0.874264
O O13 0.875000 0.875000 0.442946
#
# Coordination Sequence:
#
# PCOD9517205 Si02
#       7
#    32  16  32  32  32  16  32
#     4  12  23  44  71 103 137 179 235 293 343 408
#     4  12  27  47  66 100 150 180 224 287 353 426
#     4  12  24  42  71 102 136 184 228 283 350 412
#     4  12  23  42  71 104 136 174 234 286 339 421
#     4  12  26  46  68  98 141 183 232 288 351 418
#     4  12  24  47  72  94 133 182 236 292 340 400
#     4  12  26  43  69 106 142 183 222 280 360 422
#
# _framework density 4.9382720000000004
#
# number of rings (size 3 to 8) (size 9 to 14) (size 15 to 20)
#    0.000    0.000    8.333    1.750    2.333    3.000 
#    3.000    1.667    0.000    0.000    0.000    0.000 
#    0.000    0.000    0.000    0.000    0.000    0.000 
#
# Total GULP energy -268342.248050 kJ/mol
# GULP energy per Si atom -5590.463501 kJ/mol
# Density = 0.492703 g / cm^3
# Si number density = 4.938272 Si / 1000 Ang^3
#
#
#
# Elastic Constant Matrix: (Units=GPa)
#
#
# Indices 1 2 3 4 5 6 
#
# 1 30.2801 -34.1869 -4.0643 0.0000 0.0000 0.0000
# 2 -34.1869 24.4983 1.5089 0.0000 0.0000 0.0000
# 3 -4.0643 1.5089 97.7743 0.0000 0.0000 0.0000
# 4 0.0000 0.0000 0.0000 11.3669 0.0000 0.0000
# 5 0.0000 0.0000 0.0000 0.0000 30.3693 0.0000
# 6 0.0000 0.0000 0.0000 0.0000 0.0000 17.1469
#
#
#
# Elastic Compliance Matrix: (Units=1/GPa)
#
#
# Indices 1 2 3 4 5 6 
#
# 1 -0.057253 -0.079825 -0.001148 0.000000 0.000000 0.000000
# 2 -0.079825 -0.070437 -0.002231 0.000000 0.000000 0.000000
# 3 -0.001148 -0.002231 0.010214 0.000000 0.000000 0.000000
# 4 0.000000 0.000000 0.000000 0.087975 0.000000 0.000000
# 5 0.000000 0.000000 0.000000 0.000000 0.032928 0.000000
# 6 0.000000 0.000000 0.000000 0.000000 0.000000 0.058320
#
#
# Mechanical properties :
#
#
# Convention : Reuss Voigt Hill
#
# Bulk Modulus (GPa) = -3.52257 8.78534 2.63138
# Shear Modulus (GPa) = 37.44571 24.39629 30.92100
#
# Velocity S-wave (km/s) = 4.35867 3.51816 3.96078
# Velocity P-wave (km/s) = 4.85217 4.57826 4.71720
#
# Compressibility (1/GPa) = -0.28388389
#
# Stress axis : x y z
#
# Youngs Moduli (GPa) = -17.46632 -14.19703 97.90153
#
# Poissons Ratio (x) = -1.13327 0.11239
# Poissons Ratio (y) = -1.39424 0.21844
# Poissons Ratio (z) = -0.02005 -0.03168
#
# Static dielectric constant tensor:
#      x y z
#    x 1.668340 0.000000 0.000000 
#    y 0.000000 1.672140 0.000000 
#    z 0.000000 0.000000 1.694540 
# 
# From -- ./inp_files/51429.got.cif
#   From: 2010.05.17/outbox.ucp.g08.bks.cvg/sg70_26_cif.got.tgz:51429.got - 2010.06.11 16:26:41.
