data_PCOD9517482
_publ_section_title
;
Structure prediction by ZEFSAII (Michael W. Deem and Ramdas Pophale) SiO2 
 PCOD9517482
Probable space group: I M M M
;
_chemical_formula_sum "Si O2"
_cell_formula_units_Z 72
_cell_length_a 24.130495
_cell_length_b 18.098585
_cell_length_c 8.693699
_cell_angle_alpha 90.000000
_cell_angle_beta 90.000000
_cell_angle_gamma 90.000000
_cell_volume 3796.780167
_symmetry_space_group_name_H-M "I M M M"
_symmetry_group_IT_number 71
_symmetry_cell_setting 'orthorhombic'
loop_
_space_group_symop_operation_xyz
x,y,z
-x,-y,z
x,-y,-z
-x,y,-z
-x,-y,-z
x,y,-z
-x,y,z
x,-y,z
1/2+x,1/2+y,1/2+z
1/2-x,1/2-y,1/2+z
1/2+x,1/2-y,1/2-z
1/2-x,1/2+y,1/2-z
1/2-x,1/2-y,1/2-z
1/2+x,1/2+y,1/2-z
1/2-x,1/2+y,1/2+z
1/2+x,1/2-y,1/2+z
loop_
_atom_site_type_symbol
_atom_site_label
_atom_site_fract_x
_atom_site_fract_y
_atom_site_fract_z
Si Si1 0.110676 0.149080 0.323827
Si Si2 0.000000 0.390629 0.177912
Si Si3 0.500000 0.744548 0.166867
Si Si4 0.124832 0.417987 0.812339
Si Si5 0.809921 0.730227 0.816658
Si Si6 0.565043 0.500000 0.684345
O O1 0.130092 0.139395 0.500000
O O2 0.151850 0.201119 0.230868
O O3 0.053325 0.193791 0.327049
O O4 0.096496 0.071484 0.247382
O O5 0.000000 0.302586 0.196756
O O6 0.939667 0.413597 0.241381
O O7 0.000000 0.413552 0.000000
O O8 0.500000 0.784475 0.000000
O O9 0.146459 0.500000 0.770808
O O10 0.160966 0.346925 0.760936
O O11 0.123333 0.414181 0.000000
O O12 0.750000 0.750000 0.750000
O O13 0.805957 0.724525 0.000000
O O14 0.500000 0.500000 0.734971
O O15 0.565132 0.500000 0.500000
#
# Coordination Sequence:
#
# PCOD9517482 Si02
#       6
#    16   8   8  16  16   8
#     4  11  22  39  61  86 119 160 202 246 301 364
#     4  10  17  30  57  89 117 146 184 233 290 357
#     4  10  20  32  54  85 120 156 191 234 291 360
#     4   9  18  33  57  89 118 146 187 238 291 347
#     4  11  23  41  63  85 115 157 206 255 301 354
#     4  11  23  37  59  93 129 159 195 246 303 366
#
# _framework density 18.963436000000002
#
# number of rings (size 3 to 8) (size 9 to 14) (size 15 to 20)
#    0.000    1.667    3.333    2.000    0.000    2.667 
#    2.000    0.000    0.000    6.000    0.000    0.000 
#    0.000    0.000    0.000    0.000    0.000    0.000 
#
# Total GULP energy -200762.281891 kJ/mol
# GULP energy per Si atom -5576.730053 kJ/mol
# Density = 1.892027 g / cm^3
# Si number density = 18.963436 Si / 1000 Ang^3
#
#
#
# Elastic Constant Matrix: (Units=GPa)
#
#
# Indices 1 2 3 4 5 6 
#
# 1 133.2452 71.5327 27.0006 0.0000 0.0000 0.0000
# 2 71.5327 177.3503 34.4140 0.0000 0.0000 0.0000
# 3 27.0006 34.4140 44.3650 0.0000 0.0000 0.0000
# 4 0.0000 0.0000 0.0000 13.4849 0.0000 0.0000
# 5 0.0000 0.0000 0.0000 0.0000 26.9106 0.0000
# 6 0.0000 0.0000 0.0000 0.0000 0.0000 1.8419
#
#
#
# Elastic Compliance Matrix: (Units=1/GPa)
#
#
# Indices 1 2 3 4 5 6 
#
# 1 0.010017 -0.003364 -0.003487 0.000000 0.000000 0.000000
# 2 -0.003364 0.007767 -0.003978 0.000000 0.000000 0.000000
# 3 -0.003487 -0.003978 0.027748 0.000000 0.000000 0.000000
# 4 0.000000 0.000000 0.000000 0.074157 0.000000 0.000000
# 5 0.000000 0.000000 0.000000 0.000000 0.037160 0.000000
# 6 0.000000 0.000000 0.000000 0.000000 0.000000 0.542910
#
#
# Mechanical properties :
#
#
# Convention : Reuss Voigt Hill
#
# Bulk Modulus (GPa) = 41.88471 68.98390 55.43430
# Shear Modulus (GPa) = 6.85517 23.24836 15.05176
#
# Velocity S-wave (km/s) = 1.90336 3.50517 2.82037
# Velocity P-wave (km/s) = 5.19282 7.26897 6.31678
#
# Compressibility (1/GPa) = 0.02387506
#
# Stress axis : x y z
#
# Youngs Moduli (GPa) = 99.82559 128.74692 36.03819
#
# Poissons Ratio (x) = 0.43307 0.12568
# Poissons Ratio (y) = 0.33579 0.14335
# Poissons Ratio (z) = 0.34813 0.51213
#
# Static dielectric constant tensor:
#      x y z
#    x 1.683080 0.000000 0.000000 
#    y 0.000000 2.099640 0.000000 
#    z 0.000000 0.000000 1.688230 
# 
# From -- ./inp_files/8012.got.cif
#   From: 2010.05.17/outbox.cif.g08.bks.cpg/sg71_5_cif.got.tgz:8012.got - 2010.06.03 16:22:01.
