data_PCOD9517973
_publ_section_title
;
Structure prediction by ZEFSAII (Michael W. Deem and Ramdas Pophale) SiO2 
 PCOD9517973
Probable space group: I M M M
;
_chemical_formula_sum "Si O2"
_cell_formula_units_Z 96
_cell_length_a 7.254432
_cell_length_b 21.081207
_cell_length_c 27.079596
_cell_angle_alpha 90.000000
_cell_angle_beta 90.000000
_cell_angle_gamma 90.000000
_cell_volume 4141.341722
_symmetry_space_group_name_H-M "I M M M"
_symmetry_group_IT_number 71
_symmetry_cell_setting 'orthorhombic'
loop_
_space_group_symop_operation_xyz
x,y,z
-x,-y,z
x,-y,-z
-x,y,-z
-x,-y,-z
x,y,-z
-x,y,z
x,-y,z
1/2+x,1/2+y,1/2+z
1/2-x,1/2-y,1/2+z
1/2+x,1/2-y,1/2-z
1/2-x,1/2+y,1/2-z
1/2-x,1/2-y,1/2-z
1/2+x,1/2+y,1/2-z
1/2-x,1/2+y,1/2+z
1/2+x,1/2-y,1/2+z
loop_
_atom_site_type_symbol
_atom_site_label
_atom_site_fract_x
_atom_site_fract_y
_atom_site_fract_z
Si Si1 0.776070 0.185880 0.500000
Si Si2 0.780405 0.248824 0.309535
Si Si3 0.276028 0.000000 0.254905
Si Si4 0.776112 0.567619 0.575471
Si Si5 0.223919 0.391327 0.681678
Si Si6 0.224622 0.329682 0.500000
Si Si7 0.225353 0.858511 0.389763
Si Si8 0.792559 0.000000 0.368374
O O1 0.714329 0.258462 0.500000
O O2 0.721254 0.159104 0.446124
O O3 0.000000 0.182682 0.500000
O O4 0.750000 0.250000 0.250000
O O5 0.711694 0.319119 0.323294
O O6 0.714771 0.191573 0.346098
O O7 0.000000 0.247950 0.316315
O O8 0.217932 0.064445 0.226948
O O9 0.500000 0.000000 0.255959
O O10 0.202816 0.000000 0.309508
O O11 0.715587 0.500000 0.555214
O O12 0.725164 0.572821 0.632077
O O13 0.715350 0.629111 0.546466
O O14 0.000000 0.568050 0.572805
O O15 0.000000 0.388613 0.684226
O O16 0.000000 0.327416 0.500000
O O17 0.288044 0.931101 0.381463
O O18 0.000000 0.858077 0.387576
O O19 0.000000 0.000000 0.389707
#
# Coordination Sequence:
#
# PCOD9517973 Si02
#       8
#     8  16   8  16  16   8  16   8
#     4   9  16  28  44  64  90 121 156 194 235 284
#     4  10  19  31  47  69  95 124 157 194 235 279
#     4  10  18  30  47  68  91 122 158 186 221 274
#     4   9  14  21  32  52  83 118 151 180 214 264
#     4   9  16  26  41  60  86 118 153 187 219 266
#     4   9  15  20  32  54  83 119 151 179 220 269
#     4   9  18  31  47  68  94 122 157 197 240 283
#     4  10  20  33  48  68  93 119 149 194 241 280
#
# _framework density 23.180895
#
# number of rings (size 3 to 8) (size 9 to 14) (size 15 to 20)
#    0.000    2.667    0.833    2.250    0.000    5.333 
#    0.000    1.667    0.000    0.000    0.000    2.917 
#    0.000    0.000    0.000    3.167    0.000    3.833 
#
# Total GULP energy -267746.789529 kJ/mol
# GULP energy per Si atom -5578.058115 kJ/mol
# Density = 2.312813 g / cm^3
# Si number density = 23.180895 Si / 1000 Ang^3
#
#
#
# Elastic Constant Matrix: (Units=GPa)
#
#
# Indices 1 2 3 4 5 6 
#
# 1 105.9555 9.4824 -3.3415 0.0000 0.0000 0.0000
# 2 9.4824 253.6457 123.5606 0.0000 0.0000 0.0000
# 3 -3.3415 123.5606 174.7135 0.0000 0.0000 0.0000
# 4 0.0000 0.0000 0.0000 54.7189 0.0000 0.0000
# 5 0.0000 0.0000 0.0000 0.0000 3.0560 0.0000
# 6 0.0000 0.0000 0.0000 0.0000 0.0000 -21.4268
#
#
#
# Elastic Compliance Matrix: (Units=1/GPa)
#
#
# Indices 1 2 3 4 5 6 
#
# 1 0.009519 -0.000678 0.000662 0.000000 0.000000 0.000000
# 2 -0.000678 0.006063 -0.004301 0.000000 0.000000 0.000000
# 3 0.000662 -0.004301 0.008778 0.000000 0.000000 0.000000
# 4 0.000000 0.000000 0.000000 0.018275 0.000000 0.000000
# 5 0.000000 0.000000 0.000000 0.000000 0.327227 0.000000
# 6 0.000000 0.000000 0.000000 0.000000 0.000000 -0.046670
#
#
# Mechanical properties :
#
#
# Convention : Reuss Voigt Hill
#
# Bulk Modulus (GPa) = 63.59002 88.19086 75.89044
# Shear Modulus (GPa) = 14.83378 34.24381 24.53880
#
# Velocity S-wave (km/s) = 2.53240 3.84766 3.25711
# Velocity P-wave (km/s) = 6.00353 7.60701 6.85233
#
# Compressibility (1/GPa) = 0.01572574
#
# Stress axis : x y z
#
# Youngs Moduli (GPa) = 105.04766 164.93622 113.92221
#
# Poissons Ratio (x) = 0.11187 -0.07539
# Poissons Ratio (y) = 0.07125 0.48996
# Poissons Ratio (z) = -0.06951 0.70936
#
# Static dielectric constant tensor:
#      x y z
#    x 1.964290 0.000000 0.000000 
#    y 0.000000 1.853870 0.000000 
#    z 0.000000 0.000000 1.855770 
# 
# From -- ./inp_files/59019.got.cif
#   From: 2010.05.17/outbox.cif.g08.bks.cpg/sg71_30_cif.got.tgz:59019.got - 2010.06.03 16:22:01.
