data_PCOD9517423
_publ_section_title
;
Structure prediction by ZEFSAII (Michael W. Deem and Ramdas Pophale) SiO2 
 PCOD9517423
Probable space group: I M M M
;
_chemical_formula_sum "Si O2"
_cell_formula_units_Z 52
_cell_length_a 20.738835
_cell_length_b 19.025594
_cell_length_c 8.004717
_cell_angle_alpha 90.000000
_cell_angle_beta 90.000000
_cell_angle_gamma 90.000000
_cell_volume 3158.410418
_symmetry_space_group_name_H-M "I M M M"
_symmetry_group_IT_number 71
_symmetry_cell_setting 'orthorhombic'
loop_
_space_group_symop_operation_xyz
x,y,z
-x,-y,z
x,-y,-z
-x,y,-z
-x,-y,-z
x,y,-z
-x,y,z
x,-y,z
1/2+x,1/2+y,1/2+z
1/2-x,1/2-y,1/2+z
1/2+x,1/2-y,1/2-z
1/2-x,1/2+y,1/2-z
1/2-x,1/2-y,1/2-z
1/2+x,1/2+y,1/2-z
1/2-x,1/2+y,1/2+z
1/2+x,1/2-y,1/2+z
loop_
_atom_site_type_symbol
_atom_site_label
_atom_site_fract_x
_atom_site_fract_y
_atom_site_fract_z
Si Si1 0.851839 0.709049 0.308514
Si Si2 0.343727 0.000000 0.500000
Si Si3 0.715809 0.500000 0.811848
Si Si4 0.076278 0.643773 0.000000
Si Si5 0.291723 0.654514 0.305719
O O1 0.869044 0.690849 0.500000
O O2 0.901098 0.684859 0.166726
O O3 0.782932 0.672444 0.265410
O O4 0.836357 0.792055 0.295708
O O5 0.293507 0.000000 0.344119
O O6 0.386737 0.930720 0.500000
O O7 0.697252 0.572504 0.725359
O O8 0.688630 0.500000 0.000000
O O9 0.000000 0.633976 0.000000
O O10 0.300655 0.671774 0.500000
#
# Coordination Sequence:
#
# PCOD9517423 Si02
#       5
#    16   4   8   8  16
#     4  10  20  34  54  79 105 142 185 234 279 326
#     4  10  21  36  52  76 116 148 197 214 270 322
#     4  10  17  28  50  77 115 143 173 217 280 339
#     4  12  23  40  56  75 112 157 197 226 262 319
#     4  10  18  30  52  79 113 139 176 229 290 335
#
# _framework density 16.463978000000001
#
# number of rings (size 3 to 8) (size 9 to 14) (size 15 to 20)
#    0.462    1.231    4.615    1.615    2.154    0.615 
#    0.000    0.769    0.000    1.846    0.000    2.154 
#    0.000    3.692    0.000    0.000    0.000    0.000 
#
# Total GULP energy -144915.537292 kJ/mol
# GULP energy per Si atom -5573.674511 kJ/mol
# Density = 1.642651 g / cm^3
# Si number density = 16.463978 Si / 1000 Ang^3
#
#
#
# Elastic Constant Matrix: (Units=GPa)
#
#
# Indices 1 2 3 4 5 6 
#
# 1 34.8627 13.0849 29.5348 0.0000 0.0000 0.0000
# 2 13.0849 109.9733 10.4963 0.0000 0.0000 0.0000
# 3 29.5348 10.4963 71.5020 0.0000 0.0000 0.0000
# 4 0.0000 0.0000 0.0000 29.0103 0.0000 0.0000
# 5 0.0000 0.0000 0.0000 0.0000 17.4178 0.0000
# 6 0.0000 0.0000 0.0000 0.0000 0.0000 10.8846
#
#
#
# Elastic Compliance Matrix: (Units=1/GPa)
#
#
# Indices 1 2 3 4 5 6 
#
# 1 0.045544 -0.003675 -0.018273 0.000000 0.000000 0.000000
# 2 -0.003675 0.009519 0.000121 0.000000 0.000000 0.000000
# 3 -0.018273 0.000121 0.021516 0.000000 0.000000 0.000000
# 4 0.000000 0.000000 0.000000 0.034471 0.000000 0.000000
# 5 0.000000 0.000000 0.000000 0.000000 0.057413 0.000000
# 6 0.000000 0.000000 0.000000 0.000000 0.000000 0.091873
#
#
# Mechanical properties :
#
#
# Convention : Reuss Voigt Hill
#
# Bulk Modulus (GPa) = 30.37307 35.84111 33.10709
# Shear Modulus (GPa) = 15.87489 22.34400 19.10944
#
# Velocity S-wave (km/s) = 3.10856 3.68794 3.41057
# Velocity P-wave (km/s) = 5.60111 6.32070 5.97175
#
# Compressibility (1/GPa) = 0.03292391
#
# Stress axis : x y z
#
# Youngs Moduli (GPa) = 21.95702 105.05475 46.47756
#
# Poissons Ratio (x) = 0.38606 0.84928
# Poissons Ratio (y) = 0.08069 -0.00560
# Poissons Ratio (z) = 0.40122 -0.01267
#
# Static dielectric constant tensor:
#      x y z
#    x 1.520330 0.000000 0.000000 
#    y 0.000000 1.560180 0.000000 
#    z 0.000000 0.000000 1.578310 
# 
# From -- ./inp_files/7130.got.cif
#   From: 2010.05.17/outbox.cif.g08.bks.cpg/sg71_4_cif.got.tgz:7130.got - 2010.06.03 16:22:01.
