data_PCOD9517657
_publ_section_title
;
Structure prediction by ZEFSAII (Michael W. Deem and Ramdas Pophale) SiO2 
 PCOD9517657
Probable space group: I M M M
;
_chemical_formula_sum "Si O2"
_cell_formula_units_Z 96
_cell_length_a 7.435705
_cell_length_b 31.413481
_cell_length_c 20.596521
_cell_angle_alpha 90.000000
_cell_angle_beta 90.000000
_cell_angle_gamma 90.000000
_cell_volume 4810.963752
_symmetry_space_group_name_H-M "I M M M"
_symmetry_group_IT_number 71
_symmetry_cell_setting 'orthorhombic'
loop_
_space_group_symop_operation_xyz
x,y,z
-x,-y,z
x,-y,-z
-x,y,-z
-x,-y,-z
x,y,-z
-x,y,z
x,-y,z
1/2+x,1/2+y,1/2+z
1/2-x,1/2-y,1/2+z
1/2+x,1/2-y,1/2-z
1/2-x,1/2+y,1/2-z
1/2-x,1/2-y,1/2-z
1/2+x,1/2+y,1/2-z
1/2-x,1/2+y,1/2+z
1/2+x,1/2-y,1/2+z
loop_
_atom_site_type_symbol
_atom_site_label
_atom_site_fract_x
_atom_site_fract_y
_atom_site_fract_z
Si Si1 0.284263 0.834430 0.071364
Si Si2 0.286911 0.626789 0.707364
Si Si3 0.219466 0.764003 0.427355
Si Si4 0.715584 0.706588 0.789506
Si Si5 0.279662 0.451142 0.788377
Si Si6 0.214744 0.948665 0.430506
O O1 0.500000 0.832826 0.069438
O O2 0.236385 0.863490 0.131809
O O3 0.224961 0.785448 0.081582
O O4 0.220592 0.848297 0.000000
O O5 0.500000 0.626104 0.719232
O O6 0.213258 0.666549 0.748922
O O7 0.218739 0.581888 0.734047
O O8 0.275574 0.777722 0.500000
O O9 0.281166 0.789203 0.363707
O O10 0.000000 0.764794 0.427360
O O11 0.500000 0.702356 0.793401
O O12 0.750000 0.750000 0.750000
O O13 0.500000 0.452407 0.789567
O O14 0.221614 0.500000 0.779221
O O15 0.220578 0.434670 0.859831
O O16 0.286700 0.932754 0.500000
O O17 0.000000 0.940797 0.431447
O O18 0.238175 0.000000 0.430190
#
# Coordination Sequence:
#
# PCOD9517657 Si02
#       6
#    16  16  16  16  16  16
#     4   9  17  30  48  66  84 114 152 180 213 268
#     4  10  19  28  43  70  94 113 144 185 224 261
#     4   8  14  26  43  60  82 116 150 174 203 252
#     4  10  18  28  43  64  90 115 142 178 216 256
#     4   8  14  25  39  57  87 122 149 178 222 270
#     4   7   9  15  30  51  75 107 144 174 201 241
#
# _framework density 19.954422000000001
#
# number of rings (size 3 to 8) (size 9 to 14) (size 15 to 20)
#    0.000    3.333    1.667    2.500    0.000    0.333 
#    0.000    0.833    0.000    6.500    0.000    3.500 
#    0.000    2.000    0.000    4.167    0.000    3.333 
#
# Total GULP energy -267431.901080 kJ/mol
# GULP energy per Si atom -5571.497939 kJ/mol
# Density = 1.990901 g / cm^3
# Si number density = 19.954422 Si / 1000 Ang^3
#
#
#
# Elastic Constant Matrix: (Units=GPa)
#
#
# Indices 1 2 3 4 5 6 
#
# 1 57.9124 3.9969 1.4042 0.0000 0.0000 0.0000
# 2 3.9969 83.5101 81.6952 0.0000 0.0000 0.0000
# 3 1.4042 81.6952 198.3958 0.0000 0.0000 0.0000
# 4 0.0000 0.0000 0.0000 29.4644 0.0000 0.0000
# 5 0.0000 0.0000 0.0000 0.0000 -4.9004 0.0000
# 6 0.0000 0.0000 0.0000 0.0000 0.0000 -18.9796
#
#
#
# Elastic Compliance Matrix: (Units=1/GPa)
#
#
# Indices 1 2 3 4 5 6 
#
# 1 0.017341 -0.001189 0.000367 0.000000 0.000000 0.000000
# 2 -0.001189 0.020134 -0.008282 0.000000 0.000000 0.000000
# 3 0.000367 -0.008282 0.008448 0.000000 0.000000 0.000000
# 4 0.000000 0.000000 0.000000 0.033939 0.000000 0.000000
# 5 0.000000 0.000000 0.000000 0.000000 -0.204063 0.000000
# 6 0.000000 0.000000 0.000000 0.000000 0.000000 -0.052688
#
#
# Mechanical properties :
#
#
# Convention : Reuss Voigt Hill
#
# Bulk Modulus (GPa) = 36.08253 57.11231 46.59742
# Shear Modulus (GPa) = -33.45753 17.96500 -7.74627
#
# Velocity S-wave (km/s) = -4.09919 3.00376 -1.97241
# Velocity P-wave (km/s) = 2.06949 6.38072 4.26795
#
# Compressibility (1/GPa) = 0.02771424
#
# Stress axis : x y z
#
# Youngs Moduli (GPa) = 57.66806 49.66782 118.36713
#
# Poissons Ratio (x) = 0.05904 -0.04341
# Poissons Ratio (y) = 0.06855 0.98035
# Poissons Ratio (z) = -0.02115 0.41136
#
# Static dielectric constant tensor:
#      x y z
#    x 1.822280 0.000000 0.000000 
#    y 0.000000 1.680540 0.000000 
#    z 0.000000 0.000000 1.740440 
# 
# From -- ./inp_files/14841.got.cif
#   From: 2010.05.17/outbox.cif.g08.bks.cpg/sg71_8_cif.got.tgz:14841.got - 2010.06.03 16:22:01.
