data_PCOD9517190
_publ_section_title
;
Structure prediction by ZEFSAII (Michael W. Deem and Ramdas Pophale) SiO2 
 PCOD9517190
Probable space group: F D D D
;
_chemical_formula_sum "Si O2"
_cell_formula_units_Z 44
_cell_length_a 30.000000
_cell_length_b 12.000000
_cell_length_c 24.000000
_cell_angle_alpha 90.000000
_cell_angle_beta 90.000000
_cell_angle_gamma 90.000000
_cell_volume 8640.000000
_symmetry_space_group_name_H-M "F D D D"
_symmetry_group_IT_number 70
_space_group.IT_coordinate_system_code '2'
_symmetry_cell_setting 'orthorhombic'
loop_
_space_group_symop_operation_xyz
x,y,z
1/4-x,1/4-y,z
x,1/4-y,1/4-z
1/4-x,y,1/4-z
-x,-y,-z
3/4+x,3/4+y,-z
-x,3/4+y,3/4+z
3/4+x,-y,3/4+z
x,1/2+y,1/2+z
1/4-x,3/4-y,1/2+z
x,3/4-y,3/4-z
1/4-x,1/2+y,3/4-z
-x,1/2-y,1/2-z
3/4+x,1/4+y,1/2-z
-x,1/4+y,1/4+z
3/4+x,1/2-y,1/4+z
1/2+x,y,1/2+z
3/4-x,1/4-y,1/2+z
1/2+x,1/4-y,3/4-z
3/4-x,y,3/4-z
1/2-x,-y,1/2-z
1/4+x,3/4+y,1/2-z
1/2-x,3/4+y,1/4+z
1/4+x,-y,1/4+z
1/2+x,1/2+y,z
3/4-x,3/4-y,z
1/2+x,3/4-y,1/4-z
3/4-x,1/2+y,1/4-z
1/2-x,1/2-y,-z
1/4+x,1/4+y,-z
1/2-x,1/4+y,3/4+z
1/4+x,1/2-y,3/4+z
loop_
_atom_site_type_symbol
_atom_site_label
_atom_site_fract_x
_atom_site_fract_y
_atom_site_fract_z
Si Si1 0.657522 0.397246 0.032688
Si Si2 0.375000 0.875000 0.226470
Si Si3 0.511730 0.879992 0.626965
Si Si4 0.936410 0.213861 0.972363
Si Si5 0.945753 0.045938 0.075080
Si Si6 0.954244 0.795254 0.223382
O O1 0.696818 0.398843 0.079618
O O2 0.610816 0.337112 0.049523
O O3 0.647803 0.523879 0.012217
O O4 0.672525 0.311372 0.983177
O O5 0.412021 0.804657 0.191613
O O6 0.529315 0.798334 0.578714
O O7 0.470056 0.830658 0.661935
O O8 0.491794 0.990111 0.596881
O O9 0.950623 0.128918 0.022153
O O10 0.936672 0.341235 0.995868
O O11 0.928294 0.125000 0.125000
O O12 0.000000 0.750000 0.250000
#
# Coordination Sequence:
#
# PCOD9517190 Si02
#       6
#    32  16  32  32  32  32
#     4  10  24  46  70 103 137 186 230 285 347 417
#     4  10  26  46  69 100 144 180 233 284 358 420
#     4  11  24  42  72 105 135 180 234 287 345 408
#     4  11  23  45  69 102 141 183 228 290 347 414
#     4  11  24  43  68 102 136 184 233 285 354 413
#     4  10  23  42  68 102 138 178 230 282 345 410
#
# _framework density 5.0925929999999999
#
# number of rings (size 3 to 8) (size 9 to 14) (size 15 to 20)
#    0.000    1.455    1.818    1.636    5.091    8.727 
#    0.000    7.273    0.000    0.000    0.000    0.000 
#    0.000    0.000    0.000    0.000    0.000    0.000 
#
# Total GULP energy -245617.028301 kJ/mol
# GULP energy per Si atom -5582.205189 kJ/mol
# Density = 0.508100 g / cm^3
# Si number density = 5.092593 Si / 1000 Ang^3
#
#
#
# Elastic Constant Matrix: (Units=GPa)
#
#
# Indices 1 2 3 4 5 6 
#
# 1 74.3371 39.5695 30.5813 0.0000 0.0000 0.0000
# 2 39.5695 168.8361 45.8151 0.0000 0.0000 0.0000
# 3 30.5813 45.8151 110.6044 0.0000 0.0000 0.0000
# 4 0.0000 0.0000 0.0000 27.7930 0.0000 0.0000
# 5 0.0000 0.0000 0.0000 0.0000 43.5454 0.0000
# 6 0.0000 0.0000 0.0000 0.0000 0.0000 46.6684
#
#
#
# Elastic Compliance Matrix: (Units=1/GPa)
#
#
# Indices 1 2 3 4 5 6 
#
# 1 0.016379 -0.002940 -0.003311 0.000000 0.000000 0.000000
# 2 -0.002940 0.007201 -0.002170 0.000000 0.000000 0.000000
# 3 -0.003311 -0.002170 0.010855 0.000000 0.000000 0.000000
# 4 0.000000 0.000000 0.000000 0.035980 0.000000 0.000000
# 5 0.000000 0.000000 0.000000 0.000000 0.022965 0.000000
# 6 0.000000 0.000000 0.000000 0.000000 0.000000 0.021428
#
#
# Mechanical properties :
#
#
# Convention : Reuss Voigt Hill
#
# Bulk Modulus (GPa) = 56.83836 65.07881 60.95859
# Shear Modulus (GPa) = 36.35974 39.45547 37.90760
#
# Velocity S-wave (km/s) = 4.22943 4.40580 4.31852
# Velocity P-wave (km/s) = 7.19818 7.60911 7.40650
#
# Compressibility (1/GPa) = 0.01759375
#
# Stress axis : x y z
#
# Youngs Moduli (GPa) = 61.05233 138.87323 92.11990
#
# Poissons Ratio (x) = 0.40834 0.30499
# Poissons Ratio (y) = 0.17952 0.19988
# Poissons Ratio (z) = 0.20213 0.30132
#
# Static dielectric constant tensor:
#      x y z
#    x 1.775890 0.000000 0.000000 
#    y 0.000000 1.701730 0.000000 
#    z 0.000000 0.000000 1.765680 
# 
# From -- ./inp_files/22284.got.cif
#   From: 2010.05.17/outbox.ucp.g08.bks.cvg/sg70_12_cif.got.tgz:22284.got - 2010.06.11 16:26:41.
