data_PCOD9517667
_publ_section_title
;
Structure prediction by ZEFSAII (Michael W. Deem and Ramdas Pophale) SiO2 
 PCOD9517667
Probable space group: I M M M
;
_chemical_formula_sum "Si O2"
_cell_formula_units_Z 104
_cell_length_a 25.424694
_cell_length_b 23.622543
_cell_length_c 7.904917
_cell_angle_alpha 90.000000
_cell_angle_beta 90.000000
_cell_angle_gamma 90.000000
_cell_volume 4747.660956
_symmetry_space_group_name_H-M "I M M M"
_symmetry_group_IT_number 71
_symmetry_cell_setting 'orthorhombic'
loop_
_space_group_symop_operation_xyz
x,y,z
-x,-y,z
x,-y,-z
-x,y,-z
-x,-y,-z
x,y,-z
-x,y,z
x,-y,z
1/2+x,1/2+y,1/2+z
1/2-x,1/2-y,1/2+z
1/2+x,1/2-y,1/2-z
1/2-x,1/2+y,1/2-z
1/2-x,1/2-y,1/2-z
1/2+x,1/2+y,1/2-z
1/2-x,1/2+y,1/2+z
1/2+x,1/2-y,1/2+z
loop_
_atom_site_type_symbol
_atom_site_label
_atom_site_fract_x
_atom_site_fract_y
_atom_site_fract_z
Si Si1 0.807599 0.264762 0.809060
Si Si2 0.939555 0.000000 0.797055
Si Si3 0.084693 0.768464 0.690713
Si Si4 0.442571 0.855700 0.202973
Si Si5 0.667588 0.897637 0.309048
Si Si6 0.221960 0.935905 0.706706
Si Si7 0.883648 0.116068 0.702584
O O1 0.750000 0.250000 0.750000
O O2 0.852384 0.240590 0.689150
O O3 0.814623 0.332161 0.810868
O O4 0.817031 0.244159 0.000000
O O5 0.911781 0.943219 0.733864
O O6 0.000000 0.000000 0.741514
O O7 0.937460 0.000000 0.000000
O O8 0.063007 0.770932 0.500000
O O9 0.064688 0.709302 0.769785
O O10 0.082463 0.830771 0.771521
O O11 0.500000 0.876682 0.258894
O O12 0.391935 0.894041 0.242407
O O13 0.442892 0.850772 0.000000
O O14 0.663478 0.919767 0.500000
O O15 0.718533 0.927188 0.227726
O O16 0.224225 0.930739 0.500000
O O17 0.176676 0.892493 0.765200
O O18 0.205137 0.000000 0.745790
O O19 0.880654 0.125030 0.500000
#
# Coordination Sequence:
#
# PCOD9517667 Si02
#       7
#    16   8  16  16  16  16  16
#     4  10  18  28  43  67 101 135 166 201 249 307
#     4  11  25  41  53  71 105 143 178 219 262 301
#     4   9  18  31  50  75 100 126 164 212 257 306
#     4   9  18  33  51  73 104 138 169 207 259 313
#     4   9  18  31  49  74 100 130 168 210 255 309
#     4   9  16  29  52  78 103 129 165 215 266 306
#     4  10  19  35  58  80 101 132 176 220 262 311
#
# _framework density 21.905524
#
# number of rings (size 3 to 8) (size 9 to 14) (size 15 to 20)
#    0.000    2.538    0.769    1.615    0.000    5.231 
#    0.000    2.308    0.000    0.462    0.000    3.231 
#    0.000    0.000    0.000    0.000    0.000    0.000 
#
# Total GULP energy -289771.007744 kJ/mol
# GULP energy per Si atom -5572.519380 kJ/mol
# Density = 2.185567 g / cm^3
# Si number density = 21.905524 Si / 1000 Ang^3
#
#
#
# Elastic Constant Matrix: (Units=GPa)
#
#
# Indices 1 2 3 4 5 6 
#
# 1 131.5692 -6.3543 8.9683 0.0000 0.0000 0.0000
# 2 -6.3543 32.6417 1.3119 0.0000 0.0000 0.0000
# 3 8.9683 1.3119 37.9466 0.0000 0.0000 0.0000
# 4 0.0000 0.0000 0.0000 7.7131 0.0000 0.0000
# 5 0.0000 0.0000 0.0000 0.0000 15.8640 0.0000
# 6 0.0000 0.0000 0.0000 0.0000 0.0000 21.5177
#
#
#
# Elastic Compliance Matrix: (Units=1/GPa)
#
#
# Indices 1 2 3 4 5 6 
#
# 1 0.007807 0.001596 -0.001900 0.000000 0.000000 0.000000
# 2 0.001596 0.031005 -0.001449 0.000000 0.000000 0.000000
# 3 -0.001900 -0.001449 0.026852 0.000000 0.000000 0.000000
# 4 0.000000 0.000000 0.000000 0.129650 0.000000 0.000000
# 5 0.000000 0.000000 0.000000 0.000000 0.063036 0.000000
# 6 0.000000 0.000000 0.000000 0.000000 0.000000 0.046473
#
#
# Mechanical properties :
#
#
# Convention : Reuss Voigt Hill
#
# Bulk Modulus (GPa) = 16.08819 23.33434 19.71126
# Shear Modulus (GPa) = 15.19533 22.23440 18.71487
#
# Velocity S-wave (km/s) = 2.63663 3.18938 2.92609
# Velocity P-wave (km/s) = 4.07791 4.92324 4.52038
#
# Compressibility (1/GPa) = 0.06215740
#
# Stress axis : x y z
#
# Youngs Moduli (GPa) = 128.08704 32.25320 37.24112
#
# Poissons Ratio (x) = -0.05148 0.07077
# Poissons Ratio (y) = -0.20445 0.05397
# Poissons Ratio (z) = 0.24341 0.04674
#
# Static dielectric constant tensor:
#      x y z
#    x 1.821910 0.000000 0.000000 
#    y 0.000000 1.837430 0.000000 
#    z 0.000000 0.000000 1.836430 
# 
# From -- ./inp_files/15318.got.cif
#   From: 2010.05.17/outbox.cif.g08.bks.cpg/sg71_8_cif.got.tgz:15318.got - 2010.06.03 16:22:01.
