data_PCOD9517749
_publ_section_title
;
Structure prediction by ZEFSAII (Michael W. Deem and Ramdas Pophale) SiO2 
 PCOD9517749
Probable space group: I M M M
;
_chemical_formula_sum "Si O2"
_cell_formula_units_Z 100
_cell_length_a 21.541699
_cell_length_b 7.727279
_cell_length_c 32.807922
_cell_angle_alpha 90.000000
_cell_angle_beta 90.000000
_cell_angle_gamma 90.000000
_cell_volume 5461.164646
_symmetry_space_group_name_H-M "I M M M"
_symmetry_group_IT_number 71
_symmetry_cell_setting 'orthorhombic'
loop_
_space_group_symop_operation_xyz
x,y,z
-x,-y,z
x,-y,-z
-x,y,-z
-x,-y,-z
x,y,-z
-x,y,z
x,-y,z
1/2+x,1/2+y,1/2+z
1/2-x,1/2-y,1/2+z
1/2+x,1/2-y,1/2-z
1/2-x,1/2+y,1/2-z
1/2-x,1/2-y,1/2-z
1/2+x,1/2+y,1/2-z
1/2-x,1/2+y,1/2+z
1/2+x,1/2-y,1/2+z
loop_
_atom_site_type_symbol
_atom_site_label
_atom_site_fract_x
_atom_site_fract_y
_atom_site_fract_z
Si Si1 0.276613 0.000000 0.000000
Si Si2 0.866655 0.208112 0.203874
Si Si3 0.865969 0.210973 0.701887
Si Si4 0.430737 0.790808 0.951395
Si Si5 0.500000 0.303484 0.193734
Si Si6 0.753353 0.203529 0.850713
Si Si7 0.797677 0.191029 0.564582
Si Si8 0.000000 0.700528 0.785949
O O1 0.279883 0.152535 0.035159
O O2 0.859505 0.267055 0.250867
O O3 0.812483 0.272157 0.174433
O O4 0.936287 0.258255 0.191217
O O5 0.862591 0.000000 0.204704
O O6 0.932561 0.274128 0.684297
O O7 0.807533 0.274280 0.676932
O O8 0.867388 0.000000 0.701259
O O9 0.500000 0.736491 0.938591
O O10 0.372169 0.712200 0.928629
O O11 0.427427 0.000000 0.948535
O O12 0.424067 0.751106 0.000000
O O13 0.500000 0.500000 0.178168
O O14 0.500000 0.306356 0.243509
O O15 0.738911 0.292479 0.893314
O O16 0.763102 0.000000 0.858499
O O17 0.787247 0.000000 0.547405
O O18 0.000000 0.500000 0.774287
#
# Coordination Sequence:
#
# PCOD9517749 Si02
#       8
#     4  16  16  16   8  16  16   8
#     4  12  22  44  61  80 112 139 188 228 290 354
#     4   9  19  35  55  75 108 153 187 224 277 333
#     4   9  17  32  52  75 104 147 196 233 275 331
#     4   9  16  31  54  77 102 132 173 224 273 331
#     4   8  16  32  50  68 100 144 193 236 273 332
#     4  11  22  36  52  78 114 147 186 234 281 337
#     4  12  23  38  60  82 108 144 181 233 286 338
#     4  10  18  28  50  80 106 132 183 236 273 322
#
# _framework density 18.311112000000001
#
# number of rings (size 3 to 8) (size 9 to 14) (size 15 to 20)
#    0.000    2.080    2.400    3.360    0.000    4.160 
#    1.440    0.800    0.000    0.000    0.000    0.000 
#    0.000    1.280    0.000    2.320    0.000    0.080 
#
# Total GULP energy -278498.069290 kJ/mol
# GULP energy per Si atom -5569.961386 kJ/mol
# Density = 1.826943 g / cm^3
# Si number density = 18.311112 Si / 1000 Ang^3
#
#
#
# Elastic Constant Matrix: (Units=GPa)
#
#
# Indices 1 2 3 4 5 6 
#
# 1 103.5192 6.7263 37.6517 0.0000 0.0000 0.0000
# 2 6.7263 84.0409 22.6862 0.0000 0.0000 0.0000
# 3 37.6517 22.6862 60.8716 0.0000 0.0000 0.0000
# 4 0.0000 0.0000 0.0000 1.5365 0.0000 0.0000
# 5 0.0000 0.0000 0.0000 0.0000 -0.0324 0.0000
# 6 0.0000 0.0000 0.0000 0.0000 0.0000 12.2715
#
#
#
# Elastic Compliance Matrix: (Units=1/GPa)
#
#
# Indices 1 2 3 4 5 6 
#
# 1 0.012575 0.001215 -0.008231 0.000000 0.000000 0.000000
# 2 0.001215 0.013347 -0.005726 0.000000 0.000000 0.000000
# 3 -0.008231 -0.005726 0.023653 0.000000 0.000000 0.000000
# 4 0.000000 0.000000 0.000000 0.650826 0.000000 0.000000
# 5 0.000000 0.000000 0.000000 0.000000-30.902651 0.000000
# 6 0.000000 0.000000 0.000000 0.000000 0.000000 0.081489
#
#
# Mechanical properties :
#
#
# Convention : Reuss Voigt Hill
#
# Bulk Modulus (GPa) = 41.50764 42.50669 42.00716
# Shear Modulus (GPa) = -0.16618 14.84630 7.34006
#
# Velocity S-wave (km/s) = -0.30158 2.85051 2.00430
# Velocity P-wave (km/s) = 4.75352 5.83934 5.32418
#
# Compressibility (1/GPa) = 0.02409195
#
# Stress axis : x y z
#
# Youngs Moduli (GPa) = 79.52378 74.92073 42.27723
#
# Poissons Ratio (x) = -0.09106 0.34799
# Poissons Ratio (y) = -0.09666 0.24209
# Poissons Ratio (z) = 0.65457 0.42902
#
# Static dielectric constant tensor:
#      x y z
#    x 1.655520 0.000000 0.000000 
#    y 0.000000 1.662980 0.000000 
#    z 0.000000 0.000000 1.615030 
# 
# From -- ./inp_files/70793.got.cif
#   From: 2010.05.17/outbox.cif.g08.bks.cpg/sg71_36_cif.got.tgz:70793.got - 2010.06.03 16:22:01.
