data_PCOD9517472
_publ_section_title
;
Structure prediction by ZEFSAII (Michael W. Deem and Ramdas Pophale) SiO2 
 PCOD9517472
Probable space group: I M M M
;
_chemical_formula_sum "Si O2"
_cell_formula_units_Z 96
_cell_length_a 7.579837
_cell_length_b 26.424365
_cell_length_c 22.496625
_cell_angle_alpha 90.000000
_cell_angle_beta 90.000000
_cell_angle_gamma 90.000000
_cell_volume 4505.902553
_symmetry_space_group_name_H-M "I M M M"
_symmetry_group_IT_number 71
_symmetry_cell_setting 'orthorhombic'
loop_
_space_group_symop_operation_xyz
x,y,z
-x,-y,z
x,-y,-z
-x,y,-z
-x,-y,-z
x,y,-z
-x,y,z
x,-y,z
1/2+x,1/2+y,1/2+z
1/2-x,1/2-y,1/2+z
1/2+x,1/2-y,1/2-z
1/2-x,1/2+y,1/2-z
1/2-x,1/2-y,1/2-z
1/2+x,1/2+y,1/2-z
1/2-x,1/2+y,1/2+z
1/2+x,1/2-y,1/2+z
loop_
_atom_site_type_symbol
_atom_site_label
_atom_site_fract_x
_atom_site_fract_y
_atom_site_fract_z
Si Si1 0.788827 0.757548 0.122077
Si Si2 0.211518 0.352338 0.841695
Si Si3 0.211955 0.942645 0.432483
Si Si4 0.715882 0.054751 0.869300
Si Si5 0.204588 0.574716 0.500000
Si Si6 0.784970 0.808209 0.000000
Si Si7 0.787681 0.349957 0.706804
O O1 0.720398 0.701055 0.132863
O O2 0.753467 0.796515 0.175727
O O3 0.000000 0.754138 0.116694
O O4 0.724414 0.780860 0.060085
O O5 0.244425 0.399932 0.884412
O O6 0.277844 0.356464 0.774038
O O7 0.000000 0.347887 0.837634
O O8 0.273813 0.930399 0.500000
O O9 0.000000 0.944652 0.434837
O O10 0.273747 0.000000 0.417792
O O11 0.500000 0.057220 0.870627
O O12 0.778057 0.103685 0.833682
O O13 0.763366 0.000000 0.843198
O O14 0.779853 0.057182 0.937279
O O15 0.215815 0.635076 0.500000
O O16 0.000000 0.558810 0.500000
O O17 0.000000 0.810136 0.000000
O O18 0.000000 0.353451 0.708143
#
# Coordination Sequence:
#
# PCOD9517472 Si02
#       7
#    16  16  16  16   8   8  16
#     4  10  21  36  53  76 109 146 181 221 274 328
#     4  10  22  36  56  85 112 143 182 221 268 327
#     4   9  20  40  62  84 112 144 179 223 275 328
#     4   9  17  29  48  74 102 132 170 218 265 309
#     4  10  17  30  52  74  96 131 179 221 264 318
#     4  10  20  33  51  73 103 141 176 220 272 319
#     4  10  20  35  54  79 109 142 182 225 267 317
#
# _framework density 21.305388000000001
#
# number of rings (size 3 to 8) (size 9 to 14) (size 15 to 20)
#    0.000    2.333    1.667    1.250    1.167    3.667 
#    0.000    2.500    0.000    2.500    0.000    0.000 
#    0.000    0.000    0.000    0.000    0.000    0.000 
#
# Total GULP energy -267990.884968 kJ/mol
# GULP energy per Si atom -5583.143437 kJ/mol
# Density = 2.125690 g / cm^3
# Si number density = 21.305388 Si / 1000 Ang^3
#
#
#
# Elastic Constant Matrix: (Units=GPa)
#
#
# Indices 1 2 3 4 5 6 
#
# 1 47.1239 -1.0017 1.5282 0.0000 0.0000 0.0000
# 2 -1.0017 196.2895 109.1960 0.0000 0.0000 0.0000
# 3 1.5282 109.1960 158.7557 -0.0001 0.0000 0.0000
# 4 0.0000 0.0000 -0.0001 10.5323 0.0000 0.0000
# 5 0.0000 0.0000 0.0000 0.0000 21.5552 0.0000
# 6 0.0000 0.0000 0.0000 0.0000 0.0000 27.2535
#
#
#
# Elastic Compliance Matrix: (Units=1/GPa)
#
#
# Indices 1 2 3 4 5 6 
#
# 1 0.021243 0.000360 -0.000452 0.000000 0.000000 0.000000
# 2 0.000360 0.008258 -0.005684 0.000000 0.000000 0.000000
# 3 -0.000452 -0.005684 0.010213 0.000000 0.000000 0.000000
# 4 0.000000 0.000000 0.000000 0.094946 0.000000 0.000000
# 5 0.000000 0.000000 0.000000 0.000000 0.046393 0.000000
# 6 0.000000 0.000000 0.000000 0.000000 0.000000 0.036692
#
#
# Mechanical properties :
#
#
# Convention : Reuss Voigt Hill
#
# Bulk Modulus (GPa) = 35.50851 69.06823 52.28837
# Shear Modulus (GPa) = 20.94819 31.36463 26.15641
#
# Velocity S-wave (km/s) = 3.13906 3.84102 3.50764
# Velocity P-wave (km/s) = 5.46268 7.22217 6.40315
#
# Compressibility (1/GPa) = 0.02816226
#
# Stress axis : x y z
#
# Youngs Moduli (GPa) = 47.07439 121.09234 97.91751
#
# Poissons Ratio (x) = -0.04358 0.04426
# Poissons Ratio (y) = -0.01694 0.55653
# Poissons Ratio (z) = 0.02128 0.68824
#
# Static dielectric constant tensor:
#      x y z
#    x 1.789950 0.000000 0.000000 
#    y 0.000000 1.752530 0.000000 
#    z 0.000000 0.000000 1.763600 
# 
# From -- ./inp_files/57744.got.cif
#   From: 2010.05.17/outbox.cif.g08.bks.cpg/sg71_29_cif.got.tgz:57744.got - 2010.06.03 16:22:01.
