data_PCOD9517951
_publ_section_title
;
Structure prediction by ZEFSAII (Michael W. Deem and Ramdas Pophale) SiO2 
 PCOD9517951
Probable space group: I M M M
;
_chemical_formula_sum "Si O2"
_cell_formula_units_Z 72
_cell_length_a 30.976893
_cell_length_b 7.353657
_cell_length_c 15.083351
_cell_angle_alpha 90.000000
_cell_angle_beta 90.000000
_cell_angle_gamma 90.000000
_cell_volume 3435.888502
_symmetry_space_group_name_H-M "I M M M"
_symmetry_group_IT_number 71
_symmetry_cell_setting 'orthorhombic'
loop_
_space_group_symop_operation_xyz
x,y,z
-x,-y,z
x,-y,-z
-x,y,-z
-x,-y,-z
x,y,-z
-x,y,z
x,-y,z
1/2+x,1/2+y,1/2+z
1/2-x,1/2-y,1/2+z
1/2+x,1/2-y,1/2-z
1/2-x,1/2+y,1/2-z
1/2-x,1/2-y,1/2-z
1/2+x,1/2+y,1/2-z
1/2-x,1/2+y,1/2+z
1/2+x,1/2-y,1/2+z
loop_
_atom_site_type_symbol
_atom_site_label
_atom_site_fract_x
_atom_site_fract_y
_atom_site_fract_z
Si Si1 0.950479 0.722465 0.305778
Si Si2 0.447407 0.790899 0.000000
Si Si3 0.661656 0.218009 0.500000
Si Si4 0.264313 0.216660 0.000000
Si Si5 0.292183 0.217123 0.809542
Si Si6 0.871478 0.277598 0.810291
O O1 0.950691 0.500000 0.309331
O O2 0.935446 0.785566 0.403943
O O3 0.917327 0.777517 0.230010
O O4 0.000000 0.778560 0.291380
O O5 0.500000 0.792526 0.000000
O O6 0.432098 0.000000 0.000000
O O7 0.712728 0.256383 0.500000
O O8 0.639967 0.284235 0.409234
O O9 0.657416 0.000000 0.500000
O O10 0.284124 0.288982 0.091548
O O11 0.271418 0.000000 0.000000
O O12 0.250000 0.250000 0.750000
O O13 0.333865 0.283621 0.756659
O O14 0.297265 0.000000 0.817021
O O15 0.870848 0.500000 0.811558
#
# Coordination Sequence:
#
# PCOD9517951 Si02
#       6
#    16   8   8   8  16  16
#     4   8  13  22  36  56  83 113 145 181 220 265
#     4   7  10  17  31  50  74 108 142 169 209 264
#     4  10  18  30  46  63  87 122 155 181 224 279
#     4  10  20  31  46  68  91 116 155 196 226 262
#     4  10  19  31  46  66  91 118 149 187 227 267
#     4   9  17  27  41  60  84 117 152 183 221 270
#
# _framework density 20.955278
#
# number of rings (size 3 to 8) (size 9 to 14) (size 15 to 20)
#    0.000    3.000    2.222    1.333    0.000    0.889 
#    0.000    5.000    0.000    3.333    0.000    0.000 
#    0.000    4.444    0.000    0.000    0.000   30.222 
#
# Total GULP energy -200878.927695 kJ/mol
# GULP energy per Si atom -5579.970214 kJ/mol
# Density = 2.090758 g / cm^3
# Si number density = 20.955278 Si / 1000 Ang^3
#
#
#
# Elastic Constant Matrix: (Units=GPa)
#
#
# Indices 1 2 3 4 5 6 
#
# 1 123.4574 1.6652 105.5485 0.0000 0.0000 0.0000
# 2 1.6652 79.4453 12.8368 0.0000 0.0000 0.0000
# 3 105.5485 12.8368 241.4798 0.0000 0.0000 0.0000
# 4 0.0000 0.0000 0.0000 -6.3587 0.0000 0.0000
# 5 0.0000 0.0000 0.0000 0.0000 33.9197 0.0000
# 6 0.0000 0.0000 0.0000 0.0000 0.0000 4.5050
#
#
#
# Elastic Compliance Matrix: (Units=1/GPa)
#
#
# Indices 1 2 3 4 5 6 
#
# 1 0.012966 0.000650 -0.005702 0.000000 0.000000 0.000000
# 2 0.000650 0.012729 -0.000961 0.000000 0.000000 0.000000
# 3 -0.005702 -0.000961 0.006684 0.000000 0.000000 0.000000
# 4 0.000000 0.000000 0.000000 -0.157265 0.000000 0.000000
# 5 0.000000 0.000000 0.000000 0.000000 0.029481 0.000000
# 6 0.000000 0.000000 0.000000 0.000000 0.000000 0.221975
#
#
# Mechanical properties :
#
#
# Convention : Reuss Voigt Hill
#
# Bulk Modulus (GPa) = 49.13158 76.05372 62.59265
# Shear Modulus (GPa) = 34.39259 28.03534 31.21396
#
# Velocity S-wave (km/s) = 4.05561 3.66165 3.86366
# Velocity P-wave (km/s) = 6.73999 7.36540 7.05962
#
# Compressibility (1/GPa) = 0.02035351
#
# Stress axis : x y z
#
# Youngs Moduli (GPa) = 77.12548 78.56159 149.60218
#
# Poissons Ratio (x) = -0.05103 0.85300
# Poissons Ratio (y) = -0.05010 0.14370
# Poissons Ratio (z) = 0.43975 0.07546
#
# Static dielectric constant tensor:
#      x y z
#    x 1.695290 0.000000 0.000000 
#    y 0.000000 2.333150 0.000000 
#    z 0.000000 0.000000 1.752480 
# 
# From -- ./inp_files/40723.got.cif
#   From: 2010.05.17/outbox.cif.g08.bks.cpg/sg71_21_cif.got.tgz:40723.got - 2010.06.03 16:22:01.
