data_PCOD9517198
_publ_section_title
;
Structure prediction by ZEFSAII (Michael W. Deem and Ramdas Pophale) SiO2 
 PCOD9517198
Probable space group: F D D D
;
_chemical_formula_sum "Si O2"
_cell_formula_units_Z 44
_cell_length_a 27.000000
_cell_length_b 27.000000
_cell_length_c 12.000000
_cell_angle_alpha 90.000000
_cell_angle_beta 90.000000
_cell_angle_gamma 90.000000
_cell_volume 8748.000000
_symmetry_space_group_name_H-M "F D D D"
_symmetry_group_IT_number 70
_space_group.IT_coordinate_system_code '2'
_symmetry_cell_setting 'orthorhombic'
loop_
_space_group_symop_operation_xyz
x,y,z
1/4-x,1/4-y,z
x,1/4-y,1/4-z
1/4-x,y,1/4-z
-x,-y,-z
3/4+x,3/4+y,-z
-x,3/4+y,3/4+z
3/4+x,-y,3/4+z
x,1/2+y,1/2+z
1/4-x,3/4-y,1/2+z
x,3/4-y,3/4-z
1/4-x,1/2+y,3/4-z
-x,1/2-y,1/2-z
3/4+x,1/4+y,1/2-z
-x,1/4+y,1/4+z
3/4+x,1/2-y,1/4+z
1/2+x,y,1/2+z
3/4-x,1/4-y,1/2+z
1/2+x,1/4-y,3/4-z
3/4-x,y,3/4-z
1/2-x,-y,1/2-z
1/4+x,3/4+y,1/2-z
1/2-x,3/4+y,1/4+z
1/4+x,-y,1/4+z
1/2+x,1/2+y,z
3/4-x,3/4-y,z
1/2+x,3/4-y,1/4-z
3/4-x,1/2+y,1/4-z
1/2-x,1/2-y,-z
1/4+x,1/4+y,-z
1/2-x,1/4+y,3/4+z
1/4+x,1/2-y,3/4+z
loop_
_atom_site_type_symbol
_atom_site_label
_atom_site_fract_x
_atom_site_fract_y
_atom_site_fract_z
Si Si1 0.675321 0.070968 0.180736
Si Si2 0.249284 0.521675 0.034399
Si Si3 0.967996 0.297564 0.210222
Si Si4 0.021586 0.375000 0.375000
Si Si5 0.840091 0.556179 0.981941
Si Si6 0.144119 0.518664 0.396960
O O1 0.674874 0.125000 0.125000
O O2 0.625000 0.046850 0.125000
O O3 0.729330 0.051146 0.143190
O O4 0.664495 0.061045 0.310975
O O5 0.207839 0.478649 0.038926
O O6 0.305962 0.501262 0.039126
O O7 0.235915 0.552239 0.920292
O O8 0.907601 0.287767 0.206449
O O9 0.000000 0.250000 0.250000
O O10 0.986182 0.339600 0.298124
O O11 0.060849 0.351314 0.461833
O O12 0.875000 0.567126 0.875000
O O13 0.874233 0.527212 0.072014
#
# Coordination Sequence:
#
# PCOD9517198 Si02
#       6
#    32  32  32  16  32  32
#     4  11  21  40  68 106 145 176 226 293 350 419
#     4  11  22  43  72  97 140 182 228 286 358 419
#     4  11  24  48  67  96 141 183 234 296 352 418
#     4  12  26  48  71  98 142 186 239 300 352 426
#     4  11  23  45  68  98 135 176 227 289 349 419
#     4  11  22  44  74 100 138 188 228 284 364 420
#
# _framework density 5.0297210000000003
#
# number of rings (size 3 to 8) (size 9 to 14) (size 15 to 20)
#    0.000    0.909    9.091    0.545    0.000    3.636 
#    1.636    0.909    0.000    0.000    0.000    0.000 
#    0.000    0.000    0.000    0.000    0.000    0.000 
#
# Total GULP energy -244944.416475 kJ/mol
# GULP energy per Si atom -5566.918556 kJ/mol
# Density = 0.501827 g / cm^3
# Si number density = 5.029721 Si / 1000 Ang^3
#
#
#
# Elastic Constant Matrix: (Units=GPa)
#
#
# Indices 1 2 3 4 5 6 
#
# 1 196.6910 46.0534 63.3216 0.0000 0.0000 0.0000
# 2 46.0534 72.5773 37.7180 0.0000 0.0000 0.0000
# 3 63.3216 37.7180 98.2350 0.0000 0.0000 0.0000
# 4 0.0000 0.0000 0.0000 30.8731 0.0000 0.0000
# 5 0.0000 0.0000 0.0000 0.0000 48.9100 0.0000
# 6 0.0000 0.0000 0.0000 0.0000 0.0000 30.1616
#
#
#
# Elastic Compliance Matrix: (Units=1/GPa)
#
#
# Indices 1 2 3 4 5 6 
#
# 1 0.006769 -0.002533 -0.003391 0.000000 0.000000 0.000000
# 2 -0.002533 0.018161 -0.005340 0.000000 0.000000 0.000000
# 3 -0.003391 -0.005340 0.014416 0.000000 0.000000 0.000000
# 4 0.000000 0.000000 0.000000 0.032391 0.000000 0.000000
# 5 0.000000 0.000000 0.000000 0.000000 0.020446 0.000000
# 6 0.000000 0.000000 0.000000 0.000000 0.000000 0.033155
#
#
# Mechanical properties :
#
#
# Convention : Reuss Voigt Hill
#
# Bulk Modulus (GPa) = 59.46102 73.52104 66.49103
# Shear Modulus (GPa) = 32.57967 36.68297 34.63132
#
# Velocity S-wave (km/s) = 4.02849 4.27466 4.15340
# Velocity P-wave (km/s) = 7.15942 7.80937 7.49145
#
# Compressibility (1/GPa) = 0.01681774
#
# Stress axis : x y z
#
# Youngs Moduli (GPa) = 147.73848 55.06296 69.36923
#
# Poissons Ratio (x) = 0.13947 0.23520
# Poissons Ratio (y) = 0.37422 0.37045
# Poissons Ratio (z) = 0.50091 0.29405
#
# Static dielectric constant tensor:
#      x y z
#    x 1.696480 0.000000 0.000000 
#    y 0.000000 1.895330 0.000000 
#    z 0.000000 0.000000 1.825140 
# 
# From -- ./inp_files/20973.got.cif
#   From: 2010.05.17/outbox.ucp.g08.bks.cvg/sg70_11_cif.got.tgz:20973.got - 2010.06.11 16:26:41.
