data_PCOD9517048
_publ_section_title
;
Structure prediction by ZEFSAII (Michael W. Deem and Ramdas Pophale) SiO2 
 PCOD9517048
Probable space group: F D D D
;
_chemical_formula_sum "Si O2"
_cell_formula_units_Z 160
_cell_length_a 17.306901
_cell_length_b 13.298776
_cell_length_c 29.468959
_cell_angle_alpha 90.000000
_cell_angle_beta 90.000000
_cell_angle_gamma 90.000000
_cell_volume 6782.593275
_symmetry_space_group_name_H-M "F D D D"
_symmetry_group_IT_number 70
_space_group.IT_coordinate_system_code '2'
_symmetry_cell_setting 'orthorhombic'
loop_
_space_group_symop_operation_xyz
x,y,z
1/4-x,1/4-y,z
x,1/4-y,1/4-z
1/4-x,y,1/4-z
-x,-y,-z
3/4+x,3/4+y,-z
-x,3/4+y,3/4+z
3/4+x,-y,3/4+z
x,1/2+y,1/2+z
1/4-x,3/4-y,1/2+z
x,3/4-y,3/4-z
1/4-x,1/2+y,3/4-z
-x,1/2-y,1/2-z
3/4+x,1/4+y,1/2-z
-x,1/4+y,1/4+z
3/4+x,1/2-y,1/4+z
1/2+x,y,1/2+z
3/4-x,1/4-y,1/2+z
1/2+x,1/4-y,3/4-z
3/4-x,y,3/4-z
1/2-x,-y,1/2-z
1/4+x,3/4+y,1/2-z
1/2-x,3/4+y,1/4+z
1/4+x,-y,1/4+z
1/2+x,1/2+y,z
3/4-x,3/4-y,z
1/2+x,3/4-y,1/4-z
3/4-x,1/2+y,1/4-z
1/2-x,1/2-y,-z
1/4+x,1/4+y,-z
1/2-x,1/4+y,3/4+z
1/4+x,1/2-y,3/4+z
loop_
_atom_site_type_symbol
_atom_site_label
_atom_site_fract_x
_atom_site_fract_y
_atom_site_fract_z
Si Si1 0.249239 0.028989 0.435691
Si Si2 0.679516 0.375000 0.875000
Si Si3 0.000000 0.250000 0.250000
Si Si4 0.187296 0.490587 0.165127
Si Si5 0.825190 0.975694 0.662389
Si Si6 0.125000 0.625000 0.004289
Si Si7 0.125000 0.625000 0.531987
O O1 0.303814 0.124452 0.427145
O O2 0.204347 0.014665 0.389091
O O3 0.187270 0.063398 0.474002
O O4 0.300826 0.930317 0.445931
O O5 0.733687 0.461872 0.854211
O O6 0.629900 0.323884 0.834898
O O7 0.001647 0.225134 0.304786
O O8 0.088709 0.212663 0.248281
O O9 0.125000 0.505077 0.125000
O O10 0.166042 0.548358 0.211130
O O11 0.875000 0.875000 0.664896
#
# Coordination Sequence:
#
# PCOD9517048 Si02
#       7
#    32  16  16  32  32  16  16
#     4  12  29  50  80 117 166 215 272 343 418 503
#     4  12  23  48  80 111 156 210 264 348 402 485
#     4  12  30  50  78 114 160 208 268 336 410 506
#     4  12  26  47  80 115 160 211 281 340 405 492
#     4  12  26  51  78 115 157 211 270 340 421 487
#     4  12  25  49  80 127 157 222 281 337 410 504
#     4  12  32  50  80 121 159 218 265 342 415 498
#
# _framework density 23.589797000000001
#
# number of rings (size 3 to 8) (size 9 to 14) (size 15 to 20)
#    0.000    0.000    6.000    1.800    8.400    0.800 
#    0.000    0.000    0.000    0.000    0.000    0.000 
#    0.000    0.000    0.000    0.000    0.000    0.000 
#
# Total GULP energy -222797.755814 kJ/mol
# GULP energy per Si atom -5569.943895 kJ/mol
# Density = 2.353611 g / cm^3
# Si number density = 23.589797 Si / 1000 Ang^3
#
#
#
# Elastic Constant Matrix: (Units=GPa)
#
#
# Indices 1 2 3 4 5 6 
#
# 1 95.2289 23.3851 37.0956 0.0000 0.0000 0.0000
# 2 23.3851 88.2895 7.2039 0.0000 0.0000 0.0000
# 3 37.0956 7.2039 121.4032 0.0000 0.0000 0.0000
# 4 0.0000 0.0000 0.0000 -29.3105 0.0000 0.0000
# 5 0.0000 0.0000 0.0000 0.0000 72.7280 0.0000
# 6 0.0000 0.0000 0.0000 0.0000 0.0000 51.0826
#
#
#
# Elastic Compliance Matrix: (Units=1/GPa)
#
#
# Indices 1 2 3 4 5 6 
#
# 1 0.012693 -0.003060 -0.003697 0.000000 0.000000 0.000000
# 2 -0.003060 0.012119 0.000216 0.000000 0.000000 0.000000
# 3 -0.003697 0.000216 0.009354 0.000000 0.000000 0.000000
# 4 0.000000 0.000000 0.000000 -0.034118 0.000000 0.000000
# 5 0.000000 0.000000 0.000000 0.000000 0.013750 0.000000
# 6 0.000000 0.000000 0.000000 0.000000 0.000000 0.019576
#
#
# Mechanical properties :
#
#
# Convention : Reuss Voigt Hill
#
# Bulk Modulus (GPa) = 47.43024 48.92123 48.17573
# Shear Modulus (GPa) = 93.48601 34.71583 64.10092
#
# Velocity S-wave (km/s) = 6.30205 3.84037 5.21844
# Velocity P-wave (km/s) = 8.55011 6.35986 7.53499
#
# Compressibility (1/GPa) = 0.02108359
#
# Stress axis : x y z
#
# Youngs Moduli (GPa) = 78.78652 82.51295 106.90893
#
# Poissons Ratio (x) = 0.25251 0.39521
# Poissons Ratio (y) = 0.24110 -0.02308
# Poissons Ratio (z) = 0.29125 -0.01782
#
# Static dielectric constant tensor:
#      x y z
#    x 1.889400 0.000000 0.000000 
#    y 0.000000 2.043750 0.000000 
#    z 0.000000 0.000000 2.315840 
# 
# From -- ./inp_files/66560.got.cif
#   From: 2010.05.17/outbox.cif.g08.bks.cpg/sg70_34_cif.got.tgz:66560.got - 2010.06.03 15:57:51.
