data_PCOD9517007
_publ_section_title
;
Structure prediction by ZEFSAII (Michael W. Deem and Ramdas Pophale) SiO2 
 PCOD9517007
Probable space group: F D D D
;
_chemical_formula_sum "Si O2"
_cell_formula_units_Z 112
_cell_length_a 12.160772
_cell_length_b 9.657075
_cell_length_c 35.011272
_cell_angle_alpha 90.000000
_cell_angle_beta 90.000000
_cell_angle_gamma 90.000000
_cell_volume 4111.635810
_symmetry_space_group_name_H-M "F D D D"
_symmetry_group_IT_number 70
_space_group.IT_coordinate_system_code '2'
_symmetry_cell_setting 'orthorhombic'
loop_
_space_group_symop_operation_xyz
x,y,z
1/4-x,1/4-y,z
x,1/4-y,1/4-z
1/4-x,y,1/4-z
-x,-y,-z
3/4+x,3/4+y,-z
-x,3/4+y,3/4+z
3/4+x,-y,3/4+z
x,1/2+y,1/2+z
1/4-x,3/4-y,1/2+z
x,3/4-y,3/4-z
1/4-x,1/2+y,3/4-z
-x,1/2-y,1/2-z
3/4+x,1/4+y,1/2-z
-x,1/4+y,1/4+z
3/4+x,1/2-y,1/4+z
1/2+x,y,1/2+z
3/4-x,1/4-y,1/2+z
1/2+x,1/4-y,3/4-z
3/4-x,y,3/4-z
1/2-x,-y,1/2-z
1/4+x,3/4+y,1/2-z
1/2-x,3/4+y,1/4+z
1/4+x,-y,1/4+z
1/2+x,1/2+y,z
3/4-x,3/4-y,z
1/2+x,3/4-y,1/4-z
3/4-x,1/2+y,1/4-z
1/2-x,1/2-y,-z
1/4+x,1/4+y,-z
1/2-x,1/4+y,3/4+z
1/4+x,1/2-y,3/4+z
loop_
_atom_site_type_symbol
_atom_site_label
_atom_site_fract_x
_atom_site_fract_y
_atom_site_fract_z
Si Si1 0.815249 0.109929 0.550593
Si Si2 0.289752 0.265086 0.271815
Si Si3 0.103981 0.875000 0.375000
Si Si4 0.307309 0.145772 0.411121
O O1 0.823641 0.193379 0.590932
O O2 0.935953 0.147092 0.534836
O O3 0.755239 0.098862 0.509407
O O4 0.983687 0.780081 0.569056
O O5 0.375000 0.375000 0.253383
O O6 0.355962 0.201986 0.307489
O O7 0.022508 0.765003 0.355231
O O8 0.375000 0.092644 0.375000
#
# Coordination Sequence:
#
# PCOD9517007 Si02
#       4
#    32  32  16  32
#     4  12  25  39  71 111 160 207 264 333 393 472
#     4  12  21  38  65 111 159 202 271 325 391 474
#     4  12  23  40  61 106 156 200 261 326 383 466
#     4  12  23  41  68 109 158 210 260 331 394 473
#
# _framework density 27.239765999999999
#
# number of rings (size 3 to 8) (size 9 to 14) (size 15 to 20)
#    0.000    0.000    8.571    3.857    0.000    0.000 
#    0.000    0.714    0.000    1.714    7.429    0.000 
#    0.000    0.000    0.000    0.000    0.000    0.000 
#
# Total GULP energy -156278.104009 kJ/mol
# GULP energy per Si atom -5581.360857 kJ/mol
# Density = 2.717777 g / cm^3
# Si number density = 27.239766 Si / 1000 Ang^3
#
#
#
# Elastic Constant Matrix: (Units=GPa)
#
#
# Indices 1 2 3 4 5 6 
#
# 1 156.4940 76.5541 68.9085 0.0000 0.0000 0.0000
# 2 76.5541 107.1073 56.8312 0.0000 0.0000 0.0000
# 3 68.9085 56.8312 230.5782 0.0000 0.0000 0.0000
# 4 0.0000 0.0000 0.0000 -1.8828 0.0000 0.0000
# 5 0.0000 0.0000 0.0000 0.0000 -20.2304 0.0000
# 6 0.0000 0.0000 0.0000 0.0000 0.0000 54.4052
#
#
#
# Elastic Compliance Matrix: (Units=1/GPa)
#
#
# Indices 1 2 3 4 5 6 
#
# 1 0.010227 -0.006543 -0.001443 0.000000 0.000000 0.000000
# 2 -0.006543 0.014928 -0.001724 0.000000 0.000000 0.000000
# 3 -0.001443 -0.001724 0.005193 0.000000 0.000000 0.000000
# 4 0.000000 0.000000 0.000000 -0.531114 0.000000 0.000000
# 5 0.000000 0.000000 0.000000 0.000000 -0.049431 0.000000
# 6 0.000000 0.000000 0.000000 0.000000 0.000000 0.018381
#
#
# Mechanical properties :
#
#
# Convention : Reuss Voigt Hill
#
# Bulk Modulus (GPa) = 91.52247 99.86301 95.69274
# Shear Modulus (GPa) = -9.82796 25.91745 8.04474
#
# Velocity S-wave (km/s) = -1.90152 3.08792 1.72038
# Velocity P-wave (km/s) = 5.37129 7.03235 6.25718
#
# Compressibility (1/GPa) = 0.01092628
#
# Stress axis : x y z
#
# Youngs Moduli (GPa) = 97.78472 66.98829 192.56072
#
# Poissons Ratio (x) = 0.43834 0.27795
# Poissons Ratio (y) = 0.63985 0.33194
# Poissons Ratio (z) = 0.14115 0.11548
#
# Static dielectric constant tensor:
#      x y z
#    x 2.109240 0.000000 0.000000 
#    y 0.000000 2.198300 0.000000 
#    z 0.000000 0.000000 2.250340 
# 
# From -- ./inp_files/42890.got.cif
#   From: 2010.05.17/outbox.cif.g08.bks.cpg/sg70_22_cif.got.tgz:42890.got - 2010.06.03 15:57:51.
