data_PCOD9517578
_publ_section_title
;
Structure prediction by ZEFSAII (Michael W. Deem and Ramdas Pophale) SiO2 
 PCOD9517578
Probable space group: I M M M
;
_chemical_formula_sum "Si O2"
_cell_formula_units_Z 88
_cell_length_a 24.845620
_cell_length_b 8.552504
_cell_length_c 31.425856
_cell_angle_alpha 90.000000
_cell_angle_beta 90.000000
_cell_angle_gamma 90.000000
_cell_volume 6677.751303
_symmetry_space_group_name_H-M "I M M M"
_symmetry_group_IT_number 71
_symmetry_cell_setting 'orthorhombic'
loop_
_space_group_symop_operation_xyz
x,y,z
-x,-y,z
x,-y,-z
-x,y,-z
-x,-y,-z
x,y,-z
-x,y,z
x,-y,z
1/2+x,1/2+y,1/2+z
1/2-x,1/2-y,1/2+z
1/2+x,1/2-y,1/2-z
1/2-x,1/2+y,1/2-z
1/2-x,1/2-y,1/2-z
1/2+x,1/2+y,1/2-z
1/2-x,1/2+y,1/2+z
1/2+x,1/2-y,1/2+z
loop_
_atom_site_type_symbol
_atom_site_label
_atom_site_fract_x
_atom_site_fract_y
_atom_site_fract_z
Si Si1 0.099802 0.688071 0.089696
Si Si2 0.436338 0.687881 0.500000
Si Si3 0.500000 0.815976 0.737640
Si Si4 0.719911 0.311500 0.791925
Si Si5 0.616145 0.312579 0.252859
Si Si6 0.000000 0.814757 0.856832
Si Si7 0.822806 0.311314 0.162901
O O1 0.094502 0.500000 0.089759
O O2 0.152607 0.730918 0.117191
O O3 0.051355 0.764106 0.116161
O O4 0.093139 0.749093 0.041988
O O5 0.435828 0.500000 0.500000
O O6 0.500000 0.736543 0.500000
O O7 0.556044 0.747084 0.754541
O O8 0.500000 0.774327 0.687632
O O9 0.500000 0.000000 0.743599
O O10 0.719482 0.500000 0.791931
O O11 0.750000 0.250000 0.750000
O O12 0.658344 0.261790 0.784060
O O13 0.760785 0.261546 0.829241
O O14 0.615234 0.500000 0.255057
O O15 0.640397 0.253133 0.298202
O O16 0.000000 0.000000 0.849024
O O17 0.825346 0.500000 0.166332
#
# Coordination Sequence:
#
# PCOD9517578 Si02
#       7
#    16   8   8  16  16   8  16
#     4  11  21  32  47  62  77 100 131 165 206 250
#     4  11  23  35  45  57  78 106 134 169 206 241
#     4  12  22  30  39  55  80 108 136 167 204 238
#     4   8  15  27  41  58  78 100 124 156 195 235
#     4  10  18  27  41  59  79 102 131 163 196 233
#     4  12  22  31  43  58  78 100 131 168 205 245
#     4   9  17  29  44  60  79 100 126 160 201 242
#
# _framework density 13.178088000000001
#
# number of rings (size 3 to 8) (size 9 to 14) (size 15 to 20)
#    0.000    1.909    2.727    3.000    0.000    1.818 
#    0.000    0.000    0.000    0.000    0.000    0.000 
#    0.000    0.000    0.000    0.000    0.000    0.909 
#
# Total GULP energy -245093.708054 kJ/mol
# GULP energy per Si atom -5570.311547 kJ/mol
# Density = 1.314809 g / cm^3
# Si number density = 13.178088 Si / 1000 Ang^3
#
#
#
# Elastic Constant Matrix: (Units=GPa)
#
#
# Indices 1 2 3 4 5 6 
#
# 1 117.3026 16.1768 49.1993 0.0000 0.0000 0.0000
# 2 16.1768 19.5140 6.9880 0.0000 0.0000 0.0000
# 3 49.1993 6.9880 54.9914 0.0000 0.0000 0.0000
# 4 0.0000 0.0000 0.0000 13.6963 0.0000 0.0000
# 5 0.0000 0.0000 0.0000 0.0000 7.6241 0.0000
# 6 0.0000 0.0000 0.0000 0.0000 0.0000 12.9775
#
#
#
# Elastic Compliance Matrix: (Units=1/GPa)
#
#
# Indices 1 2 3 4 5 6 
#
# 1 0.014707 -0.007836 -0.012162 0.000000 0.000000 0.000000
# 2 -0.007836 0.057864 -0.000342 0.000000 0.000000 0.000000
# 3 -0.012162 -0.000342 0.029109 0.000000 0.000000 0.000000
# 4 0.000000 0.000000 0.000000 0.073013 0.000000 0.000000
# 5 0.000000 0.000000 0.000000 0.000000 0.131163 0.000000
# 6 0.000000 0.000000 0.000000 0.000000 0.000000 0.077056
#
#
# Mechanical properties :
#
#
# Convention : Reuss Voigt Hill
#
# Bulk Modulus (GPa) = 16.39368 37.39291 26.89330
# Shear Modulus (GPa) = 11.26318 14.82250 13.04284
#
# Velocity S-wave (km/s) = 2.92668 3.35742 3.14942
# Velocity P-wave (km/s) = 4.88751 6.59290 5.80319
#
# Compressibility (1/GPa) = 0.06099911
#
# Stress axis : x y z
#
# Youngs Moduli (GPa) = 67.99681 17.28191 34.35369
#
# Poissons Ratio (x) = 0.13543 0.41780
# Poissons Ratio (y) = 0.53285 0.01175
# Poissons Ratio (z) = 0.82696 0.00591
#
# Static dielectric constant tensor:
#      x y z
#    x 1.472800 0.000000 0.000000 
#    y 0.000000 1.444740 0.000000 
#    z 0.000000 0.000000 1.406060 
# 
# From -- ./inp_files/17210.got.cif
#   From: 2010.05.17/outbox.cif.g08.bks.cpg/sg71_9_cif.got.tgz:17210.got - 2010.06.03 16:22:01.
