data_PCOD9517283
_publ_section_title
;
Structure prediction by ZEFSAII (Michael W. Deem and Ramdas Pophale) SiO2 
 PCOD9517283
Probable space group: I M M M
;
_chemical_formula_sum "Si O2"
_cell_formula_units_Z 88
_cell_length_a 22.982963
_cell_length_b 12.988880
_cell_length_c 13.757028
_cell_angle_alpha 90.000000
_cell_angle_beta 90.000000
_cell_angle_gamma 90.000000
_cell_volume 4106.788560
_symmetry_space_group_name_H-M "I M M M"
_symmetry_group_IT_number 71
_symmetry_cell_setting 'orthorhombic'
loop_
_space_group_symop_operation_xyz
x,y,z
-x,-y,z
x,-y,-z
-x,y,-z
-x,-y,-z
x,y,-z
-x,y,z
x,-y,z
1/2+x,1/2+y,1/2+z
1/2-x,1/2-y,1/2+z
1/2+x,1/2-y,1/2-z
1/2-x,1/2+y,1/2-z
1/2-x,1/2-y,1/2-z
1/2+x,1/2+y,1/2-z
1/2-x,1/2+y,1/2+z
1/2+x,1/2-y,1/2+z
loop_
_atom_site_type_symbol
_atom_site_label
_atom_site_fract_x
_atom_site_fract_y
_atom_site_fract_z
Si Si1 0.283156 0.721592 0.882084
Si Si2 0.847799 0.500000 0.816430
Si Si3 0.396213 0.000000 0.887183
Si Si4 0.091293 0.722010 0.612722
Si Si5 0.149872 0.724746 0.883787
Si Si6 0.284421 0.500000 0.885276
Si Si7 0.566176 0.379445 0.722058
O O1 0.339304 0.790176 0.864057
O O2 0.217215 0.741187 0.848452
O O3 0.303583 0.609016 0.845227
O O4 0.278095 0.716712 0.000000
O O5 0.849486 0.500000 0.700025
O O6 0.872379 0.388394 0.849130
O O7 0.784800 0.500000 0.867679
O O8 0.431443 0.893814 0.874801
O O9 0.374294 0.000000 0.000000
O O10 0.085478 0.750969 0.500000
O O11 0.067119 0.811416 0.679644
O O12 0.110146 0.817127 0.846459
O O13 0.150523 0.722931 0.000000
O O14 0.297601 0.500000 0.000000
O O15 0.500000 0.375957 0.683486
O O16 0.581001 0.500000 0.736425
#
# Coordination Sequence:
#
# PCOD9517283 Si02
#       7
#    16   8   8  16  16   8  16
#     4   8  16  31  55  89 125 156 199 251 307 373
#     4  10  16  34  60  92 123 154 194 251 304 363
#     4  10  20  36  58  88 128 160 188 240 314 371
#     4  10  21  40  63  89 123 164 203 256 317 370
#     4  10  20  39  64  92 124 164 205 255 317 374
#     4   8  14  26  48  84 123 158 194 243 300 362
#     4  11  26  45  62  88 123 163 216 267 303 358
#
# _framework density 21.427935999999999
#
# number of rings (size 3 to 8) (size 9 to 14) (size 15 to 20)
#    0.000    2.364    1.818    1.909    1.273    2.182 
#    1.636    3.636    0.000    2.727    0.000    0.000 
#    0.000    0.000    0.000    0.000    0.000    0.000 
#
# Total GULP energy -245243.036749 kJ/mol
# GULP energy per Si atom -5573.705381 kJ/mol
# Density = 2.137916 g / cm^3
# Si number density = 21.427936 Si / 1000 Ang^3
#
#
#
# Elastic Constant Matrix: (Units=GPa)
#
#
# Indices 1 2 3 4 5 6 
#
# 1 100.0847 60.4808 23.3402 0.0000 0.0000 0.0000
# 2 60.4808 193.7021 50.0366 0.0000 0.0000 0.0000
# 3 23.3402 50.0366 88.0927 0.0000 0.0000 0.0000
# 4 0.0000 0.0000 0.0000 32.4194 0.0000 0.0000
# 5 0.0000 0.0000 0.0000 0.0000 8.9933 0.0000
# 6 0.0000 0.0000 0.0000 0.0000 0.0000 20.8365
#
#
#
# Elastic Compliance Matrix: (Units=1/GPa)
#
#
# Indices 1 2 3 4 5 6 
#
# 1 0.012437 -0.003553 -0.001277 0.000000 0.000000 0.000000
# 2 -0.003553 0.007066 -0.003072 0.000000 0.000000 0.000000
# 3 -0.001277 -0.003072 0.013435 0.000000 0.000000 0.000000
# 4 0.000000 0.000000 0.000000 0.030846 0.000000 0.000000
# 5 0.000000 0.000000 0.000000 0.000000 0.111194 0.000000
# 6 0.000000 0.000000 0.000000 0.000000 0.000000 0.047993
#
#
# Mechanical properties :
#
#
# Convention : Reuss Voigt Hill
#
# Bulk Modulus (GPa) = 58.36665 72.17716 65.27191
# Shear Modulus (GPa) = 20.45126 28.98463 24.71795
#
# Velocity S-wave (km/s) = 3.09272 3.68184 3.40006
# Velocity P-wave (km/s) = 6.32858 7.19940 6.77799
#
# Compressibility (1/GPa) = 0.01713307
#
# Stress axis : x y z
#
# Youngs Moduli (GPa) = 80.40816 141.53214 74.43398
#
# Poissons Ratio (x) = 0.50291 0.09504
# Poissons Ratio (y) = 0.28572 0.22864
# Poissons Ratio (z) = 0.10266 0.43475
#
# Static dielectric constant tensor:
#      x y z
#    x 1.804740 0.000000 0.000000 
#    y 0.000000 1.818740 0.000000 
#    z 0.000000 0.000000 1.807660 
# 
# From -- ./inp_files/40215.got.cif
#   From: 2010.05.17/outbox.cif.g08.bks.cpg/sg71_21_cif.got.tgz:40215.got - 2010.06.03 16:22:01.
