data_PCOD9517936
_publ_section_title
;
Structure prediction by ZEFSAII (Michael W. Deem and Ramdas Pophale) SiO2 
 PCOD9517936
Probable space group: I M M M
;
_chemical_formula_sum "Si O2"
_cell_formula_units_Z 88
_cell_length_a 18.518099
_cell_length_b 8.377263
_cell_length_c 25.279781
_cell_angle_alpha 90.000000
_cell_angle_beta 90.000000
_cell_angle_gamma 90.000000
_cell_volume 3921.677342
_symmetry_space_group_name_H-M "I M M M"
_symmetry_group_IT_number 71
_symmetry_cell_setting 'orthorhombic'
loop_
_space_group_symop_operation_xyz
x,y,z
-x,-y,z
x,-y,-z
-x,y,-z
-x,-y,-z
x,y,-z
-x,y,z
x,-y,z
1/2+x,1/2+y,1/2+z
1/2-x,1/2-y,1/2+z
1/2+x,1/2-y,1/2-z
1/2-x,1/2+y,1/2-z
1/2-x,1/2-y,1/2-z
1/2+x,1/2+y,1/2-z
1/2-x,1/2+y,1/2+z
1/2+x,1/2-y,1/2+z
loop_
_atom_site_type_symbol
_atom_site_label
_atom_site_fract_x
_atom_site_fract_y
_atom_site_fract_z
Si Si1 0.894374 0.832931 0.439170
Si Si2 0.367090 0.000000 0.064739
Si Si3 0.584849 0.500000 0.317614
Si Si4 0.225647 0.326428 0.917076
Si Si5 0.725609 0.811462 0.806848
Si Si6 0.583798 0.186031 0.756134
Si Si7 0.693359 0.500000 0.416687
O O1 0.918665 0.835885 0.500000
O O2 0.909249 0.657800 0.418239
O O3 0.806702 0.833288 0.439744
O O4 0.916814 0.000000 0.413289
O O5 0.283854 0.000000 0.086267
O O6 0.361120 0.000000 0.000000
O O7 0.500000 0.500000 0.332291
O O8 0.596801 0.664883 0.284175
O O9 0.637088 0.500000 0.367998
O O10 0.192191 0.500000 0.923494
O O11 0.238483 0.283536 0.854922
O O12 0.183978 0.175526 0.940523
O O13 0.750000 0.750000 0.750000
O O14 0.639338 0.790239 0.804202
O O15 0.741020 0.000000 0.808359
O O16 0.500000 0.194960 0.770868
O O17 0.596662 0.000000 0.736615
#
# Coordination Sequence:
#
# PCOD9517936 Si02
#       7
#    16   8   8  16  16  16   8
#     4   8  14  25  40  58  83 115 145 171 206 256
#     4   8  14  24  40  59  80 111 141 171 210 256
#     4  10  20  32  48  63  78 109 148 188 224 256
#     4  10  19  29  43  66  94 118 142 178 221 266
#     4  11  21  31  46  67  93 120 148 185 227 268
#     4   9  20  36  49  62  83 116 155 187 217 260
#     4  10  18  30  44  63  91 112 144 182 218 268
#
# _framework density 22.439377
#
# number of rings (size 3 to 8) (size 9 to 14) (size 15 to 20)
#    0.000    2.545    0.909    1.636    2.545    2.182 
#    0.000    0.000    0.000    0.273    0.000    0.000 
#    0.000    0.727    0.000   43.091    0.000    0.000 
#
# Total GULP energy -245058.945572 kJ/mol
# GULP energy per Si atom -5569.521490 kJ/mol
# Density = 2.238830 g / cm^3
# Si number density = 22.439377 Si / 1000 Ang^3
#
#
#
# Elastic Constant Matrix: (Units=GPa)
#
#
# Indices 1 2 3 4 5 6 
#
# 1 72.8868 23.2630 23.4960 0.0000 0.0000 0.0000
# 2 23.2630 247.2512 20.9974 0.0000 0.0000 0.0000
# 3 23.4960 20.9974 97.7419 0.0000 0.0000 0.0000
# 4 0.0000 0.0000 0.0000 8.5319 0.0000 0.0000
# 5 0.0000 0.0000 0.0000 0.0000 -183.6966 0.0000
# 6 0.0000 0.0000 0.0000 0.0000 0.0000 -68.9033
#
#
#
# Elastic Compliance Matrix: (Units=1/GPa)
#
#
# Indices 1 2 3 4 5 6 
#
# 1 0.015181 -0.001139 -0.003405 0.000000 0.000000 0.000000
# 2 -0.001139 0.004205 -0.000630 0.000000 0.000000 0.000000
# 3 -0.003405 -0.000630 0.011185 0.000000 0.000000 0.000000
# 4 0.000000 0.000000 0.000000 0.117207 0.000000 0.000000
# 5 0.000000 0.000000 0.000000 0.000000 -0.005444 0.000000
# 6 0.000000 0.000000 0.000000 0.000000 0.000000 -0.014513
#
#
# Mechanical properties :
#
#
# Convention : Reuss Voigt Hill
#
# Bulk Modulus (GPa) = 49.44577 61.48810 55.46693
# Shear Modulus (GPa) = 34.50449 -25.47203 4.51623
#
# Velocity S-wave (km/s) = 3.92558 -3.37285 1.42021
# Velocity P-wave (km/s) = 6.52916 3.50616 5.24038
#
# Compressibility (1/GPa) = 0.02022418
#
# Stress axis : x y z
#
# Youngs Moduli (GPa) = 65.87170 237.80573 89.40788
#
# Poissons Ratio (x) = 0.27091 0.30440
# Poissons Ratio (y) = 0.07504 0.05628
# Poissons Ratio (z) = 0.22427 0.14970
#
# Static dielectric constant tensor:
#      x y z
#    x 1.849010 0.000000 0.000000 
#    y 0.000000 1.960780 0.000000 
#    z 0.000000 0.000000 1.858440 
# 
# From -- ./inp_files/70689.got.cif
#   From: 2010.05.17/outbox.cif.g08.bks.cpg/sg71_36_cif.got.tgz:70689.got - 2010.06.03 16:22:01.
