data_PCOD9517562
_publ_section_title
;
Structure prediction by ZEFSAII (Michael W. Deem and Ramdas Pophale) SiO2 
 PCOD9517562
Probable space group: I M M M
;
_chemical_formula_sum "Si O2"
_cell_formula_units_Z 112
_cell_length_a 38.544012
_cell_length_b 9.197425
_cell_length_c 29.077733
_cell_angle_alpha 90.000000
_cell_angle_beta 90.000000
_cell_angle_gamma 90.000000
_cell_volume 10308.220916
_symmetry_space_group_name_H-M "I M M M"
_symmetry_group_IT_number 71
_symmetry_cell_setting 'orthorhombic'
loop_
_space_group_symop_operation_xyz
x,y,z
-x,-y,z
x,-y,-z
-x,y,-z
-x,-y,-z
x,y,-z
-x,y,z
x,-y,z
1/2+x,1/2+y,1/2+z
1/2-x,1/2-y,1/2+z
1/2+x,1/2-y,1/2-z
1/2-x,1/2+y,1/2-z
1/2-x,1/2-y,1/2-z
1/2+x,1/2+y,1/2-z
1/2-x,1/2+y,1/2+z
1/2+x,1/2-y,1/2+z
loop_
_atom_site_type_symbol
_atom_site_label
_atom_site_fract_x
_atom_site_fract_y
_atom_site_fract_z
Si Si1 0.735068 0.674219 0.898471
Si Si2 0.837719 0.826313 0.346903
Si Si3 0.540321 0.673869 0.945908
Si Si4 0.770577 0.167238 0.182950
Si Si5 0.605011 0.171828 0.906298
Si Si6 0.148005 0.668150 0.500000
Si Si7 0.720562 0.674743 0.000000
Si Si8 0.196388 0.332416 0.736260
O O1 0.740043 0.500000 0.895019
O O2 0.695922 0.703821 0.879650
O O3 0.761575 0.755075 0.864879
O O4 0.737302 0.720835 0.951623
O O5 0.871462 0.753110 0.368891
O O6 0.828387 0.757215 0.297665
O O7 0.841326 0.000000 0.343911
O O8 0.500000 0.705202 0.935527
O O9 0.545533 0.500000 0.941561
O O10 0.567381 0.758806 0.914479
O O11 0.545966 0.710649 0.000000
O O12 0.797101 0.255200 0.215044
O O13 0.733919 0.167145 0.210696
O O14 0.781092 0.000000 0.177002
O O15 0.602977 0.000000 0.896726
O O16 0.625142 0.191459 0.954751
O O17 0.159809 0.500000 0.500000
O O18 0.181201 0.770158 0.500000
O O19 0.720280 0.500000 0.000000
O O20 0.185549 0.500000 0.741125
#
# Coordination Sequence:
#
# PCOD9517562 Si02
#       8
#    16  16  16  16  16   8   8  16
#     4   9  17  26  36  49  65  85 109 134 161 192
#     4  10  18  27  39  53  68  86 107 130 159 196
#     4   9  18  31  44  55  66  83 108 135 162 195
#     4   9  16  25  37  50  64  83 106 129 156 190
#     4  11  20  29  39  54  71  87 106 131 164 200
#     4  10  20  28  35  49  68  87 106 130 162 198
#     4  10  18  28  38  49  65  88 114 137 162 196
#     4   9  16  26  38  51  67  83 102 129 158 189
#
# _framework density 10.865114999999999
#
# number of rings (size 3 to 8) (size 9 to 14) (size 15 to 20)
#    0.000    2.429    2.143    2.143    0.000    5.429 
#    0.000    0.714    0.000    0.000    0.000    0.000 
#    0.000    0.000    0.000    0.000    0.000    0.000 
#
# Total GULP energy -312030.396317 kJ/mol
# GULP energy per Si atom -5571.971363 kJ/mol
# Density = 1.084039 g / cm^3
# Si number density = 10.865115 Si / 1000 Ang^3
#
#
#
# Elastic Constant Matrix: (Units=GPa)
#
#
# Indices 1 2 3 4 5 6 
#
# 1 46.4535 37.4257 38.3701 0.0000 0.0000 0.0000
# 2 37.4257 59.8527 45.6910 0.0000 0.0000 0.0000
# 3 38.3701 45.6910 77.4587 0.0000 0.0000 0.0000
# 4 0.0000 0.0000 0.0000 16.6142 0.0000 0.0000
# 5 0.0000 0.0000 0.0000 0.0000 16.7879 0.0000
# 6 0.0000 0.0000 0.0000 0.0000 0.0000 14.0952
#
#
#
# Elastic Compliance Matrix: (Units=1/GPa)
#
#
# Indices 1 2 3 4 5 6 
#
# 1 0.048086 -0.021619 -0.011067 0.000000 0.000000 0.000000
# 2 -0.021619 0.040115 -0.012953 0.000000 0.000000 0.000000
# 3 -0.011067 -0.012953 0.026033 0.000000 0.000000 0.000000
# 4 0.000000 0.000000 0.000000 0.060189 0.000000 0.000000
# 5 0.000000 0.000000 0.000000 0.000000 0.059567 0.000000
# 6 0.000000 0.000000 0.000000 0.000000 0.000000 0.070946
#
#
# Mechanical properties :
#
#
# Convention : Reuss Voigt Hill
#
# Bulk Modulus (GPa) = 43.56511 47.41539 45.49025
# Shear Modulus (GPa) = 12.38030 13.65134 13.01582
#
# Velocity S-wave (km/s) = 3.37924 3.54847 3.46489
# Velocity P-wave (km/s) = 7.44373 7.77969 7.61356
#
# Compressibility (1/GPa) = 0.02295415
#
# Stress axis : x y z
#
# Youngs Moduli (GPa) = 20.79597 24.92857 38.41253
#
# Poissons Ratio (x) = 0.53894 0.42512
# Poissons Ratio (y) = 0.44960 0.49756
# Poissons Ratio (z) = 0.23015 0.32290
#
# Static dielectric constant tensor:
#      x y z
#    x 1.321860 0.000000 0.000000 
#    y 0.000000 1.362310 0.000000 
#    z 0.000000 0.000000 1.346270 
# 
# From -- ./inp_files/71256.got.cif
#   From: 2010.05.17/outbox.cif.g08.bks.cpg/sg71_36_cif.got.tgz:71256.got - 2010.06.03 16:22:01.
