data_PCOD9517122
_publ_section_title
;
Structure prediction by ZEFSAII (Michael W. Deem and Ramdas Pophale) SiO2 
 PCOD9517122
Probable space group: F D D D
;
_chemical_formula_sum "Si O2"
_cell_formula_units_Z 104
_cell_length_a 18.735448
_cell_length_b 28.035798
_cell_length_c 7.459009
_cell_angle_alpha 90.000000
_cell_angle_beta 90.000000
_cell_angle_gamma 90.000000
_cell_volume 3917.943201
_symmetry_space_group_name_H-M "F D D D"
_symmetry_group_IT_number 70
_space_group.IT_coordinate_system_code '2'
_symmetry_cell_setting 'orthorhombic'
loop_
_space_group_symop_operation_xyz
x,y,z
1/4-x,1/4-y,z
x,1/4-y,1/4-z
1/4-x,y,1/4-z
-x,-y,-z
3/4+x,3/4+y,-z
-x,3/4+y,3/4+z
3/4+x,-y,3/4+z
x,1/2+y,1/2+z
1/4-x,3/4-y,1/2+z
x,3/4-y,3/4-z
1/4-x,1/2+y,3/4-z
-x,1/2-y,1/2-z
3/4+x,1/4+y,1/2-z
-x,1/4+y,1/4+z
3/4+x,1/2-y,1/4+z
1/2+x,y,1/2+z
3/4-x,1/4-y,1/2+z
1/2+x,1/4-y,3/4-z
3/4-x,y,3/4-z
1/2-x,-y,1/2-z
1/4+x,3/4+y,1/2-z
1/2-x,3/4+y,1/4+z
1/4+x,-y,1/4+z
1/2+x,1/2+y,z
3/4-x,3/4-y,z
1/2+x,3/4-y,1/4-z
3/4-x,1/2+y,1/4-z
1/2-x,1/2-y,-z
1/4+x,1/4+y,-z
1/2-x,1/4+y,3/4+z
1/4+x,1/2-y,3/4+z
loop_
_atom_site_type_symbol
_atom_site_label
_atom_site_fract_x
_atom_site_fract_y
_atom_site_fract_z
Si Si1 0.737058 0.167141 0.913844
Si Si2 0.944435 0.224599 0.117035
Si Si3 0.636994 0.375000 0.875000
Si Si4 0.875000 0.458815 0.875000
Si Si5 0.625000 0.125000 0.625000
O O1 0.767024 0.214623 0.821396
O O2 0.681403 0.148128 0.765280
O O3 0.807279 0.137356 0.964642
O O4 0.694523 0.177380 0.095082
O O5 0.909234 0.173245 0.161498
O O6 0.000000 0.250000 0.250000
O O7 0.884327 0.261720 0.057875
#
# Coordination Sequence:
#
# PCOD9517122 Si02
#       5
#    32  32  16  16   8
#     4  12  26  51  80 119 171 218 288 352 429 515
#     4  12  28  51  81 124 172 223 286 358 438 508
#     4  12  27  53  86 123 165 230 294 360 430 525
#     4  12  26  53  74 119 172 220 282 356 430 510
#     4  12  26  50  76 134 158 218 284 360 428 504
#
# _framework density 26.544540000000001
#
# number of rings (size 3 to 8) (size 9 to 14) (size 15 to 20)
#    0.000    0.000    3.077    5.538    0.000    4.923 
#    5.538    0.000    0.000    0.000    0.000    0.000 
#    0.000    0.000    0.000    0.000    0.000    0.000 
#
# Total GULP energy -145456.019804 kJ/mol
# GULP energy per Si atom -5594.462300 kJ/mol
# Density = 2.648412 g / cm^3
# Si number density = 26.544540 Si / 1000 Ang^3
#
#
#
# Elastic Constant Matrix: (Units=GPa)
#
#
# Indices 1 2 3 4 5 6 
#
# 1 189.3423 96.4720 55.2474 0.0000 -0.0003 0.0000
# 2 96.4720 173.5338 70.0672 0.0000 -0.0001 0.0000
# 3 55.2474 70.0672 109.4019 -0.0002 -0.0003 0.0001
# 4 0.0000 0.0000 -0.0002 60.0190 0.0000 0.0000
# 5 -0.0003 -0.0001 -0.0003 0.0000 76.7145 -0.0001
# 6 0.0000 0.0000 0.0001 0.0000 -0.0001 53.6891
#
#
#
# Elastic Compliance Matrix: (Units=1/GPa)
#
#
# Indices 1 2 3 4 5 6 
#
# 1 0.007551 -0.003585 -0.001517 0.000000 0.000000 0.000000
# 2 -0.003585 0.009475 -0.004258 0.000000 0.000000 0.000000
# 3 -0.001517 -0.004258 0.012634 0.000000 0.000000 0.000000
# 4 0.000000 0.000000 0.000000 0.016661 0.000000 0.000000
# 5 0.000000 0.000000 0.000000 0.000000 0.013035 0.000000
# 6 0.000000 0.000000 0.000000 0.000000 0.000000 0.018626
#
#
# Mechanical properties :
#
#
# Convention : Reuss Voigt Hill
#
# Bulk Modulus (GPa) = 91.41236 101.76123 96.58680
# Shear Modulus (GPa) = 49.82681 54.78396 52.30538
#
# Velocity S-wave (km/s) = 4.33725 4.54789 4.44382
# Velocity P-wave (km/s) = 7.71975 8.12385 7.92438
#
# Compressibility (1/GPa) = 0.01093944
#
# Stress axis : x y z
#
# Youngs Moduli (GPa) = 132.43728 105.54353 79.15448
#
# Poissons Ratio (x) = 0.37839 0.12007
# Poissons Ratio (y) = 0.47481 0.33701
# Poissons Ratio (z) = 0.20090 0.44937
#
# Static dielectric constant tensor:
#      x y z
#    x 2.329930 0.000000 0.000000 
#    y 0.000000 2.181670 0.000000 
#    z 0.000000 0.000000 2.116240 
# 
# From -- ./inp_files/8226.got.cif
#   From: 2010.05.17/outbox.cif.g08.bks.cpg/sg70_5_cif.got.tgz:8226.got - 2010.06.03 15:57:51.
