data_PCOD9517123
_publ_section_title
;
Structure prediction by ZEFSAII (Michael W. Deem and Ramdas Pophale) SiO2 
 PCOD9517123
Probable space group: F D D D
;
_chemical_formula_sum "Si O2"
_cell_formula_units_Z 104
_cell_length_a 28.129378
_cell_length_b 10.328073
_cell_length_c 16.520609
_cell_angle_alpha 90.000000
_cell_angle_beta 90.000000
_cell_angle_gamma 90.000000
_cell_volume 4799.604819
_symmetry_space_group_name_H-M "F D D D"
_symmetry_group_IT_number 70
_space_group.IT_coordinate_system_code '2'
_symmetry_cell_setting 'orthorhombic'
loop_
_space_group_symop_operation_xyz
x,y,z
1/4-x,1/4-y,z
x,1/4-y,1/4-z
1/4-x,y,1/4-z
-x,-y,-z
3/4+x,3/4+y,-z
-x,3/4+y,3/4+z
3/4+x,-y,3/4+z
x,1/2+y,1/2+z
1/4-x,3/4-y,1/2+z
x,3/4-y,3/4-z
1/4-x,1/2+y,3/4-z
-x,1/2-y,1/2-z
3/4+x,1/4+y,1/2-z
-x,1/4+y,1/4+z
3/4+x,1/2-y,1/4+z
1/2+x,y,1/2+z
3/4-x,1/4-y,1/2+z
1/2+x,1/4-y,3/4-z
3/4-x,y,3/4-z
1/2-x,-y,1/2-z
1/4+x,3/4+y,1/2-z
1/2-x,3/4+y,1/4+z
1/4+x,-y,1/4+z
1/2+x,1/2+y,z
3/4-x,3/4-y,z
1/2+x,3/4-y,1/4-z
3/4-x,1/2+y,1/4-z
1/2-x,1/2-y,-z
1/4+x,1/4+y,-z
1/2-x,1/4+y,3/4+z
1/4+x,1/2-y,3/4+z
loop_
_atom_site_type_symbol
_atom_site_label
_atom_site_fract_x
_atom_site_fract_y
_atom_site_fract_z
Si Si1 0.467018 0.506184 0.323695
Si Si2 0.132078 0.272811 0.805113
Si Si3 0.625000 0.625000 0.125000
Si Si4 0.195252 0.314307 0.216337
O O1 0.460983 0.375000 0.375000
O O2 0.422190 0.522463 0.264293
O O3 0.469058 0.620624 0.388341
O O4 0.514900 0.496987 0.272470
O O5 0.144825 0.375000 0.875000
O O6 0.083344 0.325804 0.765647
O O7 0.125000 0.125000 0.834250
O O8 0.657477 0.712885 0.182371
#
# Coordination Sequence:
#
# PCOD9517123 Si02
#       4
#    32  32   8  32
#     4  12  26  50  79 111 151 212 262 323 396 480
#     4  12  28  48  78 115 159 209 264 328 398 472
#     4  12  28  48  74 112 164 200 268 332 396 468
#     4  12  28  49  77 114 157 208 267 330 396 477
#
# _framework density 21.66845
#
# number of rings (size 3 to 8) (size 9 to 14) (size 15 to 20)
#    0.000    0.000    6.154    1.846    8.615    1.231 
#    0.000    0.000    0.000    0.000    0.000    0.000 
#    0.000    0.000    0.000    0.000    0.000    0.000 
#
# Total GULP energy -145783.081215 kJ/mol
# GULP energy per Si atom -5607.041585 kJ/mol
# Density = 2.161913 g / cm^3
# Si number density = 21.668450 Si / 1000 Ang^3
#
#
#
# Elastic Constant Matrix: (Units=GPa)
#
#
# Indices 1 2 3 4 5 6 
#
# 1 129.5765 42.2183 68.1764 0.0000 0.0000 0.0000
# 2 42.2183 137.7933 74.5294 0.0000 0.0000 0.0000
# 3 68.1764 74.5294 146.4504 0.0000 0.0000 0.0000
# 4 0.0000 0.0000 0.0000 -37.8742 0.0000 0.0000
# 5 0.0000 0.0000 0.0000 0.0000 55.2231 0.0000
# 6 0.0000 0.0000 0.0000 0.0000 0.0000 38.1920
#
#
#
# Elastic Compliance Matrix: (Units=1/GPa)
#
#
# Indices 1 2 3 4 5 6 
#
# 1 0.010280 -0.000774 -0.004392 0.000000 0.000000 0.000000
# 2 -0.000774 0.010072 -0.004765 0.000000 0.000000 0.000000
# 3 -0.004392 -0.004765 0.011298 0.000000 0.000000 0.000000
# 4 0.000000 0.000000 0.000000 -0.026403 0.000000 0.000000
# 5 0.000000 0.000000 0.000000 0.000000 0.018108 0.000000
# 6 0.000000 0.000000 0.000000 0.000000 0.000000 0.026184
#
#
# Mechanical properties :
#
#
# Convention : Reuss Voigt Hill
#
# Bulk Modulus (GPa) = 84.83547 87.07427 85.95487
# Shear Modulus (GPa) = 68.18460 26.36792 47.27626
#
# Velocity S-wave (km/s) = 5.61565 3.49217 4.67604
# Velocity P-wave (km/s) = 9.01576 7.51880 8.30109
#
# Compressibility (1/GPa) = 0.01178752
#
# Stress axis : x y z
#
# Youngs Moduli (GPa) = 97.27197 99.28650 88.51377
#
# Poissons Ratio (x) = 0.07689 0.38873
# Poissons Ratio (y) = 0.07533 0.42178
# Poissons Ratio (z) = 0.42719 0.47311
#
# Static dielectric constant tensor:
#      x y z
#    x 1.749780 0.000000 0.000000 
#    y 0.000000 1.783320 0.000000 
#    z 0.000000 0.000000 1.868530 
# 
# From -- ./inp_files/15046.got.cif
#   From: 2010.05.17/outbox.cif.g08.bks.cpg/sg70_8_cif.got.tgz:15046.got - 2010.06.03 15:57:51.
