data_PCOD9517734
_publ_section_title
;
Structure prediction by ZEFSAII (Michael W. Deem and Ramdas Pophale) SiO2 
 PCOD9517734
Probable space group: I M M M
;
_chemical_formula_sum "Si O2"
_cell_formula_units_Z 80
_cell_length_a 22.772799
_cell_length_b 22.218267
_cell_length_c 7.383804
_cell_angle_alpha 90.000000
_cell_angle_beta 90.000000
_cell_angle_gamma 90.000000
_cell_volume 3735.999026
_symmetry_space_group_name_H-M "I M M M"
_symmetry_group_IT_number 71
_symmetry_cell_setting 'orthorhombic'
loop_
_space_group_symop_operation_xyz
x,y,z
-x,-y,z
x,-y,-z
-x,y,-z
-x,-y,-z
x,y,-z
-x,y,z
x,-y,z
1/2+x,1/2+y,1/2+z
1/2-x,1/2-y,1/2+z
1/2+x,1/2-y,1/2-z
1/2-x,1/2+y,1/2-z
1/2-x,1/2-y,1/2-z
1/2+x,1/2+y,1/2-z
1/2-x,1/2+y,1/2+z
1/2+x,1/2-y,1/2+z
loop_
_atom_site_type_symbol
_atom_site_label
_atom_site_fract_x
_atom_site_fract_y
_atom_site_fract_z
Si Si1 0.389679 0.143238 0.295053
Si Si2 0.434137 0.727402 0.217988
Si Si3 0.069341 0.000000 0.278716
Si Si4 0.762559 0.321487 0.782510
Si Si5 0.500000 0.930143 0.278824
Si Si6 0.854894 0.883558 0.720517
O O1 0.379512 0.120615 0.500000
O O2 0.418779 0.208913 0.300406
O O3 0.325696 0.156047 0.212093
O O4 0.440026 0.101155 0.212664
O O5 0.500000 0.709298 0.261998
O O6 0.390673 0.675491 0.274756
O O7 0.429659 0.733993 0.000000
O O8 0.107834 0.941836 0.221844
O O9 0.067518 0.000000 0.500000
O O10 0.000000 0.000000 0.222453
O O11 0.750000 0.250000 0.750000
O O12 0.711112 0.366873 0.720509
O O13 0.764501 0.325334 0.000000
O O14 0.500000 0.923105 0.500000
O O15 0.500000 0.000000 0.235978
O O16 0.853773 0.886630 0.500000
#
# Coordination Sequence:
#
# PCOD9517734 Si02
#       6
#    16  16   8  16   8  16
#     4  10  19  31  49  71  95 126 163 200 242 292
#     4  10  18  28  47  73  97 124 159 200 248 291
#     4   9  16  28  46  68  99 136 166 197 244 297
#     4  10  19  31  48  73 101 128 160 201 247 294
#     4   9  18  34  51  69  97 130 163 204 248 289
#     4   9  17  29  44  67 100 131 160 199 245 293
#
# _framework density 21.413281999999999
#
# number of rings (size 3 to 8) (size 9 to 14) (size 15 to 20)
#    0.000    2.400    3.000    0.600    0.000    2.400 
#    1.800    0.000    0.000    1.200    0.000    2.800 
#    0.000    4.800    0.000    0.000    0.000    0.000 
#
# Total GULP energy -223106.228353 kJ/mol
# GULP energy per Si atom -5577.655709 kJ/mol
# Density = 2.136454 g / cm^3
# Si number density = 21.413282 Si / 1000 Ang^3
#
#
#
# Elastic Constant Matrix: (Units=GPa)
#
#
# Indices 1 2 3 4 5 6 
#
# 1 207.6369 82.0010 14.9073 0.0000 0.0000 0.0000
# 2 82.0010 143.3413 1.7940 0.0000 0.0000 0.0000
# 3 14.9073 1.7940 72.4081 0.0000 0.0000 0.0000
# 4 0.0000 0.0000 0.0000 0.1923 0.0000 0.0000
# 5 0.0000 0.0000 0.0000 0.0000 -2.9327 0.0000
# 6 0.0000 0.0000 0.0000 0.0000 0.0000 31.2754
#
#
#
# Elastic Compliance Matrix: (Units=1/GPa)
#
#
# Indices 1 2 3 4 5 6 
#
# 1 0.006327 -0.003604 -0.001213 0.000000 0.000000 0.000000
# 2 -0.003604 0.009032 0.000518 0.000000 0.000000 0.000000
# 3 -0.001213 0.000518 0.014048 0.000000 0.000000 0.000000
# 4 0.000000 0.000000 0.000000 5.200180 0.000000 0.000000
# 5 0.000000 0.000000 0.000000 0.000000 -0.340982 0.000000
# 6 0.000000 0.000000 0.000000 0.000000 0.000000 0.031974
#
#
# Mechanical properties :
#
#
# Convention : Reuss Voigt Hill
#
# Bulk Modulus (GPa) = 48.05919 68.97679 58.51799
# Shear Modulus (GPa) = 1.01294 27.35261 14.18278
#
# Velocity S-wave (km/s) = 0.68853 3.57790 2.57638
# Velocity P-wave (km/s) = 4.80879 7.02500 6.01976
#
# Compressibility (1/GPa) = 0.02080767
#
# Stress axis : x y z
#
# Youngs Moduli (GPa) = 158.06489 110.72224 71.18683
#
# Poissons Ratio (x) = 0.39904 0.08636
# Poissons Ratio (y) = 0.56967 -0.03689
# Poissons Ratio (z) = 0.19177 -0.05738
#
# Static dielectric constant tensor:
#      x y z
#    x 1.808690 0.000000 0.000000 
#    y 0.000000 1.703950 0.000000 
#    z 0.000000 0.000000 1.973110 
# 
# From -- ./inp_files/10281.got.cif
#   From: 2010.05.17/outbox.cif.g08.bks.cpg/sg71_6_cif.got.tgz:10281.got - 2010.06.03 16:22:01.
