data_PCOD9517014
_publ_section_title
;
Structure prediction by ZEFSAII (Michael W. Deem and Ramdas Pophale) SiO2 
 PCOD9517014
Probable space group: F D D D
;
_chemical_formula_sum "Si O2"
_cell_formula_units_Z 192
_cell_length_a 22.365984
_cell_length_b 20.462512
_cell_length_c 18.853147
_cell_angle_alpha 90.000000
_cell_angle_beta 90.000000
_cell_angle_gamma 90.000000
_cell_volume 8628.410741
_symmetry_space_group_name_H-M "F D D D"
_symmetry_group_IT_number 70
_space_group.IT_coordinate_system_code '2'
_symmetry_cell_setting 'orthorhombic'
loop_
_space_group_symop_operation_xyz
x,y,z
1/4-x,1/4-y,z
x,1/4-y,1/4-z
1/4-x,y,1/4-z
-x,-y,-z
3/4+x,3/4+y,-z
-x,3/4+y,3/4+z
3/4+x,-y,3/4+z
x,1/2+y,1/2+z
1/4-x,3/4-y,1/2+z
x,3/4-y,3/4-z
1/4-x,1/2+y,3/4-z
-x,1/2-y,1/2-z
3/4+x,1/4+y,1/2-z
-x,1/4+y,1/4+z
3/4+x,1/2-y,1/4+z
1/2+x,y,1/2+z
3/4-x,1/4-y,1/2+z
1/2+x,1/4-y,3/4-z
3/4-x,y,3/4-z
1/2-x,-y,1/2-z
1/4+x,3/4+y,1/2-z
1/2-x,3/4+y,1/4+z
1/4+x,-y,1/4+z
1/2+x,1/2+y,z
3/4-x,3/4-y,z
1/2+x,3/4-y,1/4-z
3/4-x,1/2+y,1/4-z
1/2-x,1/2-y,-z
1/4+x,1/4+y,-z
1/2-x,1/4+y,3/4+z
1/4+x,1/2-y,3/4+z
loop_
_atom_site_type_symbol
_atom_site_label
_atom_site_fract_x
_atom_site_fract_y
_atom_site_fract_z
Si Si1 0.290099 0.138456 0.773973
Si Si2 0.591321 0.007568 0.355341
Si Si3 0.556246 0.271996 0.129153
Si Si4 0.125000 0.125000 0.288901
Si Si5 0.346952 0.125000 0.625000
Si Si6 0.673200 0.173521 0.012160
Si Si7 0.226823 0.220241 0.236517
O O1 0.310937 0.093285 0.837251
O O2 0.311480 0.115189 0.697451
O O3 0.218729 0.126401 0.775728
O O4 0.308759 0.213140 0.778148
O O5 0.617523 0.941536 0.388275
O O6 0.529318 0.979433 0.322105
O O7 0.595412 0.067575 0.411738
O O8 0.636405 0.031851 0.292825
O O9 0.625000 0.250754 0.125000
O O10 0.537098 0.219360 0.187619
O O11 0.513903 0.272627 0.061049
O O12 0.179484 0.160866 0.245654
O O13 0.625000 0.125000 0.046421
#
# Coordination Sequence:
#
# PCOD9517014 Si02
#       7
#    32  32  32  16  16  32  32
#     4  12  23  37  64  96 136 183 225 282 357 421
#     4  12  23  45  66  99 141 188 237 291 359 422
#     4  12  23  39  61  98 136 178 230 281 349 430
#     4  12  26  46  74 104 144 192 236 300 362 424
#     4  12  24  40  65  99 138 184 236 286 352 432
#     4  12  22  37  58  96 140 175 217 272 350 437
#     4  12  24  44  68  98 141 186 238 291 350 430
#
# _framework density 22.252068999999999
#
# number of rings (size 3 to 8) (size 9 to 14) (size 15 to 20)
#    0.000    0.000    7.500    3.500    0.000    1.667 
#    1.500    0.833    3.667    0.000    0.000    0.000 
#    0.000    0.000    0.000    0.000    0.000    0.000 
#
# Total GULP energy -267656.448297 kJ/mol
# GULP energy per Si atom -5576.176006 kJ/mol
# Density = 2.220142 g / cm^3
# Si number density = 22.252069 Si / 1000 Ang^3
#
#
#
# Elastic Constant Matrix: (Units=GPa)
#
#
# Indices 1 2 3 4 5 6 
#
# 1 104.7257 57.5605 24.7206 0.0000 0.0000 0.0000
# 2 57.5605 181.1486 36.7418 0.0000 0.0000 0.0000
# 3 24.7206 36.7418 33.3347 0.0000 0.0000 0.0000
# 4 0.0000 0.0000 0.0000 32.0776 0.0000 0.0000
# 5 0.0000 0.0000 0.0000 0.0000 10.4328 0.0000
# 6 0.0000 0.0000 0.0000 0.0000 0.0000 66.7801
#
#
#
# Elastic Compliance Matrix: (Units=1/GPa)
#
#
# Indices 1 2 3 4 5 6 
#
# 1 0.012522 -0.002699 -0.006312 0.000000 0.000000 0.000000
# 2 -0.002699 0.007691 -0.006476 0.000000 0.000000 0.000000
# 3 -0.006312 -0.006476 0.041817 0.000000 0.000000 0.000000
# 4 0.000000 0.000000 0.000000 0.031174 0.000000 0.000000
# 5 0.000000 0.000000 0.000000 0.000000 0.095852 0.000000
# 6 0.000000 0.000000 0.000000 0.000000 0.000000 0.014975
#
#
# Mechanical properties :
#
#
# Convention : Reuss Voigt Hill
#
# Bulk Modulus (GPa) = 32.19797 61.91720 47.05758
# Shear Modulus (GPa) = 20.37845 35.20383 27.79114
#
# Velocity S-wave (km/s) = 3.02950 3.98181 3.53785
# Velocity P-wave (km/s) = 5.17090 7.00182 6.15483
#
# Compressibility (1/GPa) = 0.03105786
#
# Stress axis : x y z
#
# Youngs Moduli (GPa) = 79.86003 130.01542 23.91344
#
# Poissons Ratio (x) = 0.35088 0.15093
# Poissons Ratio (y) = 0.21552 0.15487
# Poissons Ratio (z) = 0.50404 0.84200
#
# Static dielectric constant tensor:
#      x y z
#    x 2.086010 0.000000 0.000000 
#    y 0.000000 1.850320 0.000000 
#    z 0.000000 0.000000 1.899380 
# 
# From -- ./inp_files/45955.got.cif
#   From: 2010.05.17/outbox.cif.g08.bks.cpg/sg70_23_cif.got.tgz:45955.got - 2010.06.03 15:57:51.
