data_PCOD9517480
_publ_section_title
;
Structure prediction by ZEFSAII (Michael W. Deem and Ramdas Pophale) SiO2 
 PCOD9517480
Probable space group: I M M M
;
_chemical_formula_sum "Si O2"
_cell_formula_units_Z 72
_cell_length_a 18.251674
_cell_length_b 8.347999
_cell_length_c 24.236098
_cell_angle_alpha 90.000000
_cell_angle_beta 90.000000
_cell_angle_gamma 90.000000
_cell_volume 3692.732013
_symmetry_space_group_name_H-M "I M M M"
_symmetry_group_IT_number 71
_symmetry_cell_setting 'orthorhombic'
loop_
_space_group_symop_operation_xyz
x,y,z
-x,-y,z
x,-y,-z
-x,y,-z
-x,-y,-z
x,y,-z
-x,y,z
x,-y,z
1/2+x,1/2+y,1/2+z
1/2-x,1/2-y,1/2+z
1/2+x,1/2-y,1/2-z
1/2-x,1/2+y,1/2-z
1/2-x,1/2-y,1/2-z
1/2+x,1/2+y,1/2-z
1/2-x,1/2+y,1/2+z
1/2+x,1/2-y,1/2+z
loop_
_atom_site_type_symbol
_atom_site_label
_atom_site_fract_x
_atom_site_fract_y
_atom_site_fract_z
Si Si1 0.581588 0.695861 0.375910
Si Si2 0.500000 0.303579 0.935483
Si Si3 0.255842 0.674758 0.000000
Si Si4 0.892597 0.816866 0.000000
Si Si5 0.652818 0.315227 0.111472
Si Si6 0.274632 0.687204 0.309401
O O1 0.500000 0.736956 0.354567
O O2 0.586171 0.500000 0.377785
O O3 0.586151 0.752105 0.440050
O O4 0.651187 0.753484 0.339518
O O5 0.500000 0.500000 0.936927
O O6 0.427868 0.253014 0.902399
O O7 0.500000 0.252900 0.000000
O O8 0.306229 0.682198 0.053039
O O9 0.217600 0.500000 0.000000
O O10 0.195157 0.809397 0.000000
O O11 0.918575 0.000000 0.000000
O O12 0.647557 0.500000 0.131504
O O13 0.705224 0.218761 0.151495
O O14 0.288178 0.500000 0.303342
O O15 0.250000 0.750000 0.250000
#
# Coordination Sequence:
#
# PCOD9517480 Si02
#       6
#    16   8   8   8  16  16
#     4   9  18  33  56  85 110 136 176 224 268 317
#     4   9  16  30  55  87 117 147 185 226 269 328
#     4  10  18  28  51  83 115 146 176 218 271 328
#     4  10  17  30  55  85 112 138 172 217 270 331
#     4  10  19  34  57  83 112 147 187 229 274 326
#     4  11  23  40  60  79 107 146 190 235 278 327
#
# _framework density 19.49776
#
# number of rings (size 3 to 8) (size 9 to 14) (size 15 to 20)
#    0.000    2.111    3.333    1.000    0.000    1.333 
#    2.000    0.556    0.000    6.667    0.000    0.000 
#    0.000    0.000    0.000    0.000    0.000    0.000 
#
# Total GULP energy -200600.671118 kJ/mol
# GULP energy per Si atom -5572.240864 kJ/mol
# Density = 1.945338 g / cm^3
# Si number density = 19.497760 Si / 1000 Ang^3
#
#
#
# Elastic Constant Matrix: (Units=GPa)
#
#
# Indices 1 2 3 4 5 6 
#
# 1 178.5378 13.8248 67.0367 0.0000 0.0000 0.0000
# 2 13.8248 13.7500 17.0152 0.0000 0.0000 0.0000
# 3 67.0367 17.0152 134.7444 0.0000 0.0000 0.0000
# 4 0.0000 0.0000 0.0000 16.0887 0.0000 0.0000
# 5 0.0000 0.0000 0.0000 0.0000 0.0514 0.0000
# 6 0.0000 0.0000 0.0000 0.0000 0.0000 19.2442
#
#
#
# Elastic Compliance Matrix: (Units=1/GPa)
#
#
# Indices 1 2 3 4 5 6 
#
# 1 0.007007 -0.003237 -0.003077 0.000000 0.000000 0.000000
# 2 -0.003237 0.087693 -0.009463 0.000000 0.000000 0.000000
# 3 -0.003077 -0.009463 0.010147 0.000000 0.000000 0.000000
# 4 0.000000 0.000000 0.000000 0.062155 0.000000 0.000000
# 5 0.000000 0.000000 0.000000 0.000000 19.449658 0.000000
# 6 0.000000 0.000000 0.000000 0.000000 0.000000 0.051964
#
#
# Mechanical properties :
#
#
# Convention : Reuss Voigt Hill
#
# Bulk Modulus (GPa) = 13.64406 58.08730 35.86568
# Shear Modulus (GPa) = 0.25349 22.35389 11.30369
#
# Velocity S-wave (km/s) = 0.36096 3.38965 2.41040
# Velocity P-wave (km/s) = 2.68080 6.72132 5.11678
#
# Compressibility (1/GPa) = 0.07329195
#
# Stress axis : x y z
#
# Youngs Moduli (GPa) = 142.71032 11.40347 98.54690
#
# Poissons Ratio (x) = 0.03692 0.30326
# Poissons Ratio (y) = 0.46198 0.93256
# Poissons Ratio (z) = 0.43917 0.10791
#
# Static dielectric constant tensor:
#      x y z
#    x 1.709700 0.000000 0.000000 
#    y 0.000000 1.735220 0.000000 
#    z 0.000000 0.000000 1.700910 
# 
# From -- ./inp_files/60400.got.cif
#   From: 2010.05.17/outbox.cif.g08.bks.cpg/sg71_31_cif.got.tgz:60400.got - 2010.06.03 16:22:01.
