data_PCOD9517759
_publ_section_title
;
Structure prediction by ZEFSAII (Michael W. Deem and Ramdas Pophale) SiO2 
 PCOD9517759
Probable space group: I M M M
;
_chemical_formula_sum "Si O2"
_cell_formula_units_Z 112
_cell_length_a 30.778301
_cell_length_b 16.849592
_cell_length_c 14.697802
_cell_angle_alpha 90.000000
_cell_angle_beta 90.000000
_cell_angle_gamma 90.000000
_cell_volume 7622.306783
_symmetry_space_group_name_H-M "I M M M"
_symmetry_group_IT_number 71
_symmetry_cell_setting 'orthorhombic'
loop_
_space_group_symop_operation_xyz
x,y,z
-x,-y,z
x,-y,-z
-x,y,-z
-x,-y,-z
x,y,-z
-x,y,z
x,-y,z
1/2+x,1/2+y,1/2+z
1/2-x,1/2-y,1/2+z
1/2+x,1/2-y,1/2-z
1/2-x,1/2+y,1/2-z
1/2-x,1/2-y,1/2-z
1/2+x,1/2+y,1/2-z
1/2-x,1/2+y,1/2+z
1/2+x,1/2-y,1/2+z
loop_
_atom_site_type_symbol
_atom_site_label
_atom_site_fract_x
_atom_site_fract_y
_atom_site_fract_z
Si Si1 0.051941 0.907149 0.394311
Si Si2 0.248819 0.740033 0.141858
Si Si3 0.301027 0.408805 0.893611
Si Si4 0.287853 0.500000 0.609663
Si Si5 0.188768 0.500000 0.610992
Si Si6 0.377049 0.684754 0.209893
Si Si7 0.835993 0.163346 0.104129
Si Si8 0.838196 0.672330 0.395404
O O1 0.063283 0.889677 0.500000
O O2 0.078376 0.851148 0.327134
O O3 0.000000 0.899193 0.385240
O O4 0.062974 0.000000 0.378110
O O5 0.250000 0.750000 0.250000
O O6 0.260052 0.649444 0.118292
O O7 0.203213 0.773073 0.107674
O O8 0.289016 0.792455 0.104963
O O9 0.292837 0.500000 0.869010
O O10 0.339343 0.370975 0.834003
O O11 0.313983 0.405690 0.000000
O O12 0.284273 0.500000 0.500000
O O13 0.238582 0.500000 0.645114
O O14 0.313694 0.579703 0.632212
O O15 0.190373 0.500000 0.500000
O O16 0.165493 0.581693 0.636694
O O17 0.370600 0.683641 0.318134
O O18 0.366487 0.770974 0.168264
O O19 0.851811 0.157197 0.000000
O O20 0.853675 0.675565 0.500000
#
# Coordination Sequence:
#
# PCOD9517759 Si02
#       8
#    16  16  16   8   8  16  16  16
#     4   9  18  33  53  75  96 116 137 170 224 284
#     4  11  18  30  41  59  84 120 158 193 227 258
#     4  10  20  31  44  63  88 118 149 187 234 274
#     4   9  18  28  40  56  76 117 163 195 222 249
#     4   9  16  26  42  60  86 120 153 186 224 262
#     4  11  20  30  47  69  89 113 150 188 227 269
#     4  11  21  31  43  60  89 124 161 198 228 256
#     4  10  18  29  43  63  88 117 149 188 228 263
#
# _framework density 14.693714999999999
#
# number of rings (size 3 to 8) (size 9 to 14) (size 15 to 20)
#    0.000    1.857    4.286    4.286    2.000    1.143 
#    1.286    0.000    0.000    0.429    0.000    1.500 
#    0.000    2.857    0.000    0.000    0.000    1.429 
#
# Total GULP energy -312387.712725 kJ/mol
# GULP energy per Si atom -5578.352013 kJ/mol
# Density = 1.466027 g / cm^3
# Si number density = 14.693715 Si / 1000 Ang^3
#
#
#
# Elastic Constant Matrix: (Units=GPa)
#
#
# Indices 1 2 3 4 5 6 
#
# 1 35.5537 19.9225 22.0278 0.0000 0.0000 0.0000
# 2 19.9225 111.0799 29.8379 0.0000 0.0000 0.0000
# 3 22.0278 29.8379 88.2937 0.0000 0.0000 0.0000
# 4 0.0000 0.0000 0.0000 -6.7720 0.0000 0.0000
# 5 0.0000 0.0000 0.0000 0.0000 15.2267 0.0000
# 6 0.0000 0.0000 0.0000 0.0000 0.0000 13.4379
#
#
#
# Elastic Compliance Matrix: (Units=1/GPa)
#
#
# Indices 1 2 3 4 5 6 
#
# 1 0.035068 -0.004333 -0.007285 0.000000 0.000000 0.000000
# 2 -0.004333 0.010437 -0.002446 0.000000 0.000000 0.000000
# 3 -0.007285 -0.002446 0.013970 0.000000 0.000000 0.000000
# 4 0.000000 0.000000 0.000000 -0.147667 0.000000 0.000000
# 5 0.000000 0.000000 0.000000 0.000000 0.065674 0.000000
# 6 0.000000 0.000000 0.000000 0.000000 0.000000 0.074416
#
#
# Mechanical properties :
#
#
# Convention : Reuss Voigt Hill
#
# Bulk Modulus (GPa) = 31.90053 42.05597 36.97825
# Shear Modulus (GPa) = 55.26491 15.25445 35.25968
#
# Velocity S-wave (km/s) = 6.13945 3.22555 4.90393
# Velocity P-wave (km/s) = 8.48615 6.52350 7.56871
#
# Compressibility (1/GPa) = 0.03134744
#
# Stress axis : x y z
#
# Youngs Moduli (GPa) = 28.51633 95.81608 71.58290
#
# Poissons Ratio (x) = 0.41515 0.52145
# Poissons Ratio (y) = 0.12355 0.17509
# Poissons Ratio (z) = 0.20773 0.23437
#
# Static dielectric constant tensor:
#      x y z
#    x 1.462020 0.000000 0.000000 
#    y 0.000000 1.506590 0.000000 
#    z 0.000000 0.000000 1.519310 
# 
# From -- ./inp_files/41218.got.cif
#   From: 2010.05.17/outbox.cif.g08.bks.cpg/sg71_21_cif.got.tgz:41218.got - 2010.06.03 16:22:01.
