data_PCOD9517706
_publ_section_title
;
Structure prediction by ZEFSAII (Michael W. Deem and Ramdas Pophale) SiO2 
 PCOD9517706
Probable space group: I M M M
;
_chemical_formula_sum "Si O2"
_cell_formula_units_Z 80
_cell_length_a 20.101188
_cell_length_b 7.682439
_cell_length_c 26.953283
_cell_angle_alpha 90.000000
_cell_angle_beta 90.000000
_cell_angle_gamma 90.000000
_cell_volume 4162.291741
_symmetry_space_group_name_H-M "I M M M"
_symmetry_group_IT_number 71
_symmetry_cell_setting 'orthorhombic'
loop_
_space_group_symop_operation_xyz
x,y,z
-x,-y,z
x,-y,-z
-x,y,-z
-x,-y,-z
x,y,-z
-x,y,z
x,-y,z
1/2+x,1/2+y,1/2+z
1/2-x,1/2-y,1/2+z
1/2+x,1/2-y,1/2-z
1/2-x,1/2+y,1/2-z
1/2-x,1/2-y,1/2-z
1/2+x,1/2+y,1/2-z
1/2-x,1/2+y,1/2+z
1/2+x,1/2-y,1/2+z
loop_
_atom_site_type_symbol
_atom_site_label
_atom_site_fract_x
_atom_site_fract_y
_atom_site_fract_z
Si Si1 0.828093 0.208390 0.393856
Si Si2 0.823668 0.290435 0.892431
Si Si3 0.808803 0.202482 0.000000
Si Si4 0.342161 0.697220 0.000000
Si Si5 0.076559 0.712692 0.192213
Si Si6 0.424451 0.790426 0.196124
O O1 0.752527 0.273635 0.386374
O O2 0.857377 0.278177 0.446238
O O3 0.874056 0.240346 0.346873
O O4 0.823014 0.000000 0.400535
O O5 0.822426 0.500000 0.888785
O O6 0.844789 0.244563 0.948506
O O7 0.872942 0.225399 0.849874
O O8 0.738895 0.305850 0.000000
O O9 0.791226 0.000000 0.000000
O O10 0.369087 0.500000 0.000000
O O11 0.077616 0.500000 0.191703
O O12 0.094806 0.767877 0.248259
O O13 0.000000 0.764254 0.182996
O O14 0.500000 0.729193 0.186245
O O15 0.426338 0.000000 0.197486
#
# Coordination Sequence:
#
# PCOD9517706 Si02
#       6
#    16  16   8   8  16  16
#     4   9  17  29  47  70  93 119 151 188 232 277
#     4   9  17  31  50  70  93 121 155 193 227 266
#     4  10  18  28  45  70  97 123 151 185 231 280
#     4   8  16  32  49  66  93 125 155 189 227 268
#     4   8  15  30  51  70  89 120 160 194 225 267
#     4   9  18  32  48  67  93 123 154 191 233 273
#
# _framework density 19.220179999999999
#
# number of rings (size 3 to 8) (size 9 to 14) (size 15 to 20)
#    0.000    3.200    0.000    3.300    0.000    4.400 
#    0.000    2.000    0.000    7.800    0.000    0.000 
#    0.000    0.000    0.000    0.000    0.000    0.000 
#
# Total GULP energy -222810.491840 kJ/mol
# GULP energy per Si atom -5570.262296 kJ/mol
# Density = 1.917643 g / cm^3
# Si number density = 19.220180 Si / 1000 Ang^3
#
#
#
# Elastic Constant Matrix: (Units=GPa)
#
#
# Indices 1 2 3 4 5 6 
#
# 1 81.0422 2.7469 110.4353 0.0000 0.0000 0.0000
# 2 2.7469 36.8373 0.3019 0.0000 0.0000 0.0000
# 3 110.4353 0.3019 223.5565 0.0000 0.0000 0.0000
# 4 0.0000 0.0000 0.0000 21.1667 0.0000 0.0000
# 5 0.0000 0.0000 0.0000 0.0000 -38.6595 0.0000
# 6 0.0000 0.0000 0.0000 0.0000 0.0000 9.8904
#
#
#
# Elastic Compliance Matrix: (Units=1/GPa)
#
#
# Indices 1 2 3 4 5 6 
#
# 1 0.038016 -0.002681 -0.018776 0.000000 0.000000 0.000000
# 2 -0.002681 0.027336 0.001287 0.000000 0.000000 0.000000
# 3 -0.018776 0.001287 0.013747 0.000000 0.000000 0.000000
# 4 0.000000 0.000000 0.000000 0.047244 0.000000 0.000000
# 5 0.000000 0.000000 0.000000 0.000000 -0.025867 0.000000
# 6 0.000000 0.000000 0.000000 0.000000 0.000000 0.101108
#
#
# Mechanical properties :
#
#
# Convention : Reuss Voigt Hill
#
# Bulk Modulus (GPa) = 25.80018 63.15602 44.47810
# Shear Modulus (GPa) = 19.62000 13.67631 16.64815
#
# Velocity S-wave (km/s) = 3.19847 2.67040 2.94629
# Velocity P-wave (km/s) = 5.20508 6.51449 5.89625
#
# Compressibility (1/GPa) = 0.03875942
#
# Stress axis : x y z
#
# Youngs Moduli (GPa) = 26.30482 36.58209 72.74544
#
# Poissons Ratio (x) = 0.09807 1.36586
# Poissons Ratio (y) = 0.07052 -0.09365
# Poissons Ratio (z) = 0.49390 -0.04710
#
# Static dielectric constant tensor:
#      x y z
#    x 1.638550 0.000000 0.000000 
#    y 0.000000 1.738590 0.000000 
#    z 0.000000 0.000000 1.702090 
# 
# From -- ./inp_files/8648.got.cif
#   From: 2010.05.17/outbox.cif.g08.bks.cpg/sg71_5_cif.got.tgz:8648.got - 2010.06.03 16:22:01.
