data_PCOD9517008
_publ_section_title
;
Structure prediction by ZEFSAII (Michael W. Deem and Ramdas Pophale) SiO2 
 PCOD9517008
Probable space group: F D D D
;
_chemical_formula_sum "Si O2"
_cell_formula_units_Z 144
_cell_length_a 11.831715
_cell_length_b 25.418986
_cell_length_c 22.823278
_cell_angle_alpha 90.000000
_cell_angle_beta 90.000000
_cell_angle_gamma 90.000000
_cell_volume 6864.105376
_symmetry_space_group_name_H-M "F D D D"
_symmetry_group_IT_number 70
_space_group.IT_coordinate_system_code '2'
_symmetry_cell_setting 'orthorhombic'
loop_
_space_group_symop_operation_xyz
x,y,z
1/4-x,1/4-y,z
x,1/4-y,1/4-z
1/4-x,y,1/4-z
-x,-y,-z
3/4+x,3/4+y,-z
-x,3/4+y,3/4+z
3/4+x,-y,3/4+z
x,1/2+y,1/2+z
1/4-x,3/4-y,1/2+z
x,3/4-y,3/4-z
1/4-x,1/2+y,3/4-z
-x,1/2-y,1/2-z
3/4+x,1/4+y,1/2-z
-x,1/4+y,1/4+z
3/4+x,1/2-y,1/4+z
1/2+x,y,1/2+z
3/4-x,1/4-y,1/2+z
1/2+x,1/4-y,3/4-z
3/4-x,y,3/4-z
1/2-x,-y,1/2-z
1/4+x,3/4+y,1/2-z
1/2-x,3/4+y,1/4+z
1/4+x,-y,1/4+z
1/2+x,1/2+y,z
3/4-x,3/4-y,z
1/2+x,3/4-y,1/4-z
3/4-x,1/2+y,1/4-z
1/2-x,1/2-y,-z
1/4+x,1/4+y,-z
1/2-x,1/4+y,3/4+z
1/4+x,1/2-y,3/4+z
loop_
_atom_site_type_symbol
_atom_site_label
_atom_site_fract_x
_atom_site_fract_y
_atom_site_fract_z
Si Si1 0.504822 0.892236 0.224108
Si Si2 0.504338 0.252322 0.095880
Si Si3 0.625000 0.215140 0.625000
Si Si4 0.097656 0.323483 0.401531
Si Si5 0.865545 0.718124 0.984437
O O1 0.375000 0.875000 0.234446
O O2 0.558618 0.916997 0.282588
O O3 0.578083 0.839820 0.215139
O O4 0.503654 0.936480 0.173429
O O5 0.625000 0.240096 0.125000
O O6 0.416086 0.230043 0.143233
O O7 0.455718 0.222945 0.037197
O O8 0.734934 0.181260 0.611294
O O9 0.660933 0.251404 0.678323
O O10 0.159731 0.375000 0.375000
O O11 0.750000 0.750000 0.000000
#
# Coordination Sequence:
#
# PCOD9517008 Si02
#       5
#    32  32  16  32  32
#     4  12  23  45  75 106 140 189 257 313 360 440
#     4  12  28  46  67 105 159 190 239 310 387 458
#     4  12  21  38  74 108 132 174 253 318 352 428
#     4  12  22  40  73 106 139 190 247 308 372 434
#     4  12  22  44  70 104 138 186 245 303 363 439
#
# _framework density 20.978698999999999
#
# number of rings (size 3 to 8) (size 9 to 14) (size 15 to 20)
#    0.000    0.000    8.889    1.667    1.556    1.333 
#    0.000    0.000    0.000    0.000    0.000    0.000 
#    0.000    0.000    0.000    0.000    0.000    0.000 
#
# Total GULP energy -200912.333680 kJ/mol
# GULP energy per Si atom -5580.898158 kJ/mol
# Density = 2.093095 g / cm^3
# Si number density = 20.978699 Si / 1000 Ang^3
#
#
#
# Elastic Constant Matrix: (Units=GPa)
#
#
# Indices 1 2 3 4 5 6 
#
# 1 112.3190 42.8885 35.0345 0.0000 0.0000 0.0000
# 2 42.8885 154.5210 33.3888 0.0000 0.0000 0.0000
# 3 35.0345 33.3888 77.9320 0.0000 0.0000 0.0000
# 4 0.0000 0.0000 0.0000 44.4456 0.0000 0.0000
# 5 0.0000 0.0000 0.0000 0.0000 28.8179 0.0000
# 6 0.0000 0.0000 0.0000 0.0000 0.0000 32.3764
#
#
#
# Elastic Compliance Matrix: (Units=1/GPa)
#
#
# Indices 1 2 3 4 5 6 
#
# 1 0.010986 -0.002184 -0.004003 0.000000 0.000000 0.000000
# 2 -0.002184 0.007566 -0.002260 0.000000 0.000000 0.000000
# 3 -0.004003 -0.002260 0.015599 0.000000 0.000000 0.000000
# 4 0.000000 0.000000 0.000000 0.022499 0.000000 0.000000
# 5 0.000000 0.000000 0.000000 0.000000 0.034701 0.000000
# 6 0.000000 0.000000 0.000000 0.000000 0.000000 0.030887
#
#
# Mechanical properties :
#
#
# Convention : Reuss Voigt Hill
#
# Bulk Modulus (GPa) = 57.94521 63.04393 60.49457
# Shear Modulus (GPa) = 34.51031 36.69200 35.60116
#
# Velocity S-wave (km/s) = 4.06028 4.18666 4.12395
# Velocity P-wave (km/s) = 7.04714 7.31351 7.18156
#
# Compressibility (1/GPa) = 0.01725768
#
# Stress axis : x y z
#
# Youngs Moduli (GPa) = 91.02622 132.16784 64.10538
#
# Poissons Ratio (x) = 0.28869 0.25661
# Poissons Ratio (y) = 0.19883 0.14486
# Poissons Ratio (z) = 0.36437 0.29865
#
# Static dielectric constant tensor:
#      x y z
#    x 1.772890 0.000000 0.000000 
#    y 0.000000 1.842450 0.000000 
#    z 0.000000 0.000000 1.803620 
# 
# From -- ./inp_files/20627.got.cif
#   From: 2010.05.17/outbox.cif.g08.bks.cpg/sg70_11_cif.got.tgz:20627.got - 2010.06.03 15:57:51.
