data_PCOD9517679
_publ_section_title
;
Structure prediction by ZEFSAII (Michael W. Deem and Ramdas Pophale) SiO2 
 PCOD9517679
Probable space group: I M M M
;
_chemical_formula_sum "Si O2"
_cell_formula_units_Z 112
_cell_length_a 30.033674
_cell_length_b 7.414140
_cell_length_c 26.588150
_cell_angle_alpha 90.000000
_cell_angle_beta 90.000000
_cell_angle_gamma 90.000000
_cell_volume 5920.486090
_symmetry_space_group_name_H-M "I M M M"
_symmetry_group_IT_number 71
_symmetry_cell_setting 'orthorhombic'
loop_
_space_group_symop_operation_xyz
x,y,z
-x,-y,z
x,-y,-z
-x,y,-z
-x,-y,-z
x,y,-z
-x,y,z
x,-y,z
1/2+x,1/2+y,1/2+z
1/2-x,1/2-y,1/2+z
1/2+x,1/2-y,1/2-z
1/2-x,1/2+y,1/2-z
1/2-x,1/2-y,1/2-z
1/2+x,1/2+y,1/2-z
1/2-x,1/2+y,1/2+z
1/2+x,1/2-y,1/2+z
loop_
_atom_site_type_symbol
_atom_site_label
_atom_site_fract_x
_atom_site_fract_y
_atom_site_fract_z
Si Si1 0.697495 0.784349 0.749594
Si Si2 0.698637 0.780088 0.942911
Si Si3 0.950594 0.280762 0.692911
Si Si4 0.642927 0.220791 0.152435
Si Si5 0.799961 0.783808 0.943800
Si Si6 0.549266 0.219604 0.310345
Si Si7 0.857253 0.714430 0.153520
O O1 0.750000 0.750000 0.750000
O O2 0.672705 0.719974 0.799946
O O3 0.673587 0.714634 0.699064
O O4 0.692081 0.000000 0.749739
O O5 0.665361 0.719933 0.899462
O O6 0.749528 0.722339 0.931942
O O7 0.698432 0.000000 0.942453
O O8 0.687604 0.724942 0.000000
O O9 0.950745 0.500000 0.691719
O O10 0.907876 0.221118 0.661535
O O11 0.944481 0.231445 0.751601
O O12 0.000000 0.221076 0.676891
O O13 0.643110 0.000000 0.152310
O O14 0.834069 0.740890 0.899844
O O15 0.797768 0.000000 0.946210
O O16 0.811837 0.718886 0.000000
O O17 0.500000 0.280748 0.326413
O O18 0.592289 0.283057 0.340832
O O19 0.548375 0.000000 0.311969
O O20 0.860092 0.500000 0.161083
#
# Coordination Sequence:
#
# PCOD9517679 Si02
#       7
#    16  16  16  16  16  16  16
#     4  10  19  28  39  60  88 115 140 170 212 259
#     4   8  14  24  38  54  72 103 147 181 200 232
#     4   8  12  19  33  53  77 105 135 165 201 247
#     4   9  14  22  36  54  79 106 133 169 209 245
#     4   9  18  32  47  62  82 113 150 177 204 252
#     4   8  13  23  39  59  84 109 133 167 211 257
#     4  10  18  28  44  67  89 107 137 180 221 257
#
# _framework density 18.917365
#
# number of rings (size 3 to 8) (size 9 to 14) (size 15 to 20)
#    0.000    3.143    1.429    2.571    0.000    2.000 
#    0.000    0.000    0.000    1.286    0.000    6.000 
#    0.000    0.571    0.000    0.000    0.000    0.000 
#
# Total GULP energy -312284.782688 kJ/mol
# GULP energy per Si atom -5576.513977 kJ/mol
# Density = 1.887431 g / cm^3
# Si number density = 18.917365 Si / 1000 Ang^3
#
#
#
# Elastic Constant Matrix: (Units=GPa)
#
#
# Indices 1 2 3 4 5 6 
#
# 1 214.6523 4.2864 129.3360 0.0000 0.0000 0.0000
# 2 4.2864 59.2506 3.0103 0.0000 0.0000 0.0000
# 3 129.3360 3.0103 144.6216 0.0000 0.0000 0.0000
# 4 0.0000 0.0000 0.0000 -0.1115 0.0000 0.0000
# 5 0.0000 0.0000 0.0000 0.0000 27.3022 0.0000
# 6 0.0000 0.0000 0.0000 0.0000 0.0000 8.4737
#
#
#
# Elastic Compliance Matrix: (Units=1/GPa)
#
#
# Indices 1 2 3 4 5 6 
#
# 1 0.010107 -0.000272 -0.009033 0.000000 0.000000 0.000000
# 2 -0.000272 0.016903 -0.000108 0.000000 0.000000 0.000000
# 3 -0.009033 -0.000108 0.014995 0.000000 0.000000 0.000000
# 4 0.000000 0.000000 0.000000 -8.971770 0.000000 0.000000
# 5 0.000000 0.000000 0.000000 0.000000 0.036627 0.000000
# 6 0.000000 0.000000 0.000000 0.000000 0.000000 0.118012
#
#
# Mechanical properties :
#
#
# Convention : Reuss Voigt Hill
#
# Bulk Modulus (GPa) = 43.14533 76.86553 60.00543
# Shear Modulus (GPa) = -0.57152 25.92568 12.67708
#
# Velocity S-wave (km/s) = -0.55025 3.70600 2.59149
# Velocity P-wave (km/s) = 4.73847 7.68330 6.38303
#
# Compressibility (1/GPa) = 0.02317748
#
# Stress axis : x y z
#
# Youngs Moduli (GPa) = 98.94345 59.16229 66.68882
#
# Poissons Ratio (x) = 0.01611 0.60239
# Poissons Ratio (y) = 0.02694 0.00723
# Poissons Ratio (z) = 0.89375 0.00641
#
# Static dielectric constant tensor:
#      x y z
#    x 1.660190 0.000000 0.000000 
#    y 0.000000 1.813090 0.000000 
#    z 0.000000 0.000000 1.640410 
# 
# From -- ./inp_files/27950.got.cif
#   From: 2010.05.17/outbox.cif.g08.bks.cpg/sg71_14_cif.got.tgz:27950.got - 2010.06.03 16:22:01.
