data_PCOD9517402
_publ_section_title
;
Structure prediction by ZEFSAII (Michael W. Deem and Ramdas Pophale) SiO2 
 PCOD9517402
Probable space group: I M M M
;
_chemical_formula_sum "Si O2"
_cell_formula_units_Z 120
_cell_length_a 14.284847
_cell_length_b 19.611311
_cell_length_c 19.820386
_cell_angle_alpha 90.000000
_cell_angle_beta 90.000000
_cell_angle_gamma 90.000000
_cell_volume 5552.573654
_symmetry_space_group_name_H-M "I M M M"
_symmetry_group_IT_number 71
_symmetry_cell_setting 'orthorhombic'
loop_
_space_group_symop_operation_xyz
x,y,z
-x,-y,z
x,-y,-z
-x,y,-z
-x,-y,-z
x,y,-z
-x,y,z
x,-y,z
1/2+x,1/2+y,1/2+z
1/2-x,1/2-y,1/2+z
1/2+x,1/2-y,1/2-z
1/2-x,1/2+y,1/2-z
1/2-x,1/2-y,1/2-z
1/2+x,1/2+y,1/2-z
1/2-x,1/2+y,1/2+z
1/2+x,1/2-y,1/2+z
loop_
_atom_site_type_symbol
_atom_site_label
_atom_site_fract_x
_atom_site_fract_y
_atom_site_fract_z
Si Si1 0.395972 0.253571 0.097751
Si Si2 0.602233 0.717522 0.393409
Si Si3 0.801638 0.112935 0.422770
Si Si4 0.898489 0.376871 0.921793
Si Si5 0.143324 0.726079 0.250103
Si Si6 0.716573 0.123935 0.925335
Si Si7 0.000000 0.079566 0.577776
Si Si8 0.389119 0.076169 0.204150
O O1 0.500000 0.273269 0.076186
O O2 0.316483 0.305880 0.075142
O O3 0.396085 0.249458 0.178414
O O4 0.365278 0.180543 0.072203
O O5 0.500000 0.689510 0.413021
O O6 0.609060 0.794330 0.423174
O O7 0.602076 0.736119 0.314106
O O8 0.687658 0.666817 0.410396
O O9 0.804218 0.086381 0.500000
O O10 0.700345 0.096464 0.393178
O O11 0.900073 0.094766 0.388209
O O12 0.000000 0.394663 0.890917
O O13 0.900315 0.399313 0.000000
O O14 0.250000 0.750000 0.250000
O O15 0.131776 0.643715 0.250843
O O16 0.680882 0.081353 0.860629
O O17 0.724184 0.091778 0.000000
O O18 0.000000 0.105946 0.500000
O O19 0.000000 0.000000 0.571218
O O20 0.500000 0.082119 0.184617
O O21 0.377771 0.000000 0.234098
#
# Coordination Sequence:
#
# PCOD9517402 Si02
#       8
#    16  16  16  16  16  16   8  16
#     4  11  20  30  48  80 114 143 177 233 300 359
#     4  11  20  32  53  83 116 151 193 251 307 354
#     4  10  17  28  46  70 100 136 172 219 282 339
#     4   9  17  29  46  72 107 140 173 220 285 350
#     4  11  19  36  59  85 115 152 197 248 306 361
#     4  11  21  34  54  85 122 159 202 248 301 364
#     4   9  18  30  46  68  96 136 179 215 264 340
#     4  10  22  40  61  89 127 167 205 250 310 380
#
# _framework density 21.611599999999999
#
# number of rings (size 3 to 8) (size 9 to 14) (size 15 to 20)
#    0.000    1.667    4.667    3.200    0.000    2.667 
#    0.000    0.667    0.000    4.000    0.000    5.600 
#    0.000    0.533    0.000    3.333    0.000    0.000 
#
# Total GULP energy -334240.966414 kJ/mol
# GULP energy per Si atom -5570.682774 kJ/mol
# Density = 2.156241 g / cm^3
# Si number density = 21.611600 Si / 1000 Ang^3
#
#
#
# Elastic Constant Matrix: (Units=GPa)
#
#
# Indices 1 2 3 4 5 6 
#
# 1 216.7929 22.8701 10.1988 0.0000 0.0000 0.0000
# 2 22.8701 64.6411 -4.3652 0.0000 0.0000 0.0000
# 3 10.1988 -4.3652 82.2945 0.0000 0.0000 0.0000
# 4 0.0000 0.0000 0.0000 2.0074 0.0000 0.0000
# 5 0.0000 0.0000 0.0000 0.0000 40.9729 0.0000
# 6 0.0000 0.0000 0.0000 0.0000 0.0000 7.2814
#
#
#
# Elastic Compliance Matrix: (Units=1/GPa)
#
#
# Indices 1 2 3 4 5 6 
#
# 1 0.004830 -0.001756 -0.000692 0.000000 0.000000 0.000000
# 2 -0.001756 0.016164 0.001075 0.000000 0.000000 0.000000
# 3 -0.000692 0.001075 0.012294 0.000000 0.000000 0.000000
# 4 0.000000 0.000000 0.000000 0.498168 0.000000 0.000000
# 5 0.000000 0.000000 0.000000 0.000000 0.024406 0.000000
# 6 0.000000 0.000000 0.000000 0.000000 0.000000 0.137336
#
#
# Mechanical properties :
#
#
# Convention : Reuss Voigt Hill
#
# Bulk Modulus (GPa) = 32.74025 46.79287 39.76656
# Shear Modulus (GPa) = 7.08090 32.38732 19.73411
#
# Velocity S-wave (km/s) = 1.81206 3.87539 3.02508
# Velocity P-wave (km/s) = 4.42271 6.45938 5.53552
#
# Compressibility (1/GPa) = 0.03054345
#
# Stress axis : x y z
#
# Youngs Moduli (GPa) = 207.01969 61.86659 81.33890
#
# Poissons Ratio (x) = 0.10862 0.05627
# Poissons Ratio (y) = 0.36347 -0.08744
# Poissons Ratio (z) = 0.14321 -0.06651
#
# Static dielectric constant tensor:
#      x y z
#    x 1.840590 0.000000 0.000000 
#    y 0.000000 1.801390 0.000000 
#    z 0.000000 0.000000 1.855620 
# 
# From -- ./inp_files/53425.got.cif
#   From: 2010.05.17/outbox.cif.g08.bks.cpg/sg71_27_cif.got.tgz:53425.got - 2010.06.03 16:22:01.
