data_PCOD9517254
_publ_section_title
;
Structure prediction by ZEFSAII (Michael W. Deem and Ramdas Pophale) SiO2 
 PCOD9517254
Probable space group: I M M M
;
_chemical_formula_sum "Si O2"
_cell_formula_units_Z 88
_cell_length_a 8.290926
_cell_length_b 25.047170
_cell_length_c 31.207384
_cell_angle_alpha 90.000000
_cell_angle_beta 90.000000
_cell_angle_gamma 90.000000
_cell_volume 6480.657462
_symmetry_space_group_name_H-M "I M M M"
_symmetry_group_IT_number 71
_symmetry_cell_setting 'orthorhombic'
loop_
_space_group_symop_operation_xyz
x,y,z
-x,-y,z
x,-y,-z
-x,y,-z
-x,-y,-z
x,y,-z
-x,y,z
x,-y,z
1/2+x,1/2+y,1/2+z
1/2-x,1/2-y,1/2+z
1/2+x,1/2-y,1/2-z
1/2-x,1/2+y,1/2-z
1/2-x,1/2-y,1/2-z
1/2+x,1/2+y,1/2-z
1/2-x,1/2+y,1/2+z
1/2+x,1/2-y,1/2+z
loop_
_atom_site_type_symbol
_atom_site_label
_atom_site_fract_x
_atom_site_fract_y
_atom_site_fract_z
Si Si1 0.306548 0.180151 0.838327
Si Si2 0.192343 0.279375 0.793244
Si Si3 0.688460 0.000000 0.759907
Si Si4 0.193535 0.937402 0.000000
Si Si5 0.197520 0.617856 0.251691
Si Si6 0.187101 0.000000 0.146351
Si Si7 0.193685 0.599240 0.591429
O O1 0.500000 0.179743 0.836268
O O2 0.252404 0.240856 0.830759
O O3 0.251223 0.143385 0.797688
O O4 0.257713 0.152642 0.882798
O O5 0.250000 0.250000 0.750000
O O6 0.245690 0.340449 0.785494
O O7 0.000000 0.279357 0.794238
O O8 0.757121 0.942582 0.745892
O O9 0.704704 0.000000 0.811341
O O10 0.500000 0.000000 0.747800
O O11 0.254196 0.907911 0.957437
O O12 0.000000 0.938105 0.000000
O O13 0.248108 0.000000 0.000000
O O14 0.000000 0.616206 0.253003
O O15 0.227337 0.948911 0.117816
O O16 0.000000 0.000000 0.159023
O O17 0.000000 0.594248 0.594036
#
# Coordination Sequence:
#
# PCOD9517254 Si02
#       7
#    16  16   8   8  16   8  16
#     4   9  17  29  43  59  73  94 132 166 194 233
#     4   9  16  26  38  56  77  99 126 158 198 235
#     4  10  16  28  43  55  76 108 136 163 196 234
#     4  11  23  35  45  63  84  98 122 165 208 243
#     4   8  14  24  39  57  75  98 130 160 189 231
#     4  12  22  29  39  60  82  98 127 168 209 241
#     4  11  21  34  49  59  72 102 137 162 198 249
#
# _framework density 13.578868
#
# number of rings (size 3 to 8) (size 9 to 14) (size 15 to 20)
#    0.000    2.273    2.727    3.273    0.000    1.818 
#    0.000    0.909    0.000    0.000    0.000    0.000 
#    0.000    0.000    0.000    0.000    0.000    0.909 
#
# Total GULP energy -245025.062099 kJ/mol
# GULP energy per Si atom -5568.751411 kJ/mol
# Density = 1.354796 g / cm^3
# Si number density = 13.578868 Si / 1000 Ang^3
#
#
#
# Elastic Constant Matrix: (Units=GPa)
#
#
# Indices 1 2 3 4 5 6 
#
# 1 17.7969 10.0286 8.9312 0.0000 0.0000 0.0000
# 2 10.0286 123.5957 53.1954 0.0000 0.0000 0.0000
# 3 8.9312 53.1954 59.3740 0.0000 0.0000 0.0000
# 4 0.0000 0.0000 0.0000 18.3077 0.0000 0.0000
# 5 0.0000 0.0000 0.0000 0.0000 13.8747 0.0000
# 6 0.0000 0.0000 0.0000 0.0000 0.0000 14.9217
#
#
#
# Elastic Compliance Matrix: (Units=1/GPa)
#
#
# Indices 1 2 3 4 5 6 
#
# 1 0.060978 -0.001628 -0.007714 0.000000 0.000000 0.000000
# 2 -0.001628 0.013212 -0.011593 0.000000 0.000000 0.000000
# 3 -0.007714 -0.011593 0.028389 0.000000 0.000000 0.000000
# 4 0.000000 0.000000 0.000000 0.054622 0.000000 0.000000
# 5 0.000000 0.000000 0.000000 0.000000 0.072074 0.000000
# 6 0.000000 0.000000 0.000000 0.000000 0.000000 0.067017
#
#
# Mechanical properties :
#
#
# Convention : Reuss Voigt Hill
#
# Bulk Modulus (GPa) = 16.47162 38.34188 27.40675
# Shear Modulus (GPa) = 13.95098 17.99490 15.97294
#
# Velocity S-wave (km/s) = 3.20879 3.64430 3.43346
# Velocity P-wave (km/s) = 5.08774 6.78274 5.99545
#
# Compressibility (1/GPa) = 0.06071047
#
# Stress axis : x y z
#
# Youngs Moduli (GPa) = 16.39936 75.68638 35.22478
#
# Poissons Ratio (x) = 0.12318 0.27173
# Poissons Ratio (y) = 0.02669 0.40835
# Poissons Ratio (z) = 0.12651 0.87741
#
# Static dielectric constant tensor:
#      x y z
#    x 1.477480 0.000000 0.000000 
#    y 0.000000 1.485930 0.000000 
#    z 0.000000 0.000000 1.427260 
# 
# From -- ./inp_files/17199.got.cif
#   From: 2010.05.17/outbox.cif.g08.bks.cpg/sg71_9_cif.got.tgz:17199.got - 2010.06.03 16:22:01.
