data_PCOD9517406
_publ_section_title
;
Structure prediction by ZEFSAII (Michael W. Deem and Ramdas Pophale) SiO2 
 PCOD9517406
Probable space group: I M M M
;
_chemical_formula_sum "Si O2"
_cell_formula_units_Z 128
_cell_length_a 18.687389
_cell_length_b 17.909208
_cell_length_c 24.033930
_cell_angle_alpha 90.000000
_cell_angle_beta 90.000000
_cell_angle_gamma 90.000000
_cell_volume 8043.587646
_symmetry_space_group_name_H-M "I M M M"
_symmetry_group_IT_number 71
_symmetry_cell_setting 'orthorhombic'
loop_
_space_group_symop_operation_xyz
x,y,z
-x,-y,z
x,-y,-z
-x,y,-z
-x,-y,-z
x,y,-z
-x,y,z
x,-y,z
1/2+x,1/2+y,1/2+z
1/2-x,1/2-y,1/2+z
1/2+x,1/2-y,1/2-z
1/2-x,1/2+y,1/2-z
1/2-x,1/2-y,1/2-z
1/2+x,1/2+y,1/2-z
1/2-x,1/2+y,1/2+z
1/2+x,1/2-y,1/2+z
loop_
_atom_site_type_symbol
_atom_site_label
_atom_site_fract_x
_atom_site_fract_y
_atom_site_fract_z
Si Si1 0.413611 0.914137 0.132581
Si Si2 0.419543 0.813906 0.352409
Si Si3 0.711468 0.414553 0.762913
Si Si4 0.192385 0.828338 0.627521
Si Si5 0.820876 0.588897 0.933068
Si Si6 0.211975 0.779993 0.807757
Si Si7 0.379910 0.915142 0.255963
Si Si8 0.414411 0.230333 0.935637
O O1 0.500000 0.916336 0.135329
O O2 0.385733 0.887835 0.192824
O O3 0.393561 0.851081 0.088457
O O4 0.389381 0.000000 0.122081
O O5 0.500000 0.788894 0.367077
O O6 0.380921 0.861039 0.401677
O O7 0.364475 0.752668 0.327328
O O8 0.423341 0.869609 0.300216
O O9 0.689326 0.500000 0.757465
O O10 0.676480 0.373904 0.815876
O O11 0.702678 0.366522 0.706918
O O12 0.797101 0.413155 0.774557
O O13 0.245549 0.879013 0.590379
O O14 0.235559 0.753618 0.645990
O O15 0.123683 0.797503 0.596411
O O16 0.827942 0.500000 0.919620
O O17 0.824748 0.596686 0.000000
O O18 0.250000 0.750000 0.750000
O O19 0.404766 0.000000 0.254372
O O20 0.500000 0.236029 0.930193
O O21 0.394694 0.234188 0.000000
#
# Coordination Sequence:
#
# PCOD9517406 Si02
#       8
#    16  16  16  16  16  16  16  16
#     4   9  18  30  45  68  98 131 162 192 237 299
#     4  11  21  31  48  73 102 133 163 201 248 290
#     4  10  18  30  51  73  97 128 162 202 246 293
#     4  10  18  32  52  71  97 129 170 207 246 297
#     4  10  20  34  52  73  99 136 175 204 237 289
#     4   9  17  32  49  70  99 130 163 198 239 292
#     4  10  17  28  46  72 100 127 156 190 236 293
#     4  10  21  34  49  70  95 126 167 216 261 294
#
# _framework density 15.913297
#
# number of rings (size 3 to 8) (size 9 to 14) (size 15 to 20)
#    0.000    2.125    3.750    2.250    1.750    2.000 
#    0.000    1.875    0.000    2.625    0.000    4.375 
#    0.000    4.500    0.000    4.500    0.000    0.000 
#
# Total GULP energy -356300.110223 kJ/mol
# GULP energy per Si atom -5567.189222 kJ/mol
# Density = 1.587708 g / cm^3
# Si number density = 15.913297 Si / 1000 Ang^3
#
#
#
# Elastic Constant Matrix: (Units=GPa)
#
#
# Indices 1 2 3 4 5 6 
#
# 1 23.5764 16.4975 17.2591 0.0000 0.0000 0.0000
# 2 16.4975 89.0653 47.0291 0.0000 0.0000 0.0000
# 3 17.2591 47.0291 66.8908 0.0000 0.0000 0.0000
# 4 0.0000 0.0000 0.0000 27.7773 0.0000 0.0000
# 5 0.0000 0.0000 0.0000 0.0000 18.9468 0.0000
# 6 0.0000 0.0000 0.0000 0.0000 0.0000 15.1368
#
#
#
# Elastic Compliance Matrix: (Units=1/GPa)
#
#
# Indices 1 2 3 4 5 6 
#
# 1 0.053239 -0.004148 -0.010820 0.000000 0.000000 0.000000
# 2 -0.004148 0.018180 -0.011712 0.000000 0.000000 0.000000
# 3 -0.010820 -0.011712 0.025976 0.000000 0.000000 0.000000
# 4 0.000000 0.000000 0.000000 0.036001 0.000000 0.000000
# 5 0.000000 0.000000 0.000000 0.000000 0.052779 0.000000
# 6 0.000000 0.000000 0.000000 0.000000 0.000000 0.066064
#
#
# Mechanical properties :
#
#
# Convention : Reuss Voigt Hill
#
# Bulk Modulus (GPa) = 22.70935 37.90044 30.30490
# Shear Modulus (GPa) = 15.61148 18.95530 17.28339
#
# Velocity S-wave (km/s) = 3.13554 3.45506 3.29917
# Velocity P-wave (km/s) = 5.23550 6.30755 5.79636
#
# Compressibility (1/GPa) = 0.04403473
#
# Stress axis : x y z
#
# Youngs Moduli (GPa) = 18.78329 55.00496 38.49737
#
# Poissons Ratio (x) = 0.22816 0.41656
# Poissons Ratio (y) = 0.07791 0.45087
# Poissons Ratio (z) = 0.20324 0.64420
#
# Static dielectric constant tensor:
#      x y z
#    x 1.567600 0.000000 0.000000 
#    y 0.000000 1.570090 0.000000 
#    z 0.000000 0.000000 1.540390 
# 
# From -- ./inp_files/60908.got.cif
#   From: 2010.05.17/outbox.cif.g08.bks.cpg/sg71_31_cif.got.tgz:60908.got - 2010.06.03 16:22:01.
