data_PCOD9517119
_publ_section_title
;
Structure prediction by ZEFSAII (Michael W. Deem and Ramdas Pophale) SiO2 
 PCOD9517119
Probable space group: F D D D
;
_chemical_formula_sum "Si O2"
_cell_formula_units_Z 80
_cell_length_a 4.707794
_cell_length_b 19.697767
_cell_length_c 31.942558
_cell_angle_alpha 90.000000
_cell_angle_beta 90.000000
_cell_angle_gamma 90.000000
_cell_volume 2962.130167
_symmetry_space_group_name_H-M "F D D D"
_symmetry_group_IT_number 70
_space_group.IT_coordinate_system_code '2'
_symmetry_cell_setting 'orthorhombic'
loop_
_space_group_symop_operation_xyz
x,y,z
1/4-x,1/4-y,z
x,1/4-y,1/4-z
1/4-x,y,1/4-z
-x,-y,-z
3/4+x,3/4+y,-z
-x,3/4+y,3/4+z
3/4+x,-y,3/4+z
x,1/2+y,1/2+z
1/4-x,3/4-y,1/2+z
x,3/4-y,3/4-z
1/4-x,1/2+y,3/4-z
-x,1/2-y,1/2-z
3/4+x,1/4+y,1/2-z
-x,1/4+y,1/4+z
3/4+x,1/2-y,1/4+z
1/2+x,y,1/2+z
3/4-x,1/4-y,1/2+z
1/2+x,1/4-y,3/4-z
3/4-x,y,3/4-z
1/2-x,-y,1/2-z
1/4+x,3/4+y,1/2-z
1/2-x,3/4+y,1/4+z
1/4+x,-y,1/4+z
1/2+x,1/2+y,z
3/4-x,3/4-y,z
1/2+x,3/4-y,1/4-z
3/4-x,1/2+y,1/4-z
1/2-x,1/2-y,-z
1/4+x,1/4+y,-z
1/2-x,1/4+y,3/4+z
1/4+x,1/2-y,3/4+z
loop_
_atom_site_type_symbol
_atom_site_label
_atom_site_fract_x
_atom_site_fract_y
_atom_site_fract_z
Si Si1 0.289473 0.559380 0.687624
Si Si2 0.875000 0.875000 0.237902
Si Si3 0.013367 0.220170 0.833844
O O1 0.405012 0.581361 0.733882
O O2 0.584269 0.538739 0.667959
O O3 0.085064 0.495957 0.674794
O O4 0.125000 0.625000 0.672525
O O5 0.705704 0.924620 0.206872
O O6 0.875000 0.184968 0.875000
#
# Coordination Sequence:
#
# PCOD9517119 Si02
#       3
#    32  16  32
#     4  12  26  49  80 110 157 208 265 315 395 478
#     4  12  28  50  83 112 160 210 270 320 391 482
#     4  12  29  48  77 117 159 205 261 331 397 461
#
# _framework density 27.007588999999999
#
# number of rings (size 3 to 8) (size 9 to 14) (size 15 to 20)
#    0.000    0.000    4.000    3.600    5.600    8.000 
#    0.000    0.000    0.000    0.000    0.000    0.000 
#    0.000    0.000    0.000    0.000    0.000    0.000 
#
# Total GULP energy -111559.316895 kJ/mol
# GULP energy per Si atom -5577.965845 kJ/mol
# Density = 2.694612 g / cm^3
# Si number density = 27.007589 Si / 1000 Ang^3
#
#
#
# Elastic Constant Matrix: (Units=GPa)
#
#
# Indices 1 2 3 4 5 6 
#
# 1 157.5450 25.5048 68.9025 0.0000 0.0000 0.0000
# 2 25.5048 72.4349 58.5320 0.0000 0.0000 0.0000
# 3 68.9025 58.5320 243.8714 0.0000 0.0000 0.0000
# 4 0.0000 0.0000 0.0000 -111.9050 0.0000 0.0000
# 5 0.0000 0.0000 0.0000 0.0000 5.7167 0.0000
# 6 0.0000 0.0000 0.0000 0.0000 0.0000 44.2765
#
#
#
# Elastic Compliance Matrix: (Units=1/GPa)
#
#
# Indices 1 2 3 4 5 6 
#
# 1 0.007315 -0.001124 -0.001797 0.000000 0.000000 0.000000
# 2 -0.001124 0.017300 -0.003835 0.000000 0.000000 0.000000
# 3 -0.001797 -0.003835 0.005529 0.000000 0.000000 0.000000
# 4 0.000000 0.000000 0.000000 -0.008936 0.000000 0.000000
# 5 0.000000 0.000000 0.000000 0.000000 0.174925 0.000000
# 6 0.000000 0.000000 0.000000 0.000000 0.000000 0.022585
#
#
# Mechanical properties :
#
#
# Convention : Reuss Voigt Hill
#
# Bulk Modulus (GPa) = 60.12178 86.63667 73.37922
# Shear Modulus (GPa) = 21.02844 9.01176 15.02010
#
# Velocity S-wave (km/s) = 2.79339 1.82866 2.36083
# Velocity P-wave (km/s) = 5.71957 6.05037 5.88729
#
# Compressibility (1/GPa) = 0.01663291
#
# Stress axis : x y z
#
# Youngs Moduli (GPa) = 136.70024 57.80411 180.87544
#
# Poissons Ratio (x) = 0.06494 0.32506
# Poissons Ratio (y) = 0.15359 0.69361
# Poissons Ratio (z) = 0.24567 0.22166
#
# Static dielectric constant tensor:
#      x y z
#    x 2.025900 0.000000 0.000000 
#    y 0.000000 2.389610 0.000000 
#    z 0.000000 0.000000 2.244740 
# 
# From -- ./inp_files/62695.got.cif
#   From: 2010.05.17/outbox.cif.g08.bks.cpg/sg70_32_cif.got.tgz:62695.got - 2010.06.03 15:57:51.
