data_PCOD9517569
_publ_section_title
;
Structure prediction by ZEFSAII (Michael W. Deem and Ramdas Pophale) SiO2 
 PCOD9517569
Probable space group: I M M M
;
_chemical_formula_sum "Si O2"
_cell_formula_units_Z 72
_cell_length_a 32.549710
_cell_length_b 19.125275
_cell_length_c 8.729200
_cell_angle_alpha 90.000000
_cell_angle_beta 90.000000
_cell_angle_gamma 90.000000
_cell_volume 5434.120395
_symmetry_space_group_name_H-M "I M M M"
_symmetry_group_IT_number 71
_symmetry_cell_setting 'orthorhombic'
loop_
_space_group_symop_operation_xyz
x,y,z
-x,-y,z
x,-y,-z
-x,y,-z
-x,-y,-z
x,y,-z
-x,y,z
x,-y,z
1/2+x,1/2+y,1/2+z
1/2-x,1/2-y,1/2+z
1/2+x,1/2-y,1/2-z
1/2-x,1/2+y,1/2-z
1/2-x,1/2-y,1/2-z
1/2+x,1/2+y,1/2-z
1/2-x,1/2+y,1/2+z
1/2+x,1/2-y,1/2+z
loop_
_atom_site_type_symbol
_atom_site_label
_atom_site_fract_x
_atom_site_fract_y
_atom_site_fract_z
Si Si1 0.290994 0.786407 0.184079
Si Si2 0.752702 0.079154 0.186146
Si Si3 0.835448 0.837931 0.816321
Si Si4 0.500000 0.584812 0.676612
Si Si5 0.086949 0.917949 0.683215
O O1 0.250000 0.750000 0.250000
O O2 0.284001 0.867495 0.227922
O O3 0.327462 0.739854 0.251847
O O4 0.291338 0.781494 0.000000
O O5 0.796219 0.114084 0.232412
O O6 0.748723 0.000000 0.242735
O O7 0.753437 0.077018 0.000000
O O8 0.876690 0.872944 0.755354
O O9 0.835554 0.835636 0.000000
O O10 0.500000 0.500000 0.680160
O O11 0.500000 0.607077 0.500000
O O12 0.542178 0.605875 0.758569
O O13 0.088433 0.913868 0.500000
O O14 0.092247 0.000000 0.727109
#
# Coordination Sequence:
#
# PCOD9517569 Si02
#       5
#    16  16  16   8  16
#     4   9  16  26  39  54  74  99 127 161 199 236
#     4   8  14  24  38  55  73  96 128 163 196 230
#     4  10  18  27  40  56  76 103 133 163 194 232
#     4   9  17  29  43  57  75 101 130 157 190 233
#     4  10  19  29  41  58  79 101 128 164 200 230
#
# _framework density 13.249615
#
# number of rings (size 3 to 8) (size 9 to 14) (size 15 to 20)
#    0.000    2.778    0.000    4.333    0.000    3.556 
#    0.000    0.000    0.000   13.333    0.000    0.000 
#    0.000    0.000    0.000    1.000    0.000   20.667 
#
# Total GULP energy -200403.175685 kJ/mol
# GULP energy per Si atom -5566.754880 kJ/mol
# Density = 1.321946 g / cm^3
# Si number density = 13.249615 Si / 1000 Ang^3
#
#
#
# Elastic Constant Matrix: (Units=GPa)
#
#
# Indices 1 2 3 4 5 6 
#
# 1 93.6753 56.8713 34.5762 0.0000 0.0000 0.0000
# 2 56.8713 97.7831 27.6966 0.0000 0.0000 0.0000
# 3 34.5762 27.6966 44.9269 0.0000 0.0000 0.0000
# 4 0.0000 0.0000 0.0000 15.4702 0.0000 0.0000
# 5 0.0000 0.0000 0.0000 0.0000 22.0148 0.0000
# 6 0.0000 0.0000 0.0000 0.0000 0.0000 20.9593
#
#
#
# Elastic Compliance Matrix: (Units=1/GPa)
#
#
# Indices 1 2 3 4 5 6 
#
# 1 0.019455 -0.008571 -0.009689 0.000000 0.000000 0.000000
# 2 -0.008571 0.016166 -0.003370 0.000000 0.000000 0.000000
# 3 -0.009689 -0.003370 0.031793 0.000000 0.000000 0.000000
# 4 0.000000 0.000000 0.000000 0.064640 0.000000 0.000000
# 5 0.000000 0.000000 0.000000 0.000000 0.045424 0.000000
# 6 0.000000 0.000000 0.000000 0.000000 0.000000 0.047711
#
#
# Mechanical properties :
#
#
# Convention : Reuss Voigt Hill
#
# Bulk Modulus (GPa) = 41.40059 52.74151 47.07105
# Shear Modulus (GPa) = 18.08319 19.50494 18.79406
#
# Velocity S-wave (km/s) = 3.69834 3.84098 3.77033
# Velocity P-wave (km/s) = 7.03928 7.71772 7.38629
#
# Compressibility (1/GPa) = 0.02415424
#
# Stress axis : x y z
#
# Youngs Moduli (GPa) = 51.40120 61.85818 31.45383
#
# Poissons Ratio (x) = 0.53017 0.30475
# Poissons Ratio (y) = 0.44054 0.10600
# Poissons Ratio (z) = 0.49802 0.20846
#
# Static dielectric constant tensor:
#      x y z
#    x 1.428540 0.000000 0.000000 
#    y 0.000000 1.450570 0.000000 
#    z 0.000000 0.000000 1.443430 
# 
# From -- ./inp_files/8168.got.cif
#   From: 2010.05.17/outbox.cif.g08.bks.cpg/sg71_5_cif.got.tgz:8168.got - 2010.06.03 16:22:01.
