data_PCOD9517381
_publ_section_title
;
Structure prediction by ZEFSAII (Michael W. Deem and Ramdas Pophale) SiO2 
 PCOD9517381
Probable space group: I M M M
;
_chemical_formula_sum "Si O2"
_cell_formula_units_Z 104
_cell_length_a 18.386546
_cell_length_b 26.339540
_cell_length_c 13.738073
_cell_angle_alpha 90.000000
_cell_angle_beta 90.000000
_cell_angle_gamma 90.000000
_cell_volume 6653.254838
_symmetry_space_group_name_H-M "I M M M"
_symmetry_group_IT_number 71
_symmetry_cell_setting 'orthorhombic'
loop_
_space_group_symop_operation_xyz
x,y,z
-x,-y,z
x,-y,-z
-x,y,-z
-x,-y,-z
x,y,-z
-x,y,z
x,-y,z
1/2+x,1/2+y,1/2+z
1/2-x,1/2-y,1/2+z
1/2+x,1/2-y,1/2-z
1/2-x,1/2+y,1/2-z
1/2-x,1/2-y,1/2-z
1/2+x,1/2+y,1/2-z
1/2-x,1/2+y,1/2+z
1/2+x,1/2-y,1/2+z
loop_
_atom_site_type_symbol
_atom_site_label
_atom_site_fract_x
_atom_site_fract_y
_atom_site_fract_z
Si Si1 0.643817 0.899152 0.792828
Si Si2 0.917415 0.755643 0.240709
Si Si3 0.849866 0.165692 0.113708
Si Si4 0.000000 0.439892 0.390279
Si Si5 0.217107 0.942795 0.114822
Si Si6 0.585909 0.845161 0.386857
Si Si7 0.311942 0.793556 0.886316
O O1 0.570805 0.923574 0.832234
O O2 0.712472 0.933877 0.818356
O O3 0.632549 0.882431 0.681304
O O4 0.654673 0.847499 0.854296
O O5 0.906549 0.808469 0.185334
O O6 0.907452 0.710665 0.161008
O O7 0.855047 0.746871 0.321108
O O8 0.000000 0.750486 0.279482
O O9 0.834011 0.106102 0.132123
O O10 0.774230 0.197175 0.129385
O O11 0.869670 0.171181 0.000000
O O12 0.000000 0.500000 0.398185
O O13 0.000000 0.418142 0.500000
O O14 0.187851 0.000000 0.128816
O O15 0.239074 0.938800 0.000000
O O16 0.606612 0.844946 0.500000
O O17 0.500000 0.858753 0.379987
O O18 0.322900 0.783882 0.000000
#
# Coordination Sequence:
#
# PCOD9517381 Si02
#       7
#    16  16  16   8  16  16  16
#     4  10  17  28  42  63  85 115 148 184 227 266
#     4  10  19  29  45  70  94 122 155 188 227 269
#     4   9  17  30  47  66  91 122 153 186 222 267
#     4  11  20  26  37  59  85 111 142 184 228 267
#     4   9  17  30  48  67  86 111 144 182 228 279
#     4   9  17  29  42  58  85 119 153 182 213 260
#     4   9  18  30  45  66  94 125 152 182 225 276
#
# _framework density 15.631447
#
# number of rings (size 3 to 8) (size 9 to 14) (size 15 to 20)
#    0.000    2.538    0.769    3.692    1.077    2.462 
#    0.000    0.000    0.000    2.769    0.000    2.154 
#    0.000    0.000    0.000    1.385    0.000    0.000 
#
# Total GULP energy -289646.047395 kJ/mol
# GULP energy per Si atom -5570.116296 kJ/mol
# Density = 1.559587 g / cm^3
# Si number density = 15.631447 Si / 1000 Ang^3
#
#
#
# Elastic Constant Matrix: (Units=GPa)
#
#
# Indices 1 2 3 4 5 6 
#
# 1 13.0049 9.2429 14.6473 0.0000 0.0000 0.0000
# 2 9.2429 51.5965 21.7417 0.0000 0.0000 0.0000
# 3 14.6473 21.7417 77.7491 0.0000 0.0000 0.0000
# 4 0.0000 0.0000 0.0000 19.8950 0.0000 0.0000
# 5 0.0000 0.0000 0.0000 0.0000 19.6400 0.0000
# 6 0.0000 0.0000 0.0000 0.0000 0.0000 10.0618
#
#
#
# Elastic Compliance Matrix: (Units=1/GPa)
#
#
# Indices 1 2 3 4 5 6 
#
# 1 0.103482 -0.011702 -0.016223 0.000000 0.000000 0.000000
# 2 -0.011702 0.023293 -0.004309 0.000000 0.000000 0.000000
# 3 -0.016223 -0.004309 0.017123 0.000000 0.000000 0.000000
# 4 0.000000 0.000000 0.000000 0.050264 0.000000 0.000000
# 5 0.000000 0.000000 0.000000 0.000000 0.050917 0.000000
# 6 0.000000 0.000000 0.000000 0.000000 0.000000 0.099386
#
#
# Mechanical properties :
#
#
# Convention : Reuss Voigt Hill
#
# Bulk Modulus (GPa) = 12.58955 25.95714 19.27334
# Shear Modulus (GPa) = 11.48346 16.36727 13.92536
#
# Velocity S-wave (km/s) = 2.71336 3.23936 2.98796
# Velocity P-wave (km/s) = 4.22941 5.53471 4.92549
#
# Compressibility (1/GPa) = 0.07943098
#
# Stress axis : x y z
#
# Youngs Moduli (GPa) = 9.66351 42.93103 58.40036
#
# Poissons Ratio (x) = 0.50236 0.94742
# Poissons Ratio (y) = 0.11308 0.25166
# Poissons Ratio (z) = 0.15677 0.18500
#
# Static dielectric constant tensor:
#      x y z
#    x 1.526470 0.000000 0.000000 
#    y 0.000000 1.530430 0.000000 
#    z 0.000000 0.000000 1.516640 
# 
# From -- ./inp_files/24557.got.cif
#   From: 2010.05.17/outbox.cif.g08.bks.cpg/sg71_13_cif.got.tgz:24557.got - 2010.06.03 16:22:01.
