data_PCOD9517159
_publ_section_title
;
Structure prediction by ZEFSAII (Michael W. Deem and Ramdas Pophale) SiO2 
 PCOD9517159
Probable space group: F D D D
;
_chemical_formula_sum "Si O2"
_cell_formula_units_Z 52
_cell_length_a 27.000000
_cell_length_b 21.000000
_cell_length_c 18.000000
_cell_angle_alpha 90.000000
_cell_angle_beta 90.000000
_cell_angle_gamma 90.000000
_cell_volume 10206.000000
_symmetry_space_group_name_H-M "F D D D"
_symmetry_group_IT_number 70
_space_group.IT_coordinate_system_code '2'
_symmetry_cell_setting 'orthorhombic'
loop_
_space_group_symop_operation_xyz
x,y,z
1/4-x,1/4-y,z
x,1/4-y,1/4-z
1/4-x,y,1/4-z
-x,-y,-z
3/4+x,3/4+y,-z
-x,3/4+y,3/4+z
3/4+x,-y,3/4+z
x,1/2+y,1/2+z
1/4-x,3/4-y,1/2+z
x,3/4-y,3/4-z
1/4-x,1/2+y,3/4-z
-x,1/2-y,1/2-z
3/4+x,1/4+y,1/2-z
-x,1/4+y,1/4+z
3/4+x,1/2-y,1/4+z
1/2+x,y,1/2+z
3/4-x,1/4-y,1/2+z
1/2+x,1/4-y,3/4-z
3/4-x,y,3/4-z
1/2-x,-y,1/2-z
1/4+x,3/4+y,1/2-z
1/2-x,3/4+y,1/4+z
1/4+x,-y,1/4+z
1/2+x,1/2+y,z
3/4-x,3/4-y,z
1/2+x,3/4-y,1/4-z
3/4-x,1/2+y,1/4-z
1/2-x,1/2-y,-z
1/4+x,1/4+y,-z
1/2-x,1/4+y,3/4+z
1/4+x,1/2-y,3/4+z
loop_
_atom_site_type_symbol
_atom_site_label
_atom_site_fract_x
_atom_site_fract_y
_atom_site_fract_z
Si Si1 0.936489 0.183148 0.067806
Si Si2 0.777222 0.923058 0.039492
Si Si3 0.754861 0.625000 0.625000
Si Si4 0.955014 0.274888 0.198162
Si Si5 0.334290 0.146420 0.493218
Si Si6 0.229807 0.992160 0.667009
Si Si7 0.640799 0.995921 0.543242
O O1 0.943721 0.125000 0.125000
O O2 0.952159 0.244699 0.116012
O O3 0.880593 0.177103 0.037391
O O4 0.973872 0.174922 0.999882
O O5 0.792550 0.850765 0.052429
O O6 0.771428 0.958592 0.117338
O O7 0.814952 0.960952 0.987318
O O8 0.791302 0.630110 0.553758
O O9 0.722524 0.560869 0.629423
O O10 0.904925 0.253573 0.237968
O O11 0.000000 0.250000 0.250000
O O12 0.315755 0.194855 0.429979
O O13 0.346427 0.078581 0.457208
O O14 0.250000 0.000000 0.750000
O O15 0.625000 0.016885 0.625000
#
# Coordination Sequence:
#
# PCOD9517159 Si02
#       7
#    32  32  16  32  32  32  32
#     4  12  24  42  72  99 139 184 233 297 354 433
#     4  12  27  44  68 106 144 184 232 297 362 424
#     4  10  18  46  68  99 136 180 233 292 354 408
#     4  12  25  44  69 103 142 184 230 284 360 433
#     4  11  22  42  71 102 133 184 242 282 360 420
#     4  10  25  41  74 100 135 183 239 294 345 426
#     4  12  26  42  72 103 143 186 230 289 355 440
#
# _framework density 5.0950420000000003
#
# number of rings (size 3 to 8) (size 9 to 14) (size 15 to 20)
#    0.000    0.615    5.385    1.385    8.615    0.615 
#    0.000    0.000    0.000    0.923    0.000    0.000 
#    0.000    0.000    0.000    0.000    0.000    0.000 
#
# Total GULP energy -290690.077524 kJ/mol
# GULP energy per Si atom -5590.193799 kJ/mol
# Density = 0.508345 g / cm^3
# Si number density = 5.095042 Si / 1000 Ang^3
#
#
#
# Elastic Constant Matrix: (Units=GPa)
#
#
# Indices 1 2 3 4 5 6 
#
# 1 26.2517 73.5151 53.3554 0.0000 0.0000 0.0000
# 2 73.5151 180.9262 29.1235 0.0000 0.0000 0.0000
# 3 53.3554 29.1235 72.2075 0.0000 0.0000 0.0000
# 4 0.0000 0.0000 0.0000 18.9182 0.0000 0.0000
# 5 0.0000 0.0000 0.0000 0.0000 -79.1734 0.0000
# 6 0.0000 0.0000 0.0000 0.0000 0.0000 34.7881
#
#
#
# Elastic Compliance Matrix: (Units=1/GPa)
#
#
# Indices 1 2 3 4 5 6 
#
# 1 -0.034301 0.010542 0.021094 0.000000 0.000000 0.000000
# 2 0.010542 0.002671 -0.008867 0.000000 0.000000 0.000000
# 3 0.021094 -0.008867 0.001839 0.000000 0.000000 0.000000
# 4 0.000000 0.000000 0.000000 0.052859 0.000000 0.000000
# 5 0.000000 0.000000 0.000000 0.000000 -0.012630 0.000000
# 6 0.000000 0.000000 0.000000 0.000000 0.000000 0.028745
#
#
# Mechanical properties :
#
#
# Convention : Reuss Voigt Hill
#
# Bulk Modulus (GPa) = 63.50724 65.70816 64.60770
# Shear Modulus (GPa) = -4521.40465 3.13265 -2259.13600
#
# Velocity S-wave (km/s) = -47.15239 1.24115 -33.33022
# Velocity P-wave (km/s) = 54.15935 5.86218 38.07144
#
# Compressibility (1/GPa) = 0.01574624
#
# Stress axis : x y z
#
# Youngs Moduli (GPa) = -29.15369 374.40110 543.84721
#
# Poissons Ratio (x) = -3.94692 -11.47176
# Poissons Ratio (y) = 0.30734 4.82225
# Poissons Ratio (z) = 0.61496 3.31978
#
# Static dielectric constant tensor:
#      x y z
#    x 1.716720 0.000000 0.000000 
#    y 0.000000 1.709380 0.000000 
#    z 0.000000 0.000000 1.656720 
# 
# From -- ./inp_files/38758.got.cif
#   From: 2010.05.17/outbox.ucp.g08.bks.cvg/sg70_20_cif.got.tgz:38758.got - 2010.06.11 16:26:41.
