data_PCOD9517401
_publ_section_title
;
Structure prediction by ZEFSAII (Michael W. Deem and Ramdas Pophale) SiO2 
 PCOD9517401
Probable space group: I M M M
;
_chemical_formula_sum "Si O2"
_cell_formula_units_Z 96
_cell_length_a 28.327540
_cell_length_b 8.130864
_cell_length_c 23.615840
_cell_angle_alpha 90.000000
_cell_angle_beta 90.000000
_cell_angle_gamma 90.000000
_cell_volume 5439.374440
_symmetry_space_group_name_H-M "I M M M"
_symmetry_group_IT_number 71
_symmetry_cell_setting 'orthorhombic'
loop_
_space_group_symop_operation_xyz
x,y,z
-x,-y,z
x,-y,-z
-x,y,-z
-x,-y,-z
x,y,-z
-x,y,z
x,-y,z
1/2+x,1/2+y,1/2+z
1/2-x,1/2-y,1/2+z
1/2+x,1/2-y,1/2-z
1/2-x,1/2+y,1/2-z
1/2-x,1/2-y,1/2-z
1/2+x,1/2+y,1/2-z
1/2-x,1/2+y,1/2+z
1/2+x,1/2-y,1/2+z
loop_
_atom_site_type_symbol
_atom_site_label
_atom_site_fract_x
_atom_site_fract_y
_atom_site_fract_z
Si Si1 0.103078 0.696281 0.122326
Si Si2 0.355427 0.195475 0.201407
Si Si3 0.260591 0.201217 0.500000
Si Si4 0.371259 0.201685 0.500000
Si Si5 0.715401 0.302202 0.882193
Si Si6 0.698350 0.802168 0.689729
Si Si7 0.447269 0.305064 0.265432
O O1 0.094898 0.500000 0.122707
O O2 0.156314 0.723336 0.144910
O O3 0.069318 0.770034 0.170109
O O4 0.102929 0.755162 0.057645
O O5 0.335873 0.257613 0.141674
O O6 0.321002 0.265701 0.251062
O O7 0.407812 0.236757 0.222711
O O8 0.351298 0.000000 0.201614
O O9 0.315829 0.251529 0.500000
O O10 0.232745 0.254858 0.556292
O O11 0.261455 0.000000 0.500000
O O12 0.370894 0.000000 0.500000
O O13 0.718875 0.500000 0.882998
O O14 0.753705 0.235950 0.836734
O O15 0.703463 0.000000 0.696095
O O16 0.500000 0.238464 0.256402
O O17 0.448070 0.500000 0.257754
#
# Coordination Sequence:
#
# PCOD9517401 Si02
#       7
#    16  16   8   8  16  16  16
#     4   9  16  28  49  74  98 128 167 207 243 282
#     4  10  20  32  48  72  98 125 158 200 248 294
#     4   9  16  26  47  72  99 138 176 202 226 266
#     4   9  14  26  48  72  99 133 173 208 236 271
#     4  10  17  28  46  70 100 134 168 197 230 276
#     4   8  14  25  43  67  95 127 161 196 233 275
#     4  10  21  37  54  71  92 120 157 205 259 307
#
# _framework density 17.649090000000001
#
# number of rings (size 3 to 8) (size 9 to 14) (size 15 to 20)
#    0.000    2.667    1.667    2.500    0.000    1.333 
#    0.000    4.583    0.000    3.500    0.000    0.583 
#    0.000    4.667    0.000    0.000    0.000    0.000 
#
# Total GULP energy -267466.188555 kJ/mol
# GULP energy per Si atom -5572.212262 kJ/mol
# Density = 1.760892 g / cm^3
# Si number density = 17.649090 Si / 1000 Ang^3
#
#
#
# Elastic Constant Matrix: (Units=GPa)
#
#
# Indices 1 2 3 4 5 6 
#
# 1 98.6457 5.8461 53.9059 0.0000 0.0000 0.0000
# 2 5.8461 12.5916 7.2710 0.0000 0.0000 0.0000
# 3 53.9059 7.2710 48.0234 0.0000 0.0000 0.0000
# 4 0.0000 0.0000 0.0000 15.6029 0.0000 0.0000
# 5 0.0000 0.0000 0.0000 0.0000 7.6300 0.0000
# 6 0.0000 0.0000 0.0000 0.0000 0.0000 14.3821
#
#
#
# Elastic Compliance Matrix: (Units=1/GPa)
#
#
# Indices 1 2 3 4 5 6 
#
# 1 0.026546 0.005349 -0.030608 0.000000 0.000000 0.000000
# 2 0.005349 0.088104 -0.019344 0.000000 0.000000 0.000000
# 3 -0.030608 -0.019344 0.058109 0.000000 0.000000 0.000000
# 4 0.000000 0.000000 0.000000 0.064091 0.000000 0.000000
# 5 0.000000 0.000000 0.000000 0.000000 0.131062 0.000000
# 6 0.000000 0.000000 0.000000 0.000000 0.000000 0.069531
#
#
# Mechanical properties :
#
#
# Convention : Reuss Voigt Hill
#
# Bulk Modulus (GPa) = 11.96821 32.58963 22.27892
# Shear Modulus (GPa) = 9.01712 13.67216 11.34464
#
# Velocity S-wave (km/s) = 2.26279 2.78630 2.53808
# Velocity P-wave (km/s) = 3.69092 5.37185 4.60867
#
# Compressibility (1/GPa) = 0.08355470
#
# Stress axis : x y z
#
# Youngs Moduli (GPa) = 37.67010 11.35016 17.20900
#
# Poissons Ratio (x) = -0.06071 0.52673
# Poissons Ratio (y) = -0.20151 0.33289
# Poissons Ratio (z) = 1.15300 0.21956
#
# Static dielectric constant tensor:
#      x y z
#    x 1.609380 0.000000 0.000000 
#    y 0.000000 1.626630 0.000000 
#    z 0.000000 0.000000 1.630670 
# 
# From -- ./inp_files/61894.got.cif
#   From: 2010.05.17/outbox.cif.g08.bks.cpg/sg71_31_cif.got.tgz:61894.got - 2010.06.03 16:22:01.
