data_PCOD9517534
_publ_section_title
;
Structure prediction by ZEFSAII (Michael W. Deem and Ramdas Pophale) SiO2 
 PCOD9517534
Probable space group: I M M M
;
_chemical_formula_sum "Si O2"
_cell_formula_units_Z 88
_cell_length_a 25.000944
_cell_length_b 30.969461
_cell_length_c 8.179085
_cell_angle_alpha 90.000000
_cell_angle_beta 90.000000
_cell_angle_gamma 90.000000
_cell_volume 6332.785465
_symmetry_space_group_name_H-M "I M M M"
_symmetry_group_IT_number 71
_symmetry_cell_setting 'orthorhombic'
loop_
_space_group_symop_operation_xyz
x,y,z
-x,-y,z
x,-y,-z
-x,y,-z
-x,-y,-z
x,y,-z
-x,y,z
x,-y,z
1/2+x,1/2+y,1/2+z
1/2-x,1/2-y,1/2+z
1/2+x,1/2-y,1/2-z
1/2-x,1/2+y,1/2-z
1/2-x,1/2-y,1/2-z
1/2+x,1/2+y,1/2-z
1/2-x,1/2+y,1/2+z
1/2+x,1/2-y,1/2+z
loop_
_atom_site_type_symbol
_atom_site_label
_atom_site_fract_x
_atom_site_fract_y
_atom_site_fract_z
Si Si1 0.618085 0.252544 0.199223
Si Si2 0.000000 0.241081 0.311708
Si Si3 0.000000 0.851202 0.817053
Si Si4 0.562774 0.500000 0.303676
Si Si5 0.279702 0.793750 0.196723
Si Si6 0.177909 0.159183 0.196259
Si Si7 0.096011 0.907177 0.690532
O O1 0.557570 0.245972 0.259804
O O2 0.659428 0.214803 0.250634
O O3 0.642194 0.298630 0.256852
O O4 0.617093 0.254466 0.000000
O O5 0.000000 0.255711 0.500000
O O6 0.000000 0.188977 0.304308
O O7 0.051375 0.880864 0.790317
O O8 0.000000 0.833143 0.000000
O O9 0.500000 0.500000 0.251173
O O10 0.563283 0.500000 0.500000
O O11 0.591212 0.456880 0.240291
O O12 0.250000 0.750000 0.250000
O O13 0.238879 0.830981 0.252250
O O14 0.280580 0.795875 0.000000
O O15 0.151407 0.116935 0.272646
O O16 0.176927 0.155472 0.000000
O O17 0.083082 0.902851 0.500000
#
# Coordination Sequence:
#
# PCOD9517534 Si02
#       7
#    16   8   8   8  16  16  16
#     4   9  16  26  39  56  79 104 131 164 202 242
#     4  10  18  26  39  59  82 106 132 165 206 244
#     4  12  22  31  43  58  78 102 133 168 201 239
#     4  11  23  37  51  63  78 100 128 163 202 241
#     4   8  15  26  39  55  75 100 129 162 199 235
#     4  10  18  28  42  58  76 100 132 168 201 235
#     4  12  23  34  47  61  78 101 130 163 205 248
#
# _framework density 13.895939
#
# number of rings (size 3 to 8) (size 9 to 14) (size 15 to 20)
#    0.000    1.909    2.727    3.273    0.000    1.091 
#    0.000    0.000    0.000    0.000    0.000    0.000 
#    0.000    0.000    0.000    0.000    0.000    0.909 
#
# Total GULP energy -245155.840037 kJ/mol
# GULP energy per Si atom -5571.723637 kJ/mol
# Density = 1.386431 g / cm^3
# Si number density = 13.895939 Si / 1000 Ang^3
#
#
#
# Elastic Constant Matrix: (Units=GPa)
#
#
# Indices 1 2 3 4 5 6 
#
# 1 116.7084 46.9410 3.7978 0.0000 0.0000 0.0000
# 2 46.9410 58.0753 3.8771 0.0000 0.0000 0.0000
# 3 3.7978 3.8771 29.2749 0.0000 0.0000 0.0000
# 4 0.0000 0.0000 0.0000 12.2731 0.0000 0.0000
# 5 0.0000 0.0000 0.0000 0.0000 11.6158 0.0000
# 6 0.0000 0.0000 0.0000 0.0000 0.0000 7.5835
#
#
#
# Elastic Compliance Matrix: (Units=1/GPa)
#
#
# Indices 1 2 3 4 5 6 
#
# 1 0.012698 -0.010244 -0.000291 0.000000 0.000000 0.000000
# 2 -0.010244 0.025637 -0.002066 0.000000 0.000000 0.000000
# 3 -0.000291 -0.002066 0.034470 0.000000 0.000000 0.000000
# 4 0.000000 0.000000 0.000000 0.081479 0.000000 0.000000
# 5 0.000000 0.000000 0.000000 0.000000 0.086090 0.000000
# 6 0.000000 0.000000 0.000000 0.000000 0.000000 0.131866
#
#
# Mechanical properties :
#
#
# Convention : Reuss Voigt Hill
#
# Bulk Modulus (GPa) = 21.00696 34.81003 27.90849
# Shear Modulus (GPa) = 12.09746 16.25732 14.17739
#
# Velocity S-wave (km/s) = 2.95375 3.42414 3.19761
# Velocity P-wave (km/s) = 5.17523 6.38262 5.81037
#
# Compressibility (1/GPa) = 0.04760328
#
# Stress axis : x y z
#
# Youngs Moduli (GPa) = 78.75189 39.00599 29.01049
#
# Poissons Ratio (x) = 0.39958 0.00843
# Poissons Ratio (y) = 0.80675 0.05994
# Poissons Ratio (z) = 0.02289 0.08060
#
# Static dielectric constant tensor:
#      x y z
#    x 1.511750 0.000000 0.000000 
#    y 0.000000 1.427320 0.000000 
#    z 0.000000 0.000000 1.478800 
# 
# From -- ./inp_files/13576.got.cif
#   From: 2010.05.17/outbox.cif.g08.bks.cpg/sg71_7_cif.got.tgz:13576.got - 2010.06.03 16:22:01.
