data_PCOD9517328
_publ_section_title
;
Structure prediction by ZEFSAII (Michael W. Deem and Ramdas Pophale) SiO2 
 PCOD9517328
Probable space group: I M M M
;
_chemical_formula_sum "Si O2"
_cell_formula_units_Z 104
_cell_length_a 23.343983
_cell_length_b 30.883813
_cell_length_c 8.747610
_cell_angle_alpha 90.000000
_cell_angle_beta 90.000000
_cell_angle_gamma 90.000000
_cell_volume 6306.599976
_symmetry_space_group_name_H-M "I M M M"
_symmetry_group_IT_number 71
_symmetry_cell_setting 'orthorhombic'
loop_
_space_group_symop_operation_xyz
x,y,z
-x,-y,z
x,-y,-z
-x,y,-z
-x,-y,-z
x,y,-z
-x,y,z
x,-y,z
1/2+x,1/2+y,1/2+z
1/2-x,1/2-y,1/2+z
1/2+x,1/2-y,1/2-z
1/2-x,1/2+y,1/2-z
1/2-x,1/2-y,1/2-z
1/2+x,1/2+y,1/2-z
1/2-x,1/2+y,1/2+z
1/2+x,1/2-y,1/2+z
loop_
_atom_site_type_symbol
_atom_site_label
_atom_site_fract_x
_atom_site_fract_y
_atom_site_fract_z
Si Si1 0.889023 0.394435 0.814906
Si Si2 0.930470 0.788757 0.676531
Si Si3 0.933137 0.693305 0.315081
Si Si4 0.651072 0.450178 0.184420
Si Si5 0.218283 0.549467 0.186118
Si Si6 0.000000 0.549850 0.186128
Si Si7 0.566206 0.620602 0.682058
O O1 0.898018 0.346565 0.750653
O O2 0.830490 0.417447 0.763502
O O3 0.943222 0.424057 0.767163
O O4 0.889224 0.392696 0.000000
O O5 0.912573 0.793794 0.500000
O O6 0.912468 0.741225 0.733838
O O7 0.913805 0.831453 0.767955
O O8 0.000000 0.786951 0.677911
O O9 0.931869 0.692924 0.500000
O O10 0.000000 0.687910 0.268623
O O11 0.638526 0.500000 0.229124
O O12 0.716616 0.440338 0.232849
O O13 0.606391 0.416246 0.249831
O O14 0.649410 0.448389 0.000000
O O15 0.204921 0.500000 0.232853
O O16 0.217777 0.549569 0.000000
O O17 0.000000 0.500000 0.238154
O O18 0.000000 0.548898 0.000000
O O19 0.566582 0.617866 0.500000
O O20 0.500000 0.615421 0.735182
#
# Coordination Sequence:
#
# PCOD9517328 Si02
#       7
#    16  16  16  16  16   8  16
#     4  10  17  26  44  69  93 120 157 200 240 278
#     4   8  15  29  48  67  89 123 160 188 221 274
#     4   9  17  29  44  64  94 127 156 191 236 281
#     4   9  18  33  52  71  92 124 163 194 221 264
#     4   8  15  29  48  68  90 120 161 203 234 264
#     4   9  16  24  37  63  95 123 153 191 236 281
#     4  10  20  32  48  74 103 124 143 180 236 282
#
# _framework density 16.490659999999998
#
# number of rings (size 3 to 8) (size 9 to 14) (size 15 to 20)
#    0.000    3.000    0.769    2.769    0.000    4.000 
#    0.000    3.846    0.000    4.154    0.000    0.000 
#    0.000    0.000    0.000    0.000    0.000    0.000 
#
# Total GULP energy -289646.435697 kJ/mol
# GULP energy per Si atom -5570.123763 kJ/mol
# Density = 1.645313 g / cm^3
# Si number density = 16.490660 Si / 1000 Ang^3
#
#
#
# Elastic Constant Matrix: (Units=GPa)
#
#
# Indices 1 2 3 4 5 6 
#
# 1 90.0958 95.9064 23.2092 0.0000 0.0000 0.0000
# 2 95.9064 174.8221 33.7272 0.0000 0.0000 0.0000
# 3 23.2092 33.7272 10.9521 0.0000 0.0000 0.0000
# 4 0.0000 0.0000 0.0000 28.6914 0.0000 0.0000
# 5 0.0000 0.0000 0.0000 0.0000 12.2882 0.0000
# 6 0.0000 0.0000 0.0000 0.0000 0.0000 17.6341
#
#
#
# Elastic Compliance Matrix: (Units=1/GPa)
#
#
# Indices 1 2 3 4 5 6 
#
# 1 0.030770 -0.010595 -0.032579 0.000000 0.000000 0.000000
# 2 -0.010595 0.017741 -0.032181 0.000000 0.000000 0.000000
# 3 -0.032579 -0.032181 0.259451 0.000000 0.000000 0.000000
# 4 0.000000 0.000000 0.000000 0.034854 0.000000 0.000000
# 5 0.000000 0.000000 0.000000 0.000000 0.081379 0.000000
# 6 0.000000 0.000000 0.000000 0.000000 0.000000 0.056708
#
#
# Mechanical properties :
#
#
# Convention : Reuss Voigt Hill
#
# Bulk Modulus (GPa) = 6.35927 64.61728 35.48827
# Shear Modulus (GPa) = 7.30961 19.92457 13.61709
#
# Velocity S-wave (km/s) = 2.10765 3.47974 2.87670
# Velocity P-wave (km/s) = 3.12851 7.44406 5.70971
#
# Compressibility (1/GPa) = 0.15725086
#
# Stress axis : x y z
#
# Youngs Moduli (GPa) = 32.49887 56.36645 3.85430
#
# Poissons Ratio (x) = 0.59721 0.12557
# Poissons Ratio (y) = 0.34433 0.12404
# Poissons Ratio (z) = 1.05878 1.81395
#
# Static dielectric constant tensor:
#      x y z
#    x 1.544470 0.000000 0.000000 
#    y 0.000000 1.554160 0.000000 
#    z 0.000000 0.000000 1.561870 
# 
# From -- ./inp_files/13601.got.cif
#   From: 2010.05.17/outbox.cif.g08.bks.cpg/sg71_7_cif.got.tgz:13601.got - 2010.06.03 16:22:01.
