data_PCOD9517883
_publ_section_title
;
Structure prediction by ZEFSAII (Michael W. Deem and Ramdas Pophale) SiO2 
 PCOD9517883
Probable space group: I M M M
;
_chemical_formula_sum "Si O2"
_cell_formula_units_Z 116
_cell_length_a 28.962706
_cell_length_b 28.452765
_cell_length_c 7.811022
_cell_angle_alpha 90.000000
_cell_angle_beta 90.000000
_cell_angle_gamma 90.000000
_cell_volume 6436.821616
_symmetry_space_group_name_H-M "I M M M"
_symmetry_group_IT_number 71
_symmetry_cell_setting 'orthorhombic'
loop_
_space_group_symop_operation_xyz
x,y,z
-x,-y,z
x,-y,-z
-x,y,-z
-x,-y,-z
x,y,-z
-x,y,z
x,-y,z
1/2+x,1/2+y,1/2+z
1/2-x,1/2-y,1/2+z
1/2+x,1/2-y,1/2-z
1/2-x,1/2+y,1/2-z
1/2-x,1/2-y,1/2-z
1/2+x,1/2+y,1/2-z
1/2-x,1/2+y,1/2+z
1/2+x,1/2-y,1/2+z
loop_
_atom_site_type_symbol
_atom_site_label
_atom_site_fract_x
_atom_site_fract_y
_atom_site_fract_z
Si Si1 0.795835 0.814792 0.801897
Si Si2 0.053021 0.946513 0.290934
Si Si3 0.921026 0.500000 0.500000
Si Si4 0.100905 0.674011 0.201751
Si Si5 0.196416 0.709470 0.300066
Si Si6 0.552408 0.271266 0.793137
Si Si7 0.444443 0.925741 0.702181
Si Si8 0.111562 0.140866 0.297062
O O1 0.811786 0.760366 0.784078
O O2 0.743553 0.813614 0.730162
O O3 0.834388 0.848735 0.725514
O O4 0.792900 0.827443 0.000000
O O5 0.054023 0.947296 0.500000
O O6 0.089231 0.907357 0.229823
O O7 0.000000 0.934360 0.243484
O O8 0.062598 0.000000 0.234277
O O9 0.923989 0.459619 0.346519
O O10 0.151336 0.677885 0.284683
O O11 0.072830 0.720692 0.248519
O O12 0.072841 0.626973 0.241005
O O13 0.108894 0.674577 0.000000
O O14 0.204623 0.719970 0.500000
O O15 0.500000 0.276025 0.731973
O O16 0.584051 0.313820 0.727208
O O17 0.552115 0.274009 0.000000
O O18 0.432981 0.936171 0.500000
O O19 0.500000 0.928897 0.715566
O O20 0.103077 0.139929 0.500000
#
# Coordination Sequence:
#
# PCOD9517883 Si02
#       8
#    16  16   4  16  16  16  16  16
#     4  10  20  33  50  74 103 135 172 216 266 317
#     4   8  14  26  46  73 103 134 174 223 265 300
#     4  12  23  38  64  86 106 148 190 230 278 320
#     4  11  22  35  52  77 109 142 174 215 269 319
#     4  10  20  34  52  74 102 135 175 218 260 320
#     4  10  20  31  45  69 105 144 177 208 248 313
#     4  10  22  38  56  83 114 142 182 232 275 324
#     4  10  18  29  48  74 102 136 176 217 261 311
#
# _framework density 18.021317
#
# number of rings (size 3 to 8) (size 9 to 14) (size 15 to 20)
#    0.000    2.069    1.379    3.310    1.931    4.690 
#    0.000    0.000    0.000    1.655    1.793    0.966 
#    0.000    0.000    0.000    0.000    0.000    0.000 
#
# Total GULP energy -322920.322005 kJ/mol
# GULP energy per Si atom -5567.591759 kJ/mol
# Density = 1.798030 g / cm^3
# Si number density = 18.021317 Si / 1000 Ang^3
#
#
#
# Elastic Constant Matrix: (Units=GPa)
#
#
# Indices 1 2 3 4 5 6 
#
# 1 63.8431 33.1669 3.6255 0.0000 0.0000 0.0000
# 2 33.1669 92.0720 20.6012 0.0000 0.0000 0.0000
# 3 3.6255 20.6012 39.0191 0.0000 0.0000 0.0000
# 4 0.0000 0.0000 0.0000 15.4394 0.0000 0.0000
# 5 0.0000 0.0000 0.0000 0.0000 17.5658 0.0000
# 6 0.0000 0.0000 0.0000 0.0000 0.0000 12.7214
#
#
#
# Elastic Compliance Matrix: (Units=1/GPa)
#
#
# Indices 1 2 3 4 5 6 
#
# 1 0.019426 -0.007477 0.002143 0.000000 0.000000 0.000000
# 2 -0.007477 0.015194 -0.007327 0.000000 0.000000 0.000000
# 3 0.002143 -0.007327 0.029298 0.000000 0.000000 0.000000
# 4 0.000000 0.000000 0.000000 0.064769 0.000000 0.000000
# 5 0.000000 0.000000 0.000000 0.000000 0.056929 0.000000
# 6 0.000000 0.000000 0.000000 0.000000 0.000000 0.078608
#
#
# Mechanical properties :
#
#
# Convention : Reuss Voigt Hill
#
# Bulk Modulus (GPa) = 25.91031 34.41350 30.16190
# Shear Modulus (GPa) = 16.53367 18.31468 17.42418
#
# Velocity S-wave (km/s) = 3.03223 3.19137 3.11282
# Velocity P-wave (km/s) = 5.16411 5.71990 5.44910
#
# Compressibility (1/GPa) = 0.03859468
#
# Stress axis : x y z
#
# Youngs Moduli (GPa) = 51.47677 65.81491 34.13190
#
# Poissons Ratio (x) = 0.49212 -0.07314
# Poissons Ratio (y) = 0.38491 0.25010
# Poissons Ratio (z) = -0.11031 0.48225
#
# Static dielectric constant tensor:
#      x y z
#    x 1.643700 0.000000 0.000000 
#    y 0.000000 1.605640 0.000000 
#    z 0.000000 0.000000 1.670410 
# 
# From -- ./inp_files/17509.got.cif
#   From: 2010.05.17/outbox.cif.g08.bks.cpg/sg71_9_cif.got.tgz:17509.got - 2010.06.03 16:22:01.
