data_PCOD9517047
_publ_section_title
;
Structure prediction by ZEFSAII (Michael W. Deem and Ramdas Pophale) SiO2 
 PCOD9517047
Probable space group: F D D D
;
_chemical_formula_sum "Si O2"
_cell_formula_units_Z 96
_cell_length_a 7.944538
_cell_length_b 17.247205
_cell_length_c 30.059511
_cell_angle_alpha 90.000000
_cell_angle_beta 90.000000
_cell_angle_gamma 90.000000
_cell_volume 4118.786527
_symmetry_space_group_name_H-M "F D D D"
_symmetry_group_IT_number 70
_space_group.IT_coordinate_system_code '2'
_symmetry_cell_setting 'orthorhombic'
loop_
_space_group_symop_operation_xyz
x,y,z
1/4-x,1/4-y,z
x,1/4-y,1/4-z
1/4-x,y,1/4-z
-x,-y,-z
3/4+x,3/4+y,-z
-x,3/4+y,3/4+z
3/4+x,-y,3/4+z
x,1/2+y,1/2+z
1/4-x,3/4-y,1/2+z
x,3/4-y,3/4-z
1/4-x,1/2+y,3/4-z
-x,1/2-y,1/2-z
3/4+x,1/4+y,1/2-z
-x,1/4+y,1/4+z
3/4+x,1/2-y,1/4+z
1/2+x,y,1/2+z
3/4-x,1/4-y,1/2+z
1/2+x,1/4-y,3/4-z
3/4-x,y,3/4-z
1/2-x,-y,1/2-z
1/4+x,3/4+y,1/2-z
1/2-x,3/4+y,1/4+z
1/4+x,-y,1/4+z
1/2+x,1/2+y,z
3/4-x,3/4-y,z
1/2+x,3/4-y,1/4-z
3/4-x,1/2+y,1/4-z
1/2-x,1/2-y,-z
1/4+x,1/4+y,-z
1/2-x,1/4+y,3/4+z
1/4+x,1/2-y,3/4+z
loop_
_atom_site_type_symbol
_atom_site_label
_atom_site_fract_x
_atom_site_fract_y
_atom_site_fract_z
Si Si1 0.444473 0.057510 0.038713
Si Si2 0.625000 0.500239 0.625000
Si Si3 0.375000 0.875000 0.159545
Si Si4 0.862569 0.201728 0.275211
O O1 0.561515 0.047462 0.081902
O O2 0.262917 0.015381 0.046907
O O3 0.444405 0.140085 0.013090
O O4 0.500000 0.000000 0.000000
O O5 0.461838 0.445973 0.634113
O O6 0.534337 0.846043 0.188203
O O7 0.000000 0.250000 0.250000
#
# Coordination Sequence:
#
# PCOD9517047 Si02
#       4
#    32  16  16  32
#     4  12  25  46  77 108 153 199 261 316 391 463
#     4  12  26  46  75 114 153 208 262 326 387 476
#     4  12  24  44  74 108 159 201 262 324 402 456
#     4  12  23  47  77 112 152 207 252 323 396 467
#
# _framework density 23.307836000000002
#
# number of rings (size 3 to 8) (size 9 to 14) (size 15 to 20)
#    0.000    0.000    6.667    3.000    0.000    0.000 
#    0.000   13.333    0.000   12.000    0.000    0.000 
#    0.000    0.000    0.000    0.000    0.000    0.000 
#
# Total GULP energy -133888.977610 kJ/mol
# GULP energy per Si atom -5578.707400 kJ/mol
# Density = 2.325479 g / cm^3
# Si number density = 23.307836 Si / 1000 Ang^3
#
#
#
# Elastic Constant Matrix: (Units=GPa)
#
#
# Indices 1 2 3 4 5 6 
#
# 1 115.8773 46.7387 51.4567 0.0000 0.0000 0.0000
# 2 46.7387 153.5893 66.4093 0.0000 0.0000 0.0000
# 3 51.4567 66.4093 140.0619 0.0000 0.0000 0.0000
# 4 0.0000 0.0000 0.0000 52.0192 0.0000 0.0000
# 5 0.0000 0.0000 0.0000 0.0000 37.1972 0.0000
# 6 0.0000 0.0000 0.0000 0.0000 0.0000 57.6189
#
#
#
# Elastic Compliance Matrix: (Units=1/GPa)
#
#
# Indices 1 2 3 4 5 6 
#
# 1 0.010766 -0.001970 -0.003021 0.000000 0.000000 0.000000
# 2 -0.001970 0.008550 -0.003330 0.000000 0.000000 0.000000
# 3 -0.003021 -0.003330 0.009829 0.000000 0.000000 0.000000
# 4 0.000000 0.000000 0.000000 0.019224 0.000000 0.000000
# 5 0.000000 0.000000 0.000000 0.000000 0.026884 0.000000
# 6 0.000000 0.000000 0.000000 0.000000 0.000000 0.017355
#
#
# Mechanical properties :
#
#
# Convention : Reuss Voigt Hill
#
# Bulk Modulus (GPa) = 79.98690 82.08198 81.03444
# Shear Modulus (GPa) = 44.08462 45.69531 44.88996
#
# Velocity S-wave (km/s) = 4.35375 4.43257 4.39334
# Velocity P-wave (km/s) = 7.72435 7.84155 7.78317
#
# Compressibility (1/GPa) = 0.01250205
#
# Stress axis : x y z
#
# Youngs Moduli (GPa) = 92.88511 116.95480 101.74234
#
# Poissons Ratio (x) = 0.23038 0.30739
# Poissons Ratio (y) = 0.18297 0.33884
# Poissons Ratio (z) = 0.28063 0.38950
#
# Static dielectric constant tensor:
#      x y z
#    x 2.765040 0.000000 0.000000 
#    y 0.000000 1.715800 0.000000 
#    z 0.000000 0.000000 1.819870 
# 
# From -- ./inp_files/10357.got.cif
#   From: 2010.05.17/outbox.cif.g08.bks.cpg/sg70_6_cif.got.tgz:10357.got - 2010.06.03 15:57:51.
