data_PCOD9517256
_publ_section_title
;
Structure prediction by ZEFSAII (Michael W. Deem and Ramdas Pophale) SiO2 
 PCOD9517256
Probable space group: I M M M
;
_chemical_formula_sum "Si O2"
_cell_formula_units_Z 80
_cell_length_a 9.189884
_cell_length_b 27.537390
_cell_length_c 17.376897
_cell_angle_alpha 90.000000
_cell_angle_beta 90.000000
_cell_angle_gamma 90.000000
_cell_volume 4397.491733
_symmetry_space_group_name_H-M "I M M M"
_symmetry_group_IT_number 71
_symmetry_cell_setting 'orthorhombic'
loop_
_space_group_symop_operation_xyz
x,y,z
-x,-y,z
x,-y,-z
-x,y,-z
-x,-y,-z
x,y,-z
-x,y,z
x,-y,z
1/2+x,1/2+y,1/2+z
1/2-x,1/2-y,1/2+z
1/2+x,1/2-y,1/2-z
1/2-x,1/2+y,1/2-z
1/2-x,1/2-y,1/2-z
1/2+x,1/2+y,1/2-z
1/2-x,1/2+y,1/2+z
1/2+x,1/2-y,1/2+z
loop_
_atom_site_type_symbol
_atom_site_label
_atom_site_fract_x
_atom_site_fract_y
_atom_site_fract_z
Si Si1 0.836683 0.659976 0.500000
Si Si2 0.166039 0.944342 0.825273
Si Si3 0.676851 0.215716 0.854115
Si Si4 0.824730 0.823391 0.409780
Si Si5 0.174840 0.639091 0.767591
Si Si6 0.755035 0.553624 0.500000
O O1 0.769113 0.680444 0.577465
O O2 0.846469 0.602528 0.500000
O O3 0.000000 0.680778 0.500000
O O4 0.270037 0.905450 0.784936
O O5 0.171988 0.942895 0.918613
O O6 0.000000 0.934579 0.801424
O O7 0.204379 0.000000 0.804217
O O8 0.500000 0.215515 0.850114
O O9 0.718737 0.269499 0.880058
O O10 0.723758 0.188943 0.776201
O O11 0.787424 0.828511 0.500000
O O12 0.746735 0.860129 0.351580
O O13 0.000000 0.827432 0.403330
O O14 0.000000 0.638283 0.772342
O O15 0.825342 0.500000 0.500000
#
# Coordination Sequence:
#
# PCOD9517256 Si02
#       6
#     8  16  16  16  16   8
#     4  10  16  28  49  76 114 150 183 221 263 312
#     4  10  21  37  56  79 110 146 183 222 264 316
#     4   9  17  31  52  77 108 148 185 220 264 313
#     4  10  20  36  58  79 104 143 187 225 268 323
#     4  11  22  35  55  82 112 143 178 224 274 321
#     4  10  19  31  52  79 110 148 188 227 266 308
#
# _framework density 18.19219
#
# number of rings (size 3 to 8) (size 9 to 14) (size 15 to 20)
#    0.000    2.000    3.000    1.500    0.000    2.200 
#    0.000    3.000    0.000    0.600    0.000    4.200 
#    0.000    0.000    0.000    0.000    0.000    0.000 
#
# Total GULP energy -222760.407864 kJ/mol
# GULP energy per Si atom -5569.010197 kJ/mol
# Density = 1.815078 g / cm^3
# Si number density = 18.192190 Si / 1000 Ang^3
#
#
#
# Elastic Constant Matrix: (Units=GPa)
#
#
# Indices 1 2 3 4 5 6 
#
# 1 37.1697 24.8492 41.2705 0.0000 0.0000 0.0000
# 2 24.8492 66.2102 46.7687 0.0000 0.0000 0.0000
# 3 41.2705 46.7687 146.0665 -0.0002 -0.0001 0.0000
# 4 0.0000 0.0000 -0.0002 19.9915 0.0000 0.0000
# 5 0.0000 0.0000 -0.0001 0.0000 0.9299 0.0000
# 6 0.0000 0.0000 0.0000 0.0000 0.0000 21.4072
#
#
#
# Elastic Compliance Matrix: (Units=1/GPa)
#
#
# Indices 1 2 3 4 5 6 
#
# 1 0.043732 -0.009931 -0.009176 0.000000 -0.000001 0.000000
# 2 -0.009931 0.021773 -0.004165 0.000000 0.000000 0.000000
# 3 -0.009176 -0.004165 0.010773 0.000000 0.000001 0.000000
# 4 0.000000 0.000000 0.000000 0.050021 0.000002 0.000000
# 5 -0.000001 0.000000 0.000001 0.000002 1.075372 0.000001
# 6 0.000000 0.000000 0.000000 0.000000 0.000001 0.046713
#
#
# Mechanical properties :
#
#
# Convention : Reuss Voigt Hill
#
# Bulk Modulus (GPa) = 33.63425 52.80258 43.21842
# Shear Modulus (GPa) = 3.83189 17.56958 10.70073
#
# Velocity S-wave (km/s) = 1.45290 3.11107 2.42792
# Velocity P-wave (km/s) = 4.61985 6.48019 5.62742
#
# Compressibility (1/GPa) = 0.02973160
#
# Stress axis : x y z
#
# Youngs Moduli (GPa) = 22.86674 45.92860 92.82731
#
# Poissons Ratio (x) = 0.45611 0.85182
# Poissons Ratio (y) = 0.22709 0.38667
# Poissons Ratio (z) = 0.20984 0.19131
#
# Static dielectric constant tensor:
#      x y z
#    x 1.627720 0.000000 0.000000 
#    y 0.000000 1.636160 0.000000 
#    z 0.000000 0.000000 1.647050 
# 
# From -- ./inp_files/32881.got.cif
#   From: 2010.05.17/outbox.cif.g08.bks.cpg/sg71_17_cif.got.tgz:32881.got - 2010.06.03 16:22:01.
