data_PCOD9517258
_publ_section_title
;
Structure prediction by ZEFSAII (Michael W. Deem and Ramdas Pophale) SiO2 
 PCOD9517258
Probable space group: I M M M
;
_chemical_formula_sum "Si O2"
_cell_formula_units_Z 78
_cell_length_a 30.131864
_cell_length_b 10.747507
_cell_length_c 12.326144
_cell_angle_alpha 90.000000
_cell_angle_beta 90.000000
_cell_angle_gamma 90.000000
_cell_volume 3991.728293
_symmetry_space_group_name_H-M "I M M M"
_symmetry_group_IT_number 71
_symmetry_cell_setting 'orthorhombic'
loop_
_space_group_symop_operation_xyz
x,y,z
-x,-y,z
x,-y,-z
-x,y,-z
-x,-y,-z
x,y,-z
-x,y,z
x,-y,z
1/2+x,1/2+y,1/2+z
1/2-x,1/2-y,1/2+z
1/2+x,1/2-y,1/2-z
1/2-x,1/2+y,1/2-z
1/2-x,1/2-y,1/2-z
1/2+x,1/2+y,1/2-z
1/2-x,1/2+y,1/2+z
1/2+x,1/2-y,1/2+z
loop_
_atom_site_type_symbol
_atom_site_label
_atom_site_fract_x
_atom_site_fract_y
_atom_site_fract_z
Si Si1 0.051352 0.758384 0.737377
Si Si2 0.341187 0.000000 0.000000
Si Si3 0.080845 0.500000 0.326323
Si Si4 0.787801 0.146979 0.267799
Si Si5 0.924625 0.149068 0.500000
Si Si6 0.000000 0.500000 0.500000
Si Si7 0.178283 0.778301 0.500000
Si Si8 0.628493 0.353660 0.621261
O O1 0.074519 0.624120 0.741436
O O2 0.053592 0.802302 0.611188
O O3 0.082652 0.839161 0.813666
O O4 0.000000 0.755669 0.769559
O O5 0.314328 0.128942 0.000000
O O6 0.374128 0.000000 0.895928
O O7 0.038948 0.500000 0.407402
O O8 0.750000 0.250000 0.250000
O O9 0.802751 0.159555 0.392441
O O10 0.829877 0.187616 0.194080
O O11 0.776525 0.000000 0.245994
O O12 0.874718 0.200837 0.500000
O O13 0.924743 0.000000 0.500000
O O14 0.627080 0.298220 0.500000
O O15 0.635795 0.500000 0.610216
#
# Coordination Sequence:
#
# PCOD9517258 Si02
#       8
#    16   4   8  16   8   2   8  16
#     4  12  23  37  61  91 128 171 216 265 318 382
#     4  11  20  33  66  96 126 178 216 258 321 390
#     4  11  19  34  55  89 127 167 212 257 321 374
#     4  11  25  45  71 100 132 169 211 266 333 394
#     4  12  22  36  58  91 132 167 201 262 329 380
#     4  10  16  28  52  80 124 164 196 260 312 368
#     4  12  23  41  69  98 135 166 213 267 330 389
#     4  10  23  45  67  89 125 170 215 265 320 378
#
# _framework density 19.540407999999999
#
# number of rings (size 3 to 8) (size 9 to 14) (size 15 to 20)
#    0.000    0.821    5.128    2.462    2.872    2.462 
#    1.846    1.538    0.000    1.231    0.000    0.000 
#    0.000    0.000    0.000    0.000    0.000    0.000 
#
# Total GULP energy -217537.658256 kJ/mol
# GULP energy per Si atom -5577.888673 kJ/mol
# Density = 1.949593 g / cm^3
# Si number density = 19.540408 Si / 1000 Ang^3
#
#
#
# Elastic Constant Matrix: (Units=GPa)
#
#
# Indices 1 2 3 4 5 6 
#
# 1 85.4310 19.3188 50.2998 0.0000 0.0000 0.0000
# 2 19.3188 95.5003 7.3311 0.0000 0.0000 0.0000
# 3 50.2998 7.3311 118.6832 0.0000 0.0000 0.0000
# 4 0.0000 0.0000 0.0000 8.3008 0.0000 0.0000
# 5 0.0000 0.0000 0.0000 0.0000 13.2368 0.0000
# 6 0.0000 0.0000 0.0000 0.0000 0.0000 -25.2257
#
#
#
# Elastic Compliance Matrix: (Units=1/GPa)
#
#
# Indices 1 2 3 4 5 6 
#
# 1 0.016300 -0.002780 -0.006737 0.000000 0.000000 0.000000
# 2 -0.002780 0.010995 0.000499 0.000000 0.000000 0.000000
# 3 -0.006737 0.000499 0.011250 0.000000 0.000000 0.000000
# 4 0.000000 0.000000 0.000000 0.120471 0.000000 0.000000
# 5 0.000000 0.000000 0.000000 0.000000 0.075547 0.000000
# 6 0.000000 0.000000 0.000000 0.000000 0.000000 -0.039642
#
#
# Mechanical properties :
#
#
# Convention : Reuss Voigt Hill
#
# Bulk Modulus (GPa) = 48.75618 50.39042 49.57330
# Shear Modulus (GPa) = 22.74860 14.10670 18.42765
#
# Velocity S-wave (km/s) = 3.41571 2.68978 3.07425
# Velocity P-wave (km/s) = 6.36881 5.95738 6.16653
#
# Compressibility (1/GPa) = 0.02051022
#
# Stress axis : x y z
#
# Youngs Moduli (GPa) = 61.34802 90.94815 88.88850
#
# Poissons Ratio (x) = 0.25286 0.59881
# Poissons Ratio (y) = 0.17056 -0.04437
# Poissons Ratio (z) = 0.41328 -0.04540
#
# Static dielectric constant tensor:
#      x y z
#    x 1.656270 0.000000 0.000000 
#    y 0.000000 1.818080 0.000000 
#    z 0.000000 0.000000 1.850340 
# 
# From -- ./inp_files/29754.got.cif
#   From: 2010.05.17/outbox.cif.g08.bks.cpg/sg71_15_cif.got.tgz:29754.got - 2010.06.03 16:22:01.
