data_PCOD9517799
_publ_section_title
;
Structure prediction by ZEFSAII (Michael W. Deem and Ramdas Pophale) SiO2 
 PCOD9517799
Probable space group: I M M M
;
_chemical_formula_sum "Si O2"
_cell_formula_units_Z 120
_cell_length_a 23.773302
_cell_length_b 14.555760
_cell_length_c 23.608655
_cell_angle_alpha 90.000000
_cell_angle_beta 90.000000
_cell_angle_gamma 90.000000
_cell_volume 8169.503051
_symmetry_space_group_name_H-M "I M M M"
_symmetry_group_IT_number 71
_symmetry_cell_setting 'orthorhombic'
loop_
_space_group_symop_operation_xyz
x,y,z
-x,-y,z
x,-y,-z
-x,y,-z
-x,-y,-z
x,y,-z
-x,y,z
x,-y,z
1/2+x,1/2+y,1/2+z
1/2-x,1/2-y,1/2+z
1/2+x,1/2-y,1/2-z
1/2-x,1/2+y,1/2-z
1/2-x,1/2-y,1/2-z
1/2+x,1/2+y,1/2-z
1/2-x,1/2+y,1/2+z
1/2+x,1/2-y,1/2+z
loop_
_atom_site_type_symbol
_atom_site_label
_atom_site_fract_x
_atom_site_fract_y
_atom_site_fract_z
Si Si1 0.785612 0.292267 0.932335
Si Si2 0.438360 0.718934 0.067948
Si Si3 0.330650 0.394958 0.931249
Si Si4 0.500000 0.888952 0.435944
Si Si5 0.891393 0.607478 0.376465
Si Si6 0.112798 0.388593 0.867832
Si Si7 0.934984 0.611060 0.747384
Si Si8 0.228954 0.605200 0.566500
O O1 0.726730 0.342151 0.917632
O O2 0.835032 0.337177 0.896170
O O3 0.774347 0.184181 0.922121
O O4 0.795973 0.305667 0.000000
O O5 0.500000 0.688564 0.088107
O O6 0.386036 0.658428 0.089189
O O7 0.427351 0.823471 0.085751
O O8 0.438005 0.713043 0.000000
O O9 0.329298 0.500000 0.911636
O O10 0.333331 0.396148 0.000000
O O11 0.500000 0.853625 0.500000
O O12 0.556435 0.864486 0.402715
O O13 0.500000 0.000000 0.438208
O O14 0.906141 0.500000 0.384345
O O15 0.904367 0.633049 0.311462
O O16 0.826585 0.618048 0.395502
O O17 0.120855 0.500000 0.870826
O O18 0.099661 0.361529 0.803031
O O19 0.938121 0.500000 0.750211
O O20 0.000000 0.644142 0.748144
O O21 0.211941 0.616759 0.500000
O O22 0.248635 0.500000 0.573464
#
# Coordination Sequence:
#
# PCOD9517799 Si02
#       8
#    16  16  16   8  16  16  16  16
#     4  10  18  29  47  71  94 119 153 186 224 277
#     4  10  19  29  42  63  89 116 151 195 240 281
#     4   9  17  29  43  60  87 120 151 185 224 271
#     4   9  16  26  42  66  97 125 146 178 225 274
#     4  10  18  29  47  67  88 118 156 193 232 277
#     4  10  18  29  45  68  98 127 153 182 222 277
#     4   9  17  30  45  63  92 128 158 185 223 275
#     4   9  17  30  48  68  93 124 153 189 236 276
#
# _framework density 14.688777
#
# number of rings (size 3 to 8) (size 9 to 14) (size 15 to 20)
#    0.000    2.467    2.000    1.600    0.000    3.200 
#    0.000    2.667    0.000    0.000    0.000    0.467 
#    0.000    3.733    0.000    0.000    0.000    0.000 
#
# Total GULP energy -334131.392134 kJ/mol
# GULP energy per Si atom -5568.856536 kJ/mol
# Density = 1.465534 g / cm^3
# Si number density = 14.688777 Si / 1000 Ang^3
#
#
#
# Elastic Constant Matrix: (Units=GPa)
#
#
# Indices 1 2 3 4 5 6 
#
# 1 112.8847 49.9693 39.8431 0.0000 0.0000 0.0000
# 2 49.9693 67.6984 24.2427 0.0000 0.0000 0.0000
# 3 39.8431 24.2427 39.0812 0.0000 0.0000 0.0000
# 4 0.0000 0.0000 0.0000 11.4141 0.0000 0.0000
# 5 0.0000 0.0000 0.0000 0.0000 16.3878 0.0000
# 6 0.0000 0.0000 0.0000 0.0000 0.0000 22.0864
#
#
#
# Elastic Compliance Matrix: (Units=1/GPa)
#
#
# Indices 1 2 3 4 5 6 
#
# 1 0.016624 -0.007972 -0.012003 0.000000 0.000000 0.000000
# 2 -0.007972 0.022813 -0.006023 0.000000 0.000000 0.000000
# 3 -0.012003 -0.006023 0.041561 0.000000 0.000000 0.000000
# 4 0.000000 0.000000 0.000000 0.087611 0.000000 0.000000
# 5 0.000000 0.000000 0.000000 0.000000 0.061021 0.000000
# 6 0.000000 0.000000 0.000000 0.000000 0.000000 0.045277
#
#
# Mechanical properties :
#
#
# Convention : Reuss Voigt Hill
#
# Bulk Modulus (GPa) = 34.48181 49.75272 42.11726
# Shear Modulus (GPa) = 14.85573 17.01827 15.93700
#
# Velocity S-wave (km/s) = 3.18365 3.40750 3.29747
# Velocity P-wave (km/s) = 6.08605 7.03038 6.57519
#
# Compressibility (1/GPa) = 0.02900080
#
# Stress axis : x y z
#
# Youngs Moduli (GPa) = 60.15390 43.83493 24.06099
#
# Poissons Ratio (x) = 0.34946 0.28880
# Poissons Ratio (y) = 0.47956 0.14493
# Poissons Ratio (z) = 0.72202 0.26404
#
# Static dielectric constant tensor:
#      x y z
#    x 1.483460 0.000000 0.000000 
#    y 0.000000 1.490180 0.000000 
#    z 0.000000 0.000000 1.486870 
# 
# From -- ./inp_files/61426.got.cif
#   From: 2010.05.17/outbox.cif.g08.bks.cpg/sg71_31_cif.got.tgz:61426.got - 2010.06.03 16:22:01.
