data_PCOD9517329
_publ_section_title
;
Structure prediction by ZEFSAII (Michael W. Deem and Ramdas Pophale) SiO2 
 PCOD9517329
Probable space group: I M M M
;
_chemical_formula_sum "Si O2"
_cell_formula_units_Z 104
_cell_length_a 24.791741
_cell_length_b 29.250828
_cell_length_c 8.947231
_cell_angle_alpha 90.000000
_cell_angle_beta 90.000000
_cell_angle_gamma 90.000000
_cell_volume 6488.343598
_symmetry_space_group_name_H-M "I M M M"
_symmetry_group_IT_number 71
_symmetry_cell_setting 'orthorhombic'
loop_
_space_group_symop_operation_xyz
x,y,z
-x,-y,z
x,-y,-z
-x,y,-z
-x,-y,-z
x,y,-z
-x,y,z
x,-y,z
1/2+x,1/2+y,1/2+z
1/2-x,1/2-y,1/2+z
1/2+x,1/2-y,1/2-z
1/2-x,1/2+y,1/2-z
1/2-x,1/2-y,1/2-z
1/2+x,1/2+y,1/2-z
1/2-x,1/2+y,1/2+z
1/2+x,1/2-y,1/2+z
loop_
_atom_site_type_symbol
_atom_site_label
_atom_site_fract_x
_atom_site_fract_y
_atom_site_fract_z
Si Si1 0.562344 0.178109 0.817591
Si Si2 0.434524 0.278864 0.172221
Si Si3 0.562107 0.000000 0.182021
Si Si4 0.437077 0.626675 0.678259
Si Si5 0.629219 0.089691 0.180673
Si Si6 0.265302 0.946600 0.320421
Si Si7 0.358318 0.553006 0.819897
O O1 0.500000 0.171089 0.770813
O O2 0.581880 0.228625 0.770666
O O3 0.599659 0.136164 0.770848
O O4 0.561756 0.179032 0.000000
O O5 0.500000 0.277097 0.171556
O O6 0.418932 0.323272 0.265275
O O7 0.417000 0.284491 0.000000
O O8 0.593785 0.045651 0.228266
O O9 0.500000 0.000000 0.232163
O O10 0.561309 0.000000 0.000000
O O11 0.434518 0.624944 0.500000
O O12 0.500000 0.620799 0.723581
O O13 0.400301 0.587480 0.747983
O O14 0.688907 0.083371 0.244273
O O15 0.631155 0.089513 0.000000
O O16 0.269284 0.943167 0.500000
O O17 0.203620 0.935571 0.278129
O O18 0.274632 0.000000 0.280398
O O19 0.368302 0.500000 0.777863
O O20 0.361849 0.555631 0.000000
#
# Coordination Sequence:
#
# PCOD9517329 Si02
#       7
#    16  16   8  16  16  16  16
#     4   8  14  25  43  68  95 122 157 200 237 270
#     4   8  14  27  47  67  89 123 162 192 221 267
#     4   9  16  24  37  63  97 127 154 189 234 281
#     4  10  20  32  48  74 104 126 143 176 231 281
#     4  10  17  26  44  69  93 121 159 199 237 279
#     4   9  18  33  49  64  88 122 159 197 234 271
#     4   9  19  35  53  71  91 122 161 192 220 265
#
# _framework density 16.028744
#
# number of rings (size 3 to 8) (size 9 to 14) (size 15 to 20)
#    0.000    3.000    0.769    2.769    0.000    4.000 
#    0.000    3.846    0.000    4.154    0.000    0.000 
#    0.000    0.000    0.000    0.000    0.000    0.000 
#
# Total GULP energy -289641.473114 kJ/mol
# GULP energy per Si atom -5570.028329 kJ/mol
# Density = 1.599226 g / cm^3
# Si number density = 16.028744 Si / 1000 Ang^3
#
#
#
# Elastic Constant Matrix: (Units=GPa)
#
#
# Indices 1 2 3 4 5 6 
#
# 1 99.1264 91.5125 30.9844 0.0000 0.0000 0.0000
# 2 91.5125 155.2656 37.4090 0.0000 0.0000 0.0000
# 3 30.9844 37.4090 15.0552 0.0000 0.0000 0.0000
# 4 0.0000 0.0000 0.0000 12.8125 0.0000 0.0000
# 5 0.0000 0.0000 0.0000 0.0000 21.9082 0.0000
# 6 0.0000 0.0000 0.0000 0.0000 0.0000 10.0874
#
#
#
# Elastic Compliance Matrix: (Units=1/GPa)
#
#
# Indices 1 2 3 4 5 6 
#
# 1 0.031275 -0.007289 -0.046254 0.000000 0.000000 0.000000
# 2 -0.007289 0.017747 -0.029096 0.000000 0.000000 0.000000
# 3 -0.046254 -0.029096 0.233913 0.000000 0.000000 0.000000
# 4 0.000000 0.000000 0.000000 0.078048 0.000000 0.000000
# 5 0.000000 0.000000 0.000000 0.000000 0.045645 0.000000
# 6 0.000000 0.000000 0.000000 0.000000 0.000000 0.099133
#
#
# Mechanical properties :
#
#
# Convention : Reuss Voigt Hill
#
# Bulk Modulus (GPa) = 8.49932 65.47324 36.98628
# Shear Modulus (GPa) = 7.03968 16.26439 11.65204
#
# Velocity S-wave (km/s) = 2.09796 3.18889 2.69912
# Velocity P-wave (km/s) = 3.34405 7.38206 5.73051
#
# Compressibility (1/GPa) = 0.11765645
#
# Stress axis : x y z
#
# Youngs Moduli (GPa) = 31.97407 56.34747 4.27510
#
# Poissons Ratio (x) = 0.41073 0.19774
# Poissons Ratio (y) = 0.23307 0.12439
# Poissons Ratio (z) = 1.47893 1.63948
#
# Static dielectric constant tensor:
#      x y z
#    x 1.520120 0.000000 0.000000 
#    y 0.000000 1.541230 0.000000 
#    z 0.000000 0.000000 1.537870 
# 
# From -- ./inp_files/13621.got.cif
#   From: 2010.05.17/outbox.cif.g08.bks.cpg/sg71_7_cif.got.tgz:13621.got - 2010.06.03 16:22:01.
