data_PCOD9517473
_publ_section_title
;
Structure prediction by ZEFSAII (Michael W. Deem and Ramdas Pophale) SiO2 
 PCOD9517473
Probable space group: I M M M
;
_chemical_formula_sum "Si O2"
_cell_formula_units_Z 72
_cell_length_a 20.798362
_cell_length_b 8.319725
_cell_length_c 22.197466
_cell_angle_alpha 90.000000
_cell_angle_beta 90.000000
_cell_angle_gamma 90.000000
_cell_volume 3840.975206
_symmetry_space_group_name_H-M "I M M M"
_symmetry_group_IT_number 71
_symmetry_cell_setting 'orthorhombic'
loop_
_space_group_symop_operation_xyz
x,y,z
-x,-y,z
x,-y,-z
-x,y,-z
-x,-y,-z
x,y,-z
-x,y,z
x,-y,z
1/2+x,1/2+y,1/2+z
1/2-x,1/2-y,1/2+z
1/2+x,1/2-y,1/2-z
1/2-x,1/2+y,1/2-z
1/2-x,1/2-y,1/2-z
1/2+x,1/2+y,1/2-z
1/2-x,1/2+y,1/2+z
1/2+x,1/2-y,1/2+z
loop_
_atom_site_type_symbol
_atom_site_label
_atom_site_fract_x
_atom_site_fract_y
_atom_site_fract_z
Si Si1 0.000000 0.192357 0.150563
Si Si2 0.383766 0.192480 0.568593
Si Si3 0.382001 0.694238 0.127525
Si Si4 0.239302 0.691488 0.430380
Si Si5 0.924030 0.816211 0.500000
Si Si6 0.500000 0.303195 0.788749
O O1 0.062785 0.250064 0.114948
O O2 0.000000 0.249821 0.219666
O O3 0.000000 0.000000 0.151468
O O4 0.401497 0.241327 0.500000
O O5 0.313006 0.261219 0.581035
O O6 0.380257 0.000000 0.570089
O O7 0.386110 0.500000 0.128018
O O8 0.307233 0.740373 0.121848
O O9 0.434337 0.748360 0.176823
O O10 0.405093 0.760765 0.062712
O O11 0.224448 0.749610 0.500000
O O12 0.233098 0.500000 0.430933
O O13 0.000000 0.828988 0.500000
O O14 0.898062 0.000000 0.500000
O O15 0.500000 0.500000 0.789841
#
# Coordination Sequence:
#
# PCOD9517473 Si02
#       6
#     8  16  16  16   8   8
#     4  11  22  38  58  82 112 142 173 218 276 325
#     4  10  21  38  61  86 107 133 175 222 268 325
#     4  10  17  30  52  78 108 145 188 225 258 304
#     4  10  20  33  51  81 117 144 170 217 280 330
#     4   9  14  22  45  77 103 134 181 228 259 293
#     4   9  20  35  54  79 109 148 191 226 256 308
#
# _framework density 18.745239000000002
#
# number of rings (size 3 to 8) (size 9 to 14) (size 15 to 20)
#    0.000    2.111    2.222    2.000    0.000    3.556 
#    0.000    3.889    0.000    2.000    0.000    0.000 
#    0.000    0.000    0.000    0.000    0.000    0.000 
#
# Total GULP energy -200585.767945 kJ/mol
# GULP energy per Si atom -5571.826887 kJ/mol
# Density = 1.870257 g / cm^3
# Si number density = 18.745239 Si / 1000 Ang^3
#
#
#
# Elastic Constant Matrix: (Units=GPa)
#
#
# Indices 1 2 3 4 5 6 
#
# 1 145.1196 22.0493 94.9979 0.0000 0.0000 0.0000
# 2 22.0493 27.2121 22.2870 0.0000 0.0000 0.0000
# 3 94.9979 22.2870 134.9221 0.0000 0.0000 0.0000
# 4 0.0000 0.0000 0.0000 -35.6574 0.0000 0.0000
# 5 0.0000 0.0000 0.0000 0.0000 -8.1199 0.0000
# 6 0.0000 0.0000 0.0000 0.0000 0.0000 17.2452
#
#
#
# Elastic Compliance Matrix: (Units=1/GPa)
#
#
# Indices 1 2 3 4 5 6 
#
# 1 0.013069 -0.003531 -0.008619 0.000000 0.000000 0.000000
# 2 -0.003531 0.043452 -0.004691 0.000000 0.000000 0.000000
# 3 -0.008619 -0.004691 0.014255 0.000000 0.000000 0.000000
# 4 0.000000 0.000000 0.000000 -0.028045 0.000000 0.000000
# 5 0.000000 0.000000 0.000000 0.000000 -0.123155 0.000000
# 6 0.000000 0.000000 0.000000 0.000000 0.000000 0.057987
#
#
# Mechanical properties :
#
#
# Convention : Reuss Voigt Hill
#
# Bulk Modulus (GPa) = 26.95866 65.10247 46.03057
# Shear Modulus (GPa) = 211.76379 5.88822 108.82601
#
# Velocity S-wave (km/s) = 10.64024 1.77426 7.62767
# Velocity P-wave (km/s) = 12.85946 6.24523 10.10862
#
# Compressibility (1/GPa) = 0.03709383
#
# Stress axis : x y z
#
# Youngs Moduli (GPa) = 76.51452 23.01408 70.15023
#
# Poissons Ratio (x) = 0.08126 0.60461
# Poissons Ratio (y) = 0.27017 0.32910
# Poissons Ratio (z) = 0.65947 0.10797
#
# Static dielectric constant tensor:
#      x y z
#    x 1.683440 0.000000 0.000000 
#    y 0.000000 1.663040 0.000000 
#    z 0.000000 0.000000 1.654420 
# 
# From -- ./inp_files/54696.got.cif
#   From: 2010.05.17/outbox.cif.g08.bks.cpg/sg71_28_cif.got.tgz:54696.got - 2010.06.03 16:22:01.
