data_PCOD9517619
_publ_section_title
;
Structure prediction by ZEFSAII (Michael W. Deem and Ramdas Pophale) SiO2 
 PCOD9517619
Probable space group: I M M M
;
_chemical_formula_sum "Si O2"
_cell_formula_units_Z 80
_cell_length_a 7.298001
_cell_length_b 31.088994
_cell_length_c 13.279726
_cell_angle_alpha 90.000000
_cell_angle_beta 90.000000
_cell_angle_gamma 90.000000
_cell_volume 3013.003956
_symmetry_space_group_name_H-M "I M M M"
_symmetry_group_IT_number 71
_symmetry_cell_setting 'orthorhombic'
loop_
_space_group_symop_operation_xyz
x,y,z
-x,-y,z
x,-y,-z
-x,y,-z
-x,-y,-z
x,y,-z
-x,y,z
x,-y,z
1/2+x,1/2+y,1/2+z
1/2-x,1/2-y,1/2+z
1/2+x,1/2-y,1/2-z
1/2-x,1/2+y,1/2-z
1/2-x,1/2-y,1/2-z
1/2+x,1/2+y,1/2-z
1/2-x,1/2+y,1/2+z
1/2+x,1/2-y,1/2+z
loop_
_atom_site_type_symbol
_atom_site_label
_atom_site_fract_x
_atom_site_fract_y
_atom_site_fract_z
Si Si1 0.221497 0.325875 0.615372
Si Si2 0.289068 0.551460 0.394041
Si Si3 0.775019 0.952061 0.332993
Si Si4 0.786806 0.139334 0.324166
Si Si5 0.713521 0.268693 0.879685
O O1 0.283182 0.333224 0.500000
O O2 0.277645 0.359178 0.701634
O O3 0.285975 0.278245 0.651466
O O4 0.000000 0.325401 0.612891
O O5 0.207119 0.568323 0.500000
O O6 0.500000 0.566379 0.390399
O O7 0.296092 0.500000 0.404620
O O8 0.210391 0.553620 0.282416
O O9 0.718542 0.905141 0.373513
O O10 0.000000 0.952749 0.334307
O O11 0.720180 0.000000 0.369701
O O12 0.702480 0.185267 0.352939
O O13 0.000000 0.141377 0.353848
O O14 0.500000 0.269016 0.849691
O O15 0.718455 0.266118 0.000000
#
# Coordination Sequence:
#
# PCOD9517619 Si02
#       5
#    16  16  16  16  16
#     4   9  18  32  47  63  90 126 151 172 219 282
#     4   7   9  14  24  37  58  93 129 153 182 232
#     4   8  14  23  34  54  86 116 140 174 222 264
#     4  10  18  27  46  72  90 112 152 195 223 250
#     4   8  15  29  47  66  90 120 150 179 221 278
#
# _framework density 26.551572
#
# number of rings (size 3 to 8) (size 9 to 14) (size 15 to 20)
#    0.000    3.600    0.000    3.600    0.000    1.200 
#    0.000    2.000    0.000    3.000    0.000    5.600 
#    0.000    0.000    0.000    1.800    0.000    2.000 
#
# Total GULP energy -222849.346958 kJ/mol
# GULP energy per Si atom -5571.233674 kJ/mol
# Density = 2.649114 g / cm^3
# Si number density = 26.551572 Si / 1000 Ang^3
#
#
#
# Elastic Constant Matrix: (Units=GPa)
#
#
# Indices 1 2 3 4 5 6 
#
# 1 112.8859 6.5541 2.5639 0.0000 0.0000 0.0000
# 2 6.5541 270.4030 21.8855 -0.0001 0.0000 0.0000
# 3 2.5639 21.8855 50.0982 -0.0002 0.0000 0.0000
# 4 0.0000 -0.0001 -0.0002 -7.2995 0.0000 0.0000
# 5 0.0000 0.0000 0.0000 0.0000 3.4821 0.0000
# 6 0.0000 0.0000 0.0000 0.0000 0.0000 -1.6449
#
#
#
# Elastic Compliance Matrix: (Units=1/GPa)
#
#
# Indices 1 2 3 4 5 6 
#
# 1 0.008878 -0.000185 -0.000374 0.000000 0.000000 0.000000
# 2 -0.000185 0.003838 -0.001667 0.000000 0.000000 0.000000
# 3 -0.000374 -0.001667 0.020708 -0.000001 0.000000 0.000000
# 4 0.000000 0.000000 -0.000001 -0.136995 0.000000 0.000001
# 5 0.000000 0.000000 0.000000 0.000000 0.287181 -0.000001
# 6 0.000000 0.000000 0.000000 0.000001 -0.000001 -0.607952
#
#
# Mechanical properties :
#
#
# Convention : Reuss Voigt Hill
#
# Bulk Modulus (GPa) = 34.51553 55.04381 44.77967
# Shear Modulus (GPa) = -12.18817 25.73312 6.77247
#
# Velocity S-wave (km/s) = -2.14484 3.11653 1.59882
# Velocity P-wave (km/s) = 2.62562 5.80743 4.50667
#
# Compressibility (1/GPa) = 0.02897247
#
# Stress axis : x y z
#
# Youngs Moduli (GPa) = 112.64150 260.58041 48.29019
#
# Poissons Ratio (x) = 0.04819 0.01804
# Poissons Ratio (y) = 0.02083 0.08050
# Poissons Ratio (z) = 0.04208 0.43439
#
# Static dielectric constant tensor:
#      x y z
#    x 1.998580 0.000000 0.000000 
#    y 0.000000 2.146680 0.000000 
#    z 0.000000 0.000000 2.397120 
# 
# From -- ./inp_files/24667.got.cif
#   From: 2010.05.17/outbox.cif.g08.bks.cpg/sg71_13_cif.got.tgz:24667.got - 2010.06.03 16:22:01.
