data_PCOD9517222
_publ_section_title
;
Structure prediction by ZEFSAII (Michael W. Deem and Ramdas Pophale) SiO2 
 PCOD9517222
Probable space group: I M M M
;
_chemical_formula_sum "Si O2"
_cell_formula_units_Z 72
_cell_length_a 20.016102
_cell_length_b 28.812064
_cell_length_c 7.375063
_cell_angle_alpha 90.000000
_cell_angle_beta 90.000000
_cell_angle_gamma 90.000000
_cell_volume 4253.237270
_symmetry_space_group_name_H-M "I M M M"
_symmetry_group_IT_number 71
_symmetry_cell_setting 'orthorhombic'
loop_
_space_group_symop_operation_xyz
x,y,z
-x,-y,z
x,-y,-z
-x,y,-z
-x,-y,-z
x,y,-z
-x,y,z
x,-y,z
1/2+x,1/2+y,1/2+z
1/2-x,1/2-y,1/2+z
1/2+x,1/2-y,1/2-z
1/2-x,1/2+y,1/2-z
1/2-x,1/2-y,1/2-z
1/2+x,1/2+y,1/2-z
1/2-x,1/2+y,1/2+z
1/2+x,1/2-y,1/2+z
loop_
_atom_site_type_symbol
_atom_site_label
_atom_site_fract_x
_atom_site_fract_y
_atom_site_fract_z
Si Si1 0.421785 0.000000 0.721410
Si Si2 0.500000 0.733716 0.206593
Si Si3 0.129282 0.599348 0.778729
Si Si4 0.773912 0.324514 0.786462
Si Si5 0.353069 0.269023 0.780118
Si Si6 0.000000 0.341208 0.219266
O O1 0.384365 0.046830 0.779667
O O2 0.500000 0.000000 0.776624
O O3 0.422844 0.000000 0.500000
O O4 0.427845 0.721013 0.287004
O O5 0.500000 0.789696 0.204787
O O6 0.500000 0.716084 0.000000
O O7 0.193777 0.628138 0.714883
O O8 0.065017 0.629891 0.727494
O O9 0.131123 0.598752 0.000000
O O10 0.704303 0.304194 0.713580
O O11 0.827574 0.282661 0.767761
O O12 0.763168 0.331535 0.000000
O O13 0.354508 0.270293 0.000000
O O14 0.000000 0.337116 0.000000
#
# Coordination Sequence:
#
# PCOD9517222 Si02
#       6
#     8   8  16  16  16   8
#     4   9  14  20  30  50  76  93 109 141 182 212
#     4  10  18  26  35  51  73  97 122 146 174 209
#     4   9  15  22  34  51  72  94 117 146 177 208
#     4   9  16  26  38  52  70  92 119 148 176 207
#     4   9  17  26  36  51  71  94 119 146 175 208
#     4  10  16  23  36  54  72  94 121 147 175 207
#
# _framework density 16.928280999999998
#
# number of rings (size 3 to 8) (size 9 to 14) (size 15 to 20)
#    0.000    2.778    3.333    0.000    0.000    0.000 
#    0.000    0.000    0.000    0.000    0.000    3.889 
#    0.000    0.889    0.000   12.444    0.000    0.000 
#
# Total GULP energy -200693.709300 kJ/mol
# GULP energy per Si atom -5574.825258 kJ/mol
# Density = 1.688975 g / cm^3
# Si number density = 16.928281 Si / 1000 Ang^3
#
#
#
# Elastic Constant Matrix: (Units=GPa)
#
#
# Indices 1 2 3 4 5 6 
#
# 1 142.5231 66.5155 -1.4118 0.0000 0.0000 0.0000
# 2 66.5155 113.2672 1.1063 0.0000 0.0000 0.0000
# 3 -1.4118 1.1063 58.2153 0.0000 0.0000 0.0000
# 4 0.0000 0.0000 0.0000 6.2682 0.0000 0.0000
# 5 0.0000 0.0000 0.0000 0.0000 2.0077 0.0000
# 6 0.0000 0.0000 0.0000 0.0000 0.0000 28.4074
#
#
#
# Elastic Compliance Matrix: (Units=1/GPa)
#
#
# Indices 1 2 3 4 5 6 
#
# 1 0.009672 -0.005683 0.000343 0.000000 0.000000 0.000000
# 2 -0.005683 0.012170 -0.000369 0.000000 0.000000 0.000000
# 3 0.000343 -0.000369 0.017193 0.000000 0.000000 0.000000
# 4 0.000000 0.000000 0.000000 0.159536 0.000000 0.000000
# 5 0.000000 0.000000 0.000000 0.000000 0.498087 0.000000
# 6 0.000000 0.000000 0.000000 0.000000 0.000000 0.035202
#
#
# Mechanical properties :
#
#
# Convention : Reuss Voigt Hill
#
# Bulk Modulus (GPa) = 36.21189 49.60286 42.90737
# Shear Modulus (GPa) = 6.64466 23.85637 15.25051
#
# Velocity S-wave (km/s) = 1.98336 3.75809 3.00474
# Velocity P-wave (km/s) = 5.16553 6.94236 6.11878
#
# Compressibility (1/GPa) = 0.02761524
#
# Stress axis : x y z
#
# Youngs Moduli (GPa) = 103.38927 82.17091 58.16346
#
# Poissons Ratio (x) = 0.46700 -0.01993
# Poissons Ratio (y) = 0.58759 0.02147
# Poissons Ratio (z) = -0.03542 0.03033
#
# Static dielectric constant tensor:
#      x y z
#    x 1.605040 0.000000 0.000000 
#    y 0.000000 1.549160 0.000000 
#    z 0.000000 0.000000 1.664760 
# 
# From -- ./inp_files/10700.got.cif
#   From: 2010.05.17/outbox.cif.g08.bks.cpg/sg71_6_cif.got.tgz:10700.got - 2010.06.03 16:22:01.
