data_PCOD9517471
_publ_section_title
;
Structure prediction by ZEFSAII (Michael W. Deem and Ramdas Pophale) SiO2 
 PCOD9517471
Probable space group: I M M M
;
_chemical_formula_sum "Si O2"
_cell_formula_units_Z 104
_cell_length_a 28.066427
_cell_length_b 24.489401
_cell_length_c 8.191568
_cell_angle_alpha 90.000000
_cell_angle_beta 90.000000
_cell_angle_gamma 90.000000
_cell_volume 5630.310314
_symmetry_space_group_name_H-M "I M M M"
_symmetry_group_IT_number 71
_symmetry_cell_setting 'orthorhombic'
loop_
_space_group_symop_operation_xyz
x,y,z
-x,-y,z
x,-y,-z
-x,y,-z
-x,-y,-z
x,y,-z
-x,y,z
x,-y,z
1/2+x,1/2+y,1/2+z
1/2-x,1/2-y,1/2+z
1/2+x,1/2-y,1/2-z
1/2-x,1/2+y,1/2-z
1/2-x,1/2-y,1/2-z
1/2+x,1/2+y,1/2-z
1/2-x,1/2+y,1/2+z
1/2+x,1/2-y,1/2+z
loop_
_atom_site_type_symbol
_atom_site_label
_atom_site_fract_x
_atom_site_fract_y
_atom_site_fract_z
Si Si1 0.872988 0.644899 0.810663
Si Si2 0.783403 0.313235 0.310102
Si Si3 0.000000 0.935930 0.800186
Si Si4 0.917071 0.852582 0.195958
Si Si5 0.947387 0.565087 0.308363
Si Si6 0.682262 0.306003 0.190751
Si Si7 0.051847 0.732884 0.199210
O O1 0.824384 0.642702 0.712637
O O2 0.905898 0.592641 0.791728
O O3 0.906065 0.694082 0.744138
O O4 0.861823 0.655014 0.000000
O O5 0.772019 0.304425 0.500000
O O6 0.734969 0.329755 0.220645
O O7 0.807484 0.256285 0.244572
O O8 0.951949 0.902173 0.748024
O O9 0.000000 0.000000 0.749829
O O10 0.000000 0.935701 0.000000
O O11 0.861199 0.842070 0.239180
O O12 0.940502 0.795254 0.249311
O O13 0.918848 0.855011 0.000000
O O14 0.942945 0.579895 0.500000
O O15 0.945253 0.500000 0.298559
O O16 0.000000 0.582271 0.250434
O O17 0.671990 0.300573 0.000000
O O18 0.000000 0.713869 0.253518
O O19 0.052748 0.731518 0.000000
#
# Coordination Sequence:
#
# PCOD9517471 Si02
#       7
#    16  16   8  16  16  16  16
#     4  11  20  30  49  76 107 136 171 218 262 311
#     4  10  20  33  50  73 104 139 175 211 260 321
#     4   9  18  32  55  85 109 139 186 227 256 302
#     4  10  17  30  52  74 104 140 172 212 260 311
#     4   9  19  36  54  71  98 139 181 216 254 302
#     4  10  20  33  50  74 105 137 173 215 260 316
#     4   9  16  26  42  69 102 136 168 201 253 311
#
# _framework density 18.471450999999998
#
# number of rings (size 3 to 8) (size 9 to 14) (size 15 to 20)
#    0.000    2.231    2.308    2.308    0.000    2.462 
#    0.000    1.154    0.000    2.769    0.000    2.154 
#    0.000    0.000    0.000    0.000    0.000    0.000 
#
# Total GULP energy -289642.235238 kJ/mol
# GULP energy per Si atom -5570.042985 kJ/mol
# Density = 1.842941 g / cm^3
# Si number density = 18.471451 Si / 1000 Ang^3
#
#
#
# Elastic Constant Matrix: (Units=GPa)
#
#
# Indices 1 2 3 4 5 6 
#
# 1 141.9609 38.8091 10.2327 0.0000 0.0000 0.0000
# 2 38.8091 67.2034 11.9398 0.0000 0.0000 0.0000
# 3 10.2327 11.9398 18.0179 0.0000 0.0000 0.0000
# 4 0.0000 0.0000 0.0000 14.4759 0.0000 0.0000
# 5 0.0000 0.0000 0.0000 0.0000 21.7249 0.0000
# 6 0.0000 0.0000 0.0000 0.0000 0.0000 -27.8892
#
#
#
# Elastic Compliance Matrix: (Units=1/GPa)
#
#
# Indices 1 2 3 4 5 6 
#
# 1 0.008414 -0.004545 -0.001767 0.000000 0.000000 0.000000
# 2 -0.004545 0.019321 -0.010222 0.000000 0.000000 0.000000
# 3 -0.001767 -0.010222 0.063277 0.000000 0.000000 0.000000
# 4 0.000000 0.000000 0.000000 0.069080 0.000000 0.000000
# 5 0.000000 0.000000 0.000000 0.000000 0.046030 0.000000
# 6 0.000000 0.000000 0.000000 0.000000 0.000000 -0.035856
#
#
# Mechanical properties :
#
#
# Convention : Reuss Voigt Hill
#
# Bulk Modulus (GPa) = 17.25778 38.79392 28.02585
# Shear Modulus (GPa) = 22.45684 12.74237 17.59960
#
# Velocity S-wave (km/s) = 3.49056 2.62933 3.09010
# Velocity P-wave (km/s) = 5.06049 5.50141 5.28555
#
# Compressibility (1/GPa) = 0.05794487
#
# Stress axis : x y z
#
# Youngs Moduli (GPa) = 118.84839 51.75694 15.80346
#
# Poissons Ratio (x) = 0.23524 0.02792
# Poissons Ratio (y) = 0.54018 0.16154
# Poissons Ratio (z) = 0.20996 0.52906
#
# Static dielectric constant tensor:
#      x y z
#    x 1.679250 0.000000 0.000000 
#    y 0.000000 1.654230 0.000000 
#    z 0.000000 0.000000 1.666900 
# 
# From -- ./inp_files/15255.got.cif
#   From: 2010.05.17/outbox.cif.g08.bks.cpg/sg71_8_cif.got.tgz:15255.got - 2010.06.03 16:22:01.
