data_PCOD9517023
_publ_section_title
;
Structure prediction by ZEFSAII (Michael W. Deem and Ramdas Pophale) SiO2 
 PCOD9517023
Probable space group: F D D D
;
_chemical_formula_sum "Si O2"
_cell_formula_units_Z 216
_cell_length_a 25.823443
_cell_length_b 11.883328
_cell_length_c 27.676614
_cell_angle_alpha 90.000000
_cell_angle_beta 90.000000
_cell_angle_gamma 90.000000
_cell_volume 8493.079453
_symmetry_space_group_name_H-M "F D D D"
_symmetry_group_IT_number 70
_space_group.IT_coordinate_system_code '2'
_symmetry_cell_setting 'orthorhombic'
loop_
_space_group_symop_operation_xyz
x,y,z
1/4-x,1/4-y,z
x,1/4-y,1/4-z
1/4-x,y,1/4-z
-x,-y,-z
3/4+x,3/4+y,-z
-x,3/4+y,3/4+z
3/4+x,-y,3/4+z
x,1/2+y,1/2+z
1/4-x,3/4-y,1/2+z
x,3/4-y,3/4-z
1/4-x,1/2+y,3/4-z
-x,1/2-y,1/2-z
3/4+x,1/4+y,1/2-z
-x,1/4+y,1/4+z
3/4+x,1/2-y,1/4+z
1/2+x,y,1/2+z
3/4-x,1/4-y,1/2+z
1/2+x,1/4-y,3/4-z
3/4-x,y,3/4-z
1/2-x,-y,1/2-z
1/4+x,3/4+y,1/2-z
1/2-x,3/4+y,1/4+z
1/4+x,-y,1/4+z
1/2+x,1/2+y,z
3/4-x,3/4-y,z
1/2+x,3/4-y,1/4-z
3/4-x,1/2+y,1/4-z
1/2-x,1/2-y,-z
1/4+x,1/4+y,-z
1/2-x,1/4+y,3/4+z
1/4+x,1/2-y,3/4+z
loop_
_atom_site_type_symbol
_atom_site_label
_atom_site_fract_x
_atom_site_fract_y
_atom_site_fract_z
Si Si1 0.475708 0.127060 0.360810
Si Si2 0.094459 0.457492 0.559717
Si Si3 0.737437 0.591532 0.042252
Si Si4 0.780693 0.430594 0.790153
Si Si5 0.295073 0.488851 0.066309
Si Si6 0.625000 0.125000 0.274408
Si Si7 0.625000 0.125000 0.625000
Si Si8 0.891461 0.127070 0.044196
O O1 0.433922 0.122927 0.403741
O O2 0.453242 0.224461 0.327238
O O3 0.528302 0.160491 0.389379
O O4 0.487009 0.017239 0.327875
O O5 0.049419 0.552468 0.554088
O O6 0.139197 0.529541 0.585573
O O7 0.115506 0.400368 0.512608
O O8 0.796717 0.634220 0.048971
O O9 0.720096 0.561542 0.987043
O O10 0.750000 0.500000 0.750000
O O11 0.742355 0.346674 0.816929
O O12 0.825568 0.368754 0.760946
O O13 0.353693 0.536013 0.068680
O O14 0.624462 0.243636 0.302623
#
# Coordination Sequence:
#
# PCOD9517023 Si02
#       8
#    32  32  32  32  32  16   8  32
#     4  12  25  48  77 107 157 203 258 325 394 477
#     4  12  26  48  75 114 150 197 258 330 395 465
#     4  12  24  51  77 106 158 202 259 328 396 469
#     4  12  23  46  76 108 152 205 258 324 397 467
#     4  12  26  48  76 113 154 207 258 326 395 479
#     4  12  22  44  79 108 143 200 257 322 404 466
#     4  12  24  40  76 110 150 192 250 320 404 468
#     4  12  26  45  79 110 149 209 259 318 409 478
#
# _framework density 25.432473000000002
#
# number of rings (size 3 to 8) (size 9 to 14) (size 15 to 20)
#    0.000    0.000    7.407    1.778    2.074    0.000 
#    0.000    7.407    0.000    0.000    0.000    0.000 
#    0.000    0.000    0.000    0.000    0.000    0.000 
#
# Total GULP energy -301808.145555 kJ/mol
# GULP energy per Si atom -5589.039732 kJ/mol
# Density = 2.537459 g / cm^3
# Si number density = 25.432473 Si / 1000 Ang^3
#
#
#
# Elastic Constant Matrix: (Units=GPa)
#
#
# Indices 1 2 3 4 5 6 
#
# 1 132.0553 23.5111 2.2359 0.0000 0.0000 0.0000
# 2 23.5111 79.1167 36.8113 0.0000 0.0000 0.0000
# 3 2.2359 36.8113 80.1014 0.0000 0.0000 0.0000
# 4 0.0000 0.0000 0.0000 40.8778 0.0000 0.0000
# 5 0.0000 0.0000 0.0000 0.0000 14.7753 0.0000
# 6 0.0000 0.0000 0.0000 0.0000 0.0000 41.9226
#
#
#
# Elastic Compliance Matrix: (Units=1/GPa)
#
#
# Indices 1 2 3 4 5 6 
#
# 1 0.008073 -0.002918 0.001116 0.000000 0.000000 0.000000
# 2 -0.002918 0.017132 -0.007792 0.000000 0.000000 0.000000
# 3 0.001116 -0.007792 0.016034 0.000000 0.000000 0.000000
# 4 0.000000 0.000000 0.000000 0.024463 0.000000 0.000000
# 5 0.000000 0.000000 0.000000 0.000000 0.067681 0.000000
# 6 0.000000 0.000000 0.000000 0.000000 0.000000 0.023853
#
#
# Mechanical properties :
#
#
# Convention : Reuss Voigt Hill
#
# Bulk Modulus (GPa) = 45.35014 46.26557 45.80786
# Shear Modulus (GPa) = 27.20718 34.76283 30.98500
#
# Velocity S-wave (km/s) = 3.27430 3.70113 3.49424
# Velocity P-wave (km/s) = 5.67142 6.04115 5.85920
#
# Compressibility (1/GPa) = 0.02205065
#
# Stress axis : x y z
#
# Youngs Moduli (GPa) = 123.86570 58.36994 62.36823
#
# Poissons Ratio (x) = 0.17034 -0.06959
# Poissons Ratio (y) = 0.36147 0.48596
# Poissons Ratio (z) = -0.13820 0.45480
#
# Static dielectric constant tensor:
#      x y z
#    x 2.186360 0.000000 0.000000 
#    y 0.000000 2.031950 0.000000 
#    z 0.000000 0.000000 2.063790 
# 
# From -- ./inp_files/69037.got.cif
#   From: 2010.05.17/outbox.cif.g08.bks.cpg/sg70_35_cif.got.tgz:69037.got - 2010.06.03 15:57:51.
