data_PCOD9517614
_publ_section_title
;
Structure prediction by ZEFSAII (Michael W. Deem and Ramdas Pophale) SiO2 
 PCOD9517614
Probable space group: I M M M
;
_chemical_formula_sum "Si O2"
_cell_formula_units_Z 96
_cell_length_a 15.010112
_cell_length_b 14.705160
_cell_length_c 26.144813
_cell_angle_alpha 90.000000
_cell_angle_beta 90.000000
_cell_angle_gamma 90.000000
_cell_volume 5770.842572
_symmetry_space_group_name_H-M "I M M M"
_symmetry_group_IT_number 71
_symmetry_cell_setting 'orthorhombic'
loop_
_space_group_symop_operation_xyz
x,y,z
-x,-y,z
x,-y,-z
-x,y,-z
-x,-y,-z
x,y,-z
-x,y,z
x,-y,z
1/2+x,1/2+y,1/2+z
1/2-x,1/2-y,1/2+z
1/2+x,1/2-y,1/2-z
1/2-x,1/2+y,1/2-z
1/2-x,1/2-y,1/2-z
1/2+x,1/2+y,1/2-z
1/2-x,1/2+y,1/2+z
1/2+x,1/2-y,1/2+z
loop_
_atom_site_type_symbol
_atom_site_label
_atom_site_fract_x
_atom_site_fract_y
_atom_site_fract_z
Si Si1 0.664277 0.894821 0.234523
Si Si2 0.900078 0.391118 0.560177
Si Si3 0.902938 0.266476 0.820556
Si Si4 0.099874 0.101598 0.370914
Si Si5 0.789291 0.278078 0.365128
Si Si6 0.873867 0.901668 0.251171
O O1 0.612158 0.851818 0.282302
O O2 0.667629 0.824855 0.186326
O O3 0.766914 0.896833 0.252279
O O4 0.638371 0.000000 0.221858
O O5 0.894389 0.369428 0.500000
O O6 0.897444 0.500000 0.565344
O O7 0.818819 0.348341 0.591263
O O8 0.000000 0.361550 0.578446
O O9 0.814229 0.245218 0.853847
O O10 0.905965 0.180305 0.782736
O O11 0.000000 0.274997 0.846419
O O12 0.164298 0.184437 0.381823
O O13 0.094954 0.102114 0.309173
O O14 0.000000 0.115728 0.391184
O O15 0.130299 0.000000 0.385898
O O16 0.897866 0.000000 0.228958
#
# Coordination Sequence:
#
# PCOD9517614 Si02
#       6
#    16  16  16  16  16  16
#     4  10  19  31  45  65  96 134 173 211 248 284
#     4   9  19  36  58  83 105 124 153 199 256 311
#     4  11  21  31  43  66 100 136 172 206 238 282
#     4  10  18  27  44  68  93 125 164 203 244 292
#     4  11  19  33  51  73  97 133 171 210 247 296
#     4   9  16  29  44  58  85 125 164 203 239 276
#
# _framework density 16.635352999999999
#
# number of rings (size 3 to 8) (size 9 to 14) (size 15 to 20)
#    0.000    2.000    3.333    3.000    0.000    2.667 
#    0.000    0.000    0.000    1.000    0.000    3.500 
#    0.000    0.000    0.000    3.000    0.000    0.167 
#
# Total GULP energy -267227.038422 kJ/mol
# GULP energy per Si atom -5567.229967 kJ/mol
# Density = 1.659749 g / cm^3
# Si number density = 16.635353 Si / 1000 Ang^3
#
#
#
# Elastic Constant Matrix: (Units=GPa)
#
#
# Indices 1 2 3 4 5 6 
#
# 1 87.2320 34.9636 24.0319 0.0000 0.0000 0.0000
# 2 34.9636 78.0197 6.4003 0.0000 0.0000 0.0000
# 3 24.0319 6.4003 30.0154 0.0000 0.0000 0.0000
# 4 0.0000 0.0000 0.0000 19.4508 0.0000 0.0000
# 5 0.0000 0.0000 0.0000 0.0000 11.6912 0.0000
# 6 0.0000 0.0000 0.0000 0.0000 0.0000 -38.7829
#
#
#
# Elastic Compliance Matrix: (Units=1/GPa)
#
#
# Indices 1 2 3 4 5 6 
#
# 1 0.017738 -0.006905 -0.012730 0.000000 0.000000 0.000000
# 2 -0.006905 0.015733 0.002174 0.000000 0.000000 0.000000
# 3 -0.012730 0.002174 0.043045 0.000000 0.000000 0.000000
# 4 0.000000 0.000000 0.000000 0.051412 0.000000 0.000000
# 5 0.000000 0.000000 0.000000 0.000000 0.085534 0.000000
# 6 0.000000 0.000000 0.000000 0.000000 0.000000 -0.025785
#
#
# Mechanical properties :
#
#
# Convention : Reuss Voigt Hill
#
# Bulk Modulus (GPa) = 24.04186 36.22875 30.13530
# Shear Modulus (GPa) = 21.14479 7.12990 14.13734
#
# Velocity S-wave (km/s) = 3.56908 2.07251 2.91836
# Velocity P-wave (km/s) = 5.60964 5.24905 5.43234
#
# Compressibility (1/GPa) = 0.04159412
#
# Stress axis : x y z
#
# Youngs Moduli (GPa) = 56.37545 63.55939 23.23159
#
# Poissons Ratio (x) = 0.43887 0.29573
# Poissons Ratio (y) = 0.38927 -0.05049
# Poissons Ratio (z) = 0.71765 -0.13815
#
# Static dielectric constant tensor:
#      x y z
#    x 1.649460 0.000000 0.000000 
#    y 0.000000 1.609720 0.000000 
#    z 0.000000 0.000000 1.531520 
# 
# From -- ./inp_files/41020.got.cif
#   From: 2010.05.17/outbox.cif.g08.bks.cpg/sg71_21_cif.got.tgz:41020.got - 2010.06.03 16:22:01.
