data_PCOD9517398
_publ_section_title
;
Structure prediction by ZEFSAII (Michael W. Deem and Ramdas Pophale) SiO2 
 PCOD9517398
Probable space group: I M M M
;
_chemical_formula_sum "Si O2"
_cell_formula_units_Z 120
_cell_length_a 23.192843
_cell_length_b 14.334568
_cell_length_c 24.121783
_cell_angle_alpha 90.000000
_cell_angle_beta 90.000000
_cell_angle_gamma 90.000000
_cell_volume 8019.513144
_symmetry_space_group_name_H-M "I M M M"
_symmetry_group_IT_number 71
_symmetry_cell_setting 'orthorhombic'
loop_
_space_group_symop_operation_xyz
x,y,z
-x,-y,z
x,-y,-z
-x,y,-z
-x,-y,-z
x,y,-z
-x,y,z
x,-y,z
1/2+x,1/2+y,1/2+z
1/2-x,1/2-y,1/2+z
1/2+x,1/2-y,1/2-z
1/2-x,1/2+y,1/2-z
1/2-x,1/2-y,1/2-z
1/2+x,1/2+y,1/2-z
1/2-x,1/2+y,1/2+z
1/2+x,1/2-y,1/2+z
loop_
_atom_site_type_symbol
_atom_site_label
_atom_site_fract_x
_atom_site_fract_y
_atom_site_fract_z
Si Si1 0.238959 0.693957 0.857205
Si Si2 0.654183 0.108140 0.565912
Si Si3 0.347091 0.891353 0.735470
Si Si4 0.568504 0.735019 0.396570
Si Si5 0.337446 0.608397 0.787344
Si Si6 0.753673 0.104484 0.179880
Si Si7 0.567909 0.272372 0.268738
Si Si8 0.429932 0.393737 0.500000
O O1 0.215127 0.647881 0.912764
O O2 0.193851 0.656186 0.810725
O O3 0.300622 0.659095 0.835127
O O4 0.236602 0.805864 0.858095
O O5 0.648946 0.115497 0.500000
O O6 0.604793 0.171608 0.593247
O O7 0.648821 0.000000 0.581817
O O8 0.309327 0.887047 0.791653
O O9 0.404291 0.830020 0.738478
O O10 0.356347 0.000000 0.722405
O O11 0.500000 0.752740 0.402887
O O12 0.577625 0.700839 0.333640
O O13 0.586501 0.662041 0.444305
O O14 0.345412 0.500000 0.801005
O O15 0.297754 0.612676 0.731784
O O16 0.395996 0.659782 0.770860
O O17 0.760046 0.000000 0.156292
O O18 0.500000 0.273801 0.258353
O O19 0.408981 0.500000 0.500000
O O20 0.500000 0.396572 0.500000
#
# Coordination Sequence:
#
# PCOD9517398 Si02
#       8
#    16  16  16  16  16  16  16   8
#     4  11  17  32  51  67  90 120 156 193 238 287
#     4  11  22  33  48  69  93 120 156 204 246 278
#     4  10  17  28  46  68  91 121 156 188 225 272
#     4  10  20  33  48  65  90 123 162 202 237 278
#     4  10  18  30  47  67  89 120 157 191 234 287
#     4   9  16  27  50  72  86 112 153 191 224 274
#     4  11  21  31  44  68  99 127 155 195 236 276
#     4   9  18  34  51  61  75 115 170 210 242 275
#
# _framework density 14.963502
#
# number of rings (size 3 to 8) (size 9 to 14) (size 15 to 20)
#    0.000    1.800    4.667    2.800    0.000    1.333 
#    0.000    4.000    0.000    0.000    0.000    0.000 
#    0.000    0.533    0.000    2.800    0.000    4.267 
#
# Total GULP energy -334507.414048 kJ/mol
# GULP energy per Si atom -5575.123567 kJ/mol
# Density = 1.492944 g / cm^3
# Si number density = 14.963502 Si / 1000 Ang^3
#
#
#
# Elastic Constant Matrix: (Units=GPa)
#
#
# Indices 1 2 3 4 5 6 
#
# 1 78.0384 27.1716 15.9680 0.0000 0.0000 0.0000
# 2 27.1716 100.6874 9.9484 0.0000 0.0000 0.0000
# 3 15.9680 9.9484 15.1941 0.0000 0.0000 0.0000
# 4 0.0000 0.0000 0.0000 14.3084 0.0000 0.0000
# 5 0.0000 0.0000 0.0000 0.0000 16.5813 0.0000
# 6 0.0000 0.0000 0.0000 0.0000 0.0000 16.6014
#
#
#
# Elastic Compliance Matrix: (Units=1/GPa)
#
#
# Indices 1 2 3 4 5 6 
#
# 1 0.017156 -0.003045 -0.016036 0.000000 0.000000 0.000000
# 2 -0.003045 0.011159 -0.004106 0.000000 0.000000 0.000000
# 3 -0.016036 -0.004106 0.085356 0.000000 0.000000 0.000000
# 4 0.000000 0.000000 0.000000 0.069889 0.000000 0.000000
# 5 0.000000 0.000000 0.000000 0.000000 0.060309 0.000000
# 6 0.000000 0.000000 0.000000 0.000000 0.000000 0.060236
#
#
# Mechanical properties :
#
#
# Convention : Reuss Voigt Hill
#
# Bulk Modulus (GPa) = 14.85956 33.34398 24.10177
# Shear Modulus (GPa) = 13.40804 18.88702 16.14753
#
# Velocity S-wave (km/s) = 2.99666 3.55661 3.28857
# Velocity P-wave (km/s) = 4.68245 6.26082 5.52826
#
# Compressibility (1/GPa) = 0.06729674
#
# Stress axis : x y z
#
# Youngs Moduli (GPa) = 58.28981 89.61187 11.71566
#
# Poissons Ratio (x) = 0.27289 0.18787
# Poissons Ratio (y) = 0.17751 0.04811
# Poissons Ratio (z) = 0.93471 0.36796
#
# Static dielectric constant tensor:
#      x y z
#    x 1.494290 0.000000 0.000000 
#    y 0.000000 1.516310 0.000000 
#    z 0.000000 0.000000 1.491670 
# 
# From -- ./inp_files/61414.got.cif
#   From: 2010.05.17/outbox.cif.g08.bks.cpg/sg71_31_cif.got.tgz:61414.got - 2010.06.03 16:22:01.
