data_PCOD9517765
_publ_section_title
;
Structure prediction by ZEFSAII (Michael W. Deem and Ramdas Pophale) SiO2 
 PCOD9517765
Probable space group: I M M M
;
_chemical_formula_sum "Si O2"
_cell_formula_units_Z 120
_cell_length_a 28.873867
_cell_length_b 10.130226
_cell_length_c 27.521996
_cell_angle_alpha 90.000000
_cell_angle_beta 90.000000
_cell_angle_gamma 90.000000
_cell_volume 8050.150754
_symmetry_space_group_name_H-M "I M M M"
_symmetry_group_IT_number 71
_symmetry_cell_setting 'orthorhombic'
loop_
_space_group_symop_operation_xyz
x,y,z
-x,-y,z
x,-y,-z
-x,y,-z
-x,-y,-z
x,y,-z
-x,y,z
x,-y,z
1/2+x,1/2+y,1/2+z
1/2-x,1/2-y,1/2+z
1/2+x,1/2-y,1/2-z
1/2-x,1/2+y,1/2-z
1/2-x,1/2-y,1/2-z
1/2+x,1/2+y,1/2-z
1/2-x,1/2+y,1/2+z
1/2+x,1/2-y,1/2+z
loop_
_atom_site_type_symbol
_atom_site_label
_atom_site_fract_x
_atom_site_fract_y
_atom_site_fract_z
Si Si1 0.552688 0.646469 0.322574
Si Si2 0.052505 0.657778 0.732499
Si Si3 0.118788 0.281439 0.108562
Si Si4 0.646975 0.156769 0.802862
Si Si5 0.795753 0.157568 0.054635
Si Si6 0.812978 0.649348 0.195160
Si Si7 0.739291 0.159117 0.149310
Si Si8 0.444885 0.000000 0.558669
O O1 0.500000 0.656087 0.341258
O O2 0.558606 0.500000 0.301049
O O3 0.557739 0.758941 0.281888
O O4 0.589182 0.668565 0.365045
O O5 0.057846 0.500000 0.742477
O O6 0.093781 0.702107 0.696856
O O7 0.000000 0.678160 0.714649
O O8 0.157204 0.227646 0.071676
O O9 0.148334 0.345570 0.152753
O O10 0.082388 0.376933 0.082308
O O11 0.664696 0.176387 0.747602
O O12 0.687313 0.205104 0.838397
O O13 0.644976 0.000000 0.811502
O O14 0.756302 0.185223 0.094535
O O15 0.803463 0.000000 0.055721
O O16 0.783234 0.196566 0.000000
O O17 0.793601 0.500000 0.196386
O O18 0.774878 0.759200 0.182680
O O19 0.743080 0.000000 0.158076
O O20 0.500000 0.000000 0.570363
O O21 0.440507 0.000000 0.500000
#
# Coordination Sequence:
#
# PCOD9517765 Si02
#       8
#    16  16  16  16  16  16  16   8
#     4  10  20  31  44  65  90 115 148 187 223 263
#     4   9  17  29  46  65  90 123 153 178 211 255
#     4  11  19  32  48  63  83 113 146 184 232 267
#     4   9  16  28  43  65  92 116 143 176 213 257
#     4   9  18  32  49  66  82 106 144 185 225 270
#     4  10  18  29  44  64  89 112 142 178 213 266
#     4   9  18  30  46  64  88 115 141 177 220 263
#     4  11  24  36  46  64  86 112 154 200 236 270
#
# _framework density 14.906553000000001
#
# number of rings (size 3 to 8) (size 9 to 14) (size 15 to 20)
#    0.000    2.333    2.000    1.600    0.933    0.533 
#    0.000    0.667    0.000    0.000    0.000    5.600 
#    0.000    0.533    0.000    7.467    0.000    0.000 
#
# Total GULP energy -334025.040396 kJ/mol
# GULP energy per Si atom -5567.084007 kJ/mol
# Density = 1.487263 g / cm^3
# Si number density = 14.906553 Si / 1000 Ang^3
#
#
#
# Elastic Constant Matrix: (Units=GPa)
#
#
# Indices 1 2 3 4 5 6 
#
# 1 119.7514 35.5213 47.4144 0.0000 0.0000 0.0000
# 2 35.5213 39.1550 18.4490 0.0000 0.0000 0.0000
# 3 47.4144 18.4490 49.6148 0.0000 0.0000 0.0000
# 4 0.0000 0.0000 0.0000 10.9503 0.0000 0.0000
# 5 0.0000 0.0000 0.0000 0.0000 20.7304 0.0000
# 6 0.0000 0.0000 0.0000 0.0000 0.0000 11.6447
#
#
#
# Elastic Compliance Matrix: (Units=1/GPa)
#
#
# Indices 1 2 3 4 5 6 
#
# 1 0.015497 -0.008585 -0.011617 0.000000 0.000000 0.000000
# 2 -0.008585 0.035721 -0.005078 0.000000 0.000000 0.000000
# 3 -0.011617 -0.005078 0.033146 0.000000 0.000000 0.000000
# 4 0.000000 0.000000 0.000000 0.091322 0.000000 0.000000
# 5 0.000000 0.000000 0.000000 0.000000 0.048238 0.000000
# 6 0.000000 0.000000 0.000000 0.000000 0.000000 0.085876
#
#
# Mechanical properties :
#
#
# Convention : Reuss Voigt Hill
#
# Bulk Modulus (GPa) = 29.58400 45.69896 37.64148
# Shear Modulus (GPa) = 13.45431 15.80751 14.63091
#
# Velocity S-wave (km/s) = 3.00755 3.25997 3.13630
# Velocity P-wave (km/s) = 5.65242 6.70025 6.19852
#
# Compressibility (1/GPa) = 0.03380206
#
# Stress axis : x y z
#
# Youngs Moduli (GPa) = 64.52887 27.99509 30.16973
#
# Poissons Ratio (x) = 0.24034 0.35049
# Poissons Ratio (y) = 0.55398 0.15321
# Poissons Ratio (z) = 0.74966 0.14217
#
# Static dielectric constant tensor:
#      x y z
#    x 1.521610 0.000000 0.000000 
#    y 0.000000 1.511220 0.000000 
#    z 0.000000 0.000000 1.476160 
# 
# From -- ./inp_files/67226.got.cif
#   From: 2010.05.17/outbox.cif.g08.bks.cpg/sg71_34_cif.got.tgz:67226.got - 2010.06.03 16:22:01.
