data_PCOD9517671
_publ_section_title
;
Structure prediction by ZEFSAII (Michael W. Deem and Ramdas Pophale) SiO2 
 PCOD9517671
Probable space group: I M M M
;
_chemical_formula_sum "Si O2"
_cell_formula_units_Z 80
_cell_length_a 7.346386
_cell_length_b 26.309561
_cell_length_c 21.088582
_cell_angle_alpha 90.000000
_cell_angle_beta 90.000000
_cell_angle_gamma 90.000000
_cell_volume 4076.005148
_symmetry_space_group_name_H-M "I M M M"
_symmetry_group_IT_number 71
_symmetry_cell_setting 'orthorhombic'
loop_
_space_group_symop_operation_xyz
x,y,z
-x,-y,z
x,-y,-z
-x,y,-z
-x,-y,-z
x,y,-z
-x,y,z
x,-y,z
1/2+x,1/2+y,1/2+z
1/2-x,1/2-y,1/2+z
1/2+x,1/2-y,1/2-z
1/2-x,1/2+y,1/2-z
1/2-x,1/2-y,1/2-z
1/2+x,1/2+y,1/2-z
1/2-x,1/2+y,1/2+z
1/2+x,1/2-y,1/2+z
loop_
_atom_site_type_symbol
_atom_site_label
_atom_site_fract_x
_atom_site_fract_y
_atom_site_fract_z
Si Si1 0.283033 0.214197 0.310363
Si Si2 0.785049 0.500000 0.243866
Si Si3 0.721309 0.890162 0.252687
Si Si4 0.780961 0.000000 0.104552
Si Si5 0.212022 0.889359 0.102263
Si Si6 0.777575 0.777869 0.930243
O O1 0.500000 0.209362 0.318329
O O2 0.250000 0.250000 0.250000
O O3 0.214450 0.158208 0.292407
O O4 0.213287 0.242459 0.372934
O O5 0.714808 0.445158 0.222383
O O6 0.757540 0.500000 0.320009
O O7 0.000000 0.500000 0.230846
O O8 0.500000 0.890124 0.252283
O O9 0.777062 0.885734 0.178936
O O10 0.712713 0.055283 0.082064
O O11 0.000000 0.000000 0.095911
O O12 0.287016 0.836153 0.077347
O O13 0.000000 0.890401 0.083834
O O14 0.000000 0.779606 0.926370
O O15 0.729081 0.758922 0.000000
#
# Coordination Sequence:
#
# PCOD9517671 Si02
#       6
#    16   8  16   8  16  16
#     4  10  18  28  44  64  83 106 138 172 205 242
#     4   8  14  24  36  55  82 105 126 159 202 244
#     4   9  16  25  40  61  82 104 132 166 204 242
#     4   8  14  22  35  56  78 101 133 168 198 228
#     4   9  15  25  40  57  79 107 136 167 200 234
#     4   9  17  28  41  58  82 111 139 167 203 246
#
# _framework density 19.62706
#
# number of rings (size 3 to 8) (size 9 to 14) (size 15 to 20)
#    0.000    3.000    2.000    0.000    0.000    0.000 
#    0.000    0.500    0.000    5.400    0.000    0.700 
#    0.000   13.600    0.000    0.000    0.000   38.000 
#
# Total GULP energy -222972.429592 kJ/mol
# GULP energy per Si atom -5574.310740 kJ/mol
# Density = 1.958239 g / cm^3
# Si number density = 19.627060 Si / 1000 Ang^3
#
#
#
# Elastic Constant Matrix: (Units=GPa)
#
#
# Indices 1 2 3 4 5 6 
#
# 1 79.6841 2.7443 -2.0634 0.0000 0.0000 0.0000
# 2 2.7443 189.2445 78.3786 0.0000 0.0000 0.0000
# 3 -2.0634 78.3786 109.9615 0.0000 0.0000 0.0000
# 4 0.0000 0.0000 0.0000 11.7364 0.0000 0.0000
# 5 0.0000 0.0000 0.0000 0.0000 9.5341 0.0000
# 6 0.0000 0.0000 0.0000 0.0000 0.0000 1.7553
#
#
#
# Elastic Compliance Matrix: (Units=1/GPa)
#
#
# Indices 1 2 3 4 5 6 
#
# 1 0.012577 -0.000397 0.000519 0.000000 0.000000 0.000000
# 2 -0.000397 0.007510 -0.005361 0.000000 0.000000 0.000000
# 3 0.000519 -0.005361 0.012925 0.000000 0.000000 0.000000
# 4 0.000000 0.000000 0.000000 0.085205 0.000000 0.000000
# 5 0.000000 0.000000 0.000000 0.000000 0.104887 0.000000
# 6 0.000000 0.000000 0.000000 0.000000 0.000000 0.569687
#
#
# Mechanical properties :
#
#
# Convention : Reuss Voigt Hill
#
# Bulk Modulus (GPa) = 44.37708 59.66767 52.02237
# Shear Modulus (GPa) = 6.16691 24.59387 15.38039
#
# Velocity S-wave (km/s) = 1.77450 3.54370 2.80238
# Velocity P-wave (km/s) = 5.18244 6.87099 6.08556
#
# Compressibility (1/GPa) = 0.02253416
#
# Stress axis : x y z
#
# Youngs Moduli (GPa) = 79.51215 133.15448 77.37113
#
# Poissons Ratio (x) = 0.05292 -0.04018
# Poissons Ratio (y) = 0.03160 0.41475
# Poissons Ratio (z) = -0.04129 0.71378
#
# Static dielectric constant tensor:
#      x y z
#    x 1.742900 0.000000 0.000000 
#    y 0.000000 1.744250 0.000000 
#    z 0.000000 0.000000 1.643770 
# 
# From -- ./inp_files/10754.got.cif
#   From: 2010.05.17/outbox.cif.g08.bks.cpg/sg71_6_cif.got.tgz:10754.got - 2010.06.03 16:22:01.
