data_PCOD9517690
_publ_section_title
;
Structure prediction by ZEFSAII (Michael W. Deem and Ramdas Pophale) SiO2 
 PCOD9517690
Probable space group: I M M M
;
_chemical_formula_sum "Si O2"
_cell_formula_units_Z 96
_cell_length_a 7.354418
_cell_length_b 24.712246
_cell_length_c 25.077443
_cell_angle_alpha 90.000000
_cell_angle_beta 90.000000
_cell_angle_gamma 90.000000
_cell_volume 4557.679485
_symmetry_space_group_name_H-M "I M M M"
_symmetry_group_IT_number 71
_symmetry_cell_setting 'orthorhombic'
loop_
_space_group_symop_operation_xyz
x,y,z
-x,-y,z
x,-y,-z
-x,y,-z
-x,-y,-z
x,y,-z
-x,y,z
x,-y,z
1/2+x,1/2+y,1/2+z
1/2-x,1/2-y,1/2+z
1/2+x,1/2-y,1/2-z
1/2-x,1/2+y,1/2-z
1/2-x,1/2-y,1/2-z
1/2+x,1/2+y,1/2-z
1/2-x,1/2+y,1/2+z
1/2+x,1/2-y,1/2+z
loop_
_atom_site_type_symbol
_atom_site_label
_atom_site_fract_x
_atom_site_fract_y
_atom_site_fract_z
Si Si1 0.714144 0.725339 0.060171
Si Si2 0.202834 0.145219 0.647469
Si Si3 0.221302 0.060504 0.855307
Si Si4 0.721902 0.561247 0.768246
Si Si5 0.719337 0.351910 0.559806
Si Si6 0.280828 0.937186 0.440983
O O1 0.500000 0.711619 0.058482
O O2 0.789569 0.692555 0.111128
O O3 0.731140 0.789425 0.068987
O O4 0.787540 0.713862 0.000000
O O5 0.286789 0.112442 0.697088
O O6 0.192468 0.097497 0.604250
O O7 0.000000 0.163604 0.663979
O O8 0.273995 0.067637 0.793576
O O9 0.284795 0.107017 0.895095
O O10 0.000000 0.061444 0.855579
O O11 0.276189 0.000000 0.872255
O O12 0.500000 0.561611 0.771422
O O13 0.777806 0.500000 0.785820
O O14 0.780974 0.366597 0.500000
O O15 0.500000 0.354252 0.559810
O O16 0.228852 0.918268 0.500000
O O17 0.500000 0.932784 0.436650
O O18 0.234262 0.000000 0.436409
#
# Coordination Sequence:
#
# PCOD9517690 Si02
#       6
#    16  16  16  16  16  16
#     4   9  18  31  44  60  87 120 148 180 225 264
#     4  10  18  28  45  66  84 110 155 196 217 248
#     4   8  14  26  45  69  95 117 137 171 222 271
#     4   8  14  25  42  65  91 116 142 178 226 269
#     4   9  17  29  47  70  91 113 145 181 215 259
#     4   9  18  30  41  57  85 117 145 180 232 281
#
# _framework density 21.06335
#
# number of rings (size 3 to 8) (size 9 to 14) (size 15 to 20)
#    0.000    3.167    0.000    2.500    0.000    3.000 
#    0.000    5.000    0.000    1.500    0.000    4.667 
#    0.000    0.000    0.000    0.000    0.000    0.000 
#
# Total GULP energy -267610.859906 kJ/mol
# GULP energy per Si atom -5575.226248 kJ/mol
# Density = 2.101541 g / cm^3
# Si number density = 21.063350 Si / 1000 Ang^3
#
#
#
# Elastic Constant Matrix: (Units=GPa)
#
#
# Indices 1 2 3 4 5 6 
#
# 1 75.7776 0.5679 3.1986 0.0000 0.0000 0.0000
# 2 0.5679 133.0574 95.8800 0.0000 0.0000 0.0000
# 3 3.1986 95.8800 120.0481 0.0000 0.0000 0.0000
# 4 0.0000 0.0000 0.0000 47.6856 0.0000 0.0000
# 5 0.0000 0.0000 0.0000 0.0000 -69.1201 0.0000
# 6 0.0000 0.0000 0.0000 0.0000 0.0000 13.7768
#
#
#
# Elastic Compliance Matrix: (Units=1/GPa)
#
#
# Indices 1 2 3 4 5 6 
#
# 1 0.013224 0.000465 -0.000724 0.000000 0.000000 0.000000
# 2 0.000465 0.017722 -0.014166 0.000000 0.000000 0.000000
# 3 -0.000724 -0.014166 0.019664 0.000000 0.000000 0.000000
# 4 0.000000 0.000000 0.000000 0.020971 0.000000 0.000000
# 5 0.000000 0.000000 0.000000 0.000000 -0.014468 0.000000
# 6 0.000000 0.000000 0.000000 0.000000 0.000000 0.072586
#
#
# Mechanical properties :
#
#
# Convention : Reuss Voigt Hill
#
# Bulk Modulus (GPa) = 45.95828 58.68623 52.32225
# Shear Modulus (GPa) = 30.15659 13.75089 21.95374
#
# Velocity S-wave (km/s) = 3.78790 2.55784 3.23193
# Velocity P-wave (km/s) = 6.40292 6.05356 6.23069
#
# Compressibility (1/GPa) = 0.02175886
#
# Stress axis : x y z
#
# Youngs Moduli (GPa) = 75.62245 56.42773 50.85507
#
# Poissons Ratio (x) = -0.02625 0.03681
# Poissons Ratio (y) = -0.03518 0.72043
# Poissons Ratio (z) = 0.05474 0.79938
#
# Static dielectric constant tensor:
#      x y z
#    x 1.875420 0.000000 0.000000 
#    y 0.000000 1.739080 0.000000 
#    z 0.000000 0.000000 1.761520 
# 
# From -- ./inp_files/12806.got.cif
#   From: 2010.05.17/outbox.cif.g08.bks.cpg/sg71_7_cif.got.tgz:12806.got - 2010.06.03 16:22:01.
