data_PCOD9517944
_publ_section_title
;
Structure prediction by ZEFSAII (Michael W. Deem and Ramdas Pophale) SiO2 
 PCOD9517944
Probable space group: I M M M
;
_chemical_formula_sum "Si O2"
_cell_formula_units_Z 72
_cell_length_a 27.337322
_cell_length_b 7.757012
_cell_length_c 14.386920
_cell_angle_alpha 90.000000
_cell_angle_beta 90.000000
_cell_angle_gamma 90.000000
_cell_volume 3050.831770
_symmetry_space_group_name_H-M "I M M M"
_symmetry_group_IT_number 71
_symmetry_cell_setting 'orthorhombic'
loop_
_space_group_symop_operation_xyz
x,y,z
-x,-y,z
x,-y,-z
-x,y,-z
-x,-y,-z
x,y,-z
-x,y,z
x,-y,z
1/2+x,1/2+y,1/2+z
1/2-x,1/2-y,1/2+z
1/2+x,1/2-y,1/2-z
1/2-x,1/2+y,1/2-z
1/2-x,1/2-y,1/2-z
1/2+x,1/2+y,1/2-z
1/2-x,1/2+y,1/2+z
1/2+x,1/2-y,1/2+z
loop_
_atom_site_type_symbol
_atom_site_label
_atom_site_fract_x
_atom_site_fract_y
_atom_site_fract_z
Si Si1 0.056927 0.306676 0.804703
Si Si2 0.127105 0.000000 0.121800
Si Si3 0.916536 0.200702 0.397996
Si Si4 0.807565 0.699636 0.358299
Si Si5 0.199541 0.692134 0.866763
O O1 0.072965 0.500000 0.832348
O O2 0.063173 0.293401 0.692818
O O3 0.000000 0.287569 0.828146
O O4 0.087901 0.152915 0.848597
O O5 0.167422 0.151071 0.099390
O O6 0.931029 0.266919 0.500000
O O7 0.857454 0.212072 0.390234
O O8 0.930721 0.000000 0.391851
O O9 0.809227 0.500000 0.386286
O O10 0.806244 0.705212 0.245858
O O11 0.756773 0.782498 0.389024
O O12 0.184830 0.500000 0.894187
#
# Coordination Sequence:
#
# PCOD9517944 Si02
#       5
#    16   8  16  16  16
#     4  11  23  37  53  70  94 129 171 218 263 300
#     4  12  19  34  51  75  93 124 155 214 258 307
#     4  11  22  35  51  69  95 130 172 221 261 295
#     4  10  18  30  45  70  96 120 155 201 251 301
#     4  10  19  29  49  72  96 120 149 199 252 309
#
# _framework density 23.600121000000001
#
# number of rings (size 3 to 8) (size 9 to 14) (size 15 to 20)
#    0.000    1.333    4.444    2.333    1.556    2.222 
#    0.000    2.222    0.000    0.000    0.000    0.000 
#    0.000    0.000    0.000    0.000    0.000    8.889 
#
# Total GULP energy -200418.240844 kJ/mol
# GULP energy per Si atom -5567.173357 kJ/mol
# Density = 2.354641 g / cm^3
# Si number density = 23.600121 Si / 1000 Ang^3
#
#
#
# Elastic Constant Matrix: (Units=GPa)
#
#
# Indices 1 2 3 4 5 6 
#
# 1 95.1727 63.8446 14.1663 0.0000 0.0000 0.0000
# 2 63.8446 235.4200 22.6653 0.0000 0.0000 0.0000
# 3 14.1663 22.6653 57.4734 0.0000 0.0000 0.0000
# 4 0.0000 0.0000 0.0000 -42.5979 0.0000 0.0000
# 5 0.0000 0.0000 0.0000 0.0000 -29.7277 0.0000
# 6 0.0000 0.0000 0.0000 0.0000 0.0000 45.0571
#
#
#
# Elastic Compliance Matrix: (Units=1/GPa)
#
#
# Indices 1 2 3 4 5 6 
#
# 1 0.013039 -0.003354 -0.001891 0.000000 0.000000 0.000000
# 2 -0.003354 0.005278 -0.001255 0.000000 0.000000 0.000000
# 3 -0.001891 -0.001255 0.018360 0.000000 0.000000 0.000000
# 4 0.000000 0.000000 0.000000 -0.023475 0.000000 0.000000
# 5 0.000000 0.000000 0.000000 0.000000 -0.033639 0.000000
# 6 0.000000 0.000000 0.000000 0.000000 0.000000 0.022194
#
#
# Mechanical properties :
#
#
# Convention : Reuss Voigt Hill
#
# Bulk Modulus (GPa) = 42.23451 65.49093 53.86272
# Shear Modulus (GPa) = 220.75810 13.70565 117.23187
#
# Velocity S-wave (km/s) = 9.68216 2.41248 7.05564
# Velocity P-wave (km/s) = 11.95521 5.96411 9.44716
#
# Compressibility (1/GPa) = 0.02367732
#
# Stress axis : x y z
#
# Youngs Moduli (GPa) = 76.69524 189.46211 54.46521
#
# Poissons Ratio (x) = 0.63544 0.10300
# Poissons Ratio (y) = 0.25723 0.06834
# Poissons Ratio (z) = 0.14504 0.23774
#
# Static dielectric constant tensor:
#      x y z
#    x 1.848890 0.000000 0.000000 
#    y 0.000000 1.828430 0.000000 
#    z 0.000000 0.000000 1.921530 
# 
# From -- ./inp_files/42171.got.cif
#   From: 2010.05.17/outbox.cif.g08.bks.cpg/sg71_22_cif.got.tgz:42171.got - 2010.06.03 16:22:01.
