data_PCOD9517016
_publ_section_title
;
Structure prediction by ZEFSAII (Michael W. Deem and Ramdas Pophale) SiO2 
 PCOD9517016
Probable space group: F D D D
;
_chemical_formula_sum "Si O2"
_cell_formula_units_Z 160
_cell_length_a 28.930478
_cell_length_b 9.072704
_cell_length_c 29.554763
_cell_angle_alpha 90.000000
_cell_angle_beta 90.000000
_cell_angle_gamma 90.000000
_cell_volume 7757.465137
_symmetry_space_group_name_H-M "F D D D"
_symmetry_group_IT_number 70
_space_group.IT_coordinate_system_code '2'
_symmetry_cell_setting 'orthorhombic'
loop_
_space_group_symop_operation_xyz
x,y,z
1/4-x,1/4-y,z
x,1/4-y,1/4-z
1/4-x,y,1/4-z
-x,-y,-z
3/4+x,3/4+y,-z
-x,3/4+y,3/4+z
3/4+x,-y,3/4+z
x,1/2+y,1/2+z
1/4-x,3/4-y,1/2+z
x,3/4-y,3/4-z
1/4-x,1/2+y,3/4-z
-x,1/2-y,1/2-z
3/4+x,1/4+y,1/2-z
-x,1/4+y,1/4+z
3/4+x,1/2-y,1/4+z
1/2+x,y,1/2+z
3/4-x,1/4-y,1/2+z
1/2+x,1/4-y,3/4-z
3/4-x,y,3/4-z
1/2-x,-y,1/2-z
1/4+x,3/4+y,1/2-z
1/2-x,3/4+y,1/4+z
1/4+x,-y,1/4+z
1/2+x,1/2+y,z
3/4-x,3/4-y,z
1/2+x,3/4-y,1/4-z
3/4-x,1/2+y,1/4-z
1/2-x,1/2-y,-z
1/4+x,1/4+y,-z
1/2-x,1/4+y,3/4+z
1/4+x,1/2-y,3/4+z
loop_
_atom_site_type_symbol
_atom_site_label
_atom_site_fract_x
_atom_site_fract_y
_atom_site_fract_z
Si Si1 0.862514 0.650517 0.233429
Si Si2 0.625000 0.625000 0.919218
Si Si3 0.488929 0.375000 0.875000
Si Si4 0.191344 0.646358 0.337107
Si Si5 0.975535 0.591155 0.459427
Si Si6 0.717165 0.392572 0.778084
O O1 0.863283 0.510224 0.200744
O O2 0.841347 0.777861 0.200911
O O3 0.825900 0.633969 0.273612
O O4 0.916830 0.647939 0.246867
O O5 0.667063 0.621499 0.884692
O O6 0.518531 0.485992 0.844151
O O7 0.470039 0.490601 0.913858
O O8 0.206921 0.485960 0.322603
O O9 0.000000 0.500000 0.500000
O O10 0.007860 0.739086 0.459465
O O11 0.750000 0.500000 0.750000
#
# Coordination Sequence:
#
# PCOD9517016 Si02
#       6
#    32  16  16  32  32  32
#     4  12  23  41  69 106 149 188 239 304 384 446
#     4  12  22  38  72 111 140 180 233 316 386 434
#     4  12  24  44  70 103 150 190 244 303 382 460
#     4  12  22  39  68 110 143 180 238 313 380 447
#     4  12  25  46  69 104 148 194 245 307 372 463
#     4  12  25  42  70 106 146 191 243 307 386 453
#
# _framework density 20.625292999999999
#
# number of rings (size 3 to 8) (size 9 to 14) (size 15 to 20)
#    0.000    0.000    8.000    2.400    0.000    2.400 
#    0.000    0.000    0.000   17.400    0.000   14.000 
#    0.000    0.000    0.000    0.000    0.000    0.000 
#
# Total GULP energy -222887.881180 kJ/mol
# GULP energy per Si atom -5572.197030 kJ/mol
# Density = 2.057835 g / cm^3
# Si number density = 20.625293 Si / 1000 Ang^3
#
#
#
# Elastic Constant Matrix: (Units=GPa)
#
#
# Indices 1 2 3 4 5 6 
#
# 1 159.1909 61.7704 61.4955 0.0000 0.0000 0.0000
# 2 61.7704 165.1376 55.6983 0.0000 0.0000 0.0001
# 3 61.4955 55.6983 79.5485 0.0000 0.0000 0.0000
# 4 0.0000 0.0000 0.0000 -6.6546 0.0000 0.0000
# 5 0.0000 0.0000 0.0000 0.0000 59.2176 0.0000
# 6 0.0000 0.0001 0.0000 0.0000 0.0000 27.9631
#
#
#
# Elastic Compliance Matrix: (Units=1/GPa)
#
#
# Indices 1 2 3 4 5 6 
#
# 1 0.009185 -0.001363 -0.006146 0.000000 0.000000 0.000000
# 2 -0.001363 0.008130 -0.004639 0.000000 0.000000 0.000000
# 3 -0.006146 -0.004639 0.020571 0.000000 0.000000 0.000000
# 4 0.000000 0.000000 0.000000 -0.150273 0.000000 0.000000
# 5 0.000000 0.000000 0.000000 0.000000 0.016887 0.000000
# 6 0.000000 0.000000 0.000000 0.000000 0.000000 0.035761
#
#
# Mechanical properties :
#
#
# Convention : Reuss Voigt Hill
#
# Bulk Modulus (GPa) = 73.58685 84.64504 79.11594
# Shear Modulus (GPa) = -161.74342 31.09941 -65.32201
#
# Velocity S-wave (km/s) = -8.86511 3.88729 -5.63379
# Velocity P-wave (km/s) = 8.30852 7.82793 1.96913
#
# Compressibility (1/GPa) = 0.01358938
#
# Stress axis : x y z
#
# Youngs Moduli (GPa) = 108.87536 123.00263 48.61305
#
# Poissons Ratio (x) = 0.16760 0.29879
# Poissons Ratio (y) = 0.14835 0.22552
# Poissons Ratio (z) = 0.66919 0.57062
#
# Static dielectric constant tensor:
#      x y z
#    x 2.226530 0.000000 0.000000 
#    y 0.000000 1.823450 0.000000 
#    z 0.000000 0.000000 1.738950 
# 
# From -- ./inp_files/12348.got.cif
#   From: 2010.05.17/outbox.cif.g08.bks.cpg/sg70_7_cif.got.tgz:12348.got - 2010.06.03 15:57:51.
