data_PCOD9517136
_publ_section_title
;
Structure prediction by ZEFSAII (Michael W. Deem and Ramdas Pophale) SiO2 
 PCOD9517136
Probable space group: F D D D
;
_chemical_formula_sum "Si O2"
_cell_formula_units_Z 120
_cell_length_a 11.013169
_cell_length_b 30.735722
_cell_length_c 14.775460
_cell_angle_alpha 90.000000
_cell_angle_beta 90.000000
_cell_angle_gamma 90.000000
_cell_volume 5001.459237
_symmetry_space_group_name_H-M "F D D D"
_symmetry_group_IT_number 70
_space_group.IT_coordinate_system_code '2'
_symmetry_cell_setting 'orthorhombic'
loop_
_space_group_symop_operation_xyz
x,y,z
1/4-x,1/4-y,z
x,1/4-y,1/4-z
1/4-x,y,1/4-z
-x,-y,-z
3/4+x,3/4+y,-z
-x,3/4+y,3/4+z
3/4+x,-y,3/4+z
x,1/2+y,1/2+z
1/4-x,3/4-y,1/2+z
x,3/4-y,3/4-z
1/4-x,1/2+y,3/4-z
-x,1/2-y,1/2-z
3/4+x,1/4+y,1/2-z
-x,1/4+y,1/4+z
3/4+x,1/2-y,1/4+z
1/2+x,y,1/2+z
3/4-x,1/4-y,1/2+z
1/2+x,1/4-y,3/4-z
3/4-x,y,3/4-z
1/2-x,-y,1/2-z
1/4+x,3/4+y,1/2-z
1/2-x,3/4+y,1/4+z
1/4+x,-y,1/4+z
1/2+x,1/2+y,z
3/4-x,3/4-y,z
1/2+x,3/4-y,1/4-z
3/4-x,1/2+y,1/4-z
1/2-x,1/2-y,-z
1/4+x,1/4+y,-z
1/2-x,1/4+y,3/4+z
1/4+x,1/2-y,3/4+z
loop_
_atom_site_type_symbol
_atom_site_label
_atom_site_fract_x
_atom_site_fract_y
_atom_site_fract_z
Si Si1 0.125000 0.975794 0.125000
Si Si2 0.771676 0.968349 0.017275
Si Si3 0.870647 0.325485 0.670686
Si Si4 0.125000 0.625000 0.125000
Si Si5 0.976480 0.206280 0.663738
O O1 0.127343 0.009220 0.208915
O O2 0.240958 0.945525 0.102864
O O3 0.749408 0.004321 0.095320
O O4 0.807725 0.926401 0.075648
O O5 0.660849 0.958553 0.950250
O O6 0.875000 0.375000 0.707695
O O7 0.943935 0.297334 0.744414
O O8 0.231234 0.586875 0.111134
#
# Coordination Sequence:
#
# PCOD9517136 Si02
#       5
#    16  32  32   8  32
#     4  12  28  50  74 112 156 202 252 314 384 462
#     4  12  28  52  81 108 154 208 257 313 385 475
#     4  12  28  48  77 115 152 199 256 323 385 450
#     4  12  28  44  74 122 148 190 256 338 362 456
#     4  12  28  49  80 111 149 203 262 313 383 452
#
# _framework density 23.992999000000001
#
# number of rings (size 3 to 8) (size 9 to 14) (size 15 to 20)
#    0.000    0.000    4.000    4.000   11.200    0.000 
#    0.000    0.000    0.000    0.000    0.000    0.000 
#    0.000    0.000    0.000    0.000    0.000    0.000 
#
# Total GULP energy -167324.096867 kJ/mol
# GULP energy per Si atom -5577.469896 kJ/mol
# Density = 2.393839 g / cm^3
# Si number density = 23.992999 Si / 1000 Ang^3
#
#
#
# Elastic Constant Matrix: (Units=GPa)
#
#
# Indices 1 2 3 4 5 6 
#
# 1 139.0284 11.3572 51.1250 0.0000 0.0000 0.0000
# 2 11.3572 102.2239 31.9281 0.0000 0.0000 0.0000
# 3 51.1250 31.9281 124.8463 0.0000 0.0000 0.0000
# 4 0.0000 0.0000 0.0000 56.9143 0.0000 0.0000
# 5 0.0000 0.0000 0.0000 0.0000 66.2902 0.0000
# 6 0.0000 0.0000 0.0000 0.0000 0.0000 39.0220
#
#
#
# Elastic Compliance Matrix: (Units=1/GPa)
#
#
# Indices 1 2 3 4 5 6 
#
# 1 0.008470 0.000155 -0.003508 0.000000 0.000000 0.000000
# 2 0.000155 0.010634 -0.002783 0.000000 0.000000 0.000000
# 3 -0.003508 -0.002783 0.010158 0.000000 0.000000 0.000000
# 4 0.000000 0.000000 0.000000 0.017570 0.000000 0.000000
# 5 0.000000 0.000000 0.000000 0.000000 0.015085 0.000000
# 6 0.000000 0.000000 0.000000 0.000000 0.000000 0.025627
#
#
# Mechanical properties :
#
#
# Convention : Reuss Voigt Hill
#
# Bulk Modulus (GPa) = 58.85838 61.65768 60.25803
# Shear Modulus (GPa) = 47.40188 50.55786 48.97987
#
# Velocity S-wave (km/s) = 4.44966 4.59540 4.52311
# Velocity P-wave (km/s) = 7.14031 7.34240 7.24206
#
# Compressibility (1/GPa) = 0.01698993
#
# Stress axis : x y z
#
# Youngs Moduli (GPa) = 118.06122 94.03362 98.44310
#
# Poissons Ratio (x) = -0.01454 0.34535
# Poissons Ratio (y) = -0.01826 0.27397
# Poissons Ratio (z) = 0.41417 0.26169
#
# Static dielectric constant tensor:
#      x y z
#    x 1.947090 0.000000 0.000000 
#    y 0.000000 1.913540 0.000000 
#    z 0.000000 0.000000 1.625860 
# 
# From -- ./inp_files/50233.got.cif
#   From: 2010.05.17/outbox.cif.g08.bks.cpg/sg70_26_cif.got.tgz:50233.got - 2010.06.03 15:57:51.
