data_PCOD9517981
_publ_section_title
;
Structure prediction by ZEFSAII (Michael W. Deem and Ramdas Pophale) SiO2 
 PCOD9517981
Probable space group: I M M M
;
_chemical_formula_sum "Si O2"
_cell_formula_units_Z 96
_cell_length_a 8.501067
_cell_length_b 22.752052
_cell_length_c 28.448441
_cell_angle_alpha 90.000000
_cell_angle_beta 90.000000
_cell_angle_gamma 90.000000
_cell_volume 5502.404103
_symmetry_space_group_name_H-M "I M M M"
_symmetry_group_IT_number 71
_symmetry_cell_setting 'orthorhombic'
loop_
_space_group_symop_operation_xyz
x,y,z
-x,-y,z
x,-y,-z
-x,y,-z
-x,-y,-z
x,y,-z
-x,y,z
x,-y,z
1/2+x,1/2+y,1/2+z
1/2-x,1/2-y,1/2+z
1/2+x,1/2-y,1/2-z
1/2-x,1/2+y,1/2-z
1/2-x,1/2-y,1/2-z
1/2+x,1/2+y,1/2-z
1/2-x,1/2+y,1/2+z
1/2+x,1/2-y,1/2+z
loop_
_atom_site_type_symbol
_atom_site_label
_atom_site_fract_x
_atom_site_fract_y
_atom_site_fract_z
Si Si1 0.810723 0.742568 0.446965
Si Si2 0.689718 0.194975 0.642219
Si Si3 0.186575 0.000000 0.226628
Si Si4 0.310576 0.500000 0.617409
Si Si5 0.186720 0.812979 0.196653
Si Si6 0.811178 0.375932 0.607125
Si Si7 0.814197 0.385559 0.778607
O O1 0.753206 0.751555 0.500000
O O2 0.751379 0.790259 0.409427
O O3 0.767681 0.677319 0.427987
O O4 0.000000 0.744727 0.447186
O O5 0.500000 0.194557 0.640718
O O6 0.736579 0.251197 0.674087
O O7 0.742248 0.136923 0.670298
O O8 0.245959 0.000000 0.172481
O O9 0.237961 0.942678 0.255603
O O10 0.000000 0.000000 0.223009
O O11 0.500000 0.500000 0.616606
O O12 0.245333 0.559259 0.593925
O O13 0.226586 0.860119 0.156167
O O14 0.279199 0.832420 0.242592
O O15 0.000000 0.812463 0.205905
O O16 0.000000 0.375068 0.613361
O O17 0.000000 0.395627 0.781160
#
# Coordination Sequence:
#
# PCOD9517981 Si02
#       7
#    16  16   8   8  16  16  16
#     4   9  19  36  56  78 101 126 162 209 258 305
#     4   9  20  34  50  75 103 131 164 203 250 300
#     4  11  23  35  49  70 100 141 177 210 245 287
#     4  11  21  33  48  68  98 134 176 216 248 293
#     4  10  18  30  47  70 102 134 165 203 245 292
#     4  10  19  31  50  72  96 131 172 210 251 296
#     4  11  21  33  49  72 102 135 171 206 241 292
#
# _framework density 17.446919000000001
#
# number of rings (size 3 to 8) (size 9 to 14) (size 15 to 20)
#    0.000    2.000    1.667    2.500    0.000    3.667 
#    0.000    0.417    0.000    2.500    0.000    0.583 
#    0.000    4.667    0.000    0.000    0.000    0.000 
#
# Total GULP energy -267786.729342 kJ/mol
# GULP energy per Si atom -5578.890195 kJ/mol
# Density = 1.740721 g / cm^3
# Si number density = 17.446919 Si / 1000 Ang^3
#
#
#
# Elastic Constant Matrix: (Units=GPa)
#
#
# Indices 1 2 3 4 5 6 
#
# 1 17.2410 9.8190 6.2228 0.0000 0.0000 0.0000
# 2 9.8190 30.9223 27.7750 0.0000 0.0000 0.0000
# 3 6.2228 27.7750 102.5524 0.0000 0.0000 0.0000
# 4 0.0000 0.0000 0.0000 13.2314 0.0000 0.0000
# 5 0.0000 0.0000 0.0000 0.0000 21.0842 0.0000
# 6 0.0000 0.0000 0.0000 0.0000 0.0000 21.9197
#
#
#
# Elastic Compliance Matrix: (Units=1/GPa)
#
#
# Indices 1 2 3 4 5 6 
#
# 1 0.071244 -0.024764 0.002384 0.000000 0.000000 0.000000
# 2 -0.024764 0.051343 -0.012403 0.000000 0.000000 0.000000
# 3 0.002384 -0.012403 0.012966 0.000000 0.000000 0.000000
# 4 0.000000 0.000000 0.000000 0.075578 0.000000 0.000000
# 5 0.000000 0.000000 0.000000 0.000000 0.047429 0.000000
# 6 0.000000 0.000000 0.000000 0.000000 0.000000 0.045621
#
#
# Mechanical properties :
#
#
# Convention : Reuss Voigt Hill
#
# Bulk Modulus (GPa) = 15.15450 26.48325 20.81887
# Shear Modulus (GPa) = 12.63450 18.37368 15.50409
#
# Velocity S-wave (km/s) = 2.69396 3.24870 2.98425
# Velocity P-wave (km/s) = 4.28736 5.41150 4.88190
#
# Compressibility (1/GPa) = 0.06598699
#
# Stress axis : x y z
#
# Youngs Moduli (GPa) = 14.03624 19.47680 77.12700
#
# Poissons Ratio (x) = 0.48232 -0.18387
# Poissons Ratio (y) = 0.34759 0.95660
# Poissons Ratio (z) = -0.03346 0.24157
#
# Static dielectric constant tensor:
#      x y z
#    x 1.589640 0.000000 0.000000 
#    y 0.000000 1.620940 0.000000 
#    z 0.000000 0.000000 1.609350 
# 
# From -- ./inp_files/12935.got.cif
#   From: 2010.05.17/outbox.cif.g08.bks.cpg/sg71_7_cif.got.tgz:12935.got - 2010.06.03 16:22:01.
