data_PCOD9517091
_publ_section_title
;
Structure prediction by ZEFSAII (Michael W. Deem and Ramdas Pophale) SiO2 
 PCOD9517091
Probable space group: F D D D
;
_chemical_formula_sum "Si O2"
_cell_formula_units_Z 136
_cell_length_a 16.611652
_cell_length_b 24.142686
_cell_length_c 14.144160
_cell_angle_alpha 90.000000
_cell_angle_beta 90.000000
_cell_angle_gamma 90.000000
_cell_volume 5672.513928
_symmetry_space_group_name_H-M "F D D D"
_symmetry_group_IT_number 70
_space_group.IT_coordinate_system_code '2'
_symmetry_cell_setting 'orthorhombic'
loop_
_space_group_symop_operation_xyz
x,y,z
1/4-x,1/4-y,z
x,1/4-y,1/4-z
1/4-x,y,1/4-z
-x,-y,-z
3/4+x,3/4+y,-z
-x,3/4+y,3/4+z
3/4+x,-y,3/4+z
x,1/2+y,1/2+z
1/4-x,3/4-y,1/2+z
x,3/4-y,3/4-z
1/4-x,1/2+y,3/4-z
-x,1/2-y,1/2-z
3/4+x,1/4+y,1/2-z
-x,1/4+y,1/4+z
3/4+x,1/2-y,1/4+z
1/2+x,y,1/2+z
3/4-x,1/4-y,1/2+z
1/2+x,1/4-y,3/4-z
3/4-x,y,3/4-z
1/2-x,-y,1/2-z
1/4+x,3/4+y,1/2-z
1/2-x,3/4+y,1/4+z
1/4+x,-y,1/4+z
1/2+x,1/2+y,z
3/4-x,3/4-y,z
1/2+x,3/4-y,1/4-z
3/4-x,1/2+y,1/4-z
1/2-x,1/2-y,-z
1/4+x,1/4+y,-z
1/2-x,1/4+y,3/4+z
1/4+x,1/2-y,3/4+z
loop_
_atom_site_type_symbol
_atom_site_label
_atom_site_fract_x
_atom_site_fract_y
_atom_site_fract_z
Si Si1 0.875000 0.875000 0.375000
Si Si2 0.625000 0.875387 0.125000
Si Si3 0.435089 0.324359 0.007512
Si Si4 0.738721 0.063250 0.276821
Si Si5 0.070705 0.875000 0.875000
Si Si6 0.083174 0.968141 0.011418
O O1 0.815665 0.908599 0.304086
O O2 0.577120 0.910613 0.048013
O O3 0.562558 0.829010 0.161487
O O4 0.375000 0.375000 0.990386
O O5 0.448568 0.318297 0.119526
O O6 0.399145 0.265670 0.973564
O O7 0.513253 0.342255 0.949100
O O8 0.750000 0.000000 0.250000
O O9 0.112201 0.926986 0.927262
O O10 0.000000 0.000000 0.000000
#
# Coordination Sequence:
#
# PCOD9517091 Si02
#       6
#     8  16  32  32  16  32
#     4  12  30  54  80 116 160 220 264 336 410 492
#     4  12  27  52  73 123 156 209 270 332 402 488
#     4  12  25  48  75 109 154 197 261 326 403 482
#     4  12  29  52  80 111 160 216 273 330 402 496
#     4  12  25  45  74 115 146 197 250 326 412 466
#     4  12  26  43  76 111 152 198 254 332 403 481
#
# _framework density 23.975261
#
# number of rings (size 3 to 8) (size 9 to 14) (size 15 to 20)
#    0.000    0.000    5.882    2.471    6.588    1.882 
#    0.000    0.000    0.000    0.000    0.000    0.000 
#    0.000    0.000    0.000    0.000    0.000    0.000 
#
# Total GULP energy -189949.408914 kJ/mol
# GULP energy per Si atom -5586.747321 kJ/mol
# Density = 2.392069 g / cm^3
# Si number density = 23.975261 Si / 1000 Ang^3
#
#
#
# Elastic Constant Matrix: (Units=GPa)
#
#
# Indices 1 2 3 4 5 6 
#
# 1 100.4190 80.0748 34.1275 0.0000 0.0000 0.0000
# 2 80.0748 249.0346 80.8049 0.0000 0.0000 0.0000
# 3 34.1275 80.8049 145.2409 0.0000 0.0000 0.0000
# 4 0.0000 0.0000 0.0000 53.6171 0.0000 0.0000
# 5 0.0000 0.0000 0.0000 0.0000 43.1564 0.0000
# 6 0.0000 0.0000 0.0000 0.0000 0.0000 41.5770
#
#
#
# Elastic Compliance Matrix: (Units=1/GPa)
#
#
# Indices 1 2 3 4 5 6 
#
# 1 0.013493 -0.004039 -0.000923 0.000000 0.000000 0.000000
# 2 -0.004039 0.006109 -0.002450 0.000000 0.000000 0.000000
# 3 -0.000923 -0.002450 0.008465 0.000000 0.000000 0.000000
# 4 0.000000 0.000000 0.000000 0.018651 0.000000 0.000000
# 5 0.000000 0.000000 0.000000 0.000000 0.023172 0.000000
# 6 0.000000 0.000000 0.000000 0.000000 0.000000 0.024052
#
#
# Mechanical properties :
#
#
# Convention : Reuss Voigt Hill
#
# Bulk Modulus (GPa) = 75.51288 98.30097 86.90693
# Shear Modulus (GPa) = 44.17781 47.64926 45.91353
#
# Velocity S-wave (km/s) = 4.29726 4.46290 4.38086
# Velocity P-wave (km/s) = 7.49576 8.22476 7.86871
#
# Compressibility (1/GPa) = 0.01324277
#
# Stress axis : x y z
#
# Youngs Moduli (GPa) = 74.11424 163.69198 118.13336
#
# Poissons Ratio (x) = 0.66112 0.10908
# Poissons Ratio (y) = 0.29934 0.28940
# Poissons Ratio (z) = 0.06844 0.40101
#
# Static dielectric constant tensor:
#      x y z
#    x 1.993740 0.000000 0.000000 
#    y 0.000000 1.839140 0.000000 
#    z 0.000000 0.000000 2.314660 
# 
# From -- ./inp_files/27344.got.cif
#   From: 2010.05.17/outbox.cif.g08.bks.cpg/sg70_14_cif.got.tgz:27344.got - 2010.06.03 15:57:51.
