data_PCOD9517196
_publ_section_title
;
Structure prediction by ZEFSAII (Michael W. Deem and Ramdas Pophale) SiO2 
 PCOD9517196
Probable space group: F D D D
;
_chemical_formula_sum "Si O2"
_cell_formula_units_Z 34
_cell_length_a 27.000000
_cell_length_b 12.000000
_cell_length_c 21.000000
_cell_angle_alpha 90.000000
_cell_angle_beta 90.000000
_cell_angle_gamma 90.000000
_cell_volume 6804.000000
_symmetry_space_group_name_H-M "F D D D"
_symmetry_group_IT_number 70
_space_group.IT_coordinate_system_code '2'
_symmetry_cell_setting 'orthorhombic'
loop_
_space_group_symop_operation_xyz
x,y,z
1/4-x,1/4-y,z
x,1/4-y,1/4-z
1/4-x,y,1/4-z
-x,-y,-z
3/4+x,3/4+y,-z
-x,3/4+y,3/4+z
3/4+x,-y,3/4+z
x,1/2+y,1/2+z
1/4-x,3/4-y,1/2+z
x,3/4-y,3/4-z
1/4-x,1/2+y,3/4-z
-x,1/2-y,1/2-z
3/4+x,1/4+y,1/2-z
-x,1/4+y,1/4+z
3/4+x,1/2-y,1/4+z
1/2+x,y,1/2+z
3/4-x,1/4-y,1/2+z
1/2+x,1/4-y,3/4-z
3/4-x,y,3/4-z
1/2-x,-y,1/2-z
1/4+x,3/4+y,1/2-z
1/2-x,3/4+y,1/4+z
1/4+x,-y,1/4+z
1/2+x,1/2+y,z
3/4-x,3/4-y,z
1/2+x,3/4-y,1/4-z
3/4-x,1/2+y,1/4-z
1/2-x,1/2-y,-z
1/4+x,1/4+y,-z
1/2-x,1/4+y,3/4+z
1/4+x,1/2-y,3/4+z
loop_
_atom_site_type_symbol
_atom_site_label
_atom_site_fract_x
_atom_site_fract_y
_atom_site_fract_z
Si Si1 0.446609 0.055233 0.811513
Si Si2 0.808782 0.955845 0.045142
Si Si3 0.375000 0.375000 0.375000
Si Si4 0.568276 0.740144 0.102785
Si Si5 0.913397 0.197462 0.185697
O O1 0.502234 0.008684 0.805706
O O2 0.451795 0.147919 0.866898
O O3 0.427037 0.123707 0.748840
O O4 0.408889 0.958029 0.832399
O O5 0.813035 0.821664 0.056487
O O6 0.855157 0.020814 0.075930
O O7 0.818340 0.982465 0.971843
O O8 0.543708 0.625000 0.125000
O O9 0.625000 0.738940 0.125000
O O10 0.929615 0.125000 0.125000
#
# Coordination Sequence:
#
# PCOD9517196 Si02
#       5
#    32  32   8  32  32
#     4  12  25  44  69  98 132 184 229 270 343 401
#     4  11  24  41  70 103 128 176 228 281 344 394
#     4  12  28  48  62  92 144 192 224 272 320 434
#     4  11  19  41  72  95 128 164 229 294 318 380
#     4  11  24  44  65 104 140 165 218 293 339 402
#
# _framework density 4.9970610000000004
#
# number of rings (size 3 to 8) (size 9 to 14) (size 15 to 20)
#    0.000    0.706    5.882    2.118    4.941    1.882 
#    0.000    2.353    0.000    0.000    0.000    0.000 
#    0.000    0.000    0.000    0.000    0.000    0.000 
#
# Total GULP energy -189694.863802 kJ/mol
# GULP energy per Si atom -5579.260700 kJ/mol
# Density = 0.498569 g / cm^3
# Si number density = 4.997061 Si / 1000 Ang^3
#
#
#
# Elastic Constant Matrix: (Units=GPa)
#
#
# Indices 1 2 3 4 5 6 
#
# 1 163.1264 35.7294 23.2100 0.0000 0.0000 0.0000
# 2 35.7294 97.8327 53.2990 0.0000 0.0000 0.0000
# 3 23.2100 53.2990 105.2751 0.0000 0.0000 0.0000
# 4 0.0000 0.0000 0.0000 41.4452 0.0000 0.0000
# 5 0.0000 0.0000 0.0000 0.0000 10.6738 0.0000
# 6 0.0000 0.0000 0.0000 0.0000 0.0000 5.5785
#
#
#
# Elastic Compliance Matrix: (Units=1/GPa)
#
#
# Indices 1 2 3 4 5 6 
#
# 1 0.006671 -0.002258 -0.000328 0.000000 0.000000 0.000000
# 2 -0.002258 0.014879 -0.007035 0.000000 0.000000 0.000000
# 3 -0.000328 -0.007035 0.013133 0.000000 0.000000 0.000000
# 4 0.000000 0.000000 0.000000 0.024128 0.000000 0.000000
# 5 0.000000 0.000000 0.000000 0.000000 0.093688 0.000000
# 6 0.000000 0.000000 0.000000 0.000000 0.000000 0.179258
#
#
# Mechanical properties :
#
#
# Convention : Reuss Voigt Hill
#
# Bulk Modulus (GPa) = 64.75963 65.63455 65.19709
# Shear Modulus (GPa) = 14.03919 28.47254 21.25587
#
# Velocity S-wave (km/s) = 2.65311 3.77830 3.26455
# Velocity P-wave (km/s) = 6.46951 7.20708 6.84823
#
# Compressibility (1/GPa) = 0.01544172
#
# Stress axis : x y z
#
# Youngs Moduli (GPa) = 149.89372 67.20941 76.14450
#
# Poissons Ratio (x) = 0.15175 0.02495
# Poissons Ratio (y) = 0.33845 0.53569
# Poissons Ratio (z) = 0.04912 0.47283
#
# Static dielectric constant tensor:
#      x y z
#    x 1.769450 0.000000 0.000000 
#    y 0.000000 1.713480 0.000000 
#    z 0.000000 0.000000 1.795900 
# 
# From -- ./inp_files/17667.got.cif
#   From: 2010.05.17/outbox.ucp.g08.bks.cvg/sg70_9_cif.got.tgz:17667.got - 2010.06.11 16:26:41.
