data_PCOD9517849
_publ_section_title
;
Structure prediction by ZEFSAII (Michael W. Deem and Ramdas Pophale) SiO2 
 PCOD9517849
Probable space group: I M M M
;
_chemical_formula_sum "Si O2"
_cell_formula_units_Z 72
_cell_length_a 15.078329
_cell_length_b 31.120159
_cell_length_c 7.378427
_cell_angle_alpha 90.000000
_cell_angle_beta 90.000000
_cell_angle_gamma 90.000000
_cell_volume 3462.253055
_symmetry_space_group_name_H-M "I M M M"
_symmetry_group_IT_number 71
_symmetry_cell_setting 'orthorhombic'
loop_
_space_group_symop_operation_xyz
x,y,z
-x,-y,z
x,-y,-z
-x,y,-z
-x,-y,-z
x,y,-z
-x,y,z
x,-y,z
1/2+x,1/2+y,1/2+z
1/2-x,1/2-y,1/2+z
1/2+x,1/2-y,1/2-z
1/2-x,1/2+y,1/2-z
1/2-x,1/2-y,1/2-z
1/2+x,1/2+y,1/2-z
1/2-x,1/2+y,1/2+z
1/2+x,1/2-y,1/2+z
loop_
_atom_site_type_symbol
_atom_site_label
_atom_site_fract_x
_atom_site_fract_y
_atom_site_fract_z
Si Si1 0.595423 0.672609 0.280099
Si Si2 0.600642 0.140459 0.721370
Si Si3 0.722397 0.401697 0.205130
Si Si4 0.850747 0.263976 0.784598
Si Si5 0.604098 0.551371 0.500000
O O1 0.603433 0.671618 0.500000
O O2 0.500000 0.653478 0.231196
O O3 0.675564 0.645127 0.203801
O O4 0.597551 0.721961 0.219917
O O5 0.603743 0.140808 0.500000
O O6 0.500000 0.129841 0.774481
O O7 0.678420 0.107717 0.776418
O O8 0.623936 0.188994 0.785031
O O9 0.658626 0.430010 0.329717
O O10 0.726599 0.418305 0.000000
O O11 0.750000 0.250000 0.750000
O O12 0.865859 0.266385 0.000000
O O13 0.606142 0.500000 0.500000
O O14 0.500000 0.564770 0.500000
#
# Coordination Sequence:
#
# PCOD9517849 Si02
#       5
#    16  16  16  16   8
#     4  10  19  31  50  76 112 159 204 247 296 350
#     4   9  18  34  56  83 118 165 218 261 302 354
#     4  11  22  38  64  93 121 157 202 251 305 367
#     4  10  18  29  47  71 111 162 210 256 298 343
#     4  11  26  48  71  95 125 155 188 242 315 393
#
# _framework density 20.795708000000001
#
# number of rings (size 3 to 8) (size 9 to 14) (size 15 to 20)
#    0.000    1.889    3.333    1.333    0.000    4.889 
#    0.000    1.667    0.000    2.667    0.000    3.111 
#    0.000    0.000    0.000    0.000    0.000    0.000 
#
# Total GULP energy -201028.217776 kJ/mol
# GULP energy per Si atom -5584.117160 kJ/mol
# Density = 2.074838 g / cm^3
# Si number density = 20.795708 Si / 1000 Ang^3
#
#
#
# Elastic Constant Matrix: (Units=GPa)
#
#
# Indices 1 2 3 4 5 6 
#
# 1 191.8066 50.7483 25.5135 -0.0016 -0.0031 -0.0012
# 2 50.7483 78.7891 26.1162 -0.0047 0.0002 0.0015
# 3 25.5135 26.1162 93.4537 -0.0251 -0.0105 0.0060
# 4 -0.0016 -0.0047 -0.0251 3.1791 -0.0022 0.0044
# 5 -0.0031 0.0002 -0.0105 -0.0022 16.3282 0.0034
# 6 -0.0012 0.0015 0.0060 0.0044 0.0034 29.6484
#
#
#
# Elastic Compliance Matrix: (Units=1/GPa)
#
#
# Indices 1 2 3 4 5 6 
#
# 1 0.006320 -0.003856 -0.000648 -0.000008 0.000001 0.000001
# 2 -0.003856 0.016340 -0.003514 -0.000006 -0.000003 0.000000
# 3 -0.000648 -0.003514 0.011859 0.000088 0.000008 -0.000002
# 4 -0.000008 -0.000006 0.000088 0.314552 0.000042 -0.000047
# 5 0.000001 -0.000003 0.000008 0.000042 0.061244 -0.000007
# 6 0.000001 0.000000 -0.000002 -0.000047 -0.000007 0.033729
#
#
# Mechanical properties :
#
#
# Convention : Reuss Voigt Hill
#
# Bulk Modulus (GPa) = 54.09891 63.20060 58.64976
# Shear Modulus (GPa) = 10.72409 27.27591 19.00000
#
# Velocity S-wave (km/s) = 2.27334 3.62555 3.02594
# Velocity P-wave (km/s) = 5.74123 6.92700 6.36180
#
# Compressibility (1/GPa) = 0.01848466
#
# Stress axis : x y z
#
# Youngs Moduli (GPa) = 158.22849 61.19779 84.32195
#
# Poissons Ratio (x) = 0.23598 0.05463
# Poissons Ratio (y) = 0.61013 0.29629
# Poissons Ratio (z) = 0.10250 0.21503
#
# Static dielectric constant tensor:
#      x y z
#    x 1.781100 0.000000 0.000000 
#    y 0.000000 1.712920 -0.000030 
#    z 0.000000 -0.000030 1.881970 
# 
# From -- ./inp_files/6443.got.cif
#   From: 2010.05.17/outbox.cif.g08.bks.cpg/sg71_4_cif.got.tgz:6443.got - 2010.06.03 16:22:01.
