data_PCOD9517627
_publ_section_title
;
Structure prediction by ZEFSAII (Michael W. Deem and Ramdas Pophale) SiO2 
 PCOD9517627
Probable space group: I M M M
;
_chemical_formula_sum "Si O2"
_cell_formula_units_Z 88
_cell_length_a 7.345552
_cell_length_b 19.269932
_cell_length_c 30.435886
_cell_angle_alpha 90.000000
_cell_angle_beta 90.000000
_cell_angle_gamma 90.000000
_cell_volume 4308.147543
_symmetry_space_group_name_H-M "I M M M"
_symmetry_group_IT_number 71
_symmetry_cell_setting 'orthorhombic'
loop_
_space_group_symop_operation_xyz
x,y,z
-x,-y,z
x,-y,-z
-x,y,-z
-x,-y,-z
x,y,-z
-x,y,z
x,-y,z
1/2+x,1/2+y,1/2+z
1/2-x,1/2-y,1/2+z
1/2+x,1/2-y,1/2-z
1/2-x,1/2+y,1/2-z
1/2-x,1/2-y,1/2-z
1/2+x,1/2+y,1/2-z
1/2-x,1/2+y,1/2+z
1/2+x,1/2-y,1/2+z
loop_
_atom_site_type_symbol
_atom_site_label
_atom_site_fract_x
_atom_site_fract_y
_atom_site_fract_z
Si Si1 0.279844 0.422166 0.258096
Si Si2 0.777742 0.847481 0.449091
Si Si3 0.223210 0.273588 0.616474
Si Si4 0.716462 0.294796 0.793378
Si Si5 0.287011 0.921688 0.139840
Si Si6 0.285435 0.500000 0.946645
O O1 0.500000 0.420577 0.258068
O O2 0.218839 0.500000 0.249802
O O3 0.213546 0.369848 0.221042
O O4 0.225240 0.404349 0.308057
O O5 0.724414 0.840274 0.500000
O O6 0.721301 0.781199 0.420707
O O7 0.000000 0.849294 0.448089
O O8 0.715589 0.924001 0.432522
O O9 0.285701 0.241315 0.662892
O O10 0.285168 0.353869 0.614592
O O11 0.000000 0.275734 0.616291
O O12 0.500000 0.300744 0.799879
O O13 0.750000 0.250000 0.750000
O O14 0.500000 0.926553 0.128919
O O15 0.210061 0.000000 0.133846
O O16 0.500000 0.500000 0.935739
O O17 0.270589 0.500000 0.000000
#
# Coordination Sequence:
#
# PCOD9517627 Si02
#       6
#    16  16  16  16  16   8
#     4   9  17  28  40  55  78 107 137 168 201 235
#     4   8  13  22  36  53  75 103 133 165 199 237
#     4   9  16  25  37  55  76 102 136 166 197 237
#     4  10  18  28  41  58  83 110 136 167 201 240
#     4   9  16  26  41  58  77 104 137 168 195 233
#     4   7  10  18  32  50  72 100 133 161 189 235
#
# _framework density 20.426413
#
# number of rings (size 3 to 8) (size 9 to 14) (size 15 to 20)
#    0.000    3.182    1.818    1.091    0.000    0.000 
#    1.636    0.000    0.000    0.545    0.000    3.818 
#    0.000    2.909    0.000    4.545    0.000   25.182 
#
# Total GULP energy -245148.222817 kJ/mol
# GULP energy per Si atom -5571.550519 kJ/mol
# Density = 2.037992 g / cm^3
# Si number density = 20.426413 Si / 1000 Ang^3
#
#
#
# Elastic Constant Matrix: (Units=GPa)
#
#
# Indices 1 2 3 4 5 6 
#
# 1 76.8212 8.4582 -1.6519 0.0000 0.0000 0.0000
# 2 8.4582 221.2135 79.6008 0.0000 0.0000 0.0000
# 3 -1.6519 79.6008 70.6619 0.0000 0.0000 0.0000
# 4 0.0000 0.0000 0.0000 38.6485 0.0000 0.0000
# 5 0.0000 0.0000 0.0000 0.0000 -2.0472 0.0000
# 6 0.0000 0.0000 0.0000 0.0000 0.0000 -4.5472
#
#
#
# Elastic Compliance Matrix: (Units=1/GPa)
#
#
# Indices 1 2 3 4 5 6 
#
# 1 0.013163 -0.001033 0.001471 0.000000 0.000000 0.000000
# 2 -0.001033 0.007683 -0.008679 0.000000 0.000000 0.000000
# 3 0.001471 -0.008679 0.023963 0.000000 0.000000 0.000000
# 4 0.000000 0.000000 0.000000 0.025874 0.000000 0.000000
# 5 0.000000 0.000000 0.000000 0.000000 -0.488467 0.000000
# 6 0.000000 0.000000 0.000000 0.000000 0.000000 -0.219917
#
#
# Mechanical properties :
#
#
# Convention : Reuss Voigt Hill
#
# Bulk Modulus (GPa) = 35.30157 60.16787 47.73472
# Shear Modulus (GPa) = -8.17291 25.23012 8.52860
#
# Velocity S-wave (km/s) = -2.00246 3.51831 2.04557
# Velocity P-wave (km/s) = 3.46026 6.78414 5.38507
#
# Compressibility (1/GPa) = 0.02832736
#
# Stress axis : x y z
#
# Youngs Moduli (GPa) = 75.97310 130.15624 41.73039
#
# Poissons Ratio (x) = 0.13439 -0.06138
# Poissons Ratio (y) = 0.07845 0.36218
# Poissons Ratio (z) = -0.11175 1.12964
#
# Static dielectric constant tensor:
#      x y z
#    x 1.734180 0.000000 0.000000 
#    y 0.000000 1.798170 0.000000 
#    z 0.000000 0.000000 1.669710 
# 
# From -- ./inp_files/49370.got.cif
#   From: 2010.05.17/outbox.cif.g08.bks.cpg/sg71_25_cif.got.tgz:49370.got - 2010.06.03 16:22:01.
