data_PCOD9517843
_publ_section_title
;
Structure prediction by ZEFSAII (Michael W. Deem and Ramdas Pophale) SiO2 
 PCOD9517843
Probable space group: I M M M
;
_chemical_formula_sum "Si O2"
_cell_formula_units_Z 112
_cell_length_a 18.728527
_cell_length_b 18.971681
_cell_length_c 18.657982
_cell_angle_alpha 90.000000
_cell_angle_beta 90.000000
_cell_angle_gamma 90.000000
_cell_volume 6629.398181
_symmetry_space_group_name_H-M "I M M M"
_symmetry_group_IT_number 71
_symmetry_cell_setting 'orthorhombic'
loop_
_space_group_symop_operation_xyz
x,y,z
-x,-y,z
x,-y,-z
-x,y,-z
-x,-y,-z
x,y,-z
-x,y,z
x,-y,z
1/2+x,1/2+y,1/2+z
1/2-x,1/2-y,1/2+z
1/2+x,1/2-y,1/2-z
1/2-x,1/2+y,1/2-z
1/2-x,1/2-y,1/2-z
1/2+x,1/2+y,1/2-z
1/2-x,1/2+y,1/2+z
1/2+x,1/2-y,1/2+z
loop_
_atom_site_type_symbol
_atom_site_label
_atom_site_fract_x
_atom_site_fract_y
_atom_site_fract_z
Si Si1 0.788030 0.709748 0.420287
Si Si2 0.864980 0.081350 0.719533
Si Si3 0.920486 0.207024 0.637862
Si Si4 0.226730 0.667661 0.735512
Si Si5 0.422132 0.803116 0.281120
Si Si6 0.416435 0.421109 0.618868
Si Si7 0.128008 0.770447 0.921980
O O1 0.792713 0.677785 0.500000
O O2 0.856151 0.759881 0.407584
O O3 0.783861 0.660465 0.350157
O O4 0.711649 0.749495 0.417434
O O5 0.904401 0.126980 0.659497
O O6 0.789600 0.119204 0.735563
O O7 0.907092 0.084702 0.795198
O O8 0.856499 0.000000 0.700371
O O9 0.919297 0.248829 0.714191
O O10 0.000000 0.215664 0.607226
O O11 0.250000 0.750000 0.750000
O O12 0.150431 0.653233 0.771674
O O13 0.500000 0.838255 0.278686
O O14 0.413761 0.761167 0.355240
O O15 0.500000 0.414772 0.600734
O O16 0.392134 0.500000 0.598168
O O17 0.376041 0.355261 0.584868
O O18 0.100060 0.749655 0.000000
#
# Coordination Sequence:
#
# PCOD9517843 Si02
#       7
#    16  16  16  16  16  16  16
#     4  10  19  31  49  72  96 127 169 213 253 295
#     4  11  19  29  50  77 100 130 170 208 245 298
#     4  10  18  31  50  70  96 129 164 209 256 299
#     4  11  16  33  53  69  95 130 166 207 248 296
#     4  10  18  29  47  69  91 121 162 203 248 295
#     4  10  19  29  40  59  92 133 171 199 231 288
#     4  11  19  28  43  64  96 131 160 200 248 288
#
# _framework density 16.894445000000001
#
# number of rings (size 3 to 8) (size 9 to 14) (size 15 to 20)
#    0.000    1.571    7.143    0.857    0.000    2.571 
#    0.000    0.714    0.000    1.286    0.000    1.000 
#    0.000    0.571    0.000   15.714    0.000    0.000 
#
# Total GULP energy -312047.545820 kJ/mol
# GULP energy per Si atom -5572.277604 kJ/mol
# Density = 1.685599 g / cm^3
# Si number density = 16.894445 Si / 1000 Ang^3
#
#
#
# Elastic Constant Matrix: (Units=GPa)
#
#
# Indices 1 2 3 4 5 6 
#
# 1 115.0913 15.6841 11.4944 0.0000 0.0000 0.0000
# 2 15.6841 23.6737 -7.6342 0.0000 0.0000 0.0000
# 3 11.4944 -7.6342 61.6683 0.0000 0.0000 0.0000
# 4 0.0000 0.0000 0.0000 11.4006 0.0000 0.0000
# 5 0.0000 0.0000 0.0000 0.0000 5.8116 0.0000
# 6 0.0000 0.0000 0.0000 0.0000 0.0000 15.0808
#
#
#
# Elastic Compliance Matrix: (Units=1/GPa)
#
#
# Indices 1 2 3 4 5 6 
#
# 1 0.009993 -0.007521 -0.002794 0.000000 0.000000 0.000000
# 2 -0.007521 0.049658 0.007549 0.000000 0.000000 0.000000
# 3 -0.002794 0.007549 0.017671 0.000000 0.000000 0.000000
# 4 0.000000 0.000000 0.000000 0.087715 0.000000 0.000000
# 5 0.000000 0.000000 0.000000 0.000000 0.172070 0.000000
# 6 0.000000 0.000000 0.000000 0.000000 0.000000 0.066310
#
#
# Mechanical properties :
#
#
# Convention : Reuss Voigt Hill
#
# Bulk Modulus (GPa) = 13.92932 26.61354 20.27143
# Shear Modulus (GPa) = 11.55061 18.51786 15.03423
#
# Velocity S-wave (km/s) = 2.61759 3.31432 2.98634
# Velocity P-wave (km/s) = 4.17115 5.51664 4.89039
#
# Compressibility (1/GPa) = 0.07179099
#
# Stress axis : x y z
#
# Youngs Moduli (GPa) = 100.07309 20.13765 56.58972
#
# Poissons Ratio (x) = 0.15146 0.15809
# Poissons Ratio (y) = 0.75266 -0.42721
# Poissons Ratio (z) = 0.27957 -0.15202
#
# Static dielectric constant tensor:
#      x y z
#    x 1.615490 0.000000 0.000000 
#    y 0.000000 1.551770 0.000000 
#    z 0.000000 0.000000 1.601590 
# 
# From -- ./inp_files/47542.got.cif
#   From: 2010.05.17/outbox.cif.g08.bks.cpg/sg71_24_cif.got.tgz:47542.got - 2010.06.03 16:22:01.
