data_PCOD9517544
_publ_section_title
;
Structure prediction by ZEFSAII (Michael W. Deem and Ramdas Pophale) SiO2 
 PCOD9517544
Probable space group: I M M M
;
_chemical_formula_sum "Si O2"
_cell_formula_units_Z 80
_cell_length_a 26.020817
_cell_length_b 21.278068
_cell_length_c 8.484385
_cell_angle_alpha 90.000000
_cell_angle_beta 90.000000
_cell_angle_gamma 90.000000
_cell_volume 4697.572466
_symmetry_space_group_name_H-M "I M M M"
_symmetry_group_IT_number 71
_symmetry_cell_setting 'orthorhombic'
loop_
_space_group_symop_operation_xyz
x,y,z
-x,-y,z
x,-y,-z
-x,y,-z
-x,-y,-z
x,y,-z
-x,y,z
x,-y,z
1/2+x,1/2+y,1/2+z
1/2-x,1/2-y,1/2+z
1/2+x,1/2-y,1/2-z
1/2-x,1/2+y,1/2-z
1/2-x,1/2-y,1/2-z
1/2+x,1/2+y,1/2-z
1/2-x,1/2+y,1/2+z
1/2+x,1/2-y,1/2+z
loop_
_atom_site_type_symbol
_atom_site_label
_atom_site_fract_x
_atom_site_fract_y
_atom_site_fract_z
Si Si1 0.111552 0.263818 0.309845
Si Si2 0.000000 0.118058 0.813280
Si Si3 0.500000 0.239070 0.810459
Si Si4 0.718043 0.809521 0.688402
Si Si5 0.107800 0.115433 0.310312
Si Si6 0.780815 0.930692 0.307596
O O1 0.114341 0.266933 0.500000
O O2 0.055020 0.286855 0.256337
O O3 0.159435 0.300652 0.240501
O O4 0.114553 0.189472 0.267853
O O5 0.054404 0.089724 0.758946
O O6 0.000000 0.187411 0.734784
O O7 0.000000 0.123909 0.000000
O O8 0.500000 0.235668 0.000000
O O9 0.720874 0.809147 0.500000
O O10 0.750000 0.750000 0.750000
O O11 0.744894 0.873598 0.746198
O O12 0.103815 0.112382 0.500000
O O13 0.160033 0.081382 0.260517
O O14 0.780539 0.929434 0.500000
O O15 0.764077 0.000000 0.256937
#
# Coordination Sequence:
#
# PCOD9517544 Si02
#       6
#    16   8   8  16  16  16
#     4   9  16  29  48  72  96 124 157 195 239 282
#     4  10  18  26  41  67  94 122 157 199 242 280
#     4   8  16  30  46  65  96 129 158 191 232 281
#     4  11  20  31  49  74  99 125 158 199 242 286
#     4   9  16  30  48  65  89 124 163 199 235 278
#     4   9  18  33  51  69  91 124 167 205 234 276
#
# _framework density 17.030073000000002
#
# number of rings (size 3 to 8) (size 9 to 14) (size 15 to 20)
#    0.000    2.600    2.000    2.700    0.000    3.200 
#    0.000    0.500    0.000    8.400    0.000    0.700 
#    0.000    5.600    0.000    0.000    0.000    0.000 
#
# Total GULP energy -222895.536242 kJ/mol
# GULP energy per Si atom -5572.388406 kJ/mol
# Density = 1.699131 g / cm^3
# Si number density = 17.030073 Si / 1000 Ang^3
#
#
#
# Elastic Constant Matrix: (Units=GPa)
#
#
# Indices 1 2 3 4 5 6 
#
# 1 149.8252 64.5276 33.2228 0.0000 0.0000 0.0000
# 2 64.5276 92.4445 9.5519 0.0000 0.0000 0.0000
# 3 33.2228 9.5519 -108.0787 0.0000 0.0000 0.0000
# 4 0.0000 0.0000 0.0000 10.4555 0.0000 0.0000
# 5 0.0000 0.0000 0.0000 0.0000 28.5645 0.0000
# 6 0.0000 0.0000 0.0000 0.0000 0.0000 14.1865
#
#
#
# Elastic Compliance Matrix: (Units=1/GPa)
#
#
# Indices 1 2 3 4 5 6 
#
# 1 0.008989 -0.006500 0.002189 0.000000 0.000000 0.000000
# 2 -0.006500 0.015420 -0.000635 0.000000 0.000000 0.000000
# 3 0.002189 -0.000635 -0.008636 0.000000 0.000000 0.000000
# 4 0.000000 0.000000 0.000000 0.095643 0.000000 0.000000
# 5 0.000000 0.000000 0.000000 0.000000 0.035008 0.000000
# 6 0.000000 0.000000 0.000000 0.000000 0.000000 0.070490
#
#
# Mechanical properties :
#
#
# Convention : Reuss Voigt Hill
#
# Bulk Modulus (GPa) = 170.10221 38.75508 104.42865
# Shear Modulus (GPa) = 21.85614 12.43389 17.14501
#
# Velocity S-wave (km/s) = 3.58632 2.70499 3.17637
# Velocity P-wave (km/s) = 10.82817 5.70633 8.65481
#
# Compressibility (1/GPa) = 0.00587882
#
# Stress axis : x y z
#
# Youngs Moduli (GPa) = 111.24973 64.84936 -115.79556
#
# Poissons Ratio (x) = 0.42155 0.25343
# Poissons Ratio (y) = 0.72317 -0.07357
# Poissons Ratio (z) = -0.24348 0.04120
#
# Static dielectric constant tensor:
#      x y z
#    x 1.615580 0.000000 0.000000 
#    y 0.000000 1.574150 0.000000 
#    z 0.000000 0.000000 1.587710 
# 
# From -- ./inp_files/12384.got.cif
#   From: 2010.05.17/outbox.cif.g08.bks.cpg/sg71_7_cif.got.tgz:12384.got - 2010.06.03 16:22:01.
