data_PCOD9517245
_publ_section_title
;
Structure prediction by ZEFSAII (Michael W. Deem and Ramdas Pophale) SiO2 
 PCOD9517245
Probable space group: I M M M
;
_chemical_formula_sum "Si O2"
_cell_formula_units_Z 72
_cell_length_a 8.590761
_cell_length_b 28.941949
_cell_length_c 19.695876
_cell_angle_alpha 90.000000
_cell_angle_beta 90.000000
_cell_angle_gamma 90.000000
_cell_volume 4897.051961
_symmetry_space_group_name_H-M "I M M M"
_symmetry_group_IT_number 71
_symmetry_cell_setting 'orthorhombic'
loop_
_space_group_symop_operation_xyz
x,y,z
-x,-y,z
x,-y,-z
-x,y,-z
-x,-y,-z
x,y,-z
-x,y,z
x,-y,z
1/2+x,1/2+y,1/2+z
1/2-x,1/2-y,1/2+z
1/2+x,1/2-y,1/2-z
1/2-x,1/2+y,1/2-z
1/2-x,1/2-y,1/2-z
1/2+x,1/2+y,1/2-z
1/2-x,1/2+y,1/2+z
1/2+x,1/2-y,1/2+z
loop_
_atom_site_type_symbol
_atom_site_label
_atom_site_fract_x
_atom_site_fract_y
_atom_site_fract_z
Si Si1 0.314118 0.271481 0.645774
Si Si2 0.814664 0.340765 0.000000
Si Si3 0.682491 0.239039 0.000000
Si Si4 0.812101 0.401825 0.132762
Si Si5 0.309095 0.000000 0.579896
Si Si6 0.688322 0.821351 0.274709
O O1 0.500000 0.272126 0.645102
O O2 0.253165 0.279550 0.570215
O O3 0.265910 0.220468 0.673906
O O4 0.251974 0.307399 0.701424
O O5 0.782259 0.371432 0.934205
O O6 0.721586 0.293566 0.000000
O O7 0.000000 0.329229 0.000000
O O8 0.500000 0.231272 0.000000
O O9 0.755506 0.453513 0.117874
O O10 0.756861 0.370423 0.195458
O O11 0.000000 0.405121 0.139203
O O12 0.500000 0.000000 0.579651
O O13 0.264236 0.000000 0.500000
O O14 0.500000 0.821513 0.272507
#
# Coordination Sequence:
#
# PCOD9517245 Si02
#       6
#    16   8   8  16   8  16
#     4  10  19  31  46  62  84 113 147 182 220 263
#     4  10  16  27  42  60  86 120 153 185 222 253
#     4  12  22  30  43  65  89 113 147 184 220 265
#     4   9  15  24  40  61  89 119 150 188 222 253
#     4   9  14  20  36  64  92 117 150 187 220 250
#     4   9  17  29  43  61  87 116 147 183 222 257
#
# _framework density 14.702724
#
# number of rings (size 3 to 8) (size 9 to 14) (size 15 to 20)
#    0.000    2.333    3.333    1.667    0.000    0.889 
#    0.000    0.000    0.000    0.000    0.000    3.889 
#    0.000    0.889    0.000   10.444    0.000    2.000 
#
# Total GULP energy -200627.803654 kJ/mol
# GULP energy per Si atom -5572.994546 kJ/mol
# Density = 1.466926 g / cm^3
# Si number density = 14.702724 Si / 1000 Ang^3
#
#
#
# Elastic Constant Matrix: (Units=GPa)
#
#
# Indices 1 2 3 4 5 6 
#
# 1 15.7569 15.3641 25.6782 0.0000 0.0000 0.0000
# 2 15.3641 102.7991 62.6786 0.0000 0.0000 0.0000
# 3 25.6782 62.6786 127.2087 0.0000 0.0000 0.0000
# 4 0.0000 0.0000 0.0000 6.8338 0.0000 0.0000
# 5 0.0000 0.0000 0.0000 0.0000 19.3044 0.0000
# 6 0.0000 0.0000 0.0000 0.0000 0.0000 11.2772
#
#
#
# Elastic Compliance Matrix: (Units=1/GPa)
#
#
# Indices 1 2 3 4 5 6 
#
# 1 0.095499 -0.003601 -0.017503 0.000000 0.000000 0.000000
# 2 -0.003601 0.014041 -0.006191 0.000000 0.000000 0.000000
# 3 -0.017503 -0.006191 0.014445 0.000000 0.000000 0.000000
# 4 0.000000 0.000000 0.000000 0.146332 0.000000 0.000000
# 5 0.000000 0.000000 0.000000 0.000000 0.051802 0.000000
# 6 0.000000 0.000000 0.000000 0.000000 0.000000 0.088674
#
#
# Mechanical properties :
#
#
# Convention : Reuss Voigt Hill
#
# Bulk Modulus (GPa) = 14.41049 50.35628 32.38339
# Shear Modulus (GPa) = 10.23511 16.95268 13.59390
#
# Velocity S-wave (km/s) = 2.64130 3.39931 3.04400
# Velocity P-wave (km/s) = 4.37316 7.05203 5.86752
#
# Compressibility (1/GPa) = 0.06939388
#
# Stress axis : x y z
#
# Youngs Moduli (GPa) = 10.47131 71.22040 69.22895
#
# Poissons Ratio (x) = 0.25648 1.21171
# Poissons Ratio (y) = 0.03771 0.42862
# Poissons Ratio (z) = 0.18328 0.44095
#
# Static dielectric constant tensor:
#      x y z
#    x 1.499770 0.000000 0.000000 
#    y 0.000000 1.490030 0.000000 
#    z 0.000000 0.000000 1.485300 
# 
# From -- ./inp_files/50723.got.cif
#   From: 2010.05.17/outbox.cif.g08.bks.cpg/sg71_26_cif.got.tgz:50723.got - 2010.06.03 16:22:01.
