data_PCOD9517413
_publ_section_title
;
Structure prediction by ZEFSAII (Michael W. Deem and Ramdas Pophale) SiO2 
 PCOD9517413
Probable space group: I M M M
;
_chemical_formula_sum "Si O2"
_cell_formula_units_Z 76
_cell_length_a 19.183149
_cell_length_b 13.399888
_cell_length_c 16.119761
_cell_angle_alpha 90.000000
_cell_angle_beta 90.000000
_cell_angle_gamma 90.000000
_cell_volume 4143.617580
_symmetry_space_group_name_H-M "I M M M"
_symmetry_group_IT_number 71
_symmetry_cell_setting 'orthorhombic'
loop_
_space_group_symop_operation_xyz
x,y,z
-x,-y,z
x,-y,-z
-x,y,-z
-x,-y,-z
x,y,-z
-x,y,z
x,-y,z
1/2+x,1/2+y,1/2+z
1/2-x,1/2-y,1/2+z
1/2+x,1/2-y,1/2-z
1/2-x,1/2+y,1/2-z
1/2-x,1/2-y,1/2-z
1/2+x,1/2+y,1/2-z
1/2-x,1/2+y,1/2+z
1/2+x,1/2-y,1/2+z
loop_
_atom_site_type_symbol
_atom_site_label
_atom_site_fract_x
_atom_site_fract_y
_atom_site_fract_z
Si Si1 0.500000 0.119812 0.147676
Si Si2 0.500000 0.767106 0.318434
Si Si3 0.368693 0.384559 0.500000
Si Si4 0.776728 0.616131 0.764314
Si Si5 0.500000 0.763560 0.500000
Si Si6 0.349074 0.120781 0.910254
Si Si7 0.154767 0.805563 0.826165
O O1 0.500000 0.157501 0.242029
O O2 0.570763 0.152367 0.103049
O O3 0.500000 0.000000 0.147621
O O4 0.500000 0.816557 0.410637
O O5 0.428306 0.703983 0.313338
O O6 0.389658 0.500000 0.500000
O O7 0.433535 0.309134 0.500000
O O8 0.331066 0.361174 0.586815
O O9 0.789718 0.500000 0.781980
O O10 0.809681 0.644700 0.674518
O O11 0.813032 0.693593 0.826449
O O12 0.695376 0.637979 0.747591
O O13 0.347322 0.000000 0.913533
O O14 0.323671 0.157802 0.000000
#
# Coordination Sequence:
#
# PCOD9517413 Si02
#       7
#     8   8   8  16   4  16  16
#     4  10  17  28  48  73 104 140 173 215 273 321
#     4  10  18  34  49  69 103 137 178 223 265 312
#     4  10  19  34  55  79 104 132 170 220 267 311
#     4  10  20  35  52  76 109 142 175 218 267 322
#     4   8  19  32  49  72 100 136 169 214 266 308
#     4   9  17  28  47  75 104 133 168 211 264 320
#     4  10  21  34  53  78 105 139 179 220 266 317
#
# _framework density 18.341462
#
# number of rings (size 3 to 8) (size 9 to 14) (size 15 to 20)
#    0.000    2.316    2.105    1.105    1.474    1.263 
#    0.000    2.368    0.000    3.789    0.000    0.000 
#    0.000    0.000    0.000   21.053    0.000    0.105 
#
# Total GULP energy -211642.306487 kJ/mol
# GULP energy per Si atom -5569.534381 kJ/mol
# Density = 1.829972 g / cm^3
# Si number density = 18.341462 Si / 1000 Ang^3
#
#
#
# Elastic Constant Matrix: (Units=GPa)
#
#
# Indices 1 2 3 4 5 6 
#
# 1 77.8566 -9.5819 -4.1438 0.0000 0.0000 0.0000
# 2 -9.5819 46.4441 0.4621 0.0000 0.0000 0.0000
# 3 -4.1438 0.4621 49.3102 0.0000 0.0000 0.0000
# 4 0.0000 0.0000 0.0000 27.0164 0.0000 0.0000
# 5 0.0000 0.0000 0.0000 0.0000 19.6157 0.0000
# 6 0.0000 0.0000 0.0000 0.0000 0.0000 3.1366
#
#
#
# Elastic Compliance Matrix: (Units=1/GPa)
#
#
# Indices 1 2 3 4 5 6 
#
# 1 0.013237 0.002720 0.001087 0.000000 0.000000 0.000000
# 2 0.002720 0.022092 0.000022 0.000000 0.000000 0.000000
# 3 0.001087 0.000022 0.020371 0.000000 0.000000 0.000000
# 4 0.000000 0.000000 0.000000 0.037015 0.000000 0.000000
# 5 0.000000 0.000000 0.000000 0.000000 0.050980 0.000000
# 6 0.000000 0.000000 0.000000 0.000000 0.000000 0.318815
#
#
# Mechanical properties :
#
#
# Convention : Reuss Voigt Hill
#
# Bulk Modulus (GPa) = 15.78361 16.34262 16.06312
# Shear Modulus (GPa) = 10.50485 22.41204 16.45845
#
# Velocity S-wave (km/s) = 2.39579 3.49941 2.99881
# Velocity P-wave (km/s) = 4.03450 5.02567 4.55711
#
# Compressibility (1/GPa) = 0.06335687
#
# Stress axis : x y z
#
# Youngs Moduli (GPa) = 75.54736 45.26477 49.08958
#
# Poissons Ratio (x) = -0.12312 -0.05335
# Poissons Ratio (y) = -0.20549 -0.00106
# Poissons Ratio (z) = -0.08211 -0.00098
#
# Static dielectric constant tensor:
#      x y z
#    x 1.726140 0.000000 0.000000 
#    y 0.000000 1.607180 0.000000 
#    z 0.000000 0.000000 1.672940 
# 
# From -- ./inp_files/37696.got.cif
#   From: 2010.05.17/outbox.cif.g08.bks.cpg/sg71_19_cif.got.tgz:37696.got - 2010.06.03 16:22:01.
