data_PCOD9517931
_publ_section_title
;
Structure prediction by ZEFSAII (Michael W. Deem and Ramdas Pophale) SiO2 
 PCOD9517931
Probable space group: I M M M
;
_chemical_formula_sum "Si O2"
_cell_formula_units_Z 104
_cell_length_a 21.640761
_cell_length_b 19.412041
_cell_length_c 14.114511
_cell_angle_alpha 90.000000
_cell_angle_beta 90.000000
_cell_angle_gamma 90.000000
_cell_volume 5929.383837
_symmetry_space_group_name_H-M "I M M M"
_symmetry_group_IT_number 71
_symmetry_cell_setting 'orthorhombic'
loop_
_space_group_symop_operation_xyz
x,y,z
-x,-y,z
x,-y,-z
-x,y,-z
-x,-y,-z
x,y,-z
-x,y,z
x,-y,z
1/2+x,1/2+y,1/2+z
1/2-x,1/2-y,1/2+z
1/2+x,1/2-y,1/2-z
1/2-x,1/2+y,1/2-z
1/2-x,1/2-y,1/2-z
1/2+x,1/2+y,1/2-z
1/2-x,1/2+y,1/2+z
1/2+x,1/2-y,1/2+z
loop_
_atom_site_type_symbol
_atom_site_label
_atom_site_fract_x
_atom_site_fract_y
_atom_site_fract_z
Si Si1 0.644247 0.313797 0.612503
Si Si2 0.890257 0.668289 0.211244
Si Si3 0.346657 0.375970 0.108207
Si Si4 0.428264 0.575261 0.725592
Si Si5 0.068847 0.741946 0.603648
Si Si6 0.500000 0.917740 0.386110
Si Si7 0.252683 0.833265 0.751965
O O1 0.646413 0.313704 0.500000
O O2 0.627450 0.236845 0.649962
O O3 0.592998 0.364201 0.656522
O O4 0.708096 0.344185 0.657454
O O5 0.922924 0.693354 0.307342
O O6 0.823006 0.641446 0.246184
O O7 0.938205 0.618993 0.156518
O O8 0.388670 0.420265 0.178325
O O9 0.380514 0.301633 0.108902
O O10 0.282029 0.364034 0.160634
O O11 0.342062 0.399703 0.000000
O O12 0.500000 0.582746 0.748569
O O13 0.418317 0.500000 0.681500
O O14 0.074935 0.708002 0.500000
O O15 0.000000 0.773080 0.607782
O O16 0.500000 0.908866 0.500000
O O17 0.500000 0.000000 0.365683
O O18 0.250000 0.750000 0.750000
#
# Coordination Sequence:
#
# PCOD9517931 Si02
#       7
#    16  16  16  16  16   8  16
#     4  10  21  35  56  85 114 151 196 237 282 342
#     4  11  20  38  61  84 115 149 188 236 294 344
#     4  10  19  32  51  78 114 147 184 233 279 339
#     4  10  21  36  52  75 113 153 189 234 275 323
#     4  10  18  29  52  84 112 144 185 228 280 335
#     4  11  26  44  63  89 118 152 194 243 297 353
#     4   9  18  33  53  84 114 143 180 237 287 340
#
# _framework density 17.539764999999999
#
# number of rings (size 3 to 8) (size 9 to 14) (size 15 to 20)
#    0.000    1.923    5.385    0.923    1.077    5.538 
#    0.000    4.615    0.000    0.923    0.000    0.000 
#    0.000    0.000    0.000    0.000    0.000    0.000 
#
# Total GULP energy -289570.007770 kJ/mol
# GULP energy per Si atom -5568.653996 kJ/mol
# Density = 1.749984 g / cm^3
# Si number density = 17.539765 Si / 1000 Ang^3
#
#
#
# Elastic Constant Matrix: (Units=GPa)
#
#
# Indices 1 2 3 4 5 6 
#
# 1 113.6848 33.6581 30.6093 0.0000 0.0000 0.0000
# 2 33.6581 62.5768 33.6557 0.0000 0.0000 0.0000
# 3 30.6093 33.6557 124.0670 0.0000 0.0000 0.0000
# 4 0.0000 0.0000 0.0000 11.6877 0.0000 0.0000
# 5 0.0000 0.0000 0.0000 0.0000 11.4220 0.0000
# 6 0.0000 0.0000 0.0000 0.0000 0.0000 848.1286
#
#
#
# Elastic Compliance Matrix: (Units=1/GPa)
#
#
# Indices 1 2 3 4 5 6 
#
# 1 0.010626 -0.005041 -0.001254 0.000000 0.000000 0.000000
# 2 -0.005041 0.021102 -0.004481 0.000000 0.000000 0.000000
# 3 -0.001254 -0.004481 0.009585 0.000000 0.000000 0.000000
# 4 0.000000 0.000000 0.000000 0.085560 0.000000 0.000000
# 5 0.000000 0.000000 0.000000 0.000000 0.087550 0.000000
# 6 0.000000 0.000000 0.000000 0.000000 0.000000 0.001179
#
#
# Mechanical properties :
#
#
# Convention : Reuss Voigt Hill
#
# Bulk Modulus (GPa) = 50.60369 55.13056 52.86712
# Shear Modulus (GPa) = 20.51354 187.74134 104.12744
#
# Velocity S-wave (km/s) = 3.42357 10.35712 7.71332
# Velocity P-wave (km/s) = 6.67392 13.21085 10.46584
#
# Compressibility (1/GPa) = 0.01976140
#
# Stress axis : x y z
#
# Youngs Moduli (GPa) = 94.10496 47.38986 104.32942
#
# Poissons Ratio (x) = 0.23890 0.13085
# Poissons Ratio (y) = 0.47439 0.46745
# Poissons Ratio (z) = 0.11803 0.21233
#
# Static dielectric constant tensor:
#      x y z
#    x 1.626730 0.000000 0.000000 
#    y 0.000000 1.569090 0.000000 
#    z 0.000000 0.000000 1.599320 
# 
# From -- ./inp_files/38115.got.cif
#   From: 2010.05.17/outbox.cif.g08.bks.cpg/sg71_20_cif.got.tgz:38115.got - 2010.06.03 16:22:01.
