data_PCOD9517292
_publ_section_title
;
Structure prediction by ZEFSAII (Michael W. Deem and Ramdas Pophale) SiO2 
 PCOD9517292
Probable space group: I M M M
;
_chemical_formula_sum "Si O2"
_cell_formula_units_Z 116
_cell_length_a 32.484861
_cell_length_b 9.153639
_cell_length_c 32.484902
_cell_angle_alpha 90.000000
_cell_angle_beta 90.000000
_cell_angle_gamma 90.000000
_cell_volume 9659.537982
_symmetry_space_group_name_H-M "I M M M"
_symmetry_group_IT_number 71
_symmetry_cell_setting 'orthorhombic'
loop_
_space_group_symop_operation_xyz
x,y,z
-x,-y,z
x,-y,-z
-x,y,-z
-x,-y,-z
x,y,-z
-x,y,z
x,-y,z
1/2+x,1/2+y,1/2+z
1/2-x,1/2-y,1/2+z
1/2+x,1/2-y,1/2-z
1/2-x,1/2+y,1/2-z
1/2-x,1/2-y,1/2-z
1/2+x,1/2+y,1/2-z
1/2-x,1/2+y,1/2+z
1/2+x,1/2-y,1/2+z
loop_
_atom_site_type_symbol
_atom_site_label
_atom_site_fract_x
_atom_site_fract_y
_atom_site_fract_z
Si Si1 0.814666 0.831655 0.743847
Si Si2 0.256154 0.168345 0.185334
Si Si3 0.564611 0.672179 0.435389
Si Si4 0.695409 0.174138 0.626334
Si Si5 0.373666 0.825862 0.304591
Si Si6 0.000000 0.278542 0.000000
Si Si7 0.952770 0.826234 0.838768
Si Si8 0.838768 0.826234 0.047230
O O1 0.778563 0.831174 0.778563
O O2 0.795271 0.750000 0.704729
O O3 0.852339 0.748195 0.765184
O O4 0.824526 0.000000 0.734897
O O5 0.234816 0.251805 0.147661
O O6 0.265104 0.000000 0.175474
O O7 0.555230 0.500000 0.444771
O O8 0.535773 0.767251 0.464227
O O9 0.555223 0.696534 0.387493
O O10 0.612507 0.696534 0.444777
O O11 0.656310 0.207494 0.656309
O O12 0.685853 0.238600 0.581667
O O13 0.700160 0.000000 0.625340
O O14 0.418333 0.761401 0.314147
O O15 0.374660 0.000000 0.299841
O O16 0.000000 0.786258 0.829464
O O17 0.947749 0.000000 0.831422
O O18 0.831422 0.000000 0.052250
O O19 0.829464 0.786258 0.000000
#
# Coordination Sequence:
#
# PCOD9517292 Si02
#       8
#    16  16  16  16  16   4  16  16
#     4   9  16  26  41  60  80  98 115 139 169 210
#     4   9  16  26  41  60  80  98 115 139 169 210
#     4  10  17  24  37  55  71  84 108 150 199 241
#     4  10  19  29  41  56  74  98 122 146 180 225
#     4  10  19  29  41  56  74  98 122 146 180 225
#     4  12  17  24  40  60  73  82 109 160 209 246
#     4  10  19  29  41  56  71  91 120 156 194 234
#     4  10  19  29  41  56  71  91 120 156 194 234
#
# _framework density 12.008856
#
# number of rings (size 3 to 8) (size 9 to 14) (size 15 to 20)
#    0.000    2.207    2.759    2.276    0.000    4.966 
#    0.000    0.000    0.000    0.000    0.000    0.966 
#    0.000    0.000    0.000    0.000    0.000    0.000 
#
# Total GULP energy -322882.861438 kJ/mol
# GULP energy per Si atom -5566.945887 kJ/mol
# Density = 1.198152 g / cm^3
# Si number density = 12.008856 Si / 1000 Ang^3
#
#
#
# Elastic Constant Matrix: (Units=GPa)
#
#
# Indices 1 2 3 4 5 6 
#
# 1 65.0805 44.9589 50.5621 0.0000 0.0000 0.0000
# 2 44.9589 60.6467 44.9591 0.0000 0.0000 0.0000
# 3 50.5621 44.9591 65.0814 0.0000 0.0000 0.0000
# 4 0.0000 0.0000 0.0000 9.1731 0.0000 0.0000
# 5 0.0000 0.0000 0.0000 0.0000 47.4358 0.0000
# 6 0.0000 0.0000 0.0000 0.0000 0.0000 9.1733
#
#
#
# Elastic Compliance Matrix: (Units=1/GPa)
#
#
# Indices 1 2 3 4 5 6 
#
# 1 0.044646 -0.015134 -0.024231 0.000000 0.000000 0.000000
# 2 -0.015134 0.038927 -0.015134 0.000000 0.000000 0.000000
# 3 -0.024231 -0.015134 0.044645 0.000000 0.000000 0.000000
# 4 0.000000 0.000000 0.000000 0.109015 0.000000 0.000000
# 5 0.000000 0.000000 0.000000 0.000000 0.021081 0.000000
# 6 0.000000 0.000000 0.000000 0.000000 0.000000 0.109012
#
#
# Mechanical properties :
#
#
# Convention : Reuss Voigt Hill
#
# Bulk Modulus (GPa) = 52.02667 52.41876 52.22271
# Shear Modulus (GPa) = 10.35776 16.51167 13.43471
#
# Velocity S-wave (km/s) = 2.94004 3.71206 3.34838
# Velocity P-wave (km/s) = 7.41234 7.88146 7.65050
#
# Compressibility (1/GPa) = 0.01922091
#
# Stress axis : x y z
#
# Youngs Moduli (GPa) = 22.39859 25.68896 22.39900
#
# Poissons Ratio (x) = 0.38878 0.54274
# Poissons Ratio (y) = 0.33898 0.33898
# Poissons Ratio (z) = 0.54273 0.38877
#
# Static dielectric constant tensor:
#      x y z
#    x 1.369580 0.000000 0.000000 
#    y 0.000000 1.411050 0.000000 
#    z 0.000000 0.000000 1.369580 
# 
# From -- ./inp_files/67357.got.cif
#   From: 2010.05.17/outbox.cif.g08.bks.cpg/sg71_34_cif.got.tgz:67357.got - 2010.06.03 16:22:01.
