data_PCOD9517404
_publ_section_title
;
Structure prediction by ZEFSAII (Michael W. Deem and Ramdas Pophale) SiO2 
 PCOD9517404
Probable space group: I M M M
;
_chemical_formula_sum "Si O2"
_cell_formula_units_Z 72
_cell_length_a 13.307530
_cell_length_b 14.761896
_cell_length_c 24.494272
_cell_angle_alpha 90.000000
_cell_angle_beta 90.000000
_cell_angle_gamma 90.000000
_cell_volume 4811.761927
_symmetry_space_group_name_H-M "I M M M"
_symmetry_group_IT_number 71
_symmetry_cell_setting 'orthorhombic'
loop_
_space_group_symop_operation_xyz
x,y,z
-x,-y,z
x,-y,-z
-x,y,-z
-x,-y,-z
x,y,-z
-x,y,z
x,-y,z
1/2+x,1/2+y,1/2+z
1/2-x,1/2-y,1/2+z
1/2+x,1/2-y,1/2-z
1/2-x,1/2+y,1/2-z
1/2-x,1/2-y,1/2-z
1/2+x,1/2+y,1/2-z
1/2-x,1/2+y,1/2+z
1/2+x,1/2-y,1/2+z
loop_
_atom_site_type_symbol
_atom_site_label
_atom_site_fract_x
_atom_site_fract_y
_atom_site_fract_z
Si Si1 0.380203 0.500000 0.300500
Si Si2 0.614186 0.813243 0.767463
Si Si3 0.379811 0.199910 0.439161
Si Si4 0.699590 0.000000 0.278709
Si Si5 0.118820 0.500000 0.897104
Si Si6 0.311530 0.304461 0.332680
O O1 0.500000 0.500000 0.291683
O O2 0.312716 0.500000 0.245131
O O3 0.346292 0.408878 0.331892
O O4 0.500000 0.810917 0.786275
O O5 0.644078 0.911354 0.743969
O O6 0.628981 0.744518 0.716886
O O7 0.695774 0.794205 0.814190
O O8 0.345319 0.225433 0.500000
O O9 0.500000 0.214337 0.436374
O O10 0.363790 0.092577 0.429668
O O11 0.332434 0.255528 0.389547
O O12 0.687306 0.000000 0.343417
O O13 0.000000 0.500000 0.880358
#
# Coordination Sequence:
#
# PCOD9517404 Si02
#       6
#     8  16  16   8   8  16
#     4  10  20  32  44  65  99 131 156 186 227 276
#     4  10  18  30  48  70  95 121 151 192 239 282
#     4  10  19  31  48  69  94 125 158 194 236 278
#     4  10  18  27  48  75  96 121 149 186 239 286
#     4  10  17  28  46  70  99 121 146 190 239 284
#     4  10  20  31  46  68  94 125 159 191 229 276
#
# _framework density 14.963334
#
# number of rings (size 3 to 8) (size 9 to 14) (size 15 to 20)
#    0.000    2.000    2.222    3.333    0.000    1.333 
#    0.000    0.556    0.000    2.667    0.000    0.000 
#    0.000    8.000    0.000    0.000    0.000    0.000 
#
# Total GULP energy -200736.034089 kJ/mol
# GULP energy per Si atom -5576.000947 kJ/mol
# Density = 1.492928 g / cm^3
# Si number density = 14.963334 Si / 1000 Ang^3
#
#
#
# Elastic Constant Matrix: (Units=GPa)
#
#
# Indices 1 2 3 4 5 6 
#
# 1 105.9533 28.3908 48.9016 0.0000 0.0000 0.0000
# 2 28.3908 106.8863 50.8839 0.0000 0.0000 0.0000
# 3 48.9016 50.8839 118.6002 0.0000 0.0000 0.0000
# 4 0.0000 0.0000 0.0000 26.0015 0.0000 0.0000
# 5 0.0000 0.0000 0.0000 0.0000 15.3691 0.0000
# 6 0.0000 0.0000 0.0000 0.0000 0.0000 -8.8831
#
#
#
# Elastic Compliance Matrix: (Units=1/GPa)
#
#
# Indices 1 2 3 4 5 6 
#
# 1 0.011745 -0.001023 -0.004404 0.000000 0.000000 0.000000
# 2 -0.001023 0.011846 -0.004661 0.000000 0.000000 0.000000
# 3 -0.004404 -0.004661 0.012247 0.000000 0.000000 0.000000
# 4 0.000000 0.000000 0.000000 0.038459 0.000000 0.000000
# 5 0.000000 0.000000 0.000000 0.000000 0.065065 0.000000
# 6 0.000000 0.000000 0.000000 0.000000 0.000000 -0.112573
#
#
# Mechanical properties :
#
#
# Convention : Reuss Voigt Hill
#
# Bulk Modulus (GPa) = 63.84440 65.31027 64.57733
# Shear Modulus (GPa) = 95.81219 20.04841 57.93030
#
# Velocity S-wave (km/s) = 8.01064 3.66435 6.22887
# Velocity P-wave (km/s) = 11.32785 7.85143 9.74590
#
# Compressibility (1/GPa) = 0.01566308
#
# Stress axis : x y z
#
# Youngs Moduli (GPa) = 85.14439 84.41516 81.65292
#
# Poissons Ratio (x) = 0.08638 0.35957
# Poissons Ratio (y) = 0.08712 0.38055
# Poissons Ratio (z) = 0.37494 0.39342
#
# Static dielectric constant tensor:
#      x y z
#    x 1.495110 0.000000 0.000000 
#    y 0.000000 1.514130 0.000000 
#    z 0.000000 0.000000 1.473450 
# 
# From -- ./inp_files/21808.got.cif
#   From: 2010.05.17/outbox.cif.g08.bks.cpg/sg71_11_cif.got.tgz:21808.got - 2010.06.03 16:22:01.
