data_PCOD9517296
_publ_section_title
;
Structure prediction by ZEFSAII (Michael W. Deem and Ramdas Pophale) SiO2 
 PCOD9517296
Probable space group: I M M M
;
_chemical_formula_sum "Si O2"
_cell_formula_units_Z 68
_cell_length_a 7.516985
_cell_length_b 22.551399
_cell_length_c 17.615348
_cell_angle_alpha 90.000000
_cell_angle_beta 90.000000
_cell_angle_gamma 90.000000
_cell_volume 2986.127863
_symmetry_space_group_name_H-M "I M M M"
_symmetry_group_IT_number 71
_symmetry_cell_setting 'orthorhombic'
loop_
_space_group_symop_operation_xyz
x,y,z
-x,-y,z
x,-y,-z
-x,y,-z
-x,-y,-z
x,y,-z
-x,y,z
x,-y,z
1/2+x,1/2+y,1/2+z
1/2-x,1/2-y,1/2+z
1/2+x,1/2-y,1/2-z
1/2-x,1/2+y,1/2-z
1/2-x,1/2-y,1/2-z
1/2+x,1/2+y,1/2-z
1/2-x,1/2+y,1/2+z
1/2+x,1/2-y,1/2+z
loop_
_atom_site_type_symbol
_atom_site_label
_atom_site_fract_x
_atom_site_fract_y
_atom_site_fract_z
Si Si1 0.705811 0.344882 0.084805
Si Si2 0.259182 0.000000 0.000000
Si Si3 0.711874 0.371850 0.500000
Si Si4 0.780879 0.880418 0.256798
Si Si5 0.787705 0.214873 0.859434
Si Si6 0.202436 0.000000 0.821254
O O1 0.500000 0.362690 0.078491
O O2 0.780417 0.381201 0.156100
O O3 0.709313 0.276959 0.113962
O O4 0.784717 0.348678 0.000000
O O5 0.320150 0.067993 0.000000
O O6 0.191852 0.000000 0.912181
O O7 0.500000 0.389065 0.500000
O O8 0.743490 0.332201 0.426663
O O9 0.723685 0.819261 0.215722
O O10 0.000000 0.878530 0.254618
O O11 0.720759 0.938467 0.210638
O O12 0.000000 0.224038 0.853770
O O13 0.000000 0.000000 0.792400
#
# Coordination Sequence:
#
# PCOD9517296 Si02
#       6
#    16   4   8  16  16   8
#     4  10  20  33  47  66  96 131 161 190 230 281
#     4  12  17  24  44  72 103 128 145 186 249 288
#     4  10  17  24  41  73 102 118 145 191 238 277
#     4   9  18  30  45  68  96 124 155 195 239 279
#     4  10  18  30  49  73  98 120 153 199 236 274
#     4  10  17  26  43  68  97 123 151 191 240 286
#
# _framework density 22.771964000000001
#
# number of rings (size 3 to 8) (size 9 to 14) (size 15 to 20)
#    0.000    2.118    3.529    1.765    0.000    0.000 
#    0.000    0.588    0.000    3.529    0.000    6.588 
#    0.000    1.882    0.000    0.000    0.000    0.000 
#
# Total GULP energy -189573.071395 kJ/mol
# GULP energy per Si atom -5575.678570 kJ/mol
# Density = 2.272013 g / cm^3
# Si number density = 22.771964 Si / 1000 Ang^3
#
#
#
# Elastic Constant Matrix: (Units=GPa)
#
#
# Indices 1 2 3 4 5 6 
#
# 1 53.3547 1.3814 7.4549 0.0000 0.0000 0.0000
# 2 1.3814 75.0831 37.2100 0.0000 0.0000 0.0000
# 3 7.4549 37.2100 196.3333 0.0000 0.0000 0.0000
# 4 0.0000 0.0000 0.0000 30.8786 0.0000 0.0000
# 5 0.0000 0.0000 0.0000 0.0000 -3.0612 0.0000
# 6 0.0000 0.0000 0.0000 0.0000 0.0000 12.6512
#
#
#
# Elastic Compliance Matrix: (Units=1/GPa)
#
#
# Indices 1 2 3 4 5 6 
#
# 1 0.018842 0.000009 -0.000717 0.000000 0.000000 0.000000
# 2 0.000009 0.014699 -0.002786 0.000000 0.000000 0.000000
# 3 -0.000717 -0.002786 0.005649 0.000000 0.000000 0.000000
# 4 0.000000 0.000000 0.000000 0.032385 0.000000 0.000000
# 5 0.000000 0.000000 0.000000 0.000000 -0.326669 0.000000
# 6 0.000000 0.000000 0.000000 0.000000 0.000000 0.079044
#
#
# Mechanical properties :
#
#
# Convention : Reuss Voigt Hill
#
# Bulk Modulus (GPa) = 31.05478 46.31818 38.68648
# Shear Modulus (GPa) = -31.58014 26.67538 -2.45238
#
# Velocity S-wave (km/s) = -3.72802 3.42630 -1.03888
# Velocity P-wave (km/s) = 2.20543 6.00307 3.94797
#
# Compressibility (1/GPa) = 0.03220117
#
# Stress axis : x y z
#
# Youngs Moduli (GPa) = 53.07157 68.03090 177.03314
#
# Poissons Ratio (x) = -0.00059 0.12695
# Poissons Ratio (y) = -0.00046 0.49325
# Poissons Ratio (z) = 0.03806 0.18955
#
# Static dielectric constant tensor:
#      x y z
#    x 1.826970 0.000000 0.000000 
#    y 0.000000 1.808900 0.000000 
#    z 0.000000 0.000000 1.857630 
# 
# From -- ./inp_files/12216.got.cif
#   From: 2010.05.17/outbox.cif.g08.bks.cpg/sg71_7_cif.got.tgz:12216.got - 2010.06.03 16:22:01.
