data_PCOD9517556
_publ_section_title
;
Structure prediction by ZEFSAII (Michael W. Deem and Ramdas Pophale) SiO2 
 PCOD9517556
Probable space group: I M M M
;
_chemical_formula_sum "Si O2"
_cell_formula_units_Z 72
_cell_length_a 7.315042
_cell_length_b 15.609512
_cell_length_c 29.998262
_cell_angle_alpha 90.000000
_cell_angle_beta 90.000000
_cell_angle_gamma 90.000000
_cell_volume 3425.328624
_symmetry_space_group_name_H-M "I M M M"
_symmetry_group_IT_number 71
_symmetry_cell_setting 'orthorhombic'
loop_
_space_group_symop_operation_xyz
x,y,z
-x,-y,z
x,-y,-z
-x,y,-z
-x,-y,-z
x,y,-z
-x,y,z
x,-y,z
1/2+x,1/2+y,1/2+z
1/2-x,1/2-y,1/2+z
1/2+x,1/2-y,1/2-z
1/2-x,1/2+y,1/2-z
1/2-x,1/2-y,1/2-z
1/2+x,1/2+y,1/2-z
1/2-x,1/2+y,1/2+z
1/2+x,1/2-y,1/2+z
loop_
_atom_site_type_symbol
_atom_site_label
_atom_site_fract_x
_atom_site_fract_y
_atom_site_fract_z
Si Si1 0.722395 0.402708 0.791097
Si Si2 0.791474 0.500000 0.445808
Si Si3 0.279004 0.403023 0.311370
Si Si4 0.775444 0.687694 0.448870
Si Si5 0.290673 0.731332 0.862802
O O1 0.500000 0.398808 0.790072
O O2 0.773006 0.500000 0.802877
O O3 0.778849 0.387081 0.739976
O O4 0.790029 0.334027 0.826862
O O5 0.797417 0.500000 0.500000
O O6 0.710850 0.592266 0.434569
O O7 0.000000 0.500000 0.429360
O O8 0.500000 0.401225 0.312744
O O9 0.223178 0.500000 0.324045
O O10 0.210265 0.325816 0.341252
O O11 0.722366 0.703675 0.500000
O O12 0.713219 0.755621 0.412220
O O13 0.000000 0.684752 0.448360
O O14 0.500000 0.703303 0.869042
#
# Coordination Sequence:
#
# PCOD9517556 Si02
#       5
#    16   8  16  16  16
#     4   8  15  29  45  61  85 116 144 169 210 264
#     4   7  10  18  30  44  71 109 131 145 189 249
#     4   9  18  31  44  59  87 122 142 161 209 269
#     4   8  14  23  35  56  86 112 133 165 212 254
#     4  10  18  26  45  70  84 105 146 188 209 232
#
# _framework density 21.019879
#
# number of rings (size 3 to 8) (size 9 to 14) (size 15 to 20)
#    0.000    3.444    0.000    3.333    1.556    0.444 
#    0.000    0.000    0.000    3.333    0.000    6.222 
#    0.000    0.000    0.000    2.000    0.000    2.222 
#
# Total GULP energy -200820.197787 kJ/mol
# GULP energy per Si atom -5578.338827 kJ/mol
# Density = 2.097204 g / cm^3
# Si number density = 21.019879 Si / 1000 Ang^3
#
#
#
# Elastic Constant Matrix: (Units=GPa)
#
#
# Indices 1 2 3 4 5 6 
#
# 1 85.2394 -7.7185 -4.3407 0.0000 0.0000 0.0000
# 2 -7.7185 55.2682 56.4121 0.0000 0.0000 0.0000
# 3 -4.3407 56.4121 107.2203 0.0000 0.0000 0.0000
# 4 0.0000 0.0000 0.0000 36.1839 0.0000 0.0000
# 5 0.0000 0.0000 0.0000 0.0000 -5.6033 0.0000
# 6 0.0000 0.0000 0.0000 0.0000 0.0000 3.0433
#
#
#
# Elastic Compliance Matrix: (Units=1/GPa)
#
#
# Indices 1 2 3 4 5 6 
#
# 1 0.011918 0.002531 -0.000849 0.000000 0.000000 0.000000
# 2 0.002531 0.039619 -0.020742 0.000000 0.000000 0.000000
# 3 -0.000849 -0.020742 0.020205 0.000000 0.000000 0.000000
# 4 0.000000 0.000000 0.000000 0.027637 0.000000 0.000000
# 5 0.000000 0.000000 0.000000 0.000000 -0.178466 0.000000
# 6 0.000000 0.000000 0.000000 0.000000 0.000000 0.328595
#
#
# Mechanical properties :
#
#
# Convention : Reuss Voigt Hill
#
# Bulk Modulus (GPa) = 29.74323 37.38150 33.56237
# Shear Modulus (GPa) = 16.73169 20.28311 18.50740
#
# Velocity S-wave (km/s) = 2.82440 3.10973 2.97049
# Velocity P-wave (km/s) = 4.98167 5.54224 5.26941
#
# Compressibility (1/GPa) = 0.03362110
#
# Stress axis : x y z
#
# Youngs Moduli (GPa) = 83.90939 25.24071 49.49190
#
# Poissons Ratio (x) = -0.06389 0.04203
# Poissons Ratio (y) = -0.21239 1.02657
# Poissons Ratio (z) = 0.07126 0.52355
#
# Static dielectric constant tensor:
#      x y z
#    x 1.841500 0.000000 0.000000 
#    y 0.000000 1.732150 0.000000 
#    z 0.000000 0.000000 1.770920 
# 
# From -- ./inp_files/6466.got.cif
#   From: 2010.05.17/outbox.cif.g08.bks.cpg/sg71_4_cif.got.tgz:6466.got - 2010.06.03 16:22:01.
