data_PCOD9517674
_publ_section_title
;
Structure prediction by ZEFSAII (Michael W. Deem and Ramdas Pophale) SiO2 
 PCOD9517674
Probable space group: I M M M
;
_chemical_formula_sum "Si O2"
_cell_formula_units_Z 96
_cell_length_a 29.408572
_cell_length_b 8.940253
_cell_length_c 27.046076
_cell_angle_alpha 90.000000
_cell_angle_beta 90.000000
_cell_angle_gamma 90.000000
_cell_volume 7110.956305
_symmetry_space_group_name_H-M "I M M M"
_symmetry_group_IT_number 71
_symmetry_cell_setting 'orthorhombic'
loop_
_space_group_symop_operation_xyz
x,y,z
-x,-y,z
x,-y,-z
-x,y,-z
-x,-y,-z
x,y,-z
-x,y,z
x,-y,z
1/2+x,1/2+y,1/2+z
1/2-x,1/2-y,1/2+z
1/2+x,1/2-y,1/2-z
1/2-x,1/2+y,1/2-z
1/2-x,1/2-y,1/2-z
1/2+x,1/2+y,1/2-z
1/2-x,1/2+y,1/2+z
1/2+x,1/2-y,1/2+z
loop_
_atom_site_type_symbol
_atom_site_label
_atom_site_fract_x
_atom_site_fract_y
_atom_site_fract_z
Si Si1 0.051773 0.321588 0.899204
Si Si2 0.639347 0.678222 0.555885
Si Si3 0.221682 0.820672 0.704727
Si Si4 0.552073 0.321904 0.709791
Si Si5 0.859748 0.321220 0.246688
Si Si6 0.693925 0.821642 0.355809
O O1 0.057998 0.500000 0.895218
O O2 0.090513 0.252317 0.933164
O O3 0.056573 0.249826 0.844774
O O4 0.000000 0.292616 0.916271
O O5 0.653855 0.714734 0.500000
O O6 0.635018 0.500000 0.560397
O O7 0.673664 0.737918 0.597397
O O8 0.250000 0.750000 0.750000
O O9 0.172040 0.750361 0.711093
O O10 0.253562 0.787251 0.657570
O O11 0.219752 0.000000 0.710168
O O12 0.500000 0.295300 0.726045
O O13 0.559342 0.500000 0.706411
O O14 0.590206 0.247450 0.743773
O O15 0.860595 0.500000 0.251412
O O16 0.835843 0.286000 0.193421
O O17 0.689825 0.000000 0.363324
#
# Coordination Sequence:
#
# PCOD9517674 Si02
#       6
#    16  16  16  16  16  16
#     4  10  20  33  47  60  75  99 133 173 216 259
#     4  11  23  34  45  61  79 103 135 172 215 257
#     4   9  17  28  43  63  84 104 129 161 202 246
#     4  10  19  29  43  62  83 109 138 169 207 246
#     4  10  18  28  44  65  85 106 134 164 201 246
#     4   9  18  31  45  61  80 104 132 165 205 249
#
# _framework density 13.500294
#
# number of rings (size 3 to 8) (size 9 to 14) (size 15 to 20)
#    0.000    2.167    1.667    3.500    0.000    7.000 
#    0.000    1.667    0.000    0.000    0.000    0.000 
#    0.000    0.000    0.000    0.000    0.000    0.833 
#
# Total GULP energy -267597.980227 kJ/mol
# GULP energy per Si atom -5574.957921 kJ/mol
# Density = 1.346957 g / cm^3
# Si number density = 13.500294 Si / 1000 Ang^3
#
#
#
# Elastic Constant Matrix: (Units=GPa)
#
#
# Indices 1 2 3 4 5 6 
#
# 1 91.6389 51.5727 50.1194 0.0000 0.0000 0.0000
# 2 51.5727 60.0147 37.4745 0.0000 0.0000 0.0000
# 3 50.1194 37.4745 50.2351 0.0000 0.0000 0.0000
# 4 0.0000 0.0000 0.0000 16.2529 0.0000 0.0000
# 5 0.0000 0.0000 0.0000 0.0000 16.9128 0.0000
# 6 0.0000 0.0000 0.0000 0.0000 0.0000 24.6387
#
#
#
# Elastic Compliance Matrix: (Units=1/GPa)
#
#
# Indices 1 2 3 4 5 6 
#
# 1 0.028281 -0.012513 -0.018882 0.000000 0.000000 0.000000
# 2 -0.012513 0.036728 -0.014915 0.000000 0.000000 0.000000
# 3 -0.018882 -0.014915 0.049871 0.000000 0.000000 0.000000
# 4 0.000000 0.000000 0.000000 0.061527 0.000000 0.000000
# 5 0.000000 0.000000 0.000000 0.000000 0.059127 0.000000
# 6 0.000000 0.000000 0.000000 0.000000 0.000000 0.040587
#
#
# Mechanical properties :
#
#
# Convention : Reuss Voigt Hill
#
# Bulk Modulus (GPa) = 44.92000 53.35800 49.13900
# Shear Modulus (GPa) = 13.29220 15.74235 14.51727
#
# Velocity S-wave (km/s) = 3.14122 3.41849 3.28278
# Velocity P-wave (km/s) = 6.81923 7.42905 7.13066
#
# Compressibility (1/GPa) = 0.02226180
#
# Stress axis : x y z
#
# Youngs Moduli (GPa) = 35.35914 27.22684 20.05186
#
# Poissons Ratio (x) = 0.34069 0.37861
# Poissons Ratio (y) = 0.44245 0.29907
# Poissons Ratio (z) = 0.66764 0.40608
#
# Static dielectric constant tensor:
#      x y z
#    x 1.474300 0.000000 0.000000 
#    y 0.000000 1.446470 0.000000 
#    z 0.000000 0.000000 1.415770 
# 
# From -- ./inp_files/13150.got.cif
#   From: 2010.05.17/outbox.cif.g08.bks.cpg/sg71_7_cif.got.tgz:13150.got - 2010.06.03 16:22:01.
