data_PCOD9517994
_publ_section_title
;
Structure prediction by ZEFSAII (Michael W. Deem and Ramdas Pophale) SiO2 
 PCOD9517994
Probable space group: I M M M
;
_chemical_formula_sum "Si O2"
_cell_formula_units_Z 104
_cell_length_a 7.470000
_cell_length_b 25.102532
_cell_length_c 28.215757
_cell_angle_alpha 90.000000
_cell_angle_beta 90.000000
_cell_angle_gamma 90.000000
_cell_volume 5290.903464
_symmetry_space_group_name_H-M "I M M M"
_symmetry_group_IT_number 71
_symmetry_cell_setting 'orthorhombic'
loop_
_space_group_symop_operation_xyz
x,y,z
-x,-y,z
x,-y,-z
-x,y,-z
-x,-y,-z
x,y,-z
-x,y,z
x,-y,z
1/2+x,1/2+y,1/2+z
1/2-x,1/2-y,1/2+z
1/2+x,1/2-y,1/2-z
1/2-x,1/2+y,1/2-z
1/2-x,1/2-y,1/2-z
1/2+x,1/2+y,1/2-z
1/2-x,1/2+y,1/2+z
1/2+x,1/2-y,1/2+z
loop_
_atom_site_type_symbol
_atom_site_label
_atom_site_fract_x
_atom_site_fract_y
_atom_site_fract_z
Si Si1 0.287880 0.650671 0.119406
Si Si2 0.217404 0.812025 0.284695
Si Si3 0.792680 0.694390 0.318621
Si Si4 0.286338 0.753555 0.448605
Si Si5 0.204303 0.360911 0.413972
Si Si6 0.718625 0.558812 0.946018
Si Si7 0.281159 0.063194 0.000000
O O1 0.500000 0.642197 0.122555
O O2 0.221512 0.650867 0.172693
O O3 0.263815 0.707041 0.093370
O O4 0.210962 0.605265 0.086542
O O5 0.280513 0.753165 0.303330
O O6 0.282569 0.831035 0.233569
O O7 0.000000 0.809452 0.282297
O O8 0.717507 0.658891 0.362298
O O9 0.000000 0.703639 0.331977
O O10 0.231321 0.775756 0.500000
O O11 0.500000 0.747646 0.448038
O O12 0.206932 0.695186 0.441678
O O13 0.277820 0.404700 0.451847
O O14 0.000000 0.378187 0.404174
O O15 0.500000 0.560509 0.946490
O O16 0.770117 0.500000 0.929903
O O17 0.776157 0.566161 0.000000
O O18 0.500000 0.065975 0.000000
O O19 0.232671 0.000000 0.000000
#
# Coordination Sequence:
#
# PCOD9517994 Si02
#       7
#    16  16  16  16  16  16   8
#     4  10  18  30  48  69  94 126 163 200 240 282
#     4   9  17  28  43  66  94 123 160 196 234 287
#     4   9  17  29  44  66  93 125 159 189 232 290
#     4  11  22  31  42  68 103 130 157 192 238 292
#     4  10  18  32  53  72  96 127 158 196 240 290
#     4   8  14  25  43  68  93 118 153 196 237 274
#     4   9  18  32  55  83 101 121 162 211 250 285
#
# _framework density 19.656376999999999
#
# number of rings (size 3 to 8) (size 9 to 14) (size 15 to 20)
#    0.000    2.538    2.308    1.385    0.000    2.769 
#    0.000    0.000    0.000    2.308    0.000    2.154 
#    0.000    0.000    0.000    0.000    0.000    0.000 
#
# Total GULP energy -289523.215289 kJ/mol
# GULP energy per Si atom -5567.754140 kJ/mol
# Density = 1.961164 g / cm^3
# Si number density = 19.656377 Si / 1000 Ang^3
#
#
#
# Elastic Constant Matrix: (Units=GPa)
#
#
# Indices 1 2 3 4 5 6 
#
# 1 54.7686 -2.2327 3.7833 0.0000 0.0000 0.0000
# 2 -2.2327 95.1573 61.8073 0.0000 0.0000 0.0000
# 3 3.7833 61.8073 158.4949 0.0000 0.0000 0.0000
# 4 0.0000 0.0000 0.0000 0.7991 0.0000 0.0000
# 5 0.0000 0.0000 0.0000 0.0000 11.8020 0.0000
# 6 0.0000 0.0000 0.0000 0.0000 0.0000 -21.9511
#
#
#
# Elastic Compliance Matrix: (Units=1/GPa)
#
#
# Indices 1 2 3 4 5 6 
#
# 1 0.018354 0.000958 -0.000812 0.000000 0.000000 0.000000
# 2 0.000958 0.014124 -0.005531 0.000000 0.000000 0.000000
# 3 -0.000812 -0.005531 0.008485 0.000000 0.000000 0.000000
# 4 0.000000 0.000000 0.000000 1.251460 0.000000 0.000000
# 5 0.000000 0.000000 0.000000 0.000000 0.084731 0.000000
# 6 0.000000 0.000000 0.000000 0.000000 0.000000 -0.045556
#
#
# Mechanical properties :
#
#
# Convention : Reuss Voigt Hill
#
# Bulk Modulus (GPa) = 33.11911 48.34853 40.73382
# Shear Modulus (GPa) = 3.69704 14.46752 9.08228
#
# Velocity S-wave (km/s) = 1.37292 2.71591 2.15187
# Velocity P-wave (km/s) = 4.40441 5.87241 5.19057
#
# Compressibility (1/GPa) = 0.03019405
#
# Stress axis : x y z
#
# Youngs Moduli (GPa) = 54.48483 70.80317 117.84879
#
# Poissons Ratio (x) = -0.06781 0.09565
# Poissons Ratio (y) = -0.05219 0.65177
# Poissons Ratio (z) = 0.04422 0.39158
#
# Static dielectric constant tensor:
#      x y z
#    x 1.767180 0.000000 0.000000 
#    y 0.000000 1.680490 0.000000 
#    z 0.000000 0.000000 1.750180 
# 
# From -- ./inp_files/63535.got.cif
#   From: 2010.05.17/outbox.cif.g08.bks.cpg/sg71_32_cif.got.tgz:63535.got - 2010.06.03 16:22:01.
