data_PCOD9517003
_publ_section_title
;
Structure prediction by ZEFSAII (Michael W. Deem and Ramdas Pophale) SiO2 
 PCOD9517003
Probable space group: F D D D
;
_chemical_formula_sum "Si O2"
_cell_formula_units_Z 104
_cell_length_a 17.785151
_cell_length_b 26.614134
_cell_length_c 9.394056
_cell_angle_alpha 90.000000
_cell_angle_beta 90.000000
_cell_angle_gamma 90.000000
_cell_volume 4446.548573
_symmetry_space_group_name_H-M "F D D D"
_symmetry_group_IT_number 70
_space_group.IT_coordinate_system_code '2'
_symmetry_cell_setting 'orthorhombic'
loop_
_space_group_symop_operation_xyz
x,y,z
1/4-x,1/4-y,z
x,1/4-y,1/4-z
1/4-x,y,1/4-z
-x,-y,-z
3/4+x,3/4+y,-z
-x,3/4+y,3/4+z
3/4+x,-y,3/4+z
x,1/2+y,1/2+z
1/4-x,3/4-y,1/2+z
x,3/4-y,3/4-z
1/4-x,1/2+y,3/4-z
-x,1/2-y,1/2-z
3/4+x,1/4+y,1/2-z
-x,1/4+y,1/4+z
3/4+x,1/2-y,1/4+z
1/2+x,y,1/2+z
3/4-x,1/4-y,1/2+z
1/2+x,1/4-y,3/4-z
3/4-x,y,3/4-z
1/2-x,-y,1/2-z
1/4+x,3/4+y,1/2-z
1/2-x,3/4+y,1/4+z
1/4+x,-y,1/4+z
1/2+x,1/2+y,z
3/4-x,3/4-y,z
1/2+x,3/4-y,1/4-z
3/4-x,1/2+y,1/4-z
1/2-x,1/2-y,-z
1/4+x,1/4+y,-z
1/2-x,1/4+y,3/4+z
1/4+x,1/2-y,3/4+z
loop_
_atom_site_type_symbol
_atom_site_label
_atom_site_fract_x
_atom_site_fract_y
_atom_site_fract_z
Si Si1 0.694564 0.363913 0.034281
Si Si2 0.875000 0.375000 0.375000
Si Si3 0.512884 0.529426 0.851596
Si Si4 0.434191 0.452521 0.647252
O O1 0.625000 0.344267 0.125000
O O2 0.725092 0.415659 0.103182
O O3 0.761653 0.323915 0.034982
O O4 0.669551 0.375000 0.875000
O O5 0.828154 0.411285 0.477555
O O6 0.473730 0.498663 0.725579
O O7 0.602517 0.534750 0.836174
O O8 0.500000 0.500000 0.000000
#
# Coordination Sequence:
#
# PCOD9517003 Si02
#       4
#    32   8  32  32
#     4  12  30  50  75 111 157 204 264 331 392 463
#     4  12  20  44  78 108 144 204 244 316 372 464
#     4  12  24  46  80 114 151 205 256 318 386 475
#     4  12  25  45  77 109 156 200 260 309 394 457
#
# _framework density 23.388926999999999
#
# number of rings (size 3 to 8) (size 9 to 14) (size 15 to 20)
#    0.000    0.000    6.154    1.846   10.769    3.692 
#    0.000    0.000    0.000    0.000    0.000    0.000 
#    0.000    0.000    0.000    0.000    0.000    0.000 
#
# Total GULP energy -145849.508994 kJ/mol
# GULP energy per Si atom -5609.596500 kJ/mol
# Density = 2.333569 g / cm^3
# Si number density = 23.388927 Si / 1000 Ang^3
#
#
#
# Elastic Constant Matrix: (Units=GPa)
#
#
# Indices 1 2 3 4 5 6 
#
# 1 146.7714 19.1210 6.5485 0.0000 0.0000 0.0000
# 2 19.1210 81.0310 -19.7359 0.0000 0.0000 0.0000
# 3 6.5485 -19.7359 52.1500 0.0000 0.0000 0.0000
# 4 0.0000 0.0000 0.0000 22.7768 0.0000 0.0000
# 5 0.0000 0.0000 0.0000 0.0000 39.3127 0.0000
# 6 0.0000 0.0000 0.0000 0.0000 0.0000 -0.5400
#
#
#
# Elastic Compliance Matrix: (Units=1/GPa)
#
#
# Indices 1 2 3 4 5 6 
#
# 1 0.007163 -0.002103 -0.001695 0.000000 0.000000 0.000000
# 2 -0.002103 0.014211 0.005642 0.000000 0.000000 0.000000
# 3 -0.001695 0.005642 0.021524 0.000000 0.000000 0.000000
# 4 0.000000 0.000000 0.000000 0.043904 0.000000 0.000000
# 5 0.000000 0.000000 0.000000 0.000000 0.025437 0.000000
# 6 0.000000 0.000000 0.000000 0.000000 0.000000 -1.851793
#
#
# Mechanical properties :
#
#
# Convention : Reuss Voigt Hill
#
# Bulk Modulus (GPa) = 21.46582 32.42439 26.94511
# Shear Modulus (GPa) = -2.89400 30.57782 13.84191
#
# Velocity S-wave (km/s) = -1.11356 3.61967 2.43536
# Velocity P-wave (km/s) = 2.74669 5.60023 4.41061
#
# Compressibility (1/GPa) = 0.04658568
#
# Stress axis : x y z
#
# Youngs Moduli (GPa) = 139.60718 70.36559 46.46052
#
# Poissons Ratio (x) = 0.14799 0.07877
# Poissons Ratio (y) = 0.29362 -0.26215
# Poissons Ratio (z) = 0.23669 -0.39703
#
# Static dielectric constant tensor:
#      x y z
#    x 1.831970 0.000000 0.000000 
#    y 0.000000 1.887210 0.000000 
#    z 0.000000 0.000000 1.990840 
# 
# From -- ./inp_files/8195.got.cif
#   From: 2010.05.17/outbox.cif.g08.bks.cpg/sg70_5_cif.got.tgz:8195.got - 2010.06.03 15:57:51.
