data_PCOD9517485
_publ_section_title
;
Structure prediction by ZEFSAII (Michael W. Deem and Ramdas Pophale) SiO2 
 PCOD9517485
Probable space group: I M M M
;
_chemical_formula_sum "Si O2"
_cell_formula_units_Z 64
_cell_length_a 14.656155
_cell_length_b 13.871466
_cell_length_c 15.141756
_cell_angle_alpha 90.000000
_cell_angle_beta 90.000000
_cell_angle_gamma 90.000000
_cell_volume 3078.354665
_symmetry_space_group_name_H-M "I M M M"
_symmetry_group_IT_number 71
_symmetry_cell_setting 'orthorhombic'
loop_
_space_group_symop_operation_xyz
x,y,z
-x,-y,z
x,-y,-z
-x,y,-z
-x,-y,-z
x,y,-z
-x,y,z
x,-y,z
1/2+x,1/2+y,1/2+z
1/2-x,1/2-y,1/2+z
1/2+x,1/2-y,1/2-z
1/2-x,1/2+y,1/2-z
1/2-x,1/2-y,1/2-z
1/2+x,1/2+y,1/2-z
1/2-x,1/2+y,1/2+z
1/2+x,1/2-y,1/2+z
loop_
_atom_site_type_symbol
_atom_site_label
_atom_site_fract_x
_atom_site_fract_y
_atom_site_fract_z
Si Si1 0.000000 0.385165 0.228894
Si Si2 0.500000 0.770818 0.096106
Si Si3 0.809669 0.708588 0.833138
Si Si4 0.636340 0.606274 0.147720
Si Si5 0.106476 0.106327 0.861050
O O1 0.907357 0.337136 0.191189
O O2 0.000000 0.500000 0.217327
O O3 0.000000 0.352113 0.330438
O O4 0.583750 0.696946 0.108481
O O5 0.500000 0.814137 0.000000
O O6 0.750000 0.750000 0.750000
O O7 0.742638 0.626994 0.868825
O O8 0.833245 0.803355 0.889826
O O9 0.610334 0.500000 0.115088
O O10 0.613295 0.606452 0.253221
O O11 0.000000 0.118683 0.883895
O O12 0.136258 0.000000 0.890347
#
# Coordination Sequence:
#
# PCOD9517485 Si02
#       5
#     8   8  16  16  16
#     4  12  22  36  53  78 111 145 175 216 275 331
#     4  12  23  37  52  71 105 149 185 220 256 304
#     4  10  17  31  50  74 106 135 166 219 272 321
#     4  10  18  31  49  73  98 129 172 218 264 315
#     4   9  14  24  45  67  96 128 154 197 254 303
#
# _framework density 20.790327999999999
#
# number of rings (size 3 to 8) (size 9 to 14) (size 15 to 20)
#    0.000    1.750    7.500    1.125    0.000    2.250 
#    0.000    0.000    0.000    0.000    0.000    0.875 
#    0.000    3.000    0.000    5.000    0.000    0.000 
#
# Total GULP energy -178394.481233 kJ/mol
# GULP energy per Si atom -5574.827539 kJ/mol
# Density = 2.074301 g / cm^3
# Si number density = 20.790328 Si / 1000 Ang^3
#
#
#
# Elastic Constant Matrix: (Units=GPa)
#
#
# Indices 1 2 3 4 5 6 
#
# 1 138.6525 40.6945 5.0140 0.0000 0.0000 0.0000
# 2 40.6945 127.3749 0.2506 0.0000 0.0000 0.0000
# 3 5.0140 0.2506 35.8262 0.0000 0.0000 0.0000
# 4 0.0000 0.0000 0.0000 -1.6945 0.0000 0.0000
# 5 0.0000 0.0000 0.0000 0.0000 -9.0911 0.0000
# 6 0.0000 0.0000 0.0000 0.0000 0.0000 25.0184
#
#
#
# Elastic Compliance Matrix: (Units=1/GPa)
#
#
# Indices 1 2 3 4 5 6 
#
# 1 0.008002 -0.002554 -0.001102 0.000000 0.000000 0.000000
# 2 -0.002554 0.008666 0.000297 0.000000 0.000000 0.000000
# 3 -0.001102 0.000297 0.028065 0.000000 0.000000 0.000000
# 4 0.000000 0.000000 0.000000 -0.590150 0.000000 0.000000
# 5 0.000000 0.000000 0.000000 0.000000 -0.109998 0.000000
# 6 0.000000 0.000000 0.000000 0.000000 0.000000 0.039971
#
#
# Mechanical properties :
#
#
# Convention : Reuss Voigt Hill
#
# Bulk Modulus (GPa) = 26.30616 43.75242 35.02929
# Shear Modulus (GPa) = -8.38849 19.90621 5.75886
#
# Velocity S-wave (km/s) = -2.01086 3.09767 1.66613
# Velocity P-wave (km/s) = 2.69984 5.82102 4.53726
#
# Compressibility (1/GPa) = 0.03801391
#
# Stress axis : x y z
#
# Youngs Moduli (GPa) = 124.97173 115.38924 35.63200
#
# Poissons Ratio (x) = 0.29474 0.03927
# Poissons Ratio (y) = 0.31922 -0.01058
# Poissons Ratio (z) = 0.13772 -0.03425
#
# Static dielectric constant tensor:
#      x y z
#    x 1.775900 0.000000 0.000000 
#    y 0.000000 1.753750 0.000000 
#    z 0.000000 0.000000 1.795010 
# 
# From -- ./inp_files/36012.got.cif
#   From: 2010.05.17/outbox.cif.g08.bks.cpg/sg71_19_cif.got.tgz:36012.got - 2010.06.03 16:22:01.
