data_PCOD9517877
_publ_section_title
;
Structure prediction by ZEFSAII (Michael W. Deem and Ramdas Pophale) SiO2 
 PCOD9517877
Probable space group: I M M M
;
_chemical_formula_sum "Si O2"
_cell_formula_units_Z 104
_cell_length_a 22.252771
_cell_length_b 29.289816
_cell_length_c 7.417364
_cell_angle_alpha 90.000000
_cell_angle_beta 90.000000
_cell_angle_gamma 90.000000
_cell_volume 4834.486304
_symmetry_space_group_name_H-M "I M M M"
_symmetry_group_IT_number 71
_symmetry_cell_setting 'orthorhombic'
loop_
_space_group_symop_operation_xyz
x,y,z
-x,-y,z
x,-y,-z
-x,y,-z
-x,-y,-z
x,y,-z
-x,y,z
x,-y,z
1/2+x,1/2+y,1/2+z
1/2-x,1/2-y,1/2+z
1/2+x,1/2-y,1/2-z
1/2-x,1/2+y,1/2-z
1/2-x,1/2-y,1/2-z
1/2+x,1/2+y,1/2-z
1/2-x,1/2+y,1/2+z
1/2+x,1/2-y,1/2+z
loop_
_atom_site_type_symbol
_atom_site_label
_atom_site_fract_x
_atom_site_fract_y
_atom_site_fract_z
Si Si1 0.625113 0.399504 0.209829
Si Si2 0.242402 0.948246 0.284776
Si Si3 0.569333 0.205180 0.780018
Si Si4 0.845249 0.625819 0.283653
Si Si5 0.000000 0.947630 0.783656
Si Si6 0.431659 0.689990 0.219960
Si Si7 0.431251 0.951626 0.219383
O O1 0.677240 0.431761 0.285456
O O2 0.560571 0.423470 0.219922
O O3 0.614298 0.348597 0.285260
O O4 0.640970 0.393236 0.000000
O O5 0.240109 0.953198 0.500000
O O6 0.285626 0.904180 0.254143
O O7 0.258193 0.000000 0.215812
O O8 0.500000 0.191676 0.726332
O O9 0.626033 0.174038 0.721089
O O10 0.578923 0.257792 0.725586
O O11 0.568082 0.203736 0.000000
O O12 0.845576 0.629225 0.500000
O O13 0.895648 0.590979 0.215691
O O14 0.000000 0.000000 0.724027
O O15 0.000000 0.946263 0.000000
O O16 0.500000 0.677831 0.273788
O O17 0.430749 0.689353 0.000000
O O18 0.500000 0.950088 0.273937
O O19 0.404493 0.000000 0.276618
O O20 0.430229 0.950639 0.000000
#
# Coordination Sequence:
#
# PCOD9517877 Si02
#       7
#    16  16  16  16   8  16  16
#     4  10  19  35  58  78  97 132 180 213 240 295
#     4  10  22  37  50  67  96 135 176 217 255 293
#     4   8  14  25  46  79 110 128 156 209 261 301
#     4  10  18  29  48  72  97 130 168 205 250 304
#     4  11  23  35  51  81 115 135 153 201 270 317
#     4   8  13  25  49  80 104 123 157 207 255 293
#     4   8  13  21  36  61  89 114 149 200 248 288
#
# _framework density 21.51211
#
# number of rings (size 3 to 8) (size 9 to 14) (size 15 to 20)
#    0.000    2.846    0.769    3.000    0.000    4.615 
#    0.000    0.769    0.000    2.769    0.000    5.385 
#    0.000    0.000    0.000    0.000    0.000    0.000 
#
# Total GULP energy -289550.822724 kJ/mol
# GULP energy per Si atom -5568.285052 kJ/mol
# Density = 2.146315 g / cm^3
# Si number density = 21.512110 Si / 1000 Ang^3
#
#
#
# Elastic Constant Matrix: (Units=GPa)
#
#
# Indices 1 2 3 4 5 6 
#
# 1 110.6463 70.0058 -3.7176 0.0000 0.0000 0.0000
# 2 70.0058 144.4306 4.8229 0.0000 0.0000 0.0000
# 3 -3.7176 4.8229 72.6538 0.0000 0.0000 0.0000
# 4 0.0000 0.0000 0.0000 1.7325 0.0000 0.0000
# 5 0.0000 0.0000 0.0000 0.0000 8.6756 0.0000
# 6 0.0000 0.0000 0.0000 0.0000 0.0000 34.2773
#
#
#
# Elastic Compliance Matrix: (Units=1/GPa)
#
#
# Indices 1 2 3 4 5 6 
#
# 1 0.013122 -0.006397 0.001096 0.000000 0.000000 0.000000
# 2 -0.006397 0.010058 -0.000995 0.000000 0.000000 0.000000
# 3 0.001096 -0.000995 0.013886 0.000000 0.000000 0.000000
# 4 0.000000 0.000000 0.000000 0.577212 0.000000 0.000000
# 5 0.000000 0.000000 0.000000 0.000000 0.115265 0.000000
# 6 0.000000 0.000000 0.000000 0.000000 0.000000 0.029174
#
#
# Mechanical properties :
#
#
# Convention : Reuss Voigt Hill
#
# Bulk Modulus (GPa) = 40.85960 52.21699 46.53829
# Shear Modulus (GPa) = 6.41465 26.04506 16.22986
#
# Velocity S-wave (km/s) = 1.72869 3.48331 2.74971
# Velocity P-wave (km/s) = 4.79786 6.36427 5.63575
#
# Compressibility (1/GPa) = 0.02447405
#
# Stress axis : x y z
#
# Youngs Moduli (GPa) = 76.20858 99.42823 72.01475
#
# Poissons Ratio (x) = 0.63602 -0.07893
# Poissons Ratio (y) = 0.48749 0.07165
# Poissons Ratio (z) = -0.08353 0.09893
#
# Static dielectric constant tensor:
#      x y z
#    x 1.791270 0.000000 0.000000 
#    y 0.000000 1.817240 0.000000 
#    z 0.000000 0.000000 1.835490 
# 
# From -- ./inp_files/11462.got.cif
#   From: 2010.05.17/outbox.cif.g08.bks.cpg/sg71_6_cif.got.tgz:11462.got - 2010.06.03 16:22:01.
