data_PCOD9517000
_publ_section_title
;
Structure prediction by ZEFSAII (Michael W. Deem and Ramdas Pophale) SiO2 
 PCOD9517000
Probable space group: F D D D
;
_chemical_formula_sum "Si O2"
_cell_formula_units_Z 176
_cell_length_a 24.689745
_cell_length_b 25.846225
_cell_length_c 13.810893
_cell_angle_alpha 90.000000
_cell_angle_beta 90.000000
_cell_angle_gamma 90.000000
_cell_volume 8813.237745
_symmetry_space_group_name_H-M "F D D D"
_symmetry_group_IT_number 70
_space_group.IT_coordinate_system_code '2'
_symmetry_cell_setting 'orthorhombic'
loop_
_space_group_symop_operation_xyz
x,y,z
1/4-x,1/4-y,z
x,1/4-y,1/4-z
1/4-x,y,1/4-z
-x,-y,-z
3/4+x,3/4+y,-z
-x,3/4+y,3/4+z
3/4+x,-y,3/4+z
x,1/2+y,1/2+z
1/4-x,3/4-y,1/2+z
x,3/4-y,3/4-z
1/4-x,1/2+y,3/4-z
-x,1/2-y,1/2-z
3/4+x,1/4+y,1/2-z
-x,1/4+y,1/4+z
3/4+x,1/2-y,1/4+z
1/2+x,y,1/2+z
3/4-x,1/4-y,1/2+z
1/2+x,1/4-y,3/4-z
3/4-x,y,3/4-z
1/2-x,-y,1/2-z
1/4+x,3/4+y,1/2-z
1/2-x,3/4+y,1/4+z
1/4+x,-y,1/4+z
1/2+x,1/2+y,z
3/4-x,3/4-y,z
1/2+x,3/4-y,1/4-z
3/4-x,1/2+y,1/4-z
1/2-x,1/2-y,-z
1/4+x,1/4+y,-z
1/2-x,1/4+y,3/4+z
1/4+x,1/2-y,3/4+z
loop_
_atom_site_type_symbol
_atom_site_label
_atom_site_fract_x
_atom_site_fract_y
_atom_site_fract_z
Si Si1 0.164869 0.752413 0.215797
Si Si2 0.375992 0.315150 0.104698
Si Si3 0.773609 0.306321 0.471731
Si Si4 0.429621 0.122100 0.738845
Si Si5 0.375000 0.549267 0.875000
Si Si6 0.966798 0.981728 0.769147
O O1 0.125000 0.739461 0.125000
O O2 0.141538 0.723191 0.309716
O O3 0.166826 0.814746 0.224910
O O4 0.230128 0.740960 0.223567
O O5 0.375000 0.375000 0.135958
O O6 0.433334 0.296940 0.063467
O O7 0.333356 0.310117 0.015579
O O8 0.750000 0.250000 0.500000
O O9 0.737934 0.352719 0.514495
O O10 0.767400 0.307795 0.355642
O O11 0.420784 0.125000 0.625000
O O12 0.391143 0.163732 0.788033
O O13 0.424748 0.516911 0.830464
#
# Coordination Sequence:
#
# PCOD9517000 Si02
#       6
#    32  32  32  32  16  32
#     4  12  27  47  67  95 140 190 237 280 332 423
#     4  12  26  44  70 102 136 182 236 289 356 416
#     4  12  20  40  69 106 142 169 218 296 364 421
#     4  12  22  38  68 100 138 182 223 279 351 410
#     4  12  22  40  69 108 139 172 232 290 344 426
#     4  12  23  42  71 106 142 174 222 292 362 421
#
# _framework density 19.96996
#
# number of rings (size 3 to 8) (size 9 to 14) (size 15 to 20)
#    0.000    0.000    8.182    2.182    0.000    1.818 
#    0.000    0.000    4.000    0.000    0.000    0.000 
#    0.000    0.000    0.000    0.000    0.000    0.000 
#
# Total GULP energy -245572.578861 kJ/mol
# GULP energy per Si atom -5581.194974 kJ/mol
# Density = 1.992451 g / cm^3
# Si number density = 19.969960 Si / 1000 Ang^3
#
#
#
# Elastic Constant Matrix: (Units=GPa)
#
#
# Indices 1 2 3 4 5 6 
#
# 1 118.1491 37.1910 59.0023 0.0000 0.0000 0.0000
# 2 37.1910 115.4904 24.8000 0.0000 0.0000 0.0000
# 3 59.0023 24.8000 93.8033 0.0000 0.0000 0.0000
# 4 0.0000 0.0000 0.0000 31.6809 0.0000 0.0000
# 5 0.0000 0.0000 0.0000 0.0000 38.1785 0.0000
# 6 0.0000 0.0000 0.0000 0.0000 0.0000-1144.3246
#
#
#
# Elastic Compliance Matrix: (Units=1/GPa)
#
#
# Indices 1 2 3 4 5 6 
#
# 1 0.013028 -0.002582 -0.007512 0.000000 0.000000 0.000000
# 2 -0.002582 0.009692 -0.000938 0.000000 0.000000 0.000000
# 3 -0.007512 -0.000938 0.015634 0.000000 0.000000 0.000000
# 4 0.000000 0.000000 0.000000 0.031565 0.000000 0.000000
# 5 0.000000 0.000000 0.000000 0.000000 0.026193 0.000000
# 6 0.000000 0.000000 0.000000 0.000000 0.000000 -0.000874
#
#
# Mechanical properties :
#
#
# Convention : Reuss Voigt Hill
#
# Bulk Modulus (GPa) = 61.39179 63.26994 62.33087
# Shear Modulus (GPa) = 40.73934 -201.12974 -80.19520
#
# Velocity S-wave (km/s) = 4.52157 -10.04663 -6.34390
# Velocity P-wave (km/s) = 7.62025 10.14043 4.73076
#
# Compressibility (1/GPa) = 0.01628882
#
# Stress axis : x y z
#
# Youngs Moduli (GPa) = 76.75700 103.18066 63.96462
#
# Poissons Ratio (x) = 0.26644 0.48050
# Poissons Ratio (y) = 0.19821 0.06000
# Poissons Ratio (z) = 0.57660 0.09679
#
# Static dielectric constant tensor:
#      x y z
#    x 1.758120 0.000000 0.000000 
#    y 0.000000 1.733060 0.000000 
#    z 0.000000 0.000000 1.703150 
# 
# From -- ./inp_files/20950.got.cif
#   From: 2010.05.17/outbox.cif.g08.bks.cpg/sg70_11_cif.got.tgz:20950.got - 2010.06.03 15:57:51.
