data_PCOD9517057
_publ_section_title
;
Structure prediction by ZEFSAII (Michael W. Deem and Ramdas Pophale) SiO2 
 PCOD9517057
Probable space group: F D D D
;
_chemical_formula_sum "Si O2"
_cell_formula_units_Z 104
_cell_length_a 14.548693
_cell_length_b 29.505171
_cell_length_c 10.810142
_cell_angle_alpha 90.000000
_cell_angle_beta 90.000000
_cell_angle_gamma 90.000000
_cell_volume 4640.379660
_symmetry_space_group_name_H-M "F D D D"
_symmetry_group_IT_number 70
_space_group.IT_coordinate_system_code '2'
_symmetry_cell_setting 'orthorhombic'
loop_
_space_group_symop_operation_xyz
x,y,z
1/4-x,1/4-y,z
x,1/4-y,1/4-z
1/4-x,y,1/4-z
-x,-y,-z
3/4+x,3/4+y,-z
-x,3/4+y,3/4+z
3/4+x,-y,3/4+z
x,1/2+y,1/2+z
1/4-x,3/4-y,1/2+z
x,3/4-y,3/4-z
1/4-x,1/2+y,3/4-z
-x,1/2-y,1/2-z
3/4+x,1/4+y,1/2-z
-x,1/4+y,1/4+z
3/4+x,1/2-y,1/4+z
1/2+x,y,1/2+z
3/4-x,1/4-y,1/2+z
1/2+x,1/4-y,3/4-z
3/4-x,y,3/4-z
1/2-x,-y,1/2-z
1/4+x,3/4+y,1/2-z
1/2-x,3/4+y,1/4+z
1/4+x,-y,1/4+z
1/2+x,1/2+y,z
3/4-x,3/4-y,z
1/2+x,3/4-y,1/4-z
3/4-x,1/2+y,1/4-z
1/2-x,1/2-y,-z
1/4+x,1/4+y,-z
1/2-x,1/4+y,3/4+z
1/4+x,1/2-y,3/4+z
loop_
_atom_site_type_symbol
_atom_site_label
_atom_site_fract_x
_atom_site_fract_y
_atom_site_fract_z
Si Si1 0.814797 0.625000 0.125000
Si Si2 0.546080 0.211404 0.526734
Si Si3 0.625000 0.125000 0.125000
Si Si4 0.939816 0.450345 0.687740
Si Si5 0.125000 0.408957 0.625000
O O1 0.750806 0.583235 0.082886
O O2 0.876709 0.617289 0.246000
O O3 0.625000 0.225206 0.625000
O O4 0.600671 0.202908 0.399357
O O5 0.469577 0.250533 0.510863
O O6 0.676746 0.160667 0.213381
O O7 0.030465 0.436271 0.611698
#
# Coordination Sequence:
#
# PCOD9517057 Si02
#       5
#    16  32   8  32  16
#     4  12  26  42  75 107 154 198 258 309 389 446
#     4  12  24  46  76 109 143 201 251 318 371 460
#     4  12  30  50  68 112 156 198 244 328 382 458
#     4  12  26  46  74 104 151 191 256 310 383 444
#     4  12  24  43  66 107 140 197 248 311 368 458
#
# _framework density 22.411959
#
# number of rings (size 3 to 8) (size 9 to 14) (size 15 to 20)
#    0.000    0.000    4.615    6.000    0.000    2.462 
#    0.000    0.000    0.000    0.000    0.000    0.000 
#    0.000    0.000    0.000    0.000    0.000    0.000 
#
# Total GULP energy -145263.178894 kJ/mol
# GULP energy per Si atom -5587.045342 kJ/mol
# Density = 2.236095 g / cm^3
# Si number density = 22.411959 Si / 1000 Ang^3
#
#
#
# Elastic Constant Matrix: (Units=GPa)
#
#
# Indices 1 2 3 4 5 6 
#
# 1 102.3317 74.8262 68.3430 0.0000 0.0000 0.0000
# 2 74.8262 186.3329 75.0435 0.0000 0.0000 0.0000
# 3 68.3430 75.0435 146.0770 0.0000 0.0000 0.0000
# 4 0.0000 0.0000 0.0000 2.0733 0.0000 0.0000
# 5 0.0000 0.0000 0.0000 0.0000 -12.1895 0.0000
# 6 0.0000 0.0000 0.0000 0.0000 0.0000 -82.8765
#
#
#
# Elastic Compliance Matrix: (Units=1/GPa)
#
#
# Indices 1 2 3 4 5 6 
#
# 1 0.016755 -0.004503 -0.005526 0.000000 0.000000 0.000000
# 2 -0.004503 0.007977 -0.001991 0.000000 0.000000 0.000000
# 3 -0.005526 -0.001991 0.010454 0.000000 0.000000 0.000000
# 4 0.000000 0.000000 0.000000 0.482321 0.000000 0.000000
# 5 0.000000 0.000000 0.000000 0.000000 -0.082038 0.000000
# 6 0.000000 0.000000 0.000000 0.000000 0.000000 -0.012066
#
#
# Mechanical properties :
#
#
# Convention : Reuss Voigt Hill
#
# Bulk Modulus (GPa) = 89.71686 96.79633 93.25660
# Shear Modulus (GPa) = 11.08257 -4.16328 3.45964
#
# Velocity S-wave (km/s) = 2.22613 -1.36442 1.24379
# Velocity P-wave (km/s) = 6.83559 6.38758 6.61538
#
# Compressibility (1/GPa) = 0.01114618
#
# Stress axis : x y z
#
# Youngs Moduli (GPa) = 59.68300 125.36099 95.65831
#
# Poissons Ratio (x) = 0.56450 0.52858
# Poissons Ratio (y) = 0.26875 0.19048
# Poissons Ratio (z) = 0.32979 0.24962
#
# Static dielectric constant tensor:
#      x y z
#    x 1.835130 0.000000 0.000000 
#    y 0.000000 1.887220 0.000000 
#    z 0.000000 0.000000 1.868670 
# 
# From -- ./inp_files/15098.got.cif
#   From: 2010.05.17/outbox.cif.g08.bks.cpg/sg70_8_cif.got.tgz:15098.got - 2010.06.03 15:57:51.
