data_PCOD9517141
_publ_section_title
;
Structure prediction by ZEFSAII (Michael W. Deem and Ramdas Pophale) SiO2 
 PCOD9517141
Probable space group: F D D D
;
_chemical_formula_sum "Si O2"
_cell_formula_units_Z 136
_cell_length_a 10.871071
_cell_length_b 14.183537
_cell_length_c 40.689644
_cell_angle_alpha 90.000000
_cell_angle_beta 90.000000
_cell_angle_gamma 90.000000
_cell_volume 6273.945883
_symmetry_space_group_name_H-M "F D D D"
_symmetry_group_IT_number 70
_space_group.IT_coordinate_system_code '2'
_symmetry_cell_setting 'orthorhombic'
loop_
_space_group_symop_operation_xyz
x,y,z
1/4-x,1/4-y,z
x,1/4-y,1/4-z
1/4-x,y,1/4-z
-x,-y,-z
3/4+x,3/4+y,-z
-x,3/4+y,3/4+z
3/4+x,-y,3/4+z
x,1/2+y,1/2+z
1/4-x,3/4-y,1/2+z
x,3/4-y,3/4-z
1/4-x,1/2+y,3/4-z
-x,1/2-y,1/2-z
3/4+x,1/4+y,1/2-z
-x,1/4+y,1/4+z
3/4+x,1/2-y,1/4+z
1/2+x,y,1/2+z
3/4-x,1/4-y,1/2+z
1/2+x,1/4-y,3/4-z
3/4-x,y,3/4-z
1/2-x,-y,1/2-z
1/4+x,3/4+y,1/2-z
1/2-x,3/4+y,1/4+z
1/4+x,-y,1/4+z
1/2+x,1/2+y,z
3/4-x,3/4-y,z
1/2+x,3/4-y,1/4-z
3/4-x,1/2+y,1/4-z
1/2-x,1/2-y,-z
1/4+x,1/4+y,-z
1/2-x,1/4+y,3/4+z
1/4+x,1/2-y,3/4+z
loop_
_atom_site_type_symbol
_atom_site_label
_atom_site_fract_x
_atom_site_fract_y
_atom_site_fract_z
Si Si1 0.989691 0.516543 0.538484
Si Si2 0.375000 0.375000 0.875000
Si Si3 0.741585 0.725265 0.184710
Si Si4 0.485460 0.011405 0.164614
Si Si5 0.012158 0.491164 0.911192
O O1 0.870129 0.484240 0.559324
O O2 0.000000 0.500000 0.500000
O O3 0.116562 0.476710 0.553653
O O4 0.993617 0.629578 0.544261
O O5 0.290520 0.311714 0.851904
O O6 0.872779 0.773376 0.182749
O O7 0.625535 0.983493 0.172975
O O8 0.483462 0.126202 0.162487
O O9 0.468597 0.978882 0.126807
#
# Coordination Sequence:
#
# PCOD9517141 Si02
#       5
#    32   8  32  32  32
#     4   9  16  24  32  48  74 101 124 140 166 214
#     4   8  12  20  36  58  72  84 108 142 184 216
#     4   9  15  23  38  53  72  98 119 145 180 216
#     4   8  13  20  35  53  75  93 107 141 181 220
#     4   8  12  21  35  55  71  88 114 142 185 217
#
# _framework density 21.676946999999998
#
# number of rings (size 3 to 8) (size 9 to 14) (size 15 to 20)
#    0.000    3.765    0.000    5.647    0.000    0.000 
#    0.000    1.176    0.000    0.000    0.000    0.000 
#    0.000   90.353    0.000    0.000    0.000    0.000 
#
# Total GULP energy -189463.455334 kJ/mol
# GULP energy per Si atom -5572.454569 kJ/mol
# Density = 2.162761 g / cm^3
# Si number density = 21.676947 Si / 1000 Ang^3
#
#
#
# Elastic Constant Matrix: (Units=GPa)
#
#
# Indices 1 2 3 4 5 6 
#
# 1 282.6568 16.7527 102.0825 0.0000 0.0000 0.0000
# 2 16.7527 73.1904 23.7741 0.0000 0.0000 0.0000
# 3 102.0825 23.7741 135.5140 0.0000 0.0000 0.0000
# 4 0.0000 0.0000 0.0000 -14.6905 0.0000 0.0000
# 5 0.0000 0.0000 0.0000 0.0000 3.1192 0.0000
# 6 0.0000 0.0000 0.0000 0.0000 0.0000 -19.8581
#
#
#
# Elastic Compliance Matrix: (Units=1/GPa)
#
#
# Indices 1 2 3 4 5 6 
#
# 1 0.004861 0.000081 -0.003676 0.000000 0.000000 0.000000
# 2 0.000081 0.014490 -0.002603 0.000000 0.000000 0.000000
# 3 -0.003676 -0.002603 0.010605 0.000000 0.000000 0.000000
# 4 0.000000 0.000000 0.000000 -0.068071 0.000000 0.000000
# 5 0.000000 0.000000 0.000000 0.000000 0.320600 0.000000
# 6 0.000000 0.000000 0.000000 0.000000 0.000000 -0.050357
#
#
# Mechanical properties :
#
#
# Convention : Reuss Voigt Hill
#
# Bulk Modulus (GPa) = 56.94730 86.28662 71.61696
# Shear Modulus (GPa) = 19.96998 16.96424 18.46711
#
# Velocity S-wave (km/s) = 3.03851 2.80052 2.92194
# Velocity P-wave (km/s) = 6.21595 7.09573 6.67036
#
# Compressibility (1/GPa) = 0.01756010
#
# Stress axis : x y z
#
# Youngs Moduli (GPa) = 205.73889 69.01304 94.29550
#
# Poissons Ratio (x) = -0.00562 0.34660
# Poissons Ratio (y) = -0.01675 0.24549
# Poissons Ratio (z) = 0.75624 0.17967
#
# Static dielectric constant tensor:
#      x y z
#    x 1.871770 0.000000 0.000000 
#    y 0.000000 1.365220 0.000000 
#    z 0.000000 0.000000 1.762820 
# 
# From -- ./inp_files/19394.got.cif
#   From: 2010.05.17/outbox.cif.g08.bks.cpg/sg70_10_cif.got.tgz:19394.got - 2010.06.03 15:57:51.
