data_PCOD9517543
_publ_section_title
;
Structure prediction by ZEFSAII (Michael W. Deem and Ramdas Pophale) SiO2 
 PCOD9517543
Probable space group: I M M M
;
_chemical_formula_sum "Si O2"
_cell_formula_units_Z 96
_cell_length_a 7.420243
_cell_length_b 33.814591
_cell_length_c 16.779950
_cell_angle_alpha 90.000000
_cell_angle_beta 90.000000
_cell_angle_gamma 90.000000
_cell_volume 4210.298905
_symmetry_space_group_name_H-M "I M M M"
_symmetry_group_IT_number 71
_symmetry_cell_setting 'orthorhombic'
loop_
_space_group_symop_operation_xyz
x,y,z
-x,-y,z
x,-y,-z
-x,y,-z
-x,-y,-z
x,y,-z
-x,y,z
x,-y,z
1/2+x,1/2+y,1/2+z
1/2-x,1/2-y,1/2+z
1/2+x,1/2-y,1/2-z
1/2-x,1/2+y,1/2-z
1/2-x,1/2-y,1/2-z
1/2+x,1/2+y,1/2-z
1/2-x,1/2+y,1/2+z
1/2+x,1/2-y,1/2+z
loop_
_atom_site_type_symbol
_atom_site_label
_atom_site_fract_x
_atom_site_fract_y
_atom_site_fract_z
Si Si1 0.216539 0.957621 0.182779
Si Si2 0.795781 0.127452 0.626000
Si Si3 0.209856 0.627523 0.692951
Si Si4 0.794066 0.787226 0.595392
Si Si5 0.720783 0.202251 0.092046
Si Si6 0.219864 0.042733 0.629289
O O1 0.276176 0.915185 0.150404
O O2 0.268208 0.957947 0.276661
O O3 0.000000 0.957559 0.179870
O O4 0.278409 0.000000 0.148605
O O5 0.803782 0.124502 0.721729
O O6 0.708475 0.169965 0.609756
O O7 0.717025 0.085360 0.597828
O O8 0.000000 0.129493 0.593460
O O9 0.278082 0.664553 0.642737
O O10 0.000000 0.634479 0.710066
O O11 0.802393 0.782600 0.500000
O O12 0.717367 0.745226 0.623957
O O13 0.000000 0.789712 0.626788
O O14 0.500000 0.203332 0.092614
O O15 0.775549 0.197543 0.000000
O O16 0.000000 0.043661 0.624554
O O17 0.276692 0.000000 0.595800
#
# Coordination Sequence:
#
# PCOD9517543 Si02
#       6
#    16  16  16  16  16  16
#     4   8  14  26  43  61  84 114 142 169 206 249
#     4   9  16  26  42  63  85 110 142 180 219 254
#     4  10  18  26  41  66  90 110 137 175 216 258
#     4   8  14  26  44  62  79 107 150 188 213 249
#     4   8  15  28  43  59  82 112 144 179 219 257
#     4   7  10  18  33  53  77 104 130 155 191 241
#
# _framework density 22.801233
#
# number of rings (size 3 to 8) (size 9 to 14) (size 15 to 20)
#    0.000    3.667    0.000    3.500    0.000    1.000 
#    0.000    0.000    0.000    4.500    0.000   11.667 
#    0.000    0.000    0.000    8.333    0.000   10.500 
#
# Total GULP energy -267250.291735 kJ/mol
# GULP energy per Si atom -5567.714411 kJ/mol
# Density = 2.274934 g / cm^3
# Si number density = 22.801233 Si / 1000 Ang^3
#
#
#
# Elastic Constant Matrix: (Units=GPa)
#
#
# Indices 1 2 3 4 5 6 
#
# 1 77.3348 7.2776 0.9922 0.0000 0.0000 0.0000
# 2 7.2776 301.4780 50.7807 -0.0001 0.0000 0.0000
# 3 0.9922 50.7807 26.6624 -0.0001 0.0000 0.0000
# 4 0.0000 -0.0001 -0.0001 121.9874 0.0000 0.0000
# 5 0.0000 0.0000 0.0000 0.0000 -1.9186 0.0000
# 6 0.0000 0.0000 0.0000 0.0000 0.0000 1.4416
#
#
#
# Elastic Compliance Matrix: (Units=1/GPa)
#
#
# Indices 1 2 3 4 5 6 
#
# 1 0.012961 -0.000341 0.000167 0.000000 0.000000 0.000000
# 2 -0.000341 0.004893 -0.009306 0.000000 0.000000 0.000000
# 3 0.000167 -0.009306 0.055224 0.000000 0.000001 0.000000
# 4 0.000000 0.000000 0.000000 0.008198 0.000000 0.000000
# 5 0.000000 0.000000 0.000001 0.000000 -0.521214 -0.000001
# 6 0.000000 0.000000 0.000000 0.000000 -0.000001 0.693691
#
#
# Mechanical properties :
#
#
# Convention : Reuss Voigt Hill
#
# Bulk Modulus (GPa) = 18.47825 58.17515 38.32670
# Shear Modulus (GPa) = 17.19695 47.39705 32.29700
#
# Velocity S-wave (km/s) = 2.74927 4.56423 3.76767
# Velocity P-wave (km/s) = 4.26610 7.30381 5.98102
#
# Compressibility (1/GPa) = 0.05411768
#
# Stress axis : x y z
#
# Youngs Moduli (GPa) = 77.15613 204.38633 18.10822
#
# Poissons Ratio (x) = 0.06970 -0.00303
# Poissons Ratio (y) = 0.02631 0.16851
# Poissons Ratio (z) = -0.01290 1.90199
#
# Static dielectric constant tensor:
#      x y z
#    x 1.902080 0.000000 0.000000 
#    y 0.000000 1.965870 0.000000 
#    z 0.000000 0.000000 1.796820 
# 
# From -- ./inp_files/57874.got.cif
#   From: 2010.05.17/outbox.cif.g08.bks.cpg/sg71_29_cif.got.tgz:57874.got - 2010.06.03 16:22:01.
