data_PCOD9517420
_publ_section_title
;
Structure prediction by ZEFSAII (Michael W. Deem and Ramdas Pophale) SiO2 
 PCOD9517420
Probable space group: I M M M
;
_chemical_formula_sum "Si O2"
_cell_formula_units_Z 112
_cell_length_a 17.691755
_cell_length_b 32.332287
_cell_length_c 14.036401
_cell_angle_alpha 90.000000
_cell_angle_beta 90.000000
_cell_angle_gamma 90.000000
_cell_volume 8029.030517
_symmetry_space_group_name_H-M "I M M M"
_symmetry_group_IT_number 71
_symmetry_cell_setting 'orthorhombic'
loop_
_space_group_symop_operation_xyz
x,y,z
-x,-y,z
x,-y,-z
-x,y,-z
-x,-y,-z
x,y,-z
-x,y,z
x,-y,z
1/2+x,1/2+y,1/2+z
1/2-x,1/2-y,1/2+z
1/2+x,1/2-y,1/2-z
1/2-x,1/2+y,1/2-z
1/2-x,1/2-y,1/2-z
1/2+x,1/2+y,1/2-z
1/2-x,1/2+y,1/2+z
1/2+x,1/2-y,1/2+z
loop_
_atom_site_type_symbol
_atom_site_label
_atom_site_fract_x
_atom_site_fract_y
_atom_site_fract_z
Si Si1 0.665246 0.195000 0.890014
Si Si2 0.500000 0.452227 0.247575
Si Si3 0.761385 0.721389 0.111601
Si Si4 0.793727 0.867309 0.110249
Si Si5 0.583470 0.230171 0.720168
Si Si6 0.859319 0.046694 0.890039
Si Si7 0.372071 0.321672 0.220560
Si Si8 0.000000 0.873192 0.614368
O O1 0.725425 0.232694 0.874729
O O2 0.712060 0.153165 0.873611
O O3 0.599776 0.203518 0.815111
O O4 0.640656 0.197136 0.000000
O O5 0.500000 0.500000 0.213201
O O6 0.572712 0.446970 0.316059
O O7 0.500000 0.418087 0.165044
O O8 0.845999 0.721253 0.151364
O O9 0.705680 0.690621 0.167290
O O10 0.759888 0.712397 0.000000
O O11 0.799606 0.916509 0.122121
O O12 0.851198 0.846619 0.184234
O O13 0.813694 0.857344 0.000000
O O14 0.500000 0.222184 0.681331
O O15 0.590129 0.278186 0.750844
O O16 0.829794 0.000000 0.877162
O O17 0.887329 0.049488 0.000000
O O18 0.427302 0.347982 0.153538
O O19 0.000000 0.875491 0.500000
#
# Coordination Sequence:
#
# PCOD9517420 Si02
#       8
#    16   8  16  16  16  16  16   8
#     4   9  17  30  46  63  84 115 150 181 223 274
#     4  10  19  31  46  61  87 122 149 187 236 272
#     4  10  19  32  47  61  86 124 156 185 227 268
#     4  10  17  28  50  69  85 115 150 185 226 273
#     4  11  20  30  45  65  91 115 149 192 229 267
#     4   9  17  28  44  68  93 116 144 180 228 280
#     4  11  19  35  46  64  91 119 154 194 228 264
#     4  12  24  34  47  66  86 117 167 205 226 264
#
# _framework density 13.94938
#
# number of rings (size 3 to 8) (size 9 to 14) (size 15 to 20)
#    0.000    1.857    5.000    1.500    0.000    2.143 
#    0.000    0.357    0.000    0.000    0.000    0.000 
#    0.000    0.571    0.000    5.571    0.000    2.143 
#
# Total GULP energy -312092.184080 kJ/mol
# GULP energy per Si atom -5573.074716 kJ/mol
# Density = 1.391763 g / cm^3
# Si number density = 13.949380 Si / 1000 Ang^3
#
#
#
# Elastic Constant Matrix: (Units=GPa)
#
#
# Indices 1 2 3 4 5 6 
#
# 1 71.5293 28.8288 28.1261 0.0000 0.0000 0.0000
# 2 28.8288 92.9252 38.2203 0.0000 0.0000 0.0000
# 3 28.1261 38.2203 70.4847 -0.0001 0.0000 0.0000
# 4 0.0000 0.0000 -0.0001 20.4343 0.0000 0.0000
# 5 0.0000 0.0000 0.0000 0.0000 14.8584 0.0000
# 6 0.0000 0.0000 0.0000 0.0000 0.0000 12.1482
#
#
#
# Elastic Compliance Matrix: (Units=1/GPa)
#
#
# Indices 1 2 3 4 5 6 
#
# 1 0.017315 -0.003256 -0.005144 0.000000 0.000000 0.000000
# 2 -0.003256 0.014463 -0.006543 0.000000 0.000000 0.000000
# 3 -0.005144 -0.006543 0.019788 0.000000 0.000000 0.000000
# 4 0.000000 0.000000 0.000000 0.048937 0.000000 0.000000
# 5 0.000000 0.000000 0.000000 0.000000 0.067302 0.000000
# 6 0.000000 0.000000 0.000000 0.000000 0.000000 0.082316
#
#
# Mechanical properties :
#
#
# Convention : Reuss Voigt Hill
#
# Bulk Modulus (GPa) = 46.12562 47.25439 46.69001
# Shear Modulus (GPa) = 17.40740 18.80579 18.10659
#
# Velocity S-wave (km/s) = 3.53639 3.67569 3.60671
# Velocity P-wave (km/s) = 7.05783 7.20857 7.13360
#
# Compressibility (1/GPa) = 0.02167992
#
# Stress axis : x y z
#
# Youngs Moduli (GPa) = 57.75265 69.14335 50.53566
#
# Poissons Ratio (x) = 0.22514 0.25994
# Poissons Ratio (y) = 0.18805 0.33066
# Poissons Ratio (z) = 0.29707 0.45241
#
# Static dielectric constant tensor:
#      x y z
#    x 1.447860 0.000000 0.000000 
#    y 0.000000 1.459170 0.000000 
#    z 0.000000 0.000000 1.470070 
# 
# From -- ./inp_files/37199.got.cif
#   From: 2010.05.17/outbox.cif.g08.bks.cpg/sg71_19_cif.got.tgz:37199.got - 2010.06.03 16:22:01.
