data_PCOD9517740
_publ_section_title
;
Structure prediction by ZEFSAII (Michael W. Deem and Ramdas Pophale) SiO2 
 PCOD9517740
Probable space group: I M M M
;
_chemical_formula_sum "Si O2"
_cell_formula_units_Z 72
_cell_length_a 13.918788
_cell_length_b 14.091837
_cell_length_c 18.394706
_cell_angle_alpha 90.000000
_cell_angle_beta 90.000000
_cell_angle_gamma 90.000000
_cell_volume 3607.961396
_symmetry_space_group_name_H-M "I M M M"
_symmetry_group_IT_number 71
_symmetry_cell_setting 'orthorhombic'
loop_
_space_group_symop_operation_xyz
x,y,z
-x,-y,z
x,-y,-z
-x,y,-z
-x,-y,-z
x,y,-z
-x,y,z
x,-y,z
1/2+x,1/2+y,1/2+z
1/2-x,1/2-y,1/2+z
1/2+x,1/2-y,1/2-z
1/2-x,1/2+y,1/2-z
1/2-x,1/2-y,1/2-z
1/2+x,1/2+y,1/2-z
1/2-x,1/2+y,1/2+z
1/2+x,1/2-y,1/2+z
loop_
_atom_site_type_symbol
_atom_site_label
_atom_site_fract_x
_atom_site_fract_y
_atom_site_fract_z
Si Si1 0.752887 0.000000 0.081004
Si Si2 0.889878 0.500000 0.180203
Si Si3 0.187558 0.289269 0.580325
Si Si4 0.690586 0.500000 0.260889
Si Si5 0.854561 0.209591 0.271200
Si Si6 0.104204 0.292630 0.120366
O O1 0.692735 0.903142 0.086311
O O2 0.819886 0.000000 0.151880
O O3 0.798430 0.000000 0.000000
O O4 0.804434 0.500000 0.239494
O O5 0.879227 0.594974 0.132290
O O6 0.000000 0.500000 0.209445
O O7 0.152574 0.262985 0.500000
O O8 0.128526 0.247920 0.648060
O O9 0.299261 0.253332 0.587435
O O10 0.646758 0.596264 0.229870
O O11 0.750000 0.250000 0.250000
O O12 0.906983 0.249875 0.201300
O O13 0.000000 0.278049 0.083789
#
# Coordination Sequence:
#
# PCOD9517740 Si02
#       6
#     8   8  16   8  16  16
#     4  10  18  28  48  74  96 124 162 206 250 288
#     4  10  18  28  48  74  96 124 162 206 250 288
#     4  10  19  32  49  73 102 131 166 203 249 298
#     4  12  16  32  52  71  96 123 174 214 234 290
#     4  10  18  30  50  71  91 131 169 206 236 284
#     4  10  19  32  49  73 102 131 166 203 249 298
#
# _framework density 19.955867999999999
#
# number of rings (size 3 to 8) (size 9 to 14) (size 15 to 20)
#    0.000    1.778    8.889    0.000    0.000    0.444 
#    0.000    4.444    0.000    5.000    0.000    6.222 
#    0.000    1.778    0.000    0.000    0.000    0.000 
#
# Total GULP energy -200462.202463 kJ/mol
# GULP energy per Si atom -5568.394513 kJ/mol
# Density = 1.991045 g / cm^3
# Si number density = 19.955868 Si / 1000 Ang^3
#
#
#
# Elastic Constant Matrix: (Units=GPa)
#
#
# Indices 1 2 3 4 5 6 
#
# 1 36.3331 -1.7132 -10.2993 0.0000 0.0000 0.0000
# 2 -1.7132 160.1969 39.9314 0.0000 0.0000 0.0000
# 3 -10.2993 39.9314 143.6784 0.0000 0.0000 0.0000
# 4 0.0000 0.0000 0.0000 16.5842 0.0000 0.0000
# 5 0.0000 0.0000 0.0000 0.0000 3.2356 0.0000
# 6 0.0000 0.0000 0.0000 0.0000 0.0000 15.6963
#
#
#
# Elastic Compliance Matrix: (Units=1/GPa)
#
#
# Indices 1 2 3 4 5 6 
#
# 1 0.028101 -0.000217 0.002075 0.000000 0.000000 0.000000
# 2 -0.000217 0.006709 -0.001880 0.000000 0.000000 0.000000
# 3 0.002075 -0.001880 0.007631 0.000000 0.000000 0.000000
# 4 0.000000 0.000000 0.000000 0.060298 0.000000 0.000000
# 5 0.000000 0.000000 0.000000 0.000000 0.309057 0.000000
# 6 0.000000 0.000000 0.000000 0.000000 0.000000 0.063709
#
#
# Mechanical properties :
#
#
# Convention : Reuss Voigt Hill
#
# Bulk Modulus (GPa) = 23.58671 44.00513 33.79592
# Shear Modulus (GPa) = 10.21072 27.92254 19.06663
#
# Velocity S-wave (km/s) = 2.26446 3.74467 3.09437
# Velocity P-wave (km/s) = 4.32228 6.38716 5.45334
#
# Compressibility (1/GPa) = 0.04239676
#
# Stress axis : x y z
#
# Youngs Moduli (GPa) = 35.58591 149.06195 131.04113
#
# Poissons Ratio (x) = 0.03228 -0.27185
# Poissons Ratio (y) = 0.00771 0.24636
# Poissons Ratio (z) = -0.07383 0.28024
#
# Static dielectric constant tensor:
#      x y z
#    x 1.743000 0.000000 0.000000 
#    y 0.000000 1.696100 0.000000 
#    z 0.000000 0.000000 1.733080 
# 
# From -- ./inp_files/23767.got.cif
#   From: 2010.05.17/outbox.cif.g08.bks.cpg/sg71_12_cif.got.tgz:23767.got - 2010.06.03 16:22:01.
