data_PCOD9517835
_publ_section_title
;
Structure prediction by ZEFSAII (Michael W. Deem and Ramdas Pophale) SiO2 
 PCOD9517835
Probable space group: I M M M
;
_chemical_formula_sum "Si O2"
_cell_formula_units_Z 120
_cell_length_a 21.013141
_cell_length_b 13.666385
_cell_length_c 22.652846
_cell_angle_alpha 90.000000
_cell_angle_beta 90.000000
_cell_angle_gamma 90.000000
_cell_volume 6505.301034
_symmetry_space_group_name_H-M "I M M M"
_symmetry_group_IT_number 71
_symmetry_cell_setting 'orthorhombic'
loop_
_space_group_symop_operation_xyz
x,y,z
-x,-y,z
x,-y,-z
-x,y,-z
-x,-y,-z
x,y,-z
-x,y,z
x,-y,z
1/2+x,1/2+y,1/2+z
1/2-x,1/2-y,1/2+z
1/2+x,1/2-y,1/2-z
1/2-x,1/2+y,1/2-z
1/2-x,1/2-y,1/2-z
1/2+x,1/2+y,1/2-z
1/2-x,1/2+y,1/2+z
1/2+x,1/2-y,1/2+z
loop_
_atom_site_type_symbol
_atom_site_label
_atom_site_fract_x
_atom_site_fract_y
_atom_site_fract_z
Si Si1 0.835284 0.610184 0.929653
Si Si2 0.749001 0.883440 0.098983
Si Si3 0.611591 0.311947 0.433358
Si Si4 0.432439 0.383981 0.312692
Si Si5 0.874035 0.264683 0.568373
Si Si6 0.795185 0.883944 0.359451
Si Si7 0.204186 0.881272 0.774182
Si Si8 0.500000 0.886320 0.071576
O O1 0.855806 0.500000 0.913531
O O2 0.884572 0.696830 0.917304
O O3 0.768286 0.630506 0.898143
O O4 0.824311 0.612953 0.000000
O O5 0.815075 0.848198 0.070338
O O6 0.687068 0.835919 0.071118
O O7 0.754262 0.855187 0.168590
O O8 0.746089 0.000000 0.094093
O O9 0.588248 0.324784 0.500000
O O10 0.574354 0.368117 0.382763
O O11 0.500000 0.342959 0.291891
O O12 0.432497 0.500000 0.301027
O O13 0.367564 0.343528 0.285359
O O14 0.882782 0.232360 0.500000
O O15 0.852606 0.176624 0.611324
O O16 0.936545 0.325241 0.587652
O O17 0.778340 0.854784 0.292245
O O18 0.810041 0.000000 0.359686
O O19 0.202580 0.000000 0.776091
O O20 0.500000 0.000000 0.092466
O O21 0.500000 0.891060 0.000000
#
# Coordination Sequence:
#
# PCOD9517835 Si02
#       8
#    16  16  16  16  16  16  16   8
#     4   9  17  30  48  71 102 135 162 197 250 301
#     4  10  19  31  49  74 103 131 163 207 252 294
#     4  10  18  29  46  74 104 128 163 204 244 298
#     4   9  18  33  50  69  99 135 165 200 247 299
#     4  11  21  34  52  76 102 133 172 207 248 305
#     4  10  19  33  53  76 103 131 165 210 255 301
#     4   8  17  33  50  72 101 130 164 208 251 295
#     4   9  20  38  55  71  99 137 170 202 244 301
#
# _framework density 18.446494999999999
#
# number of rings (size 3 to 8) (size 9 to 14) (size 15 to 20)
#    0.000    2.467    1.333    2.400    0.000    4.000 
#    1.200    1.000    0.000    1.600    0.000    1.867 
#    0.000    0.000    0.000    0.000    0.000    0.000 
#
# Total GULP energy -334410.309773 kJ/mol
# GULP energy per Si atom -5573.505163 kJ/mol
# Density = 1.840451 g / cm^3
# Si number density = 18.446495 Si / 1000 Ang^3
#
#
#
# Elastic Constant Matrix: (Units=GPa)
#
#
# Indices 1 2 3 4 5 6 
#
# 1 39.5104 -13.3297 -6.5963 0.0000 0.0000 0.0000
# 2 -13.3297 40.3796 6.0780 0.0000 0.0000 0.0000
# 3 -6.5963 6.0780 48.6926 0.0000 0.0000 0.0000
# 4 0.0000 0.0000 0.0000 15.7437 0.0000 0.0000
# 5 0.0000 0.0000 0.0000 0.0000 1.2304 0.0000
# 6 0.0000 0.0000 0.0000 0.0000 0.0000 17.1147
#
#
#
# Elastic Compliance Matrix: (Units=1/GPa)
#
#
# Indices 1 2 3 4 5 6 
#
# 1 0.028844 0.009105 0.002771 0.000000 0.000000 0.000000
# 2 0.009105 0.028113 -0.002276 0.000000 0.000000 0.000000
# 3 0.002771 -0.002276 0.021196 0.000000 0.000000 0.000000
# 4 0.000000 0.000000 0.000000 0.063517 0.000000 0.000000
# 5 0.000000 0.000000 0.000000 0.000000 0.812777 0.000000
# 6 0.000000 0.000000 0.000000 0.000000 0.000000 0.058429
#
#
# Mechanical properties :
#
#
# Convention : Reuss Voigt Hill
#
# Bulk Modulus (GPa) = 10.27190 11.20963 10.74076
# Shear Modulus (GPa) = 4.87268 16.31312 10.59290
#
# Velocity S-wave (km/s) = 1.62704 2.97702 2.39895
# Velocity P-wave (km/s) = 3.01832 4.23166 3.67540
#
# Compressibility (1/GPa) = 0.09735300
#
# Stress axis : x y z
#
# Youngs Moduli (GPa) = 34.66926 35.57065 47.17767
#
# Poissons Ratio (x) = -0.32386 -0.13073
# Poissons Ratio (y) = -0.31565 0.10737
# Poissons Ratio (z) = -0.09607 0.08095
#
# Static dielectric constant tensor:
#      x y z
#    x 1.634800 0.000000 0.000000 
#    y 0.000000 1.682670 0.000000 
#    z 0.000000 0.000000 1.645290 
# 
# From -- ./inp_files/53454.got.cif
#   From: 2010.05.17/outbox.cif.g08.bks.cpg/sg71_27_cif.got.tgz:53454.got - 2010.06.03 16:22:01.
