data_PCOD9517644
_publ_section_title
;
Structure prediction by ZEFSAII (Michael W. Deem and Ramdas Pophale) SiO2 
 PCOD9517644
Probable space group: I M M M
;
_chemical_formula_sum "Si O2"
_cell_formula_units_Z 104
_cell_length_a 20.340043
_cell_length_b 24.407059
_cell_length_c 13.529046
_cell_angle_alpha 90.000000
_cell_angle_beta 90.000000
_cell_angle_gamma 90.000000
_cell_volume 6716.368114
_symmetry_space_group_name_H-M "I M M M"
_symmetry_group_IT_number 71
_symmetry_cell_setting 'orthorhombic'
loop_
_space_group_symop_operation_xyz
x,y,z
-x,-y,z
x,-y,-z
-x,y,-z
-x,-y,-z
x,y,-z
-x,y,z
x,-y,z
1/2+x,1/2+y,1/2+z
1/2-x,1/2-y,1/2+z
1/2+x,1/2-y,1/2-z
1/2-x,1/2+y,1/2-z
1/2-x,1/2-y,1/2-z
1/2+x,1/2+y,1/2-z
1/2-x,1/2+y,1/2+z
1/2+x,1/2-y,1/2+z
loop_
_atom_site_type_symbol
_atom_site_label
_atom_site_fract_x
_atom_site_fract_y
_atom_site_fract_z
Si Si1 0.169968 0.438769 0.881188
Si Si2 0.424078 0.646133 0.114589
Si Si3 0.000000 0.938574 0.880491
Si Si4 0.315964 0.564704 0.200139
Si Si5 0.636924 0.381751 0.385713
Si Si6 0.577443 0.160828 0.617891
Si Si7 0.077319 0.220702 0.802066
O O1 0.151109 0.500000 0.845953
O O2 0.245057 0.428838 0.849811
O O3 0.121842 0.390141 0.849469
O O4 0.167253 0.439541 0.000000
O O5 0.500000 0.627020 0.126523
O O6 0.371833 0.599354 0.143334
O O7 0.415582 0.696556 0.191313
O O8 0.415274 0.661781 0.000000
O O9 0.933555 0.907775 0.854398
O O10 0.000000 0.000000 0.840813
O O11 0.000000 0.941063 0.000000
O O12 0.331775 0.500000 0.203587
O O13 0.313407 0.590480 0.310009
O O14 0.649708 0.393644 0.500000
O O15 0.624431 0.317683 0.367603
O O16 0.588327 0.171259 0.500000
O O17 0.500000 0.148304 0.629268
O O18 0.592236 0.216019 0.678654
O O19 0.000000 0.213194 0.831076
#
# Coordination Sequence:
#
# PCOD9517644 Si02
#       7
#    16  16   8  16  16  16  16
#     4   9  18  33  50  68  93 122 149 181 226 277
#     4   9  18  31  45  63  89 123 162 199 228 254
#     4   9  16  24  36  56  83 117 154 190 225 256
#     4  10  20  31  45  63  87 123 162 195 231 273
#     4  10  18  28  42  63  92 124 157 193 230 269
#     4   9  17  29  50  77  97 114 141 178 224 283
#     4   9  16  28  46  68  93 120 149 186 233 276
#
# _framework density 15.484559000000001
#
# number of rings (size 3 to 8) (size 9 to 14) (size 15 to 20)
#    0.000    2.692    0.769    1.385    1.077    3.077 
#    0.000    5.385    0.000    2.769    0.000    0.000 
#    0.000    0.000    0.000    9.385    0.000    0.308 
#
# Total GULP energy -289629.012381 kJ/mol
# GULP energy per Si atom -5569.788700 kJ/mol
# Density = 1.544932 g / cm^3
# Si number density = 15.484559 Si / 1000 Ang^3
#
#
#
# Elastic Constant Matrix: (Units=GPa)
#
#
# Indices 1 2 3 4 5 6 
#
# 1 48.2108 63.9751 16.8873 0.0000 0.0000 0.0000
# 2 63.9751 134.9886 29.3019 0.0000 0.0000 0.0000
# 3 16.8873 29.3019 50.9808 0.0000 0.0000 0.0000
# 4 0.0000 0.0000 0.0000 15.5748 0.0000 0.0000
# 5 0.0000 0.0000 0.0000 0.0000 17.9326 0.0000
# 6 0.0000 0.0000 0.0000 0.0000 0.0000 21.0915
#
#
#
# Elastic Compliance Matrix: (Units=1/GPa)
#
#
# Indices 1 2 3 4 5 6 
#
# 1 0.056531 -0.025967 -0.003801 0.000000 0.000000 0.000000
# 2 -0.025967 0.020391 -0.003119 0.000000 0.000000 0.000000
# 3 -0.003801 -0.003119 0.022667 0.000000 0.000000 0.000000
# 4 0.000000 0.000000 0.000000 0.064206 0.000000 0.000000
# 5 0.000000 0.000000 0.000000 0.000000 0.055764 0.000000
# 6 0.000000 0.000000 0.000000 0.000000 0.000000 0.047412
#
#
# Mechanical properties :
#
#
# Convention : Reuss Voigt Hill
#
# Bulk Modulus (GPa) = 29.57157 50.50098 40.03627
# Shear Modulus (GPa) = 14.53412 19.18751 16.86082
#
# Velocity S-wave (km/s) = 3.06701 3.52396 3.30340
# Velocity P-wave (km/s) = 5.62859 7.01728 6.36095
#
# Compressibility (1/GPa) = 0.03381626
#
# Stress axis : x y z
#
# Youngs Moduli (GPa) = 17.68935 49.04015 44.11718
#
# Poissons Ratio (x) = 1.27341 0.16769
# Poissons Ratio (y) = 0.45933 0.13760
# Poissons Ratio (z) = 0.06724 0.15295
#
# Static dielectric constant tensor:
#      x y z
#    x 1.502220 0.000000 0.000000 
#    y 0.000000 1.528380 0.000000 
#    z 0.000000 0.000000 1.527810 
# 
# From -- ./inp_files/36919.got.cif
#   From: 2010.05.17/outbox.cif.g08.bks.cpg/sg71_19_cif.got.tgz:36919.got - 2010.06.03 16:22:01.
