data_PCOD9517794
_publ_section_title
;
Structure prediction by ZEFSAII (Michael W. Deem and Ramdas Pophale) SiO2 
 PCOD9517794
Probable space group: I M M M
;
_chemical_formula_sum "Si O2"
_cell_formula_units_Z 80
_cell_length_a 29.635938
_cell_length_b 21.572980
_cell_length_c 7.669314
_cell_angle_alpha 90.000000
_cell_angle_beta 90.000000
_cell_angle_gamma 90.000000
_cell_volume 4903.264684
_symmetry_space_group_name_H-M "I M M M"
_symmetry_group_IT_number 71
_symmetry_cell_setting 'orthorhombic'
loop_
_space_group_symop_operation_xyz
x,y,z
-x,-y,z
x,-y,-z
-x,y,-z
-x,-y,-z
x,y,-z
-x,y,z
x,-y,z
1/2+x,1/2+y,1/2+z
1/2-x,1/2-y,1/2+z
1/2+x,1/2-y,1/2-z
1/2-x,1/2+y,1/2-z
1/2-x,1/2-y,1/2-z
1/2+x,1/2+y,1/2-z
1/2-x,1/2+y,1/2+z
1/2+x,1/2-y,1/2+z
loop_
_atom_site_type_symbol
_atom_site_label
_atom_site_fract_x
_atom_site_fract_y
_atom_site_fract_z
Si Si1 0.622498 0.764351 0.296515
Si Si2 0.352797 0.907335 0.696878
Si Si3 0.578139 0.066594 0.000000
Si Si4 0.551853 0.208499 0.000000
Si Si5 0.249865 0.932554 0.789573
Si Si6 0.287857 0.698130 0.709794
O O1 0.610981 0.751438 0.500000
O O2 0.644736 0.832776 0.291949
O O3 0.579825 0.768139 0.168658
O O4 0.662409 0.719301 0.232526
O O5 0.363897 0.925428 0.500000
O O6 0.388991 0.931481 0.833253
O O7 0.302534 0.927915 0.742381
O O8 0.553084 0.132782 0.000000
O O9 0.553718 0.000000 0.000000
O O10 0.500000 0.228471 0.000000
O O11 0.226386 0.869748 0.723921
O O12 0.232704 0.000000 0.728963
O O13 0.246628 0.931702 0.000000
O O14 0.290031 0.695458 0.500000
O O15 0.250000 0.750000 0.750000
#
# Coordination Sequence:
#
# PCOD9517794 Si02
#       6
#    16  16   8   8  16  16
#     4   9  19  34  51  74  97 124 166 208 251 299
#     4  10  18  29  45  66  93 129 169 205 240 284
#     4  10  20  33  48  66  96 127 163 210 252 294
#     4  10  22  37  56  74  93 124 164 217 269 298
#     4  10  19  29  42  64  99 137 172 205 239 281
#     4  10  19  29  47  70  99 136 169 203 245 293
#
# _framework density 16.315660999999999
#
# number of rings (size 3 to 8) (size 9 to 14) (size 15 to 20)
#    0.000    2.200    3.000    0.600    1.400    2.200 
#    0.000    0.000    0.000    0.000    0.000    5.600 
#    0.000    1.600    0.000    7.800    0.000    0.000 
#
# Total GULP energy -223037.239470 kJ/mol
# GULP energy per Si atom -5575.930987 kJ/mol
# Density = 1.627853 g / cm^3
# Si number density = 16.315661 Si / 1000 Ang^3
#
#
#
# Elastic Constant Matrix: (Units=GPa)
#
#
# Indices 1 2 3 4 5 6 
#
# 1 107.7769 54.1872 36.0071 0.0000 0.0000 0.0000
# 2 54.1872 101.0072 31.1266 0.0000 0.0000 0.0000
# 3 36.0071 31.1266 65.0771 0.0000 0.0000 0.0000
# 4 0.0000 0.0000 0.0000 0.9261 0.0000 0.0000
# 5 0.0000 0.0000 0.0000 0.0000 13.3577 0.0000
# 6 0.0000 0.0000 0.0000 0.0000 0.0000 -4.2246
#
#
#
# Elastic Compliance Matrix: (Units=1/GPa)
#
#
# Indices 1 2 3 4 5 6 
#
# 1 0.013891 -0.005963 -0.004834 0.000000 0.000000 0.000000
# 2 -0.005963 0.014171 -0.003479 0.000000 0.000000 0.000000
# 3 -0.004834 -0.003479 0.019705 0.000000 0.000000 0.000000
# 4 0.000000 0.000000 0.000000 1.079818 0.000000 0.000000
# 5 0.000000 0.000000 0.000000 0.000000 0.074863 0.000000
# 6 0.000000 0.000000 0.000000 0.000000 0.000000 -0.236711
#
#
# Mechanical properties :
#
#
# Convention : Reuss Voigt Hill
#
# Bulk Modulus (GPa) = 52.03962 57.38924 54.71443
# Shear Modulus (GPa) = 4.99653 12.18120 8.58886
#
# Velocity S-wave (km/s) = 1.75187 2.73535 2.29687
# Velocity P-wave (km/s) = 6.00473 6.72510 6.37510
#
# Compressibility (1/GPa) = 0.01921613
#
# Stress axis : x y z
#
# Youngs Moduli (GPa) = 71.98775 70.56616 50.74825
#
# Poissons Ratio (x) = 0.42075 0.24532
# Poissons Ratio (y) = 0.42923 0.17655
# Poissons Ratio (z) = 0.34800 0.24550
#
# Static dielectric constant tensor:
#      x y z
#    x 1.504460 0.000000 0.000000 
#    y 0.000000 1.599860 0.000000 
#    z 0.000000 0.000000 1.578050 
# 
# From -- ./inp_files/12754.got.cif
#   From: 2010.05.17/outbox.cif.g08.bks.cpg/sg71_7_cif.got.tgz:12754.got - 2010.06.03 16:22:01.
