data_PCOD9517523
_publ_section_title
;
Structure prediction by ZEFSAII (Michael W. Deem and Ramdas Pophale) SiO2 
 PCOD9517523
Probable space group: I M M M
;
_chemical_formula_sum "Si O2"
_cell_formula_units_Z 80
_cell_length_a 20.062243
_cell_length_b 34.406543
_cell_length_c 7.580307
_cell_angle_alpha 90.000000
_cell_angle_beta 90.000000
_cell_angle_gamma 90.000000
_cell_volume 5232.476906
_symmetry_space_group_name_H-M "I M M M"
_symmetry_group_IT_number 71
_symmetry_cell_setting 'orthorhombic'
loop_
_space_group_symop_operation_xyz
x,y,z
-x,-y,z
x,-y,-z
-x,y,-z
-x,-y,-z
x,y,-z
-x,y,z
x,-y,z
1/2+x,1/2+y,1/2+z
1/2-x,1/2-y,1/2+z
1/2+x,1/2-y,1/2-z
1/2-x,1/2+y,1/2-z
1/2-x,1/2-y,1/2-z
1/2+x,1/2+y,1/2-z
1/2-x,1/2+y,1/2+z
1/2+x,1/2-y,1/2+z
loop_
_atom_site_type_symbol
_atom_site_label
_atom_site_fract_x
_atom_site_fract_y
_atom_site_fract_z
Si Si1 0.270731 0.812557 0.708776
Si Si2 0.500000 0.743256 0.793676
Si Si3 0.633937 0.123490 0.289490
Si Si4 0.500000 0.165931 0.285341
Si Si5 0.353273 0.264193 0.785331
Si Si6 0.924359 0.543679 0.288141
O O1 0.259912 0.817667 0.500000
O O2 0.303107 0.852141 0.780345
O O3 0.324934 0.778103 0.732588
O O4 0.201251 0.795411 0.779535
O O5 0.500000 0.789930 0.777720
O O6 0.571400 0.729823 0.720383
O O7 0.500000 0.732543 0.000000
O O8 0.634193 0.128999 0.500000
O O9 0.566037 0.143676 0.223178
O O10 0.626243 0.077810 0.258315
O O11 0.500000 0.166368 0.500000
O O12 0.353943 0.264521 0.000000
O O13 0.927423 0.542472 0.500000
O O14 0.907802 0.500000 0.226577
O O15 0.000000 0.553018 0.224364
#
# Coordination Sequence:
#
# PCOD9517523 Si02
#       6
#    16   8  16   8  16  16
#     4   9  17  28  39  52  73  98 124 155 189 222
#     4  10  18  26  38  55  73  96 129 162 190 219
#     4  10  18  27  39  54  72  96 125 156 186 217
#     4  10  18  26  35  53  76  97 126 157 187 220
#     4   9  17  27  38  53  73  97 125 157 189 220
#     4   9  18  30  41  54  73  96 121 150 184 219
#
# _framework density 15.289126
#
# number of rings (size 3 to 8) (size 9 to 14) (size 15 to 20)
#    0.000    2.600    3.000    0.600    0.000    2.000 
#    0.000    1.000    0.000    0.000    0.000    0.000 
#    0.000    0.000    0.000    0.900    0.000   22.000 
#
# Total GULP energy -222885.133362 kJ/mol
# GULP energy per Si atom -5572.128334 kJ/mol
# Density = 1.525433 g / cm^3
# Si number density = 15.289126 Si / 1000 Ang^3
#
#
#
# Elastic Constant Matrix: (Units=GPa)
#
#
# Indices 1 2 3 4 5 6 
#
# 1 111.4753 55.4006 -3.6231 -0.0042 -0.0002 0.0001
# 2 55.4006 105.2780 -5.1264 -0.0036 0.0002 0.0002
# 3 -3.6231 -5.1264 27.9987 -0.0217 0.0053 0.0000
# 4 -0.0042 -0.0036 -0.0217 15.3291 0.0007 0.0000
# 5 -0.0002 0.0002 0.0053 0.0007 5.4678 -0.0013
# 6 0.0001 0.0002 0.0000 0.0000 -0.0013 27.1606
#
#
#
# Elastic Compliance Matrix: (Units=1/GPa)
#
#
# Indices 1 2 3 4 5 6 
#
# 1 0.012152 -0.006375 0.000405 0.000002 0.000000 0.000000
# 2 -0.006375 0.012928 0.001542 0.000003 -0.000002 0.000000
# 3 0.000405 0.001542 0.036051 0.000052 -0.000035 0.000000
# 4 0.000002 0.000003 0.000052 0.065235 -0.000008 0.000000
# 5 0.000000 -0.000002 -0.000035 -0.000008 0.182889 0.000008
# 6 0.000000 0.000000 0.000000 0.000000 0.000008 0.036818
#
#
# Mechanical properties :
#
#
# Convention : Reuss Voigt Hill
#
# Bulk Modulus (GPa) = 19.12916 37.56155 28.34536
# Shear Modulus (GPa) = 13.42809 22.79824 18.11316
#
# Velocity S-wave (km/s) = 2.96679 3.86572 3.44569
# Velocity P-wave (km/s) = 4.92692 6.67427 5.86602
#
# Compressibility (1/GPa) = 0.05227621
#
# Stress axis : x y z
#
# Youngs Moduli (GPa) = 82.29096 77.34853 27.73863
#
# Poissons Ratio (x) = 0.49310 -0.01124
# Poissons Ratio (y) = 0.52461 -0.04278
# Poissons Ratio (z) = -0.03335 -0.11929
#
# Static dielectric constant tensor:
#      x y z
#    x 1.536770 0.000000 0.000000 
#    y 0.000000 1.512360 0.000000 
#    z 0.000000 0.000000 1.558640 
# 
# From -- ./inp_files/11284.got.cif
#   From: 2010.05.17/outbox.cif.g08.bks.cpg/sg71_6_cif.got.tgz:11284.got - 2010.06.03 16:22:01.
