data_PCOD9517202
_publ_section_title
;
Structure prediction by ZEFSAII (Michael W. Deem and Ramdas Pophale) SiO2 
 PCOD9517202
Probable space group: F D D D
;
_chemical_formula_sum "Si O2"
_cell_formula_units_Z 40
_cell_length_a 21.000000
_cell_length_b 21.000000
_cell_length_c 18.000000
_cell_angle_alpha 90.000000
_cell_angle_beta 90.000000
_cell_angle_gamma 90.000000
_cell_volume 7938.000000
_symmetry_space_group_name_H-M "F D D D"
_symmetry_group_IT_number 70
_space_group.IT_coordinate_system_code '2'
_symmetry_cell_setting 'orthorhombic'
loop_
_space_group_symop_operation_xyz
x,y,z
1/4-x,1/4-y,z
x,1/4-y,1/4-z
1/4-x,y,1/4-z
-x,-y,-z
3/4+x,3/4+y,-z
-x,3/4+y,3/4+z
3/4+x,-y,3/4+z
x,1/2+y,1/2+z
1/4-x,3/4-y,1/2+z
x,3/4-y,3/4-z
1/4-x,1/2+y,3/4-z
-x,1/2-y,1/2-z
3/4+x,1/4+y,1/2-z
-x,1/4+y,1/4+z
3/4+x,1/2-y,1/4+z
1/2+x,y,1/2+z
3/4-x,1/4-y,1/2+z
1/2+x,1/4-y,3/4-z
3/4-x,y,3/4-z
1/2-x,-y,1/2-z
1/4+x,3/4+y,1/2-z
1/2-x,3/4+y,1/4+z
1/4+x,-y,1/4+z
1/2+x,1/2+y,z
3/4-x,3/4-y,z
1/2+x,3/4-y,1/4-z
3/4-x,1/2+y,1/4-z
1/2-x,1/2-y,-z
1/4+x,1/4+y,-z
1/2-x,1/4+y,3/4+z
1/4+x,1/2-y,3/4+z
loop_
_atom_site_type_symbol
_atom_site_label
_atom_site_fract_x
_atom_site_fract_y
_atom_site_fract_z
Si Si1 0.130518 0.715259 0.455790
Si Si2 0.048871 0.345861 0.954879
Si Si3 0.418216 0.935540 0.716931
Si Si4 0.646706 0.321836 0.211207
Si Si5 0.473949 0.871093 0.282896
O O1 0.097206 0.784855 0.450284
O O2 0.152615 0.698224 0.370966
O O3 0.192050 0.696465 0.507185
O O4 0.075400 0.672013 0.495390
O O5 0.027679 0.375000 0.875000
O O6 0.088998 0.401435 0.991481
O O7 0.990791 0.329924 0.010256
O O8 0.375000 0.875000 0.737984
O O9 0.404573 0.998511 0.765126
O O10 0.625000 0.328800 0.125000
O O11 0.709417 0.360705 0.241673
O O12 0.477813 0.875000 0.375000
#
# Coordination Sequence:
#
# PCOD9517202 Si02
#       5
#    32  32  32  32  32
#     4  11  23  48  76 108 146 194 243 300 376 437
#     4  12  27  46  74 109 144 194 252 303 366 444
#     4  12  27  46  74 102 148 196 245 302 365 429
#     4  12  28  46  72 112 146 193 253 302 364 445
#     4  11  24  47  79 111 149 189 244 309 374 445
#
# _framework density 5.039053
#
# number of rings (size 3 to 8) (size 9 to 14) (size 15 to 20)
#    0.000    0.400    6.000    3.000    2.800    3.200 
#    0.000    0.000    0.000    0.000    0.000    0.000 
#    0.000    0.000    0.000    0.000    0.000    0.000 
#
# Total GULP energy -223151.921513 kJ/mol
# GULP energy per Si atom -5578.798038 kJ/mol
# Density = 0.502758 g / cm^3
# Si number density = 5.039053 Si / 1000 Ang^3
#
#
#
# Elastic Constant Matrix: (Units=GPa)
#
#
# Indices 1 2 3 4 5 6 
#
# 1 146.6395 42.3382 54.1439 0.0000 0.0000 0.0000
# 2 42.3382 58.2759 -27.6175 0.0000 0.0000 0.0000
# 3 54.1439 -27.6175 129.7769 0.0000 0.0000 0.0000
# 4 0.0000 0.0000 0.0000 32.3185 0.0000 0.0000
# 5 0.0000 0.0000 0.0000 0.0000 40.4589 0.0000
# 6 0.0000 0.0000 0.0000 0.0000 0.0000 39.4842
#
#
#
# Elastic Compliance Matrix: (Units=1/GPa)
#
#
# Indices 1 2 3 4 5 6 
#
# 1 0.014559 -0.014965 -0.009259 0.000000 0.000000 0.000000
# 2 -0.014965 0.034467 0.013578 0.000000 0.000000 0.000000
# 3 -0.009259 0.013578 0.014458 0.000000 0.000000 0.000000
# 4 0.000000 0.000000 0.000000 0.030942 0.000000 0.000000
# 5 0.000000 0.000000 0.000000 0.000000 0.024716 0.000000
# 6 0.000000 0.000000 0.000000 0.000000 0.000000 0.025327
#
#
# Mechanical properties :
#
#
# Convention : Reuss Voigt Hill
#
# Bulk Modulus (GPa) = 23.70069 52.49127 38.09598
# Shear Modulus (GPa) = 27.80508 40.17417 33.98963
#
# Velocity S-wave (km/s) = 3.71816 4.46930 4.11093
# Velocity P-wave (km/s) = 5.49700 7.26166 6.44006
#
# Compressibility (1/GPa) = 0.04219287
#
# Stress axis : x y z
#
# Youngs Moduli (GPa) = 68.68735 29.01343 69.16650
#
# Poissons Ratio (x) = 0.43418 0.64039
# Poissons Ratio (y) = 1.02790 -0.93916
# Poissons Ratio (z) = 0.63595 -0.39395
#
# Static dielectric constant tensor:
#      x y z
#    x 1.738360 0.000000 0.000000 
#    y 0.000000 1.761510 0.000000 
#    z 0.000000 0.000000 1.707650 
# 
# From -- ./inp_files/36327.got.cif
#   From: 2010.05.17/outbox.ucp.g08.bks.cvg/sg70_19_cif.got.tgz:36327.got - 2010.06.11 16:26:41.
