data_PCOD9517783
_publ_section_title
;
Structure prediction by ZEFSAII (Michael W. Deem and Ramdas Pophale) SiO2 
 PCOD9517783
Probable space group: I M M M
;
_chemical_formula_sum "Si O2"
_cell_formula_units_Z 80
_cell_length_a 26.811413
_cell_length_b 24.189730
_cell_length_c 8.637599
_cell_angle_alpha 90.000000
_cell_angle_beta 90.000000
_cell_angle_gamma 90.000000
_cell_volume 5602.008475
_symmetry_space_group_name_H-M "I M M M"
_symmetry_group_IT_number 71
_symmetry_cell_setting 'orthorhombic'
loop_
_space_group_symop_operation_xyz
x,y,z
-x,-y,z
x,-y,-z
-x,y,-z
-x,-y,-z
x,y,-z
-x,y,z
x,-y,z
1/2+x,1/2+y,1/2+z
1/2-x,1/2-y,1/2+z
1/2+x,1/2-y,1/2-z
1/2-x,1/2+y,1/2-z
1/2-x,1/2-y,1/2-z
1/2+x,1/2+y,1/2-z
1/2-x,1/2+y,1/2+z
1/2+x,1/2-y,1/2+z
loop_
_atom_site_type_symbol
_atom_site_label
_atom_site_fract_x
_atom_site_fract_y
_atom_site_fract_z
Si Si1 0.202612 0.284315 0.315151
Si Si2 0.852034 0.186931 0.814558
Si Si3 0.219148 0.000000 0.184382
Si Si4 0.057433 0.109196 0.814068
Si Si5 0.757862 0.882060 0.315028
Si Si6 0.607771 0.500000 0.817082
O O1 0.204102 0.285124 0.500000
O O2 0.250000 0.250000 0.250000
O O3 0.156587 0.247681 0.255791
O O4 0.212102 0.345181 0.248382
O O5 0.904819 0.158999 0.777256
O O6 0.808596 0.146799 0.748724
O O7 0.846048 0.189554 0.000000
O O8 0.242418 0.944417 0.254697
O O9 0.160644 0.000000 0.229665
O O10 0.223826 0.000000 0.000000
O O11 0.077241 0.054249 0.731358
O O12 0.000000 0.120239 0.774240
O O13 0.060410 0.100023 0.000000
O O14 0.758955 0.880044 0.500000
O O15 0.617471 0.500000 0.000000
#
# Coordination Sequence:
#
# PCOD9517783 Si02
#       6
#    16  16   8  16  16   8
#     4  10  18  29  45  64  86 111 141 177 219 265
#     4  10  18  30  47  64  85 113 146 184 225 266
#     4  12  22  33  47  64  88 119 149 183 224 267
#     4  10  21  35  49  63  84 117 154 191 232 273
#     4  11  20  31  46  66  88 111 144 181 220 265
#     4  12  23  33  46  63  84 114 152 195 235 267
#
# _framework density 14.280592
#
# number of rings (size 3 to 8) (size 9 to 14) (size 15 to 20)
#    0.000    1.400    2.000    8.700    0.000    2.400 
#    0.000    0.000    0.000    0.000    0.000    0.000 
#    0.000    0.000    0.000    0.900    0.000   18.600 
#
# Total GULP energy -223277.356820 kJ/mol
# GULP energy per Si atom -5581.933920 kJ/mol
# Density = 1.424809 g / cm^3
# Si number density = 14.280592 Si / 1000 Ang^3
#
#
#
# Elastic Constant Matrix: (Units=GPa)
#
#
# Indices 1 2 3 4 5 6 
#
# 1 56.3336 57.6073 38.1329 0.0000 0.0000 0.0000
# 2 57.6073 124.2412 56.1025 0.0000 0.0000 0.0000
# 3 38.1329 56.1025 110.2229 0.0000 0.0000 0.0000
# 4 0.0000 0.0000 0.0000 24.9689 0.0000 0.0000
# 5 0.0000 0.0000 0.0000 0.0000 12.8657 0.0000
# 6 0.0000 0.0000 0.0000 0.0000 0.0000 7.5478
#
#
#
# Elastic Compliance Matrix: (Units=1/GPa)
#
#
# Indices 1 2 3 4 5 6 
#
# 1 0.035852 -0.014312 -0.005119 0.000000 0.000000 0.000000
# 2 -0.014312 0.016164 -0.003276 0.000000 0.000000 0.000000
# 3 -0.005119 -0.003276 0.012511 0.000000 0.000000 0.000000
# 4 0.000000 0.000000 0.000000 0.040050 0.000000 0.000000
# 5 0.000000 0.000000 0.000000 0.000000 0.077726 0.000000
# 6 0.000000 0.000000 0.000000 0.000000 0.000000 0.132489
#
#
# Mechanical properties :
#
#
# Convention : Reuss Voigt Hill
#
# Bulk Modulus (GPa) = 52.31910 66.05367 59.18638
# Shear Modulus (GPa) = 13.63967 18.34014 15.98991
#
# Velocity S-wave (km/s) = 3.09385 3.58756 3.34981
# Velocity P-wave (km/s) = 7.03410 7.96965 7.51645
#
# Compressibility (1/GPa) = 0.01911348
#
# Stress axis : x y z
#
# Youngs Moduli (GPa) = 27.89233 61.86431 79.93066
#
# Poissons Ratio (x) = 0.88542 0.40914
# Poissons Ratio (y) = 0.39920 0.26186
# Poissons Ratio (z) = 0.14277 0.20267
#
# Static dielectric constant tensor:
#      x y z
#    x 1.463250 0.000000 0.000000 
#    y 0.000000 1.489160 0.000000 
#    z 0.000000 0.000000 1.478320 
# 
# From -- ./inp_files/17121.got.cif
#   From: 2010.05.17/outbox.cif.g08.bks.cpg/sg71_9_cif.got.tgz:17121.got - 2010.06.03 16:22:01.
