data_PCOD9517238
_publ_section_title
;
Structure prediction by ZEFSAII (Michael W. Deem and Ramdas Pophale) SiO2 
 PCOD9517238
Probable space group: I M M M
;
_chemical_formula_sum "Si O2"
_cell_formula_units_Z 96
_cell_length_a 23.776424
_cell_length_b 24.469527
_cell_length_c 10.648094
_cell_angle_alpha 90.000000
_cell_angle_beta 90.000000
_cell_angle_gamma 90.000000
_cell_volume 6195.038185
_symmetry_space_group_name_H-M "I M M M"
_symmetry_group_IT_number 71
_symmetry_cell_setting 'orthorhombic'
loop_
_space_group_symop_operation_xyz
x,y,z
-x,-y,z
x,-y,-z
-x,y,-z
-x,-y,-z
x,y,-z
-x,y,z
x,-y,z
1/2+x,1/2+y,1/2+z
1/2-x,1/2-y,1/2+z
1/2+x,1/2-y,1/2-z
1/2-x,1/2+y,1/2-z
1/2-x,1/2-y,1/2-z
1/2+x,1/2+y,1/2-z
1/2-x,1/2+y,1/2+z
1/2+x,1/2-y,1/2+z
loop_
_atom_site_type_symbol
_atom_site_label
_atom_site_fract_x
_atom_site_fract_y
_atom_site_fract_z
Si Si1 0.852809 0.441667 0.000000
Si Si2 0.936355 0.341471 0.000000
Si Si3 0.611840 0.937633 0.144631
Si Si4 0.772548 0.560672 0.242531
Si Si5 0.322477 0.222258 0.858582
Si Si6 0.935689 0.324197 0.724262
Si Si7 0.742880 0.330836 0.149200
O O1 0.812652 0.440423 0.120058
O O2 0.883550 0.500000 0.000000
O O3 0.892785 0.390492 0.000000
O O4 0.930074 0.308888 0.870944
O O5 0.000000 0.363683 0.000000
O O6 0.679446 0.928476 0.153204
O O7 0.580242 0.888713 0.214205
O O8 0.601490 0.000000 0.189702
O O9 0.594475 0.934818 0.000000
O O10 0.748406 0.500000 0.261281
O O11 0.730943 0.610011 0.210452
O O12 0.387960 0.207957 0.850048
O O13 0.306251 0.285912 0.844538
O O14 0.291999 0.192153 0.741328
O O15 0.302333 0.206024 0.000000
O O16 0.000000 0.316357 0.683575
O O17 0.758320 0.335325 0.000000
#
# Coordination Sequence:
#
# PCOD9517238 Si02
#       7
#     8   8  16  16  16  16  16
#     4  10  16  25  42  62  82 108 141 179 219 259
#     4  10  20  31  44  62  84 114 151 193 235 264
#     4  10  20  31  43  60  87 122 157 191 225 264
#     4  10  18  28  46  67  88 115 148 186 229 270
#     4  10  21  33  47  69  92 119 156 190 231 276
#     4  11  22  34  48  64  88 119 156 198 233 272
#     4  10  19  32  50  69  93 119 149 193 232 274
#
# _framework density 15.496273
#
# number of rings (size 3 to 8) (size 9 to 14) (size 15 to 20)
#    0.000    1.833    4.167    0.500    1.167    1.833 
#    0.000    2.500    0.000    0.000    0.000    0.000 
#    0.000    0.667    0.000    3.667    0.000    4.667 
#
# Total GULP energy -267212.887443 kJ/mol
# GULP energy per Si atom -5566.935155 kJ/mol
# Density = 1.546100 g / cm^3
# Si number density = 15.496273 Si / 1000 Ang^3
#
#
#
# Elastic Constant Matrix: (Units=GPa)
#
#
# Indices 1 2 3 4 5 6 
#
# 1 52.8293 36.8586 11.6520 0.0000 0.0000 0.0000
# 2 36.8586 78.6364 7.9155 0.0000 0.0000 0.0000
# 3 11.6520 7.9155 62.1280 0.0000 0.0000 0.0000
# 4 0.0000 0.0000 0.0000 14.4372 0.0000 0.0000
# 5 0.0000 0.0000 0.0000 0.0000 16.1432 0.0000
# 6 0.0000 0.0000 0.0000 0.0000 0.0000 13.4737
#
#
#
# Elastic Compliance Matrix: (Units=1/GPa)
#
#
# Indices 1 2 3 4 5 6 
#
# 1 0.028965 -0.013199 -0.003751 0.000000 0.000000 0.000000
# 2 -0.013199 0.018897 0.000068 0.000000 0.000000 0.000000
# 3 -0.003751 0.000068 0.016791 0.000000 0.000000 0.000000
# 4 0.000000 0.000000 0.000000 0.069266 0.000000 0.000000
# 5 0.000000 0.000000 0.000000 0.000000 0.061946 0.000000
# 6 0.000000 0.000000 0.000000 0.000000 0.000000 0.074219
#
#
# Mechanical properties :
#
#
# Convention : Reuss Voigt Hill
#
# Bulk Modulus (GPa) = 32.37443 34.04955 33.21199
# Shear Modulus (GPa) = 15.91638 17.95531 16.93585
#
# Velocity S-wave (km/s) = 3.20833 3.40764 3.30949
# Velocity P-wave (km/s) = 5.88741 6.12398 6.00686
#
# Compressibility (1/GPa) = 0.03088858
#
# Stress axis : x y z
#
# Youngs Moduli (GPa) = 34.52453 52.91977 59.55717
#
# Poissons Ratio (x) = 0.69848 0.22338
# Poissons Ratio (y) = 0.45569 -0.00404
# Poissons Ratio (z) = 0.12949 -0.00359
#
# Static dielectric constant tensor:
#      x y z
#    x 1.498390 0.000000 0.000000 
#    y 0.000000 1.556650 0.000000 
#    z 0.000000 0.000000 1.593930 
# 
# From -- ./inp_files/26402.got.cif
#   From: 2010.05.17/outbox.cif.g08.bks.cpg/sg71_14_cif.got.tgz:26402.got - 2010.06.03 16:22:01.
