data_PCOD9517555
_publ_section_title
;
Structure prediction by ZEFSAII (Michael W. Deem and Ramdas Pophale) SiO2 
 PCOD9517555
Probable space group: I M M M
;
_chemical_formula_sum "Si O2"
_cell_formula_units_Z 80
_cell_length_a 14.835505
_cell_length_b 18.887085
_cell_length_c 14.502693
_cell_angle_alpha 90.000000
_cell_angle_beta 90.000000
_cell_angle_gamma 90.000000
_cell_volume 4063.646514
_symmetry_space_group_name_H-M "I M M M"
_symmetry_group_IT_number 71
_symmetry_cell_setting 'orthorhombic'
loop_
_space_group_symop_operation_xyz
x,y,z
-x,-y,z
x,-y,-z
-x,y,-z
-x,-y,-z
x,y,-z
-x,y,z
x,-y,z
1/2+x,1/2+y,1/2+z
1/2-x,1/2-y,1/2+z
1/2+x,1/2-y,1/2-z
1/2-x,1/2+y,1/2-z
1/2-x,1/2-y,1/2-z
1/2+x,1/2+y,1/2-z
1/2-x,1/2+y,1/2+z
1/2+x,1/2-y,1/2+z
loop_
_atom_site_type_symbol
_atom_site_label
_atom_site_fract_x
_atom_site_fract_y
_atom_site_fract_z
Si Si1 0.610357 0.000000 0.856664
Si Si2 0.222909 0.780890 0.650225
Si Si3 0.607165 0.581761 0.888805
Si Si4 0.103422 0.653575 0.361535
Si Si5 0.897404 0.346524 0.135087
Si Si6 0.890875 0.500000 0.145518
O O1 0.637085 0.923451 0.894000
O O2 0.641514 0.000000 0.750595
O O3 0.500000 0.000000 0.857923
O O4 0.250000 0.750000 0.750000
O O5 0.167583 0.855046 0.653411
O O6 0.161187 0.720092 0.607978
O O7 0.319380 0.794584 0.604666
O O8 0.500000 0.591442 0.867511
O O9 0.631729 0.500000 0.862965
O O10 0.616148 0.586739 0.000000
O O11 0.102262 0.651370 0.248187
O O12 0.000000 0.662315 0.389676
O O13 0.868122 0.424974 0.103430
O O14 0.000000 0.331589 0.107499
O O15 0.000000 0.500000 0.149480
#
# Coordination Sequence:
#
# PCOD9517555 Si02
#       6
#     8  16  16  16  16   8
#     4   7  10  18  32  48  74 110 139 172 229 304
#     4  10  18  26  43  74  98 124 167 231 280 311
#     4   9  19  36  55  74 104 150 192 220 257 321
#     4   8  13  22  35  56  86 116 148 192 252 310
#     4   8  14  22  33  53  84 117 147 187 245 307
#     4   7  10  18  30  44  66 103 143 171 211 281
#
# _framework density 19.686751999999998
#
# number of rings (size 3 to 8) (size 9 to 14) (size 15 to 20)
#    0.000    3.600    0.000    3.600    1.400    0.800 
#    1.800    0.000    0.000    0.600    0.000    2.100 
#    0.000    4.000    0.000    2.200    0.000    0.000 
#
# Total GULP energy -222718.817934 kJ/mol
# GULP energy per Si atom -5567.970448 kJ/mol
# Density = 1.964194 g / cm^3
# Si number density = 19.686752 Si / 1000 Ang^3
#
#
#
# Elastic Constant Matrix: (Units=GPa)
#
#
# Indices 1 2 3 4 5 6 
#
# 1 109.3063 102.0325 11.5196 0.0000 0.0000 0.0000
# 2 102.0325 188.3548 19.8067 0.0000 0.0000 0.0000
# 3 11.5196 19.8067 84.3156 0.0000 0.0000 0.0000
# 4 0.0000 0.0000 0.0000 -13.1669 0.0000 0.0000
# 5 0.0000 0.0000 0.0000 0.0000 -13.8817 0.0000
# 6 0.0000 0.0000 0.0000 0.0000 0.0000 40.5659
#
#
#
# Elastic Compliance Matrix: (Units=1/GPa)
#
#
# Indices 1 2 3 4 5 6 
#
# 1 0.018509 -0.010008 -0.000178 0.000000 0.000000 0.000000
# 2 -0.010008 0.010855 -0.001183 0.000000 0.000000 0.000000
# 3 -0.000178 -0.001183 0.012162 0.000000 0.000000 0.000000
# 4 0.000000 0.000000 0.000000 -0.075948 0.000000 0.000000
# 5 0.000000 0.000000 0.000000 0.000000 -0.072037 0.000000
# 6 0.000000 0.000000 0.000000 0.000000 0.000000 0.024651
#
#
# Mechanical properties :
#
#
# Convention : Reuss Voigt Hill
#
# Bulk Modulus (GPa) = 53.22056 72.07713 62.64884
# Shear Modulus (GPa) = -94.68246 19.27798 -37.70224
#
# Velocity S-wave (km/s) = -6.94254 3.13267 -4.38094
# Velocity P-wave (km/s) = 6.09695 7.05523 2.51033
#
# Compressibility (1/GPa) = 0.01878973
#
# Stress axis : x y z
#
# Youngs Moduli (GPa) = 54.02733 92.12571 82.22128
#
# Poissons Ratio (x) = 0.92197 0.01462
# Poissons Ratio (y) = 0.54069 0.09723
# Poissons Ratio (z) = 0.00961 0.10895
#
# Static dielectric constant tensor:
#      x y z
#    x 1.699490 0.000000 0.000000 
#    y 0.000000 1.735670 0.000000 
#    z 0.000000 0.000000 1.745640 
# 
# From -- ./inp_files/44649.got.cif
#   From: 2010.05.17/outbox.cif.g08.bks.cpg/sg71_23_cif.got.tgz:44649.got - 2010.06.03 16:22:01.
