data_PCOD9517539
_publ_section_title
;
Structure prediction by ZEFSAII (Michael W. Deem and Ramdas Pophale) SiO2 
 PCOD9517539
Probable space group: I M M M
;
_chemical_formula_sum "Si O2"
_cell_formula_units_Z 120
_cell_length_a 20.507011
_cell_length_b 22.366608
_cell_length_c 13.549778
_cell_angle_alpha 90.000000
_cell_angle_beta 90.000000
_cell_angle_gamma 90.000000
_cell_volume 6214.907518
_symmetry_space_group_name_H-M "I M M M"
_symmetry_group_IT_number 71
_symmetry_cell_setting 'orthorhombic'
loop_
_space_group_symop_operation_xyz
x,y,z
-x,-y,z
x,-y,-z
-x,y,-z
-x,-y,-z
x,y,-z
-x,y,z
x,-y,z
1/2+x,1/2+y,1/2+z
1/2-x,1/2-y,1/2+z
1/2+x,1/2-y,1/2-z
1/2-x,1/2+y,1/2-z
1/2-x,1/2-y,1/2-z
1/2+x,1/2+y,1/2-z
1/2-x,1/2+y,1/2+z
1/2+x,1/2-y,1/2+z
loop_
_atom_site_type_symbol
_atom_site_label
_atom_site_fract_x
_atom_site_fract_y
_atom_site_fract_z
Si Si1 0.429437 0.403695 0.618238
Si Si2 0.165554 0.747708 0.382307
Si Si3 0.423113 0.072455 0.386498
Si Si4 0.806990 0.243706 0.112977
Si Si5 0.927631 0.429327 0.500000
Si Si6 0.787543 0.098660 0.114663
Si Si7 0.572220 0.278032 0.730333
Si Si8 0.348053 0.111834 0.191308
O O1 0.426297 0.392774 0.500000
O O2 0.500000 0.433747 0.636371
O O3 0.357785 0.429058 0.642447
O O4 0.432804 0.341216 0.675626
O O5 0.163727 0.744588 0.500000
O O6 0.237808 0.770777 0.352718
O O7 0.106918 0.785075 0.335834
O O8 0.158060 0.681324 0.338968
O O9 0.405046 0.089635 0.500000
O O10 0.500000 0.087468 0.372868
O O11 0.380715 0.099207 0.296890
O O12 0.418055 0.000000 0.380747
O O13 0.797622 0.171243 0.117279
O O14 0.873535 0.257546 0.168309
O O15 0.815254 0.260400 0.000000
O O16 0.933429 0.500000 0.500000
O O17 0.890808 0.413042 0.399359
O O18 0.000000 0.401439 0.500000
O O19 0.725009 0.085073 0.180849
O O20 0.772650 0.083588 0.000000
O O21 0.500000 0.251382 0.736431
#
# Coordination Sequence:
#
# PCOD9517539 Si02
#       8
#    16  16  16  16   8  16  16  16
#     4   8  14  26  45  67  90 117 152 190 226 265
#     4  10  20  33  44  60  85 120 152 180 228 279
#     4   9  19  36  54  68  85 114 149 182 220 266
#     4   8  15  29  47  60  79 112 150 185 222 270
#     4  11  22  32  46  70  95 119 147 181 224 272
#     4   8  13  24  43  67  93 118 143 181 229 269
#     4  10  18  26  40  62  84 111 148 190 227 257
#     4  11  18  32  49  68  91 117 148 185 225 269
#
# _framework density 19.308412000000001
#
# number of rings (size 3 to 8) (size 9 to 14) (size 15 to 20)
#    0.000    2.733    1.333    3.600    0.000    3.200 
#    0.000    1.333    0.000    8.800    0.000    0.000 
#    0.000    2.667    0.000    1.467    0.000    1.067 
#
# Total GULP energy -334160.049232 kJ/mol
# GULP energy per Si atom -5569.334154 kJ/mol
# Density = 1.926447 g / cm^3
# Si number density = 19.308412 Si / 1000 Ang^3
#
#
#
# Elastic Constant Matrix: (Units=GPa)
#
#
# Indices 1 2 3 4 5 6 
#
# 1 201.8617 20.0373 85.1507 0.0000 0.0000 0.0000
# 2 20.0373 23.9565 9.9896 0.0000 0.0000 0.0000
# 3 85.1507 9.9896 123.3441 0.0000 0.0000 0.0000
# 4 0.0000 0.0000 0.0000 276.6590 0.0000 0.0000
# 5 0.0000 0.0000 0.0000 0.0000 34.1807 0.0000
# 6 0.0000 0.0000 0.0000 0.0000 0.0000 15.2115
#
#
#
# Elastic Compliance Matrix: (Units=1/GPa)
#
#
# Indices 1 2 3 4 5 6 
#
# 1 0.007374 -0.004186 -0.004751 0.000000 0.000000 0.000000
# 2 -0.004186 0.045578 -0.000801 0.000000 0.000000 0.000000
# 3 -0.004751 -0.000801 0.011452 0.000000 0.000000 0.000000
# 4 0.000000 0.000000 0.000000 0.003615 0.000000 0.000000
# 5 0.000000 0.000000 0.000000 0.000000 0.029256 0.000000
# 6 0.000000 0.000000 0.000000 0.000000 0.000000 0.065740
#
#
# Mechanical properties :
#
#
# Convention : Reuss Voigt Hill
#
# Bulk Modulus (GPa) = 22.25882 64.39082 43.32482
# Shear Modulus (GPa) = 25.32061 80.80922 53.06492
#
# Velocity S-wave (km/s) = 3.62522 6.47632 5.24809
# Velocity P-wave (km/s) = 5.39222 9.45222 7.69482
#
# Compressibility (1/GPa) = 0.04492601
#
# Stress axis : x y z
#
# Youngs Moduli (GPa) = 135.61774 21.94050 87.31767
#
# Poissons Ratio (x) = 0.09184 0.41488
# Poissons Ratio (y) = 0.56771 0.06998
# Poissons Ratio (z) = 0.64437 0.01759
#
# Static dielectric constant tensor:
#      x y z
#    x 1.763490 0.000000 0.000000 
#    y 0.000000 1.718280 0.000000 
#    z 0.000000 0.000000 1.701440 
# 
# From -- ./inp_files/26611.got.cif
#   From: 2010.05.17/outbox.cif.g08.bks.cpg/sg71_14_cif.got.tgz:26611.got - 2010.06.03 16:22:01.
