data_PCOD9517520
_publ_section_title
;
Structure prediction by ZEFSAII (Michael W. Deem and Ramdas Pophale) SiO2 
 PCOD9517520
Probable space group: I M M M
;
_chemical_formula_sum "Si O2"
_cell_formula_units_Z 72
_cell_length_a 28.278739
_cell_length_b 7.706406
_cell_length_c 20.092703
_cell_angle_alpha 90.000000
_cell_angle_beta 90.000000
_cell_angle_gamma 90.000000
_cell_volume 4378.751406
_symmetry_space_group_name_H-M "I M M M"
_symmetry_group_IT_number 71
_symmetry_cell_setting 'orthorhombic'
loop_
_space_group_symop_operation_xyz
x,y,z
-x,-y,z
x,-y,-z
-x,y,-z
-x,-y,-z
x,y,-z
-x,y,z
x,-y,z
1/2+x,1/2+y,1/2+z
1/2-x,1/2-y,1/2+z
1/2+x,1/2-y,1/2-z
1/2-x,1/2+y,1/2-z
1/2-x,1/2-y,1/2-z
1/2+x,1/2+y,1/2-z
1/2-x,1/2+y,1/2+z
1/2+x,1/2-y,1/2+z
loop_
_atom_site_type_symbol
_atom_site_label
_atom_site_fract_x
_atom_site_fract_y
_atom_site_fract_z
Si Si1 0.601205 0.708522 0.626983
Si Si2 0.663001 0.288666 0.500000
Si Si3 0.228370 0.199370 0.500000
Si Si4 0.180067 0.705513 0.224730
Si Si5 0.000000 0.212537 0.077997
Si Si6 0.270616 0.295082 0.144035
O O1 0.599539 0.500000 0.624691
O O2 0.633635 0.764812 0.564895
O O3 0.629240 0.758457 0.693254
O O4 0.547954 0.770901 0.614213
O O5 0.667524 0.500000 0.500000
O O6 0.714548 0.206933 0.500000
O O7 0.215740 0.279151 0.571915
O O8 0.210932 0.000000 0.500000
O O9 0.186866 0.500000 0.228615
O O10 0.221476 0.776717 0.175337
O O11 0.190887 0.775402 0.298050
O O12 0.000000 0.000000 0.077925
O O13 0.000000 0.263515 0.000000
O O14 0.262479 0.500000 0.133038
#
# Coordination Sequence:
#
# PCOD9517520 Si02
#       6
#    16   8   8  16   8  16
#     4  10  18  29  45  63  86 116 152 188 220 255
#     4  10  18  25  40  64  86 114 149 185 218 255
#     4  10  18  30  45  63  87 115 145 182 222 259
#     4  10  19  30  44  61  86 117 147 180 219 260
#     4   9  16  28  45  65  87 114 151 190 221 251
#     4   9  18  30  44  62  85 113 146 180 217 260
#
# _framework density 16.443042999999999
#
# number of rings (size 3 to 8) (size 9 to 14) (size 15 to 20)
#    0.000    2.333    3.333    0.667    0.000    1.778 
#    0.000    0.556    0.000    0.667    0.000    0.000 
#    0.000    0.889    0.000   10.222    0.000    4.000 
#
# Total GULP energy -200690.156683 kJ/mol
# GULP energy per Si atom -5574.726575 kJ/mol
# Density = 1.640562 g / cm^3
# Si number density = 16.443043 Si / 1000 Ang^3
#
#
#
# Elastic Constant Matrix: (Units=GPa)
#
#
# Indices 1 2 3 4 5 6 
#
# 1 74.4188 -6.9601 49.2827 0.0000 0.0000 0.0000
# 2 -6.9601 25.6020 0.7951 0.0000 0.0000 0.0000
# 3 49.2827 0.7951 149.4359 0.0000 0.0000 0.0000
# 4 0.0000 0.0000 0.0000 8.4624 0.0000 0.0000
# 5 0.0000 0.0000 0.0000 0.0000 26.5725 0.0000
# 6 0.0000 0.0000 0.0000 0.0000 0.0000 13.4770
#
#
#
# Elastic Compliance Matrix: (Units=1/GPa)
#
#
# Indices 1 2 3 4 5 6 
#
# 1 0.017816 0.005027 -0.005902 0.000000 0.000000 0.000000
# 2 0.005027 0.040484 -0.001873 0.000000 0.000000 0.000000
# 3 -0.005902 -0.001873 0.008648 0.000000 0.000000 0.000000
# 4 0.000000 0.000000 0.000000 0.118170 0.000000 0.000000
# 5 0.000000 0.000000 0.000000 0.000000 0.037633 0.000000
# 6 0.000000 0.000000 0.000000 0.000000 0.000000 0.074200
#
#
# Mechanical properties :
#
#
# Convention : Reuss Voigt Hill
#
# Bulk Modulus (GPa) = 16.27306 37.29914 26.78610
# Shear Modulus (GPa) = 15.48303 23.45830 19.47066
#
# Velocity S-wave (km/s) = 3.07190 3.78119 3.44485
# Velocity P-wave (km/s) = 4.74344 6.46500 5.66994
#
# Compressibility (1/GPa) = 0.06145125
#
# Stress axis : x y z
#
# Youngs Moduli (GPa) = 56.12803 24.70102 115.62864
#
# Poissons Ratio (x) = -0.12417 0.68249
# Poissons Ratio (y) = -0.28215 0.21660
# Poissons Ratio (z) = 0.33129 0.04627
#
# Static dielectric constant tensor:
#      x y z
#    x 1.534430 0.000000 0.000000 
#    y 0.000000 1.610860 0.000000 
#    z 0.000000 0.000000 1.591360 
# 
# From -- ./inp_files/8208.got.cif
#   From: 2010.05.17/outbox.cif.g08.bks.cpg/sg71_5_cif.got.tgz:8208.got - 2010.06.03 16:22:01.
