data_PCOD9517512
_publ_section_title
;
Structure prediction by ZEFSAII (Michael W. Deem and Ramdas Pophale) SiO2 
 PCOD9517512
Probable space group: I M M M
;
_chemical_formula_sum "Si O2"
_cell_formula_units_Z 90
_cell_length_a 27.807647
_cell_length_b 19.922285
_cell_length_c 7.383754
_cell_angle_alpha 90.000000
_cell_angle_beta 90.000000
_cell_angle_gamma 90.000000
_cell_volume 4090.539677
_symmetry_space_group_name_H-M "I M M M"
_symmetry_group_IT_number 71
_symmetry_cell_setting 'orthorhombic'
loop_
_space_group_symop_operation_xyz
x,y,z
-x,-y,z
x,-y,-z
-x,y,-z
-x,-y,-z
x,y,-z
-x,y,z
x,-y,z
1/2+x,1/2+y,1/2+z
1/2-x,1/2-y,1/2+z
1/2+x,1/2-y,1/2-z
1/2-x,1/2+y,1/2-z
1/2-x,1/2-y,1/2-z
1/2+x,1/2+y,1/2-z
1/2-x,1/2+y,1/2+z
1/2+x,1/2-y,1/2+z
loop_
_atom_site_type_symbol
_atom_site_label
_atom_site_fract_x
_atom_site_fract_y
_atom_site_fract_z
Si Si1 0.354596 0.775913 0.718201
Si Si2 0.842218 0.125574 0.288230
Si Si3 0.448484 0.149917 0.291305
Si Si4 0.181601 0.500000 0.218367
Si Si5 0.500000 0.500000 0.500000
Si Si6 0.408470 0.500000 0.223481
Si Si7 0.766247 0.362094 0.220585
Si Si8 0.570689 0.000000 0.795020
O O1 0.352868 0.781678 0.500000
O O2 0.364448 0.699210 0.766832
O O3 0.398998 0.821027 0.786232
O O4 0.302698 0.803539 0.783180
O O5 0.835347 0.110540 0.500000
O O6 0.788315 0.134723 0.211143
O O7 0.876345 0.065529 0.225201
O O8 0.449262 0.172482 0.500000
O O9 0.500000 0.169842 0.209404
O O10 0.445469 0.069507 0.290783
O O11 0.209132 0.567420 0.269066
O O12 0.128194 0.500000 0.291475
O O13 0.177499 0.500000 0.000000
O O14 0.457238 0.500000 0.339561
O O15 0.415941 0.500000 0.000000
O O16 0.764485 0.357611 0.000000
O O17 0.553648 0.000000 0.000000
#
# Coordination Sequence:
#
# PCOD9517512 Si02
#       8
#    16  16  16   8   2   8  16   8
#     4  10  20  35  57  88 124 161 213 257 302 376
#     4  10  21  39  63  92 128 162 197 254 319 385
#     4  10  21  39  59  80 108 155 209 256 293 345
#     4  10  17  33  59  81 110 157 208 242 278 346
#     4  12  26  48  84 102 128 168 206 278 346 394
#     4  10  24  47  72 103 132 164 217 269 332 411
#     4   9  17  32  59  89 120 166 210 252 306 367
#     4  12  23  34  53  80 116 150 192 248 302 350
#
# _framework density 22.001988000000001
#
# number of rings (size 3 to 8) (size 9 to 14) (size 15 to 20)
#    0.000    1.956    1.778    2.267    1.244    4.267 
#    1.600    0.889    1.956    0.000    0.000    0.000 
#    0.000    0.000    0.000    0.000    0.000    0.000 
#
# Total GULP energy -250997.154016 kJ/mol
# GULP energy per Si atom -5577.714534 kJ/mol
# Density = 2.195191 g / cm^3
# Si number density = 22.001988 Si / 1000 Ang^3
#
#
#
# Elastic Constant Matrix: (Units=GPa)
#
#
# Indices 1 2 3 4 5 6 
#
# 1 199.3154 80.0251 22.3442 0.0000 0.0000 0.0000
# 2 80.0251 142.4744 0.0084 0.0000 0.0000 0.0000
# 3 22.3442 0.0084 89.3858 0.0000 0.0000 0.0000
# 4 0.0000 0.0000 0.0000 14.5104 0.0000 0.0000
# 5 0.0000 0.0000 0.0000 0.0000 -10.5187 0.0000
# 6 0.0000 0.0000 0.0000 0.0000 0.0000 -94.7081
#
#
#
# Elastic Compliance Matrix: (Units=1/GPa)
#
#
# Indices 1 2 3 4 5 6 
#
# 1 0.006721 -0.003775 -0.001680 0.000000 0.000000 0.000000
# 2 -0.003775 0.009139 0.000943 0.000000 0.000000 0.000000
# 3 -0.001680 0.000943 0.011607 0.000000 0.000000 0.000000
# 4 0.000000 0.000000 0.000000 0.068916 0.000000 0.000000
# 5 0.000000 0.000000 0.000000 0.000000 -0.095069 0.000000
# 6 0.000000 0.000000 0.000000 0.000000 0.000000 -0.010559
#
#
# Mechanical properties :
#
#
# Convention : Reuss Voigt Hill
#
# Bulk Modulus (GPa) = 54.21954 70.65902 62.43928
# Shear Modulus (GPa) = 843.45011 3.77658 423.61334
#
# Velocity S-wave (km/s) = 19.60061 1.31156 13.89072
# Velocity P-wave (km/s) = 23.17201 5.87181 16.90296
#
# Compressibility (1/GPa) = 0.01844353
#
# Stress axis : x y z
#
# Youngs Moduli (GPa) = 148.78368 109.41968 86.15291
#
# Poissons Ratio (x) = 0.41306 0.14472
# Poissons Ratio (y) = 0.56167 -0.08123
# Poissons Ratio (z) = 0.24992 -0.10316
#
# Static dielectric constant tensor:
#      x y z
#    x 1.819460 0.000000 0.000000 
#    y 0.000000 1.767390 0.000000 
#    z 0.000000 0.000000 1.838620 
# 
# From -- ./inp_files/12659.got.cif
#   From: 2010.05.17/outbox.cif.g08.bks.cpg/sg71_7_cif.got.tgz:12659.got - 2010.06.03 16:22:01.
