data_PCOD9517697
_publ_section_title
;
Structure prediction by ZEFSAII (Michael W. Deem and Ramdas Pophale) SiO2 
 PCOD9517697
Probable space group: I M M M
;
_chemical_formula_sum "Si O2"
_cell_formula_units_Z 104
_cell_length_a 9.378846
_cell_length_b 24.559167
_cell_length_c 29.052881
_cell_angle_alpha 90.000000
_cell_angle_beta 90.000000
_cell_angle_gamma 90.000000
_cell_volume 6691.943142
_symmetry_space_group_name_H-M "I M M M"
_symmetry_group_IT_number 71
_symmetry_cell_setting 'orthorhombic'
loop_
_space_group_symop_operation_xyz
x,y,z
-x,-y,z
x,-y,-z
-x,y,-z
-x,-y,-z
x,y,-z
-x,y,z
x,-y,z
1/2+x,1/2+y,1/2+z
1/2-x,1/2-y,1/2+z
1/2+x,1/2-y,1/2-z
1/2-x,1/2+y,1/2-z
1/2-x,1/2-y,1/2-z
1/2+x,1/2+y,1/2-z
1/2-x,1/2+y,1/2+z
1/2+x,1/2-y,1/2+z
loop_
_atom_site_type_symbol
_atom_site_label
_atom_site_fract_x
_atom_site_fract_y
_atom_site_fract_z
Si Si1 0.329922 0.733142 0.945758
Si Si2 0.827838 0.631120 0.910028
Si Si3 0.828982 0.563698 0.819601
Si Si4 0.172053 0.936030 0.125530
Si Si5 0.663857 0.566108 0.271465
Si Si6 0.173303 0.562361 0.000000
Si Si7 0.670758 0.140517 0.053846
O O1 0.500000 0.726099 0.939964
O O2 0.244223 0.689569 0.916227
O O3 0.295557 0.796184 0.935678
O O4 0.297615 0.724024 0.000000
O O5 0.787496 0.600099 0.863237
O O6 0.000000 0.636199 0.910959
O O7 0.784258 0.594487 0.954041
O O8 0.790558 0.500000 0.827614
O O9 0.757718 0.582475 0.772041
O O10 0.000000 0.565818 0.815235
O O11 0.213624 0.917827 0.177413
O O12 0.246527 0.899708 0.087267
O O13 0.000000 0.931993 0.122814
O O14 0.208584 0.000000 0.120009
O O15 0.500000 0.583630 0.265271
O O16 0.663814 0.500000 0.272307
O O17 0.223469 0.500000 0.000000
O O18 0.000000 0.560875 0.000000
O O19 0.500000 0.133851 0.058838
O O20 0.705230 0.130872 0.000000
#
# Coordination Sequence:
#
# PCOD9517697 Si02
#       7
#    16  16  16  16  16   8  16
#     4   9  18  33  49  64  88 122 159 197 234 271
#     4  10  18  28  45  68  91 120 159 197 232 277
#     4   9  17  28  43  67  96 122 153 194 235 275
#     4   9  18  32  50  74 101 125 150 184 228 274
#     4   8  15  29  47  66  91 123 155 185 223 275
#     4   9  16  26  41  63  93 125 152 185 234 283
#     4   9  19  34  50  70  96 126 157 188 226 274
#
# _framework density 15.541078000000001
#
# number of rings (size 3 to 8) (size 9 to 14) (size 15 to 20)
#    0.000    3.000    0.769    2.308    0.000    4.615 
#    0.000    4.615    0.000    2.769    0.000    0.000 
#    0.000    0.000    0.000    0.000    0.000    0.000 
#
# Total GULP energy -289629.179512 kJ/mol
# GULP energy per Si atom -5569.791914 kJ/mol
# Density = 1.550571 g / cm^3
# Si number density = 15.541078 Si / 1000 Ang^3
#
#
#
# Elastic Constant Matrix: (Units=GPa)
#
#
# Indices 1 2 3 4 5 6 
#
# 1 24.2788 41.1299 52.4146 0.0000 0.0000 0.0000
# 2 41.1299 91.3564 86.1677 0.0000 0.0000 0.0000
# 3 52.4146 86.1677 149.7178 0.0000 0.0000 0.0000
# 4 0.0000 0.0000 0.0000 9.4599 0.0000 0.0000
# 5 0.0000 0.0000 0.0000 0.0000 29.0214 0.0000
# 6 0.0000 0.0000 0.0000 0.0000 0.0000 25.8607
#
#
#
# Elastic Compliance Matrix: (Units=1/GPa)
#
#
# Indices 1 2 3 4 5 6 
#
# 1 0.327761 -0.086041 -0.065226 0.000000 0.000000 0.000000
# 2 -0.086041 0.046531 0.003342 0.000000 0.000000 0.000000
# 3 -0.065226 0.003342 0.027591 0.000000 0.000000 0.000000
# 4 0.000000 0.000000 0.000000 0.105710 0.000000 0.000000
# 5 0.000000 0.000000 0.000000 0.000000 0.034457 0.000000
# 6 0.000000 0.000000 0.000000 0.000000 0.000000 0.038669
#
#
# Mechanical properties :
#
#
# Convention : Reuss Voigt Hill
#
# Bulk Modulus (GPa) = 9.43109 69.41972 39.42540
# Shear Modulus (GPa) = 5.48299 18.57780 12.03039
#
# Velocity S-wave (km/s) = 1.88035 3.46121 2.78529
# Velocity P-wave (km/s) = 3.28572 7.79351 5.98058
#
# Compressibility (1/GPa) = 0.10603230
#
# Stress axis : x y z
#
# Youngs Moduli (GPa) = 3.05101 21.49118 36.24391
#
# Poissons Ratio (x) = 1.84912 2.36405
# Poissons Ratio (y) = 0.26251 -0.12112
# Poissons Ratio (z) = 0.19901 -0.07182
#
# Static dielectric constant tensor:
#      x y z
#    x 1.515070 0.000000 0.000000 
#    y 0.000000 1.501660 0.000000 
#    z 0.000000 0.000000 1.512590 
# 
# From -- ./inp_files/11510.got.cif
#   From: 2010.05.17/outbox.cif.g08.bks.cpg/sg71_6_cif.got.tgz:11510.got - 2010.06.03 16:22:01.
