data_PCOD9517316
_publ_section_title
;
Structure prediction by ZEFSAII (Michael W. Deem and Ramdas Pophale) SiO2 
 PCOD9517316
Probable space group: I M M M
;
_chemical_formula_sum "Si O2"
_cell_formula_units_Z 104
_cell_length_a 7.370769
_cell_length_b 25.303223
_cell_length_c 29.557845
_cell_angle_alpha 90.000000
_cell_angle_beta 90.000000
_cell_angle_gamma 90.000000
_cell_volume 5512.662581
_symmetry_space_group_name_H-M "I M M M"
_symmetry_group_IT_number 71
_symmetry_cell_setting 'orthorhombic'
loop_
_space_group_symop_operation_xyz
x,y,z
-x,-y,z
x,-y,-z
-x,y,-z
-x,-y,-z
x,y,-z
-x,y,z
x,-y,z
1/2+x,1/2+y,1/2+z
1/2-x,1/2-y,1/2+z
1/2+x,1/2-y,1/2-z
1/2-x,1/2+y,1/2-z
1/2-x,1/2-y,1/2-z
1/2+x,1/2+y,1/2-z
1/2-x,1/2+y,1/2+z
1/2+x,1/2-y,1/2+z
loop_
_atom_site_type_symbol
_atom_site_label
_atom_site_fract_x
_atom_site_fract_y
_atom_site_fract_z
Si Si1 0.716284 0.127208 0.586851
Si Si2 0.282656 0.560069 0.824311
Si Si3 0.721254 0.644150 0.448031
Si Si4 0.290684 0.564239 0.726206
Si Si5 0.221965 0.560887 0.000000
Si Si6 0.779641 0.737078 0.947427
Si Si7 0.777762 0.060990 0.872983
O O1 0.500000 0.130055 0.581038
O O2 0.748150 0.098714 0.634258
O O3 0.782761 0.091481 0.545030
O O4 0.783993 0.187252 0.581690
O O5 0.500000 0.556441 0.819437
O O6 0.217163 0.500000 0.833722
O O7 0.211885 0.578835 0.775155
O O8 0.776212 0.633986 0.500000
O O9 0.500000 0.643762 0.447843
O O10 0.779714 0.703702 0.435335
O O11 0.780712 0.600159 0.412508
O O12 0.500000 0.582330 0.725797
O O13 0.290998 0.500000 0.726496
O O14 0.214382 0.578659 0.677112
O O15 0.279256 0.500000 0.000000
O O16 0.000000 0.560890 0.000000
O O17 0.000000 0.738280 0.945723
O O18 0.731499 0.727367 0.000000
O O19 0.000000 0.061118 0.871879
O O20 0.724160 0.000000 0.880583
#
# Coordination Sequence:
#
# PCOD9517316 Si02
#       7
#    16  16  16  16   8  16  16
#     4  10  17  26  41  57  73  98 131 164 192 227
#     4   9  17  28  40  55  76 100 126 160 201 236
#     4   8  13  19  29  48  74 100 125 157 192 224
#     4   7  11  21  35  48  65  94 130 159 182 221
#     4   9  16  24  35  53  73  91 116 154 196 231
#     4   8  13  23  36  49  67  95 131 161 186 222
#     4   8  12  18  30  49  72  99 129 156 185 225
#
# _framework density 18.865656999999999
#
# number of rings (size 3 to 8) (size 9 to 14) (size 15 to 20)
#    0.000    3.615    0.769    3.231    0.000    1.231 
#    0.000    1.923    0.000    2.308    0.000    0.000 
#    0.000    0.000    0.000    0.923    0.000    1.846 
#
# Total GULP energy -289653.242717 kJ/mol
# GULP energy per Si atom -5570.254668 kJ/mol
# Density = 1.882272 g / cm^3
# Si number density = 18.865657 Si / 1000 Ang^3
#
#
#
# Elastic Constant Matrix: (Units=GPa)
#
#
# Indices 1 2 3 4 5 6 
#
# 1 65.3080 5.2997 4.0347 0.0000 0.0000 0.0000
# 2 5.2997 140.2507 121.3242 0.0000 0.0000 0.0000
# 3 4.0347 121.3242 187.4381 0.0000 0.0000 0.0000
# 4 0.0000 0.0000 0.0000 9.2430 0.0000 0.0000
# 5 0.0000 0.0000 0.0000 0.0000 14.9624 0.0000
# 6 0.0000 0.0000 0.0000 0.0000 0.0000 -2.5535
#
#
#
# Elastic Compliance Matrix: (Units=1/GPa)
#
#
# Indices 1 2 3 4 5 6 
#
# 1 0.015360 -0.000669 0.000102 0.000000 0.000000 0.000000
# 2 -0.000669 0.016231 -0.010492 0.000000 0.000000 0.000000
# 3 0.000102 -0.010492 0.012124 0.000000 0.000000 0.000000
# 4 0.000000 0.000000 0.000000 0.108190 0.000000 0.000000
# 5 0.000000 0.000000 0.000000 0.000000 0.066834 0.000000
# 6 0.000000 0.000000 0.000000 0.000000 0.000000 -0.391615
#
#
# Mechanical properties :
#
#
# Convention : Reuss Voigt Hill
#
# Bulk Modulus (GPa) = 46.29929 72.70154 59.50042
# Shear Modulus (GPa) = -34.82878 21.81959 -6.50459
#
# Velocity S-wave (km/s) = -4.30134 3.40454 -1.85885
# Velocity P-wave (km/s) = 0.27181 7.35354 5.19619
#
# Compressibility (1/GPa) = 0.02159860
#
# Stress axis : x y z
#
# Youngs Moduli (GPa) = 65.10403 61.60972 82.48176
#
# Poissons Ratio (x) = 0.04122 -0.00844
# Poissons Ratio (y) = 0.04355 0.86537
# Poissons Ratio (z) = -0.00667 0.64639
#
# Static dielectric constant tensor:
#      x y z
#    x 1.776250 0.000000 0.000000 
#    y 0.000000 1.634160 0.000000 
#    z 0.000000 0.000000 1.663840 
# 
# From -- ./inp_files/58219.got.cif
#   From: 2010.05.17/outbox.cif.g08.bks.cpg/sg71_30_cif.got.tgz:58219.got - 2010.06.03 16:22:01.
