data_PCOD9517686
_publ_section_title
;
Structure prediction by ZEFSAII (Michael W. Deem and Ramdas Pophale) SiO2 
 PCOD9517686
Probable space group: I M M M
;
_chemical_formula_sum "Si O2"
_cell_formula_units_Z 56
_cell_length_a 15.108916
_cell_length_b 7.628115
_cell_length_c 28.813837
_cell_angle_alpha 90.000000
_cell_angle_beta 90.000000
_cell_angle_gamma 90.000000
_cell_volume 3320.868154
_symmetry_space_group_name_H-M "I M M M"
_symmetry_group_IT_number 71
_symmetry_cell_setting 'orthorhombic'
loop_
_space_group_symop_operation_xyz
x,y,z
-x,-y,z
x,-y,-z
-x,y,-z
-x,-y,-z
x,y,-z
-x,y,z
x,-y,z
1/2+x,1/2+y,1/2+z
1/2-x,1/2-y,1/2+z
1/2+x,1/2-y,1/2-z
1/2-x,1/2+y,1/2-z
1/2-x,1/2-y,1/2-z
1/2+x,1/2+y,1/2-z
1/2-x,1/2+y,1/2+z
1/2+x,1/2-y,1/2+z
loop_
_atom_site_type_symbol
_atom_site_label
_atom_site_fract_x
_atom_site_fract_y
_atom_site_fract_z
Si Si1 0.171791 0.792591 0.622248
Si Si2 0.500000 0.803008 0.712939
Si Si3 0.303811 0.211075 0.297600
Si Si4 0.000000 0.201175 0.314115
Si Si5 0.606357 0.000000 0.055283
O O1 0.251124 0.734717 0.656242
O O2 0.085609 0.773518 0.654727
O O3 0.152339 0.669115 0.578702
O O4 0.181245 0.000000 0.610680
O O5 0.404534 0.720193 0.701971
O O6 0.500000 0.815237 0.768600
O O7 0.500000 0.000000 0.692559
O O8 0.250000 0.250000 0.250000
O O9 0.308209 0.000000 0.298725
O O10 0.000000 0.000000 0.297511
O O11 0.500000 0.000000 0.065546
O O12 0.616026 0.000000 0.000000
#
# Coordination Sequence:
#
# PCOD9517686 Si02
#       5
#    16   8  16   8   8
#     4  10  21  36  53  75 108 147 180 216 267 322
#     4  10  20  30  46  72 105 144 189 222 248 305
#     4  10  20  31  47  73 105 144 183 219 259 314
#     4  10  18  28  44  71 106 143 178 210 253 310
#     4  11  24  38  58  83 105 137 183 230 277 325
#
# _framework density 16.863060999999998
#
# number of rings (size 3 to 8) (size 9 to 14) (size 15 to 20)
#    0.000    1.857    4.286    0.000    4.000    0.571 
#    0.000    1.429    0.000    0.000    0.000    2.000 
#    0.000    5.714    0.000    0.000    0.000    0.000 
#
# Total GULP energy -156092.516410 kJ/mol
# GULP energy per Si atom -5574.732729 kJ/mol
# Density = 1.682468 g / cm^3
# Si number density = 16.863061 Si / 1000 Ang^3
#
#
#
# Elastic Constant Matrix: (Units=GPa)
#
#
# Indices 1 2 3 4 5 6 
#
# 1 143.2222 36.3433 54.9754 0.0000 0.0000 0.0000
# 2 36.3433 62.7608 52.4697 0.0000 0.0000 0.0000
# 3 54.9754 52.4697 103.9189 0.0000 0.0000 0.0000
# 4 0.0000 0.0000 0.0000 21.6805 0.0000 0.0000
# 5 0.0000 0.0000 0.0000 0.0000 621.8902 0.0000
# 6 0.0000 0.0000 0.0000 0.0000 0.0000 17.0145
#
#
#
# Elastic Compliance Matrix: (Units=1/GPa)
#
#
# Indices 1 2 3 4 5 6 
#
# 1 0.008920 -0.002112 -0.003653 0.000000 0.000000 0.000000
# 2 -0.002112 0.028072 -0.013057 0.000000 0.000000 0.000000
# 3 -0.003653 -0.013057 0.018148 0.000000 0.000000 0.000000
# 4 0.000000 0.000000 0.000000 0.046124 0.000000 0.000000
# 5 0.000000 0.000000 0.000000 0.000000 0.001608 0.000000
# 6 0.000000 0.000000 0.000000 0.000000 0.000000 0.058773
#
#
# Mechanical properties :
#
#
# Convention : Reuss Voigt Hill
#
# Bulk Modulus (GPa) = 57.15052 66.38653 61.76852
# Shear Modulus (GPa) = 24.37591 143.19128 83.78360
#
# Velocity S-wave (km/s) = 3.80613 9.22489 7.05638
# Velocity P-wave (km/s) = 7.29931 12.36601 10.15377
#
# Compressibility (1/GPa) = 0.01749765
#
# Stress axis : x y z
#
# Youngs Moduli (GPa) = 112.10657 35.62253 55.10313
#
# Poissons Ratio (x) = 0.07522 0.20128
# Poissons Ratio (y) = 0.23673 0.71947
# Poissons Ratio (z) = 0.40950 0.46512
#
# Static dielectric constant tensor:
#      x y z
#    x 1.614410 0.000000 0.000000 
#    y 0.000000 1.628390 0.000000 
#    z 0.000000 0.000000 1.524190 
# 
# From -- ./inp_files/3633.got.cif
#   From: 2010.05.17/outbox.cif.g08.bks.cpg/sg71_2_cif.got.tgz:3633.got - 2010.06.03 16:22:01.
