data_PCOD9517060
_publ_section_title
;
Structure prediction by ZEFSAII (Michael W. Deem and Ramdas Pophale) SiO2 
 PCOD9517060
Probable space group: F D D D
;
_chemical_formula_sum "Si O2"
_cell_formula_units_Z 168
_cell_length_a 31.888997
_cell_length_b 12.240353
_cell_length_c 20.157534
_cell_angle_alpha 90.000000
_cell_angle_beta 90.000000
_cell_angle_gamma 90.000000
_cell_volume 7868.142255
_symmetry_space_group_name_H-M "F D D D"
_symmetry_group_IT_number 70
_space_group.IT_coordinate_system_code '2'
_symmetry_cell_setting 'orthorhombic'
loop_
_space_group_symop_operation_xyz
x,y,z
1/4-x,1/4-y,z
x,1/4-y,1/4-z
1/4-x,y,1/4-z
-x,-y,-z
3/4+x,3/4+y,-z
-x,3/4+y,3/4+z
3/4+x,-y,3/4+z
x,1/2+y,1/2+z
1/4-x,3/4-y,1/2+z
x,3/4-y,3/4-z
1/4-x,1/2+y,3/4-z
-x,1/2-y,1/2-z
3/4+x,1/4+y,1/2-z
-x,1/4+y,1/4+z
3/4+x,1/2-y,1/4+z
1/2+x,y,1/2+z
3/4-x,1/4-y,1/2+z
1/2+x,1/4-y,3/4-z
3/4-x,y,3/4-z
1/2-x,-y,1/2-z
1/4+x,3/4+y,1/2-z
1/2-x,3/4+y,1/4+z
1/4+x,-y,1/4+z
1/2+x,1/2+y,z
3/4-x,3/4-y,z
1/2+x,3/4-y,1/4-z
3/4-x,1/2+y,1/4-z
1/2-x,1/2-y,-z
1/4+x,1/4+y,-z
1/2-x,1/4+y,3/4+z
1/4+x,1/2-y,3/4+z
loop_
_atom_site_type_symbol
_atom_site_label
_atom_site_fract_x
_atom_site_fract_y
_atom_site_fract_z
Si Si1 0.625000 0.125000 0.283256
Si Si2 0.477235 0.644986 0.382395
Si Si3 0.940522 0.994183 0.627867
Si Si4 0.920354 0.166732 0.993453
Si Si5 0.375000 0.375000 0.875000
Si Si6 0.774310 0.125000 0.625000
Si Si7 0.335860 0.720967 0.269223
O O1 0.595166 0.198031 0.329886
O O2 0.654468 0.208125 0.243182
O O3 0.515601 0.561700 0.388056
O O4 0.447445 0.612186 0.321169
O O5 0.496670 0.765337 0.369428
O O6 0.450719 0.646362 0.450432
O O7 0.942208 0.125000 0.625000
O O8 0.928783 0.967159 0.703801
O O9 0.878364 0.094213 0.994771
O O10 0.946979 0.142345 0.059794
O O11 0.346370 0.447120 0.921897
#
# Coordination Sequence:
#
# PCOD9517060 Si02
#       7
#    16  32  32  32   8  16  32
#     4  12  25  50  73 111 141 202 250 302 368 449
#     4  12  27  45  71 114 149 191 241 314 371 432
#     4  12  27  47  76 104 148 196 247 301 364 439
#     4  12  25  47  74 104 149 194 247 298 374 445
#     4  12  24  44  76 106 146 184 244 302 368 432
#     4  12  25  46  73 112 152 190 252 309 372 436
#     4  12  26  46  72 107 146 194 240 300 366 442
#
# _framework density 21.351925999999999
#
# number of rings (size 3 to 8) (size 9 to 14) (size 15 to 20)
#    0.000    0.000    5.714    4.000    2.667    2.286 
#    0.000    0.952    0.000    0.000    0.000    0.000 
#    0.000    0.000    0.000    0.000    0.000    0.000 
#
# Total GULP energy -235314.452811 kJ/mol
# GULP energy per Si atom -5602.725067 kJ/mol
# Density = 2.130333 g / cm^3
# Si number density = 21.351926 Si / 1000 Ang^3
#
#
#
# Elastic Constant Matrix: (Units=GPa)
#
#
# Indices 1 2 3 4 5 6 
#
# 1 147.9887 67.2712 33.7326 0.0000 0.0000 0.0000
# 2 67.2712 116.0680 25.8862 0.0000 0.0000 0.0000
# 3 33.7326 25.8862 69.5077 0.0000 0.0000 0.0000
# 4 0.0000 0.0000 0.0000 11.8098 0.0000 0.0000
# 5 0.0000 0.0000 0.0000 0.0000 -44.1828 0.0000
# 6 0.0000 0.0000 0.0000 0.0000 0.0000 41.3603
#
#
#
# Elastic Compliance Matrix: (Units=1/GPa)
#
#
# Indices 1 2 3 4 5 6 
#
# 1 0.009662 -0.004967 -0.002839 0.000000 0.000000 0.000000
# 2 -0.004967 0.011949 -0.002040 0.000000 0.000000 0.000000
# 3 -0.002839 -0.002040 0.016525 0.000000 0.000000 0.000000
# 4 0.000000 0.000000 0.000000 0.084675 0.000000 0.000000
# 5 0.000000 0.000000 0.000000 0.000000 -0.022633 0.000000
# 6 0.000000 0.000000 0.000000 0.000000 0.000000 0.024178
#
#
# Mechanical properties :
#
#
# Convention : Reuss Voigt Hill
#
# Bulk Modulus (GPa) = 54.21787 65.26049 59.73918
# Shear Modulus (GPa) = 33.28988 15.57576 24.43282
#
# Velocity S-wave (km/s) = 3.95283 2.70382 3.38641
# Velocity P-wave (km/s) = 6.80300 6.35437 6.58251
#
# Compressibility (1/GPa) = 0.01844410
#
# Stress axis : x y z
#
# Youngs Moduli (GPa) = 103.49544 83.68724 60.51611
#
# Poissons Ratio (x) = 0.41566 0.17183
# Poissons Ratio (y) = 0.51404 0.12344
# Poissons Ratio (z) = 0.29386 0.17070
#
# Static dielectric constant tensor:
#      x y z
#    x 1.779240 0.000000 0.000000 
#    y 0.000000 1.789840 0.000000 
#    z 0.000000 0.000000 1.761310 
# 
# From -- ./inp_files/47641.got.cif
#   From: 2010.05.17/outbox.cif.g08.bks.cpg/sg70_24_cif.got.tgz:47641.got - 2010.06.03 15:57:51.
