data_PCOD9517675
_publ_section_title
;
Structure prediction by ZEFSAII (Michael W. Deem and Ramdas Pophale) SiO2 
 PCOD9517675
Probable space group: I M M M
;
_chemical_formula_sum "Si O2"
_cell_formula_units_Z 112
_cell_length_a 30.304070
_cell_length_b 7.323929
_cell_length_c 24.085458
_cell_angle_alpha 90.000000
_cell_angle_beta 90.000000
_cell_angle_gamma 90.000000
_cell_volume 5345.643534
_symmetry_space_group_name_H-M "I M M M"
_symmetry_group_IT_number 71
_symmetry_cell_setting 'orthorhombic'
loop_
_space_group_symop_operation_xyz
x,y,z
-x,-y,z
x,-y,-z
-x,y,-z
-x,-y,-z
x,y,-z
-x,y,z
x,-y,z
1/2+x,1/2+y,1/2+z
1/2-x,1/2-y,1/2+z
1/2+x,1/2-y,1/2-z
1/2-x,1/2+y,1/2-z
1/2-x,1/2-y,1/2-z
1/2+x,1/2+y,1/2-z
1/2-x,1/2+y,1/2+z
1/2+x,1/2-y,1/2+z
loop_
_atom_site_type_symbol
_atom_site_label
_atom_site_fract_x
_atom_site_fract_y
_atom_site_fract_z
Si Si1 0.550042 0.222153 0.787376
Si Si2 0.111974 0.722691 0.060645
Si Si3 0.802097 0.285736 0.562254
Si Si4 0.949448 0.721961 0.839147
Si Si5 0.359439 0.223633 0.834693
Si Si6 0.295958 0.779670 0.393697
Si Si7 0.699824 0.782907 0.268219
O O1 0.500000 0.281423 0.800263
O O2 0.561079 0.277789 0.723922
O O3 0.589721 0.278560 0.827314
O O4 0.549353 0.000000 0.787476
O O5 0.110914 0.500000 0.061585
O O6 0.083129 0.784828 0.112809
O O7 0.162725 0.777440 0.069237
O O8 0.095722 0.779912 0.000000
O O9 0.805893 0.208865 0.500000
O O10 0.812380 0.500000 0.558365
O O11 0.834367 0.212279 0.610106
O O12 0.751769 0.272705 0.583518
O O13 0.947789 0.500000 0.838965
O O14 0.000000 0.774044 0.850705
O O15 0.332450 0.284696 0.780008
O O16 0.358008 0.000000 0.834808
O O17 0.304479 0.713204 0.330889
O O18 0.295864 0.000000 0.392276
O O19 0.750000 0.750000 0.250000
O O20 0.692038 0.000000 0.271291
#
# Coordination Sequence:
#
# PCOD9517675 Si02
#       7
#    16  16  16  16  16  16  16
#     4   8  13  22  38  58  78 103 137 175 215 259
#     4   9  16  24  34  51  78 112 145 176 212 249
#     4  10  20  32  45  61  85 119 152 179 212 258
#     4   8  13  21  33  51  76 106 140 174 209 255
#     4   9  16  27  42  60  85 114 142 176 217 259
#     4  10  19  30  45  64  87 115 148 184 218 255
#     4  10  18  28  44  65  88 114 143 178 219 259
#
# _framework density 20.951640999999999
#
# number of rings (size 3 to 8) (size 9 to 14) (size 15 to 20)
#    0.000    2.857    1.429    2.143    0.000    4.571 
#    0.000    1.429    0.000    0.429    0.000    3.000 
#    0.000    2.857    0.000   13.571    0.000   16.000 
#
# Total GULP energy -312642.195438 kJ/mol
# GULP energy per Si atom -5582.896347 kJ/mol
# Density = 2.090395 g / cm^3
# Si number density = 20.951641 Si / 1000 Ang^3
#
#
#
# Elastic Constant Matrix: (Units=GPa)
#
#
# Indices 1 2 3 4 5 6 
#
# 1 151.4654 -1.6421 91.9280 0.0000 0.0000 0.0000
# 2 -1.6421 81.2683 6.6271 0.0000 0.0000 0.0000
# 3 91.9280 6.6271 153.5124 0.0000 0.0000 0.0000
# 4 0.0000 0.0000 0.0000 -4.9559 0.0000 0.0000
# 5 0.0000 0.0000 0.0000 0.0000 23.7281 0.0000
# 6 0.0000 0.0000 0.0000 0.0000 0.0000 6.9294
#
#
#
# Elastic Compliance Matrix: (Units=1/GPa)
#
#
# Indices 1 2 3 4 5 6 
#
# 1 0.010414 0.000721 -0.006267 0.000000 0.000000 0.000000
# 2 0.000721 0.012398 -0.000967 0.000000 0.000000 0.000000
# 3 -0.006267 -0.000967 0.010309 0.000000 0.000000 0.000000
# 4 0.000000 0.000000 0.000000 -0.201782 0.000000 0.000000
# 5 0.000000 0.000000 0.000000 0.000000 0.042144 0.000000
# 6 0.000000 0.000000 0.000000 0.000000 0.000000 0.144312
#
#
# Mechanical properties :
#
#
# Convention : Reuss Voigt Hill
#
# Bulk Modulus (GPa) = 49.76370 64.45247 57.10808
# Shear Modulus (GPa) = 133.26169 24.42921 78.84545
#
# Velocity S-wave (km/s) = 7.98389 3.41835 6.14116
# Velocity P-wave (km/s) = 10.43040 6.81245 8.80916
#
# Compressibility (1/GPa) = 0.02009497
#
# Stress axis : x y z
#
# Youngs Moduli (GPa) = 96.02734 80.65572 97.00376
#
# Poissons Ratio (x) = -0.05819 0.60794
# Poissons Ratio (y) = -0.06928 0.09383
# Poissons Ratio (z) = 0.60182 0.07802
#
# Static dielectric constant tensor:
#      x y z
#    x 1.714230 0.000000 0.000000 
#    y 0.000000 1.753450 0.000000 
#    z 0.000000 0.000000 1.744650 
# 
# From -- ./inp_files/27961.got.cif
#   From: 2010.05.17/outbox.cif.g08.bks.cpg/sg71_14_cif.got.tgz:27961.got - 2010.06.03 16:22:01.
