data_PCOD9517155
_publ_section_title
;
Structure prediction by ZEFSAII (Michael W. Deem and Ramdas Pophale) SiO2 
 PCOD9517155
Probable space group: F D D D
;
_chemical_formula_sum "Si O2"
_cell_formula_units_Z 72
_cell_length_a 12.654346
_cell_length_b 8.489803
_cell_length_c 22.912690
_cell_angle_alpha 90.000000
_cell_angle_beta 90.000000
_cell_angle_gamma 90.000000
_cell_volume 2461.576840
_symmetry_space_group_name_H-M "F D D D"
_symmetry_group_IT_number 70
_space_group.IT_coordinate_system_code '2'
_symmetry_cell_setting 'orthorhombic'
loop_
_space_group_symop_operation_xyz
x,y,z
1/4-x,1/4-y,z
x,1/4-y,1/4-z
1/4-x,y,1/4-z
-x,-y,-z
3/4+x,3/4+y,-z
-x,3/4+y,3/4+z
3/4+x,-y,3/4+z
x,1/2+y,1/2+z
1/4-x,3/4-y,1/2+z
x,3/4-y,3/4-z
1/4-x,1/2+y,3/4-z
-x,1/2-y,1/2-z
3/4+x,1/4+y,1/2-z
-x,1/4+y,1/4+z
3/4+x,1/2-y,1/4+z
1/2+x,y,1/2+z
3/4-x,1/4-y,1/2+z
1/2+x,1/4-y,3/4-z
3/4-x,y,3/4-z
1/2-x,-y,1/2-z
1/4+x,3/4+y,1/2-z
1/2-x,3/4+y,1/4+z
1/4+x,-y,1/4+z
1/2+x,1/2+y,z
3/4-x,3/4-y,z
1/2+x,3/4-y,1/4-z
3/4-x,1/2+y,1/4-z
1/2-x,1/2-y,-z
1/4+x,1/4+y,-z
1/2-x,1/4+y,3/4+z
1/4+x,1/2-y,3/4+z
loop_
_atom_site_type_symbol
_atom_site_label
_atom_site_fract_x
_atom_site_fract_y
_atom_site_fract_z
Si Si1 0.375000 0.375000 0.875000
Si Si2 0.097542 0.295513 0.792390
Si Si3 0.464384 0.669366 0.924658
O O1 0.455687 0.484793 0.910146
O O2 0.182613 0.326619 0.742419
O O3 0.000000 0.250000 0.750000
O O4 0.059156 0.454191 0.824727
O O5 0.125000 0.125000 0.822224
O O6 0.375000 0.718678 0.875000
#
# Coordination Sequence:
#
# PCOD9517155 Si02
#       3
#     8  32  32
#     4   8  20  36  58 100 136 208 238 288 396 432
#     4   9  18  33  61  97 136 190 245 307 380 437
#     4   9  19  37  60 102 143 193 244 304 372 450
#
# _framework density 29.249545000000001
#
# number of rings (size 3 to 8) (size 9 to 14) (size 15 to 20)
#    1.333    1.778    0.000    0.000    0.000    9.778 
#    0.000    0.000    0.000   32.000    5.778    3.111 
#    0.000    0.000    0.000   52.222    0.000    0.000 
#
# Total GULP energy -100258.832850 kJ/mol
# GULP energy per Si atom -5569.935158 kJ/mol
# Density = 2.918297 g / cm^3
# Si number density = 29.249545 Si / 1000 Ang^3
#
#
#
# Elastic Constant Matrix: (Units=GPa)
#
#
# Indices 1 2 3 4 5 6 
#
# 1 124.2900 93.9873 57.8376 0.0000 0.0000 0.0000
# 2 93.9873 357.5112 148.7231 0.0000 0.0000 0.0000
# 3 57.8376 148.7231 169.5211 0.0000 0.0000 0.0000
# 4 0.0000 0.0000 0.0000 87.7443 0.0000 0.0000
# 5 0.0000 0.0000 0.0000 0.0000 37.6537 0.0000
# 6 0.0000 0.0000 0.0000 0.0000 0.0000 47.9888
#
#
#
# Elastic Compliance Matrix: (Units=1/GPa)
#
#
# Indices 1 2 3 4 5 6 
#
# 1 0.010382 -0.001978 -0.001807 0.000000 0.000000 0.000000
# 2 -0.001978 0.004781 -0.003520 0.000000 0.000000 0.000000
# 3 -0.001807 -0.003520 0.009604 0.000000 0.000000 0.000000
# 4 0.000000 0.000000 0.000000 0.011397 0.000000 0.000000
# 5 0.000000 0.000000 0.000000 0.000000 0.026558 0.000000
# 6 0.000000 0.000000 0.000000 0.000000 0.000000 0.020838
#
#
# Mechanical properties :
#
#
# Convention : Reuss Voigt Hill
#
# Bulk Modulus (GPa) = 98.44930 139.15760 118.80345
# Shear Modulus (GPa) = 49.23424 58.06232 53.64828
#
# Velocity S-wave (km/s) = 4.10719 4.46024 4.28735
# Velocity P-wave (km/s) = 7.49823 8.61419 8.07551
#
# Compressibility (1/GPa) = 0.01015751
#
# Stress axis : x y z
#
# Youngs Moduli (GPa) = 96.31935 209.14779 104.12660
#
# Poissons Ratio (x) = 0.41361 0.18818
# Poissons Ratio (y) = 0.19048 0.36652
# Poissons Ratio (z) = 0.17407 0.73620
#
# Static dielectric constant tensor:
#      x y z
#    x 2.527210 0.000000 0.000000 
#    y 0.000000 2.441880 0.000000 
#    z 0.000000 0.000000 2.237820 
# 
# From -- ./inp_files/5966.got.cif
#   From: 2010.05.17/outbox.cif.g08.bks.cpg/sg70_3_cif.got.tgz:5966.got - 2010.06.03 15:57:51.
