data_PCOD9517983
_publ_section_title
;
Structure prediction by ZEFSAII (Michael W. Deem and Ramdas Pophale) SiO2 
 PCOD9517983
Probable space group: I M M M
;
_chemical_formula_sum "Si O2"
_cell_formula_units_Z 80
_cell_length_a 16.054682
_cell_length_b 7.327271
_cell_length_c 30.688853
_cell_angle_alpha 90.000000
_cell_angle_beta 90.000000
_cell_angle_gamma 90.000000
_cell_volume 3610.144779
_symmetry_space_group_name_H-M "I M M M"
_symmetry_group_IT_number 71
_symmetry_cell_setting 'orthorhombic'
loop_
_space_group_symop_operation_xyz
x,y,z
-x,-y,z
x,-y,-z
-x,y,-z
-x,-y,-z
x,y,-z
-x,y,z
x,-y,z
1/2+x,1/2+y,1/2+z
1/2-x,1/2-y,1/2+z
1/2+x,1/2-y,1/2-z
1/2-x,1/2+y,1/2-z
1/2-x,1/2-y,1/2-z
1/2+x,1/2+y,1/2-z
1/2-x,1/2+y,1/2+z
1/2+x,1/2-y,1/2+z
loop_
_atom_site_type_symbol
_atom_site_label
_atom_site_fract_x
_atom_site_fract_y
_atom_site_fract_z
Si Si1 0.500000 0.722097 0.947441
Si Si2 0.166932 0.722224 0.909239
Si Si3 0.150908 0.222652 0.618521
Si Si4 0.500000 0.206349 0.366637
Si Si5 0.405104 0.778713 0.500000
Si Si6 0.667447 0.282157 0.219752
Si Si7 0.500000 0.721883 0.732679
O O1 0.500000 0.500000 0.949149
O O2 0.420502 0.777230 0.916673
O O3 0.500000 0.777715 0.000000
O O4 0.169830 0.500000 0.905526
O O5 0.258572 0.782356 0.897690
O O6 0.088049 0.787318 0.881196
O O7 0.143298 0.776279 0.957543
O O8 0.154364 0.281974 0.669562
O O9 0.145466 0.000000 0.619215
O O10 0.500000 0.204571 0.315518
O O11 0.500000 0.000000 0.385658
O O12 0.500000 0.714648 0.500000
O O13 0.408463 0.000000 0.500000
O O14 0.664879 0.500000 0.216325
O O15 0.750000 0.250000 0.250000
O O16 0.584946 0.219146 0.244558
O O17 0.500000 0.500000 0.731411
#
# Coordination Sequence:
#
# PCOD9517983 Si02
#       7
#     8  16  16   8   8  16   8
#     4   9  17  27  40  62  93 132 173 205 241 303
#     4   9  16  24  39  62  89 119 149 186 235 282
#     4   9  17  28  42  61  89 125 162 200 243 289
#     4  10  18  30  47  71  97 123 159 199 236 285
#     4   9  14  22  34  55  89 119 139 172 227 286
#     4  10  20  35  53  74 102 136 172 211 256 307
#     4  10  21  34  50  70  97 133 166 200 251 299
#
# _framework density 22.159775
#
# number of rings (size 3 to 8) (size 9 to 14) (size 15 to 20)
#    0.000    2.600    1.000    1.800    1.400    4.800 
#    0.000    0.000    0.000    0.000    0.000    1.400 
#    0.000    1.600    0.000    0.000    0.000    0.000 
#
# Total GULP energy -222918.714034 kJ/mol
# GULP energy per Si atom -5572.967851 kJ/mol
# Density = 2.210934 g / cm^3
# Si number density = 22.159775 Si / 1000 Ang^3
#
#
#
# Elastic Constant Matrix: (Units=GPa)
#
#
# Indices 1 2 3 4 5 6 
#
# 1 250.1341 5.5012 145.9137 0.0000 0.0000 0.0000
# 2 5.5012 85.2042 1.3266 0.0000 0.0000 0.0000
# 3 145.9137 1.3266 234.2504 0.0000 0.0000 0.0000
# 4 0.0000 0.0000 0.0000 7.1246 0.0000 0.0000
# 5 0.0000 0.0000 0.0000 0.0000 66.4223 0.0000
# 6 0.0000 0.0000 0.0000 0.0000 0.0000 -6.5217
#
#
#
# Elastic Compliance Matrix: (Units=1/GPa)
#
#
# Indices 1 2 3 4 5 6 
#
# 1 0.006290 -0.000345 -0.003916 0.000000 0.000000 0.000000
# 2 -0.000345 0.011756 0.000148 0.000000 0.000000 0.000000
# 3 -0.003916 0.000148 0.006707 0.000000 0.000000 0.000000
# 4 0.000000 0.000000 0.000000 0.140359 0.000000 0.000000
# 5 0.000000 0.000000 0.000000 0.000000 0.015055 0.000000
# 6 0.000000 0.000000 0.000000 0.000000 0.000000 -0.153333
#
#
# Mechanical properties :
#
#
# Convention : Reuss Voigt Hill
#
# Bulk Modulus (GPa) = 60.50244 97.23020 78.86632
# Shear Modulus (GPa) = 123.24490 41.19484 82.21987
#
# Velocity S-wave (km/s) = 7.46574 4.31628 6.09785
# Velocity P-wave (km/s) = 10.08357 8.29533 9.23285
#
# Compressibility (1/GPa) = 0.01652826
#
# Stress axis : x y z
#
# Youngs Moduli (GPa) = 158.98846 85.05949 149.09118
#
# Poissons Ratio (x) = 0.02936 0.58383
# Poissons Ratio (y) = 0.05487 -0.02213
# Poissons Ratio (z) = 0.62259 -0.01262
#
# Static dielectric constant tensor:
#      x y z
#    x 1.759410 0.000000 0.000000 
#    y 0.000000 1.919790 0.000000 
#    z 0.000000 0.000000 1.815960 
# 
# From -- ./inp_files/28548.got.cif
#   From: 2010.05.17/outbox.cif.g08.bks.cpg/sg71_15_cif.got.tgz:28548.got - 2010.06.03 16:22:01.
