data_PCOD9517115
_publ_section_title
;
Structure prediction by ZEFSAII (Michael W. Deem and Ramdas Pophale) SiO2 
 PCOD9517115
Probable space group: F D D D
;
_chemical_formula_sum "Si O2"
_cell_formula_units_Z 80
_cell_length_a 4.829391
_cell_length_b 28.411036
_cell_length_c 22.937799
_cell_angle_alpha 90.000000
_cell_angle_beta 90.000000
_cell_angle_gamma 90.000000
_cell_volume 3147.249561
_symmetry_space_group_name_H-M "F D D D"
_symmetry_group_IT_number 70
_space_group.IT_coordinate_system_code '2'
_symmetry_cell_setting 'orthorhombic'
loop_
_space_group_symop_operation_xyz
x,y,z
1/4-x,1/4-y,z
x,1/4-y,1/4-z
1/4-x,y,1/4-z
-x,-y,-z
3/4+x,3/4+y,-z
-x,3/4+y,3/4+z
3/4+x,-y,3/4+z
x,1/2+y,1/2+z
1/4-x,3/4-y,1/2+z
x,3/4-y,3/4-z
1/4-x,1/2+y,3/4-z
-x,1/2-y,1/2-z
3/4+x,1/4+y,1/2-z
-x,1/4+y,1/4+z
3/4+x,1/2-y,1/4+z
1/2+x,y,1/2+z
3/4-x,1/4-y,1/2+z
1/2+x,1/4-y,3/4-z
3/4-x,y,3/4-z
1/2-x,-y,1/2-z
1/4+x,3/4+y,1/2-z
1/2-x,3/4+y,1/4+z
1/4+x,-y,1/4+z
1/2+x,1/2+y,z
3/4-x,3/4-y,z
1/2+x,3/4-y,1/4-z
3/4-x,1/2+y,1/4-z
1/2-x,1/2-y,-z
1/4+x,1/4+y,-z
1/2-x,1/4+y,3/4+z
1/4+x,1/2-y,3/4+z
loop_
_atom_site_type_symbol
_atom_site_label
_atom_site_fract_x
_atom_site_fract_y
_atom_site_fract_z
Si Si1 0.375000 0.969944 0.875000
Si Si2 0.746834 0.323509 0.994101
Si Si3 0.269592 0.047080 0.317389
O O1 0.242401 0.939275 0.823624
O O2 0.142103 0.002785 0.904925
O O3 0.875000 0.375000 0.001386
O O4 0.454700 0.320878 0.025979
O O5 0.959834 0.288703 0.028159
O O6 0.375000 0.074648 0.375000
#
# Coordination Sequence:
#
# PCOD9517115 Si02
#       3
#    16  32  32
#     4  12  27  48  80 104 146 194 250 298 358 440
#     4  12  28  48  74 110 148 189 245 305 368 423
#     4  12  26  48  75 104 147 193 244 294 364 442
#
# _framework density 25.41902
#
# number of rings (size 3 to 8) (size 9 to 14) (size 15 to 20)
#    0.000    0.000    4.000    4.200    5.600    3.200 
#    3.600    4.000    0.000    0.000    0.000    0.000 
#    0.000    0.000    0.000    0.000    0.000    0.000 
#
# Total GULP energy -112221.840712 kJ/mol
# GULP energy per Si atom -5611.092036 kJ/mol
# Density = 2.536116 g / cm^3
# Si number density = 25.419020 Si / 1000 Ang^3
#
#
#
# Elastic Constant Matrix: (Units=GPa)
#
#
# Indices 1 2 3 4 5 6 
#
# 1 180.5854 26.6188 74.4875 0.0000 0.0000 0.0000
# 2 26.6188 51.3616 46.2567 0.0000 0.0000 0.0000
# 3 74.4875 46.2567 239.5687 0.0000 0.0000 0.0000
# 4 0.0000 0.0000 0.0000 10.5365 0.0000 0.0000
# 5 0.0000 0.0000 0.0000 0.0000 44.1374 0.0000
# 6 0.0000 0.0000 0.0000 0.0000 0.0000 17.6629
#
#
#
# Elastic Compliance Matrix: (Units=1/GPa)
#
#
# Indices 1 2 3 4 5 6 
#
# 1 0.006498 -0.001874 -0.001659 0.000000 0.000000 0.000000
# 2 -0.001874 0.024109 -0.004072 0.000000 0.000000 0.000000
# 3 -0.001659 -0.004072 0.005476 0.000000 0.000000 0.000000
# 4 0.000000 0.000000 0.000000 0.094908 0.000000 0.000000
# 5 0.000000 0.000000 0.000000 0.000000 0.022657 0.000000
# 6 0.000000 0.000000 0.000000 0.000000 0.000000 0.056616
#
#
# Mechanical properties :
#
#
# Convention : Reuss Voigt Hill
#
# Bulk Modulus (GPa) = 47.90867 85.13798 66.52332
# Shear Modulus (GPa) = 21.51179 36.07753 28.79466
#
# Velocity S-wave (km/s) = 2.91226 3.77146 3.36936
# Velocity P-wave (km/s) = 5.49516 7.24788 6.43151
#
# Compressibility (1/GPa) = 0.02087305
#
# Stress axis : x y z
#
# Youngs Moduli (GPa) = 153.89662 41.47901 182.61060
#
# Poissons Ratio (x) = 0.07773 0.30286
# Poissons Ratio (y) = 0.28839 0.74365
# Poissons Ratio (z) = 0.25524 0.16892
#
# Static dielectric constant tensor:
#      x y z
#    x 1.969920 0.000000 0.000000 
#    y 0.000000 2.087000 0.000000 
#    z 0.000000 0.000000 2.003250 
# 
# From -- ./inp_files/48309.got.cif
#   From: 2010.05.17/outbox.cif.g08.bks.cpg/sg70_25_cif.got.tgz:48309.got - 2010.06.03 15:57:51.
