data_PCOD9517095
_publ_section_title
;
Structure prediction by ZEFSAII (Michael W. Deem and Ramdas Pophale) SiO2 
 PCOD9517095
Probable space group: F D D D
;
_chemical_formula_sum "Si O2"
_cell_formula_units_Z 80
_cell_length_a 22.997370
_cell_length_b 16.135780
_cell_length_c 9.560085
_cell_angle_alpha 90.000000
_cell_angle_beta 90.000000
_cell_angle_gamma 90.000000
_cell_volume 3547.561150
_symmetry_space_group_name_H-M "F D D D"
_symmetry_group_IT_number 70
_space_group.IT_coordinate_system_code '2'
_symmetry_cell_setting 'orthorhombic'
loop_
_space_group_symop_operation_xyz
x,y,z
1/4-x,1/4-y,z
x,1/4-y,1/4-z
1/4-x,y,1/4-z
-x,-y,-z
3/4+x,3/4+y,-z
-x,3/4+y,3/4+z
3/4+x,-y,3/4+z
x,1/2+y,1/2+z
1/4-x,3/4-y,1/2+z
x,3/4-y,3/4-z
1/4-x,1/2+y,3/4-z
-x,1/2-y,1/2-z
3/4+x,1/4+y,1/2-z
-x,1/4+y,1/4+z
3/4+x,1/2-y,1/4+z
1/2+x,y,1/2+z
3/4-x,1/4-y,1/2+z
1/2+x,1/4-y,3/4-z
3/4-x,y,3/4-z
1/2-x,-y,1/2-z
1/4+x,3/4+y,1/2-z
1/2-x,3/4+y,1/4+z
1/4+x,-y,1/4+z
1/2+x,1/2+y,z
3/4-x,3/4-y,z
1/2+x,3/4-y,1/4-z
3/4-x,1/2+y,1/4-z
1/2-x,1/2-y,-z
1/4+x,1/4+y,-z
1/2-x,1/4+y,3/4+z
1/4+x,1/2-y,3/4+z
loop_
_atom_site_type_symbol
_atom_site_label
_atom_site_fract_x
_atom_site_fract_y
_atom_site_fract_z
Si Si1 0.041383 0.998765 0.864371
Si Si2 0.492521 0.665084 0.832421
Si Si3 0.856299 0.125000 0.125000
O O1 0.041008 0.094393 0.815269
O O2 0.014354 0.941891 0.742334
O O3 0.103382 0.956184 0.887610
O O4 0.000000 0.000000 0.000000
O O5 0.500000 0.750000 0.750000
O O6 0.434300 0.628326 0.761868
#
# Coordination Sequence:
#
# PCOD9517095 Si02
#       3
#    32  32  16
#     4  12  25  46  77 111 154 201 259 330 395 481
#     4  12  25  49  75 112 153 201 267 326 393 482
#     4  12  26  46  82 108 158 204 266 326 410 464
#
# _framework density 22.550702999999999
#
# number of rings (size 3 to 8) (size 9 to 14) (size 15 to 20)
#    0.000    0.000    8.000    1.200    0.000    1.600 
#    0.000    4.000    8.800    0.000    0.000    0.000 
#    0.000    0.000    0.000    0.000    0.000    0.000 
#
# Total GULP energy -111882.941963 kJ/mol
# GULP energy per Si atom -5594.147098 kJ/mol
# Density = 2.249938 g / cm^3
# Si number density = 22.550703 Si / 1000 Ang^3
#
#
#
# Elastic Constant Matrix: (Units=GPa)
#
#
# Indices 1 2 3 4 5 6 
#
# 1 98.3889 72.3447 42.9523 0.0000 0.0000 0.0000
# 2 72.3447 204.0510 41.2037 0.0000 0.0000 0.0000
# 3 42.9523 41.2037 154.2380 0.0000 0.0000 0.0000
# 4 0.0000 0.0000 0.0000 49.4018 0.0000 0.0000
# 5 0.0000 0.0000 0.0000 0.0000 45.7480 0.0000
# 6 0.0000 0.0000 0.0000 0.0000 0.0000 60.8207
#
#
#
# Elastic Compliance Matrix: (Units=1/GPa)
#
#
# Indices 1 2 3 4 5 6 
#
# 1 0.014873 -0.004690 -0.002889 0.000000 0.000000 0.000000
# 2 -0.004690 0.006659 -0.000473 0.000000 0.000000 0.000000
# 3 -0.002889 -0.000473 0.007414 0.000000 0.000000 0.000000
# 4 0.000000 0.000000 0.000000 0.020242 0.000000 0.000000
# 5 0.000000 0.000000 0.000000 0.000000 0.021859 0.000000
# 6 0.000000 0.000000 0.000000 0.000000 0.000000 0.016442
#
#
# Mechanical properties :
#
#
# Convention : Reuss Voigt Hill
#
# Bulk Modulus (GPa) = 77.86273 85.51993 81.69133
# Shear Modulus (GPa) = 46.35025 51.20592 48.77808
#
# Velocity S-wave (km/s) = 4.53855 4.77036 4.65590
# Velocity P-wave (km/s) = 7.87828 8.26725 8.07511
#
# Compressibility (1/GPa) = 0.01284312
#
# Stress axis : x y z
#
# Youngs Moduli (GPa) = 67.23397 150.17324 134.87331
#
# Poissons Ratio (x) = 0.70429 0.38966
# Poissons Ratio (y) = 0.31532 0.06378
# Poissons Ratio (z) = 0.19425 0.07101
#
# Static dielectric constant tensor:
#      x y z
#    x 1.815820 0.000000 0.000000 
#    y 0.000000 1.898100 0.000000 
#    z 0.000000 0.000000 1.885220 
# 
# From -- ./inp_files/10136.got.cif
#   From: 2010.05.17/outbox.cif.g08.bks.cpg/sg70_6_cif.got.tgz:10136.got - 2010.06.03 15:57:51.
