data_PCOD9517335
_publ_section_title
;
Structure prediction by ZEFSAII (Michael W. Deem and Ramdas Pophale) SiO2 
 PCOD9517335
Probable space group: I M M M
;
_chemical_formula_sum "Si O2"
_cell_formula_units_Z 120
_cell_length_a 23.606188
_cell_length_b 22.197560
_cell_length_c 15.541688
_cell_angle_alpha 90.000000
_cell_angle_beta 90.000000
_cell_angle_gamma 90.000000
_cell_volume 8143.841007
_symmetry_space_group_name_H-M "I M M M"
_symmetry_group_IT_number 71
_symmetry_cell_setting 'orthorhombic'
loop_
_space_group_symop_operation_xyz
x,y,z
-x,-y,z
x,-y,-z
-x,y,-z
-x,-y,-z
x,y,-z
-x,y,z
x,-y,z
1/2+x,1/2+y,1/2+z
1/2-x,1/2-y,1/2+z
1/2+x,1/2-y,1/2-z
1/2-x,1/2+y,1/2-z
1/2-x,1/2-y,1/2-z
1/2+x,1/2+y,1/2-z
1/2-x,1/2+y,1/2+z
1/2+x,1/2-y,1/2+z
loop_
_atom_site_type_symbol
_atom_site_label
_atom_site_fract_x
_atom_site_fract_y
_atom_site_fract_z
Si Si1 0.933992 0.933381 0.000000
Si Si2 0.111276 0.068306 0.351498
Si Si3 0.279657 0.155300 0.257061
Si Si4 0.751226 0.571194 0.397959
Si Si5 0.256323 0.429167 0.097705
Si Si6 0.934834 0.807772 0.400687
Si Si7 0.373030 0.612863 0.340383
Si Si8 0.341992 0.276378 0.758446
O O1 0.916702 0.899273 0.914628
O O2 0.000000 0.940435 0.000000
O O3 0.906315 0.000000 0.000000
O O4 0.176599 0.076866 0.381157
O O5 0.073675 0.120038 0.393451
O O6 0.111665 0.080133 0.248965
O O7 0.094496 0.000000 0.371147
O O8 0.281806 0.117251 0.167996
O O9 0.279890 0.108220 0.334683
O O10 0.326168 0.207590 0.259227
O O11 0.218558 0.189061 0.270085
O O12 0.761073 0.582250 0.500000
O O13 0.762503 0.500000 0.380939
O O14 0.685859 0.585429 0.375048
O O15 0.243737 0.500000 0.104699
O O16 0.247155 0.409083 0.000000
O O17 0.926095 0.789666 0.500000
O O18 0.885798 0.782350 0.337845
O O19 0.000000 0.792868 0.376076
O O20 0.367898 0.683447 0.318119
#
# Coordination Sequence:
#
# PCOD9517335 Si02
#       8
#     8  16  16  16  16  16  16  16
#     4  11  22  32  46  68  90 118 161 207 246 280
#     4  10  18  29  46  65  90 124 162 201 237 274
#     4  10  18  32  47  68  95 125 156 200 239 286
#     4  10  17  26  45  68  91 120 151 185 234 289
#     4  10  18  28  46  72  99 127 154 189 242 291
#     4  10  20  33  48  65  90 126 164 203 240 272
#     4  10  18  31  44  59  87 121 156 197 237 278
#     4   9  20  33  46  65  91 121 164 198 237 276
#
# _framework density 14.735061999999999
#
# number of rings (size 3 to 8) (size 9 to 14) (size 15 to 20)
#    0.000    2.067    4.667    2.000    0.000    3.733 
#    1.200    2.000    0.000    0.000    0.000    0.000 
#    0.000    2.133    0.000    8.800    0.000    0.000 
#
# Total GULP energy -334146.077603 kJ/mol
# GULP energy per Si atom -5569.101293 kJ/mol
# Density = 1.470152 g / cm^3
# Si number density = 14.735062 Si / 1000 Ang^3
#
#
#
# Elastic Constant Matrix: (Units=GPa)
#
#
# Indices 1 2 3 4 5 6 
#
# 1 45.5816 30.2307 30.8804 0.0000 0.0000 0.0000
# 2 30.2307 66.5229 42.3796 0.0000 0.0000 0.0000
# 3 30.8804 42.3796 104.3435 0.0000 0.0000 0.0000
# 4 0.0000 0.0000 0.0000 35.0332 0.0000 0.0000
# 5 0.0000 0.0000 0.0000 0.0000 45.9482 0.0000
# 6 0.0000 0.0000 0.0000 0.0000 0.0000 16.4111
#
#
#
# Elastic Compliance Matrix: (Units=1/GPa)
#
#
# Indices 1 2 3 4 5 6 
#
# 1 0.033225 -0.011919 -0.004992 0.000000 0.000000 0.000000
# 2 -0.011919 0.024555 -0.006446 0.000000 0.000000 0.000000
# 3 -0.004992 -0.006446 0.013679 0.000000 0.000000 0.000000
# 4 0.000000 0.000000 0.000000 0.028544 0.000000 0.000000
# 5 0.000000 0.000000 0.000000 0.000000 0.021764 0.000000
# 6 0.000000 0.000000 0.000000 0.000000 0.000000 0.060934
#
#
# Mechanical properties :
#
#
# Convention : Reuss Voigt Hill
#
# Bulk Modulus (GPa) = 40.40999 47.04771 43.72885
# Shear Modulus (GPa) = 21.03807 27.00900 24.02354
#
# Velocity S-wave (km/s) = 3.78267 4.28597 4.04216
# Velocity P-wave (km/s) = 6.82363 7.51606 7.17820
#
# Compressibility (1/GPa) = 0.02474636
#
# Stress axis : x y z
#
# Youngs Moduli (GPa) = 30.09743 40.72471 73.10354
#
# Poissons Ratio (x) = 0.48538 0.36495
# Poissons Ratio (y) = 0.35872 0.47122
# Poissons Ratio (z) = 0.15026 0.26251
#
# Static dielectric constant tensor:
#      x y z
#    x 1.477330 0.000000 0.000000 
#    y 0.000000 1.495560 0.000000 
#    z 0.000000 0.000000 1.499460 
# 
# From -- ./inp_files/39631.got.cif
#   From: 2010.05.17/outbox.cif.g08.bks.cpg/sg71_20_cif.got.tgz:39631.got - 2010.06.03 16:22:01.
