data_PCOD9517255
_publ_section_title
;
Structure prediction by ZEFSAII (Michael W. Deem and Ramdas Pophale) SiO2 
 PCOD9517255
Probable space group: I M M M
;
_chemical_formula_sum "Si O2"
_cell_formula_units_Z 80
_cell_length_a 10.784909
_cell_length_b 20.020354
_cell_length_c 21.196309
_cell_angle_alpha 90.000000
_cell_angle_beta 90.000000
_cell_angle_gamma 90.000000
_cell_volume 4576.658204
_symmetry_space_group_name_H-M "I M M M"
_symmetry_group_IT_number 71
_symmetry_cell_setting 'orthorhombic'
loop_
_space_group_symop_operation_xyz
x,y,z
-x,-y,z
x,-y,-z
-x,y,-z
-x,-y,-z
x,y,-z
-x,y,z
x,-y,z
1/2+x,1/2+y,1/2+z
1/2-x,1/2-y,1/2+z
1/2+x,1/2-y,1/2-z
1/2-x,1/2+y,1/2-z
1/2-x,1/2-y,1/2-z
1/2+x,1/2+y,1/2-z
1/2-x,1/2+y,1/2+z
1/2+x,1/2-y,1/2+z
loop_
_atom_site_type_symbol
_atom_site_label
_atom_site_fract_x
_atom_site_fract_y
_atom_site_fract_z
Si Si1 0.500000 0.779962 0.674810
Si Si2 0.000000 0.421781 0.113185
Si Si3 0.853984 0.924742 0.263414
Si Si4 0.000000 0.169707 0.433018
Si Si5 0.770578 0.797621 0.811053
Si Si6 0.000000 0.277745 0.673380
Si Si7 0.226687 0.076521 0.404508
O O1 0.500000 0.858842 0.661180
O O2 0.375584 0.742895 0.650560
O O3 0.500000 0.768415 0.750714
O O4 0.869758 0.414222 0.076900
O O5 0.000000 0.500000 0.137171
O O6 0.822388 0.867421 0.214233
O O7 0.779267 0.914805 0.328301
O O8 0.000000 0.921157 0.279427
O O9 0.828676 0.000000 0.240443
O O10 0.000000 0.211963 0.369161
O O11 0.876613 0.124934 0.431108
O O12 0.000000 0.207853 0.500000
O O13 0.750000 0.750000 0.750000
O O14 0.634865 0.809090 0.840585
O O15 0.191073 0.000000 0.417882
#
# Coordination Sequence:
#
# PCOD9517255 Si02
#       7
#     8   8  16   8  16   8  16
#     4  10  16  28  48  70  98 133 162 189 234 307
#     4  10  20  32  49  78 109 136 164 195 247 309
#     4  10  18  30  49  74 107 139 166 194 233 296
#     4  12  23  36  52  68  88 126 184 229 253 283
#     4  10  18  28  45  69  96 129 166 193 237 299
#     4  10  20  31  44  66  95 121 154 207 248 286
#     4  10  19  32  49  69  97 132 169 210 248 288
#
# _framework density 17.480001999999999
#
# number of rings (size 3 to 8) (size 9 to 14) (size 15 to 20)
#    0.000    1.800    2.000    6.300    0.000    0.800 
#    0.000    1.000    0.000    1.800    0.000    0.000 
#    0.000    3.600    0.000    2.200    0.000    0.000 
#
# Total GULP energy -222800.356080 kJ/mol
# GULP energy per Si atom -5570.008902 kJ/mol
# Density = 1.744022 g / cm^3
# Si number density = 17.480002 Si / 1000 Ang^3
#
#
#
# Elastic Constant Matrix: (Units=GPa)
#
#
# Indices 1 2 3 4 5 6 
#
# 1 138.4663 30.6596 5.6953 0.0000 0.0000 0.0000
# 2 30.6596 96.5546 32.5783 0.0000 0.0000 0.0000
# 3 5.6953 32.5783 38.5942 0.0000 0.0000 0.0000
# 4 0.0000 0.0000 0.0000 -2.7782 0.0000 0.0000
# 5 0.0000 0.0000 0.0000 0.0000 -16.1564 0.0000
# 6 0.0000 0.0000 0.0000 0.0000 0.0000 22.0760
#
#
#
# Elastic Compliance Matrix: (Units=1/GPa)
#
#
# Indices 1 2 3 4 5 6 
#
# 1 0.007816 -0.002926 0.001317 0.000000 0.000000 0.000000
# 2 -0.002926 0.015577 -0.012717 0.000000 0.000000 0.000000
# 3 0.001317 -0.012717 0.036451 0.000000 0.000000 0.000000
# 4 0.000000 0.000000 0.000000 -0.359945 0.000000 0.000000
# 5 0.000000 0.000000 0.000000 0.000000 -0.061895 0.000000
# 6 0.000000 0.000000 0.000000 0.000000 0.000000 0.045298
#
#
# Mechanical properties :
#
#
# Convention : Reuss Voigt Hill
#
# Bulk Modulus (GPa) = 32.06081 45.72018 38.89050
# Shear Modulus (GPa) = -18.00838 14.27373 -1.86732
#
# Velocity S-wave (km/s) = -3.21320 2.86068 -1.03469
# Velocity P-wave (km/s) = 2.14827 6.09293 4.56831
#
# Compressibility (1/GPa) = 0.03119073
#
# Stress axis : x y z
#
# Youngs Moduli (GPa) = 127.94757 64.19835 27.43406
#
# Poissons Ratio (x) = 0.18784 -0.03612
# Poissons Ratio (y) = 0.37437 0.34888
# Poissons Ratio (z) = -0.16845 0.81641
#
# Static dielectric constant tensor:
#      x y z
#    x 1.689170 0.000000 0.000000 
#    y 0.000000 1.594410 0.000000 
#    z 0.000000 0.000000 1.614460 
# 
# From -- ./inp_files/58841.got.cif
#   From: 2010.05.17/outbox.cif.g08.bks.cpg/sg71_30_cif.got.tgz:58841.got - 2010.06.03 16:22:01.
