data_PCOD9517010
_publ_section_title
;
Structure prediction by ZEFSAII (Michael W. Deem and Ramdas Pophale) SiO2 
 PCOD9517010
Probable space group: F D D D
;
_chemical_formula_sum "Si O2"
_cell_formula_units_Z 192
_cell_length_a 22.241755
_cell_length_b 19.712755
_cell_length_c 18.599008
_cell_angle_alpha 90.000000
_cell_angle_beta 90.000000
_cell_angle_gamma 90.000000
_cell_volume 8154.665629
_symmetry_space_group_name_H-M "F D D D"
_symmetry_group_IT_number 70
_space_group.IT_coordinate_system_code '2'
_symmetry_cell_setting 'orthorhombic'
loop_
_space_group_symop_operation_xyz
x,y,z
1/4-x,1/4-y,z
x,1/4-y,1/4-z
1/4-x,y,1/4-z
-x,-y,-z
3/4+x,3/4+y,-z
-x,3/4+y,3/4+z
3/4+x,-y,3/4+z
x,1/2+y,1/2+z
1/4-x,3/4-y,1/2+z
x,3/4-y,3/4-z
1/4-x,1/2+y,3/4-z
-x,1/2-y,1/2-z
3/4+x,1/4+y,1/2-z
-x,1/4+y,1/4+z
3/4+x,1/2-y,1/4+z
1/2+x,y,1/2+z
3/4-x,1/4-y,1/2+z
1/2+x,1/4-y,3/4-z
3/4-x,y,3/4-z
1/2-x,-y,1/2-z
1/4+x,3/4+y,1/2-z
1/2-x,3/4+y,1/4+z
1/4+x,-y,1/4+z
1/2+x,1/2+y,z
3/4-x,3/4-y,z
1/2+x,3/4-y,1/4-z
3/4-x,1/2+y,1/4-z
1/2-x,1/2-y,-z
1/4+x,1/4+y,-z
1/2-x,1/4+y,3/4+z
1/4+x,1/2-y,3/4+z
loop_
_atom_site_type_symbol
_atom_site_label
_atom_site_fract_x
_atom_site_fract_y
_atom_site_fract_z
Si Si1 0.061494 0.404013 0.603843
Si Si2 0.493313 0.676778 0.713135
Si Si3 0.950725 0.309214 0.052011
Si Si4 0.973168 0.516524 0.838325
Si Si5 0.141937 0.053647 0.927484
Si Si6 0.387272 0.148549 0.703548
O O1 0.125000 0.436152 0.625000
O O2 0.062074 0.325319 0.629985
O O3 0.064691 0.393928 0.518026
O O4 0.007232 0.443020 0.642215
O O5 0.500000 0.750000 0.750000
O O6 0.537048 0.627083 0.756518
O O7 0.514887 0.698128 0.633103
O O8 0.426104 0.643285 0.712748
O O9 0.892730 0.305852 0.101480
O O10 0.949111 0.252997 0.989965
O O11 0.037234 0.552773 0.830640
O O12 0.125000 0.125000 0.965094
O O13 0.127519 0.978865 0.956054
O O14 0.409844 0.125000 0.625000
#
# Coordination Sequence:
#
# PCOD9517010 Si02
#       6
#    32  32  32  32  32  32
#     4  12  24  45  70 107 141 187 252 308 367 452
#     4  12  21  43  73 106 139 187 235 309 377 445
#     4  12  25  42  73 102 143 196 243 304 374 450
#     4  12  24  45  71 103 149 189 242 304 384 453
#     4  12  24  46  70 105 145 196 247 308 377 452
#     4  12  24  44  74 102 146 198 242 302 382 449
#
# _framework density 23.544803000000002
#
# number of rings (size 3 to 8) (size 9 to 14) (size 15 to 20)
#    0.000    0.000    8.333    1.500    0.000    0.667 
#    3.000    0.000    0.000    3.500    0.000    0.000 
#    0.000    0.000    0.000    0.000    0.000    0.000 
#
# Total GULP energy -268141.852404 kJ/mol
# GULP energy per Si atom -5586.288592 kJ/mol
# Density = 2.349121 g / cm^3
# Si number density = 23.544803 Si / 1000 Ang^3
#
#
#
# Elastic Constant Matrix: (Units=GPa)
#
#
# Indices 1 2 3 4 5 6 
#
# 1 36.4180 -1.3959 2.4814 0.0000 0.0000 0.0000
# 2 -1.3959 104.0616 4.2705 0.0000 0.0000 0.0000
# 3 2.4814 4.2705 118.6326 0.0000 0.0000 0.0000
# 4 0.0000 0.0000 0.0000 35.2443 0.0000 0.0000
# 5 0.0000 0.0000 0.0000 0.0000 33.0236 0.0000
# 6 0.0000 0.0000 0.0000 0.0000 0.0000 30.7086
#
#
#
# Elastic Compliance Matrix: (Units=1/GPa)
#
#
# Indices 1 2 3 4 5 6 
#
# 1 0.027514 0.000393 -0.000590 0.000000 0.000000 0.000000
# 2 0.000393 0.009630 -0.000355 0.000000 0.000000 0.000000
# 3 -0.000590 -0.000355 0.008454 0.000000 0.000000 0.000000
# 4 0.000000 0.000000 0.000000 0.028373 0.000000 0.000000
# 5 0.000000 0.000000 0.000000 0.000000 0.030281 0.000000
# 6 0.000000 0.000000 0.000000 0.000000 0.000000 0.032564
#
#
# Mechanical properties :
#
#
# Convention : Reuss Voigt Hill
#
# Bulk Modulus (GPa) = 22.47407 29.98046 26.22726
# Shear Modulus (GPa) = 32.73292 36.71241 34.72266
#
# Velocity S-wave (km/s) = 3.73264 3.95303 3.84441
# Velocity P-wave (km/s) = 5.30497 5.79623 5.55603
#
# Compressibility (1/GPa) = 0.04449572
#
# Stress axis : x y z
#
# Youngs Moduli (GPa) = 36.34490 103.84723 118.28034
#
# Poissons Ratio (x) = -0.04084 0.06974
# Poissons Ratio (y) = -0.01429 0.04197
# Poissons Ratio (z) = 0.02143 0.03685
#
# Static dielectric constant tensor:
#      x y z
#    x 1.961500 0.000000 0.000000 
#    y 0.000000 1.993750 0.000000 
#    z 0.000000 0.000000 2.026700 
# 
# From -- ./inp_files/45928.got.cif
#   From: 2010.05.17/outbox.cif.g08.bks.cpg/sg70_23_cif.got.tgz:45928.got - 2010.06.03 15:57:51.
