data_PCOD9517691
_publ_section_title
;
Structure prediction by ZEFSAII (Michael W. Deem and Ramdas Pophale) SiO2 
 PCOD9517691
Probable space group: I M M M
;
_chemical_formula_sum "Si O2"
_cell_formula_units_Z 72
_cell_length_a 29.374761
_cell_length_b 7.599033
_cell_length_c 16.499481
_cell_angle_alpha 90.000000
_cell_angle_beta 90.000000
_cell_angle_gamma 90.000000
_cell_volume 3683.010489
_symmetry_space_group_name_H-M "I M M M"
_symmetry_group_IT_number 71
_symmetry_cell_setting 'orthorhombic'
loop_
_space_group_symop_operation_xyz
x,y,z
-x,-y,z
x,-y,-z
-x,y,-z
-x,-y,-z
x,y,-z
-x,y,z
x,-y,z
1/2+x,1/2+y,1/2+z
1/2-x,1/2-y,1/2+z
1/2+x,1/2-y,1/2-z
1/2-x,1/2+y,1/2-z
1/2-x,1/2-y,1/2-z
1/2+x,1/2+y,1/2-z
1/2-x,1/2+y,1/2+z
1/2+x,1/2-y,1/2+z
loop_
_atom_site_type_symbol
_atom_site_label
_atom_site_fract_x
_atom_site_fract_y
_atom_site_fract_z
Si Si1 0.384634 0.211527 0.324097
Si Si2 0.444640 0.794554 0.000000
Si Si3 0.447224 0.784048 0.176976
Si Si4 0.728481 0.801096 0.500000
Si Si5 0.875061 0.203746 0.000000
Si Si6 0.280655 0.788370 0.326944
O O1 0.416483 0.275845 0.251674
O O2 0.399817 0.256209 0.415601
O O3 0.332489 0.275999 0.315944
O O4 0.383864 0.000000 0.318286
O O5 0.430867 0.722002 0.912181
O O6 0.500000 0.789201 0.000000
O O7 0.431206 0.000000 0.000000
O O8 0.500000 0.733377 0.187679
O O9 0.446518 0.000000 0.175078
O O10 0.672953 0.807036 0.500000
O O11 0.739169 0.719074 0.587371
O O12 0.746991 0.000000 0.500000
O O13 0.862505 0.000000 0.000000
O O14 0.250000 0.750000 0.250000
O O15 0.283308 0.000000 0.335808
#
# Coordination Sequence:
#
# PCOD9517691 Si02
#       6
#    16   8  16   8   8  16
#     4   9  17  30  46  65  90 117 145 180 222 263
#     4   7  10  18  35  62  91 112 134 169 210 252
#     4   8  13  23  42  66  89 114 145 181 221 263
#     4   8  16  32  49  64  86 117 148 180 222 264
#     4  10  18  28  45  66  85 113 152 185 216 260
#     4   9  17  29  45  64  87 115 145 178 215 256
#
# _framework density 19.549226000000001
#
# number of rings (size 3 to 8) (size 9 to 14) (size 15 to 20)
#    0.000    3.444    0.000    3.667    0.000    3.556 
#    0.000    1.667    0.000    6.667    0.000    0.778 
#    0.000    2.667    0.000    0.000    0.000    0.000 
#
# Total GULP energy -200403.656348 kJ/mol
# GULP energy per Si atom -5566.768232 kJ/mol
# Density = 1.950473 g / cm^3
# Si number density = 19.549226 Si / 1000 Ang^3
#
#
#
# Elastic Constant Matrix: (Units=GPa)
#
#
# Indices 1 2 3 4 5 6 
#
# 1 49.9311 2.5915 82.6203 0.0000 0.0000 0.0000
# 2 2.5915 46.9579 2.4542 0.0000 0.0000 0.0000
# 3 82.6203 2.4542 261.5080 0.0000 0.0000 0.0000
# 4 0.0000 0.0000 0.0000 10.5140 0.0000 0.0000
# 5 0.0000 0.0000 0.0000 0.0000 37.6121 0.0000
# 6 0.0000 0.0000 0.0000 0.0000 0.0000 -0.0382
#
#
#
# Elastic Compliance Matrix: (Units=1/GPa)
#
#
# Indices 1 2 3 4 5 6 
#
# 1 0.042091 -0.001629 -0.013283 0.000000 0.000000 0.000000
# 2 -0.001629 0.021369 0.000314 0.000000 0.000000 0.000000
# 3 -0.013283 0.000314 0.008018 0.000000 0.000000 0.000000
# 4 0.000000 0.000000 0.000000 0.095112 0.000000 0.000000
# 5 0.000000 0.000000 0.000000 0.000000 0.026587 0.000000
# 6 0.000000 0.000000 0.000000 0.000000 0.000000-26.190702
#
#
# Mechanical properties :
#
#
# Convention : Reuss Voigt Hill
#
# Bulk Modulus (GPa) = 23.65025 59.30322 41.47674
# Shear Modulus (GPa) = -0.19265 27.66630 13.73683
#
# Velocity S-wave (km/s) = -0.31426 3.76601 2.65368
# Velocity P-wave (km/s) = 3.46300 7.02223 5.53643
#
# Compressibility (1/GPa) = 0.04228284
#
# Stress axis : x y z
#
# Youngs Moduli (GPa) = 23.75789 46.79644 124.72534
#
# Poissons Ratio (x) = 0.07622 1.65672
# Poissons Ratio (y) = 0.03869 -0.03916
# Poissons Ratio (z) = 0.31557 -0.01469
#
# Static dielectric constant tensor:
#      x y z
#    x 1.642730 0.000000 0.000000 
#    y 0.000000 1.790460 0.000000 
#    z 0.000000 0.000000 1.748310 
# 
# From -- ./inp_files/40729.got.cif
#   From: 2010.05.17/outbox.cif.g08.bks.cpg/sg71_21_cif.got.tgz:40729.got - 2010.06.03 16:22:01.
