data_PCOD9517956
_publ_section_title
;
Structure prediction by ZEFSAII (Michael W. Deem and Ramdas Pophale) SiO2 
 PCOD9517956
Probable space group: I M M M
;
_chemical_formula_sum "Si O2"
_cell_formula_units_Z 80
_cell_length_a 8.361226
_cell_length_b 22.879041
_cell_length_c 19.510279
_cell_angle_alpha 90.000000
_cell_angle_beta 90.000000
_cell_angle_gamma 90.000000
_cell_volume 3732.254573
_symmetry_space_group_name_H-M "I M M M"
_symmetry_group_IT_number 71
_symmetry_cell_setting 'orthorhombic'
loop_
_space_group_symop_operation_xyz
x,y,z
-x,-y,z
x,-y,-z
-x,y,-z
-x,-y,-z
x,y,-z
-x,y,z
x,-y,z
1/2+x,1/2+y,1/2+z
1/2-x,1/2-y,1/2+z
1/2+x,1/2-y,1/2-z
1/2-x,1/2+y,1/2-z
1/2-x,1/2-y,1/2-z
1/2+x,1/2+y,1/2-z
1/2-x,1/2+y,1/2+z
1/2+x,1/2-y,1/2+z
loop_
_atom_site_type_symbol
_atom_site_label
_atom_site_fract_x
_atom_site_fract_y
_atom_site_fract_z
Si Si1 0.312035 0.365091 0.500000
Si Si2 0.688817 0.234952 0.352740
Si Si3 0.189174 0.875226 0.285075
Si Si4 0.191176 0.930072 0.425343
Si Si5 0.188965 0.368331 0.358776
Si Si6 0.812077 0.766445 0.500000
O O1 0.500000 0.350859 0.500000
O O2 0.266975 0.394520 0.427817
O O3 0.214368 0.303981 0.500000
O O4 0.500000 0.231738 0.341439
O O5 0.778638 0.193340 0.299531
O O6 0.744464 0.302023 0.352208
O O7 0.733714 0.213030 0.429363
O O8 0.255664 0.905195 0.354084
O O9 0.267454 0.895786 0.214381
O O10 0.000000 0.885255 0.279680
O O11 0.254270 0.910381 0.500000
O O12 0.000000 0.916724 0.425324
O O13 0.206729 0.000000 0.423458
O O14 0.000000 0.366491 0.367868
O O15 0.000000 0.779447 0.500000
#
# Coordination Sequence:
#
# PCOD9517956 Si02
#       6
#     8  16  16  16  16   8
#     4  10  18  32  52  72  97 130 171 212 254 301
#     4  11  21  33  47  69 103 140 177 220 264 310
#     4  11  21  32  51  78 105 135 175 220 267 317
#     4   8  16  33  56  81 107 136 175 224 272 317
#     4  11  21  35  51  72 104 142 180 216 259 313
#     4  10  18  30  46  66  93 132 177 212 252 303
#
# _framework density 21.434766
#
# number of rings (size 3 to 8) (size 9 to 14) (size 15 to 20)
#    0.000    1.800    0.000    9.600    1.400    0.000 
#    0.000    0.000    0.000    2.400    0.000    6.300 
#    0.000    5.600    0.000    0.000    0.000    0.000 
#
# Total GULP energy -223412.893976 kJ/mol
# GULP energy per Si atom -5585.322349 kJ/mol
# Density = 2.138598 g / cm^3
# Si number density = 21.434766 Si / 1000 Ang^3
#
#
#
# Elastic Constant Matrix: (Units=GPa)
#
#
# Indices 1 2 3 4 5 6 
#
# 1 76.3353 -0.1507 25.0192 0.0000 0.0000 0.0000
# 2 -0.1507 11.6225 20.3260 0.0000 0.0000 0.0000
# 3 25.0192 20.3260 215.4042 0.0000 0.0000 0.0000
# 4 0.0000 0.0000 0.0000 23.6055 0.0000 0.0000
# 5 0.0000 0.0000 0.0000 0.0000 36.2079 0.0000
# 6 0.0000 0.0000 0.0000 0.0000 0.0000 3.9993
#
#
#
# Elastic Compliance Matrix: (Units=1/GPa)
#
#
# Indices 1 2 3 4 5 6 
#
# 1 0.013740 0.003556 -0.001931 0.000000 0.000000 0.000000
# 2 0.003556 0.103966 -0.010223 0.000000 0.000000 0.000000
# 3 -0.001931 -0.010223 0.005831 0.000000 0.000000 0.000000
# 4 0.000000 0.000000 0.000000 0.042363 0.000000 0.000000
# 5 0.000000 0.000000 0.000000 0.000000 0.027618 0.000000
# 6 0.000000 0.000000 0.000000 0.000000 0.000000 0.250044
#
#
# Mechanical properties :
#
#
# Convention : Reuss Voigt Hill
#
# Bulk Modulus (GPa) = 9.40383 43.75011 26.57697
# Shear Modulus (GPa) = 10.07644 29.97372 20.02508
#
# Velocity S-wave (km/s) = 2.17053 3.74353 3.05984
# Velocity P-wave (km/s) = 3.26777 6.25624 4.99093
#
# Compressibility (1/GPa) = 0.10633965
#
# Stress axis : x y z
#
# Youngs Moduli (GPa) = 72.77931 9.61855 171.48298
#
# Poissons Ratio (x) = -0.03420 0.33122
# Poissons Ratio (y) = -0.25881 1.75315
# Poissons Ratio (z) = 0.14057 0.09833
#
# Static dielectric constant tensor:
#      x y z
#    x 1.722210 0.000000 0.000000 
#    y 0.000000 1.798310 0.000000 
#    z 0.000000 0.000000 1.886290 
# 
# From -- ./inp_files/42279.got.cif
#   From: 2010.05.17/outbox.cif.g08.bks.cpg/sg71_22_cif.got.tgz:42279.got - 2010.06.03 16:22:01.
