data_PCOD9517842
_publ_section_title
;
Structure prediction by ZEFSAII (Michael W. Deem and Ramdas Pophale) SiO2 
 PCOD9517842
Probable space group: I M M M
;
_chemical_formula_sum "Si O2"
_cell_formula_units_Z 96
_cell_length_a 7.378541
_cell_length_b 27.941530
_cell_length_c 19.856705
_cell_angle_alpha 90.000000
_cell_angle_beta 90.000000
_cell_angle_gamma 90.000000
_cell_volume 4093.811690
_symmetry_space_group_name_H-M "I M M M"
_symmetry_group_IT_number 71
_symmetry_cell_setting 'orthorhombic'
loop_
_space_group_symop_operation_xyz
x,y,z
-x,-y,z
x,-y,-z
-x,y,-z
-x,-y,-z
x,y,-z
-x,y,z
x,-y,z
1/2+x,1/2+y,1/2+z
1/2-x,1/2-y,1/2+z
1/2+x,1/2-y,1/2-z
1/2-x,1/2+y,1/2-z
1/2-x,1/2-y,1/2-z
1/2+x,1/2+y,1/2-z
1/2-x,1/2+y,1/2+z
1/2+x,1/2-y,1/2+z
loop_
_atom_site_type_symbol
_atom_site_label
_atom_site_fract_x
_atom_site_fract_y
_atom_site_fract_z
Si Si1 0.277341 0.552295 0.218129
Si Si2 0.204187 0.314194 0.081021
Si Si3 0.793349 0.921510 0.574950
Si Si4 0.281881 0.944504 0.074628
Si Si5 0.701357 0.630082 0.682861
Si Si6 0.777550 0.208896 0.921445
O O1 0.500000 0.554200 0.219692
O O2 0.225841 0.500000 0.247471
O O3 0.214944 0.554112 0.140783
O O4 0.213310 0.600732 0.255232
O O5 0.297275 0.364785 0.092082
O O6 0.280094 0.262463 0.100183
O O7 0.000000 0.318212 0.108088
O O8 0.193613 0.310108 0.000000
O O9 0.711807 0.927252 0.500000
O O10 0.000000 0.938422 0.570175
O O11 0.500000 0.940947 0.081883
O O12 0.189372 0.913156 0.129936
O O13 0.233769 0.000000 0.079244
O O14 0.234505 0.927070 0.000000
O O15 0.500000 0.646689 0.703782
O O16 0.783490 0.671698 0.635963
O O17 0.000000 0.208097 0.922388
O O18 0.722630 0.199269 0.000000
#
# Coordination Sequence:
#
# PCOD9517842 Si02
#       6
#    16  16  16  16  16  16
#     4   9  18  31  46  67  94 120 148 189 241 283
#     4   8  14  27  47  68  91 118 145 177 222 273
#     4   9  17  30  49  70  90 115 150 190 230 278
#     4   9  18  31  44  60  87 122 156 191 232 273
#     4  10  18  29  47  68  90 118 155 195 227 262
#     4   8  14  25  43  68  94 119 148 181 219 264
#
# _framework density 23.450026999999999
#
# number of rings (size 3 to 8) (size 9 to 14) (size 15 to 20)
#    0.000    3.167    0.000    2.500    0.000    2.333 
#    0.000    5.000    0.000    4.500    0.000    2.333 
#    0.000    0.000    0.000    0.000    0.000    0.000 
#
# Total GULP energy -267472.580250 kJ/mol
# GULP energy per Si atom -5572.345422 kJ/mol
# Density = 2.339665 g / cm^3
# Si number density = 23.450027 Si / 1000 Ang^3
#
#
#
# Elastic Constant Matrix: (Units=GPa)
#
#
# Indices 1 2 3 4 5 6 
#
# 1 77.3152 0.9169 1.9845 0.0000 0.0000 0.0000
# 2 0.9169 100.6306 35.2722 0.0000 0.0000 0.0000
# 3 1.9845 35.2722 93.5900 0.0001 0.0001 0.0000
# 4 0.0000 0.0000 0.0001 40.2949 0.0000 0.0000
# 5 0.0000 0.0000 0.0001 0.0000 25.2403 0.0000
# 6 0.0000 0.0000 0.0000 0.0000 0.0000 -0.1098
#
#
#
# Elastic Compliance Matrix: (Units=1/GPa)
#
#
# Indices 1 2 3 4 5 6 
#
# 1 0.012941 -0.000025 -0.000265 0.000000 0.000000 0.000000
# 2 -0.000025 0.011450 -0.004315 0.000000 0.000000 0.000000
# 3 -0.000265 -0.004315 0.012317 0.000000 0.000000 -0.000003
# 4 0.000000 0.000000 0.000000 0.024817 0.000000 -0.000001
# 5 0.000000 0.000000 0.000000 0.000000 0.039619 0.000000
# 6 0.000000 0.000000 -0.000003 -0.000001 0.000000 -9.107153
#
#
# Mechanical properties :
#
#
# Convention : Reuss Voigt Hill
#
# Bulk Modulus (GPa) = 36.36591 38.65368 37.50979
# Shear Modulus (GPa) = -0.55632 28.64255 14.04312
#
# Velocity S-wave (km/s) = -0.48760 3.49869 2.44980
# Velocity P-wave (km/s) = 3.90186 5.73064 4.90228
#
# Compressibility (1/GPa) = 0.02749828
#
# Stress axis : x y z
#
# Youngs Moduli (GPa) = 77.27283 87.33679 81.19086
#
# Poissons Ratio (x) = 0.00219 0.02151
# Poissons Ratio (y) = 0.00193 0.35032
# Poissons Ratio (z) = 0.02048 0.37683
#
# Static dielectric constant tensor:
#      x y z
#    x 1.837800 0.000000 0.000000 
#    y 0.000000 1.897980 0.000000 
#    z 0.000000 0.000000 1.900470 
# 
# From -- ./inp_files/48746.got.cif
#   From: 2010.05.17/outbox.cif.g08.bks.cpg/sg71_25_cif.got.tgz:48746.got - 2010.06.03 16:22:01.
