data_PCOD9517545
_publ_section_title
;
Structure prediction by ZEFSAII (Michael W. Deem and Ramdas Pophale) SiO2 
 PCOD9517545
Probable space group: I M M M
;
_chemical_formula_sum "Si O2"
_cell_formula_units_Z 80
_cell_length_a 26.228155
_cell_length_b 8.072025
_cell_length_c 21.239538
_cell_angle_alpha 90.000000
_cell_angle_beta 90.000000
_cell_angle_gamma 90.000000
_cell_volume 4496.714406
_symmetry_space_group_name_H-M "I M M M"
_symmetry_group_IT_number 71
_symmetry_cell_setting 'orthorhombic'
loop_
_space_group_symop_operation_xyz
x,y,z
-x,-y,z
x,-y,-z
-x,y,-z
-x,-y,-z
x,y,-z
-x,y,z
x,-y,z
1/2+x,1/2+y,1/2+z
1/2-x,1/2-y,1/2+z
1/2+x,1/2-y,1/2-z
1/2-x,1/2+y,1/2-z
1/2-x,1/2-y,1/2-z
1/2+x,1/2+y,1/2-z
1/2-x,1/2+y,1/2+z
1/2+x,1/2-y,1/2+z
loop_
_atom_site_type_symbol
_atom_site_label
_atom_site_fract_x
_atom_site_fract_y
_atom_site_fract_z
Si Si1 0.389930 0.297314 0.765636
Si Si2 0.283179 0.300224 0.430906
Si Si3 0.608108 0.300202 0.382014
Si Si4 0.282053 0.697562 0.811182
Si Si5 0.000000 0.692551 0.128549
Si Si6 0.500000 0.692797 0.229680
O O1 0.391063 0.500000 0.767268
O O2 0.385363 0.252689 0.691727
O O3 0.339977 0.239638 0.802397
O O4 0.445106 0.236019 0.789456
O O5 0.266562 0.242339 0.500000
O O6 0.285052 0.500000 0.431382
O O7 0.341119 0.242925 0.417293
O O8 0.246362 0.251952 0.374174
O O9 0.606050 0.500000 0.385164
O O10 0.553417 0.233871 0.404580
O O11 0.284339 0.500000 0.811062
O O12 0.250000 0.750000 0.750000
O O13 0.000000 0.796463 0.193832
O O14 0.000000 0.500000 0.145729
O O15 0.500000 0.500000 0.211286
#
# Coordination Sequence:
#
# PCOD9517545 Si02
#       6
#    16  16  16  16   8   8
#     4   8  14  26  47  71  94 124 161 199 241 291
#     4  10  21  37  54  72  97 132 174 215 255 303
#     4   9  16  31  49  65  91 129 168 204 246 296
#     4  11  20  32  51  77 105 132 167 207 253 304
#     4  10  18  26  41  69  96 122 161 207 250 290
#     4   8  14  28  46  65  94 129 160 195 242 291
#
# _framework density 17.790766999999999
#
# number of rings (size 3 to 8) (size 9 to 14) (size 15 to 20)
#    0.000    2.600    2.000    2.700    0.000    1.200 
#    0.000    1.500    0.000    3.000    0.000    0.700 
#    0.000    5.600    0.000    0.000    0.000    0.000 
#
# Total GULP energy -222898.139731 kJ/mol
# GULP energy per Si atom -5572.453493 kJ/mol
# Density = 1.775027 g / cm^3
# Si number density = 17.790767 Si / 1000 Ang^3
#
#
#
# Elastic Constant Matrix: (Units=GPa)
#
#
# Indices 1 2 3 4 5 6 
#
# 1 172.2244 13.3068 70.0699 0.0000 0.0000 0.0000
# 2 13.3068 19.8974 11.9457 0.0000 0.0000 0.0000
# 3 70.0699 11.9457 93.9894 0.0000 0.0000 0.0000
# 4 0.0000 0.0000 0.0000 13.0702 0.0000 0.0000
# 5 0.0000 0.0000 0.0000 0.0000 13.3469 0.0000
# 6 0.0000 0.0000 0.0000 0.0000 0.0000 20.7613
#
#
#
# Elastic Compliance Matrix: (Units=1/GPa)
#
#
# Indices 1 2 3 4 5 6 
#
# 1 0.008408 -0.002013 -0.006012 0.000000 0.000000 0.000000
# 2 -0.002013 0.054892 -0.005475 0.000000 0.000000 0.000000
# 3 -0.006012 -0.005475 0.015818 0.000000 0.000000 0.000000
# 4 0.000000 0.000000 0.000000 0.076510 0.000000 0.000000
# 5 0.000000 0.000000 0.000000 0.000000 0.074924 0.000000
# 6 0.000000 0.000000 0.000000 0.000000 0.000000 0.048167
#
#
# Mechanical properties :
#
#
# Convention : Reuss Voigt Hill
#
# Bulk Modulus (GPa) = 19.18838 52.97288 36.08063
# Shear Modulus (GPa) = 15.47546 22.15493 18.81519
#
# Velocity S-wave (km/s) = 2.95254 3.53272 3.25558
# Velocity P-wave (km/s) = 4.73627 6.81764 5.86995
#
# Compressibility (1/GPa) = 0.05211488
#
# Stress axis : x y z
#
# Youngs Moduli (GPa) = 118.93280 18.21768 63.22031
#
# Poissons Ratio (x) = 0.03668 0.38011
# Poissons Ratio (y) = 0.23947 0.34616
# Poissons Ratio (z) = 0.71507 0.09975
#
# Static dielectric constant tensor:
#      x y z
#    x 1.666500 0.000000 0.000000 
#    y 0.000000 1.643340 0.000000 
#    z 0.000000 0.000000 1.566520 
# 
# From -- ./inp_files/48638.got.cif
#   From: 2010.05.17/outbox.cif.g08.bks.cpg/sg71_25_cif.got.tgz:48638.got - 2010.06.03 16:22:01.
