data_PCOD9517260
_publ_section_title
;
Structure prediction by ZEFSAII (Michael W. Deem and Ramdas Pophale) SiO2 
 PCOD9517260
Probable space group: I M M M
;
_chemical_formula_sum "Si O2"
_cell_formula_units_Z 92
_cell_length_a 24.195400
_cell_length_b 17.198486
_cell_length_c 12.799475
_cell_angle_alpha 90.000000
_cell_angle_beta 90.000000
_cell_angle_gamma 90.000000
_cell_volume 5326.171911
_symmetry_space_group_name_H-M "I M M M"
_symmetry_group_IT_number 71
_symmetry_cell_setting 'orthorhombic'
loop_
_space_group_symop_operation_xyz
x,y,z
-x,-y,z
x,-y,-z
-x,y,-z
-x,-y,-z
x,y,-z
-x,y,z
x,-y,z
1/2+x,1/2+y,1/2+z
1/2-x,1/2-y,1/2+z
1/2+x,1/2-y,1/2-z
1/2-x,1/2+y,1/2-z
1/2-x,1/2-y,1/2-z
1/2+x,1/2+y,1/2-z
1/2-x,1/2+y,1/2+z
1/2+x,1/2-y,1/2+z
loop_
_atom_site_type_symbol
_atom_site_label
_atom_site_fract_x
_atom_site_fract_y
_atom_site_fract_z
Si Si1 0.500000 0.154065 0.382387
Si Si2 0.819105 0.204593 0.661894
Si Si3 0.500000 0.645124 0.000000
Si Si4 0.624558 0.590710 0.000000
Si Si5 0.118908 0.585084 0.159197
Si Si6 0.000000 0.283334 0.660277
Si Si7 0.308395 0.764762 0.615426
Si Si8 0.383663 0.861996 0.113487
O O1 0.500000 0.186635 0.500000
O O2 0.444950 0.102816 0.367442
O O3 0.500000 0.215627 0.286679
O O4 0.849981 0.136094 0.600323
O O5 0.754377 0.207090 0.634587
O O6 0.824331 0.208932 0.787851
O O7 0.845279 0.285792 0.622914
O O8 0.441974 0.600150 0.000000
O O9 0.500000 0.701383 0.898295
O O10 0.639211 0.500000 0.000000
O O11 0.135083 0.500000 0.120402
O O12 0.153600 0.658489 0.119660
O O13 0.125954 0.587209 0.284566
O O14 0.054176 0.329379 0.624088
O O15 0.312763 0.729399 0.500000
O O16 0.375864 0.898440 0.000000
#
# Coordination Sequence:
#
# PCOD9517260 Si02
#       8
#     8  16   4   8  16   8  16  16
#     4  10  21  34  48  70  99 138 178 218 264 312
#     4  10  19  35  55  80 109 140 180 227 265 324
#     4  12  19  36  58  84 111 138 174 232 287 348
#     4  12  23  36  58  88 118 145 174 227 296 345
#     4  10  22  33  46  73 105 139 177 216 263 316
#     4  10  16  28  55  76  98 130 171 220 266 305
#     4  10  20  34  56  80 105 144 188 224 264 314
#     4  10  16  30  53  73 100 137 173 215 264 309
#
# _framework density 17.273195000000001
#
# number of rings (size 3 to 8) (size 9 to 14) (size 15 to 20)
#    0.000    1.739    4.348    0.913    0.000    2.783 
#    0.000    0.000    0.000    3.652    0.000    0.000 
#    0.000    2.087    0.000    0.000    0.000    0.000 
#
# Total GULP energy -256503.814912 kJ/mol
# GULP energy per Si atom -5576.169889 kJ/mol
# Density = 1.723388 g / cm^3
# Si number density = 17.273195 Si / 1000 Ang^3
#
#
#
# Elastic Constant Matrix: (Units=GPa)
#
#
# Indices 1 2 3 4 5 6 
#
# 1 82.8952 30.7172 14.3506 0.0000 0.0000 0.0000
# 2 30.7172 84.7531 34.6409 0.0000 0.0000 0.0000
# 3 14.3506 34.6409 186.8046 0.0000 0.0000 0.0000
# 4 0.0000 0.0000 0.0000 3.2364 0.0000 0.0000
# 5 0.0000 0.0000 0.0000 0.0000 28.2969 0.0000
# 6 0.0000 0.0000 0.0000 0.0000 0.0000 3.3099
#
#
#
# Elastic Compliance Matrix: (Units=1/GPa)
#
#
# Indices 1 2 3 4 5 6 
#
# 1 0.013939 -0.004993 -0.000145 0.000000 0.000000 0.000000
# 2 -0.004993 0.014555 -0.002316 0.000000 0.000000 0.000000
# 3 -0.000145 -0.002316 0.005794 0.000000 0.000000 0.000000
# 4 0.000000 0.000000 0.000000 0.308984 0.000000 0.000000
# 5 0.000000 0.000000 0.000000 0.000000 0.035340 0.000000
# 6 0.000000 0.000000 0.000000 0.000000 0.000000 0.302128
#
#
# Mechanical properties :
#
#
# Convention : Reuss Voigt Hill
#
# Bulk Modulus (GPa) = 51.59667 57.09669 54.34668
# Shear Modulus (GPa) = 7.12144 25.28491 16.20317
#
# Velocity S-wave (km/s) = 2.03268 3.83015 3.06609
# Velocity P-wave (km/s) = 5.95356 7.25857 6.63821
#
# Compressibility (1/GPa) = 0.01938110
#
# Stress axis : x y z
#
# Youngs Moduli (GPa) = 71.74368 68.70572 172.60094
#
# Poissons Ratio (x) = 0.34301 0.02502
# Poissons Ratio (y) = 0.35818 0.39966
# Poissons Ratio (z) = 0.01040 0.15909
#
# Static dielectric constant tensor:
#      x y z
#    x 1.597120 0.000000 0.000000 
#    y 0.000000 1.540650 0.000000 
#    z 0.000000 0.000000 1.646540 
# 
# From -- ./inp_files/27483.got.cif
#   From: 2010.05.17/outbox.cif.g08.bks.cpg/sg71_14_cif.got.tgz:27483.got - 2010.06.03 16:22:01.
