data_PCOD9517746
_publ_section_title
;
Structure prediction by ZEFSAII (Michael W. Deem and Ramdas Pophale) SiO2 
 PCOD9517746
Probable space group: I M M M
;
_chemical_formula_sum "Si O2"
_cell_formula_units_Z 96
_cell_length_a 23.199581
_cell_length_b 7.533043
_cell_length_c 23.625034
_cell_angle_alpha 90.000000
_cell_angle_beta 90.000000
_cell_angle_gamma 90.000000
_cell_volume 4128.792242
_symmetry_space_group_name_H-M "I M M M"
_symmetry_group_IT_number 71
_symmetry_cell_setting 'orthorhombic'
loop_
_space_group_symop_operation_xyz
x,y,z
-x,-y,z
x,-y,-z
-x,y,-z
-x,-y,-z
x,y,-z
-x,y,z
x,-y,z
1/2+x,1/2+y,1/2+z
1/2-x,1/2-y,1/2+z
1/2+x,1/2-y,1/2-z
1/2-x,1/2+y,1/2-z
1/2-x,1/2-y,1/2-z
1/2+x,1/2+y,1/2-z
1/2-x,1/2+y,1/2+z
1/2+x,1/2-y,1/2+z
loop_
_atom_site_type_symbol
_atom_site_label
_atom_site_fract_x
_atom_site_fract_y
_atom_site_fract_z
Si Si1 0.938252 0.788058 0.755771
Si Si2 0.720739 0.711769 0.500000
Si Si3 0.601316 0.785543 0.620623
Si Si4 0.913225 0.297528 0.000000
Si Si5 0.433909 0.214442 0.064689
Si Si6 0.348715 0.710117 0.832261
Si Si7 0.767831 0.708798 0.123566
O O1 0.931316 0.756353 0.822187
O O2 0.885197 0.714622 0.719883
O O3 0.000000 0.717141 0.735980
O O4 0.938743 0.000000 0.746905
O O5 0.714578 0.500000 0.500000
O O6 0.656932 0.796802 0.500000
O O7 0.750023 0.769763 0.557888
O O8 0.573963 0.717817 0.561636
O O9 0.667298 0.717510 0.627652
O O10 0.603665 0.000000 0.614620
O O11 0.934520 0.500000 0.000000
O O12 0.500000 0.271662 0.077738
O O13 0.388205 0.271845 0.111763
O O14 0.433749 0.000000 0.064715
O O15 0.420504 0.271306 0.000000
O O16 0.340712 0.500000 0.822686
O O17 0.284697 0.785992 0.840617
O O18 0.773041 0.500000 0.136109
#
# Coordination Sequence:
#
# PCOD9517746 Si02
#       7
#    16   8  16   8  16  16  16
#     4  10  22  39  56  77 108 142 179 229 279 320
#     4  10  18  28  48  79 112 145 180 213 257 321
#     4   9  18  35  59  83 108 141 177 214 265 328
#     4   8  16  34  57  81 112 142 169 212 263 312
#     4   9  19  35  52  73 106 143 179 230 286 320
#     4  10  21  36  55  77 104 144 188 225 266 321
#     4   9  19  35  53  77 111 146 179 222 270 317
#
# _framework density 23.251353000000002
#
# number of rings (size 3 to 8) (size 9 to 14) (size 15 to 20)
#    0.000    2.667    0.000    2.750    1.167    6.333 
#    0.000    1.250    0.000    2.500    0.000    0.000 
#    0.000    0.000    0.000    0.000    0.000    0.000 
#
# Total GULP energy -267954.125119 kJ/mol
# GULP energy per Si atom -5582.377607 kJ/mol
# Density = 2.319843 g / cm^3
# Si number density = 23.251353 Si / 1000 Ang^3
#
#
#
# Elastic Constant Matrix: (Units=GPa)
#
#
# Indices 1 2 3 4 5 6 
#
# 1 95.5746 5.1160 32.9527 0.0000 0.0000 0.0000
# 2 5.1160 64.2526 -12.5892 0.0000 0.0000 0.0000
# 3 32.9527 -12.5892 79.0130 0.0000 0.0000 0.0000
# 4 0.0000 0.0000 0.0000 88.9951 0.0000 0.0000
# 5 0.0000 0.0000 0.0000 0.0000 3.8328 0.0000
# 6 0.0000 0.0000 0.0000 0.0000 0.0000 4.7174
#
#
#
# Elastic Compliance Matrix: (Units=1/GPa)
#
#
# Indices 1 2 3 4 5 6 
#
# 1 0.012484 -0.002079 -0.005538 0.000000 0.000000 0.000000
# 2 -0.002079 0.016411 0.003482 0.000000 0.000000 0.000000
# 3 -0.005538 0.003482 0.015520 0.000000 0.000000 0.000000
# 4 0.000000 0.000000 0.000000 0.011237 0.000000 0.000000
# 5 0.000000 0.000000 0.000000 0.000000 0.260909 0.000000
# 6 0.000000 0.000000 0.000000 0.000000 0.000000 0.211980
#
#
# Mechanical properties :
#
#
# Convention : Reuss Voigt Hill
#
# Bulk Modulus (GPa) = 27.66564 32.19993 29.93278
# Shear Modulus (GPa) = 9.10982 33.73310 21.42146
#
# Velocity S-wave (km/s) = 1.98153 3.81307 3.03858
# Velocity P-wave (km/s) = 4.14242 5.76756 5.02117
#
# Compressibility (1/GPa) = 0.03614593
#
# Stress axis : x y z
#
# Youngs Moduli (GPa) = 80.10513 60.93351 64.43139
#
# Poissons Ratio (x) = 0.12668 0.35679
# Poissons Ratio (y) = 0.16654 -0.22434
# Poissons Ratio (z) = 0.44359 -0.21216
#
# Static dielectric constant tensor:
#      x y z
#    x 1.894550 0.000000 0.000000 
#    y 0.000000 1.890560 0.000000 
#    z 0.000000 0.000000 1.901350 
# 
# From -- ./inp_files/61586.got.cif
#   From: 2010.05.17/outbox.cif.g08.bks.cpg/sg71_31_cif.got.tgz:61586.got - 2010.06.03 16:22:01.
