data_PCOD9517777
_publ_section_title
;
Structure prediction by ZEFSAII (Michael W. Deem and Ramdas Pophale) SiO2 
 PCOD9517777
Probable space group: I M M M
;
_chemical_formula_sum "Si O2"
_cell_formula_units_Z 80
_cell_length_a 26.962554
_cell_length_b 8.684794
_cell_length_c 24.497469
_cell_angle_alpha 90.000000
_cell_angle_beta 90.000000
_cell_angle_gamma 90.000000
_cell_volume 5736.430897
_symmetry_space_group_name_H-M "I M M M"
_symmetry_group_IT_number 71
_symmetry_cell_setting 'orthorhombic'
loop_
_space_group_symop_operation_xyz
x,y,z
-x,-y,z
x,-y,-z
-x,y,-z
-x,-y,-z
x,y,-z
-x,y,z
x,-y,z
1/2+x,1/2+y,1/2+z
1/2-x,1/2-y,1/2+z
1/2+x,1/2-y,1/2-z
1/2-x,1/2+y,1/2-z
1/2-x,1/2-y,1/2-z
1/2+x,1/2+y,1/2-z
1/2-x,1/2+y,1/2+z
1/2+x,1/2-y,1/2+z
loop_
_atom_site_type_symbol
_atom_site_label
_atom_site_fract_x
_atom_site_fract_y
_atom_site_fract_z
Si Si1 0.601918 0.315216 0.500000
Si Si2 0.797117 0.185096 0.717387
Si Si3 0.239555 0.314836 0.884121
Si Si4 0.144406 0.814750 0.818252
Si Si5 0.557291 0.815425 0.611813
Si Si6 0.718725 0.684282 0.500000
O O1 0.598551 0.500000 0.500000
O O2 0.576289 0.249861 0.445940
O O3 0.660178 0.272800 0.500000
O O4 0.750000 0.250000 0.750000
O O5 0.785993 0.230126 0.654957
O O6 0.843476 0.230388 0.755370
O O7 0.795390 0.000000 0.718778
O O8 0.235729 0.500000 0.885409
O O9 0.189748 0.248605 0.855442
O O10 0.242182 0.250284 0.944864
O O11 0.093761 0.748811 0.841955
O O12 0.144254 0.000000 0.822753
O O13 0.500000 0.771780 0.620306
O O14 0.560737 0.000000 0.610355
O O15 0.721677 0.500000 0.500000
#
# Coordination Sequence:
#
# PCOD9517777 Si02
#       6
#     8  16  16  16  16   8
#     4  11  22  34  47  60  79 108 144 185 223 255
#     4   8  16  28  43  63  83 103 132 167 205 249
#     4  10  18  29  45  63  83 110 139 169 207 251
#     4  10  18  30  46  63  83 106 135 174 213 252
#     4  11  23  35  46  61  81 107 143 184 220 255
#     4  11  21  30  42  63  87 112 142 180 213 245
#
# _framework density 13.945952999999999
#
# number of rings (size 3 to 8) (size 9 to 14) (size 15 to 20)
#    0.000    2.000    2.000    2.700    0.000    5.200 
#    0.000    0.000    0.000    0.000    0.000    0.000 
#    0.000    0.000    0.000    0.900    0.000   18.800 
#
# Total GULP energy -222934.564082 kJ/mol
# GULP energy per Si atom -5573.364102 kJ/mol
# Density = 1.391421 g / cm^3
# Si number density = 13.945953 Si / 1000 Ang^3
#
#
#
# Elastic Constant Matrix: (Units=GPa)
#
#
# Indices 1 2 3 4 5 6 
#
# 1 74.0743 26.6539 72.2754 0.0000 0.0000 0.0000
# 2 26.6539 34.0573 36.8318 0.0000 0.0000 0.0000
# 3 72.2754 36.8318 136.7865 0.0000 0.0000 0.0000
# 4 0.0000 0.0000 0.0000 16.8321 0.0000 0.0000
# 5 0.0000 0.0000 0.0000 0.0000 9.7445 0.0000
# 6 0.0000 0.0000 0.0000 0.0000 0.0000 17.1030
#
#
#
# Elastic Compliance Matrix: (Units=1/GPa)
#
#
# Indices 1 2 3 4 5 6 
#
# 1 0.029636 -0.008831 -0.013282 0.000000 0.000000 0.000000
# 2 -0.008831 0.044057 -0.007197 0.000000 0.000000 0.000000
# 3 -0.013282 -0.007197 0.016266 0.000000 0.000000 0.000000
# 4 0.000000 0.000000 0.000000 0.059410 0.000000 0.000000
# 5 0.000000 0.000000 0.000000 0.000000 0.102622 0.000000
# 6 0.000000 0.000000 0.000000 0.000000 0.000000 0.058469
#
#
# Mechanical properties :
#
#
# Convention : Reuss Voigt Hill
#
# Bulk Modulus (GPa) = 31.90697 57.38227 44.64462
# Shear Modulus (GPa) = 13.17431 16.01305 14.59368
#
# Velocity S-wave (km/s) = 3.07688 3.39222 3.23839
# Velocity P-wave (km/s) = 5.96252 7.52186 6.78712
#
# Compressibility (1/GPa) = 0.03134111
#
# Stress axis : x y z
#
# Youngs Moduli (GPa) = 33.74226 22.69807 61.47681
#
# Poissons Ratio (x) = 0.20044 0.81651
# Poissons Ratio (y) = 0.29796 0.44245
# Poissons Ratio (z) = 0.44815 0.16336
#
# Static dielectric constant tensor:
#      x y z
#    x 1.442080 0.000000 0.000000 
#    y 0.000000 1.467260 0.000000 
#    z 0.000000 0.000000 1.479300 
# 
# From -- ./inp_files/10730.got.cif
#   From: 2010.05.17/outbox.cif.g08.bks.cpg/sg71_6_cif.got.tgz:10730.got - 2010.06.03 16:22:01.
