data_PCOD9517565
_publ_section_title
;
Structure prediction by ZEFSAII (Michael W. Deem and Ramdas Pophale) SiO2 
 PCOD9517565
Probable space group: I M M M
;
_chemical_formula_sum "Si O2"
_cell_formula_units_Z 88
_cell_length_a 10.211898
_cell_length_b 32.005841
_cell_length_c 20.349492
_cell_angle_alpha 90.000000
_cell_angle_beta 90.000000
_cell_angle_gamma 90.000000
_cell_volume 6651.035773
_symmetry_space_group_name_H-M "I M M M"
_symmetry_group_IT_number 71
_symmetry_cell_setting 'orthorhombic'
loop_
_space_group_symop_operation_xyz
x,y,z
-x,-y,z
x,-y,-z
-x,y,-z
-x,-y,-z
x,y,-z
-x,y,z
x,-y,z
1/2+x,1/2+y,1/2+z
1/2-x,1/2-y,1/2+z
1/2+x,1/2-y,1/2-z
1/2-x,1/2+y,1/2-z
1/2-x,1/2-y,1/2-z
1/2+x,1/2+y,1/2-z
1/2-x,1/2+y,1/2+z
1/2+x,1/2-y,1/2+z
loop_
_atom_site_type_symbol
_atom_site_label
_atom_site_fract_x
_atom_site_fract_y
_atom_site_fract_z
Si Si1 0.500000 0.778004 0.165811
Si Si2 0.000000 0.237316 0.875015
Si Si3 0.219814 0.755131 0.424108
Si Si4 0.779818 0.157327 0.654555
Si Si5 0.850356 0.926573 0.578754
Si Si6 0.500000 0.825451 0.296162
Si Si7 0.152061 0.500000 0.920162
Si Si8 0.000000 0.190260 0.255299
O O1 0.626188 0.774136 0.119451
O O2 0.500000 0.815016 0.218667
O O3 0.500000 0.735411 0.208801
O O4 0.132173 0.239056 0.916489
O O5 0.000000 0.280455 0.832983
O O6 0.000000 0.200211 0.821622
O O7 0.180250 0.756590 0.500000
O O8 0.212488 0.801616 0.392301
O O9 0.827419 0.117080 0.615200
O O10 0.631914 0.152615 0.679881
O O11 0.873208 0.166898 0.716471
O O12 0.839295 0.920534 0.500000
O O13 0.000000 0.941295 0.591364
O O14 0.738975 0.959735 0.598883
O O15 0.000000 0.500000 0.897850
O O16 0.148369 0.500000 0.000000
#
# Coordination Sequence:
#
# PCOD9517565 Si02
#       8
#     8   8  16  16  16   8   8   8
#     4   9  17  28  40  54  73 105 134 167 204 246
#     4   9  17  28  40  52  75 105 132 167 206 250
#     4  10  18  27  39  57  79 103 134 173 215 247
#     4  10  18  28  41  61  79 101 131 176 214 242
#     4  10  19  31  45  61  81 105 132 166 207 246
#     4   9  18  28  40  55  77 102 134 166 209 245
#     4   9  19  33  47  61  79 105 133 159 196 247
#     4   9  16  28  42  55  73 100 136 166 205 247
#
# _framework density 13.231021
#
# number of rings (size 3 to 8) (size 9 to 14) (size 15 to 20)
#    0.000    2.455    0.909    2.455    1.273    5.455 
#    0.000    0.909    0.000    0.000    0.000    0.000 
#    0.000    0.000    0.000    0.000    0.000    0.000 
#
# Total GULP energy -245110.137013 kJ/mol
# GULP energy per Si atom -5570.684932 kJ/mol
# Density = 1.320091 g / cm^3
# Si number density = 13.231021 Si / 1000 Ang^3
#
#
#
# Elastic Constant Matrix: (Units=GPa)
#
#
# Indices 1 2 3 4 5 6 
#
# 1 94.0427 20.2076 13.4016 0.0000 0.0000 0.0000
# 2 20.2076 37.0815 14.7136 0.0000 0.0000 0.0000
# 3 13.4016 14.7136 47.4779 0.0000 0.0000 0.0000
# 4 0.0000 0.0000 0.0000 12.8336 0.0000 0.0000
# 5 0.0000 0.0000 0.0000 0.0000 14.3660 0.0000
# 6 0.0000 0.0000 0.0000 0.0000 0.0000 15.3066
#
#
#
# Elastic Compliance Matrix: (Units=1/GPa)
#
#
# Indices 1 2 3 4 5 6 
#
# 1 0.012146 -0.005996 -0.001570 0.000000 0.000000 0.000000
# 2 -0.005996 0.033709 -0.008754 0.000000 0.000000 0.000000
# 3 -0.001570 -0.008754 0.024219 0.000000 0.000000 0.000000
# 4 0.000000 0.000000 0.000000 0.077920 0.000000 0.000000
# 5 0.000000 0.000000 0.000000 0.000000 0.069609 0.000000
# 6 0.000000 0.000000 0.000000 0.000000 0.000000 0.065331
#
#
# Mechanical properties :
#
#
# Convention : Reuss Voigt Hill
#
# Bulk Modulus (GPa) = 26.71456 30.58307 28.64882
# Shear Modulus (GPa) = 15.24155 17.18653 16.21404
#
# Velocity S-wave (km/s) = 3.39773 3.60801 3.50445
# Velocity P-wave (km/s) = 5.96887 6.36568 6.17047
#
# Compressibility (1/GPa) = 0.03743278
#
# Stress axis : x y z
#
# Youngs Moduli (GPa) = 82.33461 29.66609 41.29059
#
# Poissons Ratio (x) = 0.17787 0.06484
# Poissons Ratio (y) = 0.49365 0.36146
# Poissons Ratio (z) = 0.12929 0.25970
#
# Static dielectric constant tensor:
#      x y z
#    x 1.467160 0.000000 0.000000 
#    y 0.000000 1.404620 0.000000 
#    z 0.000000 0.000000 1.412360 
# 
# From -- ./inp_files/11440.got.cif
#   From: 2010.05.17/outbox.cif.g08.bks.cpg/sg71_6_cif.got.tgz:11440.got - 2010.06.03 16:22:01.
