data_PCOD9517304
_publ_section_title
;
Structure prediction by ZEFSAII (Michael W. Deem and Ramdas Pophale) SiO2 
 PCOD9517304
Probable space group: I M M M
;
_chemical_formula_sum "Si O2"
_cell_formula_units_Z 80
_cell_length_a 27.545344
_cell_length_b 16.745474
_cell_length_c 10.016690
_cell_angle_alpha 90.000000
_cell_angle_beta 90.000000
_cell_angle_gamma 90.000000
_cell_volume 4620.296844
_symmetry_space_group_name_H-M "I M M M"
_symmetry_group_IT_number 71
_symmetry_cell_setting 'orthorhombic'
loop_
_space_group_symop_operation_xyz
x,y,z
-x,-y,z
x,-y,-z
-x,y,-z
-x,-y,-z
x,y,-z
-x,y,z
x,-y,z
1/2+x,1/2+y,1/2+z
1/2-x,1/2-y,1/2+z
1/2+x,1/2-y,1/2-z
1/2-x,1/2+y,1/2-z
1/2-x,1/2-y,1/2-z
1/2+x,1/2+y,1/2-z
1/2-x,1/2+y,1/2+z
1/2+x,1/2-y,1/2+z
loop_
_atom_site_type_symbol
_atom_site_label
_atom_site_fract_x
_atom_site_fract_y
_atom_site_fract_z
Si Si1 0.556602 0.190431 0.787286
Si Si2 0.771328 0.598090 0.500000
Si Si3 0.114133 0.908947 0.000000
Si Si4 0.058132 0.748062 0.000000
Si Si5 0.696955 0.594856 0.279745
Si Si6 0.554231 0.668792 0.000000
Si Si7 0.116669 0.595214 0.500000
Si Si8 0.340677 0.403863 0.000000
O O1 0.500000 0.164283 0.785799
O O2 0.574030 0.205794 0.636952
O O3 0.557278 0.273045 0.871242
O O4 0.589122 0.129888 0.871180
O O5 0.769222 0.500000 0.500000
O O6 0.741653 0.625758 0.368860
O O7 0.827226 0.621673 0.500000
O O8 0.149255 0.898863 0.127737
O O9 0.075361 0.839282 0.000000
O O10 0.095304 0.000000 0.000000
O O11 0.000000 0.746638 0.000000
O O12 0.705997 0.500000 0.262772
O O13 0.684911 0.628254 0.134130
O O14 0.500000 0.631368 0.000000
O O15 0.602029 0.615305 0.000000
O O16 0.115112 0.500000 0.500000
O O17 0.336502 0.500000 0.000000
#
# Coordination Sequence:
#
# PCOD9517304 Si02
#       8
#    16   8   8   8  16   8   8   8
#     4   9  19  34  51  71  97 130 159 187 241 308
#     4   8  15  30  50  70  91 117 151 195 246 296
#     4   9  16  28  48  71  95 132 178 210 226 254
#     4  10  19  32  49  70 102 138 164 193 239 289
#     4   8  15  27  43  65  94 126 162 201 242 288
#     4   9  17  30  46  66  96 133 170 202 233 280
#     4  10  19  34  59  80  91 113 157 208 247 293
#     4  10  17  25  43  70  97 131 171 207 240 272
#
# _framework density 17.314906000000001
#
# number of rings (size 3 to 8) (size 9 to 14) (size 15 to 20)
#    0.000    3.000    0.000    3.300    0.000    1.200 
#    0.000    1.500    0.000   30.600    0.000    0.000 
#    0.000    0.000    0.000    0.000    0.000    0.000 
#
# Total GULP energy -222758.946675 kJ/mol
# GULP energy per Si atom -5568.973667 kJ/mol
# Density = 1.727550 g / cm^3
# Si number density = 17.314906 Si / 1000 Ang^3
#
#
#
# Elastic Constant Matrix: (Units=GPa)
#
#
# Indices 1 2 3 4 5 6 
#
# 1 81.2671 25.5144 59.3533 0.0000 0.0000 0.0000
# 2 25.5144 31.0712 31.3655 0.0000 0.0000 0.0000
# 3 59.3533 31.3655 174.9785 0.0000 0.0000 0.0000
# 4 0.0000 0.0000 0.0000 10.4266 0.0000 0.0000
# 5 0.0000 0.0000 0.0000 0.0000 -21.7842 0.0000
# 6 0.0000 0.0000 0.0000 0.0000 0.0000 159.1512
#
#
#
# Elastic Compliance Matrix: (Units=1/GPa)
#
#
# Indices 1 2 3 4 5 6 
#
# 1 0.019070 -0.011146 -0.004470 0.000000 0.000000 0.000000
# 2 -0.011146 0.045810 -0.004431 0.000000 0.000000 0.000000
# 3 -0.004470 -0.004431 0.008026 0.000000 0.000000 0.000000
# 4 0.000000 0.000000 0.000000 0.095909 0.000000 0.000000
# 5 0.000000 0.000000 0.000000 0.000000 -0.045905 0.000000
# 6 0.000000 0.000000 0.000000 0.000000 0.000000 0.006283
#
#
# Mechanical properties :
#
#
# Convention : Reuss Voigt Hill
#
# Bulk Modulus (GPa) = 30.47854 57.75369 44.11611
# Shear Modulus (GPa) = 27.74325 40.96428 34.35377
#
# Velocity S-wave (km/s) = 4.00719 4.86927 4.45911
# Velocity P-wave (km/s) = 6.24906 8.06476 7.21426
#
# Compressibility (1/GPa) = 0.03280997
#
# Stress axis : x y z
#
# Youngs Moduli (GPa) = 52.43959 21.82940 124.60147
#
# Poissons Ratio (x) = 0.24332 0.55702
# Poissons Ratio (y) = 0.58451 0.55207
# Poissons Ratio (z) = 0.23443 0.09672
#
# Static dielectric constant tensor:
#      x y z
#    x 1.581220 0.000000 0.000000 
#    y 0.000000 1.571890 0.000000 
#    z 0.000000 0.000000 1.620200 
# 
# From -- ./inp_files/14654.got.cif
#   From: 2010.05.17/outbox.cif.g08.bks.cpg/sg71_8_cif.got.tgz:14654.got - 2010.06.03 16:22:01.
