data_PCOD9517787
_publ_section_title
;
Structure prediction by ZEFSAII (Michael W. Deem and Ramdas Pophale) SiO2 
 PCOD9517787
Probable space group: I M M M
;
_chemical_formula_sum "Si O2"
_cell_formula_units_Z 96
_cell_length_a 7.511358
_cell_length_b 20.694074
_cell_length_c 30.924489
_cell_angle_alpha 90.000000
_cell_angle_beta 90.000000
_cell_angle_gamma 90.000000
_cell_volume 4806.921072
_symmetry_space_group_name_H-M "I M M M"
_symmetry_group_IT_number 71
_symmetry_cell_setting 'orthorhombic'
loop_
_space_group_symop_operation_xyz
x,y,z
-x,-y,z
x,-y,-z
-x,y,-z
-x,-y,-z
x,y,-z
-x,y,z
x,-y,z
1/2+x,1/2+y,1/2+z
1/2-x,1/2-y,1/2+z
1/2+x,1/2-y,1/2-z
1/2-x,1/2+y,1/2-z
1/2-x,1/2-y,1/2-z
1/2+x,1/2+y,1/2-z
1/2-x,1/2+y,1/2+z
1/2+x,1/2-y,1/2+z
loop_
_atom_site_type_symbol
_atom_site_label
_atom_site_fract_x
_atom_site_fract_y
_atom_site_fract_z
Si Si1 0.784955 0.928627 0.834709
Si Si2 0.285957 0.569317 0.949376
Si Si3 0.210395 0.710892 0.951166
Si Si4 0.713566 0.790717 0.706654
Si Si5 0.218622 0.204359 0.126255
Si Si6 0.211072 0.428623 0.232883
O O1 0.723316 0.868261 0.862965
O O2 0.733753 0.919612 0.784520
O O3 0.000000 0.928657 0.835876
O O4 0.722921 0.000000 0.848213
O O5 0.500000 0.568763 0.948771
O O6 0.224743 0.500000 0.930756
O O7 0.229900 0.638604 0.931606
O O8 0.229353 0.569907 0.000000
O O9 0.280881 0.764411 0.918476
O O10 0.000000 0.721943 0.954922
O O11 0.285913 0.711713 0.000000
O O12 0.500000 0.795242 0.702959
O O13 0.750000 0.750000 0.750000
O O14 0.777050 0.750593 0.665468
O O15 0.784120 0.863877 0.710816
O O16 0.000000 0.204323 0.126066
O O17 0.284576 0.500000 0.221777
O O18 0.000000 0.430791 0.224114
#
# Coordination Sequence:
#
# PCOD9517787 Si02
#       6
#    16  16  16  16  16  16
#     4   9  16  27  45  65  85 113 146 177 212 259
#     4   8  14  26  44  64  86 112 142 180 225 266
#     4   9  17  29  45  64  87 117 152 189 225 260
#     4  10  18  29  45  64  89 117 144 178 218 262
#     4   9  17  29  44  65  91 115 145 184 223 261
#     4   9  17  28  42  62  88 115 143 176 213 254
#
# _framework density 19.971202999999999
#
# number of rings (size 3 to 8) (size 9 to 14) (size 15 to 20)
#    0.000    3.000    1.667    0.500    0.000    0.333 
#    0.000    4.167    0.000    3.500    0.000    5.833 
#    0.000    0.000    0.000    8.333    0.000    8.667 
#
# Total GULP energy -267529.681726 kJ/mol
# GULP energy per Si atom -5573.535036 kJ/mol
# Density = 1.992575 g / cm^3
# Si number density = 19.971203 Si / 1000 Ang^3
#
#
#
# Elastic Constant Matrix: (Units=GPa)
#
#
# Indices 1 2 3 4 5 6 
#
# 1 53.4098 8.0111 2.4095 0.0000 0.0000 0.0000
# 2 8.0111 210.1619 66.9998 0.0000 0.0000 0.0000
# 3 2.4095 66.9998 63.3938 0.0000 0.0000 0.0000
# 4 0.0000 0.0000 0.0000 25.5900 0.0000 0.0000
# 5 0.0000 0.0000 0.0000 0.0000 8.5304 0.0000
# 6 0.0000 0.0000 0.0000 0.0000 0.0000 -752.6608
#
#
#
# Elastic Compliance Matrix: (Units=1/GPa)
#
#
# Indices 1 2 3 4 5 6 
#
# 1 0.018831 -0.000738 0.000065 0.000000 0.000000 0.000000
# 2 -0.000738 0.007205 -0.007587 0.000000 0.000000 0.000000
# 3 0.000065 -0.007587 0.023790 0.000000 0.000000 0.000000
# 4 0.000000 0.000000 0.000000 0.039078 0.000000 0.000000
# 5 0.000000 0.000000 0.000000 0.000000 0.117227 0.000000
# 6 0.000000 0.000000 0.000000 0.000000 0.000000 -0.001329
#
#
# Mechanical properties :
#
#
# Convention : Reuss Voigt Hill
#
# Bulk Modulus (GPa) = 30.02532 53.53405 41.77968
# Shear Modulus (GPa) = 21.51224 -127.07173 -52.77975
#
# Velocity S-wave (km/s) = 3.28558 -7.98534 -5.14639
# Velocity P-wave (km/s) = 5.42773 7.62607 3.78792
#
# Compressibility (1/GPa) = 0.03330522
#
# Stress axis : x y z
#
# Youngs Moduli (GPa) = 53.10398 138.79106 42.03385
#
# Poissons Ratio (x) = 0.10249 -0.00272
# Poissons Ratio (y) = 0.03921 0.31890
# Poissons Ratio (z) = -0.00344 1.05299
#
# Static dielectric constant tensor:
#      x y z
#    x 1.720240 0.000000 0.000000 
#    y 0.000000 1.748470 0.000000 
#    z 0.000000 0.000000 1.687790 
# 
# From -- ./inp_files/50787.got.cif
#   From: 2010.05.17/outbox.cif.g08.bks.cpg/sg71_26_cif.got.tgz:50787.got - 2010.06.03 16:22:01.
