data_PCOD9517209
_publ_section_title
;
Structure prediction by ZEFSAII (Michael W. Deem and Ramdas Pophale) SiO2 
 PCOD9517209
Probable space group: I M M M
;
_chemical_formula_sum "Si O2"
_cell_formula_units_Z 120
_cell_length_a 20.663891
_cell_length_b 26.375822
_cell_length_c 14.284095
_cell_angle_alpha 90.000000
_cell_angle_beta 90.000000
_cell_angle_gamma 90.000000
_cell_volume 7785.219029
_symmetry_space_group_name_H-M "I M M M"
_symmetry_group_IT_number 71
_symmetry_cell_setting 'orthorhombic'
loop_
_space_group_symop_operation_xyz
x,y,z
-x,-y,z
x,-y,-z
-x,y,-z
-x,-y,-z
x,y,-z
-x,y,z
x,-y,z
1/2+x,1/2+y,1/2+z
1/2-x,1/2-y,1/2+z
1/2+x,1/2-y,1/2-z
1/2-x,1/2+y,1/2-z
1/2-x,1/2-y,1/2-z
1/2+x,1/2+y,1/2-z
1/2-x,1/2+y,1/2+z
1/2+x,1/2-y,1/2+z
loop_
_atom_site_type_symbol
_atom_site_label
_atom_site_fract_x
_atom_site_fract_y
_atom_site_fract_z
Si Si1 0.835860 0.861334 0.611232
Si Si2 0.120615 0.256317 0.395763
Si Si3 0.739694 0.269500 0.644358
Si Si4 0.078553 0.000000 0.892548
Si Si5 0.071969 0.702377 0.203165
Si Si6 0.808322 0.339504 0.895768
Si Si7 0.105519 0.809435 0.110341
Si Si8 0.574149 0.595252 0.733651
O O1 0.840991 0.872178 0.500000
O O2 0.861395 0.803002 0.622904
O O3 0.759341 0.864540 0.636653
O O4 0.879693 0.895467 0.677825
O O5 0.092325 0.259915 0.500000
O O6 0.190520 0.283821 0.393339
O O7 0.081094 0.279336 0.310192
O O8 0.750000 0.250000 0.750000
O O9 0.713849 0.219078 0.594821
O O10 0.682525 0.309295 0.633314
O O11 0.096696 0.049688 0.833478
O O12 0.000000 0.000000 0.897324
O O13 0.102105 0.000000 0.000000
O O14 0.129577 0.664670 0.171327
O O15 0.080511 0.754320 0.143330
O O16 0.000000 0.682039 0.188259
O O17 0.825448 0.641797 0.000000
O O18 0.075028 0.853783 0.171316
O O19 0.094822 0.815983 0.000000
O O20 0.500000 0.585354 0.763512
#
# Coordination Sequence:
#
# PCOD9517209 Si02
#       8
#    16  16  16   8  16  16  16  16
#     4   9  18  32  49  66  85 112 147 186 225 264
#     4  10  18  28  41  57  83 117 150 185 227 267
#     4  10  14  26  42  57  80 107 141 184 223 258
#     4   9  20  38  53  65  89 121 143 168 222 288
#     4  11  20  28  39  60  88 120 155 190 222 253
#     4   9  17  29  43  59  84 117 146 179 224 265
#     4  11  20  28  42  63  84 107 145 193 228 253
#     4  11  21  33  49  68  87 112 145 182 223 268
#
# _framework density 15.413824999999999
#
# number of rings (size 3 to 8) (size 9 to 14) (size 15 to 20)
#    0.000    1.933    4.000    4.800    0.000    2.933 
#    0.000    1.667    0.000    1.200    0.000    0.000 
#    0.000    0.000    0.000    0.600    0.000    5.467 
#
# Total GULP energy -334207.949387 kJ/mol
# GULP energy per Si atom -5570.132490 kJ/mol
# Density = 1.537874 g / cm^3
# Si number density = 15.413825 Si / 1000 Ang^3
#
#
#
# Elastic Constant Matrix: (Units=GPa)
#
#
# Indices 1 2 3 4 5 6 
#
# 1 93.5647 21.5219 46.1926 0.0000 0.0000 0.0000
# 2 21.5219 26.9264 17.0349 0.0000 0.0000 0.0000
# 3 46.1926 17.0349 114.5009 0.0000 0.0000 0.0000
# 4 0.0000 0.0000 0.0000 14.6424 0.0000 0.0000
# 5 0.0000 0.0000 0.0000 0.0000 6.3866 0.0000
# 6 0.0000 0.0000 0.0000 0.0000 0.0000 9.1961
#
#
#
# Elastic Compliance Matrix: (Units=1/GPa)
#
#
# Indices 1 2 3 4 5 6 
#
# 1 0.015121 -0.009082 -0.004749 0.000000 0.000000 0.000000
# 2 -0.009082 0.046451 -0.003247 0.000000 0.000000 0.000000
# 3 -0.004749 -0.003247 0.011133 0.000000 0.000000 0.000000
# 4 0.000000 0.000000 0.000000 0.068295 0.000000 0.000000
# 5 0.000000 0.000000 0.000000 0.000000 0.156577 0.000000
# 6 0.000000 0.000000 0.000000 0.000000 0.000000 0.108741
#
#
# Mechanical properties :
#
#
# Convention : Reuss Voigt Hill
#
# Bulk Modulus (GPa) = 25.94075 44.94344 35.44209
# Shear Modulus (GPa) = 11.02962 16.06121 13.54541
#
# Velocity S-wave (km/s) = 2.67791 3.23150 2.96764
# Velocity P-wave (km/s) = 5.14079 6.56846 5.89798
#
# Compressibility (1/GPa) = 0.03854939
#
# Stress axis : x y z
#
# Youngs Moduli (GPa) = 66.13105 21.52790 89.82629
#
# Poissons Ratio (x) = 0.19551 0.42661
# Poissons Ratio (y) = 0.60059 0.29167
# Poissons Ratio (z) = 0.31407 0.06990
#
# Static dielectric constant tensor:
#      x y z
#    x 1.563650 0.000000 0.000000 
#    y 0.000000 1.480610 0.000000 
#    z 0.000000 0.000000 1.573360 
# 
# From -- ./inp_files/38573.got.cif
#   From: 2010.05.17/outbox.cif.g08.bks.cpg/sg71_20_cif.got.tgz:38573.got - 2010.06.03 16:22:01.
