data_PCOD9517106
_publ_section_title
;
Structure prediction by ZEFSAII (Michael W. Deem and Ramdas Pophale) SiO2 
 PCOD9517106
Probable space group: F D D D
;
_chemical_formula_sum "Si O2"
_cell_formula_units_Z 88
_cell_length_a 32.981332
_cell_length_b 4.789006
_cell_length_c 22.510567
_cell_angle_alpha 90.000000
_cell_angle_beta 90.000000
_cell_angle_gamma 90.000000
_cell_volume 3555.494463
_symmetry_space_group_name_H-M "F D D D"
_symmetry_group_IT_number 70
_space_group.IT_coordinate_system_code '2'
_symmetry_cell_setting 'orthorhombic'
loop_
_space_group_symop_operation_xyz
x,y,z
1/4-x,1/4-y,z
x,1/4-y,1/4-z
1/4-x,y,1/4-z
-x,-y,-z
3/4+x,3/4+y,-z
-x,3/4+y,3/4+z
3/4+x,-y,3/4+z
x,1/2+y,1/2+z
1/4-x,3/4-y,1/2+z
x,3/4-y,3/4-z
1/4-x,1/2+y,3/4-z
-x,1/2-y,1/2-z
3/4+x,1/4+y,1/2-z
-x,1/4+y,1/4+z
3/4+x,1/2-y,1/4+z
1/2+x,y,1/2+z
3/4-x,1/4-y,1/2+z
1/2+x,1/4-y,3/4-z
3/4-x,y,3/4-z
1/2-x,-y,1/2-z
1/4+x,3/4+y,1/2-z
1/2-x,3/4+y,1/4+z
1/4+x,-y,1/4+z
1/2+x,1/2+y,z
3/4-x,3/4-y,z
1/2+x,3/4-y,1/4-z
3/4-x,1/2+y,1/4-z
1/2-x,1/2-y,-z
1/4+x,1/4+y,-z
1/2-x,1/4+y,3/4+z
1/4+x,1/2-y,3/4+z
loop_
_atom_site_type_symbol
_atom_site_label
_atom_site_fract_x
_atom_site_fract_y
_atom_site_fract_z
Si Si1 0.845221 0.625000 0.125000
Si Si2 0.546957 0.566858 0.989538
Si Si3 0.563996 0.065522 0.064145
Si Si4 0.625000 0.125000 0.625000
O O1 0.875000 0.375000 0.103436
O O2 0.816772 0.498740 0.176425
O O3 0.500000 0.500000 0.000000
O O4 0.548568 0.887740 0.008690
O O5 0.571290 0.365590 0.035234
O O6 0.597708 0.853155 0.089346
O O7 0.538527 0.125000 0.125000
#
# Coordination Sequence:
#
# PCOD9517106 Si02
#       4
#    16  32  32   8
#     4  12  30  49  80 120 161 216 269 340 414 492
#     4  12  29  51  79 110 165 214 272 326 410 499
#     4  12  26  45  79 113 154 197 266 331 401 470
#     4  12  26  42  78 120 154 192 254 336 408 468
#
# _framework density 24.750425
#
# number of rings (size 3 to 8) (size 9 to 14) (size 15 to 20)
#    0.000    0.000    3.636    3.818   12.727    0.000 
#    0.000    0.000    0.000    0.000    0.000    0.000 
#    0.000    0.000    0.000    0.000    0.000    0.000 
#
# Total GULP energy -122755.041738 kJ/mol
# GULP energy per Si atom -5579.774624 kJ/mol
# Density = 2.469409 g / cm^3
# Si number density = 24.750425 Si / 1000 Ang^3
#
#
#
# Elastic Constant Matrix: (Units=GPa)
#
#
# Indices 1 2 3 4 5 6 
#
# 1 116.5009 24.6970 32.6956 -0.0003 0.0037 0.0036
# 2 24.6970 174.1057 29.1813 0.0213 0.0323 -0.0032
# 3 32.6956 29.1813 163.0472 0.0085 0.0149 0.0001
# 4 -0.0003 0.0213 0.0085 51.7489 0.0293 -0.0053
# 5 0.0037 0.0323 0.0149 0.0293 4.1693 -0.0061
# 6 0.0036 -0.0032 0.0001 -0.0053 -0.0061 24.7918
#
#
#
# Elastic Compliance Matrix: (Units=1/GPa)
#
#
# Indices 1 2 3 4 5 6 
#
# 1 0.009273 -0.001035 -0.001674 0.000001 0.000006 -0.000001
# 2 -0.001035 0.006037 -0.000873 -0.000002 -0.000043 0.000001
# 3 -0.001674 -0.000873 0.006625 -0.000001 -0.000015 0.000000
# 4 0.000001 -0.000002 -0.000001 0.019324 -0.000136 0.000004
# 5 0.000006 -0.000043 -0.000015 -0.000136 0.239852 0.000059
# 6 -0.000001 0.000001 0.000000 0.000004 0.000059 0.040336
#
#
# Mechanical properties :
#
#
# Convention : Reuss Voigt Hill
#
# Bulk Modulus (GPa) = 67.70081 69.64462 68.67271
# Shear Modulus (GPa) = 14.99097 40.61400 27.80248
#
# Velocity S-wave (km/s) = 2.46374 4.05525 3.35522
# Velocity P-wave (km/s) = 5.95870 7.08001 6.54342
#
# Compressibility (1/GPa) = 0.01477087
#
# Stress axis : x y z
#
# Youngs Moduli (GPa) = 107.84161 165.65255 150.93955
#
# Poissons Ratio (x) = 0.17141 0.25272
# Poissons Ratio (y) = 0.11159 0.13176
# Poissons Ratio (z) = 0.18056 0.14460
#
# Static dielectric constant tensor:
#      x y z
#    x 2.076830 -0.000020 -0.000080 
#    y -0.000020 1.874460 0.000250 
#    z -0.000080 0.000250 2.098500 
# 
# From -- ./inp_files/61980.got.cif
#   From: 2010.05.17/outbox.cif.g08.bks.cpg/sg70_31_cif.got.tgz:61980.got - 2010.06.03 15:57:51.
