data_PCOD9517939
_publ_section_title
;
Structure prediction by ZEFSAII (Michael W. Deem and Ramdas Pophale) SiO2 
 PCOD9517939
Probable space group: I M M M
;
_chemical_formula_sum "Si O2"
_cell_formula_units_Z 72
_cell_length_a 9.260845
_cell_length_b 23.043803
_cell_length_c 23.264945
_cell_angle_alpha 90.000000
_cell_angle_beta 90.000000
_cell_angle_gamma 90.000000
_cell_volume 4964.857630
_symmetry_space_group_name_H-M "I M M M"
_symmetry_group_IT_number 71
_symmetry_cell_setting 'orthorhombic'
loop_
_space_group_symop_operation_xyz
x,y,z
-x,-y,z
x,-y,-z
-x,y,-z
-x,-y,-z
x,y,-z
-x,y,z
x,-y,z
1/2+x,1/2+y,1/2+z
1/2-x,1/2-y,1/2+z
1/2+x,1/2-y,1/2-z
1/2-x,1/2+y,1/2-z
1/2-x,1/2-y,1/2-z
1/2+x,1/2+y,1/2-z
1/2-x,1/2+y,1/2+z
1/2+x,1/2-y,1/2+z
loop_
_atom_site_type_symbol
_atom_site_label
_atom_site_fract_x
_atom_site_fract_y
_atom_site_fract_z
Si Si1 0.833379 0.832713 0.712256
Si Si2 0.669501 0.430688 0.000000
Si Si3 0.666115 0.195951 0.823055
Si Si4 0.170599 0.226787 0.934445
Si Si5 0.670773 0.862191 0.599450
O O1 0.500000 0.648446 0.786426
O O2 0.757520 0.836423 0.774104
O O3 0.833007 0.764166 0.695286
O O4 0.742701 0.863618 0.662259
O O5 0.747782 0.403902 0.055492
O O6 0.680778 0.500000 0.000000
O O7 0.500000 0.414600 0.000000
O O8 0.500000 0.176968 0.823912
O O9 0.739165 0.194501 0.885486
O O10 0.187502 0.296024 0.923773
O O11 0.000000 0.214449 0.927495
O O12 0.213114 0.213735 0.000000
O O13 0.500000 0.874430 0.601738
#
# Coordination Sequence:
#
# PCOD9517939 Si02
#       5
#    16   8  16  16  16
#     4   9  16  26  39  55  74  97 122 155 195 234
#     4  11  23  35  45  59  79 101 129 167 209 251
#     4   9  16  24  35  54  75  98 126 158 190 225
#     4   9  16  26  38  54  76 102 130 161 197 235
#     4  10  18  30  45  59  73  95 127 164 202 241
#
# _framework density 14.501927
#
# number of rings (size 3 to 8) (size 9 to 14) (size 15 to 20)
#    0.000    2.556    1.111    2.333    0.000    7.556 
#    0.000    0.000    0.000    0.000    0.000    0.000 
#    0.000    0.000    0.000    0.000    0.000    1.111 
#
# Total GULP energy -200608.428497 kJ/mol
# GULP energy per Si atom -5572.456347 kJ/mol
# Density = 1.446892 g / cm^3
# Si number density = 14.501927 Si / 1000 Ang^3
#
#
#
# Elastic Constant Matrix: (Units=GPa)
#
#
# Indices 1 2 3 4 5 6 
#
# 1 136.0113 30.0492 97.0659 0.0000 0.0000 0.0000
# 2 30.0492 18.2178 23.9044 0.0000 0.0000 0.0000
# 3 97.0659 23.9044 160.1505 0.0000 0.0000 0.0000
# 4 0.0000 0.0000 0.0000 4.5273 0.0000 0.0000
# 5 0.0000 0.0000 0.0000 0.0000 31.5054 0.0000
# 6 0.0000 0.0000 0.0000 0.0000 0.0000 11.4003
#
#
#
# Elastic Compliance Matrix: (Units=1/GPa)
#
#
# Indices 1 2 3 4 5 6 
#
# 1 0.016488 -0.017513 -0.007379 0.000000 0.000000 0.000000
# 2 -0.017513 0.086863 -0.002351 0.000000 0.000000 0.000000
# 3 -0.007379 -0.002351 0.011067 0.000000 0.000000 0.000000
# 4 0.000000 0.000000 0.000000 0.220880 0.000000 0.000000
# 5 0.000000 0.000000 0.000000 0.000000 0.031741 0.000000
# 6 0.000000 0.000000 0.000000 0.000000 0.000000 0.087717
#
#
# Mechanical properties :
#
#
# Convention : Reuss Voigt Hill
#
# Bulk Modulus (GPa) = 16.68559 68.49097 42.58828
# Shear Modulus (GPa) = 9.44791 20.37730 14.91261
#
# Velocity S-wave (km/s) = 2.55521 3.75259 3.21022
# Velocity P-wave (km/s) = 4.49847 8.13064 6.57052
#
# Compressibility (1/GPa) = 0.05993194
#
# Stress axis : x y z
#
# Youngs Moduli (GPa) = 60.65168 11.51244 90.35600
#
# Poissons Ratio (x) = 0.20162 0.66673
# Poissons Ratio (y) = 1.06220 0.21241
# Poissons Ratio (z) = 0.44755 0.02706
#
# Static dielectric constant tensor:
#      x y z
#    x 1.484860 0.000000 0.000000 
#    y 0.000000 1.435140 0.000000 
#    z 0.000000 0.000000 1.480560 
# 
# From -- ./inp_files/12698.got.cif
#   From: 2010.05.17/outbox.cif.g08.bks.cpg/sg71_7_cif.got.tgz:12698.got - 2010.06.03 16:22:01.
