data_PCOD9517073
_publ_section_title
;
Structure prediction by ZEFSAII (Michael W. Deem and Ramdas Pophale) SiO2 
 PCOD9517073
Probable space group: F D D D
;
_chemical_formula_sum "Si O2"
_cell_formula_units_Z 160
_cell_length_a 28.474836
_cell_length_b 11.043957
_cell_length_c 22.922946
_cell_angle_alpha 90.000000
_cell_angle_beta 90.000000
_cell_angle_gamma 90.000000
_cell_volume 7208.690334
_symmetry_space_group_name_H-M "F D D D"
_symmetry_group_IT_number 70
_space_group.IT_coordinate_system_code '2'
_symmetry_cell_setting 'orthorhombic'
loop_
_space_group_symop_operation_xyz
x,y,z
1/4-x,1/4-y,z
x,1/4-y,1/4-z
1/4-x,y,1/4-z
-x,-y,-z
3/4+x,3/4+y,-z
-x,3/4+y,3/4+z
3/4+x,-y,3/4+z
x,1/2+y,1/2+z
1/4-x,3/4-y,1/2+z
x,3/4-y,3/4-z
1/4-x,1/2+y,3/4-z
-x,1/2-y,1/2-z
3/4+x,1/4+y,1/2-z
-x,1/4+y,1/4+z
3/4+x,1/2-y,1/4+z
1/2+x,y,1/2+z
3/4-x,1/4-y,1/2+z
1/2+x,1/4-y,3/4-z
3/4-x,y,3/4-z
1/2-x,-y,1/2-z
1/4+x,3/4+y,1/2-z
1/2-x,3/4+y,1/4+z
1/4+x,-y,1/4+z
1/2+x,1/2+y,z
3/4-x,3/4-y,z
1/2+x,3/4-y,1/4-z
3/4-x,1/2+y,1/4-z
1/2-x,1/2-y,-z
1/4+x,1/4+y,-z
1/2-x,1/4+y,3/4+z
1/4+x,1/2-y,3/4+z
loop_
_atom_site_type_symbol
_atom_site_label
_atom_site_fract_x
_atom_site_fract_y
_atom_site_fract_z
Si Si1 0.625000 0.125000 0.704549
Si Si2 0.664479 0.875000 0.875000
Si Si3 0.153909 0.742789 0.965630
Si Si4 0.082446 0.867862 0.585019
Si Si5 0.987119 0.268176 0.625151
Si Si6 0.792968 0.945856 0.713922
O O1 0.656687 0.225055 0.672004
O O2 0.588460 0.195953 0.745287
O O3 0.630703 0.813684 0.827760
O O4 0.696076 0.778114 0.908110
O O5 0.125000 0.625000 0.984833
O O6 0.199431 0.711106 0.926744
O O7 0.166744 0.821200 0.021656
O O8 0.125000 0.916069 0.625000
O O9 0.033399 0.902507 0.614145
O O10 0.966239 0.313067 0.563248
O O11 0.997779 0.125000 0.625000
O O12 0.750000 0.000000 0.750000
#
# Coordination Sequence:
#
# PCOD9517073 Si02
#       6
#    16  16  32  32  32  32
#     4  12  25  52  74 104 154 194 257 310 386 456
#     4  12  24  48  74 113 149 200 260 310 380 462
#     4  12  25  47  78 106 152 204 255 314 382 467
#     4  12  29  48  74 109 151 201 247 324 389 454
#     4  12  27  47  76 111 153 197 256 313 387 465
#     4  12  27  46  79 110 149 199 258 318 382 462
#
# _framework density 22.195432
#
# number of rings (size 3 to 8) (size 9 to 14) (size 15 to 20)
#    0.000    0.000    5.000    4.500    5.600    0.000 
#    0.000    0.000    0.000    0.000    0.000    0.000 
#    0.000    0.000    0.000    0.000    0.000    0.000 
#
# Total GULP energy -224057.704849 kJ/mol
# GULP energy per Si atom -5601.442621 kJ/mol
# Density = 2.214491 g / cm^3
# Si number density = 22.195432 Si / 1000 Ang^3
#
#
#
# Elastic Constant Matrix: (Units=GPa)
#
#
# Indices 1 2 3 4 5 6 
#
# 1 130.1597 24.9541 22.0745 0.0000 0.0000 0.0000
# 2 24.9541 89.5478 -4.4789 0.0000 0.0000 0.0000
# 3 22.0745 -4.4789 61.7138 0.0000 0.0000 0.0000
# 4 0.0000 0.0000 0.0000 50.0559 0.0000 0.0000
# 5 0.0000 0.0000 0.0000 0.0000 3.8070 0.0000
# 6 0.0000 0.0000 0.0000 0.0000 0.0000 30.8581
#
#
#
# Elastic Compliance Matrix: (Units=1/GPa)
#
#
# Indices 1 2 3 4 5 6 
#
# 1 0.008744 -0.002603 -0.003317 0.000000 0.000000 0.000000
# 2 -0.002603 0.011983 0.001801 0.000000 0.000000 0.000000
# 3 -0.003317 0.001801 0.017521 0.000000 0.000000 0.000000
# 4 0.000000 0.000000 0.000000 0.019978 0.000000 0.000000
# 5 0.000000 0.000000 0.000000 0.000000 0.262675 0.000000
# 6 0.000000 0.000000 0.000000 0.000000 0.000000 0.032406
#
#
# Mechanical properties :
#
#
# Convention : Reuss Voigt Hill
#
# Bulk Modulus (GPa) = 33.32190 40.72451 37.02320
# Shear Modulus (GPa) = 13.45721 32.86896 23.16308
#
# Velocity S-wave (km/s) = 2.46500 3.85241 3.23398
# Velocity P-wave (km/s) = 4.81115 6.17867 5.53729
#
# Compressibility (1/GPa) = 0.03001029
#
# Stress axis : x y z
#
# Youngs Moduli (GPa) = 114.35970 83.45468 57.07482
#
# Poissons Ratio (x) = 0.21720 0.18930
# Poissons Ratio (y) = 0.29764 -0.10277
# Poissons Ratio (z) = 0.37929 -0.15027
#
# Static dielectric constant tensor:
#      x y z
#    x 1.767170 0.000000 0.000000 
#    y 0.000000 1.843330 0.000000 
#    z 0.000000 0.000000 1.817030 
# 
# From -- ./inp_files/54898.got.cif
#   From: 2010.05.17/outbox.cif.g08.bks.cpg/sg70_28_cif.got.tgz:54898.got - 2010.06.03 15:57:51.
