data_PCOD9517711
_publ_section_title
;
Structure prediction by ZEFSAII (Michael W. Deem and Ramdas Pophale) SiO2 
 PCOD9517711
Probable space group: I M M M
;
_chemical_formula_sum "Si O2"
_cell_formula_units_Z 72
_cell_length_a 13.348122
_cell_length_b 32.338763
_cell_length_c 7.269567
_cell_angle_alpha 90.000000
_cell_angle_beta 90.000000
_cell_angle_gamma 90.000000
_cell_volume 3137.994041
_symmetry_space_group_name_H-M "I M M M"
_symmetry_group_IT_number 71
_symmetry_cell_setting 'orthorhombic'
loop_
_space_group_symop_operation_xyz
x,y,z
-x,-y,z
x,-y,-z
-x,y,-z
-x,-y,-z
x,y,-z
-x,y,z
x,-y,z
1/2+x,1/2+y,1/2+z
1/2-x,1/2-y,1/2+z
1/2+x,1/2-y,1/2-z
1/2-x,1/2+y,1/2-z
1/2-x,1/2-y,1/2-z
1/2+x,1/2+y,1/2-z
1/2-x,1/2+y,1/2+z
1/2+x,1/2-y,1/2+z
loop_
_atom_site_type_symbol
_atom_site_label
_atom_site_fract_x
_atom_site_fract_y
_atom_site_fract_z
Si Si1 0.000000 0.048247 0.724030
Si Si2 0.118753 0.183915 0.779176
Si Si3 0.380154 0.773314 0.278995
Si Si4 0.615576 0.134996 0.725213
Si Si5 0.195660 0.905611 0.293882
O O1 0.102324 0.069923 0.790396
O O2 0.000000 0.053147 0.500000
O O3 0.000000 0.000000 0.767049
O O4 0.158819 0.228631 0.712537
O O5 0.161025 0.142149 0.696861
O O6 0.000000 0.183672 0.742222
O O7 0.130684 0.181915 0.000000
O O8 0.370631 0.772923 0.500000
O O9 0.500000 0.772635 0.241858
O O10 0.349647 0.818891 0.213142
O O11 0.617664 0.135416 0.500000
O O12 0.500000 0.128930 0.778326
O O13 0.693673 0.100160 0.788288
O O14 0.208669 0.922652 0.500000
#
# Coordination Sequence:
#
# PCOD9517711 Si02
#       5
#     8  16  16  16  16
#     4   9  18  32  47  65  91 117 139 171 229 291
#     4   9  16  26  41  61  88 119 147 175 212 258
#     4   7  11  21  36  55  82 117 148 171 205 254
#     4   8  14  25  41  62  87 114 148 183 210 245
#     4  10  18  28  46  67  84 109 146 184 218 256
#
# _framework density 22.944596000000001
#
# number of rings (size 3 to 8) (size 9 to 14) (size 15 to 20)
#    0.000    3.444    1.111    2.667    0.000    0.889 
#    0.000    0.000    0.000    2.667    0.000    4.667 
#    0.000    0.000    0.000    2.000    0.000    2.222 
#
# Total GULP energy -200874.190274 kJ/mol
# GULP energy per Si atom -5579.838619 kJ/mol
# Density = 2.289237 g / cm^3
# Si number density = 22.944596 Si / 1000 Ang^3
#
#
#
# Elastic Constant Matrix: (Units=GPa)
#
#
# Indices 1 2 3 4 5 6 
#
# 1 150.2875 77.7155 6.6593 0.0004 0.0026 0.0005
# 2 77.7155 99.4505 0.2740 0.0044 0.0015 0.0003
# 3 6.6593 0.2740 96.4327 -0.0105 0.0165 0.0015
# 4 0.0004 0.0044 -0.0105 5.4605 0.0033 0.0011
# 5 0.0026 0.0015 0.0165 0.0033 -3.4951 -0.0012
# 6 0.0005 0.0003 0.0015 0.0011 -0.0012 26.2055
#
#
#
# Elastic Compliance Matrix: (Units=1/GPa)
#
#
# Indices 1 2 3 4 5 6 
#
# 1 0.011220 -0.008766 -0.000750 0.000005 0.000001 0.000000
# 2 -0.008766 0.016904 0.000557 -0.000012 0.000003 0.000000
# 3 -0.000750 0.000557 0.010420 0.000020 0.000049 -0.000001
# 4 0.000005 -0.000012 0.000020 0.183133 0.000175 -0.000008
# 5 0.000001 0.000003 0.000049 0.000175 -0.286117 -0.000013
# 6 0.000000 0.000000 -0.000001 -0.000008 -0.000013 0.038160
#
#
# Mechanical properties :
#
#
# Convention : Reuss Voigt Hill
#
# Bulk Modulus (GPa) = 48.47999 57.27425 52.87712
# Shear Modulus (GPa) = -3362.74015 23.06898 -1669.83558
#
# Velocity S-wave (km/s) = -38.32457 3.17428 -27.00645
# Velocity P-wave (km/s) = 44.01351 6.20088 30.81183
#
# Compressibility (1/GPa) = 0.02062707
#
# Stress axis : x y z
#
# Youngs Moduli (GPa) = 89.12602 59.15836 95.96816
#
# Poissons Ratio (x) = 0.51857 0.07197
# Poissons Ratio (y) = 0.78126 -0.05348
# Poissons Ratio (z) = 0.06684 -0.03297
#
# Static dielectric constant tensor:
#      x y z
#    x 1.963140 0.000000 0.000000 
#    y 0.000000 1.797740 0.000000 
#    z 0.000000 0.000000 1.854280 
# 
# From -- ./inp_files/19848.got.cif
#   From: 2010.05.17/outbox.cif.g08.bks.cpg/sg71_10_cif.got.tgz:19848.got - 2010.06.03 16:22:01.
