data_PCOD9517034
_publ_section_title
;
Structure prediction by ZEFSAII (Michael W. Deem and Ramdas Pophale) SiO2 
 PCOD9517034
Probable space group: F D D D
;
_chemical_formula_sum "Si O2"
_cell_formula_units_Z 176
_cell_length_a 25.376898
_cell_length_b 29.443445
_cell_length_c 10.171390
_cell_angle_alpha 90.000000
_cell_angle_beta 90.000000
_cell_angle_gamma 90.000000
_cell_volume 7599.892751
_symmetry_space_group_name_H-M "F D D D"
_symmetry_group_IT_number 70
_space_group.IT_coordinate_system_code '2'
_symmetry_cell_setting 'orthorhombic'
loop_
_space_group_symop_operation_xyz
x,y,z
1/4-x,1/4-y,z
x,1/4-y,1/4-z
1/4-x,y,1/4-z
-x,-y,-z
3/4+x,3/4+y,-z
-x,3/4+y,3/4+z
3/4+x,-y,3/4+z
x,1/2+y,1/2+z
1/4-x,3/4-y,1/2+z
x,3/4-y,3/4-z
1/4-x,1/2+y,3/4-z
-x,1/2-y,1/2-z
3/4+x,1/4+y,1/2-z
-x,1/4+y,1/4+z
3/4+x,1/2-y,1/4+z
1/2+x,y,1/2+z
3/4-x,1/4-y,1/2+z
1/2+x,1/4-y,3/4-z
3/4-x,y,3/4-z
1/2-x,-y,1/2-z
1/4+x,3/4+y,1/2-z
1/2-x,3/4+y,1/4+z
1/4+x,-y,1/4+z
1/2+x,1/2+y,z
3/4-x,3/4-y,z
1/2+x,3/4-y,1/4-z
3/4-x,1/2+y,1/4-z
1/2-x,1/2-y,-z
1/4+x,1/4+y,-z
1/2-x,1/4+y,3/4+z
1/4+x,1/2-y,3/4+z
loop_
_atom_site_type_symbol
_atom_site_label
_atom_site_fract_x
_atom_site_fract_y
_atom_site_fract_z
Si Si1 0.563517 0.423745 0.928504
Si Si2 0.079352 0.590172 0.926300
Si Si3 0.531317 0.796376 0.040195
Si Si4 0.992289 0.125000 0.625000
Si Si5 0.910650 0.773527 0.618829
Si Si6 0.055756 0.695300 0.595397
O O1 0.581402 0.375000 0.875000
O O2 0.591361 0.469351 0.876766
O O3 0.502899 0.431403 0.886196
O O4 0.559124 0.430167 0.084919
O O5 0.125000 0.625000 0.958209
O O6 0.109642 0.543074 0.954164
O O7 0.068970 0.590068 0.769703
O O8 0.029070 0.604990 0.008492
O O9 0.467650 0.789445 0.061303
O O10 0.552501 0.745440 0.030150
O O11 0.539378 0.831695 0.924631
O O12 0.913277 0.795253 0.767824
#
# Coordination Sequence:
#
# PCOD9517034 Si02
#       6
#    32  32  32  16  32  32
#     4   9  17  34  59  82 106 140 190 236 278 326
#     4  12  23  34  54  85 116 150 177 231 289 346
#     4   9  19  36  54  79 115 148 185 228 279 331
#     4  12  23  36  56  80 122 156 184 216 284 360
#     4   9  19  34  53  82 114 141 179 236 291 330
#     4   9  20  35  55  83 109 141 187 242 276 329
#
# _framework density 23.158221000000001
#
# number of rings (size 3 to 8) (size 9 to 14) (size 15 to 20)
#    0.000    2.182    1.818    4.091    2.545    1.455 
#    0.000    0.000    2.000    0.000   14.182    0.000 
#    0.000    0.000    0.000    0.000    0.000    0.000 
#
# Total GULP energy -245751.869207 kJ/mol
# GULP energy per Si atom -5585.269755 kJ/mol
# Density = 2.310551 g / cm^3
# Si number density = 23.158221 Si / 1000 Ang^3
#
#
#
# Elastic Constant Matrix: (Units=GPa)
#
#
# Indices 1 2 3 4 5 6 
#
# 1 39.6788 9.2874 0.9756 0.0003 -0.0005 -0.0002
# 2 9.2874 145.7785 33.8659 0.0005 -0.0007 -0.0002
# 3 0.9756 33.8659 39.6541 0.0009 -0.0017 -0.0006
# 4 0.0003 0.0005 0.0009 41.0583 -0.0005 -0.0001
# 5 -0.0005 -0.0007 -0.0017 -0.0005 7.8883 0.0004
# 6 -0.0002 -0.0002 -0.0006 -0.0001 0.0004 15.3528
#
#
#
# Elastic Compliance Matrix: (Units=1/GPa)
#
#
# Indices 1 2 3 4 5 6 
#
# 1 0.025613 -0.001853 0.000952 0.000000 0.000002 0.000000
# 2 -0.001853 0.008692 -0.007377 0.000000 -0.000001 0.000000
# 3 0.000952 -0.007377 0.031495 -0.000001 0.000006 0.000001
# 4 0.000000 0.000000 -0.000001 0.024356 0.000001 0.000000
# 5 0.000002 -0.000001 0.000006 0.000001 0.126770 -0.000003
# 6 0.000000 0.000000 0.000001 0.000000 -0.000003 0.065135
#
#
# Mechanical properties :
#
#
# Convention : Reuss Voigt Hill
#
# Bulk Modulus (GPa) = 20.30725 34.81882 27.56303
# Shear Modulus (GPa) = 15.87148 24.92537 20.39843
#
# Velocity S-wave (km/s) = 2.62076 3.28427 2.97110
# Velocity P-wave (km/s) = 4.23625 5.42676 4.86804
#
# Compressibility (1/GPa) = 0.04924351
#
# Stress axis : x y z
#
# Youngs Moduli (GPa) = 39.04320 115.05347 31.75089
#
# Poissons Ratio (x) = 0.21320 -0.03024
# Poissons Ratio (y) = 0.07235 0.23424
# Poissons Ratio (z) = -0.03718 0.84879
#
# Static dielectric constant tensor:
#      x y z
#    x 1.932550 0.000000 0.000000 
#    y 0.000000 1.953880 0.000000 
#    z 0.000000 0.000000 1.898850 
# 
# From -- ./inp_files/22444.got.cif
#   From: 2010.05.17/outbox.cif.g08.bks.cpg/sg70_12_cif.got.tgz:22444.got - 2010.06.03 15:57:51.
