data_PCOD9517934
_publ_section_title
;
Structure prediction by ZEFSAII (Michael W. Deem and Ramdas Pophale) SiO2 
 PCOD9517934
Probable space group: I M M M
;
_chemical_formula_sum "Si O2"
_cell_formula_units_Z 88
_cell_length_a 24.303470
_cell_length_b 9.193129
_cell_length_c 31.476757
_cell_angle_alpha 90.000000
_cell_angle_beta 90.000000
_cell_angle_gamma 90.000000
_cell_volume 7032.692382
_symmetry_space_group_name_H-M "I M M M"
_symmetry_group_IT_number 71
_symmetry_cell_setting 'orthorhombic'
loop_
_space_group_symop_operation_xyz
x,y,z
-x,-y,z
x,-y,-z
-x,y,-z
-x,-y,-z
x,y,-z
-x,y,z
x,-y,z
1/2+x,1/2+y,1/2+z
1/2-x,1/2-y,1/2+z
1/2+x,1/2-y,1/2-z
1/2-x,1/2+y,1/2-z
1/2-x,1/2-y,1/2-z
1/2+x,1/2+y,1/2-z
1/2-x,1/2+y,1/2+z
1/2+x,1/2-y,1/2+z
loop_
_atom_site_type_symbol
_atom_site_label
_atom_site_fract_x
_atom_site_fract_y
_atom_site_fract_z
Si Si1 0.777674 0.673575 0.290703
Si Si2 0.500000 0.668560 0.262259
Si Si3 0.813147 0.325804 0.837393
Si Si4 0.602167 0.824953 0.407783
Si Si5 0.000000 0.169068 0.135795
Si Si6 0.386553 0.173017 0.254104
Si Si7 0.935716 0.676506 0.000000
O O1 0.769464 0.500000 0.289030
O O2 0.750000 0.750000 0.250000
O O3 0.743846 0.742558 0.329360
O O4 0.842374 0.701167 0.283399
O O5 0.500000 0.500000 0.249853
O O6 0.500000 0.677697 0.313496
O O7 0.556344 0.745170 0.248229
O O8 0.804404 0.500000 0.834206
O O9 0.842281 0.291500 0.882018
O O10 0.855748 0.287288 0.798777
O O11 0.552920 0.749353 0.382670
O O12 0.595326 0.780145 0.456855
O O13 0.595000 0.000000 0.405579
O O14 0.000000 0.000000 0.123323
O O15 0.396540 0.000000 0.256361
O O16 0.937588 0.500000 0.000000
O O17 0.000000 0.725173 0.000000
#
# Coordination Sequence:
#
# PCOD9517934 Si02
#       7
#    16   8  16  16   8  16   8
#     4   9  17  28  41  56  73  94 121 152 188 225
#     4  11  21  27  36  56  77  98 124 157 191 224
#     4   9  17  27  41  57  72  94 123 157 195 229
#     4  10  18  30  44  56  71  97 131 162 198 239
#     4  11  21  28  36  55  76  96 126 162 201 233
#     4   9  17  28  40  54  72  96 123 151 186 226
#     4   9  16  26  44  60  70  94 132 167 194 229
#
# _framework density 12.512988
#
# number of rings (size 3 to 8) (size 9 to 14) (size 15 to 20)
#    0.000    2.455    2.727    2.182    0.000    5.091 
#    0.000    0.909    0.000    0.000    0.000    0.000 
#    0.000    0.000    0.000    0.000    0.000    0.909 
#
# Total GULP energy -244967.106583 kJ/mol
# GULP energy per Si atom -5567.434241 kJ/mol
# Density = 1.248451 g / cm^3
# Si number density = 12.512988 Si / 1000 Ang^3
#
#
#
# Elastic Constant Matrix: (Units=GPa)
#
#
# Indices 1 2 3 4 5 6 
#
# 1 99.4782 48.6778 46.2908 0.0000 0.0000 0.0000
# 2 48.6778 34.5502 25.2684 0.0000 0.0000 0.0000
# 3 46.2908 25.2684 61.0396 0.0000 0.0000 0.0000
# 4 0.0000 0.0000 0.0000 11.0018 0.0000 0.0000
# 5 0.0000 0.0000 0.0000 0.0000 14.2451 0.0000
# 6 0.0000 0.0000 0.0000 0.0000 0.0000 22.2124
#
#
#
# Elastic Compliance Matrix: (Units=1/GPa)
#
#
# Indices 1 2 3 4 5 6 
#
# 1 0.035447 -0.043430 -0.008904 0.000000 0.000000 0.000000
# 2 -0.043430 0.094721 -0.006275 0.000000 0.000000 0.000000
# 3 -0.008904 -0.006275 0.025733 0.000000 0.000000 0.000000
# 4 0.000000 0.000000 0.000000 0.090895 0.000000 0.000000
# 5 0.000000 0.000000 0.000000 0.000000 0.070200 0.000000
# 6 0.000000 0.000000 0.000000 0.000000 0.000000 0.045020
#
#
# Mechanical properties :
#
#
# Convention : Reuss Voigt Hill
#
# Bulk Modulus (GPa) = 25.85087 48.39355 37.12221
# Shear Modulus (GPa) = 10.15997 14.48060 12.32028
#
# Velocity S-wave (km/s) = 2.85257 3.40552 3.14124
# Velocity P-wave (km/s) = 5.61726 7.36356 6.54888
#
# Compressibility (1/GPa) = 0.03868342
#
# Stress axis : x y z
#
# Youngs Moduli (GPa) = 28.21100 10.55731 38.86067
#
# Poissons Ratio (x) = 0.45850 0.34600
# Poissons Ratio (y) = 1.22520 0.24387
# Poissons Ratio (z) = 0.25118 0.06625
#
# Static dielectric constant tensor:
#      x y z
#    x 1.411320 0.000000 0.000000 
#    y 0.000000 1.416480 0.000000 
#    z 0.000000 0.000000 1.412930 
# 
# From -- ./inp_files/68406.got.cif
#   From: 2010.05.17/outbox.cif.g08.bks.cpg/sg71_35_cif.got.tgz:68406.got - 2010.06.03 16:22:01.
