data_PCOD9517467
_publ_section_title
;
Structure prediction by ZEFSAII (Michael W. Deem and Ramdas Pophale) SiO2 
 PCOD9517467
Probable space group: I M M M
;
_chemical_formula_sum "Si O2"
_cell_formula_units_Z 96
_cell_length_a 11.074653
_cell_length_b 13.337339
_cell_length_c 29.816064
_cell_angle_alpha 90.000000
_cell_angle_beta 90.000000
_cell_angle_gamma 90.000000
_cell_volume 4404.023516
_symmetry_space_group_name_H-M "I M M M"
_symmetry_group_IT_number 71
_symmetry_cell_setting 'orthorhombic'
loop_
_space_group_symop_operation_xyz
x,y,z
-x,-y,z
x,-y,-z
-x,y,-z
-x,-y,-z
x,y,-z
-x,y,z
x,-y,z
1/2+x,1/2+y,1/2+z
1/2-x,1/2-y,1/2+z
1/2+x,1/2-y,1/2-z
1/2-x,1/2+y,1/2-z
1/2-x,1/2-y,1/2-z
1/2+x,1/2+y,1/2-z
1/2-x,1/2+y,1/2+z
1/2+x,1/2-y,1/2+z
loop_
_atom_site_type_symbol
_atom_site_label
_atom_site_fract_x
_atom_site_fract_y
_atom_site_fract_z
Si Si1 0.500000 0.621090 0.652876
Si Si2 0.358658 0.675544 0.000000
Si Si3 0.140807 0.614140 0.274587
Si Si4 0.640430 0.333318 0.500000
Si Si5 0.729729 0.387020 0.405438
Si Si6 0.861426 0.818416 0.400882
Si Si7 0.500000 0.618338 0.754245
Si Si8 0.235323 0.813836 0.691497
O O1 0.500000 0.500000 0.653293
O O2 0.619547 0.649474 0.625762
O O3 0.500000 0.658990 0.703631
O O4 0.241216 0.746235 0.000000
O O5 0.349046 0.629741 0.050269
O O6 0.500000 0.715812 0.000000
O O7 0.182065 0.500000 0.281325
O O8 0.217502 0.693870 0.302850
O O9 0.158615 0.643604 0.222382
O O10 0.000000 0.621672 0.286675
O O11 0.500000 0.301909 0.500000
O O12 0.670368 0.391454 0.454666
O O13 0.770222 0.500000 0.392822
O O14 0.831420 0.300664 0.406889
O O15 0.776412 0.849465 0.359523
O O16 0.000000 0.830445 0.386385
O O17 0.500000 0.500000 0.750409
O O18 0.617012 0.649443 0.781606
#
# Coordination Sequence:
#
# PCOD9517467 Si02
#       8
#     8   8  16   8  16  16   8  16
#     4   9  20  33  46  72 106 141 177 218 275 330
#     4   8  18  35  53  73 104 145 182 230 295 357
#     4  10  22  39  57  83 120 157 193 235 285 342
#     4  10  17  30  50  74 106 142 188 242 284 330
#     4  10  20  31  48  73 104 144 185 228 281 335
#     4  10  20  36  53  75 104 138 185 231 282 342
#     4  11  22  38  58  84 116 150 188 238 288 342
#     4  11  22  38  60  85 113 152 197 238 287 340
#
# _framework density 21.798249999999999
#
# number of rings (size 3 to 8) (size 9 to 14) (size 15 to 20)
#    0.000    2.000    2.500    0.750    4.667    1.333 
#    0.000    0.000    0.000    5.000    0.000    2.917 
#    0.000    1.333    0.000    0.000    0.000    0.000 
#
# Total GULP energy -267778.701244 kJ/mol
# GULP energy per Si atom -5578.722943 kJ/mol
# Density = 2.174864 g / cm^3
# Si number density = 21.798250 Si / 1000 Ang^3
#
#
#
# Elastic Constant Matrix: (Units=GPa)
#
#
# Indices 1 2 3 4 5 6 
#
# 1 54.8858 7.5975 3.5014 0.0000 0.0000 0.0000
# 2 7.5975 52.7535 2.0052 0.0000 0.0000 0.0000
# 3 3.5014 2.0052 165.5290 0.0000 0.0000 0.0000
# 4 0.0000 0.0000 0.0000 -1.8607 0.0000 0.0000
# 5 0.0000 0.0000 0.0000 0.0000 -111.2869 0.0000
# 6 0.0000 0.0000 0.0000 0.0000 0.0000 17.1214
#
#
#
# Elastic Compliance Matrix: (Units=1/GPa)
#
#
# Indices 1 2 3 4 5 6 
#
# 1 0.018612 -0.002667 -0.000361 0.000000 0.000000 0.000000
# 2 -0.002667 0.019347 -0.000178 0.000000 0.000000 0.000000
# 3 -0.000361 -0.000178 0.006051 0.000000 0.000000 0.000000
# 4 0.000000 0.000000 0.000000 -0.537441 0.000000 0.000000
# 5 0.000000 0.000000 0.000000 0.000000 -0.008986 0.000000
# 6 0.000000 0.000000 0.000000 0.000000 0.000000 0.058407
#
#
# Mechanical properties :
#
#
# Convention : Reuss Voigt Hill
#
# Bulk Modulus (GPa) = 26.59743 33.26408 29.93075
# Shear Modulus (GPa) = -11.76287 -1.86764 -6.81525
#
# Velocity S-wave (km/s) = -2.32550 -0.92663 -1.77011
# Velocity P-wave (km/s) = 2.23998 3.76142 3.09562
#
# Compressibility (1/GPa) = 0.03759762
#
# Stress axis : x y z
#
# Youngs Moduli (GPa) = 53.72920 51.68785 165.26088
#
# Poissons Ratio (x) = 0.13784 0.05972
# Poissons Ratio (y) = 0.14328 0.02941
# Poissons Ratio (z) = 0.01942 0.00920
#
# Static dielectric constant tensor:
#      x y z
#    x 1.771780 0.000000 0.000000 
#    y 0.000000 1.825610 0.000000 
#    z 0.000000 0.000000 1.858950 
# 
# From -- ./inp_files/69306.got.cif
#   From: 2010.05.17/outbox.cif.g08.bks.cpg/sg71_35_cif.got.tgz:69306.got - 2010.06.03 16:22:01.
