data_PCOD9517668
_publ_section_title
;
Structure prediction by ZEFSAII (Michael W. Deem and Ramdas Pophale) SiO2 
 PCOD9517668
Probable space group: I M M M
;
_chemical_formula_sum "Si O2"
_cell_formula_units_Z 72
_cell_length_a 31.305443
_cell_length_b 19.793728
_cell_length_c 7.710062
_cell_angle_alpha 90.000000
_cell_angle_beta 90.000000
_cell_angle_gamma 90.000000
_cell_volume 4777.550895
_symmetry_space_group_name_H-M "I M M M"
_symmetry_group_IT_number 71
_symmetry_cell_setting 'orthorhombic'
loop_
_space_group_symop_operation_xyz
x,y,z
-x,-y,z
x,-y,-z
-x,y,-z
-x,-y,-z
x,y,-z
-x,y,z
x,-y,z
1/2+x,1/2+y,1/2+z
1/2-x,1/2-y,1/2+z
1/2+x,1/2-y,1/2-z
1/2-x,1/2+y,1/2-z
1/2-x,1/2-y,1/2-z
1/2+x,1/2+y,1/2-z
1/2-x,1/2+y,1/2+z
1/2+x,1/2-y,1/2+z
loop_
_atom_site_type_symbol
_atom_site_label
_atom_site_fract_x
_atom_site_fract_y
_atom_site_fract_z
Si Si1 0.228859 0.500000 0.198062
Si Si2 0.550668 0.581303 0.000000
Si Si3 0.183267 0.216120 0.705534
Si Si4 0.771350 0.352178 0.789860
Si Si5 0.388409 0.622618 0.301278
Si Si6 0.174639 0.000000 0.793136
O O1 0.217509 0.427050 0.276149
O O2 0.280490 0.500000 0.198024
O O3 0.212836 0.500000 0.000000
O O4 0.573221 0.613930 0.167728
O O5 0.558411 0.500000 0.000000
O O6 0.500000 0.591722 0.000000
O O7 0.180014 0.205156 0.500000
O O8 0.195917 0.293468 0.739713
O O9 0.224305 0.172639 0.771160
O O10 0.139217 0.190834 0.786560
O O11 0.769294 0.354973 0.000000
O O12 0.401693 0.611213 0.500000
O O13 0.353846 0.564964 0.252179
O O14 0.183267 0.000000 0.000000
#
# Coordination Sequence:
#
# PCOD9517668 Si02
#       6
#     8   8  16  16  16   8
#     4  10  18  28  44  60  89 131 165 204 244 279
#     4  11  24  38  54  74  98 125 159 207 255 296
#     4  10  18  29  46  65  90 123 161 204 243 281
#     4   9  18  28  40  62  92 124 161 205 243 277
#     4  11  21  34  52  71  93 124 163 205 245 289
#     4  10  20  28  42  67  88 119 167 203 235 286
#
# _framework density 15.070482
#
# number of rings (size 3 to 8) (size 9 to 14) (size 15 to 20)
#    0.000    1.889    4.444    0.667    1.556    2.222 
#    0.000    1.111    0.000    0.000    0.000    0.000 
#    0.000    0.000    0.000    2.000    0.000   12.000 
#
# Total GULP energy -200821.885477 kJ/mol
# GULP energy per Si atom -5578.385708 kJ/mol
# Density = 1.503618 g / cm^3
# Si number density = 15.070482 Si / 1000 Ang^3
#
#
#
# Elastic Constant Matrix: (Units=GPa)
#
#
# Indices 1 2 3 4 5 6 
#
# 1 71.6355 32.2649 28.5687 0.0000 0.0000 0.0000
# 2 32.2649 104.2844 14.8647 0.0000 0.0000 0.0000
# 3 28.5687 14.8647 52.9774 0.0000 0.0000 0.0000
# 4 0.0000 0.0000 0.0000 15.7069 0.0000 0.0000
# 5 0.0000 0.0000 0.0000 0.0000 12.1343 0.0000
# 6 0.0000 0.0000 0.0000 0.0000 0.0000 19.1938
#
#
#
# Elastic Compliance Matrix: (Units=1/GPa)
#
#
# Indices 1 2 3 4 5 6 
#
# 1 0.019859 -0.004810 -0.009359 0.000000 0.000000 0.000000
# 2 -0.004810 0.011154 -0.000536 0.000000 0.000000 0.000000
# 3 -0.009359 -0.000536 0.024073 0.000000 0.000000 0.000000
# 4 0.000000 0.000000 0.000000 0.063666 0.000000 0.000000
# 5 0.000000 0.000000 0.000000 0.000000 0.082411 0.000000
# 6 0.000000 0.000000 0.000000 0.000000 0.000000 0.052100
#
#
# Mechanical properties :
#
#
# Convention : Reuss Voigt Hill
#
# Bulk Modulus (GPa) = 38.94754 42.25485 40.60119
# Shear Modulus (GPa) = 17.16845 19.62027 18.39436
#
# Velocity S-wave (km/s) = 3.37888 3.61210 3.49744
# Velocity P-wave (km/s) = 6.41265 6.74503 6.58094
#
# Compressibility (1/GPa) = 0.02567557
#
# Stress axis : x y z
#
# Youngs Moduli (GPa) = 50.35610 89.65630 41.53956
#
# Poissons Ratio (x) = 0.43125 0.38878
# Poissons Ratio (y) = 0.24221 0.02225
# Poissons Ratio (z) = 0.47130 0.04803
#
# Static dielectric constant tensor:
#      x y z
#    x 1.458010 0.000000 0.000000 
#    y 0.000000 1.544340 0.000000 
#    z 0.000000 0.000000 1.535400 
# 
# From -- ./inp_files/9979.got.cif
#   From: 2010.05.17/outbox.cif.g08.bks.cpg/sg71_5_cif.got.tgz:9979.got - 2010.06.03 16:22:01.
