data_PCOD9517442
_publ_section_title
;
Structure prediction by ZEFSAII (Michael W. Deem and Ramdas Pophale) SiO2 
 PCOD9517442
Probable space group: I M M M
;
_chemical_formula_sum "Si O2"
_cell_formula_units_Z 88
_cell_length_a 28.016783
_cell_length_b 8.652353
_cell_length_c 20.476576
_cell_angle_alpha 90.000000
_cell_angle_beta 90.000000
_cell_angle_gamma 90.000000
_cell_volume 4963.749240
_symmetry_space_group_name_H-M "I M M M"
_symmetry_group_IT_number 71
_symmetry_cell_setting 'orthorhombic'
loop_
_space_group_symop_operation_xyz
x,y,z
-x,-y,z
x,-y,-z
-x,y,-z
-x,-y,-z
x,y,-z
-x,y,z
x,-y,z
1/2+x,1/2+y,1/2+z
1/2-x,1/2-y,1/2+z
1/2+x,1/2-y,1/2-z
1/2-x,1/2+y,1/2-z
1/2-x,1/2-y,1/2-z
1/2+x,1/2+y,1/2-z
1/2-x,1/2+y,1/2+z
1/2+x,1/2-y,1/2+z
loop_
_atom_site_type_symbol
_atom_site_label
_atom_site_fract_x
_atom_site_fract_y
_atom_site_fract_z
Si Si1 0.095552 0.827970 0.000000
Si Si2 0.054616 0.684211 0.132208
Si Si3 0.128553 0.183817 0.767775
Si Si4 0.717924 0.686003 0.638726
Si Si5 0.679230 0.314537 0.140181
Si Si6 0.182008 0.325381 0.500000
Si Si7 0.294178 0.733231 0.500000
O O1 0.078359 0.745613 0.934356
O O2 0.153027 0.838413 0.000000
O O3 0.075490 0.000000 0.000000
O O4 0.054105 0.500000 0.129020
O O5 0.086048 0.735833 0.193718
O O6 0.000000 0.740320 0.136529
O O7 0.177610 0.212155 0.807747
O O8 0.139252 0.228717 0.693209
O O9 0.119970 0.000000 0.770039
O O10 0.716072 0.500000 0.621651
O O11 0.771127 0.731003 0.659387
O O12 0.706873 0.791857 0.574828
O O13 0.685838 0.500000 0.142856
O O14 0.668427 0.262018 0.066378
O O15 0.163687 0.500000 0.500000
O O16 0.240189 0.334922 0.500000
#
# Coordination Sequence:
#
# PCOD9517442 Si02
#       7
#     8  16  16  16  16   8   8
#     4  12  21  36  59  78 103 142 188 230 271 316
#     4  11  25  41  55  77 108 138 178 233 279 316
#     4  10  21  36  55  77 104 138 177 219 266 322
#     4  10  18  31  49  73 107 143 178 216 258 311
#     4  10  20  33  51  80 110 136 172 219 262 309
#     4  10  20  35  53  74 108 148 180 212 254 315
#     4  10  17  29  50  73 102 142 184 221 252 292
#
# _framework density 17.728534
#
# number of rings (size 3 to 8) (size 9 to 14) (size 15 to 20)
#    0.000    1.636    1.818    5.182    0.000    4.727 
#    0.000    0.909    0.000    0.000    0.000    0.636 
#    0.000    5.091    0.000    0.000    0.000    0.000 
#
# Total GULP energy -245108.157222 kJ/mol
# GULP energy per Si atom -5570.639937 kJ/mol
# Density = 1.768818 g / cm^3
# Si number density = 17.728534 Si / 1000 Ang^3
#
#
#
# Elastic Constant Matrix: (Units=GPa)
#
#
# Indices 1 2 3 4 5 6 
#
# 1 83.7276 28.6230 61.3097 0.0000 0.0000 0.0000
# 2 28.6230 45.3661 35.4368 0.0000 0.0000 0.0000
# 3 61.3097 35.4368 134.7958 0.0000 0.0000 0.0000
# 4 0.0000 0.0000 0.0000 15.4532 0.0000 0.0000
# 5 0.0000 0.0000 0.0000 0.0000 12.2660 0.0000
# 6 0.0000 0.0000 0.0000 0.0000 0.0000 16.4881
#
#
#
# Elastic Compliance Matrix: (Units=1/GPa)
#
#
# Indices 1 2 3 4 5 6 
#
# 1 0.019416 -0.006735 -0.007060 0.000000 0.000000 0.000000
# 2 -0.006735 0.030075 -0.004843 0.000000 0.000000 0.000000
# 3 -0.007060 -0.004843 0.011903 0.000000 0.000000 0.000000
# 4 0.000000 0.000000 0.000000 0.064711 0.000000 0.000000
# 5 0.000000 0.000000 0.000000 0.000000 0.081526 0.000000
# 6 0.000000 0.000000 0.000000 0.000000 0.000000 0.060650
#
#
# Mechanical properties :
#
#
# Convention : Reuss Voigt Hill
#
# Bulk Modulus (GPa) = 41.46437 57.18095 49.32266
# Shear Modulus (GPa) = 15.94397 18.07615 17.01006
#
# Velocity S-wave (km/s) = 3.00215 3.19659 3.10090
# Velocity P-wave (km/s) = 5.95454 6.77849 6.37983
#
# Compressibility (1/GPa) = 0.02411709
#
# Stress axis : x y z
#
# Youngs Moduli (GPa) = 51.50409 33.24972 84.01084
#
# Poissons Ratio (x) = 0.22394 0.59315
# Poissons Ratio (y) = 0.34688 0.40689
# Poissons Ratio (z) = 0.36364 0.16104
#
# Static dielectric constant tensor:
#      x y z
#    x 1.574750 0.000000 0.000000 
#    y 0.000000 1.621610 0.000000 
#    z 0.000000 0.000000 1.643000 
# 
# From -- ./inp_files/56603.got.cif
#   From: 2010.05.17/outbox.cif.g08.bks.cpg/sg71_29_cif.got.tgz:56603.got - 2010.06.03 16:22:01.
