data_PCOD9517875
_publ_section_title
;
Structure prediction by ZEFSAII (Michael W. Deem and Ramdas Pophale) SiO2 
 PCOD9517875
Probable space group: I M M M
;
_chemical_formula_sum "Si O2"
_cell_formula_units_Z 96
_cell_length_a 24.278366
_cell_length_b 26.425235
_cell_length_c 7.457006
_cell_angle_alpha 90.000000
_cell_angle_beta 90.000000
_cell_angle_gamma 90.000000
_cell_volume 4784.128156
_symmetry_space_group_name_H-M "I M M M"
_symmetry_group_IT_number 71
_symmetry_cell_setting 'orthorhombic'
loop_
_space_group_symop_operation_xyz
x,y,z
-x,-y,z
x,-y,-z
-x,y,-z
-x,-y,-z
x,y,-z
-x,y,z
x,-y,z
1/2+x,1/2+y,1/2+z
1/2-x,1/2-y,1/2+z
1/2+x,1/2-y,1/2-z
1/2-x,1/2+y,1/2-z
1/2-x,1/2-y,1/2-z
1/2+x,1/2+y,1/2-z
1/2-x,1/2+y,1/2+z
1/2+x,1/2-y,1/2+z
loop_
_atom_site_type_symbol
_atom_site_label
_atom_site_fract_x
_atom_site_fract_y
_atom_site_fract_z
Si Si1 0.751558 0.942261 0.785049
Si Si2 0.436344 0.500000 0.780568
Si Si3 0.063344 0.804721 0.281446
Si Si4 0.063026 0.500000 0.215004
Si Si5 0.129574 0.098874 0.285654
Si Si6 0.063169 0.309935 0.280879
Si Si7 0.635845 0.098102 0.789232
O O1 0.806350 0.910584 0.749057
O O2 0.695473 0.917151 0.714316
O O3 0.757892 0.000000 0.717244
O O4 0.745911 0.945880 0.000000
O O5 0.500000 0.500000 0.726553
O O6 0.404486 0.449819 0.719218
O O7 0.435412 0.500000 0.000000
O O8 0.064305 0.804401 0.500000
O O9 0.103964 0.848661 0.218052
O O10 0.076875 0.747421 0.225183
O O11 0.000000 0.815739 0.229921
O O12 0.095968 0.549751 0.273613
O O13 0.000000 0.500000 0.280159
O O14 0.062040 0.500000 0.000000
O O15 0.122304 0.099496 0.500000
O O16 0.063412 0.310717 0.500000
O O17 0.104862 0.352718 0.215167
O O18 0.000000 0.320970 0.227214
O O19 0.644172 0.108337 0.000000
#
# Coordination Sequence:
#
# PCOD9517875 Si02
#       7
#    16   8  16   8  16  16  16
#     4  10  20  34  48  65  94 130 164 201 244 282
#     4   9  16  25  41  68  94 115 148 195 238 279
#     4   8  14  26  46  74 103 125 151 198 253 291
#     4  11  23  34  47  74 108 131 150 193 256 303
#     4  10  18  29  48  72  96 125 161 196 237 293
#     4   8  14  26  48  76  99 120 154 203 249 283
#     4  10  19  34  54  73  93 127 174 207 233 281
#
# _framework density 20.066351999999998
#
# number of rings (size 3 to 8) (size 9 to 14) (size 15 to 20)
#    0.000    2.667    1.667    2.250    0.000    4.000 
#    0.000    0.833    0.000    3.500    0.000    2.333 
#    0.000    0.000    0.000    0.000    0.000    0.000 
#
# Total GULP energy -267949.301673 kJ/mol
# GULP energy per Si atom -5582.277118 kJ/mol
# Density = 2.002068 g / cm^3
# Si number density = 20.066352 Si / 1000 Ang^3
#
#
#
# Elastic Constant Matrix: (Units=GPa)
#
#
# Indices 1 2 3 4 5 6 
#
# 1 189.9195 130.8032 -5.1109 0.0000 0.0000 0.0000
# 2 130.8032 191.5585 1.0883 0.0000 0.0000 0.0000
# 3 -5.1109 1.0883 58.2704 0.0000 0.0000 0.0000
# 4 0.0000 0.0000 0.0000 -36.4146 0.0000 0.0000
# 5 0.0000 0.0000 0.0000 0.0000 19.1508 0.0000
# 6 0.0000 0.0000 0.0000 0.0000 0.0000 52.0623
#
#
#
# Elastic Compliance Matrix: (Units=1/GPa)
#
#
# Indices 1 2 3 4 5 6 
#
# 1 0.009999 -0.006833 0.001005 0.000000 0.000000 0.000000
# 2 -0.006833 0.009891 -0.000784 0.000000 0.000000 0.000000
# 3 0.001005 -0.000784 0.017264 0.000000 0.000000 0.000000
# 4 0.000000 0.000000 0.000000 -0.027462 0.000000 0.000000
# 5 0.000000 0.000000 0.000000 0.000000 0.052217 0.000000
# 6 0.000000 0.000000 0.000000 0.000000 0.000000 0.019208
#
#
# Mechanical properties :
#
#
# Convention : Reuss Voigt Hill
#
# Bulk Modulus (GPa) = 41.79161 77.03440 59.41300
# Shear Modulus (GPa) = 48.86720 27.82421 38.34570
#
# Velocity S-wave (km/s) = 4.94021 3.72776 4.37618
# Velocity P-wave (km/s) = 7.30841 7.54993 7.43015
#
# Compressibility (1/GPa) = 0.02392825
#
# Stress axis : x y z
#
# Youngs Moduli (GPa) = 100.01404 101.10510 57.92361
#
# Poissons Ratio (x) = 0.69086 -0.05819
# Poissons Ratio (y) = 0.68341 0.04542
# Poissons Ratio (z) = -0.10047 0.07927
#
# Static dielectric constant tensor:
#      x y z
#    x 1.681570 0.000000 0.000000 
#    y 0.000000 1.690820 0.000000 
#    z 0.000000 0.000000 1.782520 
# 
# From -- ./inp_files/12911.got.cif
#   From: 2010.05.17/outbox.cif.g08.bks.cpg/sg71_7_cif.got.tgz:12911.got - 2010.06.03 16:22:01.
