data_PCOD9517948
_publ_section_title
;
Structure prediction by ZEFSAII (Michael W. Deem and Ramdas Pophale) SiO2 
 PCOD9517948
Probable space group: I M M M
;
_chemical_formula_sum "Si O2"
_cell_formula_units_Z 80
_cell_length_a 26.856776
_cell_length_b 8.538854
_cell_length_c 24.704312
_cell_angle_alpha 90.000000
_cell_angle_beta 90.000000
_cell_angle_gamma 90.000000
_cell_volume 5665.343257
_symmetry_space_group_name_H-M "I M M M"
_symmetry_group_IT_number 71
_symmetry_cell_setting 'orthorhombic'
loop_
_space_group_symop_operation_xyz
x,y,z
-x,-y,z
x,-y,-z
-x,y,-z
-x,-y,-z
x,y,-z
-x,y,z
x,-y,z
1/2+x,1/2+y,1/2+z
1/2-x,1/2-y,1/2+z
1/2+x,1/2-y,1/2-z
1/2-x,1/2+y,1/2-z
1/2-x,1/2-y,1/2-z
1/2+x,1/2+y,1/2-z
1/2-x,1/2+y,1/2+z
1/2+x,1/2-y,1/2+z
loop_
_atom_site_type_symbol
_atom_site_label
_atom_site_fract_x
_atom_site_fract_y
_atom_site_fract_z
Si Si1 0.743619 0.190533 0.381973
Si Si2 0.855821 0.312613 0.184178
Si Si3 0.299382 0.688013 0.219693
Si Si4 0.397101 0.188001 0.500000
Si Si5 0.557044 0.687678 0.388525
Si Si6 0.280516 0.191069 0.500000
O O1 0.691400 0.238005 0.353438
O O2 0.789013 0.236345 0.342463
O O3 0.743854 0.245213 0.443812
O O4 0.743013 0.000000 0.382684
O O5 0.856628 0.500000 0.183442
O O6 0.844367 0.255020 0.244920
O O7 0.905657 0.248075 0.157488
O O8 0.300604 0.500000 0.222278
O O9 0.250000 0.750000 0.250000
O O10 0.423376 0.249977 0.446116
O O11 0.338879 0.234528 0.500000
O O12 0.398876 0.000000 0.500000
O O13 0.500000 0.738437 0.380065
O O14 0.558434 0.500000 0.389569
O O15 0.278961 0.000000 0.500000
#
# Coordination Sequence:
#
# PCOD9517948 Si02
#       6
#    16  16  16   8  16   8
#     4   8  14  24  40  61  83 106 137 172 209 249
#     4  10  18  30  46  62  79 106 143 181 219 260
#     4   9  16  26  41  62  84 108 137 173 214 258
#     4  11  20  32  49  62  80 112 150 187 217 253
#     4  11  23  35  45  60  84 111 142 185 230 265
#     4   9  14  24  42  63  84 108 139 179 210 239
#
# _framework density 14.120944
#
# number of rings (size 3 to 8) (size 9 to 14) (size 15 to 20)
#    0.000    2.400    2.000    3.600    0.000    2.800 
#    0.000    0.000    0.000    0.000    0.000    0.000 
#    0.000    0.000    0.000    0.900    0.000   20.600 
#
# Total GULP energy -222832.574171 kJ/mol
# GULP energy per Si atom -5570.814354 kJ/mol
# Density = 1.408880 g / cm^3
# Si number density = 14.120944 Si / 1000 Ang^3
#
#
#
# Elastic Constant Matrix: (Units=GPa)
#
#
# Indices 1 2 3 4 5 6 
#
# 1 73.0563 21.3724 72.1162 0.0000 0.0000 0.0000
# 2 21.3724 30.4141 24.0884 0.0000 0.0000 0.0000
# 3 72.1162 24.0884 137.2833 0.0000 0.0000 0.0000
# 4 0.0000 0.0000 0.0000 17.4778 0.0000 0.0000
# 5 0.0000 0.0000 0.0000 0.0000 11.1781 0.0000
# 6 0.0000 0.0000 0.0000 0.0000 0.0000 17.0806
#
#
#
# Elastic Compliance Matrix: (Units=1/GPa)
#
#
# Indices 1 2 3 4 5 6 
#
# 1 0.030988 -0.010317 -0.014468 0.000000 0.000000 0.000000
# 2 -0.010317 0.041621 -0.001883 0.000000 0.000000 0.000000
# 3 -0.014468 -0.001883 0.015215 0.000000 0.000000 0.000000
# 4 0.000000 0.000000 0.000000 0.057215 0.000000 0.000000
# 5 0.000000 0.000000 0.000000 0.000000 0.089461 0.000000
# 6 0.000000 0.000000 0.000000 0.000000 0.000000 0.058546
#
#
# Mechanical properties :
#
#
# Convention : Reuss Voigt Hill
#
# Bulk Modulus (GPa) = 28.99628 52.87861 40.93745
# Shear Modulus (GPa) = 13.97120 17.35907 15.66513
#
# Velocity S-wave (km/s) = 3.14888 3.50996 3.33431
# Velocity P-wave (km/s) = 5.81372 7.34538 6.62397
#
# Compressibility (1/GPa) = 0.03448718
#
# Stress axis : x y z
#
# Youngs Moduli (GPa) = 32.27033 24.02636 65.72486
#
# Poissons Ratio (x) = 0.24788 0.95092
# Poissons Ratio (y) = 0.33293 0.12379
# Poissons Ratio (z) = 0.46689 0.04525
#
# Static dielectric constant tensor:
#      x y z
#    x 1.440800 0.000000 0.000000 
#    y 0.000000 1.478190 0.000000 
#    z 0.000000 0.000000 1.491440 
# 
# From -- ./inp_files/14764.got.cif
#   From: 2010.05.17/outbox.cif.g08.bks.cpg/sg71_8_cif.got.tgz:14764.got - 2010.06.03 16:22:01.
