data_PCOD9517866
_publ_section_title
;
Structure prediction by ZEFSAII (Michael W. Deem and Ramdas Pophale) SiO2 
 PCOD9517866
Probable space group: I M M M
;
_chemical_formula_sum "Si O2"
_cell_formula_units_Z 72
_cell_length_a 19.921503
_cell_length_b 7.320083
_cell_length_c 23.736107
_cell_angle_alpha 90.000000
_cell_angle_beta 90.000000
_cell_angle_gamma 90.000000
_cell_volume 3461.366592
_symmetry_space_group_name_H-M "I M M M"
_symmetry_group_IT_number 71
_symmetry_cell_setting 'orthorhombic'
loop_
_space_group_symop_operation_xyz
x,y,z
-x,-y,z
x,-y,-z
-x,y,-z
-x,-y,-z
x,y,-z
-x,y,z
x,-y,z
1/2+x,1/2+y,1/2+z
1/2-x,1/2-y,1/2+z
1/2+x,1/2-y,1/2-z
1/2-x,1/2+y,1/2-z
1/2-x,1/2-y,1/2-z
1/2+x,1/2+y,1/2-z
1/2-x,1/2+y,1/2+z
1/2+x,1/2-y,1/2+z
loop_
_atom_site_type_symbol
_atom_site_label
_atom_site_fract_x
_atom_site_fract_y
_atom_site_fract_z
Si Si1 0.500000 0.220320 0.144015
Si Si2 0.500000 0.285046 0.275939
Si Si3 0.000000 0.279739 0.064514
Si Si4 0.727163 0.722972 0.563926
Si Si5 0.617716 0.222110 0.063161
Si Si6 0.383076 0.294040 0.647005
O O1 0.500000 0.269315 0.209335
O O2 0.565853 0.284044 0.110367
O O3 0.500000 0.000000 0.141565
O O4 0.500000 0.500000 0.291520
O O5 0.569046 0.211211 0.304123
O O6 0.064793 0.203480 0.095358
O O7 0.000000 0.500000 0.070390
O O8 0.000000 0.231613 0.000000
O O9 0.705935 0.778768 0.500000
O O10 0.723670 0.500000 0.564281
O O11 0.804890 0.775965 0.571235
O O12 0.682086 0.788186 0.616365
O O13 0.617356 0.000000 0.063790
O O14 0.596597 0.276957 0.000000
O O15 0.364788 0.500000 0.665335
#
# Coordination Sequence:
#
# PCOD9517866 Si02
#       6
#     8   8   8  16  16  16
#     4  10  18  29  48  69  89 117 149 179 217 270
#     4   9  19  32  43  59  86 119 154 191 223 249
#     4  10  19  27  38  62  93 120 145 180 228 270
#     4   8  13  23  43  70  93 110 137 184 231 263
#     4   8  14  25  44  72  97 111 133 178 230 271
#     4   9  17  30  47  63  82 116 158 191 217 252
#
# _framework density 20.801030999999998
#
# number of rings (size 3 to 8) (size 9 to 14) (size 15 to 20)
#    0.000    3.222    0.000    3.333    0.000    4.889 
#    0.000    1.111    0.000    2.667    0.000    3.111 
#    0.000    0.000    0.000    0.000    0.000    0.000 
#
# Total GULP energy -200612.259562 kJ/mol
# GULP energy per Si atom -5572.562766 kJ/mol
# Density = 2.075369 g / cm^3
# Si number density = 20.801031 Si / 1000 Ang^3
#
#
#
# Elastic Constant Matrix: (Units=GPa)
#
#
# Indices 1 2 3 4 5 6 
#
# 1 118.2852 -0.5526 95.0420 0.0000 0.0000 0.0000
# 2 -0.5526 83.7785 0.3292 0.0000 0.0000 0.0000
# 3 95.0420 0.3292 176.0042 0.0000 0.0000 0.0000
# 4 0.0000 0.0000 0.0000 6.1419 0.0000 0.0000
# 5 0.0000 0.0000 0.0000 0.0000 -4.8162 0.0000
# 6 0.0000 0.0000 0.0000 0.0000 0.0000 1.1425
#
#
#
# Elastic Compliance Matrix: (Units=1/GPa)
#
#
# Indices 1 2 3 4 5 6 
#
# 1 0.014935 0.000130 -0.008065 0.000000 0.000000 0.000000
# 2 0.000130 0.011937 -0.000093 0.000000 0.000000 0.000000
# 3 -0.008065 -0.000093 0.010037 0.000000 0.000000 0.000000
# 4 0.000000 0.000000 0.000000 0.162816 0.000000 0.000000
# 5 0.000000 0.000000 0.000000 0.000000 -0.207631 0.000000
# 6 0.000000 0.000000 0.000000 0.000000 0.000000 0.875259
#
#
# Mechanical properties :
#
#
# Convention : Reuss Voigt Hill
#
# Bulk Modulus (GPa) = 47.95153 63.07834 55.51493
# Shear Modulus (GPa) = 5.61571 19.37693 12.49632
#
# Velocity S-wave (km/s) = 1.64487 3.05542 2.45369
# Velocity P-wave (km/s) = 5.16817 6.54507 5.89694
#
# Compressibility (1/GPa) = 0.02085439
#
# Stress axis : x y z
#
# Youngs Moduli (GPa) = 66.95630 83.76989 99.63089
#
# Poissons Ratio (x) = -0.01091 0.80354
# Poissons Ratio (y) = -0.00872 0.00923
# Poissons Ratio (z) = 0.54002 0.00776
#
# Static dielectric constant tensor:
#      x y z
#    x 1.761170 0.000000 0.000000 
#    y 0.000000 1.821960 0.000000 
#    z 0.000000 0.000000 1.705510 
# 
# From -- ./inp_files/54709.got.cif
#   From: 2010.05.17/outbox.cif.g08.bks.cpg/sg71_28_cif.got.tgz:54709.got - 2010.06.03 16:22:01.
