data_PCOD9517841
_publ_section_title
;
Structure prediction by ZEFSAII (Michael W. Deem and Ramdas Pophale) SiO2 
 PCOD9517841
Probable space group: I M M M
;
_chemical_formula_sum "Si O2"
_cell_formula_units_Z 104
_cell_length_a 23.581462
_cell_length_b 7.972280
_cell_length_c 30.902308
_cell_angle_alpha 90.000000
_cell_angle_beta 90.000000
_cell_angle_gamma 90.000000
_cell_volume 5809.572652
_symmetry_space_group_name_H-M "I M M M"
_symmetry_group_IT_number 71
_symmetry_cell_setting 'orthorhombic'
loop_
_space_group_symop_operation_xyz
x,y,z
-x,-y,z
x,-y,-z
-x,y,-z
-x,-y,-z
x,y,-z
-x,y,z
x,-y,z
1/2+x,1/2+y,1/2+z
1/2-x,1/2-y,1/2+z
1/2+x,1/2-y,1/2-z
1/2-x,1/2+y,1/2-z
1/2-x,1/2-y,1/2-z
1/2+x,1/2+y,1/2-z
1/2-x,1/2+y,1/2+z
1/2+x,1/2-y,1/2+z
loop_
_atom_site_type_symbol
_atom_site_label
_atom_site_fract_x
_atom_site_fract_y
_atom_site_fract_z
Si Si1 0.278157 0.702799 0.450071
Si Si2 0.349344 0.298994 0.950971
Si Si3 0.065728 0.794119 0.622979
Si Si4 0.112286 0.800845 0.099834
Si Si5 0.568697 0.304932 0.217727
Si Si6 0.564833 0.803108 0.311921
Si Si7 0.500000 0.705602 0.550261
O O1 0.288851 0.753431 0.500000
O O2 0.277185 0.500000 0.448988
O O3 0.215398 0.762617 0.438018
O O4 0.329067 0.765529 0.419848
O O5 0.356231 0.500000 0.952818
O O6 0.394076 0.236043 0.915702
O O7 0.357762 0.233127 0.000000
O O8 0.086464 0.737830 0.670687
O O9 0.000000 0.744919 0.616706
O O10 0.066234 0.000000 0.624100
O O11 0.102983 0.773519 0.150602
O O12 0.056541 0.735174 0.074855
O O13 0.113023 0.000000 0.091821
O O14 0.500000 0.295507 0.216341
O O15 0.584627 0.500000 0.220426
O O16 0.585767 0.222715 0.262880
O O17 0.500000 0.733453 0.314987
O O18 0.561781 0.000000 0.320180
O O19 0.500000 0.500000 0.551620
O O20 0.500000 0.753876 0.500000
#
# Coordination Sequence:
#
# PCOD9517841 Si02
#       7
#    16  16  16  16  16  16   8
#     4   9  18  32  48  66  89 120 158 194 226 263
#     4   9  17  29  47  71  97 125 154 183 221 270
#     4   8  14  26  46  73  99 121 150 188 225 262
#     4  10  18  29  47  67  87 116 155 195 231 270
#     4   8  14  26  45  65  87 118 153 186 221 265
#     4  10  19  29  42  64  95 122 146 183 233 282
#     4   9  16  26  43  67  89 109 143 193 236 267
#
# _framework density 17.901489000000002
#
# number of rings (size 3 to 8) (size 9 to 14) (size 15 to 20)
#    0.000    3.000    0.769    1.846    0.000    3.385 
#    0.000    2.308    0.000    4.154    0.000    2.154 
#    0.000    0.000    0.000    0.000    0.000    0.000 
#
# Total GULP energy -289670.668498 kJ/mol
# GULP energy per Si atom -5570.589779 kJ/mol
# Density = 1.786074 g / cm^3
# Si number density = 17.901489 Si / 1000 Ang^3
#
#
#
# Elastic Constant Matrix: (Units=GPa)
#
#
# Indices 1 2 3 4 5 6 
#
# 1 92.3993 0.5931 84.0431 0.0000 0.0000 0.0000
# 2 0.5931 7.3811 0.3739 0.0000 0.0000 0.0000
# 3 84.0431 0.3739 133.8994 0.0000 0.0000 0.0000
# 4 0.0000 0.0000 0.0000 3.6518 0.0000 0.0000
# 5 0.0000 0.0000 0.0000 0.0000 18.7568 0.0000
# 6 0.0000 0.0000 0.0000 0.0000 0.0000 16.3642
#
#
#
# Elastic Compliance Matrix: (Units=1/GPa)
#
#
# Indices 1 2 3 4 5 6 
#
# 1 0.025232 -0.001225 -0.015834 0.000000 0.000000 0.000000
# 2 -0.001225 0.135559 0.000391 0.000000 0.000000 0.000000
# 3 -0.015834 0.000391 0.017406 0.000000 0.000000 0.000000
# 4 0.000000 0.000000 0.000000 0.273834 0.000000 0.000000
# 5 0.000000 0.000000 0.000000 0.000000 0.053314 0.000000
# 6 0.000000 0.000000 0.000000 0.000000 0.000000 0.061109
#
#
# Mechanical properties :
#
#
# Convention : Reuss Voigt Hill
#
# Bulk Modulus (GPa) = 6.90323 44.85558 25.87941
# Shear Modulus (GPa) = 7.71512 17.66588 12.69050
#
# Velocity S-wave (km/s) = 2.07825 3.14481 2.66542
# Velocity P-wave (km/s) = 3.10217 6.18851 4.89495
#
# Compressibility (1/GPa) = 0.14485970
#
# Stress axis : x y z
#
# Youngs Moduli (GPa) = 39.63151 7.37685 57.45303
#
# Poissons Ratio (x) = 0.00904 0.90971
# Poissons Ratio (y) = 0.04856 -0.02244
# Poissons Ratio (z) = 0.62752 -0.00288
#
# Static dielectric constant tensor:
#      x y z
#    x 1.592580 0.000000 0.000000 
#    y 0.000000 1.646170 0.000000 
#    z 0.000000 0.000000 1.630450 
# 
# From -- ./inp_files/70972.got.cif
#   From: 2010.05.17/outbox.cif.g08.bks.cpg/sg71_36_cif.got.tgz:70972.got - 2010.06.03 16:22:01.
