data_PCOD9517580
_publ_section_title
;
Structure prediction by ZEFSAII (Michael W. Deem and Ramdas Pophale) SiO2 
 PCOD9517580
Probable space group: I M M M
;
_chemical_formula_sum "Si O2"
_cell_formula_units_Z 104
_cell_length_a 28.248732
_cell_length_b 15.494060
_cell_length_c 13.273055
_cell_angle_alpha 90.000000
_cell_angle_beta 90.000000
_cell_angle_gamma 90.000000
_cell_volume 5809.450904
_symmetry_space_group_name_H-M "I M M M"
_symmetry_group_IT_number 71
_symmetry_cell_setting 'orthorhombic'
loop_
_space_group_symop_operation_xyz
x,y,z
-x,-y,z
x,-y,-z
-x,y,-z
-x,-y,-z
x,y,-z
-x,y,z
x,-y,z
1/2+x,1/2+y,1/2+z
1/2-x,1/2-y,1/2+z
1/2+x,1/2-y,1/2-z
1/2-x,1/2+y,1/2-z
1/2-x,1/2-y,1/2-z
1/2+x,1/2+y,1/2-z
1/2-x,1/2+y,1/2+z
1/2+x,1/2-y,1/2+z
loop_
_atom_site_type_symbol
_atom_site_label
_atom_site_fract_x
_atom_site_fract_y
_atom_site_fract_z
Si Si1 0.500000 0.402131 0.122572
Si Si2 0.084524 0.595235 0.383777
Si Si3 0.192945 0.407608 0.667336
Si Si4 0.714456 0.867147 0.388198
Si Si5 0.713212 0.334746 0.388571
Si Si6 0.178254 0.899850 0.319794
Si Si7 0.911802 0.213452 0.378224
O O1 0.500000 0.500000 0.158403
O O2 0.453064 0.351591 0.153427
O O3 0.500000 0.403320 0.000000
O O4 0.068119 0.594876 0.500000
O O5 0.070648 0.500000 0.340993
O O6 0.141710 0.597589 0.380318
O O7 0.074340 0.690236 0.339584
O O8 0.214427 0.500000 0.638253
O O9 0.190316 0.405099 0.788477
O O10 0.230213 0.338155 0.630645
O O11 0.701727 0.898949 0.500000
O O12 0.701744 0.766177 0.383636
O O13 0.770986 0.881630 0.372781
O O14 0.702567 0.367596 0.500000
O O15 0.689136 0.386225 0.298443
O O16 0.138179 0.830161 0.348707
O O17 0.164731 0.000000 0.341049
O O18 0.911225 0.219987 0.500000
#
# Coordination Sequence:
#
# PCOD9517580 Si02
#       7
#     8  16  16  16  16  16  16
#     4   9  18  32  49  69  92 118 145 172 213 271
#     4   9  17  29  46  67  89 117 153 187 219 256
#     4  10  18  27  41  59  83 116 150 184 219 258
#     4  10  19  29  41  58  84 118 154 191 226 260
#     4  10  19  30  43  59  83 117 155 193 227 256
#     4  11  21  30  44  65  89 119 152 186 224 265
#     4  10  19  32  49  68  92 117 143 181 223 266
#
# _framework density 17.901862999999999
#
# number of rings (size 3 to 8) (size 9 to 14) (size 15 to 20)
#    0.000    2.077    0.000    6.923    0.000    7.077 
#    0.000    0.385    0.000    2.308    0.000    0.538 
#    0.000    1.846    0.000    0.000    0.000   25.692 
#
# Total GULP energy -289670.593036 kJ/mol
# GULP energy per Si atom -5570.588328 kJ/mol
# Density = 1.786112 g / cm^3
# Si number density = 17.901863 Si / 1000 Ang^3
#
#
#
# Elastic Constant Matrix: (Units=GPa)
#
#
# Indices 1 2 3 4 5 6 
#
# 1 25.9396 8.4339 -2.3690 0.0000 0.0000 0.0000
# 2 8.4339 121.5664 1.9168 0.0000 0.0000 0.0000
# 3 -2.3690 1.9168 58.6108 0.0000 0.0000 0.0000
# 4 0.0000 0.0000 0.0000 5.1056 0.0000 0.0000
# 5 0.0000 0.0000 0.0000 0.0000 6.2739 0.0000
# 6 0.0000 0.0000 0.0000 0.0000 0.0000 19.3052
#
#
#
# Elastic Compliance Matrix: (Units=1/GPa)
#
#
# Indices 1 2 3 4 5 6 
#
# 1 0.039608 -0.002775 0.001692 0.000000 0.000000 0.000000
# 2 -0.002775 0.008425 -0.000388 0.000000 0.000000 0.000000
# 3 0.001692 -0.000388 0.017143 0.000000 0.000000 0.000000
# 4 0.000000 0.000000 0.000000 0.195864 0.000000 0.000000
# 5 0.000000 0.000000 0.000000 0.000000 0.159391 0.000000
# 6 0.000000 0.000000 0.000000 0.000000 0.000000 0.051799
#
#
# Mechanical properties :
#
#
# Convention : Reuss Voigt Hill
#
# Bulk Modulus (GPa) = 16.06841 24.67559 20.37200
# Shear Modulus (GPa) = 10.08238 19.34596 14.71417
#
# Velocity S-wave (km/s) = 2.37576 3.29092 2.87005
# Velocity P-wave (km/s) = 4.06460 5.31544 4.73154
#
# Compressibility (1/GPa) = 0.06223390
#
# Stress axis : x y z
#
# Youngs Moduli (GPa) = 25.24765 118.70061 58.33371
#
# Poissons Ratio (x) = 0.32934 -0.09868
# Poissons Ratio (y) = 0.07005 0.02261
# Poissons Ratio (z) = -0.04271 0.04602
#
# Static dielectric constant tensor:
#      x y z
#    x 1.590620 0.000000 0.000000 
#    y 0.000000 1.710940 0.000000 
#    z 0.000000 0.000000 1.619280 
# 
# From -- ./inp_files/41093.got.cif
#   From: 2010.05.17/outbox.cif.g08.bks.cpg/sg71_21_cif.got.tgz:41093.got - 2010.06.03 16:22:01.
