data_PCOD9517664
_publ_section_title
;
Structure prediction by ZEFSAII (Michael W. Deem and Ramdas Pophale) SiO2 
 PCOD9517664
Probable space group: I M M M
;
_chemical_formula_sum "Si O2"
_cell_formula_units_Z 96
_cell_length_a 27.565339
_cell_length_b 8.621467
_cell_length_c 23.487182
_cell_angle_alpha 90.000000
_cell_angle_beta 90.000000
_cell_angle_gamma 90.000000
_cell_volume 5581.814778
_symmetry_space_group_name_H-M "I M M M"
_symmetry_group_IT_number 71
_symmetry_cell_setting 'orthorhombic'
loop_
_space_group_symop_operation_xyz
x,y,z
-x,-y,z
x,-y,-z
-x,y,-z
-x,-y,-z
x,y,-z
-x,y,z
x,-y,z
1/2+x,1/2+y,1/2+z
1/2-x,1/2-y,1/2+z
1/2+x,1/2-y,1/2-z
1/2-x,1/2+y,1/2-z
1/2-x,1/2-y,1/2-z
1/2+x,1/2+y,1/2-z
1/2-x,1/2+y,1/2+z
1/2+x,1/2-y,1/2+z
loop_
_atom_site_type_symbol
_atom_site_label
_atom_site_fract_x
_atom_site_fract_y
_atom_site_fract_z
Si Si1 0.825727 0.314626 0.434097
Si Si2 0.556159 0.812093 0.731264
Si Si3 0.117458 0.819535 0.665561
Si Si4 0.800894 0.675139 0.262469
Si Si5 0.779913 0.686366 0.932616
Si Si6 0.363343 0.175336 0.351932
O O1 0.831077 0.264064 0.500000
O O2 0.825192 0.500000 0.432145
O O3 0.869949 0.254217 0.395444
O O4 0.772256 0.255328 0.414634
O O5 0.500000 0.769340 0.726295
O O6 0.578349 0.755890 0.791491
O O7 0.588363 0.754082 0.677273
O O8 0.560384 0.000000 0.730942
O O9 0.167711 0.786886 0.698430
O O10 0.107144 0.000000 0.659721
O O11 0.798023 0.500000 0.286640
O O12 0.750000 0.750000 0.250000
O O13 0.828847 0.663294 0.202977
O O14 0.777638 0.500000 0.923176
O O15 0.827670 0.746709 0.899379
O O16 0.785052 0.715096 0.000000
O O17 0.375997 0.000000 0.371861
#
# Coordination Sequence:
#
# PCOD9517664 Si02
#       6
#    16  16  16  16  16  16
#     4  10  20  33  49  70  98 131 166 200 232 277
#     4   9  18  34  54  71  90 121 161 206 254 300
#     4  11  21  32  48  70  97 126 157 197 245 297
#     4  10  18  28  43  65  95 128 162 198 238 287
#     4   9  16  27  45  69  99 133 165 197 235 282
#     4   8  15  27  43  65  91 121 158 195 234 283
#
# _framework density 17.198708
#
# number of rings (size 3 to 8) (size 9 to 14) (size 15 to 20)
#    0.000    2.500    0.000    4.500    0.000    2.667 
#    0.000    3.333    0.000    1.000    0.000    7.000 
#    0.000    0.000    0.000   10.167    0.000   11.000 
#
# Total GULP energy -267236.654918 kJ/mol
# GULP energy per Si atom -5567.430311 kJ/mol
# Density = 1.715956 g / cm^3
# Si number density = 17.198708 Si / 1000 Ang^3
#
#
#
# Elastic Constant Matrix: (Units=GPa)
#
#
# Indices 1 2 3 4 5 6 
#
# 1 72.1311 15.2824 9.5916 0.0000 0.0000 0.0000
# 2 15.2824 27.4784 9.7311 0.0000 0.0000 0.0000
# 3 9.5916 9.7311 53.4114 0.0000 0.0000 0.0000
# 4 0.0000 0.0000 0.0000 16.1513 0.0000 0.0000
# 5 0.0000 0.0000 0.0000 0.0000 25.5644 0.0000
# 6 0.0000 0.0000 0.0000 0.0000 0.0000 16.7736
#
#
#
# Elastic Compliance Matrix: (Units=1/GPa)
#
#
# Indices 1 2 3 4 5 6 
#
# 1 0.015802 -0.008320 -0.001322 0.000000 0.000000 0.000000
# 2 -0.008320 0.043283 -0.006392 0.000000 0.000000 0.000000
# 3 -0.001322 -0.006392 0.020124 0.000000 0.000000 0.000000
# 4 0.000000 0.000000 0.000000 0.061914 0.000000 0.000000
# 5 0.000000 0.000000 0.000000 0.000000 0.039117 0.000000
# 6 0.000000 0.000000 0.000000 0.000000 0.000000 0.059617
#
#
# Mechanical properties :
#
#
# Convention : Reuss Voigt Hill
#
# Bulk Modulus (GPa) = 21.21247 24.69232 22.95239
# Shear Modulus (GPa) = 17.38281 19.59226 18.48753
#
# Velocity S-wave (km/s) = 3.18261 3.37882 3.28218
# Velocity P-wave (km/s) = 5.08585 5.44152 5.26669
#
# Compressibility (1/GPa) = 0.04714208
#
# Stress axis : x y z
#
# Youngs Moduli (GPa) = 63.28207 23.10368 49.69072
#
# Poissons Ratio (x) = 0.19223 0.06568
# Poissons Ratio (y) = 0.52653 0.31760
# Poissons Ratio (z) = 0.08365 0.14767
#
# Static dielectric constant tensor:
#      x y z
#    x 1.550050 0.000000 0.000000 
#    y 0.000000 1.602410 0.000000 
#    z 0.000000 0.000000 1.622870 
# 
# From -- ./inp_files/13125.got.cif
#   From: 2010.05.17/outbox.cif.g08.bks.cpg/sg71_7_cif.got.tgz:13125.got - 2010.06.03 16:22:01.
