data_PCOD9517440
_publ_section_title
;
Structure prediction by ZEFSAII (Michael W. Deem and Ramdas Pophale) SiO2 
 PCOD9517440
Probable space group: I M M M
;
_chemical_formula_sum "Si O2"
_cell_formula_units_Z 68
_cell_length_a 18.308216
_cell_length_b 23.084596
_cell_length_c 7.325929
_cell_angle_alpha 90.000000
_cell_angle_beta 90.000000
_cell_angle_gamma 90.000000
_cell_volume 3096.214295
_symmetry_space_group_name_H-M "I M M M"
_symmetry_group_IT_number 71
_symmetry_cell_setting 'orthorhombic'
loop_
_space_group_symop_operation_xyz
x,y,z
-x,-y,z
x,-y,-z
-x,y,-z
-x,-y,-z
x,y,-z
-x,y,z
x,-y,z
1/2+x,1/2+y,1/2+z
1/2-x,1/2-y,1/2+z
1/2+x,1/2-y,1/2-z
1/2-x,1/2+y,1/2-z
1/2-x,1/2-y,1/2-z
1/2+x,1/2+y,1/2-z
1/2-x,1/2+y,1/2+z
1/2+x,1/2-y,1/2+z
loop_
_atom_site_type_symbol
_atom_site_label
_atom_site_fract_x
_atom_site_fract_y
_atom_site_fract_z
Si Si1 0.168463 0.725116 0.282445
Si Si2 0.582595 0.335916 0.777038
Si Si3 0.404984 0.000000 0.500000
Si Si4 0.642115 0.094237 0.790703
Si Si5 0.807760 0.936085 0.278911
O O1 0.161634 0.721345 0.500000
O O2 0.250000 0.750000 0.250000
O O3 0.112567 0.773830 0.216353
O O4 0.150638 0.660341 0.218364
O O5 0.500000 0.346628 0.719591
O O6 0.638644 0.385525 0.718357
O O7 0.583508 0.336117 0.000000
O O8 0.400551 0.051005 0.341061
O O9 0.726051 0.072054 0.791221
O O10 0.614807 0.094201 0.000000
O O11 0.802161 0.933578 0.500000
O O12 0.835054 0.000000 0.230340
#
# Coordination Sequence:
#
# PCOD9517440 Si02
#       5
#    16  16   4  16  16
#     4  10  20  32  54  81 110 147 196 242 287 341
#     4   9  18  32  51  77 113 154 197 239 281 337
#     4  12  22  36  56  82 122 144 188 236 300 360
#     4  11  21  33  53  85 114 150 189 240 292 344
#     4  10  17  29  49  76 113 153 193 229 274 329
#
# _framework density 21.962305000000001
#
# number of rings (size 3 to 8) (size 9 to 14) (size 15 to 20)
#    0.000    1.882    4.706    0.353    1.647    0.471 
#    0.000    2.353    0.000    2.824    0.000    3.294 
#    0.000    5.647    0.000    0.000    0.000    0.000 
#
# Total GULP energy -189438.251658 kJ/mol
# GULP energy per Si atom -5571.713284 kJ/mol
# Density = 2.191232 g / cm^3
# Si number density = 21.962305 Si / 1000 Ang^3
#
#
#
# Elastic Constant Matrix: (Units=GPa)
#
#
# Indices 1 2 3 4 5 6 
#
# 1 27.9895 -5.2828 -4.8971 0.0000 0.0000 0.0000
# 2 -5.2828 179.9041 29.6683 0.0000 0.0000 0.0000
# 3 -4.8971 29.6683 118.6703 0.0000 0.0000 0.0000
# 4 0.0000 0.0000 0.0000 17.6718 0.0000 0.0000
# 5 0.0000 0.0000 0.0000 0.0000 -4.0947 0.0000
# 6 0.0000 0.0000 0.0000 0.0000 0.0000 -38.8633
#
#
#
# Elastic Compliance Matrix: (Units=1/GPa)
#
#
# Indices 1 2 3 4 5 6 
#
# 1 0.036112 0.000850 0.001278 0.000000 0.000000 0.000000
# 2 0.000850 0.005818 -0.001419 0.000000 0.000000 0.000000
# 3 0.001278 -0.001419 0.008834 0.000000 0.000000 0.000000
# 4 0.000000 0.000000 0.000000 0.056587 0.000000 0.000000
# 5 0.000000 0.000000 0.000000 0.000000 -0.244218 0.000000
# 6 0.000000 0.000000 0.000000 0.000000 0.000000 -0.025731
#
#
# Mechanical properties :
#
#
# Convention : Reuss Voigt Hill
#
# Bulk Modulus (GPa) = 19.16459 40.61564 29.89012
# Shear Modulus (GPa) = -34.10141 15.41447 -9.34347
#
# Velocity S-wave (km/s) = -3.94474 2.65214 -2.06484
# Velocity P-wave (km/s) = 3.46452 5.28318 2.82038
#
# Compressibility (1/GPa) = 0.05217956
#
# Stress axis : x y z
#
# Youngs Moduli (GPa) = 27.69197 171.89410 113.19530
#
# Poissons Ratio (x) = -0.14605 -0.14464
# Poissons Ratio (y) = -0.02353 0.16066
# Poissons Ratio (z) = -0.03538 0.24398
#
# Static dielectric constant tensor:
#      x y z
#    x 1.769270 0.000000 0.000000 
#    y 0.000000 1.874440 0.000000 
#    z 0.000000 0.000000 1.880100 
# 
# From -- ./inp_files/7900.got.cif
#   From: 2010.05.17/outbox.cif.g08.bks.cpg/sg71_4_cif.got.tgz:7900.got - 2010.06.03 16:22:01.
