data_PCOD9517617
_publ_section_title
;
Structure prediction by ZEFSAII (Michael W. Deem and Ramdas Pophale) SiO2 
 PCOD9517617
Probable space group: I M M M
;
_chemical_formula_sum "Si O2"
_cell_formula_units_Z 120
_cell_length_a 25.468070
_cell_length_b 21.010528
_cell_length_c 14.371155
_cell_angle_alpha 90.000000
_cell_angle_beta 90.000000
_cell_angle_gamma 90.000000
_cell_volume 7689.970519
_symmetry_space_group_name_H-M "I M M M"
_symmetry_group_IT_number 71
_symmetry_cell_setting 'orthorhombic'
loop_
_space_group_symop_operation_xyz
x,y,z
-x,-y,z
x,-y,-z
-x,y,-z
-x,-y,-z
x,y,-z
-x,y,z
x,-y,z
1/2+x,1/2+y,1/2+z
1/2-x,1/2-y,1/2+z
1/2+x,1/2-y,1/2-z
1/2-x,1/2+y,1/2-z
1/2-x,1/2-y,1/2-z
1/2+x,1/2+y,1/2-z
1/2-x,1/2+y,1/2+z
1/2+x,1/2-y,1/2+z
loop_
_atom_site_type_symbol
_atom_site_label
_atom_site_fract_x
_atom_site_fract_y
_atom_site_fract_z
Si Si1 0.638989 0.113441 0.388337
Si Si2 0.439086 0.000000 0.386920
Si Si3 0.788999 0.069584 0.106986
Si Si4 0.060274 0.923436 0.605048
Si Si5 0.149632 0.874991 0.263148
Si Si6 0.759630 0.074841 0.610005
Si Si7 0.766679 0.704526 0.609201
Si Si8 0.168645 0.264293 0.788118
O O1 0.635222 0.122249 0.500000
O O2 0.595112 0.061989 0.359897
O O3 0.698276 0.087613 0.369748
O O4 0.635467 0.180094 0.335056
O O5 0.500000 0.000000 0.355782
O O6 0.439851 0.000000 0.500000
O O7 0.836919 0.080024 0.176556
O O8 0.751879 0.130951 0.119148
O O9 0.764443 0.000000 0.124976
O O10 0.806120 0.071107 0.000000
O O11 0.074777 0.903752 0.500000
O O12 0.100452 0.896163 0.677919
O O13 0.000000 0.904970 0.621960
O O14 0.062816 0.000000 0.607597
O O15 0.201511 0.882354 0.328712
O O16 0.142513 0.804035 0.225693
O O17 0.767956 0.086504 0.500000
O O18 0.771346 0.000000 0.627599
O O19 0.778411 0.716488 0.500000
O O20 0.811290 0.715611 0.685774
O O21 0.718614 0.749193 0.644410
#
# Coordination Sequence:
#
# PCOD9517617 Si02
#       8
#    16   8  16  16  16  16  16  16
#     4  10  18  32  50  71  99 125 153 196 243 294
#     4   9  18  34  56  78  97 121 154 196 253 310
#     4   9  17  28  42  60  84 120 165 198 223 259
#     4   9  18  33  52  72  92 117 152 194 239 283
#     4  11  20  29  44  67  97 127 159 189 232 281
#     4  10  18  27  44  73 102 127 155 194 248 297
#     4   9  17  30  43  60  95 135 165 192 226 278
#     4  10  20  29  41  68  94 128 167 189 233 289
#
# _framework density 15.604741000000001
#
# number of rings (size 3 to 8) (size 9 to 14) (size 15 to 20)
#    0.000    2.333    0.667    4.800    0.000    3.733 
#    1.200    0.667    0.000    0.400    0.000    1.867 
#    0.000    0.533    0.000    0.000    0.000    0.000 
#
# Total GULP energy -334452.043740 kJ/mol
# GULP energy per Si atom -5574.200729 kJ/mol
# Density = 1.556922 g / cm^3
# Si number density = 15.604741 Si / 1000 Ang^3
#
#
#
# Elastic Constant Matrix: (Units=GPa)
#
#
# Indices 1 2 3 4 5 6 
#
# 1 35.0664 23.2791 12.4499 0.0000 0.0000 0.0000
# 2 23.2791 89.6650 22.1020 0.0000 0.0000 0.0000
# 3 12.4499 22.1020 59.2887 0.0000 0.0000 0.0000
# 4 0.0000 0.0000 0.0000 29.8199 0.0000 0.0000
# 5 0.0000 0.0000 0.0000 0.0000 14.3848 0.0000
# 6 0.0000 0.0000 0.0000 0.0000 0.0000 10.7950
#
#
#
# Elastic Compliance Matrix: (Units=1/GPa)
#
#
# Indices 1 2 3 4 5 6 
#
# 1 0.035479 -0.008121 -0.004423 0.000000 0.000000 0.000000
# 2 -0.008121 0.014140 -0.003566 0.000000 0.000000 0.000000
# 3 -0.004423 -0.003566 0.019125 0.000000 0.000000 0.000000
# 4 0.000000 0.000000 0.000000 0.033535 0.000000 0.000000
# 5 0.000000 0.000000 0.000000 0.000000 0.069518 0.000000
# 6 0.000000 0.000000 0.000000 0.000000 0.000000 0.092636
#
#
# Mechanical properties :
#
#
# Convention : Reuss Voigt Hill
#
# Bulk Modulus (GPa) = 27.37903 33.29800 30.33851
# Shear Modulus (GPa) = 16.19040 19.41255 17.80147
#
# Velocity S-wave (km/s) = 3.22457 3.53089 3.38120
# Velocity P-wave (km/s) = 5.60778 6.16503 5.89300
#
# Compressibility (1/GPa) = 0.03652431
#
# Stress axis : x y z
#
# Youngs Moduli (GPa) = 28.18592 70.72151 52.28854
#
# Poissons Ratio (x) = 0.57432 0.23126
# Poissons Ratio (y) = 0.22890 0.18646
# Poissons Ratio (z) = 0.12466 0.25219
#
# Static dielectric constant tensor:
#      x y z
#    x 1.499750 0.000000 0.000000 
#    y 0.000000 1.547640 0.000000 
#    z 0.000000 0.000000 1.529570 
# 
# From -- ./inp_files/39661.got.cif
#   From: 2010.05.17/outbox.cif.g08.bks.cpg/sg71_20_cif.got.tgz:39661.got - 2010.06.03 16:22:01.
