data_PCOD9517089
_publ_section_title
;
Structure prediction by ZEFSAII (Michael W. Deem and Ramdas Pophale) SiO2 
 PCOD9517089
Probable space group: F D D D
;
_chemical_formula_sum "Si O2"
_cell_formula_units_Z 64
_cell_length_a 4.781590
_cell_length_b 17.040619
_cell_length_c 32.183435
_cell_angle_alpha 90.000000
_cell_angle_beta 90.000000
_cell_angle_gamma 90.000000
_cell_volume 2622.346623
_symmetry_space_group_name_H-M "F D D D"
_symmetry_group_IT_number 70
_space_group.IT_coordinate_system_code '2'
_symmetry_cell_setting 'orthorhombic'
loop_
_space_group_symop_operation_xyz
x,y,z
1/4-x,1/4-y,z
x,1/4-y,1/4-z
1/4-x,y,1/4-z
-x,-y,-z
3/4+x,3/4+y,-z
-x,3/4+y,3/4+z
3/4+x,-y,3/4+z
x,1/2+y,1/2+z
1/4-x,3/4-y,1/2+z
x,3/4-y,3/4-z
1/4-x,1/2+y,3/4-z
-x,1/2-y,1/2-z
3/4+x,1/4+y,1/2-z
-x,1/4+y,1/4+z
3/4+x,1/2-y,1/4+z
1/2+x,y,1/2+z
3/4-x,1/4-y,1/2+z
1/2+x,1/4-y,3/4-z
3/4-x,y,3/4-z
1/2-x,-y,1/2-z
1/4+x,3/4+y,1/2-z
1/2-x,3/4+y,1/4+z
1/4+x,-y,1/4+z
1/2+x,1/2+y,z
3/4-x,3/4-y,z
1/2+x,3/4-y,1/4-z
3/4-x,1/2+y,1/4-z
1/2-x,1/2-y,-z
1/4+x,1/4+y,-z
1/2-x,1/4+y,3/4+z
1/4+x,1/2-y,3/4+z
loop_
_atom_site_type_symbol
_atom_site_label
_atom_site_fract_x
_atom_site_fract_y
_atom_site_fract_z
Si Si1 0.024730 0.958587 0.955635
Si Si2 0.957963 0.460288 0.082320
O O1 0.875000 0.875000 0.960291
O O2 0.840478 0.998637 0.919613
O O3 0.341533 0.978582 0.942219
O O4 0.000000 0.000000 0.000000
O O5 0.875000 0.375000 0.063294
O O6 0.125000 0.444252 0.125000
#
# Coordination Sequence:
#
# PCOD9517089 Si02
#       2
#    32  32
#     4  12  26  45  70 102 142 188 241 302 365 437
#     4  12  25  45  71 102 141 187 239 299 368 440
#
# _framework density 24.405621
#
# number of rings (size 3 to 8) (size 9 to 14) (size 15 to 20)
#    0.000    0.000    0.000   12.000    0.000    6.000 
#    0.000    0.000    0.000    0.000    0.000    0.000 
#    0.000    0.000    0.000    0.000    0.000    0.000 
#
# Total GULP energy -89202.710193 kJ/mol
# GULP energy per Si atom -5575.169387 kJ/mol
# Density = 2.435007 g / cm^3
# Si number density = 24.405621 Si / 1000 Ang^3
#
#
#
# Elastic Constant Matrix: (Units=GPa)
#
#
# Indices 1 2 3 4 5 6 
#
# 1 166.2823 33.1021 27.5033 0.0000 0.0000 0.0000
# 2 33.1021 195.7333 27.8045 0.0000 0.0000 0.0000
# 3 27.5033 27.8045 88.5763 0.0000 0.0000 0.0000
# 4 0.0000 0.0000 0.0000 -14.8040 0.0000 0.0000
# 5 0.0000 0.0000 0.0000 0.0000 21.4503 0.0000
# 6 0.0000 0.0000 0.0000 0.0000 0.0000 47.4480
#
#
#
# Elastic Compliance Matrix: (Units=1/GPa)
#
#
# Indices 1 2 3 4 5 6 
#
# 1 0.006471 -0.000847 -0.001743 0.000000 0.000000 0.000000
# 2 -0.000847 0.005458 -0.001450 0.000000 0.000000 0.000000
# 3 -0.001743 -0.001450 0.012286 0.000000 0.000000 0.000000
# 4 0.000000 0.000000 0.000000 -0.067549 0.000000 0.000000
# 5 0.000000 0.000000 0.000000 0.000000 0.046619 0.000000
# 6 0.000000 0.000000 0.000000 0.000000 0.000000 0.021076
#
#
# Mechanical properties :
#
#
# Convention : Reuss Voigt Hill
#
# Bulk Modulus (GPa) = 61.98005 69.71241 65.84623
# Shear Modulus (GPa) = 132.20426 34.96432 83.58429
#
# Velocity S-wave (km/s) = 7.36798 3.78912 5.85853
# Velocity P-wave (km/s) = 9.89110 6.91154 8.53239
#
# Compressibility (1/GPa) = 0.01613422
#
# Stress axis : x y z
#
# Youngs Moduli (GPa) = 154.54080 183.20979 81.39116
#
# Poissons Ratio (x) = 0.15512 0.14190
# Poissons Ratio (y) = 0.13084 0.11806
# Poissons Ratio (z) = 0.26943 0.26574
#
# Static dielectric constant tensor:
#      x y z
#    x 2.042420 0.000000 0.000000 
#    y 0.000000 2.003090 0.000000 
#    z 0.000000 0.000000 1.894060 
# 
# From -- ./inp_files/1141.got.cif
#   From: 2010.05.17/outbox.cif.g08.bks.cpg/sg70_1_cif.got.tgz:1141.got - 2010.06.03 15:57:51.
