data_PCOD9517525
_publ_section_title
;
Structure prediction by ZEFSAII (Michael W. Deem and Ramdas Pophale) SiO2 
 PCOD9517525
Probable space group: I M M M
;
_chemical_formula_sum "Si O2"
_cell_formula_units_Z 104
_cell_length_a 9.202468
_cell_length_b 27.476823
_cell_length_c 33.362642
_cell_angle_alpha 90.000000
_cell_angle_beta 90.000000
_cell_angle_gamma 90.000000
_cell_volume 8435.896977
_symmetry_space_group_name_H-M "I M M M"
_symmetry_group_IT_number 71
_symmetry_cell_setting 'orthorhombic'
loop_
_space_group_symop_operation_xyz
x,y,z
-x,-y,z
x,-y,-z
-x,y,-z
-x,-y,-z
x,y,-z
-x,y,z
x,-y,z
1/2+x,1/2+y,1/2+z
1/2-x,1/2-y,1/2+z
1/2+x,1/2-y,1/2-z
1/2-x,1/2+y,1/2-z
1/2-x,1/2-y,1/2-z
1/2+x,1/2+y,1/2-z
1/2-x,1/2+y,1/2+z
1/2+x,1/2-y,1/2+z
loop_
_atom_site_type_symbol
_atom_site_label
_atom_site_fract_x
_atom_site_fract_y
_atom_site_fract_z
Si Si1 0.675384 0.622953 0.064691
Si Si2 0.332551 0.291775 0.303228
Si Si3 0.833469 0.678864 0.773175
Si Si4 0.168011 0.262141 0.379689
Si Si5 0.833588 0.149891 0.348278
Si Si6 0.827945 0.274416 0.954152
Si Si7 0.671151 0.058093 0.500000
O O1 0.500000 0.624584 0.059709
O O2 0.706478 0.619268 0.112278
O O3 0.745650 0.673857 0.050170
O O4 0.748430 0.581251 0.038336
O O5 0.500000 0.305163 0.309301
O O6 0.259660 0.321860 0.267341
O O7 0.330291 0.235226 0.288397
O O8 0.243082 0.292729 0.344447
O O9 0.767113 0.647844 0.809528
O O10 0.000000 0.666250 0.765258
O O11 0.169643 0.205969 0.363935
O O12 0.257576 0.260520 0.420885
O O13 0.000000 0.275461 0.385735
O O14 0.000000 0.139253 0.337052
O O15 0.000000 0.281176 0.946167
O O16 0.810938 0.257610 0.000000
O O17 0.500000 0.071837 0.500000
O O18 0.681694 0.000000 0.500000
#
# Coordination Sequence:
#
# PCOD9517525 Si02
#       7
#    16  16  16  16  16  16   8
#     4  10  19  30  44  56  67  81  99 122 149 182
#     4   9  15  22  31  42  60  82 101 123 147 171
#     4   9  15  21  31  46  61  80 101 119 139 168
#     4   9  16  24  33  45  61  80 103 127 149 178
#     4   8  15  25  35  49  64  78  95 117 143 172
#     4  10  18  26  37  51  66  82 101 126 157 190
#     4  11  23  35  45  57  71  85 101 123 155 195
#
# _framework density 12.328268
#
# number of rings (size 3 to 8) (size 9 to 14) (size 15 to 20)
#    0.000    2.692    0.769    3.462    0.000    9.538 
#    0.000    0.000    0.000    0.000    0.000    0.000 
#    0.000    0.000    0.000    0.000    0.000    0.000 
#
# Total GULP energy -289493.945704 kJ/mol
# GULP energy per Si atom -5567.191264 kJ/mol
# Density = 1.230021 g / cm^3
# Si number density = 12.328268 Si / 1000 Ang^3
#
#
#
# Elastic Constant Matrix: (Units=GPa)
#
#
# Indices 1 2 3 4 5 6 
#
# 1 108.0254 18.1471 72.4578 0.0000 0.0000 0.0000
# 2 18.1471 12.5474 23.9892 0.0000 0.0000 0.0000
# 3 72.4578 23.9892 105.2477 0.0000 0.0000 0.0000
# 4 0.0000 0.0000 0.0000 6.9825 0.0000 0.0000
# 5 0.0000 0.0000 0.0000 0.0000 25.3907 0.0000
# 6 0.0000 0.0000 0.0000 0.0000 0.0000 7.6567
#
#
#
# Elastic Compliance Matrix: (Units=1/GPa)
#
#
# Indices 1 2 3 4 5 6 
#
# 1 0.017311 -0.003990 -0.011009 0.000000 0.000000 0.000000
# 2 -0.003990 0.142171 -0.029658 0.000000 0.000000 0.000000
# 3 -0.011009 -0.029658 0.023840 0.000000 0.000000 0.000000
# 4 0.000000 0.000000 0.000000 0.143215 0.000000 0.000000
# 5 0.000000 0.000000 0.000000 0.000000 0.039385 0.000000
# 6 0.000000 0.000000 0.000000 0.000000 0.000000 0.130604
#
#
# Mechanical properties :
#
#
# Convention : Reuss Voigt Hill
#
# Bulk Modulus (GPa) = 10.63725 50.55653 30.59689
# Shear Modulus (GPa) = 8.10141 15.42108 11.76124
#
# Velocity S-wave (km/s) = 2.56626 3.54060 3.09205
# Velocity P-wave (km/s) = 4.17468 7.60343 6.13352
#
# Compressibility (1/GPa) = 0.09400929
#
# Stress axis : x y z
#
# Youngs Moduli (GPa) = 57.76564 7.03376 41.94595
#
# Poissons Ratio (x) = 0.02807 0.46176
# Poissons Ratio (y) = 0.23050 1.24404
# Poissons Ratio (z) = 0.63591 0.20861
#
# Static dielectric constant tensor:
#      x y z
#    x 1.415380 0.000000 0.000000 
#    y 0.000000 1.352560 0.000000 
#    z 0.000000 0.000000 1.420300 
# 
# From -- ./inp_files/68548.got.cif
#   From: 2010.05.17/outbox.cif.g08.bks.cpg/sg71_35_cif.got.tgz:68548.got - 2010.06.03 16:22:01.
