data_PCOD9517276
_publ_section_title
;
Structure prediction by ZEFSAII (Michael W. Deem and Ramdas Pophale) SiO2 
 PCOD9517276
Probable space group: I M M M
;
_chemical_formula_sum "Si O2"
_cell_formula_units_Z 72
_cell_length_a 19.323140
_cell_length_b 13.536405
_cell_length_c 14.448720
_cell_angle_alpha 90.000000
_cell_angle_beta 90.000000
_cell_angle_gamma 90.000000
_cell_volume 3779.291712
_symmetry_space_group_name_H-M "I M M M"
_symmetry_group_IT_number 71
_symmetry_cell_setting 'orthorhombic'
loop_
_space_group_symop_operation_xyz
x,y,z
-x,-y,z
x,-y,-z
-x,y,-z
-x,-y,-z
x,y,-z
-x,y,z
x,-y,z
1/2+x,1/2+y,1/2+z
1/2-x,1/2-y,1/2+z
1/2+x,1/2-y,1/2-z
1/2-x,1/2+y,1/2-z
1/2-x,1/2-y,1/2-z
1/2+x,1/2+y,1/2-z
1/2-x,1/2+y,1/2+z
1/2+x,1/2-y,1/2+z
loop_
_atom_site_type_symbol
_atom_site_label
_atom_site_fract_x
_atom_site_fract_y
_atom_site_fract_z
Si Si1 0.642073 0.716728 0.311279
Si Si2 0.807825 0.109468 0.500000
Si Si3 0.792462 0.616727 0.703280
Si Si4 0.871192 0.885451 0.000000
Si Si5 0.424424 0.389813 0.155344
Si Si6 0.216830 0.672512 0.500000
O O1 0.712400 0.652454 0.293632
O O2 0.667787 0.826498 0.285644
O O3 0.613471 0.679590 0.409187
O O4 0.586641 0.688355 0.234634
O O5 0.860499 0.115745 0.414110
O O6 0.764494 0.210285 0.500000
O O7 0.774658 0.000000 0.500000
O O8 0.796537 0.500000 0.712355
O O9 0.817887 0.648713 0.599222
O O10 0.787260 0.889428 0.000000
O O11 0.896434 0.000000 0.000000
O O12 0.500000 0.379215 0.110485
O O13 0.422007 0.500000 0.197060
#
# Coordination Sequence:
#
# PCOD9517276 Si02
#       6
#    16   8  16   8  16   8
#     4  10  19  33  50  73  99 131 173 205 251 300
#     4  10  19  30  46  75 108 135 163 202 249 307
#     4  10  19  31  51  75 102 132 165 206 254 303
#     4  10  20  34  50  71 104 136 162 203 261 309
#     4  10  19  32  50  72 101 137 170 205 253 302
#     4  10  16  31  48  74 102 137 161 193 249 318
#
# _framework density 19.051188
#
# number of rings (size 3 to 8) (size 9 to 14) (size 15 to 20)
#    0.000    2.000    2.222    4.667    0.000    1.333 
#    0.000    1.111    0.000    2.667    0.000    1.556 
#    0.000    1.778    0.000    0.000    0.000    0.000 
#
# Total GULP energy -200470.386871 kJ/mol
# GULP energy per Si atom -5568.621858 kJ/mol
# Density = 1.900783 g / cm^3
# Si number density = 19.051188 Si / 1000 Ang^3
#
#
#
# Elastic Constant Matrix: (Units=GPa)
#
#
# Indices 1 2 3 4 5 6 
#
# 1 14.4794 5.6557 -5.1826 0.0000 0.0000 0.0000
# 2 5.6557 161.5337 35.3913 0.0000 0.0000 0.0000
# 3 -5.1826 35.3913 90.1420 0.0000 0.0000 0.0000
# 4 0.0000 0.0000 0.0000 20.7050 0.0000 0.0000
# 5 0.0000 0.0000 0.0000 0.0000 31.0755 0.0000
# 6 0.0000 0.0000 0.0000 0.0000 0.0000 11.2270
#
#
#
# Elastic Compliance Matrix: (Units=1/GPa)
#
#
# Indices 1 2 3 4 5 6 
#
# 1 0.072564 -0.003780 0.005656 0.000000 0.000000 0.000000
# 2 -0.003780 0.006970 -0.002954 0.000000 0.000000 0.000000
# 3 0.005656 -0.002954 0.012579 0.000000 0.000000 0.000000
# 4 0.000000 0.000000 0.000000 0.048297 0.000000 0.000000
# 5 0.000000 0.000000 0.000000 0.000000 0.032180 0.000000
# 6 0.000000 0.000000 0.000000 0.000000 0.000000 0.089071
#
#
# Mechanical properties :
#
#
# Convention : Reuss Voigt Hill
#
# Bulk Modulus (GPa) = 11.11637 37.54266 24.32951
# Shear Modulus (GPa) = 17.01824 27.95423 22.48624
#
# Velocity S-wave (km/s) = 2.99204 3.83472 3.43929
# Velocity P-wave (km/s) = 4.21712 6.27342 5.34508
#
# Compressibility (1/GPa) = 0.08995741
#
# Stress axis : x y z
#
# Youngs Moduli (GPa) = 13.78089 143.46805 79.50036
#
# Poissons Ratio (x) = 0.54229 -0.44965
# Poissons Ratio (y) = 0.05209 0.23484
# Poissons Ratio (z) = -0.07794 0.42380
#
# Static dielectric constant tensor:
#      x y z
#    x 1.653190 0.000000 0.000000 
#    y 0.000000 1.675520 0.000000 
#    z 0.000000 0.000000 1.757880 
# 
# From -- ./inp_files/38912.got.cif
#   From: 2010.05.17/outbox.cif.g08.bks.cpg/sg71_20_cif.got.tgz:38912.got - 2010.06.03 16:22:01.
