data_PCOD9517357
_publ_section_title
;
Structure prediction by ZEFSAII (Michael W. Deem and Ramdas Pophale) SiO2 
 PCOD9517357
Probable space group: I M M M
;
_chemical_formula_sum "Si O2"
_cell_formula_units_Z 120
_cell_length_a 7.302361
_cell_length_b 29.720827
_cell_length_c 25.089021
_cell_angle_alpha 90.000000
_cell_angle_beta 90.000000
_cell_angle_gamma 90.000000
_cell_volume 5445.125623
_symmetry_space_group_name_H-M "I M M M"
_symmetry_group_IT_number 71
_symmetry_cell_setting 'orthorhombic'
loop_
_space_group_symop_operation_xyz
x,y,z
-x,-y,z
x,-y,-z
-x,y,-z
-x,-y,-z
x,y,-z
-x,y,z
x,-y,z
1/2+x,1/2+y,1/2+z
1/2-x,1/2-y,1/2+z
1/2+x,1/2-y,1/2-z
1/2-x,1/2+y,1/2-z
1/2-x,1/2-y,1/2-z
1/2+x,1/2+y,1/2-z
1/2-x,1/2+y,1/2+z
1/2+x,1/2-y,1/2+z
loop_
_atom_site_type_symbol
_atom_site_label
_atom_site_fract_x
_atom_site_fract_y
_atom_site_fract_z
Si Si1 0.781744 0.278968 0.126392
Si Si2 0.223695 0.419091 0.362548
Si Si3 0.220376 0.683433 0.236771
Si Si4 0.717758 0.182392 0.144496
Si Si5 0.780115 0.422053 0.242021
Si Si6 0.223432 0.548566 0.871383
Si Si7 0.276522 0.000000 0.061465
Si Si8 0.276281 0.865102 0.438962
O O1 0.708844 0.289542 0.185992
O O2 0.748604 0.227306 0.110777
O O3 0.715886 0.318193 0.087433
O O4 0.000000 0.284305 0.129018
O O5 0.282233 0.367229 0.372690
O O6 0.283355 0.431597 0.302156
O O7 0.281527 0.455676 0.405785
O O8 0.000000 0.419621 0.362496
O O9 0.291037 0.693264 0.296010
O O10 0.254561 0.630413 0.229539
O O11 0.000000 0.689484 0.237979
O O12 0.500000 0.177316 0.149616
O O13 0.715554 0.448177 0.190160
O O14 0.000000 0.427987 0.244198
O O15 0.276528 0.500000 0.893921
O O16 0.282979 0.591966 0.904408
O O17 0.000000 0.550144 0.870793
O O18 0.500000 0.000000 0.061312
O O19 0.218017 0.000000 0.000000
O O20 0.219176 0.868721 0.500000
O O21 0.500000 0.865227 0.438257
#
# Coordination Sequence:
#
# PCOD9517357 Si02
#       8
#    16  16  16  16  16  16   8  16
#     4  10  17  27  44  62  83 116 153 179 209 256
#     4   8  15  25  38  57  82 111 137 169 213 259
#     4   8  13  23  39  58  83 115 144 173 211 260
#     4   9  17  28  42  64  92 114 138 177 224 259
#     4   8  12  20  33  52  79 107 136 169 211 258
#     4   9  15  21  33  54  79 109 140 172 213 259
#     4   9  16  26  40  58  81 113 148 174 204 256
#     4   9  17  28  39  53  78 112 148 181 213 255
#
# _framework density 22.038057999999999
#
# number of rings (size 3 to 8) (size 9 to 14) (size 15 to 20)
#    0.000    3.267    1.333    2.000    0.933    0.267 
#    0.000    2.000    0.000    1.200    0.000    0.467 
#    0.000    1.067    0.000    2.133    0.000    1.333 
#
# Total GULP energy -334717.906278 kJ/mol
# GULP energy per Si atom -5578.631771 kJ/mol
# Density = 2.198790 g / cm^3
# Si number density = 22.038058 Si / 1000 Ang^3
#
#
#
# Elastic Constant Matrix: (Units=GPa)
#
#
# Indices 1 2 3 4 5 6 
#
# 1 89.0917 5.5683 3.1932 0.0000 0.0000 0.0000
# 2 5.5683 191.6439 130.2516 0.0000 0.0000 0.0000
# 3 3.1932 130.2516 127.0697 0.0000 0.0000 0.0000
# 4 0.0000 0.0000 0.0000 17.2983 0.0000 0.0000
# 5 0.0000 0.0000 0.0000 0.0000 -28.6152 0.0000
# 6 0.0000 0.0000 0.0000 0.0000 0.0000 1.1021
#
#
#
# Elastic Compliance Matrix: (Units=1/GPa)
#
#
# Indices 1 2 3 4 5 6 
#
# 1 0.011246 -0.000444 0.000173 0.000000 0.000000 0.000000
# 2 -0.000444 0.017220 -0.017640 0.000000 0.000000 0.000000
# 3 0.000173 -0.017640 0.025947 0.000000 0.000000 0.000000
# 4 0.000000 0.000000 0.000000 0.057809 0.000000 0.000000
# 5 0.000000 0.000000 0.000000 0.000000 -0.034946 0.000000
# 6 0.000000 0.000000 0.000000 0.000000 0.000000 0.907344
#
#
# Mechanical properties :
#
#
# Convention : Reuss Voigt Hill
#
# Bulk Modulus (GPa) = 53.79229 76.20350 64.99790
# Shear Modulus (GPa) = 4.87026 15.87653 10.37339
#
# Velocity S-wave (km/s) = 1.48820 2.68696 2.17192
# Velocity P-wave (km/s) = 5.23591 6.65429 5.98725
#
# Compressibility (1/GPa) = 0.01859002
#
# Stress axis : x y z
#
# Youngs Moduli (GPa) = 88.92088 58.07152 38.53968
#
# Poissons Ratio (x) = 0.02578 -0.00665
# Poissons Ratio (y) = 0.03948 0.67985
# Poissons Ratio (z) = -0.01534 1.02439
#
# Static dielectric constant tensor:
#      x y z
#    x 1.978850 0.000000 0.000000 
#    y 0.000000 1.822710 0.000000 
#    z 0.000000 0.000000 1.767210 
# 
# From -- ./inp_files/59309.got.cif
#   From: 2010.05.17/outbox.cif.g08.bks.cpg/sg71_30_cif.got.tgz:59309.got - 2010.06.03 16:22:01.
