data_PCOD9517165
_publ_section_title
;
Structure prediction by ZEFSAII (Michael W. Deem and Ramdas Pophale) SiO2 
 PCOD9517165
Probable space group: F D D D
;
_chemical_formula_sum "Si O2"
_cell_formula_units_Z 40
_cell_length_a 24.000000
_cell_length_b 15.000000
_cell_length_c 24.000000
_cell_angle_alpha 90.000000
_cell_angle_beta 90.000000
_cell_angle_gamma 90.000000
_cell_volume 8640.000000
_symmetry_space_group_name_H-M "F D D D"
_symmetry_group_IT_number 70
_space_group.IT_coordinate_system_code '2'
_symmetry_cell_setting 'orthorhombic'
loop_
_space_group_symop_operation_xyz
x,y,z
1/4-x,1/4-y,z
x,1/4-y,1/4-z
1/4-x,y,1/4-z
-x,-y,-z
3/4+x,3/4+y,-z
-x,3/4+y,3/4+z
3/4+x,-y,3/4+z
x,1/2+y,1/2+z
1/4-x,3/4-y,1/2+z
x,3/4-y,3/4-z
1/4-x,1/2+y,3/4-z
-x,1/2-y,1/2-z
3/4+x,1/4+y,1/2-z
-x,1/4+y,1/4+z
3/4+x,1/2-y,1/4+z
1/2+x,y,1/2+z
3/4-x,1/4-y,1/2+z
1/2+x,1/4-y,3/4-z
3/4-x,y,3/4-z
1/2-x,-y,1/2-z
1/4+x,3/4+y,1/2-z
1/2-x,3/4+y,1/4+z
1/4+x,-y,1/4+z
1/2+x,1/2+y,z
3/4-x,3/4-y,z
1/2+x,3/4-y,1/4-z
3/4-x,1/2+y,1/4-z
1/2-x,1/2-y,-z
1/4+x,1/4+y,-z
1/2-x,1/4+y,3/4+z
1/4+x,1/2-y,3/4+z
loop_
_atom_site_type_symbol
_atom_site_label
_atom_site_fract_x
_atom_site_fract_y
_atom_site_fract_z
Si Si1 0.338021 0.069133 0.713168
Si Si2 0.889047 0.277274 0.939491
Si Si3 0.689700 0.149453 0.892256
Si Si4 0.481857 0.995968 0.215228
Si Si5 0.716911 0.801233 0.828146
O O1 0.304105 0.161968 0.712732
O O2 0.401302 0.072664 0.687216
O O3 0.351626 0.041213 0.776250
O O4 0.305236 0.987292 0.682443
O O5 0.875000 0.273555 0.875000
O O6 0.875000 0.375000 0.962642
O O7 0.954553 0.265821 0.947692
O O8 0.625000 0.125000 0.894472
O O9 0.706321 0.181365 0.830995
O O10 0.718638 0.054610 0.905941
O O11 0.491592 0.948057 0.274896
O O12 0.731845 0.875000 0.875000
#
# Coordination Sequence:
#
# PCOD9517165 Si02
#       5
#    32  32  32  32  32
#     4  10  20  38  62  89 119 159 205 242 303 370
#     4  10  23  36  52  92 132 156 194 249 301 365
#     4  10  21  38  63  89 117 157 207 255 290 361
#     4  11  23  37  65  90 118 168 195 247 313 351
#     4  10  22  40  59  87 120 155 208 252 290 359
#
# _framework density 4.6296299999999997
#
# number of rings (size 3 to 8) (size 9 to 14) (size 15 to 20)
#    0.000    1.800    0.000    6.000    8.400    2.400 
#    0.000    0.000    0.000    0.000    0.000    0.000 
#    0.000    0.000    0.000    0.000    0.000    0.000 
#
# Total GULP energy -223082.286785 kJ/mol
# GULP energy per Si atom -5577.057170 kJ/mol
# Density = 0.461909 g / cm^3
# Si number density = 4.629630 Si / 1000 Ang^3
#
#
#
# Elastic Constant Matrix: (Units=GPa)
#
#
# Indices 1 2 3 4 5 6 
#
# 1 33.4792 26.5109 30.9693 0.0000 0.0000 0.0000
# 2 26.5109 75.2325 55.6661 0.0000 0.0000 0.0000
# 3 30.9693 55.6661 122.0937 0.0000 0.0000 0.0000
# 4 0.0000 0.0000 0.0000 46.0482 0.0000 0.0000
# 5 0.0000 0.0000 0.0000 0.0000 37.5812 0.0000
# 6 0.0000 0.0000 0.0000 0.0000 0.0000 -85.7309
#
#
#
# Elastic Compliance Matrix: (Units=1/GPa)
#
#
# Indices 1 2 3 4 5 6 
#
# 1 0.044358 -0.011025 -0.006225 0.000000 0.000000 0.000000
# 2 -0.011025 0.022799 -0.007598 0.000000 0.000000 0.000000
# 3 -0.006225 -0.007598 0.013234 0.000000 0.000000 0.000000
# 4 0.000000 0.000000 0.000000 0.021716 0.000000 0.000000
# 5 0.000000 0.000000 0.000000 0.000000 0.026609 0.000000
# 6 0.000000 0.000000 0.000000 0.000000 0.000000 -0.011664
#
#
# Mechanical properties :
#
#
# Convention : Reuss Voigt Hill
#
# Bulk Modulus (GPa) = 32.57941 50.78866 41.68403
# Shear Modulus (GPa) = 28.25179 7.42365 17.83772
#
# Velocity S-wave (km/s) = 3.91013 2.00436 3.10697
# Velocity P-wave (km/s) = 6.16575 5.73080 5.95225
#
# Compressibility (1/GPa) = 0.03069424
#
# Stress axis : x y z
#
# Youngs Moduli (GPa) = 22.54397 43.86066 75.56493
#
# Poissons Ratio (x) = 0.48358 0.47037
# Poissons Ratio (y) = 0.24855 0.57417
# Poissons Ratio (z) = 0.14033 0.33327
#
# Static dielectric constant tensor:
#      x y z
#    x 1.633950 0.000000 0.000000 
#    y 0.000000 1.636050 0.000000 
#    z 0.000000 0.000000 1.689110 
# 
# From -- ./inp_files/28603.got.cif
#   From: 2010.05.17/outbox.ucp.g08.bks.cvg/sg70_15_cif.got.tgz:28603.got - 2010.06.11 16:26:41.
