data_PCOD9517137
_publ_section_title
;
Structure prediction by ZEFSAII (Michael W. Deem and Ramdas Pophale) SiO2 
 PCOD9517137
Probable space group: F D D D
;
_chemical_formula_sum "Si O2"
_cell_formula_units_Z 40
_cell_length_a 6.279682
_cell_length_b 8.984835
_cell_length_c 25.404943
_cell_angle_alpha 90.000000
_cell_angle_beta 90.000000
_cell_angle_gamma 90.000000
_cell_volume 1433.395322
_symmetry_space_group_name_H-M "F D D D"
_symmetry_group_IT_number 70
_space_group.IT_coordinate_system_code '2'
_symmetry_cell_setting 'orthorhombic'
loop_
_space_group_symop_operation_xyz
x,y,z
1/4-x,1/4-y,z
x,1/4-y,1/4-z
1/4-x,y,1/4-z
-x,-y,-z
3/4+x,3/4+y,-z
-x,3/4+y,3/4+z
3/4+x,-y,3/4+z
x,1/2+y,1/2+z
1/4-x,3/4-y,1/2+z
x,3/4-y,3/4-z
1/4-x,1/2+y,3/4-z
-x,1/2-y,1/2-z
3/4+x,1/4+y,1/2-z
-x,1/4+y,1/4+z
3/4+x,1/2-y,1/4+z
1/2+x,y,1/2+z
3/4-x,1/4-y,1/2+z
1/2+x,1/4-y,3/4-z
3/4-x,y,3/4-z
1/2-x,-y,1/2-z
1/4+x,3/4+y,1/2-z
1/2-x,3/4+y,1/4+z
1/4+x,-y,1/4+z
1/2+x,1/2+y,z
3/4-x,3/4-y,z
1/2+x,3/4-y,1/4-z
3/4-x,1/2+y,1/4-z
1/2-x,1/2-y,-z
1/4+x,1/4+y,-z
1/2-x,1/4+y,3/4+z
1/4+x,1/2-y,3/4+z
loop_
_atom_site_type_symbol
_atom_site_label
_atom_site_fract_x
_atom_site_fract_y
_atom_site_fract_z
Si Si1 0.924835 0.727401 0.034826
Si Si2 0.625000 0.125000 0.625000
O O1 0.779174 0.720113 0.087541
O O2 0.125000 0.625000 0.050000
O O3 0.803755 0.624049 0.989673
#
# Coordination Sequence:
#
# PCOD9517137 Si02
#       2
#    32   8
#     4  12  28  50  80 117 165 221 285 352 428 511
#     4  12  30  44  82 110 168 220 278 354 424 516
#
# _framework density 27.90577
#
# number of rings (size 3 to 8) (size 9 to 14) (size 15 to 20)
#    0.000    0.000    4.000    3.600   11.200    0.000 
#    0.000    0.000    0.000    0.000    0.000    0.000 
#    0.000    0.000    0.000    0.000    0.000    0.000 
#
# Total GULP energy -55753.444460 kJ/mol
# GULP energy per Si atom -5575.344446 kJ/mol
# Density = 2.784226 g / cm^3
# Si number density = 27.905770 Si / 1000 Ang^3
#
#
#
# Elastic Constant Matrix: (Units=GPa)
#
#
# Indices 1 2 3 4 5 6 
#
# 1 242.0327 98.4320 133.5389 0.0000 0.0000 0.0000
# 2 98.4320 244.9172 68.4021 0.0000 0.0000 0.0000
# 3 133.5389 68.4021 212.2399 0.0000 0.0000 0.0000
# 4 0.0000 0.0000 0.0000 34.6336 0.0000 0.0000
# 5 0.0000 0.0000 0.0000 0.0000 5993.3623 0.0000
# 6 0.0000 0.0000 0.0000 0.0000 0.0000 0.5624
#
#
#
# Elastic Compliance Matrix: (Units=1/GPa)
#
#
# Indices 1 2 3 4 5 6 
#
# 1 0.006933 -0.001723 -0.003807 0.000000 0.000000 0.000000
# 2 -0.001723 0.004915 -0.000500 0.000000 0.000000 0.000000
# 3 -0.003807 -0.000500 0.007268 0.000000 0.000000 0.000000
# 4 0.000000 0.000000 0.000000 0.028874 0.000000 0.000000
# 5 0.000000 0.000000 0.000000 0.000000 0.000167 0.000000
# 6 0.000000 0.000000 0.000000 0.000000 0.000000 1.777972
#
#
# Mechanical properties :
#
#
# Convention : Reuss Voigt Hill
#
# Bulk Modulus (GPa) = 141.71601 144.43730 143.07666
# Shear Modulus (GPa) = 2.71659 1232.29946 617.50802
#
# Velocity S-wave (km/s) = 0.98773 21.03691 14.89173
# Velocity P-wave (km/s) = 7.22460 25.33654 18.62975
#
# Compressibility (1/GPa) = 0.00705637
#
# Stress axis : x y z
#
# Youngs Moduli (GPa) = 144.24353 203.45255 137.59184
#
# Poissons Ratio (x) = 0.35057 0.52376
# Poissons Ratio (y) = 0.24855 0.06879
# Poissons Ratio (z) = 0.54909 0.10171
#
# Static dielectric constant tensor:
#      x y z
#    x 2.494810 0.000000 0.000000 
#    y 0.000000 2.778120 0.000000 
#    z 0.000000 0.000000 2.067060 
# 
# From -- ./inp_files/204.got.cif
#   From: 2010.05.17/outbox.cif.g08.bks.cpg/sg70_1_cif.got.tgz:204.got - 2010.06.03 15:57:51.
