data_PCOD9517312
_publ_section_title
;
Structure prediction by ZEFSAII (Michael W. Deem and Ramdas Pophale) SiO2 
 PCOD9517312
Probable space group: I M M M
;
_chemical_formula_sum "Si O2"
_cell_formula_units_Z 96
_cell_length_a 8.885687
_cell_length_b 28.968856
_cell_length_c 29.843694
_cell_angle_alpha 90.000000
_cell_angle_beta 90.000000
_cell_angle_gamma 90.000000
_cell_volume 7682.011171
_symmetry_space_group_name_H-M "I M M M"
_symmetry_group_IT_number 71
_symmetry_cell_setting 'orthorhombic'
loop_
_space_group_symop_operation_xyz
x,y,z
-x,-y,z
x,-y,-z
-x,y,-z
-x,-y,-z
x,y,-z
-x,y,z
x,-y,z
1/2+x,1/2+y,1/2+z
1/2-x,1/2-y,1/2+z
1/2+x,1/2-y,1/2-z
1/2-x,1/2+y,1/2-z
1/2-x,1/2-y,1/2-z
1/2+x,1/2+y,1/2-z
1/2-x,1/2+y,1/2+z
1/2+x,1/2-y,1/2+z
loop_
_atom_site_type_symbol
_atom_site_label
_atom_site_fract_x
_atom_site_fract_y
_atom_site_fract_z
Si Si1 0.327624 0.737544 0.179531
Si Si2 0.316637 0.903586 0.449248
Si Si3 0.182874 0.500000 0.094505
Si Si4 0.318764 0.000000 0.300281
Si Si5 0.819976 0.653923 0.864174
Si Si6 0.326273 0.318203 0.274195
Si Si7 0.818351 0.903058 0.281639
O O1 0.500000 0.738544 0.164843
O O2 0.230577 0.705972 0.146391
O O3 0.322268 0.710231 0.227192
O O4 0.266982 0.788398 0.190508
O O5 0.264456 0.896064 0.500000
O O6 0.500000 0.904613 0.450197
O O7 0.274877 0.864954 0.412916
O O8 0.267122 0.953446 0.430293
O O9 0.224663 0.500000 0.146798
O O10 0.000000 0.500000 0.093422
O O11 0.251080 0.953694 0.279158
O O12 0.500000 0.000000 0.297686
O O13 0.744002 0.621146 0.826776
O O14 0.000000 0.649765 0.859494
O O15 0.500000 0.320023 0.288505
O O16 0.274825 0.369114 0.259444
O O17 0.000000 0.904263 0.283614
#
# Coordination Sequence:
#
# PCOD9517312 Si02
#       7
#    16  16   8   8  16  16  16
#     4   9  16  25  38  55  73  91 111 137 176 218
#     4   9  16  25  38  55  72  90 118 158 195 226
#     4   9  15  25  38  54  68  84 116 156 194 225
#     4  11  19  28  41  57  72  94 126 153 184 224
#     4  10  17  26  40  56  72  91 117 148 183 225
#     4   8  15  26  38  53  71  91 114 139 171 212
#     4  10  19  29  40  54  73  95 117 146 184 219
#
# _framework density 12.496727999999999
#
# number of rings (size 3 to 8) (size 9 to 14) (size 15 to 20)
#    0.000    2.667    1.667    3.000    0.000    5.667 
#    0.000    0.000    0.000    2.000    0.000    1.167 
#    0.000    0.000    0.000    0.000    0.000    0.000 
#
# Total GULP energy -267268.696242 kJ/mol
# GULP energy per Si atom -5568.097838 kJ/mol
# Density = 1.246828 g / cm^3
# Si number density = 12.496728 Si / 1000 Ang^3
#
#
#
# Elastic Constant Matrix: (Units=GPa)
#
#
# Indices 1 2 3 4 5 6 
#
# 1 37.4047 33.9530 18.7436 0.0000 0.0000 0.0000
# 2 33.9530 102.5348 47.1600 0.0000 0.0000 0.0000
# 3 18.7436 47.1600 40.5733 0.0000 0.0000 0.0000
# 4 0.0000 0.0000 0.0000 11.2131 0.0000 0.0000
# 5 0.0000 0.0000 0.0000 0.0000 7.1399 0.0000
# 6 0.0000 0.0000 0.0000 0.0000 0.0000 19.3145
#
#
#
# Elastic Compliance Matrix: (Units=1/GPa)
#
#
# Indices 1 2 3 4 5 6 
#
# 1 0.038996 -0.009943 -0.006458 0.000000 0.000000 0.000000
# 2 -0.009943 0.023491 -0.022712 0.000000 0.000000 0.000000
# 3 -0.006458 -0.022712 0.054029 0.000000 0.000000 0.000000
# 4 0.000000 0.000000 0.000000 0.089181 0.000000 0.000000
# 5 0.000000 0.000000 0.000000 0.000000 0.140058 0.000000
# 6 0.000000 0.000000 0.000000 0.000000 0.000000 0.051775
#
#
# Mechanical properties :
#
#
# Convention : Reuss Voigt Hill
#
# Bulk Modulus (GPa) = 26.11570 42.24735 34.18153
# Shear Modulus (GPa) = 10.23503 12.91058 11.57280
#
# Velocity S-wave (km/s) = 2.86495 3.21770 3.04644
# Velocity P-wave (km/s) = 5.64689 6.90543 6.30762
#
# Compressibility (1/GPa) = 0.03829115
#
# Stress axis : x y z
#
# Youngs Moduli (GPa) = 25.64375 42.56931 18.50863
#
# Poissons Ratio (x) = 0.42325 0.11953
# Poissons Ratio (y) = 0.25496 0.42036
# Poissons Ratio (z) = 0.16561 0.96681
#
# Static dielectric constant tensor:
#      x y z
#    x 1.420780 0.000000 0.000000 
#    y 0.000000 1.419390 0.000000 
#    z 0.000000 0.000000 1.384930 
# 
# From -- ./inp_files/68666.got.cif
#   From: 2010.05.17/outbox.cif.g08.bks.cpg/sg71_35_cif.got.tgz:68666.got - 2010.06.03 16:22:01.
