data_PCOD9517763
_publ_section_title
;
Structure prediction by ZEFSAII (Michael W. Deem and Ramdas Pophale) SiO2 
 PCOD9517763
Probable space group: I M M M
;
_chemical_formula_sum "Si O2"
_cell_formula_units_Z 80
_cell_length_a 27.075768
_cell_length_b 8.640535
_cell_length_c 24.533190
_cell_angle_alpha 90.000000
_cell_angle_beta 90.000000
_cell_angle_gamma 90.000000
_cell_volume 5739.518237
_symmetry_space_group_name_H-M "I M M M"
_symmetry_group_IT_number 71
_symmetry_cell_setting 'orthorhombic'
loop_
_space_group_symop_operation_xyz
x,y,z
-x,-y,z
x,-y,-z
-x,y,-z
-x,-y,-z
x,y,-z
-x,y,z
x,-y,z
1/2+x,1/2+y,1/2+z
1/2-x,1/2-y,1/2+z
1/2+x,1/2-y,1/2-z
1/2-x,1/2+y,1/2-z
1/2-x,1/2-y,1/2-z
1/2+x,1/2+y,1/2-z
1/2-x,1/2+y,1/2+z
1/2+x,1/2-y,1/2+z
loop_
_atom_site_type_symbol
_atom_site_label
_atom_site_fract_x
_atom_site_fract_y
_atom_site_fract_z
Si Si1 0.240075 0.813972 0.384549
Si Si2 0.393433 0.686923 0.000000
Si Si3 0.717712 0.816065 0.000000
Si Si4 0.203055 0.686186 0.217100
Si Si5 0.645455 0.185890 0.818175
Si Si6 0.556627 0.686952 0.114325
O O1 0.242221 0.747214 0.444922
O O2 0.285743 0.766883 0.345069
O O3 0.189745 0.753927 0.355583
O O4 0.237405 0.000000 0.387068
O O5 0.422737 0.731416 0.945406
O O6 0.388352 0.500000 0.000000
O O7 0.339062 0.758347 0.000000
O O8 0.718378 0.000000 0.000000
O O9 0.204557 0.500000 0.217622
O O10 0.250000 0.750000 0.250000
O O11 0.157115 0.732036 0.255309
O O12 0.594020 0.246357 0.841238
O O13 0.647315 0.000000 0.822297
O O14 0.500000 0.736826 0.120992
O O15 0.558013 0.500000 0.116883
#
# Coordination Sequence:
#
# PCOD9517763 Si02
#       6
#    16   8   8  16  16  16
#     4  10  18  30  45  60  80 110 141 167 202 253
#     4  10  19  32  46  56  75 109 146 181 217 251
#     4  12  22  29  41  63  87 109 137 179 216 246
#     4   8  16  28  43  61  80 103 133 166 204 250
#     4  10  18  29  44  63  84 104 132 176 218 248
#     4  10  20  32  45  60  79 109 148 183 215 253
#
# _framework density 13.938452
#
# number of rings (size 3 to 8) (size 9 to 14) (size 15 to 20)
#    0.000    2.200    2.000    2.400    0.000    3.200 
#    0.000    0.000    0.000    1.800    0.000    0.000 
#    0.000    0.000    0.000    0.900    0.000   18.800 
#
# Total GULP energy -222849.378097 kJ/mol
# GULP energy per Si atom -5571.234452 kJ/mol
# Density = 1.390673 g / cm^3
# Si number density = 13.938452 Si / 1000 Ang^3
#
#
#
# Elastic Constant Matrix: (Units=GPa)
#
#
# Indices 1 2 3 4 5 6 
#
# 1 73.3308 23.0860 72.8300 0.0000 0.0000 0.0000
# 2 23.0860 25.5694 32.7928 0.0000 0.0000 0.0000
# 3 72.8300 32.7928 138.5242 0.0000 0.0000 0.0000
# 4 0.0000 0.0000 0.0000 17.8057 0.0000 0.0000
# 5 0.0000 0.0000 0.0000 0.0000 13.2969 0.0000
# 6 0.0000 0.0000 0.0000 0.0000 0.0000 13.3027
#
#
#
# Elastic Compliance Matrix: (Units=1/GPa)
#
#
# Indices 1 2 3 4 5 6 
#
# 1 0.030192 -0.009911 -0.013528 0.000000 0.000000 0.000000
# 2 -0.009911 0.059413 -0.008854 0.000000 0.000000 0.000000
# 3 -0.013528 -0.008854 0.016427 0.000000 0.000000 0.000000
# 4 0.000000 0.000000 0.000000 0.056162 0.000000 0.000000
# 5 0.000000 0.000000 0.000000 0.000000 0.075206 0.000000
# 6 0.000000 0.000000 0.000000 0.000000 0.000000 0.075173
#
#
# Mechanical properties :
#
#
# Convention : Reuss Voigt Hill
#
# Bulk Modulus (GPa) = 24.12693 54.98244 39.55469
# Shear Modulus (GPa) = 12.78860 16.12874 14.45867
#
# Velocity S-wave (km/s) = 3.03232 3.40537 3.22424
# Velocity P-wave (km/s) = 5.44125 7.41581 6.50390
#
# Compressibility (1/GPa) = 0.04144746
#
# Stress axis : x y z
#
# Youngs Moduli (GPa) = 33.12128 16.83135 60.87444
#
# Poissons Ratio (x) = 0.16681 0.82348
# Poissons Ratio (y) = 0.32825 0.53900
# Poissons Ratio (z) = 0.44805 0.14903
#
# Static dielectric constant tensor:
#      x y z
#    x 1.436440 0.000000 0.000000 
#    y 0.000000 1.471800 0.000000 
#    z 0.000000 0.000000 1.486830 
# 
# From -- ./inp_files/10715.got.cif
#   From: 2010.05.17/outbox.cif.g08.bks.cpg/sg71_6_cif.got.tgz:10715.got - 2010.06.03 16:22:01.
