data_PCOD9517013
_publ_section_title
;
Structure prediction by ZEFSAII (Michael W. Deem and Ramdas Pophale) SiO2 
 PCOD9517013
Probable space group: F D D D
;
_chemical_formula_sum "Si O2"
_cell_formula_units_Z 96
_cell_length_a 10.012607
_cell_length_b 19.288519
_cell_length_c 18.710365
_cell_angle_alpha 90.000000
_cell_angle_beta 90.000000
_cell_angle_gamma 90.000000
_cell_volume 3613.502114
_symmetry_space_group_name_H-M "F D D D"
_symmetry_group_IT_number 70
_space_group.IT_coordinate_system_code '2'
_symmetry_cell_setting 'orthorhombic'
loop_
_space_group_symop_operation_xyz
x,y,z
1/4-x,1/4-y,z
x,1/4-y,1/4-z
1/4-x,y,1/4-z
-x,-y,-z
3/4+x,3/4+y,-z
-x,3/4+y,3/4+z
3/4+x,-y,3/4+z
x,1/2+y,1/2+z
1/4-x,3/4-y,1/2+z
x,3/4-y,3/4-z
1/4-x,1/2+y,3/4-z
-x,1/2-y,1/2-z
3/4+x,1/4+y,1/2-z
-x,1/4+y,1/4+z
3/4+x,1/2-y,1/4+z
1/2+x,y,1/2+z
3/4-x,1/4-y,1/2+z
1/2+x,1/4-y,3/4-z
3/4-x,y,3/4-z
1/2-x,-y,1/2-z
1/4+x,3/4+y,1/2-z
1/2-x,3/4+y,1/4+z
1/4+x,-y,1/4+z
1/2+x,1/2+y,z
3/4-x,3/4-y,z
1/2+x,3/4-y,1/4-z
3/4-x,1/2+y,1/4-z
1/2-x,1/2-y,-z
1/4+x,1/4+y,-z
1/2-x,1/4+y,3/4+z
1/4+x,1/2-y,3/4+z
loop_
_atom_site_type_symbol
_atom_site_label
_atom_site_fract_x
_atom_site_fract_y
_atom_site_fract_z
Si Si1 0.875000 0.149456 0.375000
Si Si2 0.907277 0.739922 0.644959
Si Si3 0.659238 0.403197 0.777747
Si Si4 0.375000 0.976258 0.875000
O O1 0.760496 0.199828 0.406961
O O2 0.820181 0.109354 0.305231
O O3 0.899146 0.668419 0.689740
O O4 0.932112 0.713391 0.563069
O O5 0.754760 0.764968 0.655117
O O6 0.952554 0.319143 0.814777
#
# Coordination Sequence:
#
# PCOD9517013 Si02
#       4
#    16  32  32  16
#     4  12  22  35  75 115 130 185 271 303 346 458
#     4   9  19  40  71  87 148 190 235 300 380 428
#     4   9  19  39  69  95 143 192 240 294 379 433
#     4   8  17  44  71  79 146 213 213 284 398 434
#
# _framework density 26.567025000000001
#
# number of rings (size 3 to 8) (size 9 to 14) (size 15 to 20)
#    2.000    0.667    0.000    3.000    0.000    2.667 
#    0.000    8.333   36.667    0.000    0.000    0.000 
#    0.000    0.000    0.000    0.000    0.000    0.000 
#
# Total GULP energy -133660.584216 kJ/mol
# GULP energy per Si atom -5569.191009 kJ/mol
# Density = 2.650656 g / cm^3
# Si number density = 26.567025 Si / 1000 Ang^3
#
#
#
# Elastic Constant Matrix: (Units=GPa)
#
#
# Indices 1 2 3 4 5 6 
#
# 1 114.9459 38.3947 47.4601 0.0000 0.0000 0.0000
# 2 38.3947 72.9965 61.3486 0.0000 0.0000 0.0000
# 3 47.4601 61.3486 205.6338 0.0000 0.0000 0.0000
# 4 0.0000 0.0000 0.0000 14.9218 0.0000 0.0000
# 5 0.0000 0.0000 0.0000 0.0000 21.6956 0.0000
# 6 0.0000 0.0000 0.0000 0.0000 0.0000 12.6790
#
#
#
# Elastic Compliance Matrix: (Units=1/GPa)
#
#
# Indices 1 2 3 4 5 6 
#
# 1 0.010723 -0.004752 -0.001057 0.000000 0.000000 0.000000
# 2 -0.004752 0.020389 -0.004986 0.000000 0.000000 0.000000
# 3 -0.001057 -0.004986 0.006595 0.000000 0.000000 0.000000
# 4 0.000000 0.000000 0.000000 0.067016 0.000000 0.000000
# 5 0.000000 0.000000 0.000000 0.000000 0.046092 0.000000
# 6 0.000000 0.000000 0.000000 0.000000 0.000000 0.078871
#
#
# Mechanical properties :
#
#
# Convention : Reuss Voigt Hill
#
# Bulk Modulus (GPa) = 62.04718 76.44255 69.24486
# Shear Modulus (GPa) = 19.48183 26.28412 22.88297
#
# Velocity S-wave (km/s) = 2.71091 3.14881 2.93803
# Velocity P-wave (km/s) = 5.76232 6.48505 6.13434
#
# Compressibility (1/GPa) = 0.01611677
#
# Stress axis : x y z
#
# Youngs Moduli (GPa) = 93.25314 49.04564 151.63856
#
# Poissons Ratio (x) = 0.23305 0.16033
# Poissons Ratio (y) = 0.44311 0.75610
# Poissons Ratio (z) = 0.09860 0.24455
#
# Static dielectric constant tensor:
#      x y z
#    x 2.098280 0.000000 0.000000 
#    y 0.000000 2.354810 0.000000 
#    z 0.000000 0.000000 2.250090 
# 
# From -- ./inp_files/41880.got.cif
#   From: 2010.05.17/outbox.cif.g08.bks.cpg/sg70_21_cif.got.tgz:41880.got - 2010.06.03 15:57:51.
