data_PCOD9517075
_publ_section_title
;
Structure prediction by ZEFSAII (Michael W. Deem and Ramdas Pophale) SiO2 
 PCOD9517075
Probable space group: F D D D
;
_chemical_formula_sum "Si O2"
_cell_formula_units_Z 96
_cell_length_a 15.194300
_cell_length_b 34.034004
_cell_length_c 6.560544
_cell_angle_alpha 90.000000
_cell_angle_beta 90.000000
_cell_angle_gamma 90.000000
_cell_volume 3392.607322
_symmetry_space_group_name_H-M "F D D D"
_symmetry_group_IT_number 70
_space_group.IT_coordinate_system_code '2'
_symmetry_cell_setting 'orthorhombic'
loop_
_space_group_symop_operation_xyz
x,y,z
1/4-x,1/4-y,z
x,1/4-y,1/4-z
1/4-x,y,1/4-z
-x,-y,-z
3/4+x,3/4+y,-z
-x,3/4+y,3/4+z
3/4+x,-y,3/4+z
x,1/2+y,1/2+z
1/4-x,3/4-y,1/2+z
x,3/4-y,3/4-z
1/4-x,1/2+y,3/4-z
-x,1/2-y,1/2-z
3/4+x,1/4+y,1/2-z
-x,1/4+y,1/4+z
3/4+x,1/2-y,1/4+z
1/2+x,y,1/2+z
3/4-x,1/4-y,1/2+z
1/2+x,1/4-y,3/4-z
3/4-x,y,3/4-z
1/2-x,-y,1/2-z
1/4+x,3/4+y,1/2-z
1/2-x,3/4+y,1/4+z
1/4+x,-y,1/4+z
1/2+x,1/2+y,z
3/4-x,3/4-y,z
1/2+x,3/4-y,1/4-z
3/4-x,1/2+y,1/4-z
1/2-x,1/2-y,-z
1/4+x,1/4+y,-z
1/2-x,1/4+y,3/4+z
1/4+x,1/2-y,3/4+z
loop_
_atom_site_type_symbol
_atom_site_label
_atom_site_fract_x
_atom_site_fract_y
_atom_site_fract_z
Si Si1 0.944445 0.453261 0.742948
Si Si2 0.946020 0.974852 0.748018
Si Si3 0.625000 0.815236 0.625000
Si Si4 0.507964 0.875000 0.875000
O O1 0.035812 0.478283 0.761161
O O2 0.954877 0.405600 0.733620
O O3 0.923060 0.465929 0.495441
O O4 0.920140 0.460192 0.004844
O O5 0.049434 0.959656 0.738618
O O6 0.569330 0.845145 0.758725
#
# Coordination Sequence:
#
# PCOD9517075 Si02
#       4
#    32  32  16  16
#     4  12  24  49  73 104 146 191 242 304 371 438
#     4  12  27  47  79 107 143 195 252 303 365 453
#     4  12  28  50  70 111 148 196 248 309 370 452
#     4  12  29  46  73 106 150 194 237 308 378 433
#
# _framework density 28.296821000000001
#
# number of rings (size 3 to 8) (size 9 to 14) (size 15 to 20)
#    0.000    0.000    5.000    4.500    7.000    0.000 
#    0.000    0.000    0.000    0.000    0.000    0.000 
#    0.000    0.000    0.000    0.000    0.000    0.000 
#
# Total GULP energy -134090.250679 kJ/mol
# GULP energy per Si atom -5587.093778 kJ/mol
# Density = 2.823242 g / cm^3
# Si number density = 28.296821 Si / 1000 Ang^3
#
#
#
# Elastic Constant Matrix: (Units=GPa)
#
#
# Indices 1 2 3 4 5 6 
#
# 1 265.1231 102.3718 129.1221 0.0000 -0.0002 -0.0036
# 2 102.3718 233.3493 67.0088 0.0000 0.0000 0.0000
# 3 129.1221 67.0088 219.7012 -0.0001 -0.0004 -0.0097
# 4 0.0000 0.0000 -0.0001 34.2615 0.0000 0.0027
# 5 -0.0002 0.0000 -0.0004 0.0000 106.2900 0.0040
# 6 -0.0036 0.0000 -0.0097 0.0027 0.0040 1972.1180
#
#
#
# Elastic Compliance Matrix: (Units=1/GPa)
#
#
# Indices 1 2 3 4 5 6 
#
# 1 0.005862 -0.001734 -0.002916 0.000000 0.000000 0.000000
# 2 -0.001734 0.005210 -0.000570 0.000000 0.000000 0.000000
# 3 -0.002916 -0.000570 0.006439 0.000000 0.000000 0.000000
# 4 0.000000 0.000000 0.000000 0.029187 0.000000 0.000000
# 5 0.000000 0.000000 0.000000 0.000000 0.009408 0.000000
# 6 0.000000 0.000000 0.000000 0.000000 0.000000 0.000507
#
#
# Mechanical properties :
#
#
# Convention : Reuss Voigt Hill
#
# Bulk Modulus (GPa) = 141.42942 146.13098 143.78020
# Shear Modulus (GPa) = 72.03546 450.51198 261.27372
#
# Velocity S-wave (km/s) = 5.05098 12.63151 9.61944
# Velocity P-wave (km/s) = 9.17091 16.26328 13.20227
#
# Compressibility (1/GPa) = 0.00707066
#
# Stress axis : x y z
#
# Youngs Moduli (GPa) = 170.60049 191.94478 155.29758
#
# Poissons Ratio (x) = 0.33286 0.45286
# Poissons Ratio (y) = 0.29585 0.08849
# Poissons Ratio (z) = 0.49748 0.10937
#
# Static dielectric constant tensor:
#      x y z
#    x 2.290090 0.000000 0.000000 
#    y 0.000000 2.120810 0.000000 
#    z 0.000000 0.000000 2.322260 
# 
# From -- ./inp_files/14943.got.cif
#   From: 2010.05.17/outbox.cif.g08.bks.cpg/sg70_8_cif.got.tgz:14943.got - 2010.06.03 15:57:51.
