data_PCOD9517945
_publ_section_title
;
Structure prediction by ZEFSAII (Michael W. Deem and Ramdas Pophale) SiO2 
 PCOD9517945
Probable space group: I M M M
;
_chemical_formula_sum "Si O2"
_cell_formula_units_Z 56
_cell_length_a 7.319642
_cell_length_b 35.019175
_cell_length_c 10.760126
_cell_angle_alpha 90.000000
_cell_angle_beta 90.000000
_cell_angle_gamma 90.000000
_cell_volume 2758.119685
_symmetry_space_group_name_H-M "I M M M"
_symmetry_group_IT_number 71
_symmetry_cell_setting 'orthorhombic'
loop_
_space_group_symop_operation_xyz
x,y,z
-x,-y,z
x,-y,-z
-x,y,-z
-x,-y,-z
x,y,-z
-x,y,z
x,-y,z
1/2+x,1/2+y,1/2+z
1/2-x,1/2-y,1/2+z
1/2+x,1/2-y,1/2-z
1/2-x,1/2+y,1/2-z
1/2-x,1/2-y,1/2-z
1/2+x,1/2+y,1/2-z
1/2-x,1/2+y,1/2+z
1/2+x,1/2-y,1/2+z
loop_
_atom_site_type_symbol
_atom_site_label
_atom_site_fract_x
_atom_site_fract_y
_atom_site_fract_z
Si Si1 0.717939 0.798616 0.000000
Si Si2 0.714136 0.000000 0.650881
Si Si3 0.282715 0.208390 0.500000
Si Si4 0.277155 0.916811 0.355273
Si Si5 0.276552 0.836237 0.255250
O O1 0.786498 0.817969 0.873582
O O2 0.500000 0.804013 0.000000
O O3 0.750854 0.753436 0.000000
O O4 0.787503 0.958574 0.689156
O O5 0.500000 0.000000 0.684514
O O6 0.724391 0.000000 0.500000
O O7 0.500000 0.202104 0.500000
O O8 0.215052 0.188425 0.625814
O O9 0.224434 0.911396 0.500000
O O10 0.500000 0.917877 0.355085
O O11 0.221456 0.880066 0.277110
O O12 0.500000 0.835540 0.254823
#
# Coordination Sequence:
#
# PCOD9517945 Si02
#       5
#     8   8   8  16  16
#     4  10  20  30  40  59  83 105 129 164 206 236
#     4   7  10  14  26  49  73  95 124 161 189 211
#     4  10  18  30  46  59  73 103 141 168 192 230
#     4   8  11  18  32  51  73  99 131 160 185 223
#     4   9  16  26  40  56  77 104 133 162 195 236
#
# _framework density 20.303687
#
# number of rings (size 3 to 8) (size 9 to 14) (size 15 to 20)
#    0.000    3.286    1.429    2.571    0.000    0.000 
#    0.000    0.000    0.000    0.857    0.000    6.000 
#    0.000    0.000    0.000    7.714    0.000    8.571 
#
# Total GULP energy -156156.506802 kJ/mol
# GULP energy per Si atom -5577.018100 kJ/mol
# Density = 2.025748 g / cm^3
# Si number density = 20.303687 Si / 1000 Ang^3
#
#
#
# Elastic Constant Matrix: (Units=GPa)
#
#
# Indices 1 2 3 4 5 6 
#
# 1 79.3938 2.5458 10.7168 0.0000 0.0000 0.0000
# 2 2.5458 239.7811 112.3253 0.0002 -0.0001 0.0000
# 3 10.7168 112.3253 148.4099 0.0002 -0.0001 0.0000
# 4 0.0000 0.0002 0.0002 -3.3603 0.0000 0.0000
# 5 0.0000 -0.0001 -0.0001 0.0000 -15.6574 0.0000
# 6 0.0000 0.0000 0.0000 0.0000 0.0000 4.0193
#
#
#
# Elastic Compliance Matrix: (Units=1/GPa)
#
#
# Indices 1 2 3 4 5 6 
#
# 1 0.012752 0.000459 -0.001268 0.000000 0.000000 0.000000
# 2 0.000459 0.006478 -0.004936 0.000000 0.000000 0.000000
# 3 -0.001268 -0.004936 0.010565 0.000000 0.000000 0.000000
# 4 0.000000 0.000000 0.000000 -0.297595 -0.000001 0.000000
# 5 0.000000 0.000000 0.000000 -0.000001 -0.063868 0.000000
# 6 0.000000 0.000000 0.000000 0.000000 0.000000 0.248798
#
#
# Mechanical properties :
#
#
# Convention : Reuss Voigt Hill
#
# Bulk Modulus (GPa) = 54.63090 79.86229 67.24659
# Shear Modulus (GPa) = -76.59619 19.80014 -28.39802
#
# Velocity S-wave (km/s) = -6.14875 3.12621 -3.74393
# Velocity P-wave (km/s) = 4.84193 7.24225 3.80827
#
# Compressibility (1/GPa) = 0.01830466
#
# Stress axis : x y z
#
# Youngs Moduli (GPa) = 78.41982 154.37280 94.64827
#
# Poissons Ratio (x) = -0.07079 0.12000
# Poissons Ratio (y) = -0.03596 0.46718
# Poissons Ratio (z) = 0.09943 0.76197
#
# Static dielectric constant tensor:
#      x y z
#    x 1.912700 0.000000 0.000000 
#    y 0.000000 1.732250 0.000000 
#    z 0.000000 0.000000 1.668390 
# 
# From -- ./inp_files/18428.got.cif
#   From: 2010.05.17/outbox.cif.g08.bks.cpg/sg71_10_cif.got.tgz:18428.got - 2010.06.03 16:22:01.
