data_PCOD9517424
_publ_section_title
;
Structure prediction by ZEFSAII (Michael W. Deem and Ramdas Pophale) SiO2 
 PCOD9517424
Probable space group: I M M M
;
_chemical_formula_sum "Si O2"
_cell_formula_units_Z 68
_cell_length_a 14.775976
_cell_length_b 21.965883
_cell_length_c 11.809343
_cell_angle_alpha 90.000000
_cell_angle_beta 90.000000
_cell_angle_gamma 90.000000
_cell_volume 3832.927281
_symmetry_space_group_name_H-M "I M M M"
_symmetry_group_IT_number 71
_symmetry_cell_setting 'orthorhombic'
loop_
_space_group_symop_operation_xyz
x,y,z
-x,-y,z
x,-y,-z
-x,y,-z
-x,-y,-z
x,y,-z
-x,y,z
x,-y,z
1/2+x,1/2+y,1/2+z
1/2-x,1/2-y,1/2+z
1/2+x,1/2-y,1/2-z
1/2-x,1/2+y,1/2-z
1/2-x,1/2-y,1/2-z
1/2+x,1/2+y,1/2-z
1/2-x,1/2+y,1/2+z
1/2+x,1/2-y,1/2+z
loop_
_atom_site_type_symbol
_atom_site_label
_atom_site_fract_x
_atom_site_fract_y
_atom_site_fract_z
Si Si1 0.861849 0.000000 0.000000
Si Si2 0.290994 0.612246 0.134054
Si Si3 0.398208 0.500000 0.238785
Si Si4 0.391703 0.369957 0.500000
Si Si5 0.897442 0.339901 0.864844
Si Si6 0.894471 0.793750 0.771074
O O1 0.904432 0.000000 0.125449
O O2 0.828174 0.070364 0.000000
O O3 0.344466 0.559154 0.197461
O O4 0.183893 0.614055 0.159642
O O5 0.332083 0.676213 0.176479
O O6 0.302937 0.604877 0.000000
O O7 0.500000 0.500000 0.192247
O O8 0.500000 0.388095 0.500000
O O9 0.377610 0.329928 0.388321
O O10 0.882229 0.277371 0.796726
O O11 0.000000 0.361390 0.842406
O O12 0.892642 0.325652 0.000000
O O13 0.000000 0.803703 0.741527
#
# Coordination Sequence:
#
# PCOD9517424 Si02
#       6
#     4  16   8   8  16  16
#     4  12  21  34  56  82 103 134 179 216 252 300
#     4  11  23  35  50  78 112 145 175 206 262 331
#     4  12  24  38  56  79 109 138 171 216 260 314
#     4  10  17  28  50  80 106 132 173 217 260 298
#     4   9  18  35  57  78 102 135 181 232 266 291
#     4  10  18  31  54  80 108 139 172 216 263 309
#
# _framework density 17.741009999999999
#
# number of rings (size 3 to 8) (size 9 to 14) (size 15 to 20)
#    0.000    1.647    3.529    2.824    0.000    2.353 
#    0.000    0.588    0.000    2.824    0.000    0.824 
#    0.000    0.000    0.000    0.000    0.000    0.000 
#
# Total GULP energy -189479.472317 kJ/mol
# GULP energy per Si atom -5572.925656 kJ/mol
# Density = 1.770063 g / cm^3
# Si number density = 17.741010 Si / 1000 Ang^3
#
#
#
# Elastic Constant Matrix: (Units=GPa)
#
#
# Indices 1 2 3 4 5 6 
#
# 1 120.0224 51.6081 40.2103 0.0000 0.0000 0.0000
# 2 51.6081 46.7677 21.1213 0.0000 0.0000 0.0000
# 3 40.2103 21.1213 68.1722 0.0001 0.0001 0.0000
# 4 0.0000 0.0000 0.0001 6.9847 0.0000 0.0000
# 5 0.0000 0.0000 0.0001 0.0000 11.9470 0.0000
# 6 0.0000 0.0000 0.0000 0.0000 0.0000 24.5685
#
#
#
# Elastic Compliance Matrix: (Units=1/GPa)
#
#
# Indices 1 2 3 4 5 6 
#
# 1 0.017182 -0.016723 -0.004953 0.000000 0.000000 0.000000
# 2 -0.016723 0.041138 -0.002881 0.000000 0.000000 0.000000
# 3 -0.004953 -0.002881 0.018483 0.000000 0.000000 0.000000
# 4 0.000000 0.000000 0.000000 0.143170 0.000000 0.000000
# 5 0.000000 0.000000 0.000000 0.000000 0.083703 0.000000
# 6 0.000000 0.000000 0.000000 0.000000 0.000000 0.040703
#
#
# Mechanical properties :
#
#
# Convention : Reuss Voigt Hill
#
# Bulk Modulus (GPa) = 36.11824 51.20461 43.66143
# Shear Modulus (GPa) = 12.41546 16.83488 14.62517
#
# Velocity S-wave (km/s) = 2.64828 3.08380 2.87430
# Velocity P-wave (km/s) = 5.45472 6.45017 5.97322
#
# Compressibility (1/GPa) = 0.02768684
#
# Stress axis : x y z
#
# Youngs Moduli (GPa) = 58.20004 24.30849 54.10351
#
# Poissons Ratio (x) = 0.40652 0.26799
# Poissons Ratio (y) = 0.97331 0.15589
# Poissons Ratio (z) = 0.28828 0.07004
#
# Static dielectric constant tensor:
#      x y z
#    x 1.626940 0.000000 0.000000 
#    y 0.000000 1.620580 0.000000 
#    z 0.000000 0.000000 1.582810 
# 
# From -- ./inp_files/21590.got.cif
#   From: 2010.05.17/outbox.cif.g08.bks.cpg/sg71_11_cif.got.tgz:21590.got - 2010.06.03 16:22:01.
