data_PCOD9517724
_publ_section_title
;
Structure prediction by ZEFSAII (Michael W. Deem and Ramdas Pophale) SiO2 
 PCOD9517724
Probable space group: I M M M
;
_chemical_formula_sum "Si O2"
_cell_formula_units_Z 112
_cell_length_a 23.658978
_cell_length_b 15.282452
_cell_length_c 15.292408
_cell_angle_alpha 90.000000
_cell_angle_beta 90.000000
_cell_angle_gamma 90.000000
_cell_volume 5529.233075
_symmetry_space_group_name_H-M "I M M M"
_symmetry_group_IT_number 71
_symmetry_cell_setting 'orthorhombic'
loop_
_space_group_symop_operation_xyz
x,y,z
-x,-y,z
x,-y,-z
-x,y,-z
-x,-y,-z
x,y,-z
-x,y,z
x,-y,z
1/2+x,1/2+y,1/2+z
1/2-x,1/2-y,1/2+z
1/2+x,1/2-y,1/2-z
1/2-x,1/2+y,1/2-z
1/2-x,1/2-y,1/2-z
1/2+x,1/2+y,1/2-z
1/2-x,1/2+y,1/2+z
1/2+x,1/2-y,1/2+z
loop_
_atom_site_type_symbol
_atom_site_label
_atom_site_fract_x
_atom_site_fract_y
_atom_site_fract_z
Si Si1 0.269823 0.166155 0.101629
Si Si2 0.615022 0.904394 0.819452
Si Si3 0.066903 0.797506 0.901284
Si Si4 0.322802 0.356645 0.099390
Si Si5 0.939627 0.240240 0.600044
Si Si6 0.160700 0.100315 0.796877
Si Si7 0.434181 0.903755 0.637357
O O1 0.323197 0.118443 0.145542
O O2 0.284258 0.269493 0.105136
O O3 0.213080 0.140879 0.150421
O O4 0.266891 0.141281 0.000000
O O5 0.574404 0.825731 0.845744
O O6 0.610417 0.906233 0.715619
O O7 0.597390 0.000000 0.852622
O O8 0.106629 0.841014 0.827086
O O9 0.073936 0.691590 0.904365
O O10 0.000000 0.813996 0.885066
O O11 0.080971 0.830204 0.000000
O O12 0.388010 0.325688 0.102164
O O13 0.320167 0.401070 0.194515
O O14 0.313204 0.394017 0.000000
O O15 0.941656 0.270624 0.500000
O O16 0.000000 0.201412 0.624850
O O17 0.149853 0.000000 0.822862
O O18 0.500000 0.902321 0.668661
O O19 0.428893 0.000000 0.593138
#
# Coordination Sequence:
#
# PCOD9517724 Si02
#       7
#    16  16  16  16  16  16  16
#     4  10  21  38  59  80 107 147 193 240 288 339
#     4  10  18  28  46  74 110 147 181 224 277 333
#     4  10  22  40  61  85 115 152 195 246 298 345
#     4   9  20  39  61  84 110 144 187 237 290 338
#     4   9  17  29  47  72 103 141 181 220 268 328
#     4  12  25  39  60  87 116 154 196 239 288 345
#     4   9  18  33  55  84 116 151 192 238 292 351
#
# _framework density 20.255973000000001
#
# number of rings (size 3 to 8) (size 9 to 14) (size 15 to 20)
#    0.000    2.143    0.000    4.714    0.000    6.286 
#    0.000    2.857    0.000    0.000    0.000    7.000 
#    0.000    0.000    0.000    0.000    0.000    0.000 
#
# Total GULP energy -311802.614012 kJ/mol
# GULP energy per Si atom -5567.903822 kJ/mol
# Density = 2.020987 g / cm^3
# Si number density = 20.255973 Si / 1000 Ang^3
#
#
#
# Elastic Constant Matrix: (Units=GPa)
#
#
# Indices 1 2 3 4 5 6 
#
# 1 67.6527 36.0384 56.0575 0.0000 0.0000 0.0000
# 2 36.0384 68.7438 32.1451 0.0000 0.0000 0.0000
# 3 56.0575 32.1451 122.8188 0.0000 0.0000 0.0000
# 4 0.0000 0.0000 0.0000 8.0554 0.0000 0.0000
# 5 0.0000 0.0000 0.0000 0.0000 20.1353 0.0000
# 6 0.0000 0.0000 0.0000 0.0000 0.0000 39.4616
#
#
#
# Elastic Compliance Matrix: (Units=1/GPa)
#
#
# Indices 1 2 3 4 5 6 
#
# 1 0.028986 -0.010266 -0.010543 0.000000 0.000000 0.000000
# 2 -0.010266 0.020211 -0.000604 0.000000 0.000000 0.000000
# 3 -0.010543 -0.000604 0.013112 0.000000 0.000000 0.000000
# 4 0.000000 0.000000 0.000000 0.124141 0.000000 0.000000
# 5 0.000000 0.000000 0.000000 0.000000 0.049664 0.000000
# 6 0.000000 0.000000 0.000000 0.000000 0.000000 0.025341
#
#
# Mechanical properties :
#
#
# Convention : Reuss Voigt Hill
#
# Bulk Modulus (GPa) = 51.32606 56.41080 53.86843
# Shear Modulus (GPa) = 16.08878 22.52875 19.30877
#
# Velocity S-wave (km/s) = 2.82134 3.33859 3.09080
# Velocity P-wave (km/s) = 6.00059 6.53995 6.27607
#
# Compressibility (1/GPa) = 0.01948328
#
# Stress axis : x y z
#
# Youngs Moduli (GPa) = 34.49953 49.47801 76.26394
#
# Poissons Ratio (x) = 0.50792 0.80406
# Poissons Ratio (y) = 0.35416 0.04609
# Poissons Ratio (z) = 0.36373 0.02990
#
# Static dielectric constant tensor:
#      x y z
#    x 1.696820 0.000000 0.000000 
#    y 0.000000 1.729460 0.000000 
#    z 0.000000 0.000000 1.782390 
# 
# From -- ./inp_files/34864.got.cif
#   From: 2010.05.17/outbox.cif.g08.bks.cpg/sg71_18_cif.got.tgz:34864.got - 2010.06.03 16:22:01.
