data_PCOD9517455
_publ_section_title
;
Structure prediction by ZEFSAII (Michael W. Deem and Ramdas Pophale) SiO2 
 PCOD9517455
Probable space group: I M M M
;
_chemical_formula_sum "Si O2"
_cell_formula_units_Z 56
_cell_length_a 5.222454
_cell_length_b 34.940721
_cell_length_c 18.707287
_cell_angle_alpha 90.000000
_cell_angle_beta 90.000000
_cell_angle_gamma 90.000000
_cell_volume 3413.636667
_symmetry_space_group_name_H-M "I M M M"
_symmetry_group_IT_number 71
_symmetry_cell_setting 'orthorhombic'
loop_
_space_group_symop_operation_xyz
x,y,z
-x,-y,z
x,-y,-z
-x,y,-z
-x,-y,-z
x,y,-z
-x,y,z
x,-y,z
1/2+x,1/2+y,1/2+z
1/2-x,1/2-y,1/2+z
1/2+x,1/2-y,1/2-z
1/2-x,1/2+y,1/2-z
1/2-x,1/2-y,1/2-z
1/2+x,1/2+y,1/2-z
1/2-x,1/2+y,1/2+z
1/2+x,1/2-y,1/2+z
loop_
_atom_site_type_symbol
_atom_site_label
_atom_site_fract_x
_atom_site_fract_y
_atom_site_fract_z
Si Si1 0.000000 0.683840 0.418371
Si Si2 0.500000 0.400558 0.728060
Si Si3 0.000000 0.725934 0.729939
Si Si4 0.000000 0.587472 0.084036
Si Si5 0.500000 0.141464 0.711345
Si Si6 0.000000 0.130156 0.080593
Si Si7 0.000000 0.045482 0.355345
O O1 0.000000 0.713963 0.353802
O O2 0.749210 0.657132 0.411068
O O3 0.000000 0.699471 0.500000
O O4 0.250610 0.376980 0.752656
O O5 0.500000 0.401272 0.642672
O O6 0.500000 0.439515 0.773372
O O7 0.250000 0.750000 0.750000
O O8 0.000000 0.686337 0.774293
O O9 0.000000 0.626592 0.129908
O O10 0.249794 0.563509 0.107509
O O11 0.000000 0.594126 0.000000
O O12 0.000000 0.114674 0.000000
O O13 0.000000 0.000000 0.360157
#
# Coordination Sequence:
#
# PCOD9517455 Si02
#       7
#     8   8   8   8   8   8   8
#     4  10  20  34  51  75 103 124 161 216 259 292
#     4  10  17  33  53  72 104 133 169 212 249 307
#     4  12  22  34  54  77 102 138 172 210 260 315
#     4  10  21  36  55  76 102 141 180 218 260 308
#     4  10  20  35  52  72 101 132 174 213 254 306
#     4  10  17  29  53  77  97 127 164 211 253 289
#     4  10  21  33  52  80 108 140 172 217 267 304
#
# _framework density 16.404790999999999
#
# number of rings (size 3 to 8) (size 9 to 14) (size 15 to 20)
#    0.000    1.714    2.857    2.571    0.000    1.714 
#    0.000    1.429    0.000    0.429    0.000    0.000 
#    0.000   10.286    0.000    0.000    0.000    1.714 
#
# Total GULP energy -156220.203118 kJ/mol
# GULP energy per Si atom -5579.292968 kJ/mol
# Density = 1.636745 g / cm^3
# Si number density = 16.404791 Si / 1000 Ang^3
#
#
#
# Elastic Constant Matrix: (Units=GPa)
#
#
# Indices 1 2 3 4 5 6 
#
# 1 138.0632 28.3742 34.9700 0.0000 0.0000 0.0000
# 2 28.3742 90.5400 56.6966 0.0000 0.0000 0.0000
# 3 34.9700 56.6966 191.0720 0.0000 0.0000 0.0000
# 4 0.0000 0.0000 0.0000 18.8224 0.0000 0.0000
# 5 0.0000 0.0000 0.0000 0.0000 11.0125 0.0000
# 6 0.0000 0.0000 0.0000 0.0000 0.0000 16.5544
#
#
#
# Elastic Compliance Matrix: (Units=1/GPa)
#
#
# Indices 1 2 3 4 5 6 
#
# 1 0.007857 -0.001918 -0.000869 0.000000 0.000000 0.000000
# 2 -0.001918 0.014034 -0.003813 0.000000 0.000000 0.000000
# 3 -0.000869 -0.003813 0.006524 0.000000 0.000000 0.000000
# 4 0.000000 0.000000 0.000000 0.053128 0.000000 0.000000
# 5 0.000000 0.000000 0.000000 0.000000 0.090806 0.000000
# 6 0.000000 0.000000 0.000000 0.000000 0.000000 0.060407
#
#
# Mechanical properties :
#
#
# Convention : Reuss Voigt Hill
#
# Bulk Modulus (GPa) = 65.72599 73.30631 69.51615
# Shear Modulus (GPa) = 19.91808 29.25350 24.58579
#
# Velocity S-wave (km/s) = 3.48826 4.22741 3.87550
# Velocity P-wave (km/s) = 7.50840 8.28317 7.90528
#
# Compressibility (1/GPa) = 0.01521468
#
# Stress axis : x y z
#
# Youngs Moduli (GPa) = 127.26898 71.25627 153.27752
#
# Poissons Ratio (x) = 0.13669 0.13317
# Poissons Ratio (y) = 0.24415 0.58447
# Poissons Ratio (z) = 0.11057 0.27171
#
# Static dielectric constant tensor:
#      x y z
#    x 1.547840 0.000000 0.000000 
#    y 0.000000 1.502760 0.000000 
#    z 0.000000 0.000000 1.576580 
# 
# From -- ./inp_files/41360.got.cif
#   From: 2010.05.17/outbox.cif.g08.bks.cpg/sg71_21_cif.got.tgz:41360.got - 2010.06.03 16:22:01.
