data_PCOD9517838
_publ_section_title
;
Structure prediction by ZEFSAII (Michael W. Deem and Ramdas Pophale) SiO2 
 PCOD9517838
Probable space group: I M M M
;
_chemical_formula_sum "Si O2"
_cell_formula_units_Z 96
_cell_length_a 13.594182
_cell_length_b 23.833791
_cell_length_c 20.548942
_cell_angle_alpha 90.000000
_cell_angle_beta 90.000000
_cell_angle_gamma 90.000000
_cell_volume 6657.875550
_symmetry_space_group_name_H-M "I M M M"
_symmetry_group_IT_number 71
_symmetry_cell_setting 'orthorhombic'
loop_
_space_group_symop_operation_xyz
x,y,z
-x,-y,z
x,-y,-z
-x,y,-z
-x,-y,-z
x,y,-z
-x,y,z
x,-y,z
1/2+x,1/2+y,1/2+z
1/2-x,1/2-y,1/2+z
1/2+x,1/2-y,1/2-z
1/2-x,1/2+y,1/2-z
1/2-x,1/2-y,1/2-z
1/2+x,1/2+y,1/2-z
1/2-x,1/2+y,1/2+z
1/2+x,1/2-y,1/2+z
loop_
_atom_site_type_symbol
_atom_site_label
_atom_site_fract_x
_atom_site_fract_y
_atom_site_fract_z
Si Si1 0.884600 0.563929 0.229751
Si Si2 0.884490 0.563489 0.613269
Si Si3 0.697202 0.179090 0.925753
Si Si4 0.197202 0.321955 0.188312
Si Si5 0.613196 0.750602 0.191415
Si Si6 0.887405 0.751661 0.923546
O O1 0.860281 0.500000 0.210713
O O2 0.876279 0.567159 0.308264
O O3 0.819849 0.612396 0.198100
O O4 0.000000 0.574028 0.214423
O O5 0.857590 0.500000 0.593758
O O6 0.821751 0.613352 0.583293
O O7 0.000000 0.571842 0.596978
O O8 0.632429 0.212695 0.873393
O O9 0.809585 0.198111 0.912740
O O10 0.673295 0.194941 0.000000
O O11 0.309581 0.300589 0.190655
O O12 0.142295 0.290050 0.247709
O O13 0.149107 0.298505 0.122303
O O14 0.500000 0.733907 0.195985
O O15 0.000000 0.766442 0.907772
O O16 0.882794 0.736976 0.000000
#
# Coordination Sequence:
#
# PCOD9517838 Si02
#       6
#    16  16  16  16  16  16
#     4   9  16  27  45  66  87 113 145 179 216 258
#     4   9  17  28  41  59  86 117 146 178 215 254
#     4  10  19  29  43  64  90 119 146 176 216 256
#     4  10  18  29  47  66  86 114 145 179 216 260
#     4  10  19  29  43  66  90 113 145 181 216 255
#     4   9  18  31  46  65  88 113 142 178 220 264
#
# _framework density 14.419014000000001
#
# number of rings (size 3 to 8) (size 9 to 14) (size 15 to 20)
#    0.000    2.500    1.667    3.000    0.000    1.667 
#    0.000    0.833    0.000    1.500    0.000    7.000 
#    0.000    0.000    0.000    8.333    0.000    0.333 
#
# Total GULP energy -267481.959134 kJ/mol
# GULP energy per Si atom -5572.540815 kJ/mol
# Density = 1.438620 g / cm^3
# Si number density = 14.419014 Si / 1000 Ang^3
#
#
#
# Elastic Constant Matrix: (Units=GPa)
#
#
# Indices 1 2 3 4 5 6 
#
# 1 97.8253 48.3510 33.6794 0.0000 0.0000 0.0000
# 2 48.3510 98.5007 27.7359 0.0000 0.0000 0.0000
# 3 33.6794 27.7359 42.5933 0.0000 0.0000 0.0000
# 4 0.0000 0.0000 0.0000 17.9731 0.0000 0.0000
# 5 0.0000 0.0000 0.0000 0.0000 16.0724 0.0000
# 6 0.0000 0.0000 0.0000 0.0000 0.0000 15.7008
#
#
#
# Elastic Compliance Matrix: (Units=1/GPa)
#
#
# Indices 1 2 3 4 5 6 
#
# 1 0.015996 -0.005254 -0.009227 0.000000 0.000000 0.000000
# 2 -0.005254 0.014157 -0.005065 0.000000 0.000000 0.000000
# 3 -0.009227 -0.005065 0.034072 0.000000 0.000000 0.000000
# 4 0.000000 0.000000 0.000000 0.055639 0.000000 0.000000
# 5 0.000000 0.000000 0.000000 0.000000 0.062219 0.000000
# 6 0.000000 0.000000 0.000000 0.000000 0.000000 0.063691
#
#
# Mechanical properties :
#
#
# Convention : Reuss Voigt Hill
#
# Bulk Modulus (GPa) = 39.78676 50.93910 45.36293
# Shear Modulus (GPa) = 17.05079 18.55947 17.80513
#
# Velocity S-wave (km/s) = 3.44251 3.59158 3.51784
# Velocity P-wave (km/s) = 6.59199 7.25284 6.93030
#
# Compressibility (1/GPa) = 0.02513399
#
# Stress axis : x y z
#
# Youngs Moduli (GPa) = 62.51700 70.63555 29.34965
#
# Poissons Ratio (x) = 0.37109 0.27081
# Poissons Ratio (y) = 0.32844 0.14865
# Poissons Ratio (z) = 0.57685 0.35775
#
# Static dielectric constant tensor:
#      x y z
#    x 1.472710 0.000000 0.000000 
#    y 0.000000 1.461390 0.000000 
#    z 0.000000 0.000000 1.489670 
# 
# From -- ./inp_files/26148.got.cif
#   From: 2010.05.17/outbox.cif.g08.bks.cpg/sg71_14_cif.got.tgz:26148.got - 2010.06.03 16:22:01.
