data_PCOD9517130
_publ_section_title
;
Structure prediction by ZEFSAII (Michael W. Deem and Ramdas Pophale) SiO2 
 PCOD9517130
Probable space group: F D D D
;
_chemical_formula_sum "Si O2"
_cell_formula_units_Z 96
_cell_length_a 25.895713
_cell_length_b 14.920656
_cell_length_c 9.488281
_cell_angle_alpha 90.000000
_cell_angle_beta 90.000000
_cell_angle_gamma 90.000000
_cell_volume 3666.091743
_symmetry_space_group_name_H-M "F D D D"
_symmetry_group_IT_number 70
_space_group.IT_coordinate_system_code '2'
_symmetry_cell_setting 'orthorhombic'
loop_
_space_group_symop_operation_xyz
x,y,z
1/4-x,1/4-y,z
x,1/4-y,1/4-z
1/4-x,y,1/4-z
-x,-y,-z
3/4+x,3/4+y,-z
-x,3/4+y,3/4+z
3/4+x,-y,3/4+z
x,1/2+y,1/2+z
1/4-x,3/4-y,1/2+z
x,3/4-y,3/4-z
1/4-x,1/2+y,3/4-z
-x,1/2-y,1/2-z
3/4+x,1/4+y,1/2-z
-x,1/4+y,1/4+z
3/4+x,1/2-y,1/4+z
1/2+x,y,1/2+z
3/4-x,1/4-y,1/2+z
1/2+x,1/4-y,3/4-z
3/4-x,y,3/4-z
1/2-x,-y,1/2-z
1/4+x,3/4+y,1/2-z
1/2-x,3/4+y,1/4+z
1/4+x,-y,1/4+z
1/2+x,1/2+y,z
3/4-x,3/4-y,z
1/2+x,3/4-y,1/4-z
3/4-x,1/2+y,1/4-z
1/2-x,1/2-y,-z
1/4+x,1/4+y,-z
1/2-x,1/4+y,3/4+z
1/4+x,1/2-y,3/4+z
loop_
_atom_site_type_symbol
_atom_site_label
_atom_site_fract_x
_atom_site_fract_y
_atom_site_fract_z
Si Si1 0.350178 0.208026 0.225203
Si Si2 0.076615 0.012314 0.236373
Si Si3 0.986390 0.925684 0.115896
O O1 0.332284 0.125000 0.125000
O O2 0.375000 0.187445 0.375000
O O3 0.305374 0.282409 0.222795
O O4 0.395560 0.248016 0.132371
O O5 0.038091 0.094315 0.277219
O O6 0.041236 0.926561 0.195410
O O7 0.000000 0.000000 0.000000
O O8 0.875000 0.974058 0.875000
#
# Coordination Sequence:
#
# PCOD9517130 Si02
#       3
#    32  32  32
#     4  12  29  51  79 117 167 219 277 345 414 492
#     4  12  28  52  85 119 170 218 277 340 417 492
#     4  12  27  47  85 121 158 219 279 333 412 501
#
# _framework density 26.185924
#
# number of rings (size 3 to 8) (size 9 to 14) (size 15 to 20)
#    0.000    0.000    3.333    5.000    9.333    4.000 
#    0.000    0.000    0.000    0.000    0.000    0.000 
#    0.000    0.000    0.000    0.000    0.000    0.000 
#
# Total GULP energy -134170.683660 kJ/mol
# GULP energy per Si atom -5590.445153 kJ/mol
# Density = 2.612632 g / cm^3
# Si number density = 26.185924 Si / 1000 Ang^3
#
#
#
# Elastic Constant Matrix: (Units=GPa)
#
#
# Indices 1 2 3 4 5 6 
#
# 1 227.9562 84.5711 93.4210 0.0000 0.0000 0.0000
# 2 84.5711 112.0315 42.8861 0.0000 0.0000 0.0000
# 3 93.4210 42.8861 165.3894 0.0000 0.0000 0.0000
# 4 0.0000 0.0000 0.0000 6.5405 0.0000 0.0000
# 5 0.0000 0.0000 0.0000 0.0000 34.4159 0.0000
# 6 0.0000 0.0000 0.0000 0.0000 0.0000 73.8335
#
#
#
# Elastic Compliance Matrix: (Units=1/GPa)
#
#
# Indices 1 2 3 4 5 6 
#
# 1 0.007189 -0.004299 -0.002946 0.000000 0.000000 0.000000
# 2 -0.004299 0.012481 -0.000808 0.000000 0.000000 0.000000
# 3 -0.002946 -0.000808 0.007920 0.000000 0.000000 0.000000
# 4 0.000000 0.000000 0.000000 0.152895 0.000000 0.000000
# 5 0.000000 0.000000 0.000000 0.000000 0.029056 0.000000
# 6 0.000000 0.000000 0.000000 0.000000 0.000000 0.013544
#
#
# Mechanical properties :
#
#
# Convention : Reuss Voigt Hill
#
# Bulk Modulus (GPa) = 87.08103 105.23704 96.15904
# Shear Modulus (GPa) = 20.57454 41.92456 31.24955
#
# Velocity S-wave (km/s) = 2.80609 4.00563 3.45827
# Velocity P-wave (km/s) = 6.62012 7.85297 7.26275
#
# Compressibility (1/GPa) = 0.01148356
#
# Stress axis : x y z
#
# Youngs Moduli (GPa) = 139.09849 80.12331 126.26445
#
# Poissons Ratio (x) = 0.34447 0.37198
# Poissons Ratio (y) = 0.59802 0.10200
# Poissons Ratio (z) = 0.40979 0.06473
#
# Static dielectric constant tensor:
#      x y z
#    x 2.398000 0.000000 0.000000 
#    y 0.000000 2.225530 0.000000 
#    z 0.000000 0.000000 3.666280 
# 
# From -- ./inp_files/9118.got.cif
#   From: 2010.05.17/outbox.cif.g08.bks.cpg/sg70_5_cif.got.tgz:9118.got - 2010.06.03 15:57:51.
