data_PCOD9517853
_publ_section_title
;
Structure prediction by ZEFSAII (Michael W. Deem and Ramdas Pophale) SiO2 
 PCOD9517853
Probable space group: I M M M
;
_chemical_formula_sum "Si O2"
_cell_formula_units_Z 104
_cell_length_a 7.569595
_cell_length_b 31.699619
_cell_length_c 21.172095
_cell_angle_alpha 90.000000
_cell_angle_beta 90.000000
_cell_angle_gamma 90.000000
_cell_volume 5080.313586
_symmetry_space_group_name_H-M "I M M M"
_symmetry_group_IT_number 71
_symmetry_cell_setting 'orthorhombic'
loop_
_space_group_symop_operation_xyz
x,y,z
-x,-y,z
x,-y,-z
-x,y,-z
-x,-y,-z
x,y,-z
-x,y,z
x,-y,z
1/2+x,1/2+y,1/2+z
1/2-x,1/2-y,1/2+z
1/2+x,1/2-y,1/2-z
1/2-x,1/2+y,1/2-z
1/2-x,1/2-y,1/2-z
1/2+x,1/2+y,1/2-z
1/2-x,1/2+y,1/2+z
1/2+x,1/2-y,1/2+z
loop_
_atom_site_type_symbol
_atom_site_label
_atom_site_fract_x
_atom_site_fract_y
_atom_site_fract_z
Si Si1 0.797324 0.948935 0.634192
Si Si2 0.783201 0.049089 0.500000
Si Si3 0.212993 0.706385 0.211704
Si Si4 0.201971 0.546963 0.273801
Si Si5 0.785302 0.719931 0.930093
Si Si6 0.793113 0.365340 0.304563
Si Si7 0.287108 0.681061 0.568475
O O1 0.726987 0.931996 0.567214
O O2 0.700267 0.941437 0.699299
O O3 0.000000 0.935063 0.641899
O O4 0.799896 0.000000 0.627219
O O5 0.000000 0.049073 0.500000
O O6 0.726410 0.000000 0.500000
O O7 0.250000 0.750000 0.250000
O O8 0.275941 0.703754 0.138727
O O9 0.281783 0.667423 0.253455
O O10 0.000000 0.704220 0.209115
O O11 0.282703 0.500000 0.279775
O O12 0.286715 0.587822 0.305344
O O13 0.000000 0.543250 0.296008
O O14 0.739523 0.769640 0.927987
O O15 0.000000 0.716658 0.930505
O O16 0.726122 0.703743 0.000000
O O17 0.782746 0.343949 0.372356
O O18 0.000000 0.370525 0.288190
O O19 0.229532 0.664759 0.500000
O O20 0.500000 0.679471 0.571041
#
# Coordination Sequence:
#
# PCOD9517853 Si02
#       7
#    16   8  16  16  16  16  16
#     4   8  13  23  41  63  82 104 141 187 232 278
#     4   7  10  18  35  59  83 103 131 179 233 279
#     4  10  18  29  47  71  98 123 153 192 231 277
#     4   9  18  32  46  61  89 125 158 197 242 282
#     4   8  14  26  45  67  92 124 156 183 217 269
#     4  10  20  31  47  72  98 124 158 198 237 280
#     4   9  17  30  49  73  98 124 156 189 227 282
#
# _framework density 20.471177000000001
#
# number of rings (size 3 to 8) (size 9 to 14) (size 15 to 20)
#    0.000    3.154    1.538    1.846    0.000    0.923 
#    0.000    0.385    1.692    3.231    0.000    3.231 
#    0.000    0.000    0.000    0.000    0.000    0.000 
#
# Total GULP energy -289479.637163 kJ/mol
# GULP energy per Si atom -5566.916099 kJ/mol
# Density = 2.042458 g / cm^3
# Si number density = 20.471177 Si / 1000 Ang^3
#
#
#
# Elastic Constant Matrix: (Units=GPa)
#
#
# Indices 1 2 3 4 5 6 
#
# 1 46.8374 6.9943 1.9826 0.0000 0.0000 0.0000
# 2 6.9943 77.2661 54.0159 0.0000 0.0000 0.0000
# 3 1.9826 54.0159 148.9712 0.0000 0.0000 0.0000
# 4 0.0000 0.0000 0.0000 13.0457 0.0000 0.0000
# 5 0.0000 0.0000 0.0000 0.0000 19.4592 0.0000
# 6 0.0000 0.0000 0.0000 0.0000 0.0000 6.4836
#
#
#
# Elastic Compliance Matrix: (Units=1/GPa)
#
#
# Indices 1 2 3 4 5 6 
#
# 1 0.021679 -0.002359 0.000567 0.000000 0.000000 0.000000
# 2 -0.002359 0.017594 -0.006348 0.000000 0.000000 0.000000
# 3 0.000567 -0.006348 0.009007 0.000000 0.000000 0.000000
# 4 0.000000 0.000000 0.000000 0.076654 0.000000 0.000000
# 5 0.000000 0.000000 0.000000 0.000000 0.051390 0.000000
# 6 0.000000 0.000000 0.000000 0.000000 0.000000 0.154236
#
#
# Mechanical properties :
#
#
# Convention : Reuss Voigt Hill
#
# Bulk Modulus (GPa) = 31.25044 44.34002 37.79523
# Shear Modulus (GPa) = 13.98584 21.80316 17.89450
#
# Velocity S-wave (km/s) = 2.61664 3.26708 2.95978
# Velocity P-wave (km/s) = 4.94245 5.99487 5.49392
#
# Compressibility (1/GPa) = 0.03199955
#
# Stress axis : x y z
#
# Youngs Moduli (GPa) = 46.12824 56.83909 111.02645
#
# Poissons Ratio (x) = 0.13406 -0.06292
# Poissons Ratio (y) = 0.10880 0.70478
# Poissons Ratio (z) = -0.02614 0.36081
#
# Static dielectric constant tensor:
#      x y z
#    x 1.806680 0.000000 0.000000 
#    y 0.000000 1.753420 0.000000 
#    z 0.000000 0.000000 1.758200 
# 
# From -- ./inp_files/51177.got.cif
#   From: 2010.05.17/outbox.cif.g08.bks.cpg/sg71_26_cif.got.tgz:51177.got - 2010.06.03 16:22:01.
