data_PCOD9517036
_publ_section_title
;
Structure prediction by ZEFSAII (Michael W. Deem and Ramdas Pophale) SiO2 
 PCOD9517036
Probable space group: F D D D
;
_chemical_formula_sum "Si O2"
_cell_formula_units_Z 160
_cell_length_a 10.030820
_cell_length_b 28.030098
_cell_length_c 29.000570
_cell_angle_alpha 90.000000
_cell_angle_beta 90.000000
_cell_angle_gamma 90.000000
_cell_volume 8153.941425
_symmetry_space_group_name_H-M "F D D D"
_symmetry_group_IT_number 70
_space_group.IT_coordinate_system_code '2'
_symmetry_cell_setting 'orthorhombic'
loop_
_space_group_symop_operation_xyz
x,y,z
1/4-x,1/4-y,z
x,1/4-y,1/4-z
1/4-x,y,1/4-z
-x,-y,-z
3/4+x,3/4+y,-z
-x,3/4+y,3/4+z
3/4+x,-y,3/4+z
x,1/2+y,1/2+z
1/4-x,3/4-y,1/2+z
x,3/4-y,3/4-z
1/4-x,1/2+y,3/4-z
-x,1/2-y,1/2-z
3/4+x,1/4+y,1/2-z
-x,1/4+y,1/4+z
3/4+x,1/2-y,1/4+z
1/2+x,y,1/2+z
3/4-x,1/4-y,1/2+z
1/2+x,1/4-y,3/4-z
3/4-x,y,3/4-z
1/2-x,-y,1/2-z
1/4+x,3/4+y,1/2-z
1/2-x,3/4+y,1/4+z
1/4+x,-y,1/4+z
1/2+x,1/2+y,z
3/4-x,3/4-y,z
1/2+x,3/4-y,1/4-z
3/4-x,1/2+y,1/4-z
1/2-x,1/2-y,-z
1/4+x,1/4+y,-z
1/2-x,1/4+y,3/4+z
1/4+x,1/2-y,3/4+z
loop_
_atom_site_type_symbol
_atom_site_label
_atom_site_fract_x
_atom_site_fract_y
_atom_site_fract_z
Si Si1 0.365914 0.013255 0.971973
Si Si2 0.865377 0.216549 0.478360
Si Si3 0.375000 0.459397 0.375000
Si Si4 0.468212 0.611427 0.249519
Si Si5 0.125000 0.997178 0.125000
Si Si6 0.913134 0.577037 0.647103
O O1 0.367351 0.990302 0.921463
O O2 0.331517 0.069490 0.966798
O O3 0.500000 0.000000 0.000000
O O4 0.249372 0.989185 0.001884
O O5 0.750000 0.250000 0.500000
O O6 0.852982 0.162067 0.494489
O O7 0.859824 0.218982 0.422814
O O8 0.238859 0.429881 0.368725
O O9 0.625000 0.625000 0.252445
O O10 0.431770 0.586896 0.200966
O O11 0.252323 0.031648 0.118709
O O12 0.968700 0.625000 0.625000
#
# Coordination Sequence:
#
# PCOD9517036 Si02
#       6
#    32  32  16  32  16  32
#     4  12  25  47  68 104 145 185 234 299 355 428
#     4  12  24  43  72 102 141 181 236 294 354 426
#     4  12  25  43  70 100 144 186 226 292 366 412
#     4  12  24  44  72 102 140 190 238 292 357 425
#     4  12  23  43  68 104 136 184 228 302 352 416
#     4  12  23  40  69 103 135 177 241 291 351 415
#
# _framework density 19.622412000000001
#
# number of rings (size 3 to 8) (size 9 to 14) (size 15 to 20)
#    0.000    0.000    6.000    5.400    0.000    1.600 
#    0.000    0.000    0.000    0.000    0.000    0.000 
#    0.000    0.000    0.000    0.000    0.000    0.000 
#
# Total GULP energy -223615.641993 kJ/mol
# GULP energy per Si atom -5590.391050 kJ/mol
# Density = 1.957775 g / cm^3
# Si number density = 19.622412 Si / 1000 Ang^3
#
#
#
# Elastic Constant Matrix: (Units=GPa)
#
#
# Indices 1 2 3 4 5 6 
#
# 1 159.7715 52.6251 28.2340 0.0000 0.0000 0.0000
# 2 52.6251 135.2060 25.3882 0.0000 0.0000 0.0000
# 3 28.2340 25.3882 128.2313 0.0000 0.0000 0.0000
# 4 0.0000 0.0000 0.0000 0.1379 0.0000 0.0000
# 5 0.0000 0.0000 0.0000 0.0000 49.3950 0.0000
# 6 0.0000 0.0000 0.0000 0.0000 0.0000 30.9138
#
#
#
# Elastic Compliance Matrix: (Units=1/GPa)
#
#
# Indices 1 2 3 4 5 6 
#
# 1 0.007323 -0.002646 -0.001088 0.000000 0.000000 0.000000
# 2 -0.002646 0.008638 -0.001128 0.000000 0.000000 0.000000
# 3 -0.001088 -0.001128 0.008261 0.000000 0.000000 0.000000
# 4 0.000000 0.000000 0.000000 7.251170 0.000000 0.000000
# 5 0.000000 0.000000 0.000000 0.000000 0.020245 0.000000
# 6 0.000000 0.000000 0.000000 0.000000 0.000000 0.032348
#
#
# Mechanical properties :
#
#
# Convention : Reuss Voigt Hill
#
# Bulk Modulus (GPa) = 68.97513 70.63370 69.80442
# Shear Modulus (GPa) = 0.68096 37.22011 18.95054
#
# Velocity S-wave (km/s) = 0.58973 4.35997 3.11104
# Velocity P-wave (km/s) = 5.97421 7.83712 6.96820
#
# Compressibility (1/GPa) = 0.01449798
#
# Stress axis : x y z
#
# Youngs Moduli (GPa) = 136.56066 115.77218 121.04601
#
# Poissons Ratio (x) = 0.30631 0.13176
# Poissons Ratio (y) = 0.36131 0.13649
# Poissons Ratio (z) = 0.14865 0.13054
#
# Static dielectric constant tensor:
#      x y z
#    x 1.726160 0.000000 0.000000 
#    y 0.000000 1.711880 0.000000 
#    z 0.000000 0.000000 1.733210 
# 
# From -- ./inp_files/63911.got.cif
#   From: 2010.05.17/outbox.cif.g08.bks.cpg/sg70_32_cif.got.tgz:63911.got - 2010.06.03 15:57:51.
