data_PCOD9517870
_publ_section_title
;
Structure prediction by ZEFSAII (Michael W. Deem and Ramdas Pophale) SiO2 
 PCOD9517870
Probable space group: I M M M
;
_chemical_formula_sum "Si O2"
_cell_formula_units_Z 120
_cell_length_a 17.009021
_cell_length_b 22.405449
_cell_length_c 18.791789
_cell_angle_alpha 90.000000
_cell_angle_beta 90.000000
_cell_angle_gamma 90.000000
_cell_volume 7161.452179
_symmetry_space_group_name_H-M "I M M M"
_symmetry_group_IT_number 71
_symmetry_cell_setting 'orthorhombic'
loop_
_space_group_symop_operation_xyz
x,y,z
-x,-y,z
x,-y,-z
-x,y,-z
-x,-y,-z
x,y,-z
-x,y,z
x,-y,z
1/2+x,1/2+y,1/2+z
1/2-x,1/2-y,1/2+z
1/2+x,1/2-y,1/2-z
1/2-x,1/2+y,1/2-z
1/2-x,1/2-y,1/2-z
1/2+x,1/2+y,1/2-z
1/2-x,1/2+y,1/2+z
1/2+x,1/2-y,1/2+z
loop_
_atom_site_type_symbol
_atom_site_label
_atom_site_fract_x
_atom_site_fract_y
_atom_site_fract_z
Si Si1 0.664883 0.255318 0.160761
Si Si2 0.296720 0.929624 0.824979
Si Si3 0.500000 0.927840 0.580826
Si Si4 0.344841 0.069544 0.668664
Si Si5 0.090526 0.761378 0.917762
Si Si6 0.226969 0.663944 0.920030
Si Si7 0.589600 0.149077 0.915984
Si Si8 0.683079 0.325922 0.300823
O O1 0.698733 0.295024 0.096661
O O2 0.601460 0.209220 0.130645
O O3 0.648684 0.299610 0.226889
O O4 0.737940 0.213388 0.185190
O O5 0.348918 0.922758 0.753039
O O6 0.345989 0.897973 0.887431
O O7 0.216870 0.892853 0.807618
O O8 0.283850 0.000000 0.837062
O O9 0.500000 0.903262 0.500000
O O10 0.576785 0.912887 0.626057
O O11 0.500000 0.000000 0.574990
O O12 0.278143 0.111665 0.636997
O O13 0.329378 0.000000 0.654543
O O14 0.150422 0.706062 0.910357
O O15 0.121982 0.810441 0.863039
O O16 0.000000 0.744791 0.903704
O O17 0.096288 0.781236 0.000000
O O18 0.226369 0.640503 0.000000
O O19 0.500000 0.127223 0.907074
O O20 0.602341 0.161043 0.000000
#
# Coordination Sequence:
#
# PCOD9517870 Si02
#       8
#    16  16   8  16  16  16  16  16
#     4   9  17  32  50  73  97 129 167 213 258 304
#     4  10  21  36  54  75 102 138 175 213 254 305
#     4   9  18  30  42  60  93 135 173 207 245 291
#     4  10  20  32  45  66  99 138 175 210 245 295
#     4   9  19  32  48  74 103 129 160 203 255 310
#     4  10  18  29  48  70  98 134 165 203 247 298
#     4  10  22  37  53  75 103 134 173 222 266 308
#     4   9  17  32  52  73  99 129 169 208 253 303
#
# _framework density 16.756378000000002
#
# number of rings (size 3 to 8) (size 9 to 14) (size 15 to 20)
#    0.000    2.467    1.333    0.800    3.733    5.067 
#    0.000    0.667    0.000    0.400    0.000    0.933 
#    0.000    0.533    0.000    4.533    0.000    0.000 
#
# Total GULP energy -334174.487617 kJ/mol
# GULP energy per Si atom -5569.574794 kJ/mol
# Density = 1.671824 g / cm^3
# Si number density = 16.756378 Si / 1000 Ang^3
#
#
#
# Elastic Constant Matrix: (Units=GPa)
#
#
# Indices 1 2 3 4 5 6 
#
# 1 24.7677 17.2808 25.5980 0.0000 0.0000 0.0000
# 2 17.2808 65.7723 35.5142 0.0000 0.0000 0.0000
# 3 25.5980 35.5142 81.5705 0.0000 0.0000 0.0000
# 4 0.0000 0.0000 0.0000 21.2967 0.0000 0.0000
# 5 0.0000 0.0000 0.0000 0.0000 21.2078 0.0000
# 6 0.0000 0.0000 0.0000 0.0000 0.0000 17.0035
#
#
#
# Elastic Compliance Matrix: (Units=1/GPa)
#
#
# Indices 1 2 3 4 5 6 
#
# 1 0.062553 -0.007629 -0.016309 0.000000 0.000000 0.000000
# 2 -0.007629 0.020807 -0.006665 0.000000 0.000000 0.000000
# 3 -0.016309 -0.006665 0.020279 0.000000 0.000000 0.000000
# 4 0.000000 0.000000 0.000000 0.046956 0.000000 0.000000
# 5 0.000000 0.000000 0.000000 0.000000 0.047152 0.000000
# 6 0.000000 0.000000 0.000000 0.000000 0.000000 0.058811
#
#
# Mechanical properties :
#
#
# Convention : Reuss Voigt Hill
#
# Bulk Modulus (GPa) = 23.56582 36.54405 30.05493
# Shear Modulus (GPa) = 15.06436 18.14943 16.60690
#
# Velocity S-wave (km/s) = 3.00162 3.29467 3.15156
# Velocity P-wave (km/s) = 5.10953 6.02740 5.58735
#
# Compressibility (1/GPa) = 0.04243435
#
# Stress axis : x y z
#
# Youngs Moduli (GPa) = 15.98632 48.06031 49.31221
#
# Poissons Ratio (x) = 0.36666 0.80421
# Poissons Ratio (y) = 0.12196 0.32866
# Poissons Ratio (z) = 0.26071 0.32032
#
# Static dielectric constant tensor:
#      x y z
#    x 1.565920 0.000000 0.000000 
#    y 0.000000 1.575600 0.000000 
#    z 0.000000 0.000000 1.582520 
# 
# From -- ./inp_files/53456.got.cif
#   From: 2010.05.17/outbox.cif.g08.bks.cpg/sg71_27_cif.got.tgz:53456.got - 2010.06.03 16:22:01.
