data_PCOD9517017
_publ_section_title
;
Structure prediction by ZEFSAII (Michael W. Deem and Ramdas Pophale) SiO2 
 PCOD9517017
Probable space group: F D D D
;
_chemical_formula_sum "Si O2"
_cell_formula_units_Z 96
_cell_length_a 5.045035
_cell_length_b 27.871669
_cell_length_c 35.401084
_cell_angle_alpha 90.000000
_cell_angle_beta 90.000000
_cell_angle_gamma 90.000000
_cell_volume 4977.871940
_symmetry_space_group_name_H-M "F D D D"
_symmetry_group_IT_number 70
_space_group.IT_coordinate_system_code '2'
_symmetry_cell_setting 'orthorhombic'
loop_
_space_group_symop_operation_xyz
x,y,z
1/4-x,1/4-y,z
x,1/4-y,1/4-z
1/4-x,y,1/4-z
-x,-y,-z
3/4+x,3/4+y,-z
-x,3/4+y,3/4+z
3/4+x,-y,3/4+z
x,1/2+y,1/2+z
1/4-x,3/4-y,1/2+z
x,3/4-y,3/4-z
1/4-x,1/2+y,3/4-z
-x,1/2-y,1/2-z
3/4+x,1/4+y,1/2-z
-x,1/4+y,1/4+z
3/4+x,1/2-y,1/4+z
1/2+x,y,1/2+z
3/4-x,1/4-y,1/2+z
1/2+x,1/4-y,3/4-z
3/4-x,y,3/4-z
1/2-x,-y,1/2-z
1/4+x,3/4+y,1/2-z
1/2-x,3/4+y,1/4+z
1/4+x,-y,1/4+z
1/2+x,1/2+y,z
3/4-x,3/4-y,z
1/2+x,3/4-y,1/4-z
3/4-x,1/2+y,1/4-z
1/2-x,1/2-y,-z
1/4+x,1/4+y,-z
1/2-x,1/4+y,3/4+z
1/4+x,1/2-y,3/4+z
loop_
_atom_site_type_symbol
_atom_site_label
_atom_site_fract_x
_atom_site_fract_y
_atom_site_fract_z
Si Si1 0.749251 0.478204 0.977883
Si Si2 0.630876 0.721518 0.900532
Si Si3 0.375000 0.375000 0.056563
Si Si4 0.375000 0.375000 0.245031
O O1 0.708895 0.494400 0.934827
O O2 0.500000 0.500000 0.000000
O O3 0.777303 0.420987 0.981742
O O4 0.000000 0.500000 0.000000
O O5 0.375000 0.712974 0.875000
O O6 0.711155 0.670604 0.918926
O O7 0.875000 0.739486 0.875000
O O8 0.625854 0.360313 0.031097
#
# Coordination Sequence:
#
# PCOD9517017 Si02
#       4
#    32  32  16  16
#     4  12  23  43  67  93 131 174 223 268 322 402
#     4  12  24  40  62  98 138 170 211 270 341 399
#     4  12  22  39  66  98 133 167 212 279 337 398
#     4  12  22  41  69  98 124 171 230 273 318 386
#
# _framework density 19.285350000000001
#
# number of rings (size 3 to 8) (size 9 to 14) (size 15 to 20)
#    0.000    0.000    6.667    5.000    0.000    0.000 
#    0.000    0.833    0.000    2.000    0.000    0.000 
#    0.000    0.000    0.000    0.000    0.000    0.000 
#
# Total GULP energy -134241.147057 kJ/mol
# GULP energy per Si atom -5593.381127 kJ/mol
# Density = 1.924146 g / cm^3
# Si number density = 19.285350 Si / 1000 Ang^3
#
#
#
# Elastic Constant Matrix: (Units=GPa)
#
#
# Indices 1 2 3 4 5 6 
#
# 1 126.2492 20.4781 35.0371 0.0000 0.0000 0.0000
# 2 20.4781 134.0072 57.0433 0.0000 0.0000 0.0000
# 3 35.0371 57.0433 118.7844 0.0000 0.0000 0.0000
# 4 0.0000 0.0000 0.0000 14.8304 0.0000 0.0000
# 5 0.0000 0.0000 0.0000 0.0000 38.4854 0.0000
# 6 0.0000 0.0000 0.0000 0.0000 0.0000 24.6469
#
#
#
# Elastic Compliance Matrix: (Units=1/GPa)
#
#
# Indices 1 2 3 4 5 6 
#
# 1 0.008636 -0.000296 -0.002405 0.000000 0.000000 0.000000
# 2 -0.000296 0.009390 -0.004422 0.000000 0.000000 0.000000
# 3 -0.002405 -0.004422 0.011252 0.000000 0.000000 0.000000
# 4 0.000000 0.000000 0.000000 0.067429 0.000000 0.000000
# 5 0.000000 0.000000 0.000000 0.000000 0.025984 0.000000
# 6 0.000000 0.000000 0.000000 0.000000 0.000000 0.040573
#
#
# Mechanical properties :
#
#
# Convention : Reuss Voigt Hill
#
# Bulk Modulus (GPa) = 66.52695 67.12864 66.82780
# Shear Modulus (GPa) = 27.39414 33.35802 30.37608
#
# Velocity S-wave (km/s) = 3.77299 4.16349 3.97304
# Velocity P-wave (km/s) = 7.31790 7.61554 7.46820
#
# Compressibility (1/GPa) = 0.01503150
#
# Stress axis : x y z
#
# Youngs Moduli (GPa) = 115.78937 106.49854 88.87603
#
# Poissons Ratio (x) = 0.03151 0.21378
# Poissons Ratio (y) = 0.03426 0.39301
# Poissons Ratio (z) = 0.27851 0.47093
#
# Static dielectric constant tensor:
#      x y z
#    x 1.655030 0.000000 0.000000 
#    y 0.000000 1.782820 0.000000 
#    z 0.000000 0.000000 1.693240 
# 
# From -- ./inp_files/3984.got.cif
#   From: 2010.05.17/outbox.cif.g08.bks.cpg/sg70_2_cif.got.tgz:3984.got - 2010.06.03 15:57:51.
