data_PCOD9517352
_publ_section_title
;
Structure prediction by ZEFSAII (Michael W. Deem and Ramdas Pophale) SiO2 
 PCOD9517352
Probable space group: I M M M
;
_chemical_formula_sum "Si O2"
_cell_formula_units_Z 96
_cell_length_a 30.010811
_cell_length_b 8.614507
_cell_length_c 27.427621
_cell_angle_alpha 90.000000
_cell_angle_beta 90.000000
_cell_angle_gamma 90.000000
_cell_volume 7090.817367
_symmetry_space_group_name_H-M "I M M M"
_symmetry_group_IT_number 71
_symmetry_cell_setting 'orthorhombic'
loop_
_space_group_symop_operation_xyz
x,y,z
-x,-y,z
x,-y,-z
-x,y,-z
-x,-y,-z
x,y,-z
-x,y,z
x,-y,z
1/2+x,1/2+y,1/2+z
1/2-x,1/2-y,1/2+z
1/2+x,1/2-y,1/2-z
1/2-x,1/2+y,1/2-z
1/2-x,1/2-y,1/2-z
1/2+x,1/2+y,1/2-z
1/2-x,1/2+y,1/2+z
1/2+x,1/2-y,1/2+z
loop_
_atom_site_type_symbol
_atom_site_label
_atom_site_fract_x
_atom_site_fract_y
_atom_site_fract_z
Si Si1 0.806662 0.813542 0.853166
Si Si2 0.050004 0.814314 0.211847
Si Si3 0.140555 0.686201 0.241406
Si Si4 0.858307 0.687740 0.054898
Si Si5 0.450387 0.812590 0.602124
Si Si6 0.776311 0.313114 0.703094
O O1 0.836571 0.749138 0.808389
O O2 0.825775 0.751303 0.903652
O O3 0.755258 0.766323 0.841886
O O4 0.809711 0.000000 0.852342
O O5 0.090563 0.748421 0.243102
O O6 0.055650 0.752922 0.156546
O O7 0.000000 0.768316 0.227689
O O8 0.052489 0.000000 0.211030
O O9 0.139762 0.500000 0.238435
O O10 0.172769 0.734463 0.286369
O O11 0.856948 0.500000 0.056368
O O12 0.908801 0.735575 0.069181
O O13 0.847570 0.738116 0.000000
O O14 0.500000 0.766579 0.584848
O O15 0.449567 0.000000 0.605103
O O16 0.775819 0.500000 0.704190
O O17 0.750000 0.250000 0.750000
#
# Coordination Sequence:
#
# PCOD9517352 Si02
#       6
#    16  16  16  16  16  16
#     4  10  18  29  43  58  77  99 124 157 197 236
#     4  10  19  28  39  57  80 103 127 158 194 231
#     4  10  17  27  43  60  78  99 125 156 191 231
#     4  10  20  31  42  57  76  99 129 165 203 241
#     4   9  17  29  43  55  69  94 127 163 203 242
#     4   8  16  27  40  59  78  96 120 152 189 230
#
# _framework density 13.538637
#
# number of rings (size 3 to 8) (size 9 to 14) (size 15 to 20)
#    0.000    2.500    1.667    1.500    0.000    3.000 
#    0.000    1.667    0.000    0.000    0.000    3.500 
#    0.000    0.000    0.000    0.000    0.000    0.833 
#
# Total GULP energy -267257.687631 kJ/mol
# GULP energy per Si atom -5567.868492 kJ/mol
# Density = 1.350782 g / cm^3
# Si number density = 13.538637 Si / 1000 Ang^3
#
#
#
# Elastic Constant Matrix: (Units=GPa)
#
#
# Indices 1 2 3 4 5 6 
#
# 1 116.6020 22.6980 61.4271 0.0000 0.0000 0.0000
# 2 22.6980 13.4545 15.8462 0.0000 0.0000 0.0000
# 3 61.4271 15.8462 58.5692 0.0000 0.0000 0.0000
# 4 0.0000 0.0000 0.0000 7.4568 0.0000 0.0000
# 5 0.0000 0.0000 0.0000 0.0000 17.8990 0.0000
# 6 0.0000 0.0000 0.0000 0.0000 0.0000 19.4060
#
#
#
# Elastic Compliance Matrix: (Units=1/GPa)
#
#
# Indices 1 2 3 4 5 6 
#
# 1 0.020770 -0.013772 -0.018057 0.000000 0.000000 0.000000
# 2 -0.013772 0.118217 -0.017540 0.000000 0.000000 0.000000
# 3 -0.018057 -0.017540 0.040758 0.000000 0.000000 0.000000
# 4 0.000000 0.000000 0.000000 0.134106 0.000000 0.000000
# 5 0.000000 0.000000 0.000000 0.000000 0.055869 0.000000
# 6 0.000000 0.000000 0.000000 0.000000 0.000000 0.051531
#
#
# Mechanical properties :
#
#
# Convention : Reuss Voigt Hill
#
# Bulk Modulus (GPa) = 12.34486 43.17425 27.75956
# Shear Modulus (GPa) = 9.14093 14.86263 12.00178
#
# Velocity S-wave (km/s) = 2.60123 3.31689 2.98062
# Velocity P-wave (km/s) = 4.26144 6.82846 5.69156
#
# Compressibility (1/GPa) = 0.08100538
#
# Stress axis : x y z
#
# Youngs Moduli (GPa) = 48.14712 8.45905 24.53527
#
# Poissons Ratio (x) = 0.11650 0.44304
# Poissons Ratio (y) = 0.66307 0.43036
# Poissons Ratio (z) = 0.86940 0.14837
#
# Static dielectric constant tensor:
#      x y z
#    x 1.489290 0.000000 0.000000 
#    y 0.000000 1.461500 0.000000 
#    z 0.000000 0.000000 1.414090 
# 
# From -- ./inp_files/15449.got.cif
#   From: 2010.05.17/outbox.cif.g08.bks.cpg/sg71_8_cif.got.tgz:15449.got - 2010.06.03 16:22:01.
