data_PCOD9517389
_publ_section_title
;
Structure prediction by ZEFSAII (Michael W. Deem and Ramdas Pophale) SiO2 
 PCOD9517389
Probable space group: I M M M
;
_chemical_formula_sum "Si O2"
_cell_formula_units_Z 112
_cell_length_a 13.846413
_cell_length_b 18.206112
_cell_length_c 30.380374
_cell_angle_alpha 90.000000
_cell_angle_beta 90.000000
_cell_angle_gamma 90.000000
_cell_volume 7658.568609
_symmetry_space_group_name_H-M "I M M M"
_symmetry_group_IT_number 71
_symmetry_cell_setting 'orthorhombic'
loop_
_space_group_symop_operation_xyz
x,y,z
-x,-y,z
x,-y,-z
-x,y,-z
-x,-y,-z
x,y,-z
-x,y,z
x,-y,z
1/2+x,1/2+y,1/2+z
1/2-x,1/2-y,1/2+z
1/2+x,1/2-y,1/2-z
1/2-x,1/2+y,1/2-z
1/2-x,1/2-y,1/2-z
1/2+x,1/2+y,1/2-z
1/2-x,1/2+y,1/2+z
1/2+x,1/2-y,1/2+z
loop_
_atom_site_type_symbol
_atom_site_label
_atom_site_fract_x
_atom_site_fract_y
_atom_site_fract_z
Si Si1 0.256512 0.691668 0.396890
Si Si2 0.885995 0.915682 0.839848
Si Si3 0.386080 0.688682 0.259897
Si Si4 0.239430 0.699693 0.182713
Si Si5 0.387747 0.196538 0.551108
Si Si6 0.384655 0.084738 0.947744
Si Si7 0.113023 0.413348 0.129928
O O1 0.327680 0.633560 0.373880
O O2 0.227748 0.747629 0.357555
O O3 0.316789 0.740421 0.431469
O O4 0.172408 0.645261 0.419936
O O5 0.872407 0.881973 0.791233
O O6 0.000000 0.910548 0.849581
O O7 0.855912 0.000000 0.841687
O O8 0.500000 0.700725 0.253584
O O9 0.327919 0.681336 0.214666
O O10 0.337757 0.754744 0.287864
O O11 0.183970 0.630117 0.162455
O O12 0.371094 0.180108 0.500000
O O13 0.500000 0.220224 0.556268
O O14 0.375271 0.125965 0.582537
O O15 0.500000 0.091673 0.941586
O O16 0.358093 0.000000 0.936126
O O17 0.364994 0.093840 0.000000
O O18 0.131829 0.500000 0.128249
O O19 0.000000 0.402588 0.142721
#
# Coordination Sequence:
#
# PCOD9517389 Si02
#       7
#    16  16  16  16  16  16  16
#     4  10  17  28  45  63  86 112 139 173 214 249
#     4   9  17  28  43  63  84 108 138 168 202 249
#     4   9  17  30  45  61  85 114 141 173 214 254
#     4   9  18  29  44  66  86 110 144 180 214 256
#     4   9  17  28  43  65  90 114 141 172 209 257
#     4   9  18  31  45  62  85 114 147 179 210 246
#     4   9  17  29  45  64  87 115 144 177 217 257
#
# _framework density 14.624143
#
# number of rings (size 3 to 8) (size 9 to 14) (size 15 to 20)
#    0.000    2.857    0.000    2.143    0.000    4.857 
#    0.000    1.429    0.000    0.000    0.000   20.000 
#    0.000    0.000    0.000   15.143    0.000    0.286 
#
# Total GULP energy -311889.420319 kJ/mol
# GULP energy per Si atom -5569.453934 kJ/mol
# Density = 1.459086 g / cm^3
# Si number density = 14.624143 Si / 1000 Ang^3
#
#
#
# Elastic Constant Matrix: (Units=GPa)
#
#
# Indices 1 2 3 4 5 6 
#
# 1 63.7610 48.0624 51.0944 0.0000 0.0000 0.0000
# 2 48.0624 100.1258 45.6964 0.0000 0.0000 0.0000
# 3 51.0944 45.6964 90.4447 0.0000 0.0000 0.0000
# 4 0.0000 0.0000 0.0000 12.3818 0.0000 0.0000
# 5 0.0000 0.0000 0.0000 0.0000 27.8628 0.0000
# 6 0.0000 0.0000 0.0000 0.0000 0.0000 24.0387
#
#
#
# Elastic Compliance Matrix: (Units=1/GPa)
#
#
# Indices 1 2 3 4 5 6 
#
# 1 0.035122 -0.010143 -0.014717 0.000000 0.000000 0.000000
# 2 -0.010143 0.015910 -0.002308 0.000000 0.000000 0.000000
# 3 -0.014717 -0.002308 0.020537 0.000000 0.000000 0.000000
# 4 0.000000 0.000000 0.000000 0.080763 0.000000 0.000000
# 5 0.000000 0.000000 0.000000 0.000000 0.035890 0.000000
# 6 0.000000 0.000000 0.000000 0.000000 0.000000 0.041600
#
#
# Mechanical properties :
#
#
# Convention : Reuss Voigt Hill
#
# Bulk Modulus (GPa) = 58.02929 60.44864 59.23896
# Shear Modulus (GPa) = 17.24718 20.15522 18.70120
#
# Velocity S-wave (km/s) = 3.43791 3.71646 3.57990
# Velocity P-wave (km/s) = 7.45155 7.73567 7.59494
#
# Compressibility (1/GPa) = 0.01723268
#
# Stress axis : x y z
#
# Youngs Moduli (GPa) = 28.47181 62.85484 48.69326
#
# Poissons Ratio (x) = 0.63752 0.71662
# Poissons Ratio (y) = 0.28878 0.11240
# Poissons Ratio (z) = 0.41902 0.14509
#
# Static dielectric constant tensor:
#      x y z
#    x 1.464010 0.000000 0.000000 
#    y 0.000000 1.468670 0.000000 
#    z 0.000000 0.000000 1.474820 
# 
# From -- ./inp_files/41113.got.cif
#   From: 2010.05.17/outbox.cif.g08.bks.cpg/sg71_21_cif.got.tgz:41113.got - 2010.06.03 16:22:01.
