data_PCOD9517151
_publ_section_title
;
Structure prediction by ZEFSAII (Michael W. Deem and Ramdas Pophale) SiO2 
 PCOD9517151
Probable space group: F D D D
;
_chemical_formula_sum "Si O2"
_cell_formula_units_Z 72
_cell_length_a 6.837084
_cell_length_b 21.225796
_cell_length_c 18.651614
_cell_angle_alpha 90.000000
_cell_angle_beta 90.000000
_cell_angle_gamma 90.000000
_cell_volume 2706.769789
_symmetry_space_group_name_H-M "F D D D"
_symmetry_group_IT_number 70
_space_group.IT_coordinate_system_code '2'
_symmetry_cell_setting 'orthorhombic'
loop_
_space_group_symop_operation_xyz
x,y,z
1/4-x,1/4-y,z
x,1/4-y,1/4-z
1/4-x,y,1/4-z
-x,-y,-z
3/4+x,3/4+y,-z
-x,3/4+y,3/4+z
3/4+x,-y,3/4+z
x,1/2+y,1/2+z
1/4-x,3/4-y,1/2+z
x,3/4-y,3/4-z
1/4-x,1/2+y,3/4-z
-x,1/2-y,1/2-z
3/4+x,1/4+y,1/2-z
-x,1/4+y,1/4+z
3/4+x,1/2-y,1/4+z
1/2+x,y,1/2+z
3/4-x,1/4-y,1/2+z
1/2+x,1/4-y,3/4-z
3/4-x,y,3/4-z
1/2-x,-y,1/2-z
1/4+x,3/4+y,1/2-z
1/2-x,3/4+y,1/4+z
1/4+x,-y,1/4+z
1/2+x,1/2+y,z
3/4-x,3/4-y,z
1/2+x,3/4-y,1/4-z
3/4-x,1/2+y,1/4-z
1/2-x,1/2-y,-z
1/4+x,1/4+y,-z
1/2-x,1/4+y,3/4+z
1/4+x,1/2-y,3/4+z
loop_
_atom_site_type_symbol
_atom_site_label
_atom_site_fract_x
_atom_site_fract_y
_atom_site_fract_z
Si Si1 0.136422 0.328565 0.507946
Si Si2 0.457978 0.534897 0.801089
Si Si3 0.125000 0.625000 0.125000
O O1 0.315014 0.306293 0.557951
O O2 0.098401 0.400600 0.529093
O O3 0.977942 0.273284 0.503698
O O4 0.236645 0.335733 0.428684
O O5 0.375000 0.510824 0.875000
#
# Coordination Sequence:
#
# PCOD9517151 Si02
#       3
#    32  32   8
#     4   9  19  38  60  96 131 179 217 275 347 411
#     4   9  18  38  64  95 133 175 222 276 340 407
#     4   8  16  36  62  84 132 176 208 276 342 404
#
# _framework density 26.599972999999999
#
# number of rings (size 3 to 8) (size 9 to 14) (size 15 to 20)
#    0.000    3.556    0.000    0.000    0.000    0.000 
#   64.000   10.000    0.000    0.000    0.000    0.000 
#    0.000    0.000    0.000    0.000    0.000    0.000 
#
# Total GULP energy -100593.134287 kJ/mol
# GULP energy per Si atom -5588.507460 kJ/mol
# Density = 2.653943 g / cm^3
# Si number density = 26.599973 Si / 1000 Ang^3
#
#
#
# Elastic Constant Matrix: (Units=GPa)
#
#
# Indices 1 2 3 4 5 6 
#
# 1 59.5914 73.3809 24.2755 0.0000 0.0000 0.0000
# 2 73.3809 213.7148 -3.7815 0.0000 0.0000 0.0000
# 3 24.2755 -3.7815 70.5320 0.0000 0.0000 0.0000
# 4 0.0000 0.0000 0.0000 43.3593 0.0000 0.0000
# 5 0.0000 0.0000 0.0000 0.0000 44.3061 0.0000
# 6 0.0000 0.0000 0.0000 0.0000 0.0000 52.2471
#
#
#
# Elastic Compliance Matrix: (Units=1/GPa)
#
#
# Indices 1 2 3 4 5 6 
#
# 1 0.039819 -0.013928 -0.014451 0.000000 0.000000 0.000000
# 2 -0.013928 0.009555 0.005306 0.000000 0.000000 0.000000
# 3 -0.014451 0.005306 0.019436 0.000000 0.000000 0.000000
# 4 0.000000 0.000000 0.000000 0.023063 0.000000 0.000000
# 5 0.000000 0.000000 0.000000 0.000000 0.022570 0.000000
# 6 0.000000 0.000000 0.000000 0.000000 0.000000 0.019140
#
#
# Mechanical properties :
#
#
# Convention : Reuss Voigt Hill
#
# Bulk Modulus (GPa) = 44.12352 59.06534 51.59443
# Shear Modulus (GPa) = 26.69738 44.64672 35.67205
#
# Velocity S-wave (km/s) = 3.17150 4.10133 3.66602
# Velocity P-wave (km/s) = 5.48042 6.68440 6.11213
#
# Compressibility (1/GPa) = 0.02266365
#
# Stress axis : x y z
#
# Youngs Moduli (GPa) = 25.11387 104.65452 51.45029
#
# Poissons Ratio (x) = 1.45761 0.74353
# Poissons Ratio (y) = 0.34978 -0.27299
# Poissons Ratio (z) = 0.36293 -0.55529
#
# Static dielectric constant tensor:
#      x y z
#    x 2.166920 0.000000 0.000000 
#    y 0.000000 2.089070 0.000000 
#    z 0.000000 0.000000 2.011370 
# 
# From -- ./inp_files/6673.got.cif
#   From: 2010.05.17/outbox.cif.g08.bks.cpg/sg70_4_cif.got.tgz:6673.got - 2010.06.03 15:57:51.
