data_PCOD9517758
_publ_section_title
;
Structure prediction by ZEFSAII (Michael W. Deem and Ramdas Pophale) SiO2 
 PCOD9517758
Probable space group: I M M M
;
_chemical_formula_sum "Si O2"
_cell_formula_units_Z 88
_cell_length_a 7.397921
_cell_length_b 19.922752
_cell_length_c 28.961365
_cell_angle_alpha 90.000000
_cell_angle_beta 90.000000
_cell_angle_gamma 90.000000
_cell_volume 4268.527122
_symmetry_space_group_name_H-M "I M M M"
_symmetry_group_IT_number 71
_symmetry_cell_setting 'orthorhombic'
loop_
_space_group_symop_operation_xyz
x,y,z
-x,-y,z
x,-y,-z
-x,y,-z
-x,-y,-z
x,y,-z
-x,y,z
x,-y,z
1/2+x,1/2+y,1/2+z
1/2-x,1/2-y,1/2+z
1/2+x,1/2-y,1/2-z
1/2-x,1/2+y,1/2-z
1/2-x,1/2-y,1/2-z
1/2+x,1/2+y,1/2-z
1/2-x,1/2+y,1/2+z
1/2+x,1/2-y,1/2+z
loop_
_atom_site_type_symbol
_atom_site_label
_atom_site_fract_x
_atom_site_fract_y
_atom_site_fract_z
Si Si1 0.284329 0.837405 0.412663
Si Si2 0.292073 0.418390 0.277588
Si Si3 0.778580 0.922823 0.121261
Si Si4 0.721230 0.076778 0.500000
Si Si5 0.279183 0.306220 0.446550
Si Si6 0.783512 0.923589 0.322656
O O1 0.500000 0.834166 0.417855
O O2 0.217889 0.884468 0.454272
O O3 0.218945 0.761787 0.420938
O O4 0.250511 0.872524 0.363908
O O5 0.500000 0.394545 0.277851
O O6 0.294293 0.500000 0.277578
O O7 0.215359 0.400075 0.327605
O O8 0.212394 0.400592 0.227654
O O9 0.721761 0.871627 0.081767
O O10 0.000000 0.923029 0.122694
O O11 0.723854 0.000000 0.113356
O O12 0.500000 0.076805 0.500000
O O13 0.779551 0.000000 0.500000
O O14 0.222679 0.305563 0.500000
O O15 0.500000 0.306666 0.446733
O O16 0.000000 0.928439 0.317641
O O17 0.718711 0.000000 0.332933
#
# Coordination Sequence:
#
# PCOD9517758 Si02
#       6
#    16  16  16   8  16  16
#     4  10  18  29  43  61  87 118 148 177 214 261
#     4   7  11  22  39  58  81 109 139 172 213 258
#     4   8  13  22  39  62  85 111 144 177 211 259
#     4   9  16  26  41  57  74 106 150 181 201 243
#     4   9  16  26  39  57  85 118 146 176 218 259
#     4   9  17  29  45  64  86 112 145 186 222 249
#
# _framework density 20.616009999999999
#
# number of rings (size 3 to 8) (size 9 to 14) (size 15 to 20)
#    0.000    3.364    0.909    2.727    0.000    1.455 
#    0.000    3.182    0.000    1.636    0.000    0.000 
#    0.000    2.182    0.000    1.636    0.000    1.818 
#
# Total GULP energy -245262.947636 kJ/mol
# GULP energy per Si atom -5574.157901 kJ/mol
# Density = 2.056909 g / cm^3
# Si number density = 20.616010 Si / 1000 Ang^3
#
#
#
# Elastic Constant Matrix: (Units=GPa)
#
#
# Indices 1 2 3 4 5 6 
#
# 1 67.8235 5.6632 3.3311 0.0000 0.0000 0.0000
# 2 5.6632 141.7385 111.3532 0.0000 0.0000 0.0000
# 3 3.3311 111.3532 187.0401 0.0000 0.0000 0.0000
# 4 0.0000 0.0000 0.0000 -33.6789 0.0000 0.0000
# 5 0.0000 0.0000 0.0000 0.0000 81.7444 0.0000
# 6 0.0000 0.0000 0.0000 0.0000 0.0000 0.6227
#
#
#
# Elastic Compliance Matrix: (Units=1/GPa)
#
#
# Indices 1 2 3 4 5 6 
#
# 1 0.014796 -0.000722 0.000166 0.000000 0.000000 0.000000
# 2 -0.000722 0.013290 -0.007899 0.000000 0.000000 0.000000
# 3 0.000166 -0.007899 0.010046 0.000000 0.000000 0.000000
# 4 0.000000 0.000000 0.000000 -0.029692 0.000000 0.000000
# 5 0.000000 0.000000 0.000000 0.000000 0.012233 0.000000
# 6 0.000000 0.000000 0.000000 0.000000 0.000000 1.605920
#
#
# Mechanical properties :
#
#
# Convention : Reuss Voigt Hill
#
# Bulk Modulus (GPa) = 47.11908 70.81080 58.96494
# Shear Modulus (GPa) = 3.02924 28.15461 15.59192
#
# Velocity S-wave (km/s) = 1.21349 3.69950 2.75308
# Velocity P-wave (km/s) = 4.98684 7.25744 6.22652
#
# Compressibility (1/GPa) = 0.02122282
#
# Stress axis : x y z
#
# Youngs Moduli (GPa) = 67.58470 75.24513 99.53979
#
# Poissons Ratio (x) = 0.05431 -0.01654
# Poissons Ratio (y) = 0.04878 0.78629
# Poissons Ratio (z) = -0.01123 0.59438
#
# Static dielectric constant tensor:
#      x y z
#    x 1.837940 0.000000 0.000000 
#    y 0.000000 1.693000 0.000000 
#    z 0.000000 0.000000 1.747850 
# 
# From -- ./inp_files/67998.got.cif
#   From: 2010.05.17/outbox.cif.g08.bks.cpg/sg71_34_cif.got.tgz:67998.got - 2010.06.03 16:22:01.
