data_PCOD9517488
_publ_section_title
;
Structure prediction by ZEFSAII (Michael W. Deem and Ramdas Pophale) SiO2 
 PCOD9517488
Probable space group: I M M M
;
_chemical_formula_sum "Si O2"
_cell_formula_units_Z 116
_cell_length_a 17.417255
_cell_length_b 28.920606
_cell_length_c 12.822683
_cell_angle_alpha 90.000000
_cell_angle_beta 90.000000
_cell_angle_gamma 90.000000
_cell_volume 6459.010715
_symmetry_space_group_name_H-M "I M M M"
_symmetry_group_IT_number 71
_symmetry_cell_setting 'orthorhombic'
loop_
_space_group_symop_operation_xyz
x,y,z
-x,-y,z
x,-y,-z
-x,y,-z
-x,-y,-z
x,y,-z
-x,y,z
x,-y,z
1/2+x,1/2+y,1/2+z
1/2-x,1/2-y,1/2+z
1/2+x,1/2-y,1/2-z
1/2-x,1/2+y,1/2-z
1/2-x,1/2-y,1/2-z
1/2+x,1/2+y,1/2-z
1/2-x,1/2+y,1/2+z
1/2+x,1/2-y,1/2+z
loop_
_atom_site_type_symbol
_atom_site_label
_atom_site_fract_x
_atom_site_fract_y
_atom_site_fract_z
Si Si1 0.000000 0.336884 0.500000
Si Si2 0.407632 0.285719 0.120316
Si Si3 0.741878 0.612166 0.381495
Si Si4 0.590341 0.867634 0.618562
Si Si5 0.414293 0.369271 0.722505
Si Si6 0.131026 0.316262 0.327237
Si Si7 0.206941 0.553766 0.813264
Si Si8 0.620184 0.446113 0.115414
O O1 0.933042 0.334644 0.591747
O O2 0.500000 0.276655 0.120869
O O3 0.393009 0.327320 0.199406
O O4 0.367616 0.238634 0.156280
O O5 0.387175 0.296552 0.000000
O O6 0.754555 0.598197 0.500000
O O7 0.652869 0.622721 0.359565
O O8 0.790407 0.658069 0.355902
O O9 0.772043 0.573341 0.301302
O O10 0.605110 0.851260 0.500000
O O11 0.500000 0.878828 0.626765
O O12 0.610043 0.830999 0.709283
O O13 0.642357 0.912732 0.640272
O O14 0.500000 0.361187 0.680729
O O15 0.414340 0.414312 0.796052
O O16 0.184424 0.500000 0.811650
O O17 0.287268 0.557751 0.875391
O O18 0.600905 0.500000 0.128948
O O19 0.595892 0.431179 0.000000
#
# Coordination Sequence:
#
# PCOD9517488 Si02
#       8
#     4  16  16  16  16  16  16  16
#     4  12  16  32  62  88 103 138 189 240 272 312
#     4  10  17  31  54  81 110 140 178 227 278 323
#     4  10  21  37  56  76 103 138 180 226 270 326
#     4  10  20  32  49  77 115 152 184 217 261 327
#     4  10  22  35  50  76 107 140 176 219 271 329
#     4  11  19  34  58  84 107 140 188 229 275 318
#     4   9  19  34  53  76 103 137 177 222 271 322
#     4   9  17  32  53  75 100 131 168 214 270 325
#
# _framework density 17.959406999999999
#
# number of rings (size 3 to 8) (size 9 to 14) (size 15 to 20)
#    0.000    2.069    2.759    0.828    0.000    3.310 
#    0.000    2.759    0.000    0.828    0.000    7.724 
#    0.000    0.000    0.000    0.000    0.000    0.000 
#
# Total GULP energy -323044.508042 kJ/mol
# GULP energy per Si atom -5569.732897 kJ/mol
# Density = 1.791853 g / cm^3
# Si number density = 17.959407 Si / 1000 Ang^3
#
#
#
# Elastic Constant Matrix: (Units=GPa)
#
#
# Indices 1 2 3 4 5 6 
#
# 1 59.4065 -2.2541 20.0865 -0.0001 0.0000 0.0000
# 2 -2.2541 31.0361 7.3989 -0.0001 0.0000 0.0000
# 3 20.0865 7.3989 112.6289 0.0005 -0.0001 0.0001
# 4 -0.0001 -0.0001 0.0005 9.5080 0.0000 0.0000
# 5 0.0000 0.0000 -0.0001 0.0000 3.3479 0.0000
# 6 0.0000 0.0000 0.0001 0.0000 0.0000 16.5210
#
#
#
# Elastic Compliance Matrix: (Units=1/GPa)
#
#
# Indices 1 2 3 4 5 6 
#
# 1 0.018049 0.002111 -0.003358 0.000000 0.000000 0.000000
# 2 0.002111 0.032980 -0.002543 0.000000 0.000000 0.000000
# 3 -0.003358 -0.002543 0.009645 -0.000001 0.000000 0.000000
# 4 0.000000 0.000000 -0.000001 0.105174 0.000001 0.000000
# 5 0.000000 0.000000 0.000000 0.000001 0.298697 0.000000
# 6 0.000000 0.000000 0.000000 0.000000 0.000000 0.060529
#
#
# Mechanical properties :
#
#
# Convention : Reuss Voigt Hill
#
# Bulk Modulus (GPa) = 18.83430 28.17046 23.50238
# Shear Modulus (GPa) = 9.08512 17.73140 13.40826
#
# Velocity S-wave (km/s) = 2.25159 3.14555 2.73534
# Velocity P-wave (km/s) = 4.15566 5.37702 4.80530
#
# Compressibility (1/GPa) = 0.05309461
#
# Stress axis : x y z
#
# Youngs Moduli (GPa) = 55.40619 30.32124 103.68530
#
# Poissons Ratio (x) = -0.06402 0.34813
# Poissons Ratio (y) = -0.11698 0.26368
# Poissons Ratio (z) = 0.18603 0.07711
#
# Static dielectric constant tensor:
#      x y z
#    x 1.626580 0.000000 0.000000 
#    y 0.000000 1.599870 0.000000 
#    z 0.000000 0.000000 1.604420 
# 
# From -- ./inp_files/24842.got.cif
#   From: 2010.05.17/outbox.cif.g08.bks.cpg/sg71_13_cif.got.tgz:24842.got - 2010.06.03 16:22:01.
