data_PCOD9517954
_publ_section_title
;
Structure prediction by ZEFSAII (Michael W. Deem and Ramdas Pophale) SiO2 
 PCOD9517954
Probable space group: I M M M
;
_chemical_formula_sum "Si O2"
_cell_formula_units_Z 96
_cell_length_a 7.901242
_cell_length_b 25.253016
_cell_length_c 33.092704
_cell_angle_alpha 90.000000
_cell_angle_beta 90.000000
_cell_angle_gamma 90.000000
_cell_volume 6602.993538
_symmetry_space_group_name_H-M "I M M M"
_symmetry_group_IT_number 71
_symmetry_cell_setting 'orthorhombic'
loop_
_space_group_symop_operation_xyz
x,y,z
-x,-y,z
x,-y,-z
-x,y,-z
-x,-y,-z
x,y,-z
-x,y,z
x,-y,z
1/2+x,1/2+y,1/2+z
1/2-x,1/2-y,1/2+z
1/2+x,1/2-y,1/2-z
1/2-x,1/2+y,1/2-z
1/2-x,1/2-y,1/2-z
1/2+x,1/2+y,1/2-z
1/2-x,1/2+y,1/2+z
1/2+x,1/2-y,1/2+z
loop_
_atom_site_type_symbol
_atom_site_label
_atom_site_fract_x
_atom_site_fract_y
_atom_site_fract_z
Si Si1 0.199700 0.328884 0.755216
Si Si2 0.000000 0.443065 0.426519
Si Si3 0.000000 0.322498 0.453211
Si Si4 0.804208 0.080470 0.867159
Si Si5 0.703841 0.441488 0.274031
Si Si6 0.697118 0.245969 0.817256
Si Si7 0.688221 0.299654 0.396381
O O1 0.228507 0.390984 0.749880
O O2 0.283485 0.301208 0.793773
O O3 0.263591 0.297816 0.715033
O O4 0.000000 0.317957 0.757894
O O5 0.000000 0.387077 0.449873
O O6 0.166806 0.441381 0.398249
O O7 0.000000 0.500000 0.448466
O O8 0.164502 0.301059 0.429463
O O9 0.000000 0.307739 0.500000
O O10 0.755071 0.066111 0.821494
O O11 0.799751 0.143639 0.873599
O O12 0.000000 0.063590 0.873998
O O13 0.500000 0.440070 0.271357
O O14 0.762151 0.500000 0.261152
O O15 0.500000 0.233998 0.824550
O O16 0.785791 0.242136 0.860365
O O17 0.500000 0.295199 0.413970
#
# Coordination Sequence:
#
# PCOD9517954 Si02
#       7
#    16   8   8  16  16  16  16
#     4  10  20  28  42  64  91 120 152 193 228 272
#     4  10  20  31  48  66  82 112 150 191 237 288
#     4  10  22  37  50  68  92 114 145 192 240 293
#     4   9  18  30  44  63  87 112 147 191 233 277
#     4  10  19  29  40  56  84 121 156 193 236 272
#     4  10  18  30  46  66  92 118 149 188 236 274
#     4  10  18  31  53  70  88 115 147 186 232 289
#
# _framework density 14.538861000000001
#
# number of rings (size 3 to 8) (size 9 to 14) (size 15 to 20)
#    0.000    2.167    2.500    1.500    1.167    3.167 
#    0.000    0.000    0.000    0.000    0.000    4.667 
#    0.000    0.000    0.000    0.000    0.000    1.667 
#
# Total GULP energy -267635.532899 kJ/mol
# GULP energy per Si atom -5575.740269 kJ/mol
# Density = 1.450577 g / cm^3
# Si number density = 14.538861 Si / 1000 Ang^3
#
#
#
# Elastic Constant Matrix: (Units=GPa)
#
#
# Indices 1 2 3 4 5 6 
#
# 1 66.6564 12.9707 33.2856 0.0000 0.0000 0.0000
# 2 12.9707 59.6735 29.5163 0.0000 0.0000 0.0000
# 3 33.2856 29.5163 71.8372 0.0000 0.0000 0.0000
# 4 0.0000 0.0000 0.0000 2.1648 0.0000 0.0000
# 5 0.0000 0.0000 0.0000 0.0000 8.0089 0.0000
# 6 0.0000 0.0000 0.0000 0.0000 0.0000 17.8963
#
#
#
# Elastic Compliance Matrix: (Units=1/GPa)
#
#
# Indices 1 2 3 4 5 6 
#
# 1 0.019522 0.000290 -0.009165 0.000000 0.000000 0.000000
# 2 0.000290 0.021037 -0.008778 0.000000 0.000000 0.000000
# 3 -0.009165 -0.008778 0.021773 0.000000 0.000000 0.000000
# 4 0.000000 0.000000 0.000000 0.461936 0.000000 0.000000
# 5 0.000000 0.000000 0.000000 0.000000 0.124861 0.000000
# 6 0.000000 0.000000 0.000000 0.000000 0.000000 0.055877
#
#
# Mechanical properties :
#
#
# Convention : Reuss Voigt Hill
#
# Bulk Modulus (GPa) = 37.00002 38.85691 37.92846
# Shear Modulus (GPa) = 6.67271 13.77365 10.22318
#
# Velocity S-wave (km/s) = 2.14465 3.08127 2.65460
# Velocity P-wave (km/s) = 5.62468 6.28039 5.96155
#
# Compressibility (1/GPa) = 0.02702701
#
# Stress axis : x y z
#
# Youngs Moduli (GPa) = 51.22316 47.53623 45.92764
#
# Poissons Ratio (x) = -0.01377 0.42091
# Poissons Ratio (y) = -0.01484 0.40314
# Poissons Ratio (z) = 0.46945 0.41726
#
# Static dielectric constant tensor:
#      x y z
#    x 1.520360 0.000000 0.000000 
#    y 0.000000 1.498010 0.000000 
#    z 0.000000 0.000000 1.449670 
# 
# From -- ./inp_files/63473.got.cif
#   From: 2010.05.17/outbox.cif.g08.bks.cpg/sg71_32_cif.got.tgz:63473.got - 2010.06.03 16:22:01.
