data_PCOD9517298
_publ_section_title
;
Structure prediction by ZEFSAII (Michael W. Deem and Ramdas Pophale) SiO2 
 PCOD9517298
Probable space group: I M M M
;
_chemical_formula_sum "Si O2"
_cell_formula_units_Z 104
_cell_length_a 7.341032
_cell_length_b 24.733154
_cell_length_c 29.988576
_cell_angle_alpha 90.000000
_cell_angle_beta 90.000000
_cell_angle_gamma 90.000000
_cell_volume 5444.932029
_symmetry_space_group_name_H-M "I M M M"
_symmetry_group_IT_number 71
_symmetry_cell_setting 'orthorhombic'
loop_
_space_group_symop_operation_xyz
x,y,z
-x,-y,z
x,-y,-z
-x,y,-z
-x,-y,-z
x,y,-z
-x,y,z
x,-y,z
1/2+x,1/2+y,1/2+z
1/2-x,1/2-y,1/2+z
1/2+x,1/2-y,1/2-z
1/2-x,1/2+y,1/2-z
1/2-x,1/2-y,1/2-z
1/2+x,1/2+y,1/2-z
1/2-x,1/2+y,1/2+z
1/2+x,1/2-y,1/2+z
loop_
_atom_site_type_symbol
_atom_site_label
_atom_site_fract_x
_atom_site_fract_y
_atom_site_fract_z
Si Si1 0.787471 0.120131 0.089846
Si Si2 0.288105 0.434333 0.224375
Si Si3 0.278056 0.645266 0.050925
Si Si4 0.723008 0.437508 0.873373
Si Si5 0.777194 0.062986 0.178450
Si Si6 0.280859 0.232218 0.050690
Si Si7 0.777540 0.062956 0.000000
O O1 0.713612 0.097674 0.136367
O O2 0.774532 0.184257 0.083163
O O3 0.712259 0.092348 0.044987
O O4 0.000000 0.105111 0.090576
O O5 0.500000 0.417885 0.224068
O O6 0.283124 0.500000 0.224709
O O7 0.213702 0.418948 0.175884
O O8 0.212572 0.417999 0.272587
O O9 0.500000 0.644765 0.051104
O O10 0.217878 0.601887 0.087211
O O11 0.221677 0.706841 0.061667
O O12 0.222421 0.633198 0.000000
O O13 0.500000 0.437276 0.872478
O O14 0.776584 0.500000 0.880465
O O15 0.000000 0.064354 0.180298
O O16 0.727666 0.000000 0.172063
O O17 0.500000 0.232746 0.049808
O O18 0.218449 0.219711 0.000000
O O19 0.000000 0.065953 0.000000
O O20 0.728416 0.000000 0.000000
#
# Coordination Sequence:
#
# PCOD9517298 Si02
#       7
#    16  16  16  16  16  16   8
#     4  10  17  25  40  59  75  95 127 165 195 224
#     4   7  10  17  29  47  72  98 120 144 181 231
#     4   8  14  23  34  49  70 100 134 159 183 224
#     4   8  12  18  31  52  76  99 122 152 190 227
#     4   8  13  21  34  53  75  96 118 148 191 237
#     4   9  17  29  41  51  71 105 137 159 185 225
#     4   9  16  24  35  55  79  95 112 151 204 240
#
# _framework density 19.10033
#
# number of rings (size 3 to 8) (size 9 to 14) (size 15 to 20)
#    0.000    3.615    0.769    3.231    0.000    2.154 
#    0.000    1.538    0.000    3.231    0.000    0.000 
#    0.000    0.615    0.000    7.538    0.000    8.000 
#
# Total GULP energy -289709.117784 kJ/mol
# GULP energy per Si atom -5571.329188 kJ/mol
# Density = 1.905686 g / cm^3
# Si number density = 19.100330 Si / 1000 Ang^3
#
#
#
# Elastic Constant Matrix: (Units=GPa)
#
#
# Indices 1 2 3 4 5 6 
#
# 1 69.7478 -1.7467 7.9820 0.0000 0.0000 0.0000
# 2 -1.7467 103.3107 113.2758 0.0000 0.0000 0.0000
# 3 7.9820 113.2758 213.6727 0.0000 0.0000 0.0000
# 4 0.0000 0.0000 0.0000 13.3842 0.0000 0.0000
# 5 0.0000 0.0000 0.0000 0.0000 -9.3661 0.0000
# 6 0.0000 0.0000 0.0000 0.0000 0.0000 5.7552
#
#
#
# Elastic Compliance Matrix: (Units=1/GPa)
#
#
# Indices 1 2 3 4 5 6 
#
# 1 0.014572 0.002014 -0.001612 0.000000 0.000000 0.000000
# 2 0.002014 0.023395 -0.012478 0.000000 0.000000 0.000000
# 3 -0.001612 -0.012478 0.011355 0.000000 0.000000 0.000000
# 4 0.000000 0.000000 0.000000 0.074715 0.000000 0.000000
# 5 0.000000 0.000000 0.000000 0.000000 -0.106769 0.000000
# 6 0.000000 0.000000 0.000000 0.000000 0.000000 0.173756
#
#
# Mechanical properties :
#
#
# Convention : Reuss Voigt Hill
#
# Bulk Modulus (GPa) = 39.72883 69.52815 54.62849
# Shear Modulus (GPa) = 22.36474 19.76935 21.06705
#
# Velocity S-wave (km/s) = 3.42557 3.22067 3.32470
# Velocity P-wave (km/s) = 6.04080 7.09302 6.58795
#
# Compressibility (1/GPa) = 0.02517064
#
# Stress axis : x y z
#
# Youngs Moduli (GPa) = 68.62342 42.74440 88.06558
#
# Poissons Ratio (x) = -0.08608 0.14196
# Poissons Ratio (y) = -0.13820 1.09886
# Poissons Ratio (z) = 0.11062 0.53335
#
# Static dielectric constant tensor:
#      x y z
#    x 1.759180 0.000000 0.000000 
#    y 0.000000 1.621560 0.000000 
#    z 0.000000 0.000000 1.686630 
# 
# From -- ./inp_files/69573.got.cif
#   From: 2010.05.17/outbox.cif.g08.bks.cpg/sg71_35_cif.got.tgz:69573.got - 2010.06.03 16:22:01.
