data_PCOD9517608
_publ_section_title
;
Structure prediction by ZEFSAII (Michael W. Deem and Ramdas Pophale) SiO2 
 PCOD9517608
Probable space group: I M M M
;
_chemical_formula_sum "Si O2"
_cell_formula_units_Z 128
_cell_length_a 22.955175
_cell_length_b 18.361140
_cell_length_c 18.080264
_cell_angle_alpha 90.000000
_cell_angle_beta 90.000000
_cell_angle_gamma 90.000000
_cell_volume 7620.527200
_symmetry_space_group_name_H-M "I M M M"
_symmetry_group_IT_number 71
_symmetry_cell_setting 'orthorhombic'
loop_
_space_group_symop_operation_xyz
x,y,z
-x,-y,z
x,-y,-z
-x,y,-z
-x,-y,-z
x,y,-z
-x,y,z
x,-y,z
1/2+x,1/2+y,1/2+z
1/2-x,1/2-y,1/2+z
1/2+x,1/2-y,1/2-z
1/2-x,1/2+y,1/2-z
1/2-x,1/2-y,1/2-z
1/2+x,1/2+y,1/2-z
1/2-x,1/2+y,1/2+z
1/2+x,1/2-y,1/2+z
loop_
_atom_site_type_symbol
_atom_site_label
_atom_site_fract_x
_atom_site_fract_y
_atom_site_fract_z
Si Si1 0.748555 0.231883 0.580256
Si Si2 0.566964 0.289591 0.413960
Si Si3 0.344757 0.196315 0.162522
Si Si4 0.195608 0.420606 0.106625
Si Si5 0.742722 0.917113 0.227989
Si Si6 0.565688 0.117975 0.373956
Si Si7 0.837290 0.195814 0.800176
Si Si8 0.432402 0.082528 0.198263
O O1 0.734553 0.264146 0.500000
O O2 0.814628 0.252257 0.601783
O O3 0.732278 0.147090 0.577512
O O4 0.707326 0.262770 0.644788
O O5 0.585074 0.298341 0.500000
O O6 0.500000 0.313998 0.407691
O O7 0.567808 0.203390 0.394070
O O8 0.608811 0.324442 0.352713
O O9 0.297480 0.132457 0.176484
O O10 0.351679 0.247217 0.235122
O O11 0.401953 0.147577 0.153552
O O12 0.214436 0.500000 0.080920
O O13 0.208830 0.418190 0.194319
O O14 0.126079 0.412745 0.093452
O O15 0.803187 0.873051 0.233213
O O16 0.750891 0.000000 0.203261
O O17 0.500000 0.092177 0.396435
O O18 0.570434 0.102509 0.285934
O O19 0.500000 0.079695 0.178850
O O20 0.407793 0.000000 0.189182
#
# Coordination Sequence:
#
# PCOD9517608 Si02
#       8
#    16  16  16  16  16  16  16  16
#     4  11  21  33  48  70  98 130 167 208 251 298
#     4  10  19  30  47  71 100 133 167 206 247 285
#     4  11  18  32  51  73  98 130 168 208 243 289
#     4  11  19  30  47  70 104 139 166 202 249 300
#     4  10  18  29  47  71  97 126 161 209 257 294
#     4  10  18  27  43  69 101 136 172 202 235 284
#     4  11  18  31  51  72  94 129 171 210 244 288
#     4  10  18  28  48  77 105 132 163 201 244 292
#
# _framework density 16.796738000000001
#
# number of rings (size 3 to 8) (size 9 to 14) (size 15 to 20)
#    0.000    1.500    6.250    1.875    0.000    1.000 
#    0.000    0.000    0.000   14.625    0.000   10.500 
#    0.000    0.500    0.000    1.125    0.000    0.000 
#
# Total GULP energy -356445.536496 kJ/mol
# GULP energy per Si atom -5569.461508 kJ/mol
# Density = 1.675851 g / cm^3
# Si number density = 16.796738 Si / 1000 Ang^3
#
#
#
# Elastic Constant Matrix: (Units=GPa)
#
#
# Indices 1 2 3 4 5 6 
#
# 1 87.4225 44.0069 21.4944 0.0000 0.0000 0.0000
# 2 44.0069 80.5393 18.8953 0.0000 0.0000 0.0000
# 3 21.4944 18.8953 32.6469 0.0000 0.0000 0.0000
# 4 0.0000 0.0000 0.0000 -1.2270 0.0000 0.0000
# 5 0.0000 0.0000 0.0000 0.0000 0.8137 0.0000
# 6 0.0000 0.0000 0.0000 0.0000 0.0000 22.3183
#
#
#
# Elastic Compliance Matrix: (Units=1/GPa)
#
#
# Indices 1 2 3 4 5 6 
#
# 1 0.016962 -0.007693 -0.006715 0.000000 0.000000 0.000000
# 2 -0.007693 0.017856 -0.005270 0.000000 0.000000 0.000000
# 3 -0.006715 -0.005270 0.038102 0.000000 0.000000 0.000000
# 4 0.000000 0.000000 0.000000 -0.814976 0.000000 0.000000
# 5 0.000000 0.000000 0.000000 0.000000 1.228963 0.000000
# 6 0.000000 0.000000 0.000000 0.000000 0.000000 0.044806
#
#
# Mechanical properties :
#
#
# Convention : Reuss Voigt Hill
#
# Bulk Modulus (GPa) = 29.79336 41.04465 35.41900
# Shear Modulus (GPa) = 8.58727 12.12846 10.35786
#
# Velocity S-wave (km/s) = 2.26353 2.69006 2.48596
# Velocity P-wave (km/s) = 4.96060 5.84274 5.41965
#
# Compressibility (1/GPa) = 0.03356453
#
# Stress axis : x y z
#
# Youngs Moduli (GPa) = 58.95470 56.00377 26.24519
#
# Poissons Ratio (x) = 0.43082 0.17625
# Poissons Ratio (y) = 0.45352 0.13831
# Poissons Ratio (z) = 0.39591 0.29513
#
# Static dielectric constant tensor:
#      x y z
#    x 1.621940 0.000000 0.000000 
#    y 0.000000 1.578980 0.000000 
#    z 0.000000 0.000000 1.600320 
# 
# From -- ./inp_files/46660.got.cif
#   From: 2010.05.17/outbox.cif.g08.bks.cpg/sg71_24_cif.got.tgz:46660.got - 2010.06.03 16:22:01.
