data_PCOD9517941
_publ_section_title
;
Structure prediction by ZEFSAII (Michael W. Deem and Ramdas Pophale) SiO2 
 PCOD9517941
Probable space group: I M M M
;
_chemical_formula_sum "Si O2"
_cell_formula_units_Z 128
_cell_length_a 14.759012
_cell_length_b 19.868504
_cell_length_c 22.475107
_cell_angle_alpha 90.000000
_cell_angle_beta 90.000000
_cell_angle_gamma 90.000000
_cell_volume 6590.588891
_symmetry_space_group_name_H-M "I M M M"
_symmetry_group_IT_number 71
_symmetry_cell_setting 'orthorhombic'
loop_
_space_group_symop_operation_xyz
x,y,z
-x,-y,z
x,-y,-z
-x,y,-z
-x,-y,-z
x,y,-z
-x,y,z
x,-y,z
1/2+x,1/2+y,1/2+z
1/2-x,1/2-y,1/2+z
1/2+x,1/2-y,1/2-z
1/2-x,1/2+y,1/2-z
1/2-x,1/2-y,1/2-z
1/2+x,1/2+y,1/2-z
1/2-x,1/2+y,1/2+z
1/2+x,1/2-y,1/2+z
loop_
_atom_site_type_symbol
_atom_site_label
_atom_site_fract_x
_atom_site_fract_y
_atom_site_fract_z
Si Si1 0.353502 0.711251 0.808083
Si Si2 0.233070 0.073824 0.432236
Si Si3 0.897292 0.425435 0.840850
Si Si4 0.109553 0.923061 0.884481
Si Si5 0.151429 0.781038 0.933979
Si Si6 0.147496 0.217611 0.434896
Si Si7 0.638258 0.219323 0.310147
Si Si8 0.609148 0.425551 0.754141
O O1 0.394797 0.734485 0.870828
O O2 0.394816 0.741055 0.747700
O O3 0.247001 0.728893 0.810864
O O4 0.356926 0.631368 0.797750
O O5 0.267184 0.074132 0.500000
O O6 0.319417 0.081515 0.390035
O O7 0.167766 0.137692 0.429078
O O8 0.190957 0.000000 0.421099
O O9 0.886572 0.500000 0.812934
O O10 0.884857 0.358916 0.801846
O O11 0.000000 0.423099 0.865181
O O12 0.147968 0.861089 0.921857
O O13 0.134699 0.912736 0.814840
O O14 0.000000 0.919763 0.888282
O O15 0.135417 0.000000 0.901081
O O16 0.254322 0.753811 0.936191
O O17 0.107788 0.746223 0.875165
O O18 0.112344 0.766811 0.000000
O O19 0.105388 0.230090 0.500000
O O20 0.500000 0.425434 0.755734
O O21 0.641711 0.500000 0.770426
#
# Coordination Sequence:
#
# PCOD9517941 Si02
#       8
#    16  16  16  16  16  16  16  16
#     4  10  18  31  52  70  91 120 155 197 237 280
#     4   9  16  28  44  63  92 128 163 193 220 258
#     4  10  20  32  45  64  95 131 161 193 227 260
#     4   9  18  32  46  63  92 128 166 200 228 268
#     4  10  18  30  45  64  93 125 156 195 233 264
#     4   9  18  32  48  69  94 120 152 193 240 285
#     4  10  20  32  46  72  95 119 163 201 230 274
#     4   9  18  31  48  72  98 123 154 194 241 287
#
# _framework density 19.421633
#
# number of rings (size 3 to 8) (size 9 to 14) (size 15 to 20)
#    0.000    2.500    3.750    0.750    0.000    2.750 
#    0.000    1.875    0.000    0.375    0.000    0.875 
#    0.000    0.000    0.000    1.375    0.000    1.000 
#
# Total GULP energy -356464.230239 kJ/mol
# GULP energy per Si atom -5569.753597 kJ/mol
# Density = 1.937743 g / cm^3
# Si number density = 19.421633 Si / 1000 Ang^3
#
#
#
# Elastic Constant Matrix: (Units=GPa)
#
#
# Indices 1 2 3 4 5 6 
#
# 1 37.2461 -4.4217 13.4819 0.0000 0.0000 0.0000
# 2 -4.4217 96.0351 51.7815 0.0000 0.0000 0.0000
# 3 13.4819 51.7815 155.3374 0.0000 0.0000 0.0000
# 4 0.0000 0.0000 0.0000 19.4097 0.0000 0.0000
# 5 0.0000 0.0000 0.0000 0.0000 -8.3434 0.0000
# 6 0.0000 0.0000 0.0000 0.0000 0.0000 15.2585
#
#
#
# Elastic Compliance Matrix: (Units=1/GPa)
#
#
# Indices 1 2 3 4 5 6 
#
# 1 0.028517 0.003228 -0.003551 0.000000 0.000000 0.000000
# 2 0.003228 0.013060 -0.004634 0.000000 0.000000 0.000000
# 3 -0.003551 -0.004634 0.008290 0.000000 0.000000 0.000000
# 4 0.000000 0.000000 0.000000 0.051521 0.000000 0.000000
# 5 0.000000 0.000000 0.000000 0.000000 -0.119856 0.000000
# 6 0.000000 0.000000 0.000000 0.000000 0.000000 0.065537
#
#
# Mechanical properties :
#
#
# Convention : Reuss Voigt Hill
#
# Bulk Modulus (GPa) = 25.02917 45.58910 35.30914
# Shear Modulus (GPa) = 71.12275 20.45011 45.78643
#
# Velocity S-wave (km/s) = 6.05804 3.24845 4.86067
# Velocity P-wave (km/s) = 7.86438 6.13141 7.05133
#
# Compressibility (1/GPa) = 0.03995339
#
# Stress axis : x y z
#
# Youngs Moduli (GPa) = 35.06688 76.57030 120.62135
#
# Poissons Ratio (x) = -0.24714 0.42832
# Poissons Ratio (y) = -0.11318 0.55891
# Poissons Ratio (z) = 0.12452 0.35480
#
# Static dielectric constant tensor:
#      x y z
#    x 1.664120 0.000000 0.000000 
#    y 0.000000 1.714870 0.000000 
#    z 0.000000 0.000000 1.743350 
# 
# From -- ./inp_files/60904.got.cif
#   From: 2010.05.17/outbox.cif.g08.bks.cpg/sg71_31_cif.got.tgz:60904.got - 2010.06.03 16:22:01.
