data_PCOD9517066
_publ_section_title
;
Structure prediction by ZEFSAII (Michael W. Deem and Ramdas Pophale) SiO2 
 PCOD9517066
Probable space group: F D D D
;
_chemical_formula_sum "Si O2"
_cell_formula_units_Z 192
_cell_length_a 11.539162
_cell_length_b 25.088123
_cell_length_c 31.739180
_cell_angle_alpha 90.000000
_cell_angle_beta 90.000000
_cell_angle_gamma 90.000000
_cell_volume 9188.362974
_symmetry_space_group_name_H-M "F D D D"
_symmetry_group_IT_number 70
_space_group.IT_coordinate_system_code '2'
_symmetry_cell_setting 'orthorhombic'
loop_
_space_group_symop_operation_xyz
x,y,z
1/4-x,1/4-y,z
x,1/4-y,1/4-z
1/4-x,y,1/4-z
-x,-y,-z
3/4+x,3/4+y,-z
-x,3/4+y,3/4+z
3/4+x,-y,3/4+z
x,1/2+y,1/2+z
1/4-x,3/4-y,1/2+z
x,3/4-y,3/4-z
1/4-x,1/2+y,3/4-z
-x,1/2-y,1/2-z
3/4+x,1/4+y,1/2-z
-x,1/4+y,1/4+z
3/4+x,1/2-y,1/4+z
1/2+x,y,1/2+z
3/4-x,1/4-y,1/2+z
1/2+x,1/4-y,3/4-z
3/4-x,y,3/4-z
1/2-x,-y,1/2-z
1/4+x,3/4+y,1/2-z
1/2-x,3/4+y,1/4+z
1/4+x,-y,1/4+z
1/2+x,1/2+y,z
3/4-x,3/4-y,z
1/2+x,3/4-y,1/4-z
3/4-x,1/2+y,1/4-z
1/2-x,1/2-y,-z
1/4+x,1/4+y,-z
1/2-x,1/4+y,3/4+z
1/4+x,1/2-y,3/4+z
loop_
_atom_site_type_symbol
_atom_site_label
_atom_site_fract_x
_atom_site_fract_y
_atom_site_fract_z
Si Si1 0.480919 0.032685 0.342559
Si Si2 0.616566 0.966158 0.501500
Si Si3 0.506670 0.893005 0.266586
Si Si4 0.375000 0.875000 0.622396
Si Si5 0.122339 0.822292 0.350319
Si Si6 0.732831 0.717379 0.312578
Si Si7 0.125000 0.720490 0.125000
O O1 0.375000 0.030482 0.375000
O O2 0.439415 0.023657 0.294298
O O3 0.537223 0.091117 0.348694
O O4 0.565851 0.984879 0.357382
O O5 0.572201 0.906344 0.503962
O O6 0.500000 0.000000 0.500000
O O7 0.670198 0.979267 0.455496
O O8 0.375000 0.875000 0.279588
O O9 0.588619 0.913755 0.303341
O O10 0.497117 0.937358 0.231212
O O11 0.324439 0.922161 0.592443
O O12 0.163958 0.875000 0.375000
O O13 0.987586 0.812884 0.361237
O O14 0.842321 0.740430 0.336695
#
# Coordination Sequence:
#
# PCOD9517066 Si02
#       7
#    32  32  32  16  32  32  16
#     4  12  27  46  76 113 148 190 264 317 376 454
#     4  12  24  46  72 108 148 190 243 323 385 437
#     4  12  25  43  75 112 146 197 250 320 385 442
#     4  12  26  46  72 112 145 209 240 312 378 454
#     4  12  28  48  75 109 151 199 254 306 382 457
#     4  12  24  47  74 103 153 194 253 306 378 451
#     4  12  29  50  74 106 156 216 243 304 384 468
#
# _framework density 20.895997000000001
#
# number of rings (size 3 to 8) (size 9 to 14) (size 15 to 20)
#    0.000    0.000    5.833    3.250    8.167    0.667 
#    3.000    0.000    0.000    0.000    0.000    0.000 
#    0.000    0.000    0.000    0.000    0.000    0.000 
#
# Total GULP energy -267848.661980 kJ/mol
# GULP energy per Si atom -5580.180458 kJ/mol
# Density = 2.084844 g / cm^3
# Si number density = 20.895997 Si / 1000 Ang^3
#
#
#
# Elastic Constant Matrix: (Units=GPa)
#
#
# Indices 1 2 3 4 5 6 
#
# 1 104.8342 41.2335 51.2552 0.0000 0.0000 0.0000
# 2 41.2335 66.8883 31.2118 0.0000 0.0000 0.0000
# 3 51.2552 31.2118 106.4444 0.0000 0.0000 0.0000
# 4 0.0000 0.0000 0.0000 49.2702 0.0000 0.0000
# 5 0.0000 0.0000 0.0000 0.0000 40.8009 0.0000
# 6 0.0000 0.0000 0.0000 0.0000 0.0000 26.1081
#
#
#
# Elastic Compliance Matrix: (Units=1/GPa)
#
#
# Indices 1 2 3 4 5 6 
#
# 1 0.014650 -0.006649 -0.005105 0.000000 0.000000 0.000000
# 2 -0.006649 0.020338 -0.002762 0.000000 0.000000 0.000000
# 3 -0.005105 -0.002762 0.012662 0.000000 0.000000 0.000000
# 4 0.000000 0.000000 0.000000 0.020296 0.000000 0.000000
# 5 0.000000 0.000000 0.000000 0.000000 0.024509 0.000000
# 6 0.000000 0.000000 0.000000 0.000000 0.000000 0.038302
#
#
# Mechanical properties :
#
#
# Convention : Reuss Voigt Hill
#
# Bulk Modulus (GPa) = 53.70807 58.39642 56.05224
# Shear Modulus (GPa) = 30.12142 33.53361 31.82751
#
# Velocity S-wave (km/s) = 3.80082 4.01032 3.90698
# Velocity P-wave (km/s) = 6.70969 7.03210 6.87279
#
# Compressibility (1/GPa) = 0.01861918
#
# Stress axis : x y z
#
# Youngs Moduli (GPa) = 68.26063 49.16950 78.97431
#
# Poissons Ratio (x) = 0.32693 0.40313
# Poissons Ratio (y) = 0.45386 0.21812
# Poissons Ratio (z) = 0.34844 0.13580
#
# Static dielectric constant tensor:
#      x y z
#    x 1.505290 0.000000 0.000000 
#    y 0.000000 1.620270 0.000000 
#    z 0.000000 0.000000 1.790810 
# 
# From -- ./inp_files/64978.got.cif
#   From: 2010.05.17/outbox.cif.g08.bks.cpg/sg70_33_cif.got.tgz:64978.got - 2010.06.03 15:57:51.
