data_PCOD9517623
_publ_section_title
;
Structure prediction by ZEFSAII (Michael W. Deem and Ramdas Pophale) SiO2 
 PCOD9517623
Probable space group: I M M M
;
_chemical_formula_sum "Si O2"
_cell_formula_units_Z 104
_cell_length_a 29.267637
_cell_length_b 9.091088
_cell_length_c 32.799689
_cell_angle_alpha 90.000000
_cell_angle_beta 90.000000
_cell_angle_gamma 90.000000
_cell_volume 8727.166214
_symmetry_space_group_name_H-M "I M M M"
_symmetry_group_IT_number 71
_symmetry_cell_setting 'orthorhombic'
loop_
_space_group_symop_operation_xyz
x,y,z
-x,-y,z
x,-y,-z
-x,y,-z
-x,-y,-z
x,y,-z
-x,y,z
x,-y,z
1/2+x,1/2+y,1/2+z
1/2-x,1/2-y,1/2+z
1/2+x,1/2-y,1/2-z
1/2-x,1/2+y,1/2-z
1/2-x,1/2-y,1/2-z
1/2+x,1/2+y,1/2-z
1/2-x,1/2+y,1/2+z
1/2+x,1/2-y,1/2+z
loop_
_atom_site_type_symbol
_atom_site_label
_atom_site_fract_x
_atom_site_fract_y
_atom_site_fract_z
Si Si1 0.101044 0.676993 0.265638
Si Si2 0.089819 0.827203 0.581604
Si Si3 0.054409 0.676784 0.500000
Si Si4 0.316396 0.669136 0.275257
Si Si5 0.234481 0.169371 0.687112
Si Si6 0.650338 0.824085 0.148247
Si Si7 0.000000 0.166414 0.362828
Si Si8 0.500000 0.823994 0.221218
O O1 0.103677 0.500000 0.261200
O O2 0.135834 0.752631 0.234509
O O3 0.118818 0.710255 0.311772
O O4 0.048605 0.727203 0.261098
O O5 0.078278 0.744567 0.539812
O O6 0.129013 0.751986 0.608651
O O7 0.044253 0.816663 0.609176
O O8 0.099182 0.000000 0.574535
O O9 0.057796 0.500000 0.500000
O O10 0.000000 0.714844 0.500000
O O11 0.322254 0.500000 0.287550
O O12 0.283530 0.756021 0.306051
O O13 0.289808 0.669473 0.231698
O O14 0.200280 0.260982 0.658719
O O15 0.238258 0.000000 0.674045
O O16 0.651257 0.000000 0.143923
O O17 0.000000 0.279717 0.326099
O O18 0.000000 0.000000 0.345700
O O19 0.500000 0.000000 0.224359
#
# Coordination Sequence:
#
# PCOD9517623 Si02
#       8
#    16  16   8  16  16  16   8   8
#     4   9  17  26  37  52  71  94 118 145 177 212
#     4  11  21  33  45  58  74  92 115 146 184 224
#     4  11  23  35  47  59  71  91 119 149 183 224
#     4   9  16  25  37  52  70  91 115 141 171 209
#     4   9  16  26  39  54  72  91 112 138 172 212
#     4  10  18  28  42  58  74  91 114 143 177 217
#     4  10  20  29  41  56  71  90 114 146 182 220
#     4  10  18  28  39  53  72  96 123 150 180 215
#
# _framework density 11.916812
#
# number of rings (size 3 to 8) (size 9 to 14) (size 15 to 20)
#    0.000    2.231    2.308    2.077    0.000    5.846 
#    0.000    0.000    0.000    0.000    0.000    0.000 
#    0.000    0.000    0.000    0.000    0.000    0.000 
#
# Total GULP energy -289796.307795 kJ/mol
# GULP energy per Si atom -5573.005919 kJ/mol
# Density = 1.188969 g / cm^3
# Si number density = 11.916812 Si / 1000 Ang^3
#
#
#
# Elastic Constant Matrix: (Units=GPa)
#
#
# Indices 1 2 3 4 5 6 
#
# 1 98.6658 47.4985 40.1370 0.0000 0.0000 0.0000
# 2 47.4985 62.2964 31.1287 0.0000 0.0000 0.0000
# 3 40.1370 31.1287 39.6752 0.0000 0.0000 0.0000
# 4 0.0000 0.0000 0.0000 15.5555 0.0000 0.0000
# 5 0.0000 0.0000 0.0000 0.0000 11.8864 0.0000
# 6 0.0000 0.0000 0.0000 0.0000 0.0000 18.9429
#
#
#
# Elastic Compliance Matrix: (Units=1/GPa)
#
#
# Indices 1 2 3 4 5 6 
#
# 1 0.019495 -0.008240 -0.013257 0.000000 0.000000 0.000000
# 2 -0.008240 0.029886 -0.015113 0.000000 0.000000 0.000000
# 3 -0.013257 -0.015113 0.050473 0.000000 0.000000 0.000000
# 4 0.000000 0.000000 0.000000 0.064286 0.000000 0.000000
# 5 0.000000 0.000000 0.000000 0.000000 0.084130 0.000000
# 6 0.000000 0.000000 0.000000 0.000000 0.000000 0.052790
#
#
# Mechanical properties :
#
#
# Convention : Reuss Voigt Hill
#
# Bulk Modulus (GPa) = 37.54401 48.68508 43.11454
# Shear Modulus (GPa) = 13.04946 14.73519 13.89233
#
# Velocity S-wave (km/s) = 3.31274 3.52021 3.41805
# Velocity P-wave (km/s) = 6.79748 7.58059 7.19969
#
# Compressibility (1/GPa) = 0.02663541
#
# Stress axis : x y z
#
# Youngs Moduli (GPa) = 51.29596 33.46000 19.81252
#
# Poissons Ratio (x) = 0.27570 0.26265
# Poissons Ratio (y) = 0.42266 0.29943
# Poissons Ratio (z) = 0.68002 0.50568
#
# Static dielectric constant tensor:
#      x y z
#    x 1.390200 0.000000 0.000000 
#    y 0.000000 1.400710 0.000000 
#    z 0.000000 0.000000 1.350820 
# 
# From -- ./inp_files/67114.got.cif
#   From: 2010.05.17/outbox.cif.g08.bks.cpg/sg71_34_cif.got.tgz:67114.got - 2010.06.03 16:22:01.
