data_PCOD9517348
_publ_section_title
;
Structure prediction by ZEFSAII (Michael W. Deem and Ramdas Pophale) SiO2 
 PCOD9517348
Probable space group: I M M M
;
_chemical_formula_sum "Si O2"
_cell_formula_units_Z 88
_cell_length_a 8.497018
_cell_length_b 31.672487
_cell_length_c 24.711745
_cell_angle_alpha 90.000000
_cell_angle_beta 90.000000
_cell_angle_gamma 90.000000
_cell_volume 6650.466630
_symmetry_space_group_name_H-M "I M M M"
_symmetry_group_IT_number 71
_symmetry_cell_setting 'orthorhombic'
loop_
_space_group_symop_operation_xyz
x,y,z
-x,-y,z
x,-y,-z
-x,y,-z
-x,-y,-z
x,y,-z
-x,y,z
x,-y,z
1/2+x,1/2+y,1/2+z
1/2-x,1/2-y,1/2+z
1/2+x,1/2-y,1/2-z
1/2-x,1/2+y,1/2-z
1/2-x,1/2-y,1/2-z
1/2+x,1/2+y,1/2-z
1/2-x,1/2+y,1/2+z
1/2+x,1/2-y,1/2+z
loop_
_atom_site_type_symbol
_atom_site_label
_atom_site_fract_x
_atom_site_fract_y
_atom_site_fract_z
Si Si1 0.312029 0.251667 0.616925
Si Si2 0.810577 0.837903 0.821334
Si Si3 0.690003 0.909708 0.894008
Si Si4 0.308586 0.859031 0.000000
Si Si5 0.692276 0.000000 0.936314
Si Si6 0.688566 0.237639 0.000000
Si Si7 0.311371 0.709018 0.217995
O O1 0.500000 0.253214 0.616172
O O2 0.256287 0.297511 0.641576
O O3 0.248721 0.244320 0.556759
O O4 0.257770 0.215339 0.658496
O O5 0.748993 0.882030 0.844015
O O6 0.765125 0.828494 0.758990
O O7 0.000000 0.837756 0.824021
O O8 0.500000 0.909950 0.892638
O O9 0.742565 0.883514 0.946790
O O10 0.742064 0.957684 0.904889
O O11 0.500000 0.859007 0.000000
O O12 0.254982 0.811081 0.000000
O O13 0.500000 0.000000 0.937785
O O14 0.740853 0.000000 0.000000
O O15 0.500000 0.238442 0.000000
O O16 0.500000 0.710035 0.214783
O O17 0.250000 0.750000 0.250000
#
# Coordination Sequence:
#
# PCOD9517348 Si02
#       7
#    16  16  16   8   8   8  16
#     4  10  19  29  40  57  79 101 126 159 198 234
#     4   9  18  29  40  55  75  97 123 160 201 236
#     4  10  17  27  42  57  72  96 131 166 202 241
#     4   9  16  24  37  56  71  93 129 165 196 232
#     4   9  16  26  41  57  75  97 127 168 205 236
#     4  11  19  27  40  59  79 102 134 163 194 237
#     4   9  17  29  42  56  74  97 125 158 196 235
#
# _framework density 13.232154
#
# number of rings (size 3 to 8) (size 9 to 14) (size 15 to 20)
#    0.000    2.455    2.727    2.455    0.000    3.636 
#    0.000    0.909    0.000    0.545    0.000    0.000 
#    0.000    0.000    0.000    0.000    0.000    0.909 
#
# Total GULP energy -244975.013070 kJ/mol
# GULP energy per Si atom -5567.613933 kJ/mol
# Density = 1.320204 g / cm^3
# Si number density = 13.232154 Si / 1000 Ang^3
#
#
#
# Elastic Constant Matrix: (Units=GPa)
#
#
# Indices 1 2 3 4 5 6 
#
# 1 21.8158 13.4636 26.8405 0.0000 0.0000 0.0000
# 2 13.4636 70.1461 57.2657 0.0000 0.0000 0.0000
# 3 26.8405 57.2657 120.6473 0.0000 0.0000 0.0000
# 4 0.0000 0.0000 0.0000 18.0022 0.0000 0.0000
# 5 0.0000 0.0000 0.0000 0.0000 20.2210 0.0000
# 6 0.0000 0.0000 0.0000 0.0000 0.0000 12.8970
#
#
#
# Elastic Compliance Matrix: (Units=1/GPa)
#
#
# Indices 1 2 3 4 5 6 
#
# 1 0.063162 -0.001064 -0.013547 0.000000 0.000000 0.000000
# 2 -0.001064 0.023293 -0.010819 0.000000 0.000000 0.000000
# 3 -0.013547 -0.010819 0.016438 0.000000 0.000000 0.000000
# 4 0.000000 0.000000 0.000000 0.055549 0.000000 0.000000
# 5 0.000000 0.000000 0.000000 0.000000 0.049454 0.000000
# 6 0.000000 0.000000 0.000000 0.000000 0.000000 0.077537
#
#
# Mechanical properties :
#
#
# Convention : Reuss Voigt Hill
#
# Bulk Modulus (GPa) = 19.21874 45.30543 32.26209
# Shear Modulus (GPa) = 14.13884 17.89333 16.01609
#
# Velocity S-wave (km/s) = 3.27237 3.68130 3.48284
# Velocity P-wave (km/s) = 5.36970 7.23758 6.37245
#
# Compressibility (1/GPa) = 0.05203254
#
# Stress axis : x y z
#
# Youngs Moduli (GPa) = 15.83241 42.93170 60.83536
#
# Poissons Ratio (x) = 0.04567 0.82412
# Poissons Ratio (y) = 0.01684 0.65820
# Poissons Ratio (z) = 0.21448 0.46449
#
# Static dielectric constant tensor:
#      x y z
#    x 1.454410 0.000000 0.000000 
#    y 0.000000 1.426970 0.000000 
#    z 0.000000 0.000000 1.452630 
# 
# From -- ./inp_files/17216.got.cif
#   From: 2010.05.17/outbox.cif.g08.bks.cpg/sg71_9_cif.got.tgz:17216.got - 2010.06.03 16:22:01.
