data_PCOD9517574
_publ_section_title
;
Structure prediction by ZEFSAII (Michael W. Deem and Ramdas Pophale) SiO2 
 PCOD9517574
Probable space group: I M M M
;
_chemical_formula_sum "Si O2"
_cell_formula_units_Z 96
_cell_length_a 23.700237
_cell_length_b 28.141554
_cell_length_c 7.508710
_cell_angle_alpha 90.000000
_cell_angle_beta 90.000000
_cell_angle_gamma 90.000000
_cell_volume 5008.020480
_symmetry_space_group_name_H-M "I M M M"
_symmetry_group_IT_number 71
_symmetry_cell_setting 'orthorhombic'
loop_
_space_group_symop_operation_xyz
x,y,z
-x,-y,z
x,-y,-z
-x,y,-z
-x,-y,-z
x,y,-z
-x,y,z
x,-y,z
1/2+x,1/2+y,1/2+z
1/2-x,1/2-y,1/2+z
1/2+x,1/2-y,1/2-z
1/2-x,1/2+y,1/2-z
1/2-x,1/2-y,1/2-z
1/2+x,1/2+y,1/2-z
1/2-x,1/2+y,1/2+z
1/2+x,1/2-y,1/2+z
loop_
_atom_site_type_symbol
_atom_site_label
_atom_site_fract_x
_atom_site_fract_y
_atom_site_fract_z
Si Si1 0.203366 0.851425 0.213428
Si Si2 0.500000 0.766261 0.280955
Si Si3 0.000000 0.377282 0.782023
Si Si4 0.765554 0.447268 0.785918
Si Si5 0.122285 0.396468 0.785549
Si Si6 0.315197 0.799508 0.789642
Si Si7 0.889267 0.212724 0.797806
O O1 0.221313 0.905596 0.245045
O O2 0.255317 0.818751 0.280327
O O3 0.143642 0.832207 0.283352
O O4 0.202197 0.845185 0.000000
O O5 0.500000 0.767676 0.500000
O O6 0.500000 0.821614 0.227193
O O7 0.444441 0.737863 0.219289
O O8 0.058124 0.401814 0.723101
O O9 0.000000 0.377344 0.000000
O O10 0.751502 0.500000 0.720865
O O11 0.827434 0.430378 0.719672
O O12 0.769024 0.449091 0.000000
O O13 0.142163 0.343276 0.739410
O O14 0.121601 0.400487 0.000000
O O15 0.341432 0.753575 0.700144
O O16 0.310567 0.790064 0.000000
O O17 0.905404 0.200037 0.000000
#
# Coordination Sequence:
#
# PCOD9517574 Si02
#       7
#    16   8   8  16  16  16  16
#     4   9  19  31  45  66  89 115 146 181 221 264
#     4   9  16  26  44  65  87 119 155 182 206 245
#     4   9  14  24  43  64  83 117 161 184 207 247
#     4   9  18  32  49  68  88 111 142 184 233 273
#     4   9  16  28  45  62  85 118 154 185 216 258
#     4  10  18  27  40  63  92 118 148 181 217 255
#     4  10  18  30  45  63  89 120 152 179 211 258
#
# _framework density 19.169252
#
# number of rings (size 3 to 8) (size 9 to 14) (size 15 to 20)
#    0.000    2.667    1.667    1.000    0.000    1.667 
#    0.000    2.083    0.000    2.500    0.000    0.583 
#    0.000   10.000    0.000    0.000    0.000    0.000 
#
# Total GULP energy -267636.038289 kJ/mol
# GULP energy per Si atom -5575.750798 kJ/mol
# Density = 1.912562 g / cm^3
# Si number density = 19.169252 Si / 1000 Ang^3
#
#
#
# Elastic Constant Matrix: (Units=GPa)
#
#
# Indices 1 2 3 4 5 6 
#
# 1 41.5876 43.7506 -2.9108 0.0000 0.0000 0.0000
# 2 43.7506 99.0665 -4.5983 0.0000 0.0000 0.0000
# 3 -2.9108 -4.5983 52.1778 0.0000 0.0000 0.0000
# 4 0.0000 0.0000 0.0000 14.2724 0.0000 0.0000
# 5 0.0000 0.0000 0.0000 0.0000 6.6122 0.0000
# 6 0.0000 0.0000 0.0000 0.0000 0.0000 8.5090
#
#
#
# Elastic Compliance Matrix: (Units=1/GPa)
#
#
# Indices 1 2 3 4 5 6 
#
# 1 0.044941 -0.019812 0.000761 0.000000 0.000000 0.000000
# 2 -0.019812 0.018870 0.000558 0.000000 0.000000 0.000000
# 3 0.000761 0.000558 0.019257 0.000000 0.000000 0.000000
# 4 0.000000 0.000000 0.000000 0.070065 0.000000 0.000000
# 5 0.000000 0.000000 0.000000 0.000000 0.151235 0.000000
# 6 0.000000 0.000000 0.000000 0.000000 0.000000 0.117522
#
#
# Mechanical properties :
#
#
# Convention : Reuss Voigt Hill
#
# Bulk Modulus (GPa) = 21.70072 29.47943 25.59008
# Shear Modulus (GPa) = 10.54323 16.31809 13.43066
#
# Velocity S-wave (km/s) = 2.34777 2.92081 2.64982
# Velocity P-wave (km/s) = 4.32372 5.17559 4.76871
#
# Compressibility (1/GPa) = 0.04608142
#
# Stress axis : x y z
#
# Youngs Moduli (GPa) = 22.25118 52.99503 51.92956
#
# Poissons Ratio (x) = 1.04994 -0.03952
# Poissons Ratio (y) = 0.44084 -0.02896
# Poissons Ratio (z) = -0.01694 -0.02956
#
# Static dielectric constant tensor:
#      x y z
#    x 1.710420 0.000000 0.000000 
#    y 0.000000 1.661350 0.000000 
#    z 0.000000 0.000000 1.739480 
# 
# From -- ./inp_files/13207.got.cif
#   From: 2010.05.17/outbox.cif.g08.bks.cpg/sg71_7_cif.got.tgz:13207.got - 2010.06.03 16:22:01.
