data_PCOD9517085
_publ_section_title
;
Structure prediction by ZEFSAII (Michael W. Deem and Ramdas Pophale) SiO2 
 PCOD9517085
Probable space group: F D D D
;
_chemical_formula_sum "Si O2"
_cell_formula_units_Z 96
_cell_length_a 7.908286
_cell_length_b 29.151588
_cell_length_c 14.875828
_cell_angle_alpha 90.000000
_cell_angle_beta 90.000000
_cell_angle_gamma 90.000000
_cell_volume 3429.459928
_symmetry_space_group_name_H-M "F D D D"
_symmetry_group_IT_number 70
_space_group.IT_coordinate_system_code '2'
_symmetry_cell_setting 'orthorhombic'
loop_
_space_group_symop_operation_xyz
x,y,z
1/4-x,1/4-y,z
x,1/4-y,1/4-z
1/4-x,y,1/4-z
-x,-y,-z
3/4+x,3/4+y,-z
-x,3/4+y,3/4+z
3/4+x,-y,3/4+z
x,1/2+y,1/2+z
1/4-x,3/4-y,1/2+z
x,3/4-y,3/4-z
1/4-x,1/2+y,3/4-z
-x,1/2-y,1/2-z
3/4+x,1/4+y,1/2-z
-x,1/4+y,1/4+z
3/4+x,1/2-y,1/4+z
1/2+x,y,1/2+z
3/4-x,1/4-y,1/2+z
1/2+x,1/4-y,3/4-z
3/4-x,y,3/4-z
1/2-x,-y,1/2-z
1/4+x,3/4+y,1/2-z
1/2-x,3/4+y,1/4+z
1/4+x,-y,1/4+z
1/2+x,1/2+y,z
3/4-x,3/4-y,z
1/2+x,3/4-y,1/4-z
3/4-x,1/2+y,1/4-z
1/2-x,1/2-y,-z
1/4+x,1/4+y,-z
1/2-x,1/4+y,3/4+z
1/4+x,1/2-y,3/4+z
loop_
_atom_site_type_symbol
_atom_site_label
_atom_site_fract_x
_atom_site_fract_y
_atom_site_fract_z
Si Si1 0.344472 0.782663 0.772825
Si Si2 0.157082 0.382031 0.484959
Si Si3 0.594008 0.696090 0.017409
O O1 0.500000 0.750000 0.750000
O O2 0.375000 0.793642 0.875000
O O3 0.310307 0.833633 0.734072
O O4 0.186746 0.747765 0.764488
O O5 0.165978 0.375000 0.375000
O O6 0.073447 0.333236 0.510918
O O7 0.002783 0.416225 0.512495
O O8 0.625000 0.697694 0.125000
#
# Coordination Sequence:
#
# PCOD9517085 Si02
#       3
#    32  32  32
#     4  12  25  39  62  99 137 171 213 276 339 397
#     4   9  19  39  66  89 121 176 228 263 320 406
#     4   9  19  40  67  92 120 168 229 277 321 389
#
# _framework density 27.992743999999998
#
# number of rings (size 3 to 8) (size 9 to 14) (size 15 to 20)
#    0.000    2.000    0.000    7.000    0.000    4.667 
#    0.000    8.333    0.000    0.000    0.000    0.000 
#    0.000    0.000    0.000    0.000    0.000    0.000 
#
# Total GULP energy -133838.652518 kJ/mol
# GULP energy per Si atom -5576.610522 kJ/mol
# Density = 2.792903 g / cm^3
# Si number density = 27.992744 Si / 1000 Ang^3
#
#
#
# Elastic Constant Matrix: (Units=GPa)
#
#
# Indices 1 2 3 4 5 6 
#
# 1 110.9694 64.2662 8.6044 0.0000 0.0000 0.0000
# 2 64.2662 338.6550 9.1454 0.0000 0.0000 0.0000
# 3 8.6044 9.1454 53.2060 0.0000 0.0000 0.0000
# 4 0.0000 0.0000 0.0000 13.4197 0.0000 0.0000
# 5 0.0000 0.0000 0.0000 0.0000 15.2566 0.0000
# 6 0.0000 0.0000 0.0000 0.0000 0.0000 43.4860
#
#
#
# Elastic Compliance Matrix: (Units=1/GPa)
#
#
# Indices 1 2 3 4 5 6 
#
# 1 0.010216 -0.001903 -0.001325 0.000000 0.000000 0.000000
# 2 -0.001903 0.003321 -0.000263 0.000000 0.000000 0.000000
# 3 -0.001325 -0.000263 0.019054 0.000000 0.000000 0.000000
# 4 0.000000 0.000000 0.000000 0.074517 0.000000 0.000000
# 5 0.000000 0.000000 0.000000 0.000000 0.065545 0.000000
# 6 0.000000 0.000000 0.000000 0.000000 0.000000 0.022996
#
#
# Mechanical properties :
#
#
# Convention : Reuss Voigt Hill
#
# Bulk Modulus (GPa) = 39.04802 74.09583 56.57192
# Shear Modulus (GPa) = 23.67771 42.48677 33.08224
#
# Velocity S-wave (km/s) = 2.91151 3.90009 3.44148
# Velocity P-wave (km/s) = 5.02813 6.84164 6.00376
#
# Compressibility (1/GPa) = 0.02560950
#
# Stress axis : x y z
#
# Youngs Moduli (GPa) = 97.88277 301.10650 52.48139
#
# Poissons Ratio (x) = 0.57299 0.06954
# Poissons Ratio (y) = 0.18627 0.01381
# Poissons Ratio (z) = 0.12970 0.07922
#
# Static dielectric constant tensor:
#      x y z
#    x 2.497160 0.000000 0.000000 
#    y 0.000000 2.125740 0.000000 
#    z 0.000000 0.000000 2.089850 
# 
# From -- ./inp_files/41108.got.cif
#   From: 2010.05.17/outbox.cif.g08.bks.cpg/sg70_21_cif.got.tgz:41108.got - 2010.06.03 15:57:51.
