data_PCOD9517175
_publ_section_title
;
Structure prediction by ZEFSAII (Michael W. Deem and Ramdas Pophale) SiO2 
 PCOD9517175
Probable space group: F D D D
;
_chemical_formula_sum "Si O2"
_cell_formula_units_Z 44
_cell_length_a 30.000000
_cell_length_b 18.000000
_cell_length_c 18.000000
_cell_angle_alpha 90.000000
_cell_angle_beta 90.000000
_cell_angle_gamma 90.000000
_cell_volume 9720.000000
_symmetry_space_group_name_H-M "F D D D"
_symmetry_group_IT_number 70
_space_group.IT_coordinate_system_code '2'
_symmetry_cell_setting 'orthorhombic'
loop_
_space_group_symop_operation_xyz
x,y,z
1/4-x,1/4-y,z
x,1/4-y,1/4-z
1/4-x,y,1/4-z
-x,-y,-z
3/4+x,3/4+y,-z
-x,3/4+y,3/4+z
3/4+x,-y,3/4+z
x,1/2+y,1/2+z
1/4-x,3/4-y,1/2+z
x,3/4-y,3/4-z
1/4-x,1/2+y,3/4-z
-x,1/2-y,1/2-z
3/4+x,1/4+y,1/2-z
-x,1/4+y,1/4+z
3/4+x,1/2-y,1/4+z
1/2+x,y,1/2+z
3/4-x,1/4-y,1/2+z
1/2+x,1/4-y,3/4-z
3/4-x,y,3/4-z
1/2-x,-y,1/2-z
1/4+x,3/4+y,1/2-z
1/2-x,3/4+y,1/4+z
1/4+x,-y,1/4+z
1/2+x,1/2+y,z
3/4-x,3/4-y,z
1/2+x,3/4-y,1/4-z
3/4-x,1/2+y,1/4-z
1/2-x,1/2-y,-z
1/4+x,1/4+y,-z
1/2-x,1/4+y,3/4+z
1/4+x,1/2-y,3/4+z
loop_
_atom_site_type_symbol
_atom_site_label
_atom_site_fract_x
_atom_site_fract_y
_atom_site_fract_z
Si Si1 0.780679 0.572885 0.552957
Si Si2 0.375000 0.511717 0.875000
Si Si3 0.625000 0.625000 0.472245
Si Si4 0.802264 0.908419 0.100153
Si Si5 0.431395 0.296395 0.419821
Si Si6 0.699536 0.884145 0.143375
Si Si7 0.375000 0.375000 0.762291
O O1 0.782950 0.625000 0.625000
O O2 0.802466 0.494396 0.574358
O O3 0.728948 0.551990 0.539229
O O4 0.798640 0.616258 0.481372
O O5 0.416958 0.568257 0.886301
O O6 0.380904 0.451423 0.808697
O O7 0.582642 0.601264 0.423257
O O8 0.608761 0.693882 0.522641
O O9 0.751037 0.883414 0.113684
O O10 0.830713 0.865500 0.037702
O O11 0.429559 0.375000 0.375000
O O12 0.432242 0.217783 0.376412
#
# Coordination Sequence:
#
# PCOD9517175 Si02
#       7
#    32  16  16  32  32  32  16
#     4  10  21  38  60  88 124 166 208 252 308 367
#     4  11  24  40  71  90 124 154 213 258 310 369
#     4  11  21  37  59  93 123 174 198 262 313 375
#     4  10  22  40  66  85 131 161 209 252 317 371
#     4  10  23  35  58  89 127 165 204 252 308 371
#     4  11  23  41  62  93 123 167 209 260 302 379
#     4  10  22  45  65  96 116 162 200 264 320 364
#
# _framework density 4.5267489999999997
#
# number of rings (size 3 to 8) (size 9 to 14) (size 15 to 20)
#    0.000    1.636    3.636    0.273    5.091    2.909 
#    0.000    0.000    0.000    0.000    0.000    0.000 
#    0.000    0.000    0.000    0.000    0.000    0.000 
#
# Total GULP energy -245141.993108 kJ/mol
# GULP energy per Si atom -5571.408934 kJ/mol
# Density = 0.451645 g / cm^3
# Si number density = 4.526749 Si / 1000 Ang^3
#
#
#
# Elastic Constant Matrix: (Units=GPa)
#
#
# Indices 1 2 3 4 5 6 
#
# 1 124.5475 54.5665 47.5778 0.0000 0.0000 0.0000
# 2 54.5665 142.5580 53.7985 0.0000 0.0000 0.0000
# 3 47.5778 53.7985 86.8353 0.0000 0.0000 0.0000
# 4 0.0000 0.0000 0.0000 35.2998 0.0000 0.0000
# 5 0.0000 0.0000 0.0000 0.0000 11.0252 0.0000
# 6 0.0000 0.0000 0.0000 0.0000 0.0000 35.7761
#
#
#
# Elastic Compliance Matrix: (Units=1/GPa)
#
#
# Indices 1 2 3 4 5 6 
#
# 1 0.010786 -0.002477 -0.004375 0.000000 0.000000 0.000000
# 2 -0.002477 0.009724 -0.004667 0.000000 0.000000 0.000000
# 3 -0.004375 -0.004667 0.016804 0.000000 0.000000 0.000000
# 4 0.000000 0.000000 0.000000 0.028329 0.000000 0.000000
# 5 0.000000 0.000000 0.000000 0.000000 0.090701 0.000000
# 6 0.000000 0.000000 0.000000 0.000000 0.000000 0.027952
#
#
# Mechanical properties :
#
#
# Convention : Reuss Voigt Hill
#
# Bulk Modulus (GPa) = 70.04871 73.98071 72.01471
# Shear Modulus (GPa) = 23.57451 29.62009 26.59730
#
# Velocity S-wave (km/s) = 3.61218 4.04894 3.83678
# Velocity P-wave (km/s) = 7.49447 7.92494 7.71271
#
# Compressibility (1/GPa) = 0.01427578
#
# Stress axis : x y z
#
# Youngs Moduli (GPa) = 92.71602 102.83514 59.50793
#
# Poissons Ratio (x) = 0.25477 0.26032
# Poissons Ratio (y) = 0.22970 0.27774
# Poissons Ratio (z) = 0.40560 0.47995
#
# Static dielectric constant tensor:
#      x y z
#    x 1.651020 0.000000 0.000000 
#    y 0.000000 1.582590 0.000000 
#    z 0.000000 0.000000 1.673810 
# 
# From -- ./inp_files/39719.got.cif
#   From: 2010.05.17/outbox.ucp.g08.bks.cvg/sg70_20_cif.got.tgz:39719.got - 2010.06.11 16:26:41.
