data_PCOD9517914
_publ_section_title
;
Structure prediction by ZEFSAII (Michael W. Deem and Ramdas Pophale) SiO2 
 PCOD9517914
Probable space group: I M M M
;
_chemical_formula_sum "Si O2"
_cell_formula_units_Z 104
_cell_length_a 9.833826
_cell_length_b 23.776672
_cell_length_c 26.420994
_cell_angle_alpha 90.000000
_cell_angle_beta 90.000000
_cell_angle_gamma 90.000000
_cell_volume 6177.642026
_symmetry_space_group_name_H-M "I M M M"
_symmetry_group_IT_number 71
_symmetry_cell_setting 'orthorhombic'
loop_
_space_group_symop_operation_xyz
x,y,z
-x,-y,z
x,-y,-z
-x,y,-z
-x,-y,-z
x,y,-z
-x,y,z
x,-y,z
1/2+x,1/2+y,1/2+z
1/2-x,1/2-y,1/2+z
1/2+x,1/2-y,1/2-z
1/2-x,1/2+y,1/2-z
1/2-x,1/2-y,1/2-z
1/2+x,1/2+y,1/2-z
1/2-x,1/2+y,1/2+z
1/2+x,1/2-y,1/2+z
loop_
_atom_site_type_symbol
_atom_site_label
_atom_site_fract_x
_atom_site_fract_y
_atom_site_fract_z
Si Si1 0.337577 0.646811 0.592962
Si Si2 0.000000 0.567570 0.060317
Si Si3 0.337979 0.679456 0.789257
Si Si4 0.336730 0.188300 0.811763
Si Si5 0.757178 0.125171 0.389062
Si Si6 0.164935 0.065493 0.000000
Si Si7 0.847962 0.727144 0.941305
Si Si8 0.500000 0.566558 0.056926
O O1 0.500000 0.639019 0.606038
O O2 0.241209 0.656915 0.641919
O O3 0.296886 0.599213 0.551675
O O4 0.326962 0.706828 0.564784
O O5 0.125338 0.594212 0.089969
O O6 0.000000 0.500000 0.062992
O O7 0.000000 0.582253 0.000000
O O8 0.500000 0.671474 0.779643
O O9 0.323613 0.743188 0.811725
O O10 0.246039 0.673674 0.739323
O O11 0.281481 0.635569 0.830223
O O12 0.500000 0.176107 0.810632
O O13 0.756085 0.187512 0.413074
O O14 0.873986 0.088639 0.412665
O O15 0.000000 0.066222 0.000000
O O16 0.208856 0.000000 0.000000
O O17 0.000000 0.715578 0.920486
O O18 0.846437 0.712460 0.000000
O O19 0.500000 0.500000 0.054161
O O20 0.500000 0.589449 0.000000
#
# Coordination Sequence:
#
# PCOD9517914 Si02
#       8
#    16   8  16  16  16   8  16   8
#     4  10  18  32  55  85 117 149 184 232 274 331
#     4  11  24  40  56  79 112 154 196 232 277 337
#     4  10  21  37  54  82 114 149 189 233 290 346
#     4  10  21  35  55  82 119 151 183 230 289 351
#     4  12  21  35  57  81 110 147 187 243 280 336
#     4   9  18  34  59  89 119 157 196 225 267 333
#     4  10  18  29  49  80 116 146 181 225 282 333
#     4  11  24  40  56  77 110 152 192 230 281 335
#
# _framework density 16.834903000000001
#
# number of rings (size 3 to 8) (size 9 to 14) (size 15 to 20)
#    0.000    1.615    3.846    2.308    1.077    1.846 
#    0.000    0.385    0.000    2.769    0.000    0.000 
#    0.000    0.000    0.000    0.000    0.000    0.000 
#
# Total GULP energy -289632.815592 kJ/mol
# GULP energy per Si atom -5569.861838 kJ/mol
# Density = 1.679659 g / cm^3
# Si number density = 16.834903 Si / 1000 Ang^3
#
#
#
# Elastic Constant Matrix: (Units=GPa)
#
#
# Indices 1 2 3 4 5 6 
#
# 1 123.3977 41.3927 77.7729 0.0000 0.0000 0.0000
# 2 41.3927 84.4680 55.5213 0.0000 0.0000 0.0000
# 3 77.7729 55.5213 144.3144 0.0000 0.0000 0.0000
# 4 0.0000 0.0000 0.0000 -0.0272 0.0000 0.0000
# 5 0.0000 0.0000 0.0000 0.0000 31.7020 0.0000
# 6 0.0000 0.0000 0.0000 0.0000 0.0000 6.7509
#
#
#
# Elastic Compliance Matrix: (Units=1/GPa)
#
#
# Indices 1 2 3 4 5 6 
#
# 1 0.012595 -0.002289 -0.005907 0.000000 0.000000 0.000000
# 2 -0.002289 0.016262 -0.005023 0.000001 0.000000 0.000000
# 3 -0.005907 -0.005023 0.012045 0.000000 0.000000 0.000000
# 4 0.000000 0.000001 0.000000-36.827501 0.000000 0.000000
# 5 0.000000 0.000000 0.000000 0.000000 0.031544 0.000000
# 6 0.000000 0.000000 0.000000 0.000000 0.000000 0.148129
#
#
# Mechanical properties :
#
#
# Convention : Reuss Voigt Hill
#
# Bulk Modulus (GPa) = 69.13626 77.95041 73.54334
# Shear Modulus (GPa) = -0.13670 19.51803 9.69066
#
# Velocity S-wave (km/s) = -0.28527 3.40866 2.40183
# Velocity P-wave (km/s) = 6.40686 7.86736 7.17437
#
# Compressibility (1/GPa) = 0.01446419
#
# Stress axis : x y z
#
# Youngs Moduli (GPa) = 79.39955 61.49261 83.02356
#
# Poissons Ratio (x) = 0.14078 0.49038
# Poissons Ratio (y) = 0.18178 0.41700
# Poissons Ratio (z) = 0.46898 0.30886
#
# Static dielectric constant tensor:
#      x y z
#    x 1.563410 0.000000 0.000000 
#    y 0.000000 1.566900 0.000000 
#    z 0.000000 0.000000 1.520150 
# 
# From -- ./inp_files/63599.got.cif
#   From: 2010.05.17/outbox.cif.g08.bks.cpg/sg71_32_cif.got.tgz:63599.got - 2010.06.03 16:22:01.
