data_PCOD9517178
_publ_section_title
;
Structure prediction by ZEFSAII (Michael W. Deem and Ramdas Pophale) SiO2 
 PCOD9517178
Probable space group: F D D D
;
_chemical_formula_sum "Si O2"
_cell_formula_units_Z 54
_cell_length_a 15.000000
_cell_length_b 27.000000
_cell_length_c 27.000000
_cell_angle_alpha 90.000000
_cell_angle_beta 90.000000
_cell_angle_gamma 90.000000
_cell_volume 10935.000000
_symmetry_space_group_name_H-M "F D D D"
_symmetry_group_IT_number 70
_space_group.IT_coordinate_system_code '2'
_symmetry_cell_setting 'orthorhombic'
loop_
_space_group_symop_operation_xyz
x,y,z
1/4-x,1/4-y,z
x,1/4-y,1/4-z
1/4-x,y,1/4-z
-x,-y,-z
3/4+x,3/4+y,-z
-x,3/4+y,3/4+z
3/4+x,-y,3/4+z
x,1/2+y,1/2+z
1/4-x,3/4-y,1/2+z
x,3/4-y,3/4-z
1/4-x,1/2+y,3/4-z
-x,1/2-y,1/2-z
3/4+x,1/4+y,1/2-z
-x,1/4+y,1/4+z
3/4+x,1/2-y,1/4+z
1/2+x,y,1/2+z
3/4-x,1/4-y,1/2+z
1/2+x,1/4-y,3/4-z
3/4-x,y,3/4-z
1/2-x,-y,1/2-z
1/4+x,3/4+y,1/2-z
1/2-x,3/4+y,1/4+z
1/4+x,-y,1/4+z
1/2+x,1/2+y,z
3/4-x,3/4-y,z
1/2+x,3/4-y,1/4-z
3/4-x,1/2+y,1/4-z
1/2-x,1/2-y,-z
1/4+x,1/4+y,-z
1/2-x,1/4+y,3/4+z
1/4+x,1/2-y,3/4+z
loop_
_atom_site_type_symbol
_atom_site_label
_atom_site_fract_x
_atom_site_fract_y
_atom_site_fract_z
Si Si1 0.933320 0.189259 0.794708
Si Si2 0.348975 0.994371 0.121663
Si Si3 0.726440 0.175658 0.815010
Si Si4 0.875000 0.875000 0.375000
Si Si5 0.253835 0.201145 0.565378
Si Si6 0.528172 0.076673 0.598461
Si Si7 0.625000 0.625000 0.013781
Si Si8 0.726400 0.344518 0.638467
O O1 0.827345 0.188334 0.801802
O O2 0.959684 0.244110 0.813008
O O3 0.968874 0.141699 0.825031
O O4 0.973127 0.184157 0.740028
O O5 0.425209 0.965602 0.151982
O O6 0.289487 0.951030 0.095989
O O7 0.400984 0.035016 0.089425
O O8 0.279277 0.027462 0.152023
O O9 0.671124 0.168181 0.766156
O O10 0.730305 0.121400 0.840833
O O11 0.809522 0.838451 0.406789
O O12 0.486066 0.125000 0.625000
O O13 0.625000 0.068052 0.625000
O O14 0.550382 0.097785 0.545285
O O15 0.625000 0.328765 0.625000
#
# Coordination Sequence:
#
# PCOD9517178 Si02
#       8
#    32  32  32   8  32  32  16  32
#     4  10  24  44  66  97 128 177 217 277 329 390
#     4  12  22  39  68  98 126 176 216 272 334 389
#     4  11  21  39  65  94 131 164 214 270 329 388
#     4  12  28  48  66 100 138 174 224 276 322 404
#     4  11  26  43  70  94 132 173 225 267 333 391
#     4   9  23  42  62  86 135 173 213 268 326 388
#     4  10  21  40  61  92 126 171 208 263 320 404
#     4  10  21  41  66  94 136 169 219 270 334 387
#
# _framework density 4.9382720000000004
#
# number of rings (size 3 to 8) (size 9 to 14) (size 15 to 20)
#    0.000    1.630    2.963    1.333    6.222    2.963 
#    0.000    1.481    0.000    0.000    0.000    0.000 
#    0.000    0.000    0.000    0.000    0.000    0.000 
#
# Total GULP energy -300921.323536 kJ/mol
# GULP energy per Si atom -5572.617103 kJ/mol
# Density = 0.492703 g / cm^3
# Si number density = 4.938272 Si / 1000 Ang^3
#
#
#
# Elastic Constant Matrix: (Units=GPa)
#
#
# Indices 1 2 3 4 5 6 
#
# 1 100.8503 60.1776 43.3476 0.0000 0.0000 0.0000
# 2 60.1776 108.7299 46.6237 0.0000 0.0000 0.0000
# 3 43.3476 46.6237 74.4583 0.0000 0.0000 0.0000
# 4 0.0000 0.0000 0.0000 -5.6761 0.0000 0.0000
# 5 0.0000 0.0000 0.0000 0.0000 36.0870 0.0000
# 6 0.0000 0.0000 0.0000 0.0000 0.0000 57.1111
#
#
#
# Elastic Compliance Matrix: (Units=1/GPa)
#
#
# Indices 1 2 3 4 5 6 
#
# 1 0.016157 -0.006711 -0.005204 0.000000 0.000000 0.000000
# 2 -0.006711 0.015360 -0.005711 0.000000 0.000000 0.000000
# 3 -0.005204 -0.005711 0.020036 0.000000 0.000000 0.000000
# 4 0.000000 0.000000 0.000000 -0.176179 0.000000 0.000000
# 5 0.000000 0.000000 0.000000 0.000000 0.027711 0.000000
# 6 0.000000 0.000000 0.000000 0.000000 0.000000 0.017510
#
#
# Mechanical properties :
#
#
# Convention : Reuss Voigt Hill
#
# Bulk Modulus (GPa) = 61.34522 64.92625 63.13574
# Shear Modulus (GPa) = -129.13563 26.43037 -51.35263
#
# Velocity S-wave (km/s) = -8.09425 3.66189 -5.10428
# Velocity P-wave (km/s) = 7.49882 7.12878 1.64512
#
# Compressibility (1/GPa) = 0.01630119
#
# Stress axis : x y z
#
# Youngs Moduli (GPa) = 61.89378 65.10330 49.90936
#
# Poissons Ratio (x) = 0.43688 0.25973
# Poissons Ratio (y) = 0.41534 0.28505
# Poissons Ratio (z) = 0.32210 0.37183
#
# Static dielectric constant tensor:
#      x y z
#    x 1.725300 0.000000 0.000000 
#    y 0.000000 1.667190 0.000000 
#    z 0.000000 0.000000 1.755740 
# 
# From -- ./inp_files/58803.got.cif
#   From: 2010.05.17/outbox.ucp.g08.bks.cvg/sg70_30_cif.got.tgz:58803.got - 2010.06.11 16:26:41.
