data_PCOD9517384
_publ_section_title
;
Structure prediction by ZEFSAII (Michael W. Deem and Ramdas Pophale) SiO2 
 PCOD9517384
Probable space group: I M M M
;
_chemical_formula_sum "Si O2"
_cell_formula_units_Z 72
_cell_length_a 28.568839
_cell_length_b 7.572545
_cell_length_c 20.015048
_cell_angle_alpha 90.000000
_cell_angle_beta 90.000000
_cell_angle_gamma 90.000000
_cell_volume 4330.031845
_symmetry_space_group_name_H-M "I M M M"
_symmetry_group_IT_number 71
_symmetry_cell_setting 'orthorhombic'
loop_
_space_group_symop_operation_xyz
x,y,z
-x,-y,z
x,-y,-z
-x,y,-z
-x,-y,-z
x,y,-z
-x,y,z
x,-y,z
1/2+x,1/2+y,1/2+z
1/2-x,1/2-y,1/2+z
1/2+x,1/2-y,1/2-z
1/2-x,1/2+y,1/2-z
1/2-x,1/2-y,1/2-z
1/2+x,1/2+y,1/2-z
1/2-x,1/2+y,1/2+z
1/2+x,1/2-y,1/2+z
loop_
_atom_site_type_symbol
_atom_site_label
_atom_site_fract_x
_atom_site_fract_y
_atom_site_fract_z
Si Si1 0.722677 0.205475 0.854719
Si Si2 0.500000 0.283922 0.421436
Si Si3 0.400014 0.287313 0.371123
Si Si4 0.342387 0.284723 0.500000
Si Si5 0.183924 0.291314 0.783802
Si Si6 0.265479 0.782841 0.000000
O O1 0.777963 0.213894 0.835675
O O2 0.696288 0.281119 0.789882
O O3 0.709412 0.000000 0.858221
O O4 0.714370 0.278739 0.928841
O O5 0.500000 0.500000 0.422592
O O6 0.500000 0.230755 0.500000
O O7 0.452979 0.226270 0.383351
O O8 0.401289 0.500000 0.372679
O O9 0.369906 0.225310 0.434653
O O10 0.368978 0.237459 0.307345
O O11 0.342975 0.500000 0.500000
O O12 0.288887 0.229583 0.500000
O O13 0.193391 0.500000 0.783379
O O14 0.266610 0.000000 0.000000
#
# Coordination Sequence:
#
# PCOD9517384 Si02
#       6
#    16   8  16   8  16   8
#     4   9  17  29  44  59  77 105 141 174 201 235
#     4   9  16  26  45  67  79  98 145 192 206 219
#     4  10  17  28  44  60  80 107 140 176 207 234
#     4   9  14  21  40  61  76 102 139 173 200 228
#     4  10  19  28  39  59  85 110 134 163 205 252
#     4   9  14  24  43  62  74  98 142 177 197 224
#
# _framework density 16.628053000000001
#
# number of rings (size 3 to 8) (size 9 to 14) (size 15 to 20)
#    0.000    2.556    3.333    0.667    0.000    0.889 
#    0.000    2.778    0.000    0.667    0.000    0.000 
#    0.000    0.889    0.000   11.111    0.000    0.889 
#
# Total GULP energy -200624.183402 kJ/mol
# GULP energy per Si atom -5572.893983 kJ/mol
# Density = 1.659021 g / cm^3
# Si number density = 16.628053 Si / 1000 Ang^3
#
#
#
# Elastic Constant Matrix: (Units=GPa)
#
#
# Indices 1 2 3 4 5 6 
#
# 1 90.3013 -3.5015 49.6384 0.0000 0.0000 0.0000
# 2 -3.5015 38.1287 1.0365 0.0000 0.0000 0.0000
# 3 49.6384 1.0365 134.8046 0.0000 0.0000 0.0000
# 4 0.0000 0.0000 0.0000 6.1703 0.0000 0.0000
# 5 0.0000 0.0000 0.0000 0.0000 25.2501 0.0000
# 6 0.0000 0.0000 0.0000 0.0000 0.0000 10.5466
#
#
#
# Elastic Compliance Matrix: (Units=1/GPa)
#
#
# Indices 1 2 3 4 5 6 
#
# 1 0.013961 0.001422 -0.005152 0.000000 0.000000 0.000000
# 2 0.001422 0.026377 -0.000726 0.000000 0.000000 0.000000
# 3 -0.005152 -0.000726 0.009321 0.000000 0.000000 0.000000
# 4 0.000000 0.000000 0.000000 0.162068 0.000000 0.000000
# 5 0.000000 0.000000 0.000000 0.000000 0.039604 0.000000
# 6 0.000000 0.000000 0.000000 0.000000 0.000000 0.094817
#
#
# Mechanical properties :
#
#
# Convention : Reuss Voigt Hill
#
# Bulk Modulus (GPa) = 24.54169 39.73126 32.13647
# Shear Modulus (GPa) = 13.56328 22.79746 18.18037
#
# Velocity S-wave (km/s) = 2.85912 3.70675 3.31018
# Velocity P-wave (km/s) = 5.06860 6.50123 5.82909
#
# Compressibility (1/GPa) = 0.04074699
#
# Stress axis : x y z
#
# Youngs Moduli (GPa) = 71.62760 37.91132 107.28769
#
# Poissons Ratio (x) = -0.05392 0.55272
# Poissons Ratio (y) = -0.10186 0.07794
# Poissons Ratio (z) = 0.36901 0.02754
#
# Static dielectric constant tensor:
#      x y z
#    x 1.543210 0.000000 0.000000 
#    y 0.000000 1.633590 0.000000 
#    z 0.000000 0.000000 1.605900 
# 
# From -- ./inp_files/50713.got.cif
#   From: 2010.05.17/outbox.cif.g08.bks.cpg/sg71_26_cif.got.tgz:50713.got - 2010.06.03 16:22:01.
