data_PCOD9517701
_publ_section_title
;
Structure prediction by ZEFSAII (Michael W. Deem and Ramdas Pophale) SiO2 
 PCOD9517701
Probable space group: I M M M
;
_chemical_formula_sum "Si O2"
_cell_formula_units_Z 88
_cell_length_a 7.486216
_cell_length_b 25.835652
_cell_length_c 21.651010
_cell_angle_alpha 90.000000
_cell_angle_beta 90.000000
_cell_angle_gamma 90.000000
_cell_volume 4187.549371
_symmetry_space_group_name_H-M "I M M M"
_symmetry_group_IT_number 71
_symmetry_cell_setting 'orthorhombic'
loop_
_space_group_symop_operation_xyz
x,y,z
-x,-y,z
x,-y,-z
-x,y,-z
-x,-y,-z
x,y,-z
-x,y,z
x,-y,z
1/2+x,1/2+y,1/2+z
1/2-x,1/2-y,1/2+z
1/2+x,1/2-y,1/2-z
1/2-x,1/2+y,1/2-z
1/2-x,1/2-y,1/2-z
1/2+x,1/2+y,1/2-z
1/2-x,1/2+y,1/2+z
1/2+x,1/2-y,1/2+z
loop_
_atom_site_type_symbol
_atom_site_label
_atom_site_fract_x
_atom_site_fract_y
_atom_site_fract_z
Si Si1 0.213966 0.604868 0.237283
Si Si2 0.780559 0.830091 0.569126
Si Si3 0.787309 0.943689 0.389057
Si Si4 0.213167 0.562574 0.500000
Si Si5 0.804271 0.216438 0.308933
Si Si6 0.218202 0.560163 0.366782
O O1 0.254753 0.563144 0.184266
O O2 0.302990 0.657808 0.215876
O O3 0.275388 0.588870 0.305140
O O4 0.000000 0.612716 0.238526
O O5 0.730880 0.814665 0.500000
O O6 0.721102 0.889685 0.581578
O O7 0.713998 0.792484 0.624075
O O8 0.000000 0.830884 0.572594
O O9 0.000000 0.944249 0.400141
O O10 0.717281 0.000000 0.409495
O O11 0.236132 0.500000 0.500000
O O12 0.280883 0.580986 0.433418
O O13 0.000000 0.571849 0.500000
O O14 0.750000 0.250000 0.250000
O O15 0.000000 0.236737 0.324042
O O16 0.269678 0.500000 0.362053
O O17 0.000000 0.561191 0.367313
#
# Coordination Sequence:
#
# PCOD9517701 Si02
#       6
#    16  16  16   8  16  16
#     4  10  18  28  45  69  95 124 159 198 241 285
#     4   8  15  29  50  75  99 124 160 205 245 283
#     4   9  17  28  43  68 102 136 167 198 236 281
#     4   7  10  18  32  52  81 115 149 187 227 259
#     4  10  20  35  55  75  94 119 154 197 247 296
#     4   8  13  21  36  60  89 120 153 189 228 268
#
# _framework density 21.014679000000001
#
# number of rings (size 3 to 8) (size 9 to 14) (size 15 to 20)
#    0.000    3.182    0.000    3.818    0.000    1.455 
#    0.000    1.818    2.000   13.636    0.000    7.000 
#    0.000   10.182    0.000    0.000    0.000    0.000 
#
# Total GULP energy -244956.694572 kJ/mol
# GULP energy per Si atom -5567.197604 kJ/mol
# Density = 2.096685 g / cm^3
# Si number density = 21.014679 Si / 1000 Ang^3
#
#
#
# Elastic Constant Matrix: (Units=GPa)
#
#
# Indices 1 2 3 4 5 6 
#
# 1 55.2504 2.2797 -3.5808 0.0000 0.0000 0.0000
# 2 2.2797 46.6774 36.0374 0.0000 0.0000 0.0000
# 3 -3.5808 36.0374 187.2752 0.0000 0.0000 0.0000
# 4 0.0000 0.0000 0.0000 27.2488 0.0000 0.0000
# 5 0.0000 0.0000 0.0000 0.0000 6.4764 0.0000
# 6 0.0000 0.0000 0.0000 0.0000 0.0000 9.7584
#
#
#
# Elastic Compliance Matrix: (Units=1/GPa)
#
#
# Indices 1 2 3 4 5 6 
#
# 1 0.018195 -0.001359 0.000609 0.000000 0.000000 0.000000
# 2 -0.001359 0.025263 -0.004887 0.000000 0.000000 0.000000
# 3 0.000609 -0.004887 0.006292 0.000000 0.000000 0.000000
# 4 0.000000 0.000000 0.000000 0.036699 0.000000 0.000000
# 5 0.000000 0.000000 0.000000 0.000000 0.154406 0.000000
# 6 0.000000 0.000000 0.000000 0.000000 0.000000 0.102476
#
#
# Mechanical properties :
#
#
# Convention : Reuss Voigt Hill
#
# Bulk Modulus (GPa) = 25.99026 39.85286 32.92156
# Shear Modulus (GPa) = 13.60801 25.66117 19.63459
#
# Velocity S-wave (km/s) = 2.54746 3.49823 3.05999
# Velocity P-wave (km/s) = 4.58773 5.94325 5.30893
#
# Compressibility (1/GPa) = 0.03847595
#
# Stress axis : x y z
#
# Youngs Moduli (GPa) = 54.96020 39.58301 158.93517
#
# Poissons Ratio (x) = 0.05380 -0.09686
# Poissons Ratio (y) = 0.07470 0.77678
# Poissons Ratio (z) = -0.03349 0.19346
#
# Static dielectric constant tensor:
#      x y z
#    x 1.822010 0.000000 0.000000 
#    y 0.000000 1.753670 0.000000 
#    z 0.000000 0.000000 1.818050 
# 
# From -- ./inp_files/50804.got.cif
#   From: 2010.05.17/outbox.cif.g08.bks.cpg/sg71_26_cif.got.tgz:50804.got - 2010.06.03 16:22:01.
