data_PCOD9517018
_publ_section_title
;
Structure prediction by ZEFSAII (Michael W. Deem and Ramdas Pophale) SiO2 
 PCOD9517018
Probable space group: F D D D
;
_chemical_formula_sum "Si O2"
_cell_formula_units_Z 192
_cell_length_a 14.593021
_cell_length_b 23.447566
_cell_length_c 21.760368
_cell_angle_alpha 90.000000
_cell_angle_beta 90.000000
_cell_angle_gamma 90.000000
_cell_volume 7445.763028
_symmetry_space_group_name_H-M "F D D D"
_symmetry_group_IT_number 70
_space_group.IT_coordinate_system_code '2'
_symmetry_cell_setting 'orthorhombic'
loop_
_space_group_symop_operation_xyz
x,y,z
1/4-x,1/4-y,z
x,1/4-y,1/4-z
1/4-x,y,1/4-z
-x,-y,-z
3/4+x,3/4+y,-z
-x,3/4+y,3/4+z
3/4+x,-y,3/4+z
x,1/2+y,1/2+z
1/4-x,3/4-y,1/2+z
x,3/4-y,3/4-z
1/4-x,1/2+y,3/4-z
-x,1/2-y,1/2-z
3/4+x,1/4+y,1/2-z
-x,1/4+y,1/4+z
3/4+x,1/2-y,1/4+z
1/2+x,y,1/2+z
3/4-x,1/4-y,1/2+z
1/2+x,1/4-y,3/4-z
3/4-x,y,3/4-z
1/2-x,-y,1/2-z
1/4+x,3/4+y,1/2-z
1/2-x,3/4+y,1/4+z
1/4+x,-y,1/4+z
1/2+x,1/2+y,z
3/4-x,3/4-y,z
1/2+x,3/4-y,1/4-z
3/4-x,1/2+y,1/4-z
1/2-x,1/2-y,-z
1/4+x,1/4+y,-z
1/2-x,1/4+y,3/4+z
1/4+x,1/2-y,3/4+z
loop_
_atom_site_type_symbol
_atom_site_label
_atom_site_fract_x
_atom_site_fract_y
_atom_site_fract_z
Si Si1 0.958941 0.701424 0.648074
Si Si2 0.007193 0.280687 0.928273
Si Si3 0.529995 0.420193 0.087823
Si Si4 0.625000 0.125000 0.125000
Si Si5 0.875000 0.375000 0.668972
Si Si6 0.314091 0.175005 0.247160
Si Si7 0.625000 0.125000 0.625000
Si Si8 0.499875 0.792936 0.695810
O O1 0.860735 0.695033 0.681922
O O2 0.934610 0.683513 0.576604
O O3 0.984704 0.767362 0.661151
O O4 0.053742 0.666935 0.659438
O O5 0.939256 0.333721 0.916372
O O6 0.987289 0.232705 0.979646
O O7 0.996639 0.241725 0.867059
O O8 0.625000 0.425681 0.125000
O O9 0.465478 0.380916 0.130009
O O10 0.524912 0.384850 0.024134
O O11 0.850233 0.429892 0.705202
O O12 0.409869 0.172635 0.284999
O O13 0.500000 0.750000 0.750000
#
# Coordination Sequence:
#
# PCOD9517018 Si02
#       8
#    32  32  32   8  16  32   8  32
#     4  12  28  52  77 111 149 207 266 325 394 473
#     4  12  24  46  71 109 156 197 252 324 398 484
#     4  12  22  45  78 107 150 198 258 316 391 471
#     4  12  26  42  66 102 154 216 218 310 426 450
#     4  12  22  40  74 110 145 197 249 324 387 460
#     4  12  24  48  80 115 152 197 259 335 403 480
#     4  12  30  58  66  94 166 196 256 346 356 456
#     4  12  22  42  70 110 156 194 248 326 395 473
#
# _framework density 25.786477999999999
#
# number of rings (size 3 to 8) (size 9 to 14) (size 15 to 20)
#    0.000    0.000    9.167    0.500    0.000    2.667 
#    9.000    3.333    0.000    0.000    0.000    0.000 
#    0.000    0.000    0.000    0.000    0.000    0.000 
#
# Total GULP energy -268132.098918 kJ/mol
# GULP energy per Si atom -5586.085394 kJ/mol
# Density = 2.572779 g / cm^3
# Si number density = 25.786478 Si / 1000 Ang^3
#
#
#
# Elastic Constant Matrix: (Units=GPa)
#
#
# Indices 1 2 3 4 5 6 
#
# 1 162.0339 41.9612 35.3942 0.0000 0.0000 0.0000
# 2 41.9612 142.9021 26.1738 0.0000 0.0000 0.0000
# 3 35.3942 26.1738 79.9294 0.0000 0.0000 0.0000
# 4 0.0000 0.0000 0.0000 26.7488 0.0000 0.0000
# 5 0.0000 0.0000 0.0000 0.0000 21.9679 0.0000
# 6 0.0000 0.0000 0.0000 0.0000 0.0000 66.2354
#
#
#
# Elastic Compliance Matrix: (Units=1/GPa)
#
#
# Indices 1 2 3 4 5 6 
#
# 1 0.007169 -0.001621 -0.002644 0.000000 0.000000 0.000000
# 2 -0.001621 0.007811 -0.001840 0.000000 0.000000 0.000000
# 3 -0.002644 -0.001840 0.014284 0.000000 0.000000 0.000000
# 4 0.000000 0.000000 0.000000 0.037385 0.000000 0.000000
# 5 0.000000 0.000000 0.000000 0.000000 0.045521 0.000000
# 6 0.000000 0.000000 0.000000 0.000000 0.000000 0.015098
#
#
# Mechanical properties :
#
#
# Convention : Reuss Voigt Hill
#
# Bulk Modulus (GPa) = 58.63472 65.76933 62.20203
# Shear Modulus (GPa) = 34.44446 41.74616 38.09531
#
# Velocity S-wave (km/s) = 3.65877 4.02794 3.84778
# Velocity P-wave (km/s) = 6.37469 6.86973 6.62683
#
# Compressibility (1/GPa) = 0.01705474
#
# Stress axis : x y z
#
# Youngs Moduli (GPa) = 139.49411 128.02899 70.00714
#
# Poissons Ratio (x) = 0.20751 0.18508
# Poissons Ratio (y) = 0.22609 0.12881
# Poissons Ratio (z) = 0.36878 0.23557
#
# Static dielectric constant tensor:
#      x y z
#    x 1.656990 0.000000 0.000000 
#    y 0.000000 2.299790 0.000000 
#    z 0.000000 0.000000 2.073820 
# 
# From -- ./inp_files/51457.got.cif
#   From: 2010.05.17/outbox.cif.g08.bks.cpg/sg70_26_cif.got.tgz:51457.got - 2010.06.03 15:57:51.
