data_PCOD9517683
_publ_section_title
;
Structure prediction by ZEFSAII (Michael W. Deem and Ramdas Pophale) SiO2 
 PCOD9517683
Probable space group: I M M M
;
_chemical_formula_sum "Si O2"
_cell_formula_units_Z 120
_cell_length_a 24.892358
_cell_length_b 22.213617
_cell_length_c 13.890151
_cell_angle_alpha 90.000000
_cell_angle_beta 90.000000
_cell_angle_gamma 90.000000
_cell_volume 7680.549367
_symmetry_space_group_name_H-M "I M M M"
_symmetry_group_IT_number 71
_symmetry_cell_setting 'orthorhombic'
loop_
_space_group_symop_operation_xyz
x,y,z
-x,-y,z
x,-y,-z
-x,y,-z
-x,-y,-z
x,y,-z
-x,y,z
x,-y,z
1/2+x,1/2+y,1/2+z
1/2-x,1/2-y,1/2+z
1/2+x,1/2-y,1/2-z
1/2-x,1/2+y,1/2-z
1/2-x,1/2-y,1/2-z
1/2+x,1/2+y,1/2-z
1/2-x,1/2+y,1/2+z
1/2+x,1/2-y,1/2+z
loop_
_atom_site_type_symbol
_atom_site_label
_atom_site_fract_x
_atom_site_fract_y
_atom_site_fract_z
Si Si1 0.942043 0.212289 0.383303
Si Si2 0.561312 0.500000 0.116617
Si Si3 0.862532 0.889303 0.383590
Si Si4 0.664220 0.929644 0.614136
Si Si5 0.743492 0.346248 0.804064
Si Si6 0.227063 0.287238 0.611082
Si Si7 0.937654 0.428826 0.235581
Si Si8 0.604770 0.163872 0.887573
O O1 0.941613 0.209745 0.500000
O O2 0.892585 0.171694 0.353050
O O3 0.933515 0.281129 0.356982
O O4 0.000000 0.189078 0.350947
O O5 0.500000 0.500000 0.152595
O O6 0.596566 0.442204 0.142485
O O7 0.557836 0.500000 0.000000
O O8 0.855171 0.889936 0.500000
O O9 0.805269 0.889613 0.333603
O O10 0.671156 0.922291 0.500000
O O11 0.702415 0.881876 0.667889
O O12 0.602390 0.919864 0.645488
O O13 0.677390 0.000000 0.638137
O O14 0.743108 0.326049 0.692750
O O15 0.735537 0.283344 0.862845
O O16 0.243090 0.296903 0.500000
O O17 0.164884 0.308700 0.619881
O O18 0.937543 0.500000 0.257192
O O19 0.909772 0.392095 0.321622
O O20 0.000000 0.410876 0.221130
O O21 0.595643 0.149989 0.000000
#
# Coordination Sequence:
#
# PCOD9517683 Si02
#       8
#    16   8  16  16  16  16  16  16
#     4   9  16  26  42  64  93 126 159 196 236 286
#     4   9  18  30  44  68 107 145 166 190 238 295
#     4  10  18  28  44  70 100 133 168 198 237 288
#     4  10  21  35  52  74  99 130 167 210 256 297
#     4  11  20  33  53  75 102 131 168 207 246 297
#     4  10  20  34  52  74 102 134 164 201 252 304
#     4  10  21  36  51  70  96 127 168 210 251 304
#     4  10  18  32  49  70  98 126 163 205 250 298
#
# _framework density 15.623882999999999
#
# number of rings (size 3 to 8) (size 9 to 14) (size 15 to 20)
#    0.000    2.067    2.667    2.000    0.933    2.933 
#    0.000    2.000    0.000    0.400    0.000    0.000 
#    0.000    2.667    0.000    0.000    0.000    0.000 
#
# Total GULP energy -334185.316457 kJ/mol
# GULP energy per Si atom -5569.755274 kJ/mol
# Density = 1.558832 g / cm^3
# Si number density = 15.623883 Si / 1000 Ang^3
#
#
#
# Elastic Constant Matrix: (Units=GPa)
#
#
# Indices 1 2 3 4 5 6 
#
# 1 90.0264 34.6908 27.6100 0.0000 0.0000 0.0000
# 2 34.6908 57.4245 30.8607 0.0000 0.0000 0.0000
# 3 27.6100 30.8607 69.4426 0.0000 0.0000 0.0000
# 4 0.0000 0.0000 0.0000 17.8108 0.0000 0.0000
# 5 0.0000 0.0000 0.0000 0.0000 18.5136 0.0000
# 6 0.0000 0.0000 0.0000 0.0000 0.0000 25.3562
#
#
#
# Elastic Compliance Matrix: (Units=1/GPa)
#
#
# Indices 1 2 3 4 5 6 
#
# 1 0.014804 -0.007594 -0.002511 0.000000 0.000000 0.000000
# 2 -0.007594 0.026773 -0.008879 0.000000 0.000000 0.000000
# 3 -0.002511 -0.008879 0.019345 0.000000 0.000000 0.000000
# 4 0.000000 0.000000 0.000000 0.056146 0.000000 0.000000
# 5 0.000000 0.000000 0.000000 0.000000 0.054014 0.000000
# 6 0.000000 0.000000 0.000000 0.000000 0.000000 0.039438
#
#
# Mechanical properties :
#
#
# Convention : Reuss Voigt Hill
#
# Bulk Modulus (GPa) = 43.56523 44.80184 44.18354
# Shear Modulus (GPa) = 19.52058 20.58493 20.05275
#
# Velocity S-wave (km/s) = 3.53853 3.63372 3.58644
# Velocity P-wave (km/s) = 6.68126 6.80755 6.74470
#
# Compressibility (1/GPa) = 0.02295409
#
# Stress axis : x y z
#
# Youngs Moduli (GPa) = 67.54819 37.35055 51.69349
#
# Poissons Ratio (x) = 0.28363 0.12982
# Poissons Ratio (y) = 0.51295 0.45899
# Poissons Ratio (z) = 0.16964 0.33164
#
# Static dielectric constant tensor:
#      x y z
#    x 1.540740 0.000000 0.000000 
#    y 0.000000 1.541740 0.000000 
#    z 0.000000 0.000000 1.498360 
# 
# From -- ./inp_files/39653.got.cif
#   From: 2010.05.17/outbox.cif.g08.bks.cpg/sg71_20_cif.got.tgz:39653.got - 2010.06.03 16:22:01.
