data_PCOD9517046
_publ_section_title
;
Structure prediction by ZEFSAII (Michael W. Deem and Ramdas Pophale) SiO2 
 PCOD9517046
Probable space group: F D D D
;
_chemical_formula_sum "Si O2"
_cell_formula_units_Z 120
_cell_length_a 29.985983
_cell_length_b 7.351573
_cell_length_c 23.811971
_cell_angle_alpha 90.000000
_cell_angle_beta 90.000000
_cell_angle_gamma 90.000000
_cell_volume 5249.209540
_symmetry_space_group_name_H-M "F D D D"
_symmetry_group_IT_number 70
_space_group.IT_coordinate_system_code '2'
_symmetry_cell_setting 'orthorhombic'
loop_
_space_group_symop_operation_xyz
x,y,z
1/4-x,1/4-y,z
x,1/4-y,1/4-z
1/4-x,y,1/4-z
-x,-y,-z
3/4+x,3/4+y,-z
-x,3/4+y,3/4+z
3/4+x,-y,3/4+z
x,1/2+y,1/2+z
1/4-x,3/4-y,1/2+z
x,3/4-y,3/4-z
1/4-x,1/2+y,3/4-z
-x,1/2-y,1/2-z
3/4+x,1/4+y,1/2-z
-x,1/4+y,1/4+z
3/4+x,1/2-y,1/4+z
1/2+x,y,1/2+z
3/4-x,1/4-y,1/2+z
1/2+x,1/4-y,3/4-z
3/4-x,y,3/4-z
1/2-x,-y,1/2-z
1/4+x,3/4+y,1/2-z
1/2-x,3/4+y,1/4+z
1/4+x,-y,1/4+z
1/2+x,1/2+y,z
3/4-x,3/4-y,z
1/2+x,3/4-y,1/4-z
3/4-x,1/2+y,1/4-z
1/2-x,1/2-y,-z
1/4+x,1/4+y,-z
1/2-x,1/4+y,3/4+z
1/4+x,1/2-y,3/4+z
loop_
_atom_site_type_symbol
_atom_site_label
_atom_site_fract_x
_atom_site_fract_y
_atom_site_fract_z
Si Si1 0.091559 0.971883 0.496714
Si Si2 0.204655 0.090436 0.389069
Si Si3 0.375000 0.375000 0.691718
Si Si4 0.875000 0.875000 0.875000
Si Si5 0.193097 0.332868 0.614670
O O1 0.125000 0.125000 0.518036
O O2 0.061146 0.073012 0.448984
O O3 0.124157 0.810904 0.475798
O O4 0.063593 0.887727 0.547755
O O5 0.167618 0.161215 0.346641
O O6 0.254720 0.145131 0.373708
O O7 0.202353 0.875000 0.375000
O O8 0.911460 0.726226 0.853017
O O9 0.180816 0.125000 0.625000
#
# Coordination Sequence:
#
# PCOD9517046 Si02
#       5
#    32  32  16   8  32
#     4  12  24  43  73 108 141 185 246 296 366 435
#     4  12  23  47  73 107 145 187 243 306 364 433
#     4  12  23  46  80 107 141 192 244 311 364 428
#     4  12  24  48  68  94 148 196 242 286 360 428
#     4  12  27  47  71 103 150 195 238 301 367 437
#
# _framework density 22.860586999999999
#
# number of rings (size 3 to 8) (size 9 to 14) (size 15 to 20)
#    0.000    0.000    5.333    6.000    0.000    0.000 
#    0.000    2.667    0.000    0.000    0.000    0.000 
#    0.000    0.000    0.000    0.000    0.000    0.000 
#
# Total GULP energy -167303.712923 kJ/mol
# GULP energy per Si atom -5576.790431 kJ/mol
# Density = 2.280855 g / cm^3
# Si number density = 22.860587 Si / 1000 Ang^3
#
#
#
# Elastic Constant Matrix: (Units=GPa)
#
#
# Indices 1 2 3 4 5 6 
#
# 1 151.3291 25.1860 48.4757 0.0000 0.0008 -0.0001
# 2 25.1860 151.4984 31.1166 -0.0002 0.0008 0.0002
# 3 48.4757 31.1166 76.9985 -0.0001 0.0007 0.0000
# 4 0.0000 -0.0002 -0.0001 21.9901 0.0004 0.0000
# 5 0.0008 0.0008 0.0007 0.0004 66.1082 -0.0007
# 6 -0.0001 0.0002 0.0000 0.0000 -0.0007 41.0759
#
#
#
# Elastic Compliance Matrix: (Units=1/GPa)
#
#
# Indices 1 2 3 4 5 6 
#
# 1 0.008293 -0.000334 -0.005086 0.000000 0.000000 0.000000
# 2 -0.000334 0.007212 -0.002704 0.000000 0.000000 0.000000
# 3 -0.005086 -0.002704 0.017282 0.000000 0.000000 0.000000
# 4 0.000000 0.000000 0.000000 0.045475 0.000000 0.000000
# 5 0.000000 0.000000 0.000000 0.000000 0.015127 0.000000
# 6 0.000000 0.000000 0.000000 0.000000 0.000000 0.024345
#
#
# Mechanical properties :
#
#
# Convention : Reuss Voigt Hill
#
# Bulk Modulus (GPa) = 60.46528 65.48697 62.97613
# Shear Modulus (GPa) = 35.84372 44.17134 40.00753
#
# Velocity S-wave (km/s) = 3.96400 4.40045 4.18792
# Velocity P-wave (km/s) = 6.88898 7.38425 7.14091
#
# Compressibility (1/GPa) = 0.01653842
#
# Stress axis : x y z
#
# Youngs Moduli (GPa) = 120.58496 138.66435 57.86374
#
# Poissons Ratio (x) = 0.04632 0.29429
# Poissons Ratio (y) = 0.04028 0.15647
# Poissons Ratio (z) = 0.61329 0.37496
#
# Static dielectric constant tensor:
#      x y z
#    x 1.597740 0.000000 0.000000 
#    y 0.000000 1.861220 0.000000 
#    z 0.000000 0.000000 1.918850 
# 
# From -- ./inp_files/61516.got.cif
#   From: 2010.05.17/outbox.cif.g08.bks.cpg/sg70_31_cif.got.tgz:61516.got - 2010.06.03 15:57:51.
