data_PCOD9517331
_publ_section_title
;
Structure prediction by ZEFSAII (Michael W. Deem and Ramdas Pophale) SiO2 
 PCOD9517331
Probable space group: I M M M
;
_chemical_formula_sum "Si O2"
_cell_formula_units_Z 104
_cell_length_a 9.984320
_cell_length_b 23.924528
_cell_length_c 27.048471
_cell_angle_alpha 90.000000
_cell_angle_beta 90.000000
_cell_angle_gamma 90.000000
_cell_volume 6461.072147
_symmetry_space_group_name_H-M "I M M M"
_symmetry_group_IT_number 71
_symmetry_cell_setting 'orthorhombic'
loop_
_space_group_symop_operation_xyz
x,y,z
-x,-y,z
x,-y,-z
-x,y,-z
-x,-y,-z
x,y,-z
-x,y,z
x,-y,z
1/2+x,1/2+y,1/2+z
1/2-x,1/2-y,1/2+z
1/2+x,1/2-y,1/2-z
1/2-x,1/2+y,1/2-z
1/2-x,1/2-y,1/2-z
1/2+x,1/2+y,1/2-z
1/2-x,1/2+y,1/2+z
1/2+x,1/2-y,1/2+z
loop_
_atom_site_type_symbol
_atom_site_label
_atom_site_fract_x
_atom_site_fract_y
_atom_site_fract_z
Si Si1 0.339362 0.645334 0.588046
Si Si2 0.000000 0.567252 0.059030
Si Si3 0.340214 0.689129 0.802997
Si Si4 0.159541 0.199908 0.812121
Si Si5 0.755014 0.124607 0.391840
Si Si6 0.164054 0.065085 0.000000
Si Si7 0.846223 0.729206 0.942509
Si Si8 0.500000 0.566579 0.943292
O O1 0.500000 0.638024 0.588899
O O2 0.300434 0.655015 0.645545
O O3 0.289992 0.598045 0.549787
O O4 0.311450 0.706188 0.564679
O O5 0.875095 0.593137 0.088088
O O6 0.000000 0.500000 0.061155
O O7 0.000000 0.582426 0.000000
O O8 0.500000 0.696135 0.814200
O O9 0.253035 0.744919 0.815204
O O10 0.328085 0.679388 0.744191
O O11 0.279586 0.637982 0.834482
O O12 0.000000 0.213692 0.819724
O O13 0.748916 0.186554 0.415131
O O14 0.874008 0.089807 0.414680
O O15 0.000000 0.066924 0.000000
O O16 0.202956 0.000000 0.000000
O O17 0.000000 0.721747 0.924467
O O18 0.844916 0.715675 0.000000
O O19 0.500000 0.500000 0.943757
O O20 0.500000 0.586269 0.000000
#
# Coordination Sequence:
#
# PCOD9517331 Si02
#       8
#    16   8  16  16  16   8  16   8
#     4   9  15  25  43  70 100 133 166 205 246 306
#     4  11  24  40  56  77 102 132 182 234 267 317
#     4  10  20  33  48  77 109 139 176 216 267 328
#     4   9  18  32  52  73 106 144 176 213 263 318
#     4  12  21  34  54  76 102 137 172 227 269 320
#     4   9  16  26  42  70 109 143 164 195 253 313
#     4  10  17  26  44  72 103 126 160 212 269 307
#     4  11  24  40  54  69  98 144 182 210 269 335
#
# _framework density 16.096399000000002
#
# number of rings (size 3 to 8) (size 9 to 14) (size 15 to 20)
#    0.000    1.923    3.846    1.846    1.077    1.231 
#    0.000    0.000    0.000    1.846    0.000    0.000 
#    0.000    0.615    0.000    0.000    0.000    0.000 
#
# Total GULP energy -289496.595147 kJ/mol
# GULP energy per Si atom -5567.242214 kJ/mol
# Density = 1.605976 g / cm^3
# Si number density = 16.096399 Si / 1000 Ang^3
#
#
#
# Elastic Constant Matrix: (Units=GPa)
#
#
# Indices 1 2 3 4 5 6 
#
# 1 78.2698 27.1154 38.9285 0.0000 0.0000 0.0000
# 2 27.1154 81.4262 56.3882 0.0000 0.0000 0.0000
# 3 38.9285 56.3882 140.2676 0.0000 0.0000 0.0000
# 4 0.0000 0.0000 0.0000 17.7635 0.0000 0.0000
# 5 0.0000 0.0000 0.0000 0.0000 17.4039 0.0000
# 6 0.0000 0.0000 0.0000 0.0000 0.0000 18.9667
#
#
#
# Elastic Compliance Matrix: (Units=1/GPa)
#
#
# Indices 1 2 3 4 5 6 
#
# 1 0.015331 -0.002992 -0.003052 0.000000 0.000000 0.000000
# 2 -0.002992 0.017603 -0.006246 0.000000 0.000000 0.000000
# 3 -0.003052 -0.006246 0.010487 0.000000 0.000000 0.000000
# 4 0.000000 0.000000 0.000000 0.056295 0.000000 0.000000
# 5 0.000000 0.000000 0.000000 0.000000 0.057458 0.000000
# 6 0.000000 0.000000 0.000000 0.000000 0.000000 0.052724
#
#
# Mechanical properties :
#
#
# Convention : Reuss Voigt Hill
#
# Bulk Modulus (GPa) = 53.07559 60.53644 56.80601
# Shear Modulus (GPa) = 20.76770 22.66224 21.71497
#
# Velocity S-wave (km/s) = 3.59584 3.75628 3.67694
# Velocity P-wave (km/s) = 7.09121 7.51686 7.30714
#
# Compressibility (1/GPa) = 0.01884105
#
# Stress axis : x y z
#
# Youngs Moduli (GPa) = 65.22849 56.80915 95.35385
#
# Poissons Ratio (x) = 0.16995 0.29103
# Poissons Ratio (y) = 0.19514 0.59559
# Poissons Ratio (z) = 0.19908 0.35484
#
# Static dielectric constant tensor:
#      x y z
#    x 1.525420 0.000000 0.000000 
#    y 0.000000 1.526550 0.000000 
#    z 0.000000 0.000000 1.587370 
# 
# From -- ./inp_files/63601.got.cif
#   From: 2010.05.17/outbox.cif.g08.bks.cpg/sg71_32_cif.got.tgz:63601.got - 2010.06.03 16:22:01.
