data_PCOD9517703
_publ_section_title
;
Structure prediction by ZEFSAII (Michael W. Deem and Ramdas Pophale) SiO2 
 PCOD9517703
Probable space group: I M M M
;
_chemical_formula_sum "Si O2"
_cell_formula_units_Z 80
_cell_length_a 21.408397
_cell_length_b 26.059324
_cell_length_c 7.786103
_cell_angle_alpha 90.000000
_cell_angle_beta 90.000000
_cell_angle_gamma 90.000000
_cell_volume 4343.776185
_symmetry_space_group_name_H-M "I M M M"
_symmetry_group_IT_number 71
_symmetry_cell_setting 'orthorhombic'
loop_
_space_group_symop_operation_xyz
x,y,z
-x,-y,z
x,-y,-z
-x,y,-z
-x,-y,-z
x,y,-z
-x,y,z
x,-y,z
1/2+x,1/2+y,1/2+z
1/2-x,1/2-y,1/2+z
1/2+x,1/2-y,1/2-z
1/2-x,1/2+y,1/2-z
1/2-x,1/2-y,1/2-z
1/2+x,1/2+y,1/2-z
1/2-x,1/2+y,1/2+z
1/2+x,1/2-y,1/2+z
loop_
_atom_site_type_symbol
_atom_site_label
_atom_site_fract_x
_atom_site_fract_y
_atom_site_fract_z
Si Si1 0.729576 0.000000 0.303376
Si Si2 0.687667 0.781438 0.293006
Si Si3 0.568186 0.280332 0.704353
Si Si4 0.118071 0.110348 0.705175
Si Si5 0.629168 0.500000 0.698754
Si Si6 0.736572 0.110797 0.289314
O O1 0.805709 0.000000 0.303850
O O2 0.712779 0.055275 0.227045
O O3 0.707306 0.000000 0.500000
O O4 0.683451 0.783118 0.500000
O O5 0.750000 0.750000 0.250000
O O6 0.626652 0.752043 0.225219
O O7 0.698036 0.839741 0.232620
O O8 0.566767 0.271107 0.500000
O O9 0.500000 0.266930 0.775710
O O10 0.580868 0.340681 0.729682
O O11 0.117147 0.111655 0.500000
O O12 0.096008 0.053823 0.761871
O O13 0.190655 0.116267 0.762683
O O14 0.646938 0.500000 0.500000
O O15 0.736539 0.109545 0.500000
#
# Coordination Sequence:
#
# PCOD9517703 Si02
#       6
#     8  16  16  16   8  16
#     4   8  14  26  42  65  96 122 152 195 239 281
#     4  10  18  30  48  70  94 122 160 198 239 287
#     4  10  21  34  47  67  97 129 159 197 246 294
#     4  10  18  31  49  68  92 123 163 203 237 280
#     4  10  18  28  45  69  96 125 157 195 241 286
#     4   8  14  25  44  68  91 117 151 192 235 276
#
# _framework density 18.417155999999999
#
# number of rings (size 3 to 8) (size 9 to 14) (size 15 to 20)
#    0.000    2.600    2.000    2.700    0.000    0.400 
#    0.000    0.500    0.000    3.000    0.000    0.700 
#    0.000    5.600    0.000    0.000    0.000   16.300 
#
# Total GULP energy -222965.455549 kJ/mol
# GULP energy per Si atom -5574.136389 kJ/mol
# Density = 1.837524 g / cm^3
# Si number density = 18.417156 Si / 1000 Ang^3
#
#
#
# Elastic Constant Matrix: (Units=GPa)
#
#
# Indices 1 2 3 4 5 6 
#
# 1 101.4802 69.0050 6.7762 0.0000 0.0000 0.0000
# 2 69.0050 161.5157 -1.6456 0.0000 0.0000 0.0000
# 3 6.7762 -1.6456 33.7320 0.0000 0.0000 0.0000
# 4 0.0000 0.0000 0.0000 13.3126 0.0000 0.0000
# 5 0.0000 0.0000 0.0000 0.0000 8.1901 0.0000
# 6 0.0000 0.0000 0.0000 0.0000 0.0000 9.0642
#
#
#
# Elastic Compliance Matrix: (Units=1/GPa)
#
#
# Indices 1 2 3 4 5 6 
#
# 1 0.014217 -0.006106 -0.003154 0.000000 0.000000 0.000000
# 2 -0.006106 0.008817 0.001657 0.000000 0.000000 0.000000
# 3 -0.003154 0.001657 0.030360 0.000000 0.000000 0.000000
# 4 0.000000 0.000000 0.000000 0.075117 0.000000 0.000000
# 5 0.000000 0.000000 0.000000 0.000000 0.122098 0.000000
# 6 0.000000 0.000000 0.000000 0.000000 0.000000 0.110325
#
#
# Mechanical properties :
#
#
# Convention : Reuss Voigt Hill
#
# Bulk Modulus (GPa) = 26.18668 49.44433 37.81550
# Shear Modulus (GPa) = 12.85784 20.95287 16.90536
#
# Velocity S-wave (km/s) = 2.64511 3.37661 3.03300
# Velocity P-wave (km/s) = 4.85575 6.48901 5.73086
#
# Compressibility (1/GPa) = 0.03818735
#
# Stress axis : x y z
#
# Youngs Moduli (GPa) = 70.33975 113.41833 32.93826
#
# Poissons Ratio (x) = 0.69253 0.10388
# Poissons Ratio (y) = 0.42949 -0.05457
# Poissons Ratio (z) = 0.22184 -0.18790
#
# Static dielectric constant tensor:
#      x y z
#    x 1.625420 0.000000 0.000000 
#    y 0.000000 1.680950 0.000000 
#    z 0.000000 0.000000 1.679920 
# 
# From -- ./inp_files/8453.got.cif
#   From: 2010.05.17/outbox.cif.g08.bks.cpg/sg71_5_cif.got.tgz:8453.got - 2010.06.03 16:22:01.
