data_PCOD9517553
_publ_section_title
;
Structure prediction by ZEFSAII (Michael W. Deem and Ramdas Pophale) SiO2 
 PCOD9517553
Probable space group: I M M M
;
_chemical_formula_sum "Si O2"
_cell_formula_units_Z 80
_cell_length_a 7.321789
_cell_length_b 14.090562
_cell_length_c 36.382421
_cell_angle_alpha 90.000000
_cell_angle_beta 90.000000
_cell_angle_gamma 90.000000
_cell_volume 3753.506043
_symmetry_space_group_name_H-M "I M M M"
_symmetry_group_IT_number 71
_symmetry_cell_setting 'orthorhombic'
loop_
_space_group_symop_operation_xyz
x,y,z
-x,-y,z
x,-y,-z
-x,y,-z
-x,-y,-z
x,y,-z
-x,y,z
x,-y,z
1/2+x,1/2+y,1/2+z
1/2-x,1/2-y,1/2+z
1/2+x,1/2-y,1/2-z
1/2-x,1/2+y,1/2-z
1/2-x,1/2-y,1/2-z
1/2+x,1/2+y,1/2-z
1/2-x,1/2+y,1/2+z
1/2+x,1/2-y,1/2+z
loop_
_atom_site_type_symbol
_atom_site_label
_atom_site_fract_x
_atom_site_fract_y
_atom_site_fract_z
Si Si1 0.777771 0.110605 0.540804
Si Si2 0.720324 0.608264 0.347610
Si Si3 0.212773 0.207947 0.614131
Si Si4 0.777700 0.111645 0.688231
Si Si5 0.216739 0.115218 0.767592
O O1 0.716839 0.140664 0.500000
O O2 0.712208 0.170511 0.575656
O O3 0.000000 0.114819 0.540201
O O4 0.729334 0.000000 0.545904
O O5 0.500000 0.606824 0.345806
O O6 0.780839 0.500000 0.352859
O O7 0.774400 0.680134 0.379315
O O8 0.788865 0.644728 0.307551
O O9 0.290536 0.162060 0.651482
O O10 0.000000 0.180110 0.613967
O O11 0.711970 0.149459 0.728076
O O12 0.000000 0.117734 0.689080
O O13 0.732934 0.000000 0.685970
O O14 0.000000 0.132981 0.767694
O O15 0.238557 0.000000 0.767259
#
# Coordination Sequence:
#
# PCOD9517553 Si02
#       5
#    16  16  16  16  16
#     4   8  14  26  45  69  96 121 140 161 199 258
#     4   9  18  32  46  58  79 117 157 183 209 252
#     4  10  18  26  43  71  92 107 137 182 222 250
#     4   8  13  22  38  62  90 114 138 173 214 255
#     4   7  11  22  39  56  77 111 150 178 203 246
#
# _framework density 21.313407999999999
#
# number of rings (size 3 to 8) (size 9 to 14) (size 15 to 20)
#    0.000    3.600    0.000    3.600    0.000    3.600 
#    0.000    0.000    0.000    3.600    0.000    8.400 
#    0.000    0.000    0.000    0.000    0.000    0.000 
#
# Total GULP energy -223163.650932 kJ/mol
# GULP energy per Si atom -5579.091273 kJ/mol
# Density = 2.126490 g / cm^3
# Si number density = 21.313408 Si / 1000 Ang^3
#
#
#
# Elastic Constant Matrix: (Units=GPa)
#
#
# Indices 1 2 3 4 5 6 
#
# 1 83.0445 -7.6085 10.6867 0.0000 0.0000 0.0000
# 2 -7.6085 76.3234 94.6218 0.0000 0.0000 0.0000
# 3 10.6867 94.6218 222.3054 0.0000 0.0000 0.0000
# 4 0.0000 0.0000 0.0000 40.4481 0.0000 0.0000
# 5 0.0000 0.0000 0.0000 0.0000 -7.8181 0.0000
# 6 0.0000 0.0000 0.0000 0.0000 0.0000 -9.2147
#
#
#
# Elastic Compliance Matrix: (Units=1/GPa)
#
#
# Indices 1 2 3 4 5 6 
#
# 1 0.012750 0.004300 -0.002443 0.000000 0.000000 0.000000
# 2 0.004300 0.029190 -0.012631 0.000000 0.000000 0.000000
# 3 -0.002443 -0.012631 0.009992 0.000000 0.000000 0.000000
# 4 0.000000 0.000000 0.000000 0.024723 0.000000 0.000000
# 5 0.000000 0.000000 0.000000 0.000000 -0.127909 0.000000
# 6 0.000000 0.000000 0.000000 0.000000 0.000000 -0.108522
#
#
# Mechanical properties :
#
#
# Convention : Reuss Voigt Hill
#
# Bulk Modulus (GPa) = 32.91251 64.11924 48.51588
# Shear Modulus (GPa) = -39.03233 23.61463 -7.70885
#
# Velocity S-wave (km/s) = -4.28407 3.33223 -1.90388
# Velocity P-wave (km/s) = 2.99922 6.70480 4.24022
#
# Compressibility (1/GPa) = 0.03038358
#
# Stress axis : x y z
#
# Youngs Moduli (GPa) = 78.43079 34.25795 100.07907
#
# Poissons Ratio (x) = -0.14731 0.24451
# Poissons Ratio (y) = -0.33724 1.26412
# Poissons Ratio (z) = 0.19162 0.43272
#
# Static dielectric constant tensor:
#      x y z
#    x 1.862230 0.000000 0.000000 
#    y 0.000000 1.777410 0.000000 
#    z 0.000000 0.000000 1.784520 
# 
# From -- ./inp_files/20136.got.cif
#   From: 2010.05.17/outbox.cif.g08.bks.cpg/sg71_11_cif.got.tgz:20136.got - 2010.06.03 16:22:01.
