data_PCOD9517615
_publ_section_title
;
Structure prediction by ZEFSAII (Michael W. Deem and Ramdas Pophale) SiO2 
 PCOD9517615
Probable space group: I M M M
;
_chemical_formula_sum "Si O2"
_cell_formula_units_Z 80
_cell_length_a 17.647814
_cell_length_b 27.279756
_cell_length_c 7.457926
_cell_angle_alpha 90.000000
_cell_angle_beta 90.000000
_cell_angle_gamma 90.000000
_cell_volume 3590.454845
_symmetry_space_group_name_H-M "I M M M"
_symmetry_group_IT_number 71
_symmetry_cell_setting 'orthorhombic'
loop_
_space_group_symop_operation_xyz
x,y,z
-x,-y,z
x,-y,-z
-x,y,-z
-x,-y,-z
x,y,-z
-x,y,z
x,-y,z
1/2+x,1/2+y,1/2+z
1/2-x,1/2-y,1/2+z
1/2+x,1/2-y,1/2-z
1/2-x,1/2+y,1/2-z
1/2-x,1/2-y,1/2-z
1/2+x,1/2+y,1/2-z
1/2-x,1/2+y,1/2+z
1/2+x,1/2-y,1/2+z
loop_
_atom_site_type_symbol
_atom_site_label
_atom_site_fract_x
_atom_site_fract_y
_atom_site_fract_z
Si Si1 0.703143 0.947278 0.715299
Si Si2 0.615462 0.341537 0.794582
Si Si3 0.289724 0.159713 0.207410
Si Si4 0.382959 0.447158 0.218043
Si Si5 0.583185 0.233715 0.780435
O O1 0.697097 0.946306 0.500000
O O2 0.674961 0.894914 0.782448
O O3 0.792998 0.947886 0.758401
O O4 0.671634 0.000000 0.777726
O O5 0.707346 0.340987 0.797031
O O6 0.590497 0.394001 0.715669
O O7 0.590827 0.289724 0.716307
O O8 0.588776 0.341569 0.000000
O O9 0.347930 0.199699 0.280739
O O10 0.274696 0.171149 0.000000
O O11 0.413567 0.500000 0.278952
O O12 0.390580 0.446536 0.000000
O O13 0.500000 0.214749 0.731537
O O14 0.587111 0.234310 0.000000
#
# Coordination Sequence:
#
# PCOD9517615 Si02
#       5
#    16  16  16  16  16
#     4   8  14  26  44  65  90 118 145 175 215 266
#     4   9  16  28  47  65  85 118 154 186 221 266
#     4  10  18  27  44  69  93 114 143 189 232 267
#     4   7  10  18  35  60  84 104 131 168 209 250
#     4   9  18  31  45  62  86 119 157 192 227 267
#
# _framework density 22.281299000000001
#
# number of rings (size 3 to 8) (size 9 to 14) (size 15 to 20)
#    0.000    3.400    0.000    3.600    0.000    0.400 
#    0.000    1.000    0.000    6.600    0.000    8.400 
#    0.000    0.000    0.000   10.000    0.000   12.600 
#
# Total GULP energy -222921.621494 kJ/mol
# GULP energy per Si atom -5573.040537 kJ/mol
# Density = 2.223059 g / cm^3
# Si number density = 22.281299 Si / 1000 Ang^3
#
#
#
# Elastic Constant Matrix: (Units=GPa)
#
#
# Indices 1 2 3 4 5 6 
#
# 1 76.7699 62.2233 1.5709 0.0000 0.0000 0.0000
# 2 62.2233 172.1828 3.3443 0.0000 -0.0002 0.0000
# 3 1.5709 3.3443 65.8972 0.0000 -0.0019 0.0000
# 4 0.0000 0.0000 0.0000 8.8400 -0.0002 0.0000
# 5 0.0000 -0.0002 -0.0019 -0.0002 76.5004 -0.0001
# 6 0.0000 0.0000 0.0000 0.0000 -0.0001 -33.2443
#
#
#
# Elastic Compliance Matrix: (Units=1/GPa)
#
#
# Indices 1 2 3 4 5 6 
#
# 1 0.018422 -0.006656 -0.000101 0.000000 0.000000 0.000000
# 2 -0.006656 0.008218 -0.000258 0.000000 0.000000 0.000000
# 3 -0.000101 -0.000258 0.015191 0.000000 0.000000 0.000000
# 4 0.000000 0.000000 0.000000 0.113122 0.000000 0.000000
# 5 0.000000 0.000000 0.000000 0.000000 0.013072 0.000000
# 6 0.000000 0.000000 0.000000 0.000000 0.000000 -0.030080
#
#
# Mechanical properties :
#
#
# Convention : Reuss Voigt Hill
#
# Bulk Modulus (GPa) = 35.97064 49.90297 42.93681
# Shear Modulus (GPa) = 31.00929 26.93333 28.97131
#
# Velocity S-wave (km/s) = 3.73462 3.48053 3.60981
# Velocity P-wave (km/s) = 5.89707 6.21269 6.05694
#
# Compressibility (1/GPa) = 0.02780045
#
# Stress axis : x y z
#
# Youngs Moduli (GPa) = 54.28169 121.68466 65.82979
#
# Poissons Ratio (x) = 0.80987 0.00667
# Poissons Ratio (y) = 0.36127 0.01701
# Poissons Ratio (z) = 0.00550 0.03144
#
# Static dielectric constant tensor:
#      x y z
#    x 1.767190 0.000000 0.000000 
#    y 0.000000 1.889960 0.000000 
#    z 0.000000 0.000000 1.869790 
# 
# From -- ./inp_files/8307.got.cif
#   From: 2010.05.17/outbox.cif.g08.bks.cpg/sg71_5_cif.got.tgz:8307.got - 2010.06.03 16:22:01.
