data_PCOD9517332
_publ_section_title
;
Structure prediction by ZEFSAII (Michael W. Deem and Ramdas Pophale) SiO2 
 PCOD9517332
Probable space group: I M M M
;
_chemical_formula_sum "Si O2"
_cell_formula_units_Z 80
_cell_length_a 25.206675
_cell_length_b 7.641834
_cell_length_c 20.571379
_cell_angle_alpha 90.000000
_cell_angle_beta 90.000000
_cell_angle_gamma 90.000000
_cell_volume 3962.566530
_symmetry_space_group_name_H-M "I M M M"
_symmetry_group_IT_number 71
_symmetry_cell_setting 'orthorhombic'
loop_
_space_group_symop_operation_xyz
x,y,z
-x,-y,z
x,-y,-z
-x,y,-z
-x,-y,-z
x,y,-z
-x,y,z
x,-y,z
1/2+x,1/2+y,1/2+z
1/2-x,1/2-y,1/2+z
1/2+x,1/2-y,1/2-z
1/2-x,1/2+y,1/2-z
1/2-x,1/2-y,1/2-z
1/2+x,1/2+y,1/2-z
1/2-x,1/2+y,1/2+z
1/2+x,1/2-y,1/2+z
loop_
_atom_site_type_symbol
_atom_site_label
_atom_site_fract_x
_atom_site_fract_y
_atom_site_fract_z
Si Si1 0.313543 0.711110 0.746966
Si Si2 0.356153 0.290689 0.609173
Si Si3 0.440678 0.792755 0.500000
Si Si4 0.774859 0.787816 0.000000
Si Si5 0.887227 0.214436 0.366747
Si Si6 0.657223 0.302570 0.000000
Si Si7 0.500000 0.712574 0.077664
O O1 0.316103 0.500000 0.747061
O O2 0.250000 0.750000 0.750000
O O3 0.342485 0.776362 0.680954
O O4 0.350254 0.773519 0.807066
O O5 0.355128 0.500000 0.613852
O O6 0.408134 0.252040 0.565748
O O7 0.308131 0.235693 0.562780
O O8 0.500000 0.716766 0.500000
O O9 0.444566 0.000000 0.500000
O O10 0.719556 0.695884 0.000000
O O11 0.768809 0.000000 0.000000
O O12 0.860506 0.278943 0.433108
O O13 0.948328 0.264372 0.380204
O O14 0.886249 0.000000 0.363524
O O15 0.634334 0.500000 0.000000
O O16 0.500000 0.500000 0.074108
O O17 0.500000 0.768797 0.000000
#
# Coordination Sequence:
#
# PCOD9517332 Si02
#       7
#    16  16   8   8  16   8   8
#     4  10  20  34  51  77 110 141 176 216 260 314
#     4   9  19  35  52  73 104 138 172 212 262 317
#     4  10  21  37  58  81 102 129 172 223 272 326
#     4   9  17  29  45  65  92 127 164 202 247 305
#     4   9  17  28  45  71 101 131 167 209 251 296
#     4  10  17  26  44  72  99 126 165 210 252 293
#     4   9  14  26  46  68 100 133 160 207 263 294
#
# _framework density 20.188935000000001
#
# number of rings (size 3 to 8) (size 9 to 14) (size 15 to 20)
#    0.000    2.600    1.000    2.100    0.000    3.200 
#    1.800    0.000    0.000    0.000    0.000    2.800 
#    0.000    0.000    0.000    0.000    0.000    0.000 
#
# Total GULP energy -222729.910717 kJ/mol
# GULP energy per Si atom -5568.247768 kJ/mol
# Density = 2.014298 g / cm^3
# Si number density = 20.188935 Si / 1000 Ang^3
#
#
#
# Elastic Constant Matrix: (Units=GPa)
#
#
# Indices 1 2 3 4 5 6 
#
# 1 196.3989 5.7459 116.1536 0.0000 0.0000 0.0000
# 2 5.7459 33.0285 15.9844 0.0000 0.0000 0.0000
# 3 116.1536 15.9844 222.7777 0.0000 0.0000 0.0000
# 4 0.0000 0.0000 0.0000 -29.2565 0.0000 0.0000
# 5 0.0000 0.0000 0.0000 0.0000 18.9073 0.0000
# 6 0.0000 0.0000 0.0000 0.0000 0.0000 32.4160
#
#
#
# Elastic Compliance Matrix: (Units=1/GPa)
#
#
# Indices 1 2 3 4 5 6 
#
# 1 0.007373 0.000599 -0.003887 0.000000 0.000000 0.000000
# 2 0.000599 0.031415 -0.002566 0.000000 0.000000 0.000000
# 3 -0.003887 -0.002566 0.006700 0.000000 0.000000 0.000000
# 4 0.000000 0.000000 0.000000 -0.034180 0.000000 0.000000
# 5 0.000000 0.000000 0.000000 0.000000 0.052890 0.000000
# 6 0.000000 0.000000 0.000000 0.000000 0.000000 0.030849
#
#
# Mechanical properties :
#
#
# Convention : Reuss Voigt Hill
#
# Bulk Modulus (GPa) = 29.60514 80.88587 55.24550
# Shear Modulus (GPa) = 42.36769 25.36810 33.86789
#
# Velocity S-wave (km/s) = 4.58597 3.54861 4.10023
# Velocity P-wave (km/s) = 6.53739 7.54597 7.05971
#
# Compressibility (1/GPa) = 0.03377792
#
# Stress axis : x y z
#
# Youngs Moduli (GPa) = 135.62778 31.83229 149.26182
#
# Poissons Ratio (x) = -0.01905 0.58021
# Poissons Ratio (y) = -0.08118 0.38302
# Poissons Ratio (z) = 0.52721 0.08168
#
# Static dielectric constant tensor:
#      x y z
#    x 1.726740 0.000000 0.000000 
#    y 0.000000 1.760380 0.000000 
#    z 0.000000 0.000000 1.747470 
# 
# From -- ./inp_files/10318.got.cif
#   From: 2010.05.17/outbox.cif.g08.bks.cpg/sg71_6_cif.got.tgz:10318.got - 2010.06.03 16:22:01.
