data_PCOD9517800
_publ_section_title
;
Structure prediction by ZEFSAII (Michael W. Deem and Ramdas Pophale) SiO2 
 PCOD9517800
Probable space group: I M M M
;
_chemical_formula_sum "Si O2"
_cell_formula_units_Z 104
_cell_length_a 25.352707
_cell_length_b 23.588162
_cell_length_c 7.728443
_cell_angle_alpha 90.000000
_cell_angle_beta 90.000000
_cell_angle_gamma 90.000000
_cell_volume 4621.792541
_symmetry_space_group_name_H-M "I M M M"
_symmetry_group_IT_number 71
_symmetry_cell_setting 'orthorhombic'
loop_
_space_group_symop_operation_xyz
x,y,z
-x,-y,z
x,-y,-z
-x,y,-z
-x,-y,-z
x,y,-z
-x,y,z
x,-y,z
1/2+x,1/2+y,1/2+z
1/2-x,1/2-y,1/2+z
1/2+x,1/2-y,1/2-z
1/2-x,1/2+y,1/2-z
1/2-x,1/2-y,1/2-z
1/2+x,1/2+y,1/2-z
1/2-x,1/2+y,1/2+z
1/2+x,1/2-y,1/2+z
loop_
_atom_site_type_symbol
_atom_site_label
_atom_site_fract_x
_atom_site_fract_y
_atom_site_fract_z
Si Si1 0.800963 0.283408 0.695611
Si Si2 0.939381 0.000000 0.792352
Si Si3 0.085315 0.766439 0.697739
Si Si4 0.557333 0.860262 0.294748
Si Si5 0.667072 0.901290 0.305768
Si Si6 0.221304 0.936575 0.711404
Si Si7 0.883283 0.117405 0.706070
O O1 0.795363 0.305273 0.500000
O O2 0.750000 0.250000 0.750000
O O3 0.851746 0.243535 0.697908
O O4 0.813033 0.336474 0.814961
O O5 0.911729 0.942481 0.730503
O O6 0.000000 0.000000 0.734643
O O7 0.937640 0.000000 0.000000
O O8 0.065504 0.767066 0.500000
O O9 0.063448 0.708036 0.775957
O O10 0.082545 0.829478 0.776594
O O11 0.557690 0.871442 0.500000
O O12 0.500000 0.876592 0.223632
O O13 0.609029 0.892912 0.223009
O O14 0.660293 0.925025 0.500000
O O15 0.718509 0.930393 0.224777
O O16 0.223655 0.931900 0.500000
O O17 0.176908 0.892101 0.771925
O O18 0.202707 0.000000 0.753108
O O19 0.879077 0.128201 0.500000
#
# Coordination Sequence:
#
# PCOD9517800 Si02
#       7
#    16   8  16  16  16  16  16
#     4  10  18  29  45  68  99 130 158 193 242 298
#     4  11  25  41  53  69  97 131 166 203 246 296
#     4   9  19  32  49  73  97 124 163 207 244 287
#     4   9  18  32  49  71 102 138 170 202 248 304
#     4   9  17  30  49  72  98 130 168 207 248 299
#     4   9  16  29  53  78  98 126 167 211 254 299
#     4  10  19  35  56  75  96 125 166 212 252 291
#
# _framework density 22.502092000000001
#
# number of rings (size 3 to 8) (size 9 to 14) (size 15 to 20)
#    0.000    2.538    0.769    1.615    0.000    5.231 
#    0.000    5.385    0.000    0.462    0.000    3.231 
#    0.000    0.000    0.000    7.692    0.000    8.000 
#
# Total GULP energy -289803.374224 kJ/mol
# GULP energy per Si atom -5573.141812 kJ/mol
# Density = 2.245088 g / cm^3
# Si number density = 22.502092 Si / 1000 Ang^3
#
#
#
# Elastic Constant Matrix: (Units=GPa)
#
#
# Indices 1 2 3 4 5 6 
#
# 1 132.1658 -6.6418 -1.3315 0.0000 0.0000 0.0000
# 2 -6.6418 42.0550 -2.3603 0.0000 0.0000 0.0000
# 3 -1.3315 -2.3603 47.8822 0.0000 0.0000 0.0000
# 4 0.0000 0.0000 0.0000 -116.1855 0.0000 0.0000
# 5 0.0000 0.0000 0.0000 0.0000 1.6916 0.0000
# 6 0.0000 0.0000 0.0000 0.0000 0.0000 16.9151
#
#
#
# Elastic Compliance Matrix: (Units=1/GPa)
#
#
# Indices 1 2 3 4 5 6 
#
# 1 0.007630 0.001220 0.000272 0.000000 0.000000 0.000000
# 2 0.001220 0.024039 0.001219 0.000000 0.000000 0.000000
# 3 0.000272 0.001219 0.020952 0.000000 0.000000 0.000000
# 4 0.000000 0.000000 0.000000 -0.008607 0.000000 0.000000
# 5 0.000000 0.000000 0.000000 0.000000 0.591161 0.000000
# 6 0.000000 0.000000 0.000000 0.000000 0.000000 0.059119
#
#
# Mechanical properties :
#
#
# Convention : Reuss Voigt Hill
#
# Bulk Modulus (GPa) = 17.22792 22.38177 19.80484
# Shear Modulus (GPa) = 7.05995 -4.02001 1.51997
#
# Velocity S-wave (km/s) = 1.77321 -1.33805 0.82277
# Velocity P-wave (km/s) = 3.44458 2.75335 3.11818
#
# Compressibility (1/GPa) = 0.05804531
#
# Stress axis : x y z
#
# Youngs Moduli (GPa) = 131.05600 41.59820 47.72757
#
# Poissons Ratio (x) = -0.05076 -0.01300
# Poissons Ratio (y) = -0.15993 -0.05818
# Poissons Ratio (z) = -0.03569 -0.05071
#
# Static dielectric constant tensor:
#      x y z
#    x 1.882160 0.000000 0.000000 
#    y 0.000000 1.857150 0.000000 
#    z 0.000000 0.000000 1.895290 
# 
# From -- ./inp_files/15319.got.cif
#   From: 2010.05.17/outbox.cif.g08.bks.cpg/sg71_8_cif.got.tgz:15319.got - 2010.06.03 16:22:01.
