data_PCOD9517043
_publ_section_title
;
Structure prediction by ZEFSAII (Michael W. Deem and Ramdas Pophale) SiO2 
 PCOD9517043
Probable space group: F D D D
;
_chemical_formula_sum "Si O2"
_cell_formula_units_Z 128
_cell_length_a 11.664506
_cell_length_b 22.231975
_cell_length_c 21.220048
_cell_angle_alpha 90.000000
_cell_angle_beta 90.000000
_cell_angle_gamma 90.000000
_cell_volume 5502.889070
_symmetry_space_group_name_H-M "F D D D"
_symmetry_group_IT_number 70
_space_group.IT_coordinate_system_code '2'
_symmetry_cell_setting 'orthorhombic'
loop_
_space_group_symop_operation_xyz
x,y,z
1/4-x,1/4-y,z
x,1/4-y,1/4-z
1/4-x,y,1/4-z
-x,-y,-z
3/4+x,3/4+y,-z
-x,3/4+y,3/4+z
3/4+x,-y,3/4+z
x,1/2+y,1/2+z
1/4-x,3/4-y,1/2+z
x,3/4-y,3/4-z
1/4-x,1/2+y,3/4-z
-x,1/2-y,1/2-z
3/4+x,1/4+y,1/2-z
-x,1/4+y,1/4+z
3/4+x,1/2-y,1/4+z
1/2+x,y,1/2+z
3/4-x,1/4-y,1/2+z
1/2+x,1/4-y,3/4-z
3/4-x,y,3/4-z
1/2-x,-y,1/2-z
1/4+x,3/4+y,1/2-z
1/2-x,3/4+y,1/4+z
1/4+x,-y,1/4+z
1/2+x,1/2+y,z
3/4-x,3/4-y,z
1/2+x,3/4-y,1/4-z
3/4-x,1/2+y,1/4-z
1/2-x,1/2-y,-z
1/4+x,1/4+y,-z
1/2-x,1/4+y,3/4+z
1/4+x,1/2-y,3/4+z
loop_
_atom_site_type_symbol
_atom_site_label
_atom_site_fract_x
_atom_site_fract_y
_atom_site_fract_z
Si Si1 0.718784 0.577717 0.534283
Si Si2 0.875000 0.727744 0.375000
Si Si3 0.127851 0.538767 0.345540
Si Si4 0.375000 0.875000 0.542643
Si Si5 0.807002 0.652799 0.187325
O O1 0.625000 0.625000 0.556605
O O2 0.690334 0.517988 0.573223
O O3 0.693468 0.566763 0.461389
O O4 0.839930 0.607515 0.546458
O O5 0.765386 0.697127 0.408408
O O6 0.088877 0.570316 0.410610
O O7 0.106820 0.467836 0.333044
O O8 0.277190 0.901069 0.496780
O O9 0.750395 0.625000 0.125000
#
# Coordination Sequence:
#
# PCOD9517043 Si02
#       5
#    32  16  32  16  32
#     4  12  23  44  74 113 149 193 254 318 384 452
#     4  12  23  46  76 114 156 198 261 312 394 462
#     4  12  27  46  78 117 151 206 254 329 385 467
#     4  12  31  52  74 115 160 210 260 318 396 467
#     4  12  27  53  78 111 156 208 264 318 388 468
#
# _framework density 23.26051
#
# number of rings (size 3 to 8) (size 9 to 14) (size 15 to 20)
#    0.000    0.000    6.250    3.000    3.500    2.000 
#    4.500    0.000    0.000    0.000    0.000    0.000 
#    0.000    0.000    0.000    0.000    0.000    0.000 
#
# Total GULP energy -178987.253316 kJ/mol
# GULP energy per Si atom -5593.351666 kJ/mol
# Density = 2.320757 g / cm^3
# Si number density = 23.260510 Si / 1000 Ang^3
#
#
#
# Elastic Constant Matrix: (Units=GPa)
#
#
# Indices 1 2 3 4 5 6 
#
# 1 112.6874 47.7541 69.6102 0.0000 0.0000 0.0000
# 2 47.7541 110.6950 66.7411 0.0000 0.0000 0.0000
# 3 69.6102 66.7411 209.7344 0.0000 0.0000 0.0000
# 4 0.0000 0.0000 0.0000 29.4416 0.0000 0.0000
# 5 0.0000 0.0000 0.0000 0.0000 47.1767 0.0000
# 6 0.0000 0.0000 0.0000 0.0000 0.0000 32.3887
#
#
#
# Elastic Compliance Matrix: (Units=1/GPa)
#
#
# Indices 1 2 3 4 5 6 
#
# 1 0.012157 -0.003479 -0.002928 0.000000 0.000000 0.000000
# 2 -0.003479 0.012174 -0.002719 0.000000 0.000000 0.000000
# 3 -0.002928 -0.002719 0.006605 0.000000 0.000000 0.000000
# 4 0.000000 0.000000 0.000000 0.033966 0.000000 0.000000
# 5 0.000000 0.000000 0.000000 0.000000 0.021197 0.000000
# 6 0.000000 0.000000 0.000000 0.000000 0.000000 0.030875
#
#
# Mechanical properties :
#
#
# Convention : Reuss Voigt Hill
#
# Bulk Modulus (GPa) = 78.84168 89.03642 83.93905
# Shear Modulus (GPa) = 35.85394 38.40215 37.12805
#
# Velocity S-wave (km/s) = 3.93034 4.06761 3.99956
# Velocity P-wave (km/s) = 7.38684 7.77313 7.58245
#
# Compressibility (1/GPa) = 0.01268365
#
# Stress axis : x y z
#
# Youngs Moduli (GPa) = 82.25627 82.13951 151.40145
#
# Poissons Ratio (x) = 0.28580 0.44326
# Poissons Ratio (y) = 0.28620 0.41171
# Poissons Ratio (z) = 0.24082 0.22336
#
# Static dielectric constant tensor:
#      x y z
#    x 1.841220 0.000000 0.000000 
#    y 0.000000 2.670360 0.000000 
#    z 0.000000 0.000000 1.900110 
# 
# From -- ./inp_files/50111.got.cif
#   From: 2010.05.17/outbox.cif.g08.bks.cpg/sg70_26_cif.got.tgz:50111.got - 2010.06.03 15:57:51.
