data_PCOD9517798
_publ_section_title
;
Structure prediction by ZEFSAII (Michael W. Deem and Ramdas Pophale) SiO2 
 PCOD9517798
Probable space group: I M M M
;
_chemical_formula_sum "Si O2"
_cell_formula_units_Z 104
_cell_length_a 7.683583
_cell_length_b 25.185120
_cell_length_c 25.333528
_cell_angle_alpha 90.000000
_cell_angle_beta 90.000000
_cell_angle_gamma 90.000000
_cell_volume 4902.340654
_symmetry_space_group_name_H-M "I M M M"
_symmetry_group_IT_number 71
_symmetry_cell_setting 'orthorhombic'
loop_
_space_group_symop_operation_xyz
x,y,z
-x,-y,z
x,-y,-z
-x,y,-z
-x,-y,-z
x,y,-z
-x,y,z
x,-y,z
1/2+x,1/2+y,1/2+z
1/2-x,1/2-y,1/2+z
1/2+x,1/2-y,1/2-z
1/2-x,1/2+y,1/2-z
1/2-x,1/2-y,1/2-z
1/2+x,1/2+y,1/2-z
1/2-x,1/2+y,1/2+z
1/2+x,1/2-y,1/2+z
loop_
_atom_site_type_symbol
_atom_site_label
_atom_site_fract_x
_atom_site_fract_y
_atom_site_fract_z
Si Si1 0.304482 0.601518 0.832967
Si Si2 0.788133 0.121393 0.122983
Si Si3 0.288156 0.559061 0.274002
Si Si4 0.807370 0.291658 0.207095
Si Si5 0.695007 0.738804 0.593224
Si Si6 0.294550 0.353077 0.942444
Si Si7 0.000000 0.562876 0.440710
O O1 0.500000 0.580998 0.842883
O O2 0.222535 0.566858 0.786114
O O3 0.313310 0.658522 0.803656
O O4 0.222910 0.616689 0.890107
O O5 0.743576 0.105059 0.183701
O O6 0.733498 0.179625 0.101338
O O7 0.674530 0.081577 0.088555
O O8 0.000000 0.117553 0.118265
O O9 0.500000 0.560095 0.270844
O O10 0.237734 0.500000 0.293243
O O11 0.750000 0.250000 0.250000
O O12 0.815356 0.259739 0.152848
O O13 0.000000 0.312348 0.219506
O O14 0.500000 0.733581 0.571043
O O15 0.779525 0.789114 0.564243
O O16 0.500000 0.364647 0.942609
O O17 0.221441 0.367824 0.000000
O O18 0.000000 0.500000 0.442521
O O19 0.000000 0.584896 0.500000
#
# Coordination Sequence:
#
# PCOD9517798 Si02
#       7
#    16  16  16  16  16  16   8
#     4   9  17  31  49  72 103 136 176 222 268 321
#     4  10  21  39  61  84 113 145 183 230 288 335
#     4   9  17  32  56  80 103 138 182 228 279 333
#     4  10  18  29  45  68 101 135 166 202 254 317
#     4   9  19  33  49  73 102 134 174 214 258 320
#     4   9  18  31  49  74 106 145 181 217 267 326
#     4  11  26  44  60  82 110 144 189 233 276 332
#
# _framework density 21.214355000000001
#
# number of rings (size 3 to 8) (size 9 to 14) (size 15 to 20)
#    0.000    2.538    0.000    1.846    1.077    5.231 
#    4.154    2.308    0.000    0.462    0.000    3.231 
#    0.000    0.000    0.000    7.692    0.000    8.000 
#
# Total GULP energy -289476.455784 kJ/mol
# GULP energy per Si atom -5566.854919 kJ/mol
# Density = 2.116607 g / cm^3
# Si number density = 21.214355 Si / 1000 Ang^3
#
#
#
# Elastic Constant Matrix: (Units=GPa)
#
#
# Indices 1 2 3 4 5 6 
#
# 1 53.7270 1.2943 14.0398 0.0000 0.0000 0.0000
# 2 1.2943 35.6927 3.1654 0.0000 0.0000 0.0000
# 3 14.0398 3.1654 135.3886 0.0000 0.0000 0.0000
# 4 0.0000 0.0000 0.0000 22.3310 0.0000 0.0000
# 5 0.0000 0.0000 0.0000 0.0000 -6.8769 0.0000
# 6 0.0000 0.0000 0.0000 0.0000 0.0000 13.8977
#
#
#
# Elastic Compliance Matrix: (Units=1/GPa)
#
#
# Indices 1 2 3 4 5 6 
#
# 1 0.019141 -0.000519 -0.001973 0.000000 0.000000 0.000000
# 2 -0.000519 0.028089 -0.000603 0.000000 0.000000 0.000000
# 3 -0.001973 -0.000603 0.007605 0.000000 0.000000 0.000000
# 4 0.000000 0.000000 0.000000 0.044781 0.000000 0.000000
# 5 0.000000 0.000000 0.000000 0.000000 -0.145414 0.000000
# 6 0.000000 0.000000 0.000000 0.000000 0.000000 0.071954
#
#
# Mechanical properties :
#
#
# Convention : Reuss Voigt Hill
#
# Bulk Modulus (GPa) = 20.55705 29.08972 24.82339
# Shear Modulus (GPa) = 102.96500 19.62429 61.29464
#
# Velocity S-wave (km/s) = 6.97430 3.04476 5.38105
# Velocity P-wave (km/s) = 8.63514 5.10909 7.09466
#
# Compressibility (1/GPa) = 0.04864510
#
# Stress axis : x y z
#
# Youngs Moduli (GPa) = 52.24490 35.60088 131.49562
#
# Poissons Ratio (x) = 0.01848 0.25941
# Poissons Ratio (y) = 0.02712 0.07928
# Poissons Ratio (z) = 0.10307 0.02146
#
# Static dielectric constant tensor:
#      x y z
#    x 1.849220 0.000000 0.000000 
#    y 0.000000 1.788440 0.000000 
#    z 0.000000 0.000000 1.854420 
# 
# From -- ./inp_files/58008.got.cif
#   From: 2010.05.17/outbox.cif.g08.bks.cpg/sg71_30_cif.got.tgz:58008.got - 2010.06.03 16:22:01.
