data_PCOD9517154
_publ_section_title
;
Structure prediction by ZEFSAII (Michael W. Deem and Ramdas Pophale) SiO2 
 PCOD9517154
Probable space group: F D D D
;
_chemical_formula_sum "Si O2"
_cell_formula_units_Z 64
_cell_length_a 15.337634
_cell_length_b 13.590613
_cell_length_c 12.576771
_cell_angle_alpha 90.000000
_cell_angle_beta 90.000000
_cell_angle_gamma 90.000000
_cell_volume 2621.600850
_symmetry_space_group_name_H-M "F D D D"
_symmetry_group_IT_number 70
_space_group.IT_coordinate_system_code '2'
_symmetry_cell_setting 'orthorhombic'
loop_
_space_group_symop_operation_xyz
x,y,z
1/4-x,1/4-y,z
x,1/4-y,1/4-z
1/4-x,y,1/4-z
-x,-y,-z
3/4+x,3/4+y,-z
-x,3/4+y,3/4+z
3/4+x,-y,3/4+z
x,1/2+y,1/2+z
1/4-x,3/4-y,1/2+z
x,3/4-y,3/4-z
1/4-x,1/2+y,3/4-z
-x,1/2-y,1/2-z
3/4+x,1/4+y,1/2-z
-x,1/4+y,1/4+z
3/4+x,1/2-y,1/4+z
1/2+x,y,1/2+z
3/4-x,1/4-y,1/2+z
1/2+x,1/4-y,3/4-z
3/4-x,y,3/4-z
1/2-x,-y,1/2-z
1/4+x,3/4+y,1/2-z
1/2-x,3/4+y,1/4+z
1/4+x,-y,1/4+z
1/2+x,1/2+y,z
3/4-x,3/4-y,z
1/2+x,3/4-y,1/4-z
3/4-x,1/2+y,1/4-z
1/2-x,1/2-y,-z
1/4+x,1/4+y,-z
1/2-x,1/4+y,3/4+z
1/4+x,1/2-y,3/4+z
loop_
_atom_site_type_symbol
_atom_site_label
_atom_site_fract_x
_atom_site_fract_y
_atom_site_fract_z
Si Si1 0.885983 0.097901 0.736953
Si Si2 0.307972 0.460513 0.581945
O O1 0.937589 0.125000 0.625000
O O2 0.834428 0.002098 0.697551
O O3 0.825428 0.194333 0.743097
O O4 0.959087 0.074566 0.822035
O O5 0.375000 0.375000 0.553621
#
# Coordination Sequence:
#
# PCOD9517154 Si02
#       2
#    32  32
#     4   8  20  31  60  84 109 146 194 238 282 325
#     4   9  17  36  53  88 110 150 191 238 275 348
#
# _framework density 24.412566000000002
#
# number of rings (size 3 to 8) (size 9 to 14) (size 15 to 20)
#    3.000    0.000    0.000    1.500    0.000    1.000 
#    0.000   10.000    0.000    0.000    0.000    0.000 
#    0.000    0.000    0.000    0.000    0.000    0.000 
#
# Total GULP energy -89144.619705 kJ/mol
# GULP energy per Si atom -5571.538732 kJ/mol
# Density = 2.435700 g / cm^3
# Si number density = 24.412566 Si / 1000 Ang^3
#
#
#
# Elastic Constant Matrix: (Units=GPa)
#
#
# Indices 1 2 3 4 5 6 
#
# 1 139.2000 27.5782 -3.3824 0.0000 0.0000 0.0000
# 2 27.5782 97.8965 0.4803 0.0000 0.0000 0.0000
# 3 -3.3824 0.4803 54.5162 0.0000 0.0000 0.0000
# 4 0.0000 0.0000 0.0000 19.3847 0.0000 0.0000
# 5 0.0000 0.0000 0.0000 0.0000 10.6634 0.0000
# 6 0.0000 0.0000 0.0000 0.0000 0.0000 38.4800
#
#
#
# Elastic Compliance Matrix: (Units=1/GPa)
#
#
# Indices 1 2 3 4 5 6 
#
# 1 0.007622 -0.002150 0.000492 0.000000 0.000000 0.000000
# 2 -0.002150 0.010822 -0.000229 0.000000 0.000000 0.000000
# 3 0.000492 -0.000229 0.018376 0.000000 0.000000 0.000000
# 4 0.000000 0.000000 0.000000 0.051587 0.000000 0.000000
# 5 0.000000 0.000000 0.000000 0.000000 0.093779 0.000000
# 6 0.000000 0.000000 0.000000 0.000000 0.000000 0.025988
#
#
# Mechanical properties :
#
#
# Convention : Reuss Voigt Hill
#
# Bulk Modulus (GPa) = 30.26070 37.88498 34.07284
# Shear Modulus (GPa) = 22.42551 31.50140 26.96346
#
# Velocity S-wave (km/s) = 3.03414 3.59608 3.32699
# Velocity P-wave (km/s) = 4.96962 5.72667 5.36152
#
# Compressibility (1/GPa) = 0.03304616
#
# Stress axis : x y z
#
# Youngs Moduli (GPa) = 131.20397 92.40846 54.41968
#
# Poissons Ratio (x) = 0.19863 -0.02676
# Poissons Ratio (y) = 0.28202 0.01245
# Poissons Ratio (z) = -0.06453 0.02113
#
# Static dielectric constant tensor:
#      x y z
#    x 1.866450 0.000000 0.000000 
#    y 0.000000 1.900520 0.000000 
#    z 0.000000 0.000000 2.130630 
# 
# From -- ./inp_files/5691.got.cif
#   From: 2010.05.17/outbox.cif.g08.bks.cpg/sg70_3_cif.got.tgz:5691.got - 2010.06.03 15:57:51.
