data_PCOD9517342
_publ_section_title
;
Structure prediction by ZEFSAII (Michael W. Deem and Ramdas Pophale) SiO2 
 PCOD9517342
Probable space group: I M M M
;
_chemical_formula_sum "Si O2"
_cell_formula_units_Z 96
_cell_length_a 23.245066
_cell_length_b 28.513734
_cell_length_c 7.444541
_cell_angle_alpha 90.000000
_cell_angle_beta 90.000000
_cell_angle_gamma 90.000000
_cell_volume 4934.268789
_symmetry_space_group_name_H-M "I M M M"
_symmetry_group_IT_number 71
_symmetry_cell_setting 'orthorhombic'
loop_
_space_group_symop_operation_xyz
x,y,z
-x,-y,z
x,-y,-z
-x,y,-z
-x,-y,-z
x,y,-z
-x,y,z
x,-y,z
1/2+x,1/2+y,1/2+z
1/2-x,1/2-y,1/2+z
1/2+x,1/2-y,1/2-z
1/2-x,1/2+y,1/2-z
1/2-x,1/2-y,1/2-z
1/2+x,1/2+y,1/2-z
1/2-x,1/2+y,1/2+z
1/2+x,1/2-y,1/2+z
loop_
_atom_site_type_symbol
_atom_site_label
_atom_site_fract_x
_atom_site_fract_y
_atom_site_fract_z
Si Si1 0.198993 0.853657 0.280569
Si Si2 0.500000 0.772873 0.221166
Si Si3 0.000000 0.380550 0.711228
Si Si4 0.759660 0.447559 0.780407
Si Si5 0.125877 0.397419 0.787163
Si Si6 0.316161 0.803178 0.717398
Si Si7 0.889283 0.216492 0.704698
O O1 0.197586 0.853392 0.500000
O O2 0.216232 0.906167 0.225067
O O3 0.253214 0.820994 0.229160
O O4 0.140040 0.829993 0.215861
O O5 0.500000 0.826975 0.285726
O O6 0.443822 0.744030 0.282386
O O7 0.500000 0.774465 0.000000
O O8 0.059082 0.406757 0.757216
O O9 0.000000 0.375220 0.500000
O O10 0.746057 0.500000 0.720424
O O11 0.824095 0.432058 0.721372
O O12 0.759319 0.447871 0.000000
O O13 0.140907 0.344914 0.722320
O O14 0.134449 0.395734 0.000000
O O15 0.317672 0.799360 0.500000
O O16 0.338250 0.754821 0.795117
O O17 0.905625 0.205088 0.500000
#
# Coordination Sequence:
#
# PCOD9517342 Si02
#       7
#    16   8   8  16  16  16  16
#     4   8  15  25  40  61  82 105 132 168 211 248
#     4   9  18  27  37  56  83 117 149 166 184 227
#     4  11  19  29  42  58  83 117 154 176 193 238
#     4   8  14  27  46  66  84 101 131 178 223 259
#     4   9  17  28  43  62  83 108 139 177 216 246
#     4   9  16  26  39  59  84 106 133 168 207 246
#     4  10  17  27  40  57  84 113 141 167 194 237
#
# _framework density 19.455770000000001
#
# number of rings (size 3 to 8) (size 9 to 14) (size 15 to 20)
#    0.000    3.000    1.667    2.750    0.000    0.000 
#    0.000    0.833    0.000    3.000    0.000    0.583 
#    0.000    4.667    0.000    0.000    0.000    1.667 
#
# Total GULP energy -267557.728865 kJ/mol
# GULP energy per Si atom -5574.119351 kJ/mol
# Density = 1.941149 g / cm^3
# Si number density = 19.455770 Si / 1000 Ang^3
#
#
#
# Elastic Constant Matrix: (Units=GPa)
#
#
# Indices 1 2 3 4 5 6 
#
# 1 36.1892 37.2015 0.2012 0.0000 0.0000 0.0000
# 2 37.2015 107.6033 -0.3219 0.0000 0.0000 0.0000
# 3 0.2012 -0.3219 58.2455 0.0000 0.0000 0.0000
# 4 0.0000 0.0000 0.0000 1.0764 0.0000 0.0000
# 5 0.0000 0.0000 0.0000 0.0000 -0.7523 0.0000
# 6 0.0000 0.0000 0.0000 0.0000 0.0000 88.9421
#
#
#
# Elastic Compliance Matrix: (Units=1/GPa)
#
#
# Indices 1 2 3 4 5 6 
#
# 1 0.042871 -0.014822 -0.000230 0.000000 0.000000 0.000000
# 2 -0.014822 0.014418 0.000131 0.000000 0.000000 0.000000
# 3 -0.000230 0.000131 0.017170 0.000000 0.000000 0.000000
# 4 0.000000 0.000000 0.000000 0.928990 0.000000 0.000000
# 5 0.000000 0.000000 0.000000 0.000000 -1.329207 0.000000
# 6 0.000000 0.000000 0.000000 0.000000 0.000000 0.011243
#
#
# Mechanical properties :
#
#
# Convention : Reuss Voigt Hill
#
# Bulk Modulus (GPa) = 22.41330 30.68884 26.55107
# Shear Modulus (GPa) = -18.53227 28.85039 5.15906
#
# Velocity S-wave (km/s) = -3.08966 3.85498 1.63017
# Velocity P-wave (km/s) = 1.08760 5.96845 4.14967
#
# Compressibility (1/GPa) = 0.04461637
#
# Stress axis : x y z
#
# Youngs Moduli (GPa) = 23.32594 69.35647 58.24032
#
# Poissons Ratio (x) = 1.02802 0.01340
# Poissons Ratio (y) = 0.34574 -0.00762
# Poissons Ratio (z) = 0.00537 -0.00908
#
# Static dielectric constant tensor:
#      x y z
#    x 2.256460 0.000000 0.000000 
#    y 0.000000 1.680190 0.000000 
#    z 0.000000 0.000000 1.748690 
# 
# From -- ./inp_files/13205.got.cif
#   From: 2010.05.17/outbox.cif.g08.bks.cpg/sg71_7_cif.got.tgz:13205.got - 2010.06.03 16:22:01.
