data_PCOD9517475
_publ_section_title
;
Structure prediction by ZEFSAII (Michael W. Deem and Ramdas Pophale) SiO2 
 PCOD9517475
Probable space group: I M M M
;
_chemical_formula_sum "Si O2"
_cell_formula_units_Z 104
_cell_length_a 7.689017
_cell_length_b 25.791346
_cell_length_c 24.705988
_cell_angle_alpha 90.000000
_cell_angle_beta 90.000000
_cell_angle_gamma 90.000000
_cell_volume 4899.446898
_symmetry_space_group_name_H-M "I M M M"
_symmetry_group_IT_number 71
_symmetry_cell_setting 'orthorhombic'
loop_
_space_group_symop_operation_xyz
x,y,z
-x,-y,z
x,-y,-z
-x,y,-z
-x,-y,-z
x,y,-z
-x,y,z
x,-y,z
1/2+x,1/2+y,1/2+z
1/2-x,1/2-y,1/2+z
1/2+x,1/2-y,1/2-z
1/2-x,1/2+y,1/2-z
1/2-x,1/2-y,1/2-z
1/2+x,1/2+y,1/2-z
1/2-x,1/2+y,1/2+z
1/2+x,1/2-y,1/2+z
loop_
_atom_site_type_symbol
_atom_site_label
_atom_site_fract_x
_atom_site_fract_y
_atom_site_fract_z
Si Si1 0.204941 0.346546 0.191088
Si Si2 0.708924 0.899920 0.000000
Si Si3 0.709816 0.277952 0.500000
Si Si4 0.211168 0.345027 0.313534
Si Si5 0.292636 0.940700 0.500000
Si Si6 0.787209 0.558093 0.384484
Si Si7 0.206979 0.744105 0.115967
Si Si8 0.705508 0.559274 0.881440
O O1 0.275871 0.342728 0.251834
O O2 0.280510 0.304062 0.149871
O O3 0.222170 0.402718 0.163925
O O4 0.000000 0.335051 0.196168
O O5 0.750325 0.839091 0.000000
O O6 0.771648 0.926249 0.944784
O O7 0.500000 0.905110 0.000000
O O8 0.500000 0.273290 0.500000
O O9 0.777576 0.253000 0.555591
O O10 0.269195 0.397677 0.342933
O O11 0.266939 0.295897 0.348899
O O12 0.000000 0.345394 0.313161
O O13 0.500000 0.942160 0.500000
O O14 0.238646 0.918519 0.558008
O O15 0.222135 0.000000 0.500000
O O16 0.731746 0.500000 0.370657
O O17 0.000000 0.558494 0.384811
O O18 0.000000 0.735568 0.109725
O O19 0.500000 0.556580 0.873885
O O20 0.775912 0.500000 0.879505
#
# Coordination Sequence:
#
# PCOD9517475 Si02
#       8
#    16   8   8  16   8  16  16  16
#     4  10  22  37  55  81 109 145 191 233 276 332
#     4  10  17  30  53  77 103 138 178 220 272 332
#     4  10  20  34  54  77 106 143 176 219 279 336
#     4  10  20  35  56  80 106 140 186 234 279 330
#     4   9  17  32  57  84 109 142 180 219 269 328
#     4   9  17  29  49  79 109 137 174 223 276 330
#     4  10  21  37  55  77 107 142 182 228 284 343
#     4  10  21  37  57  83 115 148 183 227 280 334
#
# _framework density 21.226886
#
# number of rings (size 3 to 8) (size 9 to 14) (size 15 to 20)
#    0.000    2.231    1.538    1.385    0.000    5.231 
#    0.000    3.077    0.000    2.308    0.000    0.000 
#    0.000    0.000    0.000    0.000    0.000    0.000 
#
# Total GULP energy -290380.106454 kJ/mol
# GULP energy per Si atom -5584.232816 kJ/mol
# Density = 2.117857 g / cm^3
# Si number density = 21.226886 Si / 1000 Ang^3
#
#
#
# Elastic Constant Matrix: (Units=GPa)
#
#
# Indices 1 2 3 4 5 6 
#
# 1 24.7952 -14.3214 -23.0696 0.0000 0.0000 0.0000
# 2 -14.3214 111.5317 56.0975 0.0000 0.0000 0.0000
# 3 -23.0696 56.0975 124.6646 0.0000 0.0000 0.0000
# 4 0.0000 0.0000 0.0000 8.5811 0.0000 0.0000
# 5 0.0000 0.0000 0.0000 0.0000 12.7458 0.0000
# 6 0.0000 0.0000 0.0000 0.0000 0.0000 17.4858
#
#
#
# Elastic Compliance Matrix: (Units=1/GPa)
#
#
# Indices 1 2 3 4 5 6 
#
# 1 0.049149 0.002244 0.008085 0.000000 0.000000 0.000000
# 2 0.002244 0.011692 -0.004846 0.000000 0.000000 0.000000
# 3 0.008085 -0.004846 0.011698 0.000000 0.000000 0.000000
# 4 0.000000 0.000000 0.000000 0.116535 0.000000 0.000000
# 5 0.000000 0.000000 0.000000 0.000000 0.078457 0.000000
# 6 0.000000 0.000000 0.000000 0.000000 0.000000 0.057189
#
#
# Mechanical properties :
#
#
# Convention : Reuss Voigt Hill
#
# Bulk Modulus (GPa) = 11.97506 33.15606 22.56556
# Shear Modulus (GPa) = 14.63752 23.91489 19.27620
#
# Velocity S-wave (km/s) = 2.62882 3.36018 3.01674
# Velocity P-wave (km/s) = 3.85590 5.54149 4.77368
#
# Compressibility (1/GPa) = 0.08350692
#
# Stress axis : x y z
#
# Youngs Moduli (GPa) = 20.34621 85.53213 85.48310
#
# Poissons Ratio (x) = -0.19197 -0.69115
# Poissons Ratio (y) = -0.04567 0.41422
# Poissons Ratio (z) = -0.16450 0.41446
#
# Static dielectric constant tensor:
#      x y z
#    x 1.777850 0.000000 0.000000 
#    y 0.000000 1.739370 0.000000 
#    z 0.000000 0.000000 1.764110 
# 
# From -- ./inp_files/51001.got.cif
#   From: 2010.05.17/outbox.cif.g08.bks.cpg/sg71_26_cif.got.tgz:51001.got - 2010.06.03 16:22:01.
