data_PCOD9517867
_publ_section_title
;
Structure prediction by ZEFSAII (Michael W. Deem and Ramdas Pophale) SiO2 
 PCOD9517867
Probable space group: I M M M
;
_chemical_formula_sum "Si O2"
_cell_formula_units_Z 104
_cell_length_a 31.506665
_cell_length_b 7.361364
_cell_length_c 21.204816
_cell_angle_alpha 90.000000
_cell_angle_beta 90.000000
_cell_angle_gamma 90.000000
_cell_volume 4918.076010
_symmetry_space_group_name_H-M "I M M M"
_symmetry_group_IT_number 71
_symmetry_cell_setting 'orthorhombic'
loop_
_space_group_symop_operation_xyz
x,y,z
-x,-y,z
x,-y,-z
-x,y,-z
-x,-y,-z
x,y,-z
-x,y,z
x,-y,z
1/2+x,1/2+y,1/2+z
1/2-x,1/2-y,1/2+z
1/2+x,1/2-y,1/2-z
1/2-x,1/2+y,1/2-z
1/2-x,1/2-y,1/2-z
1/2+x,1/2+y,1/2-z
1/2-x,1/2+y,1/2+z
1/2+x,1/2-y,1/2+z
loop_
_atom_site_type_symbol
_atom_site_label
_atom_site_fract_x
_atom_site_fract_y
_atom_site_fract_z
Si Si1 0.551315 0.205923 0.500000
Si Si2 0.283926 0.721847 0.928150
Si Si3 0.451156 0.222671 0.639661
Si Si4 0.630507 0.280292 0.859317
Si Si5 0.868656 0.711439 0.212141
Si Si6 0.546373 0.278898 0.926935
Si Si7 0.224159 0.282225 0.814992
O O1 0.500000 0.197019 0.500000
O O2 0.561402 0.284008 0.431364
O O3 0.568400 0.000000 0.500000
O O4 0.283459 0.500000 0.928510
O O5 0.330058 0.777675 0.902240
O O6 0.250124 0.782686 0.875819
O O7 0.276548 0.780416 0.000000
O O8 0.500000 0.279484 0.653626
O O9 0.413736 0.283099 0.686529
O O10 0.452643 0.000000 0.638790
O O11 0.630565 0.500000 0.860034
O O12 0.634497 0.223204 0.787332
O O13 0.586054 0.215527 0.887211
O O14 0.868978 0.500000 0.193550
O O15 0.823961 0.789624 0.187754
O O16 0.500000 0.221020 0.903770
O O17 0.546829 0.500000 0.926042
O O18 0.550665 0.225953 0.000000
O O19 0.221579 0.500000 0.820093
O O20 0.250000 0.250000 0.750000
#
# Coordination Sequence:
#
# PCOD9517867 Si02
#       7
#     8  16  16  16  16  16  16
#     4   7  10  20  40  62  85 117 153 185 221 269
#     4   9  17  30  49  71  91 115 154 198 234 271
#     4   8  14  26  43  64  92 123 153 187 229 274
#     4  10  18  29  48  69  89 121 158 188 225 275
#     4  10  20  31  45  69  97 123 151 185 227 277
#     4   8  14  25  42  66  93 117 148 195 239 267
#     4  10  19  33  51  70  95 126 156 190 234 282
#
# _framework density 21.146481000000001
#
# number of rings (size 3 to 8) (size 9 to 14) (size 15 to 20)
#    0.000    3.000    1.538    1.846    0.000    2.462 
#    1.385    0.000    0.000    3.231    0.000    1.615 
#    0.000    1.846    0.000    0.000    0.000    0.000 
#
# Total GULP energy -290027.167440 kJ/mol
# GULP energy per Si atom -5577.445528 kJ/mol
# Density = 2.109835 g / cm^3
# Si number density = 21.146481 Si / 1000 Ang^3
#
#
#
# Elastic Constant Matrix: (Units=GPa)
#
#
# Indices 1 2 3 4 5 6 
#
# 1 201.2162 8.2906 103.2938 0.0000 0.0000 0.0000
# 2 8.2906 76.9449 -3.8395 0.0000 0.0000 0.0000
# 3 103.2938 -3.8395 150.9758 0.0000 0.0000 0.0000
# 4 0.0000 0.0000 0.0000 5.6722 0.0000 0.0000
# 5 0.0000 0.0000 0.0000 0.0000 45.5570 0.0000
# 6 0.0000 0.0000 0.0000 0.0000 0.0000 -3.4726
#
#
#
# Elastic Compliance Matrix: (Units=1/GPa)
#
#
# Indices 1 2 3 4 5 6 
#
# 1 0.007752 -0.001101 -0.005332 0.000000 0.000000 0.000000
# 2 -0.001101 0.013169 0.001088 0.000000 0.000000 0.000000
# 3 -0.005332 0.001088 0.010299 0.000000 0.000000 0.000000
# 4 0.000000 0.000000 0.000000 0.176299 0.000000 0.000000
# 5 0.000000 0.000000 0.000000 0.000000 0.021951 0.000000
# 6 0.000000 0.000000 0.000000 0.000000 0.000000 -0.287970
#
#
# Mechanical properties :
#
#
# Convention : Reuss Voigt Hill
#
# Bulk Modulus (GPa) = 48.70658 71.62519 60.16589
# Shear Modulus (GPa) = -122.05263 30.97745 -45.53759
#
# Velocity S-wave (km/s) = -7.60546 3.83155 -4.64555
# Velocity P-wave (km/s) = 7.35126 7.31566 0.51096
#
# Compressibility (1/GPa) = 0.02053111
#
# Stress axis : x y z
#
# Youngs Moduli (GPa) = 128.99427 75.93421 97.09477
#
# Poissons Ratio (x) = 0.08363 0.51770
# Poissons Ratio (y) = 0.14207 -0.10568
# Poissons Ratio (z) = 0.68779 -0.08265
#
# Static dielectric constant tensor:
#      x y z
#    x 1.755320 0.000000 0.000000 
#    y 0.000000 1.873210 0.000000 
#    z 0.000000 0.000000 1.720280 
# 
# From -- ./inp_files/56736.got.cif
#   From: 2010.05.17/outbox.cif.g08.bks.cpg/sg71_29_cif.got.tgz:56736.got - 2010.06.03 16:22:01.
