data_PCOD9517441
_publ_section_title
;
Structure prediction by ZEFSAII (Michael W. Deem and Ramdas Pophale) SiO2 
 PCOD9517441
Probable space group: I M M M
;
_chemical_formula_sum "Si O2"
_cell_formula_units_Z 96
_cell_length_a 15.497205
_cell_length_b 14.033932
_cell_length_c 27.307044
_cell_angle_alpha 90.000000
_cell_angle_beta 90.000000
_cell_angle_gamma 90.000000
_cell_volume 5938.919464
_symmetry_space_group_name_H-M "I M M M"
_symmetry_group_IT_number 71
_symmetry_cell_setting 'orthorhombic'
loop_
_space_group_symop_operation_xyz
x,y,z
-x,-y,z
x,-y,-z
-x,y,-z
-x,-y,-z
x,y,-z
-x,y,z
x,-y,z
1/2+x,1/2+y,1/2+z
1/2-x,1/2-y,1/2+z
1/2+x,1/2-y,1/2-z
1/2-x,1/2+y,1/2-z
1/2-x,1/2-y,1/2-z
1/2+x,1/2+y,1/2-z
1/2-x,1/2+y,1/2+z
1/2+x,1/2-y,1/2+z
loop_
_atom_site_type_symbol
_atom_site_label
_atom_site_fract_x
_atom_site_fract_y
_atom_site_fract_z
Si Si1 0.500000 0.107589 0.627016
Si Si2 0.194687 0.228468 0.201429
Si Si3 0.327733 0.278660 0.058367
Si Si4 0.500000 0.890757 0.809161
Si Si5 0.500000 0.390737 0.059394
Si Si6 0.188446 0.611167 0.881861
Si Si7 0.000000 0.750332 0.217701
Si Si8 0.319680 0.110797 0.133219
O O1 0.410120 0.119008 0.599492
O O2 0.500000 0.181033 0.671064
O O3 0.500000 0.000000 0.647491
O O4 0.250000 0.250000 0.250000
O O5 0.194554 0.323462 0.166968
O O6 0.095069 0.201094 0.214182
O O7 0.246007 0.149789 0.169912
O O8 0.415772 0.331840 0.073800
O O9 0.252054 0.345803 0.078282
O O10 0.319975 0.178212 0.085842
O O11 0.326442 0.268708 0.000000
O O12 0.500000 0.814278 0.766092
O O13 0.413099 0.879273 0.840789
O O14 0.500000 0.000000 0.789911
O O15 0.500000 0.500000 0.077309
O O16 0.500000 0.395182 0.000000
O O17 0.206656 0.500000 0.871686
O O18 0.306356 0.000000 0.121884
#
# Coordination Sequence:
#
# PCOD9517441 Si02
#       8
#     8  16  16   8   8  16   8  16
#     4   8  15  28  46  72 102 127 153 192 249 310
#     4  10  19  32  50  75 104 139 168 210 253 307
#     4  10  20  34  52  73  99 135 177 216 259 307
#     4  10  18  29  50  76 100 128 165 211 256 303
#     4   9  17  30  50  74 101 134 169 204 251 316
#     4   9  18  31  50  75 102 128 162 207 257 313
#     4  10  17  29  50  73 102 133 170 200 246 308
#     4  10  21  35  51  75 104 136 177 220 261 301
#
# _framework density 16.164556999999999
#
# number of rings (size 3 to 8) (size 9 to 14) (size 15 to 20)
#    0.000    2.417    1.667    1.250    0.000    2.667 
#    0.000    0.833    0.000    4.500    0.000    0.000 
#    0.000    6.667    0.000    0.000    0.000    0.000 
#
# Total GULP energy -267316.705404 kJ/mol
# GULP energy per Si atom -5569.098029 kJ/mol
# Density = 1.612777 g / cm^3
# Si number density = 16.164557 Si / 1000 Ang^3
#
#
#
# Elastic Constant Matrix: (Units=GPa)
#
#
# Indices 1 2 3 4 5 6 
#
# 1 150.3584 56.8537 46.1460 0.0000 0.0000 0.0000
# 2 56.8537 109.6455 39.5493 0.0000 0.0000 0.0000
# 3 46.1460 39.5493 65.0217 0.0000 0.0000 0.0000
# 4 0.0000 0.0000 0.0000 11.4075 0.0000 0.0000
# 5 0.0000 0.0000 0.0000 0.0000 22.0804 0.0000
# 6 0.0000 0.0000 0.0000 0.0000 0.0000 22.7934
#
#
#
# Elastic Compliance Matrix: (Units=1/GPa)
#
#
# Indices 1 2 3 4 5 6 
#
# 1 0.009265 -0.003116 -0.004680 0.000000 0.000000 0.000000
# 2 -0.003116 0.012732 -0.005532 0.000000 0.000000 0.000000
# 3 -0.004680 -0.005532 0.022066 0.000000 0.000000 0.000000
# 4 0.000000 0.000000 0.000000 0.087662 0.000000 0.000000
# 5 0.000000 0.000000 0.000000 0.000000 0.045289 0.000000
# 6 0.000000 0.000000 0.000000 0.000000 0.000000 0.043872
#
#
# Mechanical properties :
#
#
# Convention : Reuss Voigt Hill
#
# Bulk Modulus (GPa) = 57.45321 67.79151 62.62236
# Shear Modulus (GPa) = 19.73583 23.42136 21.57860
#
# Velocity S-wave (km/s) = 3.49798 3.81061 3.65764
# Velocity P-wave (km/s) = 7.20655 7.83521 7.52744
#
# Compressibility (1/GPa) = 0.01740547
#
# Stress axis : x y z
#
# Youngs Moduli (GPa) = 107.92748 78.54423 45.31809
#
# Poissons Ratio (x) = 0.24476 0.21210
# Poissons Ratio (y) = 0.33632 0.25072
# Poissons Ratio (z) = 0.50514 0.43454
#
# Static dielectric constant tensor:
#      x y z
#    x 1.576850 0.000000 0.000000 
#    y 0.000000 1.527000 0.000000 
#    z 0.000000 0.000000 1.513770 
# 
# From -- ./inp_files/59871.got.cif
#   From: 2010.05.17/outbox.cif.g08.bks.cpg/sg71_30_cif.got.tgz:59871.got - 2010.06.03 16:22:01.
