data_PCOD9517188
_publ_section_title
;
Structure prediction by ZEFSAII (Michael W. Deem and Ramdas Pophale) SiO2 
 PCOD9517188
Probable space group: F D D D
;
_chemical_formula_sum "Si O2"
_cell_formula_units_Z 36
_cell_length_a 21.000000
_cell_length_b 21.000000
_cell_length_c 18.000000
_cell_angle_alpha 90.000000
_cell_angle_beta 90.000000
_cell_angle_gamma 90.000000
_cell_volume 7938.000000
_symmetry_space_group_name_H-M "F D D D"
_symmetry_group_IT_number 70
_space_group.IT_coordinate_system_code '2'
_symmetry_cell_setting 'orthorhombic'
loop_
_space_group_symop_operation_xyz
x,y,z
1/4-x,1/4-y,z
x,1/4-y,1/4-z
1/4-x,y,1/4-z
-x,-y,-z
3/4+x,3/4+y,-z
-x,3/4+y,3/4+z
3/4+x,-y,3/4+z
x,1/2+y,1/2+z
1/4-x,3/4-y,1/2+z
x,3/4-y,3/4-z
1/4-x,1/2+y,3/4-z
-x,1/2-y,1/2-z
3/4+x,1/4+y,1/2-z
-x,1/4+y,1/4+z
3/4+x,1/2-y,1/4+z
1/2+x,y,1/2+z
3/4-x,1/4-y,1/2+z
1/2+x,1/4-y,3/4-z
3/4-x,y,3/4-z
1/2-x,-y,1/2-z
1/4+x,3/4+y,1/2-z
1/2-x,3/4+y,1/4+z
1/4+x,-y,1/4+z
1/2+x,1/2+y,z
3/4-x,3/4-y,z
1/2+x,3/4-y,1/4-z
3/4-x,1/2+y,1/4-z
1/2-x,1/2-y,-z
1/4+x,1/4+y,-z
1/2-x,1/4+y,3/4+z
1/4+x,1/2-y,3/4+z
loop_
_atom_site_type_symbol
_atom_site_label
_atom_site_fract_x
_atom_site_fract_y
_atom_site_fract_z
Si Si1 0.023346 0.625000 0.125000
Si Si2 0.801585 0.542205 0.202047
Si Si3 0.453180 0.555617 0.223419
Si Si4 0.304907 0.747686 0.167931
Si Si5 0.403349 0.306961 0.234858
O O1 0.062836 0.666575 0.188083
O O2 0.978480 0.571906 0.162932
O O3 0.750000 0.500000 0.250000
O O4 0.809277 0.617170 0.228024
O O5 0.782607 0.543816 0.114229
O O6 0.872747 0.511351 0.197878
O O7 0.512384 0.539174 0.276280
O O8 0.397792 0.502203 0.245711
O O9 0.305904 0.778772 0.084614
O O10 0.375000 0.375000 0.206833
#
# Coordination Sequence:
#
# PCOD9517188 Si02
#       5
#    16  32  32  32  32
#     4  12  23  44  64 100 136 173 210 268 338 415
#     4  10  24  45  64  89 132 168 223 283 323 388
#     4  10  23  42  64  96 126 171 221 269 333 396
#     4  11  24  39  67  92 127 176 215 264 335 397
#     4  11  23  41  64  97 138 168 214 274 333 401
#
# _framework density 4.5351470000000003
#
# number of rings (size 3 to 8) (size 9 to 14) (size 15 to 20)
#    0.000    1.333    2.222    3.667    6.222    0.889 
#    0.000    4.444    0.000    0.000    0.000    0.000 
#    0.000    0.000    0.000    0.000    0.000    0.000 
#
# Total GULP energy -200511.103233 kJ/mol
# GULP energy per Si atom -5569.752868 kJ/mol
# Density = 0.452483 g / cm^3
# Si number density = 4.535147 Si / 1000 Ang^3
#
#
#
# Elastic Constant Matrix: (Units=GPa)
#
#
# Indices 1 2 3 4 5 6 
#
# 1 115.6700 50.1798 73.3336 0.0000 0.0000 0.0000
# 2 50.1798 142.9252 45.7750 0.0000 0.0000 0.0000
# 3 73.3336 45.7750 116.8680 0.0000 0.0000 0.0000
# 4 0.0000 0.0000 0.0000 51.2671 0.0000 0.0000
# 5 0.0000 0.0000 0.0000 0.0000 51.7939 0.0000
# 6 0.0000 0.0000 0.0000 0.0000 0.0000 39.1079
#
#
#
# Elastic Compliance Matrix: (Units=1/GPa)
#
#
# Indices 1 2 3 4 5 6 
#
# 1 0.015158 -0.002602 -0.008493 0.000000 0.000000 0.000000
# 2 -0.002602 0.008447 -0.001676 0.000000 0.000000 0.000000
# 3 -0.008493 -0.001676 0.014542 0.000000 0.000000 0.000000
# 4 0.000000 0.000000 0.000000 0.019506 0.000000 0.000000
# 5 0.000000 0.000000 0.000000 0.000000 0.019307 0.000000
# 6 0.000000 0.000000 0.000000 0.000000 0.000000 0.025570
#
#
# Mechanical properties :
#
#
# Convention : Reuss Voigt Hill
#
# Bulk Modulus (GPa) = 79.32351 79.33779 79.33065
# Shear Modulus (GPa) = 37.80057 42.17878 39.98968
#
# Velocity S-wave (km/s) = 4.56977 4.82717 4.70023
# Velocity P-wave (km/s) = 8.46556 8.65440 8.56050
#
# Compressibility (1/GPa) = 0.01260660
#
# Stress axis : x y z
#
# Youngs Moduli (GPa) = 65.97068 118.38649 68.76637
#
# Poissons Ratio (x) = 0.30804 0.58400
# Poissons Ratio (y) = 0.17166 0.11524
# Poissons Ratio (z) = 0.56026 0.19839
#
# Static dielectric constant tensor:
#      x y z
#    x 1.673850 0.000000 0.000000 
#    y 0.000000 1.630600 0.000000 
#    z 0.000000 0.000000 1.634060 
# 
# From -- ./inp_files/36215.got.cif
#   From: 2010.05.17/outbox.ucp.g08.bks.cvg/sg70_19_cif.got.tgz:36215.got - 2010.06.11 16:26:41.
