data_PCOD9517233
_publ_section_title
;
Structure prediction by ZEFSAII (Michael W. Deem and Ramdas Pophale) SiO2 
 PCOD9517233
Probable space group: I M M M
;
_chemical_formula_sum "Si O2"
_cell_formula_units_Z 112
_cell_length_a 19.996978
_cell_length_b 18.878320
_cell_length_c 18.783552
_cell_angle_alpha 90.000000
_cell_angle_beta 90.000000
_cell_angle_gamma 90.000000
_cell_volume 7090.966501
_symmetry_space_group_name_H-M "I M M M"
_symmetry_group_IT_number 71
_symmetry_cell_setting 'orthorhombic'
loop_
_space_group_symop_operation_xyz
x,y,z
-x,-y,z
x,-y,-z
-x,y,-z
-x,-y,-z
x,y,-z
-x,y,z
x,-y,z
1/2+x,1/2+y,1/2+z
1/2-x,1/2-y,1/2+z
1/2+x,1/2-y,1/2-z
1/2-x,1/2+y,1/2-z
1/2-x,1/2-y,1/2-z
1/2+x,1/2+y,1/2-z
1/2-x,1/2+y,1/2+z
1/2+x,1/2-y,1/2+z
loop_
_atom_site_type_symbol
_atom_site_label
_atom_site_fract_x
_atom_site_fract_y
_atom_site_fract_z
Si Si1 0.130026 0.579017 0.584593
Si Si2 0.675736 0.321987 0.920168
Si Si3 0.282738 0.420927 0.368191
Si Si4 0.423198 0.779595 0.852718
Si Si5 0.231340 0.082877 0.294826
Si Si6 0.689444 0.270740 0.577911
Si Si7 0.180510 0.710551 0.775204
O O1 0.141908 0.586350 0.500000
O O2 0.102194 0.500000 0.597252
O O3 0.202212 0.582575 0.622900
O O4 0.085765 0.643490 0.611449
O O5 0.608115 0.279743 0.904254
O O6 0.690842 0.378612 0.858086
O O7 0.735529 0.263065 0.917926
O O8 0.676359 0.352287 0.000000
O O9 0.303146 0.500000 0.391004
O O10 0.300100 0.411601 0.284578
O O11 0.308711 0.355075 0.412943
O O12 0.500000 0.766240 0.835841
O O13 0.374736 0.779156 0.784373
O O14 0.298637 0.129218 0.287398
O O15 0.241767 0.000000 0.309199
O O16 0.662651 0.251342 0.500000
O O17 0.656795 0.240681 0.649213
O O18 0.250000 0.750000 0.750000
#
# Coordination Sequence:
#
# PCOD9517233 Si02
#       7
#    16  16  16  16  16  16  16
#     4  10  19  30  43  63  99 145 181 203 234 291
#     4  10  19  32  47  68  99 132 170 216 256 296
#     4  10  16  24  43  70  99 129 161 201 245 290
#     4  12  22  32  51  75 101 139 180 211 248 305
#     4  10  18  30  52  74  94 129 172 215 261 301
#     4  10  17  28  49  71  94 126 162 202 253 300
#     4  11  17  34  53  71  99 131 166 211 252 298
#
# _framework density 15.794744
#
# number of rings (size 3 to 8) (size 9 to 14) (size 15 to 20)
#    0.000    1.571    7.143    0.857    0.000    2.571 
#    0.000    0.714    0.000    0.857    0.000    1.000 
#    0.000    0.000    0.000   13.571    0.000    0.000 
#
# Total GULP energy -311977.020820 kJ/mol
# GULP energy per Si atom -5571.018229 kJ/mol
# Density = 1.575879 g / cm^3
# Si number density = 15.794744 Si / 1000 Ang^3
#
#
#
# Elastic Constant Matrix: (Units=GPa)
#
#
# Indices 1 2 3 4 5 6 
#
# 1 46.7345 8.4399 24.0714 0.0000 0.0000 0.0000
# 2 8.4399 85.1285 33.4957 0.0000 0.0000 0.0000
# 3 24.0714 33.4957 113.8336 0.0000 0.0000 0.0000
# 4 0.0000 0.0000 0.0000 21.4890 0.0000 0.0000
# 5 0.0000 0.0000 0.0000 0.0000 8.5198 0.0000
# 6 0.0000 0.0000 0.0000 0.0000 0.0000 5.6023
#
#
#
# Elastic Compliance Matrix: (Units=1/GPa)
#
#
# Indices 1 2 3 4 5 6 
#
# 1 0.024027 -0.000433 -0.004953 0.000000 0.000000 0.000000
# 2 -0.000433 0.013293 -0.003820 0.000000 0.000000 0.000000
# 3 -0.004953 -0.003820 0.010956 0.000000 0.000000 0.000000
# 4 0.000000 0.000000 0.000000 0.046535 0.000000 0.000000
# 5 0.000000 0.000000 0.000000 0.000000 0.117374 0.000000
# 6 0.000000 0.000000 0.000000 0.000000 0.000000 0.178499
#
#
# Mechanical properties :
#
#
# Convention : Reuss Voigt Hill
#
# Bulk Modulus (GPa) = 33.48574 41.96784 37.72679
# Shear Modulus (GPa) = 11.93171 19.10151 15.51661
#
# Velocity S-wave (km/s) = 2.75148 3.48136 3.13771
# Velocity P-wave (km/s) = 5.59828 6.54127 6.08806
#
# Compressibility (1/GPa) = 0.02986346
#
# Stress axis : x y z
#
# Youngs Moduli (GPa) = 41.61986 75.22817 91.27259
#
# Poissons Ratio (x) = 0.03258 0.45210
# Poissons Ratio (y) = 0.01803 0.34865
# Poissons Ratio (z) = 0.20616 0.28736
#
# Static dielectric constant tensor:
#      x y z
#    x 1.497210 0.000000 0.000000 
#    y 0.000000 1.557710 0.000000 
#    z 0.000000 0.000000 1.568060 
# 
# From -- ./inp_files/47528.got.cif
#   From: 2010.05.17/outbox.cif.g08.bks.cpg/sg71_24_cif.got.tgz:47528.got - 2010.06.03 16:22:01.
