data_PCOD9517946
_publ_section_title
;
Structure prediction by ZEFSAII (Michael W. Deem and Ramdas Pophale) SiO2 
 PCOD9517946
Probable space group: I M M M
;
_chemical_formula_sum "Si O2"
_cell_formula_units_Z 88
_cell_length_a 8.949650
_cell_length_b 19.694874
_cell_length_c 39.066025
_cell_angle_alpha 90.000000
_cell_angle_beta 90.000000
_cell_angle_gamma 90.000000
_cell_volume 6885.864648
_symmetry_space_group_name_H-M "I M M M"
_symmetry_group_IT_number 71
_symmetry_cell_setting 'orthorhombic'
loop_
_space_group_symop_operation_xyz
x,y,z
-x,-y,z
x,-y,-z
-x,y,-z
-x,-y,-z
x,y,-z
-x,y,z
x,-y,z
1/2+x,1/2+y,1/2+z
1/2-x,1/2-y,1/2+z
1/2+x,1/2-y,1/2-z
1/2-x,1/2+y,1/2-z
1/2-x,1/2-y,1/2-z
1/2+x,1/2+y,1/2-z
1/2-x,1/2+y,1/2+z
1/2+x,1/2-y,1/2+z
loop_
_atom_site_type_symbol
_atom_site_label
_atom_site_fract_x
_atom_site_fract_y
_atom_site_fract_z
Si Si1 0.178366 0.276065 0.303761
Si Si2 0.328111 0.417660 0.500000
Si Si3 0.822126 0.135626 0.138949
Si Si4 0.679476 0.000000 0.256311
Si Si5 0.823988 0.000000 0.182575
Si Si6 0.179913 0.649879 0.767619
Si Si7 0.821159 0.580309 0.428472
O O1 0.253236 0.305068 0.337875
O O2 0.214052 0.325515 0.271315
O O3 0.241115 0.202999 0.292591
O O4 0.000000 0.274475 0.307361
O O5 0.328366 0.500000 0.500000
O O6 0.500000 0.394851 0.500000
O O7 0.244539 0.397992 0.465163
O O8 0.793059 0.066422 0.160181
O O9 0.747668 0.123919 0.102198
O O10 0.000000 0.143847 0.135479
O O11 0.728903 0.928133 0.272046
O O12 0.500000 0.000000 0.257372
O O13 0.729745 0.000000 0.216976
O O14 0.000000 0.000000 0.191476
O O15 0.000000 0.654626 0.771677
O O16 0.781801 0.500000 0.423283
O O17 0.000000 0.584960 0.428618
#
# Coordination Sequence:
#
# PCOD9517946 Si02
#       7
#    16   8  16   8   8  16  16
#     4  10  19  30  43  58  78 103 130 162 203 246
#     4   9  17  29  43  57  77 103 131 164 201 238
#     4  11  20  30  42  58  80 104 133 168 207 246
#     4  10  18  30  46  60  75  99 132 167 205 246
#     4  10  20  28  38  57  79 100 128 168 208 243
#     4   9  18  30  43  58  77 101 129 163 203 245
#     4  10  19  29  42  59  79 103 133 167 202 240
#
# _framework density 12.779804
#
# number of rings (size 3 to 8) (size 9 to 14) (size 15 to 20)
#    0.000    2.091    2.727    1.909    0.000    4.000 
#    0.000    0.000    0.000    0.000    0.000    0.000 
#    0.000    0.000    0.000    0.000    0.000    0.909 
#
# Total GULP energy -245361.688044 kJ/mol
# GULP energy per Si atom -5576.402001 kJ/mol
# Density = 1.275072 g / cm^3
# Si number density = 12.779804 Si / 1000 Ang^3
#
#
#
# Elastic Constant Matrix: (Units=GPa)
#
#
# Indices 1 2 3 4 5 6 
#
# 1 41.7942 33.1363 48.9052 0.0000 0.0000 0.0000
# 2 33.1363 84.1686 46.2508 0.0000 0.0000 0.0000
# 3 48.9052 46.2508 104.1359 0.0000 0.0000 0.0000
# 4 0.0000 0.0000 0.0000 18.5523 0.0000 0.0000
# 5 0.0000 0.0000 0.0000 0.0000 23.9169 0.0000
# 6 0.0000 0.0000 0.0000 0.0000 0.0000 15.6613
#
#
#
# Elastic Compliance Matrix: (Units=1/GPa)
#
#
# Indices 1 2 3 4 5 6 
#
# 1 0.059599 -0.010693 -0.023240 0.000000 0.000000 0.000000
# 2 -0.010693 0.017635 -0.002811 0.000000 0.000000 0.000000
# 3 -0.023240 -0.002811 0.021765 0.000000 0.000000 0.000000
# 4 0.000000 0.000000 0.000000 0.053902 0.000000 0.000000
# 5 0.000000 0.000000 0.000000 0.000000 0.041811 0.000000
# 6 0.000000 0.000000 0.000000 0.000000 0.000000 0.063852
#
#
# Mechanical properties :
#
#
# Convention : Reuss Voigt Hill
#
# Bulk Modulus (GPa) = 39.19760 54.07592 46.63676
# Shear Modulus (GPa) = 14.68186 18.41319 16.54752
#
# Velocity S-wave (km/s) = 3.39312 3.79991 3.60226
# Velocity P-wave (km/s) = 6.78890 7.85225 7.33986
#
# Compressibility (1/GPa) = 0.02551177
#
# Stress axis : x y z
#
# Youngs Moduli (GPa) = 16.77877 56.70503 45.94431
#
# Poissons Ratio (x) = 0.60635 1.06776
# Poissons Ratio (y) = 0.17942 0.12914
# Poissons Ratio (z) = 0.38994 0.15938
#
# Static dielectric constant tensor:
#      x y z
#    x 1.421640 0.000000 0.000000 
#    y 0.000000 1.411450 0.000000 
#    z 0.000000 0.000000 1.395490 
# 
# From -- ./inp_files/68189.got.cif
#   From: 2010.05.17/outbox.cif.g08.bks.cpg/sg71_35_cif.got.tgz:68189.got - 2010.06.03 16:22:01.
