data_PCOD9517164
_publ_section_title
;
Structure prediction by ZEFSAII (Michael W. Deem and Ramdas Pophale) SiO2 
 PCOD9517164
Probable space group: F D D D
;
_chemical_formula_sum "Si O2"
_cell_formula_units_Z 54
_cell_length_a 30.000000
_cell_length_b 12.000000
_cell_length_c 30.000000
_cell_angle_alpha 90.000000
_cell_angle_beta 90.000000
_cell_angle_gamma 90.000000
_cell_volume 10800.000000
_symmetry_space_group_name_H-M "F D D D"
_symmetry_group_IT_number 70
_space_group.IT_coordinate_system_code '2'
_symmetry_cell_setting 'orthorhombic'
loop_
_space_group_symop_operation_xyz
x,y,z
1/4-x,1/4-y,z
x,1/4-y,1/4-z
1/4-x,y,1/4-z
-x,-y,-z
3/4+x,3/4+y,-z
-x,3/4+y,3/4+z
3/4+x,-y,3/4+z
x,1/2+y,1/2+z
1/4-x,3/4-y,1/2+z
x,3/4-y,3/4-z
1/4-x,1/2+y,3/4-z
-x,1/2-y,1/2-z
3/4+x,1/4+y,1/2-z
-x,1/4+y,1/4+z
3/4+x,1/2-y,1/4+z
1/2+x,y,1/2+z
3/4-x,1/4-y,1/2+z
1/2+x,1/4-y,3/4-z
3/4-x,y,3/4-z
1/2-x,-y,1/2-z
1/4+x,3/4+y,1/2-z
1/2-x,3/4+y,1/4+z
1/4+x,-y,1/4+z
1/2+x,1/2+y,z
3/4-x,3/4-y,z
1/2+x,3/4-y,1/4-z
3/4-x,1/2+y,1/4-z
1/2-x,1/2-y,-z
1/4+x,1/4+y,-z
1/2-x,1/4+y,3/4+z
1/4+x,1/2-y,3/4+z
loop_
_atom_site_type_symbol
_atom_site_label
_atom_site_fract_x
_atom_site_fract_y
_atom_site_fract_z
Si Si1 0.250897 0.181060 0.329022
Si Si2 0.310019 0.625000 0.125000
Si Si3 0.138411 0.999052 0.429293
Si Si4 0.008921 0.991144 0.850416
Si Si5 0.830598 0.842510 0.024119
Si Si6 0.076145 0.269657 0.053392
Si Si7 0.625000 0.125000 0.625000
Si Si8 0.408566 0.647197 0.976970
O O1 0.223547 0.289129 0.348638
O O2 0.215301 0.116574 0.298353
O O3 0.299165 0.188160 0.303323
O O4 0.255587 0.094986 0.369372
O O5 0.346234 0.678542 0.090100
O O6 0.187878 0.983506 0.407985
O O7 0.146712 0.975505 0.481490
O O8 0.125000 0.125000 0.421479
O O9 0.997607 0.875000 0.875000
O O10 0.977613 0.017914 0.807688
O O11 0.875000 0.875000 0.053334
O O12 0.828795 0.721378 0.001007
O O13 0.834963 0.938399 0.987566
O O14 0.094246 0.204081 0.095882
O O15 0.111001 0.372016 0.047777
#
# Coordination Sequence:
#
# PCOD9517164 Si02
#       8
#    32  16  32  32  32  32   8  32
#     4  12  25  42  67  98 137 180 234 272 345 411
#     4  12  26  47  70 101 144 185 237 290 338 418
#     4  12  26  46  69 101 134 182 234 289 354 418
#     4  12  23  39  71 105 135 170 230 298 352 408
#     4  10  20  37  66  99 130 170 211 287 353 403
#     4  11  21  38  64 102 135 171 214 284 355 399
#     4  12  16  34  60  96 146 152 210 268 344 396
#     4  11  23  43  65  96 138 182 223 280 348 424
#
# _framework density 5.0
#
# number of rings (size 3 to 8) (size 9 to 14) (size 15 to 20)
#    0.000    0.593    5.185    5.778    2.074    0.000 
#    2.667    1.481    0.000    0.000    0.000    0.000 
#    0.000    0.000    0.000    0.000    0.000    0.000 
#
# Total GULP energy -300823.962641 kJ/mol
# GULP energy per Si atom -5570.814123 kJ/mol
# Density = 0.498862 g / cm^3
# Si number density = 5.000000 Si / 1000 Ang^3
#
#
#
# Elastic Constant Matrix: (Units=GPa)
#
#
# Indices 1 2 3 4 5 6 
#
# 1 139.9757 40.5787 19.4810 0.0000 0.0000 0.0000
# 2 40.5787 68.4622 17.1938 0.0000 0.0000 0.0000
# 3 19.4810 17.1938 43.0685 0.0000 0.0000 0.0000
# 4 0.0000 0.0000 0.0000 24.7638 0.0000 0.0000
# 5 0.0000 0.0000 0.0000 0.0000 32.9461 0.0000
# 6 0.0000 0.0000 0.0000 0.0000 0.0000 24.7354
#
#
#
# Elastic Compliance Matrix: (Units=1/GPa)
#
#
# Indices 1 2 3 4 5 6 
#
# 1 0.008795 -0.004684 -0.002109 0.000000 0.000000 0.000000
# 2 -0.004684 0.018728 -0.005358 0.000000 0.000000 0.000000
# 3 -0.002109 -0.005358 0.026312 0.000000 0.000000 0.000000
# 4 0.000000 0.000000 0.000000 0.040381 0.000000 0.000000
# 5 0.000000 0.000000 0.000000 0.000000 0.030353 0.000000
# 6 0.000000 0.000000 0.000000 0.000000 0.000000 0.040428
#
#
# Mechanical properties :
#
#
# Convention : Reuss Voigt Hill
#
# Bulk Modulus (GPa) = 33.85861 45.11258 39.48560
# Shear Modulus (GPa) = 25.10759 28.10592 26.60676
#
# Velocity S-wave (km/s) = 3.54698 3.75279 3.65134
# Velocity P-wave (km/s) = 5.80868 6.43298 6.12878
#
# Compressibility (1/GPa) = 0.02953459
#
# Stress axis : x y z
#
# Youngs Moduli (GPa) = 113.69692 53.39511 38.00595
#
# Poissons Ratio (x) = 0.25008 0.08014
# Poissons Ratio (y) = 0.53251 0.20364
# Poissons Ratio (z) = 0.23974 0.28610
#
# Static dielectric constant tensor:
#      x y z
#    x 1.805230 0.000000 0.000000 
#    y 0.000000 1.706120 0.000000 
#    z 0.000000 0.000000 2.007570 
# 
# From -- ./inp_files/69024.got.cif
#   From: 2010.05.17/outbox.ucp.g08.bks.cvg/sg70_35_cif.got.tgz:69024.got - 2010.06.11 16:26:41.
