data_PCOD9517773
_publ_section_title
;
Structure prediction by ZEFSAII (Michael W. Deem and Ramdas Pophale) SiO2 
 PCOD9517773
Probable space group: I M M M
;
_chemical_formula_sum "Si O2"
_cell_formula_units_Z 80
_cell_length_a 9.041892
_cell_length_b 19.386923
_cell_length_c 34.115399
_cell_angle_alpha 90.000000
_cell_angle_beta 90.000000
_cell_angle_gamma 90.000000
_cell_volume 5980.240581
_symmetry_space_group_name_H-M "I M M M"
_symmetry_group_IT_number 71
_symmetry_cell_setting 'orthorhombic'
loop_
_space_group_symop_operation_xyz
x,y,z
-x,-y,z
x,-y,-z
-x,y,-z
-x,-y,-z
x,y,-z
-x,y,z
x,-y,z
1/2+x,1/2+y,1/2+z
1/2-x,1/2-y,1/2+z
1/2+x,1/2-y,1/2-z
1/2-x,1/2+y,1/2-z
1/2-x,1/2-y,1/2-z
1/2+x,1/2+y,1/2-z
1/2-x,1/2+y,1/2+z
1/2+x,1/2-y,1/2+z
loop_
_atom_site_type_symbol
_atom_site_label
_atom_site_fract_x
_atom_site_fract_y
_atom_site_fract_z
Si Si1 0.175844 0.637681 0.619280
Si Si2 0.322028 0.580131 0.455360
Si Si3 0.322569 0.768646 0.189842
Si Si4 0.676098 0.857099 0.732353
Si Si5 0.174166 0.500000 0.669924
Si Si6 0.175868 0.000000 0.253721
O O1 0.255304 0.628332 0.577971
O O2 0.222489 0.699447 0.648144
O O3 0.200748 0.567507 0.643928
O O4 0.000000 0.643575 0.613022
O O5 0.278375 0.597779 0.500000
O O6 0.500000 0.581966 0.453407
O O7 0.276817 0.500000 0.448347
O O8 0.500000 0.757225 0.189698
O O9 0.294153 0.825032 0.224223
O O10 0.239087 0.699613 0.202423
O O11 0.500000 0.864541 0.728536
O O12 0.755316 0.930320 0.728563
O O13 0.273662 0.500000 0.708294
O O14 0.000000 0.500000 0.681972
O O15 0.000000 0.000000 0.257115
#
# Coordination Sequence:
#
# PCOD9517773 Si02
#       6
#    16  16  16  16   8   8
#     4  10  18  29  45  61  82 109 141 181 218 253
#     4   9  18  30  41  57  83 111 141 179 217 252
#     4   9  18  31  44  61  84 108 138 177 216 254
#     4  10  19  32  46  60  83 111 139 175 215 254
#     4  10  18  30  41  59  84 109 142 181 219 250
#     4  12  22  30  44  63  83 110 145 180 214 254
#
# _framework density 13.377388
#
# number of rings (size 3 to 8) (size 9 to 14) (size 15 to 20)
#    0.000    2.200    3.000    2.100    0.000    2.800 
#    0.000    1.000    0.000    0.000    0.000    0.000 
#    0.000    0.000    0.000    0.900    0.000   16.800 
#
# Total GULP energy -223057.571952 kJ/mol
# GULP energy per Si atom -5576.439299 kJ/mol
# Density = 1.334694 g / cm^3
# Si number density = 13.377388 Si / 1000 Ang^3
#
#
#
# Elastic Constant Matrix: (Units=GPa)
#
#
# Indices 1 2 3 4 5 6 
#
# 1 45.7880 50.4341 38.7629 0.0000 0.0000 0.0000
# 2 50.4341 96.6956 49.8353 0.0000 0.0000 0.0000
# 3 38.7629 49.8353 102.3491 0.0000 0.0000 0.0000
# 4 0.0000 0.0000 0.0000 20.1338 0.0000 0.0000
# 5 0.0000 0.0000 0.0000 0.0000 23.4622 0.0000
# 6 0.0000 0.0000 0.0000 0.0000 0.0000 21.0547
#
#
#
# Elastic Compliance Matrix: (Units=1/GPa)
#
#
# Indices 1 2 3 4 5 6 
#
# 1 0.057618 -0.025106 -0.009597 0.000000 0.000000 0.000000
# 2 -0.025106 0.024746 -0.002541 0.000000 0.000000 0.000000
# 3 -0.009597 -0.002541 0.014642 0.000000 0.000000 0.000000
# 4 0.000000 0.000000 0.000000 0.049668 0.000000 0.000000
# 5 0.000000 0.000000 0.000000 0.000000 0.042622 0.000000
# 6 0.000000 0.000000 0.000000 0.000000 0.000000 0.047495
#
#
# Mechanical properties :
#
#
# Convention : Reuss Voigt Hill
#
# Bulk Modulus (GPa) = 44.40825 58.09971 51.25398
# Shear Modulus (GPa) = 15.68456 19.98349 17.83403
#
# Velocity S-wave (km/s) = 3.42785 3.86920 3.65519
# Velocity P-wave (km/s) = 6.99538 7.96784 7.49740
#
# Compressibility (1/GPa) = 0.02251834
#
# Stress axis : x y z
#
# Youngs Moduli (GPa) = 17.35570 40.41101 68.29465
#
# Poissons Ratio (x) = 1.01455 0.65545
# Poissons Ratio (y) = 0.43573 0.17351
# Poissons Ratio (z) = 0.16657 0.10267
#
# Static dielectric constant tensor:
#      x y z
#    x 1.445290 0.000000 0.000000 
#    y 0.000000 1.427560 0.000000 
#    z 0.000000 0.000000 1.429890 
# 
# From -- ./inp_files/67951.got.cif
#   From: 2010.05.17/outbox.cif.g08.bks.cpg/sg71_34_cif.got.tgz:67951.got - 2010.06.03 16:22:01.
