data_PCOD9517474
_publ_section_title
;
Structure prediction by ZEFSAII (Michael W. Deem and Ramdas Pophale) SiO2 
 PCOD9517474
Probable space group: I M M M
;
_chemical_formula_sum "Si O2"
_cell_formula_units_Z 120
_cell_length_a 21.047770
_cell_length_b 15.868526
_cell_length_c 21.489959
_cell_angle_alpha 90.000000
_cell_angle_beta 90.000000
_cell_angle_gamma 90.000000
_cell_volume 7177.583673
_symmetry_space_group_name_H-M "I M M M"
_symmetry_group_IT_number 71
_symmetry_cell_setting 'orthorhombic'
loop_
_space_group_symop_operation_xyz
x,y,z
-x,-y,z
x,-y,-z
-x,y,-z
-x,-y,-z
x,y,-z
-x,y,z
x,-y,z
1/2+x,1/2+y,1/2+z
1/2-x,1/2-y,1/2+z
1/2+x,1/2-y,1/2-z
1/2-x,1/2+y,1/2-z
1/2-x,1/2-y,1/2-z
1/2+x,1/2+y,1/2-z
1/2-x,1/2+y,1/2+z
1/2+x,1/2-y,1/2+z
loop_
_atom_site_type_symbol
_atom_site_label
_atom_site_fract_x
_atom_site_fract_y
_atom_site_fract_z
Si Si1 0.923708 0.092499 0.121430
Si Si2 0.927546 0.897761 0.500000
Si Si3 0.075609 0.141192 0.261216
Si Si4 0.848269 0.905200 0.620872
Si Si5 0.846589 0.309882 0.259035
Si Si6 0.075846 0.402478 0.836156
Si Si7 0.864918 0.260804 0.071724
Si Si8 0.252721 0.742639 0.848238
O O1 0.904401 0.106291 0.193702
O O2 0.901200 0.173202 0.083611
O O3 0.000000 0.092090 0.120400
O O4 0.901403 0.000000 0.100224
O O5 0.889086 0.874418 0.561876
O O6 0.000000 0.866379 0.500000
O O7 0.930674 0.000000 0.500000
O O8 0.106849 0.093641 0.318722
O O9 0.101440 0.236217 0.266250
O O10 0.000000 0.137345 0.264770
O O11 0.792560 0.840843 0.636352
O O12 0.825086 0.000000 0.608021
O O13 0.884728 0.386451 0.227786
O O14 0.796860 0.278108 0.206824
O O15 0.803216 0.310952 0.321358
O O16 0.084119 0.500000 0.855712
O O17 0.103997 0.334473 0.885368
O O18 0.000000 0.387160 0.828231
O O19 0.793046 0.240808 0.093869
O O20 0.867679 0.285632 0.000000
#
# Coordination Sequence:
#
# PCOD9517474 Si02
#       8
#    16   8  16  16  16  16  16  16
#     4  10  20  34  54  80 106 132 170 221 275 328
#     4   9  18  32  46  66 104 142 170 211 262 310
#     4  10  17  30  53  77 101 130 166 213 268 321
#     4  10  20  31  47  73 103 138 177 214 255 313
#     4   9  17  33  52  73 101 131 166 216 270 309
#     4  10  20  35  56  81 109 141 179 223 272 325
#     4  11  23  38  55  74 107 150 184 223 268 310
#     4   9  19  33  51  70  97 136 178 213 257 312
#
# _framework density 16.718717999999999
#
# number of rings (size 3 to 8) (size 9 to 14) (size 15 to 20)
#    0.000    2.200    2.667    1.600    0.933    5.067 
#    0.000    2.000    0.000    0.000    0.000    0.000 
#    0.000    0.000    0.000    1.467    0.000    0.000 
#
# Total GULP energy -334104.096494 kJ/mol
# GULP energy per Si atom -5568.401608 kJ/mol
# Density = 1.668067 g / cm^3
# Si number density = 16.718718 Si / 1000 Ang^3
#
#
#
# Elastic Constant Matrix: (Units=GPa)
#
#
# Indices 1 2 3 4 5 6 
#
# 1 55.3689 23.5324 26.2228 0.0000 0.0000 0.0000
# 2 23.5324 75.2505 22.6841 0.0000 0.0000 0.0000
# 3 26.2228 22.6841 61.9886 0.0000 0.0000 0.0000
# 4 0.0000 0.0000 0.0000 10.8136 0.0000 0.0000
# 5 0.0000 0.0000 0.0000 0.0000 -114.4950 0.0000
# 6 0.0000 0.0000 0.0000 0.0000 0.0000 -1.5486
#
#
#
# Elastic Compliance Matrix: (Units=1/GPa)
#
#
# Indices 1 2 3 4 5 6 
#
# 1 0.024169 -0.005031 -0.008383 0.000000 0.000000 0.000000
# 2 -0.005031 0.015984 -0.003721 0.000000 0.000000 0.000000
# 3 -0.008383 -0.003721 0.021040 0.000000 0.000000 0.000000
# 4 0.000000 0.000000 0.000000 0.092476 0.000000 0.000000
# 5 0.000000 0.000000 0.000000 0.000000 -0.008734 0.000000
# 6 0.000000 0.000000 0.000000 0.000000 0.000000 -0.645735
#
#
# Mechanical properties :
#
#
# Convention : Reuss Voigt Hill
#
# Bulk Modulus (GPa) = 37.14321 37.49849 37.32085
# Shear Modulus (GPa) = -10.92765 -13.03477 -11.98121
#
# Velocity S-wave (km/s) = -2.55937 -2.79525 -2.67991
# Velocity P-wave (km/s) = 3.67844 3.47273 3.57706
#
# Compressibility (1/GPa) = 0.02692282
#
# Stress axis : x y z
#
# Youngs Moduli (GPa) = 41.37487 62.56283 47.52875
#
# Poissons Ratio (x) = 0.31476 0.39844
# Poissons Ratio (y) = 0.20816 0.17685
# Poissons Ratio (z) = 0.34685 0.23279
#
# Static dielectric constant tensor:
#      x y z
#    x 1.536310 0.000000 0.000000 
#    y 0.000000 1.573780 0.000000 
#    z 0.000000 0.000000 1.586030 
# 
# From -- ./inp_files/53457.got.cif
#   From: 2010.05.17/outbox.cif.g08.bks.cpg/sg71_27_cif.got.tgz:53457.got - 2010.06.03 16:22:01.
