data_PCOD9517350
_publ_section_title
;
Structure prediction by ZEFSAII (Michael W. Deem and Ramdas Pophale) SiO2 
 PCOD9517350
Probable space group: I M M M
;
_chemical_formula_sum "Si O2"
_cell_formula_units_Z 112
_cell_length_a 35.084917
_cell_length_b 8.767628
_cell_length_c 27.218097
_cell_angle_alpha 90.000000
_cell_angle_beta 90.000000
_cell_angle_gamma 90.000000
_cell_volume 8372.599663
_symmetry_space_group_name_H-M "I M M M"
_symmetry_group_IT_number 71
_symmetry_cell_setting 'orthorhombic'
loop_
_space_group_symop_operation_xyz
x,y,z
-x,-y,z
x,-y,-z
-x,y,-z
-x,-y,-z
x,y,-z
-x,y,z
x,-y,z
1/2+x,1/2+y,1/2+z
1/2-x,1/2-y,1/2+z
1/2+x,1/2-y,1/2-z
1/2-x,1/2+y,1/2-z
1/2-x,1/2-y,1/2-z
1/2+x,1/2+y,1/2-z
1/2-x,1/2+y,1/2+z
1/2+x,1/2-y,1/2+z
loop_
_atom_site_type_symbol
_atom_site_label
_atom_site_fract_x
_atom_site_fract_y
_atom_site_fract_z
Si Si1 0.000000 0.321442 0.589217
Si Si2 0.841865 0.683270 0.445224
Si Si3 0.079914 0.817478 0.592469
Si Si4 0.161058 0.183837 0.258418
Si Si5 0.420934 0.317232 0.792557
Si Si6 0.000000 0.677679 0.708271
Si Si7 0.726717 0.817303 0.296741
Si Si8 0.207312 0.683805 0.648738
O O1 0.960350 0.246074 0.572817
O O2 0.000000 0.302949 0.648768
O O3 0.000000 0.500000 0.577511
O O4 0.829058 0.725037 0.500000
O O5 0.845981 0.500000 0.442788
O O6 0.883096 0.754969 0.434764
O O7 0.812180 0.726519 0.402681
O O8 0.083919 0.770253 0.650106
O O9 0.079104 0.000000 0.590419
O O10 0.335269 0.500000 0.242022
O O11 0.116676 0.226200 0.262449
O O12 0.184358 0.255034 0.213075
O O13 0.180790 0.247801 0.308022
O O14 0.423396 0.500000 0.792643
O O15 0.460776 0.251495 0.773960
O O16 0.000000 0.500000 0.718998
O O17 0.750000 0.750000 0.250000
O O18 0.750656 0.752333 0.342398
O O19 0.727628 0.000000 0.295746
O O20 0.208580 0.500000 0.653518
#
# Coordination Sequence:
#
# PCOD9517350 Si02
#       8
#     8  16  16  16  16   8  16  16
#     4   9  17  29  44  60  75  95 119 150 194 241
#     4  10  21  34  46  60  77  98 125 157 195 239
#     4  10  18  30  45  61  76  94 121 156 196 236
#     4  10  17  27  42  61  81 101 125 152 187 229
#     4   9  17  27  40  56  78 102 124 154 191 228
#     4   9  17  25  37  56  76  99 129 157 183 223
#     4  10  18  27  40  59  81 101 122 149 183 226
#     4  10  18  29  44  58  76 100 123 152 189 230
#
# _framework density 13.376968
#
# number of rings (size 3 to 8) (size 9 to 14) (size 15 to 20)
#    0.000    2.286    1.429    4.714    0.000    4.286 
#    0.000    0.357    0.000    2.143    0.000    0.000 
#    0.000    0.000    0.000    0.000    0.000    0.000 
#
# Total GULP energy -312101.896623 kJ/mol
# GULP energy per Si atom -5573.248154 kJ/mol
# Density = 1.334652 g / cm^3
# Si number density = 13.376968 Si / 1000 Ang^3
#
#
#
# Elastic Constant Matrix: (Units=GPa)
#
#
# Indices 1 2 3 4 5 6 
#
# 1 106.2776 37.1492 50.2330 0.0000 0.0000 0.0000
# 2 37.1492 45.3127 23.6468 0.0000 0.0000 0.0000
# 3 50.2330 23.6468 47.1553 0.0000 0.0000 0.0000
# 4 0.0000 0.0000 0.0000 9.7656 0.0000 0.0000
# 5 0.0000 0.0000 0.0000 0.0000 12.2707 0.0000
# 6 0.0000 0.0000 0.0000 0.0000 0.0000 22.8990
#
#
#
# Elastic Compliance Matrix: (Units=1/GPa)
#
#
# Indices 1 2 3 4 5 6 
#
# 1 0.020622 -0.007372 -0.018272 0.000000 0.000000 0.000000
# 2 -0.007372 0.032526 -0.008458 0.000000 0.000000 0.000000
# 3 -0.018272 -0.008458 0.044912 0.000000 0.000000 0.000000
# 4 0.000000 0.000000 0.000000 0.102400 0.000000 0.000000
# 5 0.000000 0.000000 0.000000 0.000000 0.081495 0.000000
# 6 0.000000 0.000000 0.000000 0.000000 0.000000 0.043670
#
#
# Mechanical properties :
#
#
# Convention : Reuss Voigt Hill
#
# Bulk Modulus (GPa) = 33.49174 46.75595 40.12385
# Shear Modulus (GPa) = 12.38294 14.83483 13.60889
#
# Velocity S-wave (km/s) = 3.04582 3.33375 3.19303
# Velocity P-wave (km/s) = 6.12050 7.06024 6.60710
#
# Compressibility (1/GPa) = 0.02985810
#
# Stress axis : x y z
#
# Youngs Moduli (GPa) = 48.49101 30.74420 22.26578
#
# Poissons Ratio (x) = 0.22664 0.40683
# Poissons Ratio (y) = 0.35747 0.18832
# Poissons Ratio (z) = 0.88601 0.26003
#
# Static dielectric constant tensor:
#      x y z
#    x 1.461110 0.000000 0.000000 
#    y 0.000000 1.446220 0.000000 
#    z 0.000000 0.000000 1.427100 
# 
# From -- ./inp_files/71274.got.cif
#   From: 2010.05.17/outbox.cif.g08.bks.cpg/sg71_36_cif.got.tgz:71274.got - 2010.06.03 16:22:01.
