data_PCOD9517707
_publ_section_title
;
Structure prediction by ZEFSAII (Michael W. Deem and Ramdas Pophale) SiO2 
 PCOD9517707
Probable space group: I M M M
;
_chemical_formula_sum "Si O2"
_cell_formula_units_Z 88
_cell_length_a 16.338724
_cell_length_b 11.300175
_cell_length_c 20.960561
_cell_angle_alpha 90.000000
_cell_angle_beta 90.000000
_cell_angle_gamma 90.000000
_cell_volume 3869.957610
_symmetry_space_group_name_H-M "I M M M"
_symmetry_group_IT_number 71
_symmetry_cell_setting 'orthorhombic'
loop_
_space_group_symop_operation_xyz
x,y,z
-x,-y,z
x,-y,-z
-x,y,-z
-x,-y,-z
x,y,-z
-x,y,z
x,-y,z
1/2+x,1/2+y,1/2+z
1/2-x,1/2-y,1/2+z
1/2+x,1/2-y,1/2-z
1/2-x,1/2+y,1/2-z
1/2-x,1/2-y,1/2-z
1/2+x,1/2+y,1/2-z
1/2-x,1/2+y,1/2+z
1/2+x,1/2-y,1/2+z
loop_
_atom_site_type_symbol
_atom_site_label
_atom_site_fract_x
_atom_site_fract_y
_atom_site_fract_z
Si Si1 0.321701 0.140296 0.923263
Si Si2 0.500000 0.136073 0.922802
Si Si3 0.845598 0.246028 0.894193
Si Si4 0.661815 0.500000 0.757115
Si Si5 0.858291 0.500000 0.243593
Si Si6 0.905567 0.500000 0.903501
Si Si7 0.095549 0.000000 0.886586
Si Si8 0.650699 0.749842 0.246935
O O1 0.411881 0.187839 0.907279
O O2 0.250919 0.219573 0.893609
O O3 0.313328 0.000000 0.906169
O O4 0.311727 0.144484 0.000000
O O5 0.500000 0.000000 0.899880
O O6 0.500000 0.128626 0.000000
O O7 0.865925 0.373999 0.923299
O O8 0.876864 0.249564 0.821116
O O9 0.882649 0.123382 0.921395
O O10 0.759733 0.500000 0.767735
O O11 0.646204 0.500000 0.680339
O O12 0.626481 0.376119 0.781762
O O13 0.898107 0.500000 0.173790
O O14 0.877548 0.377015 0.277921
O O15 0.000000 0.500000 0.922120
O O16 0.000000 0.000000 0.871433
O O17 0.750000 0.750000 0.250000
#
# Coordination Sequence:
#
# PCOD9517707 Si02
#       8
#    16   8  16   8   8   8   8  16
#     4   9  16  29  51  79 105 127 160 200 252 309
#     4   7  12  24  46  77 105 127 151 191 237 295
#     4  10  18  30  48  72  95 133 167 209 248 297
#     4   8  14  24  40  63  83 110 147 197 248 283
#     4   8  14  26  42  61  81 114 153 193 242 283
#     4  10  20  32  47  69  94 130 177 210 242 295
#     4  10  18  28  45  71  96 122 169 218 252 295
#     4   8  14  24  40  64  84 115 154 191 231 280
#
# _framework density 22.739267000000002
#
# number of rings (size 3 to 8) (size 9 to 14) (size 15 to 20)
#    0.000    3.182    0.909    1.636    0.000    0.000 
#    0.000    0.455    0.000    3.818   75.636    1.909 
#    0.000    0.000    0.000    0.000    0.000    0.000 
#
# Total GULP energy -245230.322235 kJ/mol
# GULP energy per Si atom -5573.416414 kJ/mol
# Density = 2.268751 g / cm^3
# Si number density = 22.739267 Si / 1000 Ang^3
#
#
#
# Elastic Constant Matrix: (Units=GPa)
#
#
# Indices 1 2 3 4 5 6 
#
# 1 121.4225 38.0853 6.7611 0.0000 0.0000 0.0000
# 2 38.0853 252.3792 14.0098 0.0000 0.0000 0.0000
# 3 6.7611 14.0098 70.5076 0.0000 0.0000 0.0000
# 4 0.0000 0.0000 0.0000 1.3452 0.0000 0.0000
# 5 0.0000 0.0000 0.0000 0.0000 16.7815 0.0000
# 6 0.0000 0.0000 0.0000 0.0000 0.0000 16.8392
#
#
#
# Elastic Compliance Matrix: (Units=1/GPa)
#
#
# Indices 1 2 3 4 5 6 
#
# 1 0.008668 -0.001276 -0.000578 0.000000 0.000000 0.000000
# 2 -0.001276 0.004194 -0.000711 0.000000 0.000000 0.000000
# 3 -0.000578 -0.000711 0.014380 0.000000 0.000000 0.000000
# 4 0.000000 0.000000 0.000000 0.743364 0.000000 0.000000
# 5 0.000000 0.000000 0.000000 0.000000 0.059590 0.000000
# 6 0.000000 0.000000 0.000000 0.000000 0.000000 0.059385
#
#
# Mechanical properties :
#
#
# Convention : Reuss Voigt Hill
#
# Bulk Modulus (GPa) = 45.22319 62.44685 53.83502
# Shear Modulus (GPa) = 5.54274 32.69004 19.11639
#
# Velocity S-wave (km/s) = 1.56295 3.79569 2.90259
# Velocity P-wave (km/s) = 4.81539 6.83604 5.91267
#
# Compressibility (1/GPa) = 0.02211255
#
# Stress axis : x y z
#
# Youngs Moduli (GPa) = 115.36551 238.41782 69.54327
#
# Poissons Ratio (x) = 0.30422 0.04017
# Poissons Ratio (y) = 0.14721 0.04945
# Poissons Ratio (z) = 0.06664 0.16953
#
# Static dielectric constant tensor:
#      x y z
#    x 1.865420 0.000000 0.000000 
#    y 0.000000 1.928760 0.000000 
#    z 0.000000 0.000000 1.857970 
# 
# From -- ./inp_files/65401.got.cif
#   From: 2010.05.17/outbox.cif.g08.bks.cpg/sg71_33_cif.got.tgz:65401.got - 2010.06.03 16:22:01.
