data_PCOD9517819
_publ_section_title
;
Structure prediction by ZEFSAII (Michael W. Deem and Ramdas Pophale) SiO2 
 PCOD9517819
Probable space group: I M M M
;
_chemical_formula_sum "Si O2"
_cell_formula_units_Z 72
_cell_length_a 12.484788
_cell_length_b 14.923359
_cell_length_c 24.335611
_cell_angle_alpha 90.000000
_cell_angle_beta 90.000000
_cell_angle_gamma 90.000000
_cell_volume 4534.088715
_symmetry_space_group_name_H-M "I M M M"
_symmetry_group_IT_number 71
_symmetry_cell_setting 'orthorhombic'
loop_
_space_group_symop_operation_xyz
x,y,z
-x,-y,z
x,-y,-z
-x,y,-z
-x,-y,-z
x,y,-z
-x,y,z
x,-y,z
1/2+x,1/2+y,1/2+z
1/2-x,1/2-y,1/2+z
1/2+x,1/2-y,1/2-z
1/2-x,1/2+y,1/2-z
1/2-x,1/2-y,1/2-z
1/2+x,1/2+y,1/2-z
1/2-x,1/2+y,1/2+z
1/2+x,1/2-y,1/2+z
loop_
_atom_site_type_symbol
_atom_site_label
_atom_site_fract_x
_atom_site_fract_y
_atom_site_fract_z
Si Si1 0.213580 0.108074 0.369989
Si Si2 0.128718 0.727781 0.063757
Si Si3 0.500000 0.391320 0.062994
Si Si4 0.123593 0.108973 0.254737
Si Si5 0.369806 0.602054 0.632456
O O1 0.313139 0.154904 0.398776
O O2 0.106807 0.134019 0.404079
O O3 0.194123 0.135757 0.306782
O O4 0.223368 0.000000 0.371942
O O5 0.160343 0.825531 0.087055
O O6 0.000000 0.720265 0.067917
O O7 0.158476 0.717283 0.000000
O O8 0.500000 0.500000 0.061706
O O9 0.500000 0.359541 0.000000
O O10 0.162650 0.133293 0.193772
O O11 0.000000 0.138997 0.262215
O O12 0.120084 0.000000 0.254888
O O13 0.500000 0.598827 0.634029
O O14 0.332990 0.500000 0.622482
#
# Coordination Sequence:
#
# PCOD9517819 Si02
#       5
#    16  16   8  16  16
#     4  10  18  29  46  67  92 122 150 181 221 263
#     4  10  21  33  43  62  93 126 158 184 212 262
#     4   9  16  26  42  64  87 113 148 186 219 250
#     4   8  13  25  46  71  93 110 138 184 235 275
#     4   8  15  29  49  69  88 112 145 190 237 270
#
# _framework density 15.879707
#
# number of rings (size 3 to 8) (size 9 to 14) (size 15 to 20)
#    0.000    3.000    1.111    2.000    0.000    3.111 
#    0.000    3.333    0.000    0.000    0.000    0.778 
#    0.000    2.667    0.000    0.000    0.000    0.000 
#
# Total GULP energy -200403.198216 kJ/mol
# GULP energy per Si atom -5566.755506 kJ/mol
# Density = 1.584356 g / cm^3
# Si number density = 15.879707 Si / 1000 Ang^3
#
#
#
# Elastic Constant Matrix: (Units=GPa)
#
#
# Indices 1 2 3 4 5 6 
#
# 1 23.9470 11.6175 15.2968 0.0000 0.0000 0.0000
# 2 11.6175 33.1466 6.6826 0.0000 0.0000 0.0000
# 3 15.2968 6.6826 39.8791 0.0000 0.0000 0.0000
# 4 0.0000 0.0000 0.0000 24.0094 0.0000 0.0000
# 5 0.0000 0.0000 0.0000 0.0000 16.5431 0.0000
# 6 0.0000 0.0000 0.0000 0.0000 0.0000 12.4924
#
#
#
# Elastic Compliance Matrix: (Units=1/GPa)
#
#
# Indices 1 2 3 4 5 6 
#
# 1 0.064434 -0.018216 -0.021663 0.000000 0.000000 0.000000
# 2 -0.018216 0.036374 0.000892 0.000000 0.000000 0.000000
# 3 -0.021663 0.000892 0.033236 0.000000 0.000000 0.000000
# 4 0.000000 0.000000 0.000000 0.041650 0.000000 0.000000
# 5 0.000000 0.000000 0.000000 0.000000 0.060448 0.000000
# 6 0.000000 0.000000 0.000000 0.000000 0.000000 0.080049
#
#
# Mechanical properties :
#
#
# Convention : Reuss Voigt Hill
#
# Bulk Modulus (GPa) = 17.83499 18.24071 18.03785
# Shear Modulus (GPa) = 12.11079 14.83403 13.47241
#
# Velocity S-wave (km/s) = 2.76462 3.05970 2.91590
# Velocity P-wave (km/s) = 4.63104 4.89838 4.76659
#
# Compressibility (1/GPa) = 0.05606956
#
# Stress axis : x y z
#
# Youngs Moduli (GPa) = 15.51971 27.49241 30.08801
#
# Poissons Ratio (x) = 0.50080 0.65180
# Poissons Ratio (y) = 0.28271 -0.02684
# Poissons Ratio (z) = 0.33621 -0.02453
#
# Static dielectric constant tensor:
#      x y z
#    x 1.514410 0.000000 0.000000 
#    y 0.000000 1.527990 0.000000 
#    z 0.000000 0.000000 1.557160 
# 
# From -- ./inp_files/6015.got.cif
#   From: 2010.05.17/outbox.cif.g08.bks.cpg/sg71_4_cif.got.tgz:6015.got - 2010.06.03 16:22:01.
