data_PCOD9517201
_publ_section_title
;
Structure prediction by ZEFSAII (Michael W. Deem and Ramdas Pophale) SiO2 
 PCOD9517201
Probable space group: F D D D
;
_chemical_formula_sum "Si O2"
_cell_formula_units_Z 44
_cell_length_a 27.000000
_cell_length_b 12.000000
_cell_length_c 30.000000
_cell_angle_alpha 90.000000
_cell_angle_beta 90.000000
_cell_angle_gamma 90.000000
_cell_volume 9720.000000
_symmetry_space_group_name_H-M "F D D D"
_symmetry_group_IT_number 70
_space_group.IT_coordinate_system_code '2'
_symmetry_cell_setting 'orthorhombic'
loop_
_space_group_symop_operation_xyz
x,y,z
1/4-x,1/4-y,z
x,1/4-y,1/4-z
1/4-x,y,1/4-z
-x,-y,-z
3/4+x,3/4+y,-z
-x,3/4+y,3/4+z
3/4+x,-y,3/4+z
x,1/2+y,1/2+z
1/4-x,3/4-y,1/2+z
x,3/4-y,3/4-z
1/4-x,1/2+y,3/4-z
-x,1/2-y,1/2-z
3/4+x,1/4+y,1/2-z
-x,1/4+y,1/4+z
3/4+x,1/2-y,1/4+z
1/2+x,y,1/2+z
3/4-x,1/4-y,1/2+z
1/2+x,1/4-y,3/4-z
3/4-x,y,3/4-z
1/2-x,-y,1/2-z
1/4+x,3/4+y,1/2-z
1/2-x,3/4+y,1/4+z
1/4+x,-y,1/4+z
1/2+x,1/2+y,z
3/4-x,3/4-y,z
1/2+x,3/4-y,1/4-z
3/4-x,1/2+y,1/4-z
1/2-x,1/2-y,-z
1/4+x,1/4+y,-z
1/2-x,1/4+y,3/4+z
1/4+x,1/2-y,3/4+z
loop_
_atom_site_type_symbol
_atom_site_label
_atom_site_fract_x
_atom_site_fract_y
_atom_site_fract_z
Si Si1 0.591863 0.226509 0.967989
Si Si2 0.038769 0.113761 0.692824
Si Si3 0.184134 0.934250 0.633389
Si Si4 0.421068 0.601212 0.679632
Si Si5 0.875000 0.375000 0.158011
Si Si6 0.974248 0.493524 0.637701
O O1 0.625000 0.125000 0.950155
O O2 0.630807 0.327065 0.957957
O O3 0.543046 0.245517 0.938810
O O4 0.569736 0.183545 0.015093
O O5 0.058763 0.236184 0.677308
O O6 0.978187 0.120532 0.695367
O O7 0.050073 0.021660 0.654981
O O8 0.125000 0.905311 0.625000
O O9 0.225789 0.833882 0.632499
O O10 0.419222 0.625000 0.625000
O O11 0.402865 0.474224 0.683665
O O12 0.923889 0.311892 0.135009
O O13 0.980931 0.625000 0.625000
#
# Coordination Sequence:
#
# PCOD9517201 Si02
#       6
#    32  32  32  32  16  32
#     4  12  23  37  64 103 136 159 226 298 334 385
#     4  11  23  40  67  97 132 180 225 275 343 403
#     4  11  23  42  63  90 137 185 220 260 348 425
#     4  12  21  40  69  95 129 179 227 276 348 409
#     4  12  18  42  68  94 120 173 227 270 330 406
#     4  12  23  40  70 100 126 176 234 278 332 414
#
# _framework density 4.5267489999999997
#
# number of rings (size 3 to 8) (size 9 to 14) (size 15 to 20)
#    0.000    0.364    8.182    3.273    0.000    4.727 
#    0.000    3.636    0.000    0.000    0.000    0.000 
#    0.000    0.000    0.000    0.000    0.000    0.000 
#
# Total GULP energy -244948.324595 kJ/mol
# GULP energy per Si atom -5567.007377 kJ/mol
# Density = 0.451645 g / cm^3
# Si number density = 4.526749 Si / 1000 Ang^3
#
#
#
# Elastic Constant Matrix: (Units=GPa)
#
#
# Indices 1 2 3 4 5 6 
#
# 1 191.5716 64.2963 40.9038 0.0000 0.0000 0.0000
# 2 64.2963 156.2501 43.1111 0.0000 0.0000 0.0000
# 3 40.9038 43.1111 72.8126 0.0000 0.0000 0.0000
# 4 0.0000 0.0000 0.0000 20.7211 0.0000 0.0000
# 5 0.0000 0.0000 0.0000 0.0000 24.3445 0.0000
# 6 0.0000 0.0000 0.0000 0.0000 0.0000 42.5352
#
#
#
# Elastic Compliance Matrix: (Units=1/GPa)
#
#
# Indices 1 2 3 4 5 6 
#
# 1 0.006398 -0.001961 -0.002433 0.000000 0.000000 0.000000
# 2 -0.001961 0.008251 -0.003783 0.000000 0.000000 0.000000
# 3 -0.002433 -0.003783 0.017341 0.000000 0.000000 0.000000
# 4 0.000000 0.000000 0.000000 0.048260 0.000000 0.000000
# 5 0.000000 0.000000 0.000000 0.000000 0.041077 0.000000
# 6 0.000000 0.000000 0.000000 0.000000 0.000000 0.023510
#
#
# Mechanical properties :
#
#
# Convention : Reuss Voigt Hill
#
# Bulk Modulus (GPa) = 63.96222 79.69520 71.82871
# Shear Modulus (GPa) = 30.04756 35.67502 32.86129
#
# Velocity S-wave (km/s) = 4.07805 4.44355 4.26471
# Velocity P-wave (km/s) = 7.58784 8.39261 8.00035
#
# Compressibility (1/GPa) = 0.01563423
#
# Stress axis : x y z
#
# Youngs Moduli (GPa) = 156.30589 121.19752 57.66813
#
# Poissons Ratio (x) = 0.23772 0.14029
# Poissons Ratio (y) = 0.30658 0.21818
# Poissons Ratio (z) = 0.38025 0.45854
#
# Static dielectric constant tensor:
#      x y z
#    x 1.631450 0.000000 0.000000 
#    y 0.000000 1.644070 0.000000 
#    z 0.000000 0.000000 1.708290 
# 
# From -- ./inp_files/19614.got.cif
#   From: 2010.05.17/outbox.ucp.g08.bks.cvg/sg70_10_cif.got.tgz:19614.got - 2010.06.11 16:26:41.
