data_PCOD9517622
_publ_section_title
;
Structure prediction by ZEFSAII (Michael W. Deem and Ramdas Pophale) SiO2 
 PCOD9517622
Probable space group: I M M M
;
_chemical_formula_sum "Si O2"
_cell_formula_units_Z 88
_cell_length_a 31.841847
_cell_length_b 25.023171
_cell_length_c 7.429045
_cell_angle_alpha 90.000000
_cell_angle_beta 90.000000
_cell_angle_gamma 90.000000
_cell_volume 5919.344061
_symmetry_space_group_name_H-M "I M M M"
_symmetry_group_IT_number 71
_symmetry_cell_setting 'orthorhombic'
loop_
_space_group_symop_operation_xyz
x,y,z
-x,-y,z
x,-y,-z
-x,y,-z
-x,-y,-z
x,y,-z
-x,y,z
x,-y,z
1/2+x,1/2+y,1/2+z
1/2-x,1/2-y,1/2+z
1/2+x,1/2-y,1/2-z
1/2-x,1/2+y,1/2-z
1/2-x,1/2-y,1/2-z
1/2+x,1/2+y,1/2-z
1/2-x,1/2+y,1/2+z
1/2+x,1/2-y,1/2+z
loop_
_atom_site_type_symbol
_atom_site_label
_atom_site_fract_x
_atom_site_fract_y
_atom_site_fract_z
Si Si1 0.636399 0.500000 0.716859
Si Si2 0.000000 0.937364 0.721163
Si Si3 0.749677 0.116901 0.215061
Si Si4 0.837544 0.177830 0.717372
Si Si5 0.793744 0.719423 0.285133
Si Si6 0.234010 0.000000 0.219886
Si Si7 0.087552 0.892382 0.707671
O O1 0.634183 0.500000 0.500000
O O2 0.684949 0.500000 0.769637
O O3 0.613292 0.552378 0.786302
O O4 0.958047 0.907031 0.783394
O O5 0.000000 0.938182 0.500000
O O6 0.000000 0.000000 0.775346
O O7 0.796647 0.141005 0.242907
O O8 0.715823 0.160008 0.285658
O O9 0.747127 0.056330 0.282785
O O10 0.744229 0.114723 0.000000
O O11 0.839914 0.179289 0.500000
O O12 0.828015 0.238113 0.782701
O O13 0.880291 0.151092 0.786755
O O14 0.799830 0.715129 0.500000
O O15 0.750000 0.750000 0.250000
O O16 0.235580 0.000000 0.000000
O O17 0.080362 0.876970 0.500000
#
# Coordination Sequence:
#
# PCOD9517622 Si02
#       7
#     8   8  16  16  16   8  16
#     4  11  19  26  36  49  66  82 106 136 163 194
#     4   9  16  26  38  48  60  82 108 129 159 203
#     4   9  15  24  35  46  64  85 102 122 152 187
#     4   9  16  24  35  50  62  75 102 134 159 182
#     4   8  14  23  34  47  62  79  98 124 155 183
#     4   9  16  23  32  48  65  84 106 125 148 187
#     4  10  18  28  39  48  61  82 108 135 164 196
#
# _framework density 14.866512999999999
#
# number of rings (size 3 to 8) (size 9 to 14) (size 15 to 20)
#    0.000    2.818    2.727    0.273    0.000    0.000 
#    0.000    1.364    0.000    0.000    0.000    0.000 
#    0.000    0.000    0.000    0.000    0.000    0.909 
#
# Total GULP energy -244990.457706 kJ/mol
# GULP energy per Si atom -5567.964948 kJ/mol
# Density = 1.483268 g / cm^3
# Si number density = 14.866513 Si / 1000 Ang^3
#
#
#
# Elastic Constant Matrix: (Units=GPa)
#
#
# Indices 1 2 3 4 5 6 
#
# 1 82.4299 70.3781 2.1340 0.0000 0.0000 0.0000
# 2 70.3781 141.7329 3.2169 0.0000 0.0000 0.0000
# 3 2.1340 3.2169 49.8157 0.0000 0.0000 0.0000
# 4 0.0000 0.0000 0.0000 -204.5747 0.0000 0.0000
# 5 0.0000 0.0000 0.0000 0.0000 4.3291 0.0000
# 6 0.0000 0.0000 0.0000 0.0000 0.0000 16.3277
#
#
#
# Elastic Compliance Matrix: (Units=1/GPa)
#
#
# Indices 1 2 3 4 5 6 
#
# 1 0.021063 -0.010454 -0.000227 0.000000 0.000000 0.000000
# 2 -0.010454 0.012254 -0.000344 0.000000 0.000000 0.000000
# 3 -0.000227 -0.000344 0.020106 0.000000 0.000000 0.000000
# 4 0.000000 0.000000 0.000000 -0.004888 0.000000 0.000000
# 5 0.000000 0.000000 0.000000 0.000000 0.230996 0.000000
# 6 0.000000 0.000000 0.000000 0.000000 0.000000 0.061246
#
#
# Mechanical properties :
#
#
# Convention : Reuss Voigt Hill
#
# Bulk Modulus (GPa) = 31.87355 47.27073 39.57214
# Shear Modulus (GPa) = 13.39467 -23.56695 -5.08614
#
# Velocity S-wave (km/s) = 3.00492 -3.98582 -1.85166
# Velocity P-wave (km/s) = 5.79014 3.26855 4.70155
#
# Compressibility (1/GPa) = 0.03137398
#
# Stress axis : x y z
#
# Youngs Moduli (GPa) = 47.47751 81.60536 49.73660
#
# Poissons Ratio (x) = 0.85307 0.01130
# Poissons Ratio (y) = 0.49631 0.01708
# Poissons Ratio (z) = 0.01079 0.02803
#
# Static dielectric constant tensor:
#      x y z
#    x 1.483310 0.000000 0.000000 
#    y 0.000000 1.534320 0.000000 
#    z 0.000000 0.000000 1.563000 
# 
# From -- ./inp_files/17194.got.cif
#   From: 2010.05.17/outbox.cif.g08.bks.cpg/sg71_9_cif.got.tgz:17194.got - 2010.06.03 16:22:01.
