data_PCOD9517925
_publ_section_title
;
Structure prediction by ZEFSAII (Michael W. Deem and Ramdas Pophale) SiO2 
 PCOD9517925
Probable space group: I M M M
;
_chemical_formula_sum "Si O2"
_cell_formula_units_Z 96
_cell_length_a 9.865178
_cell_length_b 24.580855
_cell_length_c 23.079766
_cell_angle_alpha 90.000000
_cell_angle_beta 90.000000
_cell_angle_gamma 90.000000
_cell_volume 5596.716546
_symmetry_space_group_name_H-M "I M M M"
_symmetry_group_IT_number 71
_symmetry_cell_setting 'orthorhombic'
loop_
_space_group_symop_operation_xyz
x,y,z
-x,-y,z
x,-y,-z
-x,y,-z
-x,-y,-z
x,y,-z
-x,y,z
x,-y,z
1/2+x,1/2+y,1/2+z
1/2-x,1/2-y,1/2+z
1/2+x,1/2-y,1/2-z
1/2-x,1/2+y,1/2-z
1/2-x,1/2-y,1/2-z
1/2+x,1/2+y,1/2-z
1/2-x,1/2+y,1/2+z
1/2+x,1/2-y,1/2+z
loop_
_atom_site_type_symbol
_atom_site_label
_atom_site_fract_x
_atom_site_fract_y
_atom_site_fract_z
Si Si1 0.252508 0.365416 0.613605
Si Si2 0.500000 0.564054 0.569757
Si Si3 0.664308 0.695908 0.731518
Si Si4 0.162537 0.841779 0.643427
Si Si5 0.500000 0.065820 0.070482
Si Si6 0.838880 0.256379 0.565019
Si Si7 0.834854 0.061311 0.565975
O O1 0.374732 0.403921 0.596250
O O2 0.276816 0.336272 0.675980
O O3 0.235159 0.313458 0.571727
O O4 0.125122 0.404403 0.601643
O O5 0.500000 0.500000 0.584175
O O6 0.500000 0.568154 0.500000
O O7 0.500000 0.706595 0.724438
O O8 0.750000 0.750000 0.750000
O O9 0.682171 0.658738 0.788420
O O10 0.212269 0.786993 0.611922
O O11 0.216415 0.894405 0.610776
O O12 0.000000 0.840553 0.633775
O O13 0.500000 0.000000 0.077260
O O14 0.500000 0.076185 0.000000
O O15 0.825114 0.234151 0.500000
O O16 0.000000 0.266552 0.574959
O O17 0.798090 0.075456 0.500000
O O18 0.000000 0.060844 0.567877
O O19 0.789927 0.000000 0.578447
#
# Coordination Sequence:
#
# PCOD9517925 Si02
#       7
#    16   8  16  16   8  16  16
#     4  12  22  38  59  87 116 149 198 246 301 366
#     4  11  24  42  61  82 116 156 191 244 316 377
#     4  11  23  39  58  83 116 158 198 240 295 358
#     4   9  17  29  47  72 103 144 183 223 276 334
#     4  11  24  42  65  90 116 154 205 256 308 373
#     4  10  18  29  50  81 110 138 183 240 290 342
#     4   8  13  23  41  67 101 137 171 213 267 324
#
# _framework density 17.152915
#
# number of rings (size 3 to 8) (size 9 to 14) (size 15 to 20)
#    0.000    1.833    3.333    3.000    1.167    3.333 
#    0.000    1.667    0.000    0.000    0.000    0.000 
#    0.000    0.000    0.000    1.833    0.000    1.667 
#
# Total GULP energy -267305.406923 kJ/mol
# GULP energy per Si atom -5568.862644 kJ/mol
# Density = 1.711387 g / cm^3
# Si number density = 17.152915 Si / 1000 Ang^3
#
#
#
# Elastic Constant Matrix: (Units=GPa)
#
#
# Indices 1 2 3 4 5 6 
#
# 1 87.4336 43.3472 42.1861 0.0000 0.0000 0.0000
# 2 43.3472 115.1209 75.7847 0.0000 0.0000 0.0000
# 3 42.1861 75.7847 105.1095 0.0000 0.0000 0.0000
# 4 0.0000 0.0000 0.0000 23.0863 0.0000 0.0000
# 5 0.0000 0.0000 0.0000 0.0000 18.8304 0.0000
# 6 0.0000 0.0000 0.0000 0.0000 0.0000 86.1566
#
#
#
# Elastic Compliance Matrix: (Units=1/GPa)
#
#
# Indices 1 2 3 4 5 6 
#
# 1 0.014763 -0.003156 -0.003649 0.000000 0.000000 0.000000
# 2 -0.003156 0.017209 -0.011141 0.000000 0.000000 0.000000
# 3 -0.003649 -0.011141 0.019012 0.000000 0.000000 0.000000
# 4 0.000000 0.000000 0.000000 0.043316 0.000000 0.000000
# 5 0.000000 0.000000 0.000000 0.000000 0.053106 0.000000
# 6 0.000000 0.000000 0.000000 0.000000 0.000000 0.011607
#
#
# Mechanical properties :
#
#
# Convention : Reuss Voigt Hill
#
# Bulk Modulus (GPa) = 66.27011 70.03333 68.15172
# Shear Modulus (GPa) = 25.00802 35.37105 30.18954
#
# Velocity S-wave (km/s) = 3.82245 4.54596 4.19981
# Velocity P-wave (km/s) = 7.62891 8.27477 7.95839
#
# Compressibility (1/GPa) = 0.01508976
#
# Stress axis : x y z
#
# Youngs Moduli (GPa) = 67.73740 58.10794 52.59968
#
# Poissons Ratio (x) = 0.18341 0.19196
# Poissons Ratio (y) = 0.21380 0.58603
# Poissons Ratio (z) = 0.24720 0.64740
#
# Static dielectric constant tensor:
#      x y z
#    x 1.515770 0.000000 0.000000 
#    y 0.000000 1.581640 0.000000 
#    z 0.000000 0.000000 1.584880 
# 
# From -- ./inp_files/57773.got.cif
#   From: 2010.05.17/outbox.cif.g08.bks.cpg/sg71_29_cif.got.tgz:57773.got - 2010.06.03 16:22:01.
