data_PCOD9517361
_publ_section_title
;
Structure prediction by ZEFSAII (Michael W. Deem and Ramdas Pophale) SiO2 
 PCOD9517361
Probable space group: I M M M
;
_chemical_formula_sum "Si O2"
_cell_formula_units_Z 80
_cell_length_a 19.039151
_cell_length_b 12.604101
_cell_length_c 21.377183
_cell_angle_alpha 90.000000
_cell_angle_beta 90.000000
_cell_angle_gamma 90.000000
_cell_volume 5129.912151
_symmetry_space_group_name_H-M "I M M M"
_symmetry_group_IT_number 71
_symmetry_cell_setting 'orthorhombic'
loop_
_space_group_symop_operation_xyz
x,y,z
-x,-y,z
x,-y,-z
-x,y,-z
-x,-y,-z
x,y,-z
-x,y,z
x,-y,z
1/2+x,1/2+y,1/2+z
1/2-x,1/2-y,1/2+z
1/2+x,1/2-y,1/2-z
1/2-x,1/2+y,1/2-z
1/2-x,1/2-y,1/2-z
1/2+x,1/2+y,1/2-z
1/2-x,1/2+y,1/2+z
1/2+x,1/2-y,1/2+z
loop_
_atom_site_type_symbol
_atom_site_label
_atom_site_fract_x
_atom_site_fract_y
_atom_site_fract_z
Si Si1 0.579739 0.000000 0.075977
Si Si2 0.078579 0.871516 0.766265
Si Si3 0.825094 0.870933 0.120073
Si Si4 0.677367 0.804607 0.073258
Si Si5 0.580483 0.371602 0.500000
Si Si6 0.081234 0.873369 0.379831
O O1 0.623100 0.896023 0.094295
O O2 0.500000 0.000000 0.099342
O O3 0.576659 0.000000 0.000000
O O4 0.136874 0.838077 0.815783
O O5 0.090606 0.845414 0.693692
O O6 0.000000 0.834909 0.784118
O O7 0.077150 0.000000 0.769088
O O8 0.749839 0.817848 0.109931
O O9 0.816134 0.000000 0.119238
O O10 0.876209 0.842720 0.062116
O O11 0.637188 0.694289 0.082265
O O12 0.693256 0.822860 0.000000
O O13 0.577126 0.500000 0.500000
O O14 0.500000 0.332761 0.500000
O O15 0.000000 0.848285 0.397000
O O16 0.089927 0.000000 0.386804
#
# Coordination Sequence:
#
# PCOD9517361 Si02
#       6
#     8  16  16  16   8  16
#     4   9  18  30  44  62  88 126 162 187 219 278
#     4   8  15  29  48  68  92 123 158 192 230 281
#     4  10  17  27  44  68 100 128 150 184 232 279
#     4  11  20  30  46  68  97 127 156 192 235 279
#     4   9  16  24  40  66  97 130 155 179 220 280
#     4   9  19  35  51  67  89 120 160 205 240 270
#
# _framework density 15.594810000000001
#
# number of rings (size 3 to 8) (size 9 to 14) (size 15 to 20)
#    0.000    2.600    2.000    2.400    0.000    4.800 
#    0.000    1.000    0.000    0.000    0.000    0.000 
#    0.000    3.200    0.000    0.000    0.000    0.000 
#
# Total GULP energy -222833.150332 kJ/mol
# GULP energy per Si atom -5570.828758 kJ/mol
# Density = 1.555932 g / cm^3
# Si number density = 15.594810 Si / 1000 Ang^3
#
#
#
# Elastic Constant Matrix: (Units=GPa)
#
#
# Indices 1 2 3 4 5 6 
#
# 1 103.9464 20.5200 12.6260 0.0000 0.0000 0.0000
# 2 20.5200 26.5598 -0.7632 0.0000 0.0000 0.0000
# 3 12.6260 -0.7632 9.6696 0.0000 0.0000 0.0000
# 4 0.0000 0.0000 0.0000 12.1814 0.0000 0.0000
# 5 0.0000 0.0000 0.0000 0.0000 24.8718 0.0000
# 6 0.0000 0.0000 0.0000 0.0000 0.0000 19.2988
#
#
#
# Elastic Compliance Matrix: (Units=1/GPa)
#
#
# Indices 1 2 3 4 5 6 
#
# 1 0.014288 -0.011601 -0.019572 0.000000 0.000000 0.000000
# 2 -0.011601 0.047156 0.018870 0.000000 0.000000 0.000000
# 3 -0.019572 0.018870 0.130462 0.000000 0.000000 0.000000
# 4 0.000000 0.000000 0.000000 0.082092 0.000000 0.000000
# 5 0.000000 0.000000 0.000000 0.000000 0.040206 0.000000
# 6 0.000000 0.000000 0.000000 0.000000 0.000000 0.051817
#
#
# Mechanical properties :
#
#
# Convention : Reuss Voigt Hill
#
# Bulk Modulus (GPa) = 5.97727 22.77126 14.37426
# Shear Modulus (GPa) = 11.20086 18.45660 14.82873
#
# Velocity S-wave (km/s) = 2.68291 3.44395 3.08697
# Velocity P-wave (km/s) = 3.66586 5.51796 4.68436
#
# Compressibility (1/GPa) = 0.16730050
#
# Stress axis : x y z
#
# Youngs Moduli (GPa) = 69.98944 21.20616 7.66504
#
# Poissons Ratio (x) = 0.24602 0.15002
# Poissons Ratio (y) = 0.81196 -0.14464
# Poissons Ratio (z) = 1.36983 -0.40016
#
# Static dielectric constant tensor:
#      x y z
#    x 1.518100 0.000000 0.000000 
#    y 0.000000 1.506750 0.000000 
#    z 0.000000 0.000000 1.532000 
# 
# From -- ./inp_files/24143.got.cif
#   From: 2010.05.17/outbox.cif.g08.bks.cpg/sg71_13_cif.got.tgz:24143.got - 2010.06.03 16:22:01.
