data_PCOD9517001
_publ_section_title
;
Structure prediction by ZEFSAII (Michael W. Deem and Ramdas Pophale) SiO2 
 PCOD9517001
Probable space group: F D D D
;
_chemical_formula_sum "Si O2"
_cell_formula_units_Z 136
_cell_length_a 10.161038
_cell_length_b 26.215783
_cell_length_c 20.490231
_cell_angle_alpha 90.000000
_cell_angle_beta 90.000000
_cell_angle_gamma 90.000000
_cell_volume 5458.178867
_symmetry_space_group_name_H-M "F D D D"
_symmetry_group_IT_number 70
_space_group.IT_coordinate_system_code '2'
_symmetry_cell_setting 'orthorhombic'
loop_
_space_group_symop_operation_xyz
x,y,z
1/4-x,1/4-y,z
x,1/4-y,1/4-z
1/4-x,y,1/4-z
-x,-y,-z
3/4+x,3/4+y,-z
-x,3/4+y,3/4+z
3/4+x,-y,3/4+z
x,1/2+y,1/2+z
1/4-x,3/4-y,1/2+z
x,3/4-y,3/4-z
1/4-x,1/2+y,3/4-z
-x,1/2-y,1/2-z
3/4+x,1/4+y,1/2-z
-x,1/4+y,1/4+z
3/4+x,1/2-y,1/4+z
1/2+x,y,1/2+z
3/4-x,1/4-y,1/2+z
1/2+x,1/4-y,3/4-z
3/4-x,y,3/4-z
1/2-x,-y,1/2-z
1/4+x,3/4+y,1/2-z
1/2-x,3/4+y,1/4+z
1/4+x,-y,1/4+z
1/2+x,1/2+y,z
3/4-x,3/4-y,z
1/2+x,3/4-y,1/4-z
3/4-x,1/2+y,1/4-z
1/2-x,1/2-y,-z
1/4+x,1/4+y,-z
1/2-x,1/4+y,3/4+z
1/4+x,1/2-y,3/4+z
loop_
_atom_site_type_symbol
_atom_site_label
_atom_site_fract_x
_atom_site_fract_y
_atom_site_fract_z
Si Si1 0.117032 0.968873 0.765837
Si Si2 0.367579 0.507763 0.672622
Si Si3 0.315243 0.599113 0.016811
Si Si4 0.125000 0.125000 0.625000
Si Si5 0.237014 0.588796 0.877778
O O1 0.140021 0.907417 0.759082
O O2 0.996374 0.985938 0.715238
O O3 0.250000 0.000000 0.750000
O O4 0.115284 0.977544 0.844938
O O5 0.325840 0.558466 0.711204
O O6 0.265564 0.461351 0.664846
O O7 0.217098 0.593682 0.077790
O O8 0.229690 0.580557 0.955046
O O9 0.125000 0.625000 0.854188
O O10 0.375000 0.616637 0.875000
#
# Coordination Sequence:
#
# PCOD9517001 Si02
#       5
#    32  32  32   8  32
#     4  12  24  42  74 116 163 211 276 347 424 501
#     4  12  25  45  73 113 157 215 273 345 424 505
#     4  12  24  43  73 112 158 208 269 343 419 500
#     4  12  20  40  72 104 158 196 264 338 414 488
#     4  12  27  51  78 115 162 214 276 343 423 513
#
# _framework density 24.916734000000002
#
# number of rings (size 3 to 8) (size 9 to 14) (size 15 to 20)
#    0.000    0.000    5.882    4.941    0.000    0.941 
#    0.000    0.000    0.000    1.412    0.000    0.000 
#    0.000    0.000    0.000    0.000    0.000    0.000 
#
# Total GULP energy -189349.498795 kJ/mol
# GULP energy per Si atom -5569.102906 kJ/mol
# Density = 2.486002 g / cm^3
# Si number density = 24.916734 Si / 1000 Ang^3
#
#
#
# Elastic Constant Matrix: (Units=GPa)
#
#
# Indices 1 2 3 4 5 6 
#
# 1 76.0108 14.5438 43.3590 0.0000 0.0000 0.0000
# 2 14.5438 142.2776 82.3942 0.0000 0.0000 0.0000
# 3 43.3590 82.3942 194.3182 0.0000 0.0000 0.0000
# 4 0.0000 0.0000 0.0000 60.2079 0.0000 0.0000
# 5 0.0000 0.0000 0.0000 0.0000 57.3948 0.0000
# 6 0.0000 0.0000 0.0000 0.0000 0.0000 10.3795
#
#
#
# Elastic Compliance Matrix: (Units=1/GPa)
#
#
# Indices 1 2 3 4 5 6 
#
# 1 0.015106 0.000541 -0.003600 0.000000 0.000000 0.000000
# 2 0.000541 0.009335 -0.004079 0.000000 0.000000 0.000000
# 3 -0.003600 -0.004079 0.007679 0.000000 0.000000 0.000000
# 4 0.000000 0.000000 0.000000 0.016609 0.000000 0.000000
# 5 0.000000 0.000000 0.000000 0.000000 0.017423 0.000000
# 6 0.000000 0.000000 0.000000 0.000000 0.000000 0.096344
#
#
# Mechanical properties :
#
#
# Convention : Reuss Voigt Hill
#
# Bulk Modulus (GPa) = 56.04162 77.02229 66.53195
# Shear Modulus (GPa) = 27.36411 43.75042 35.55726
#
# Velocity S-wave (km/s) = 3.31754 4.19485 3.78172
# Velocity P-wave (km/s) = 6.10042 7.37844 6.76966
#
# Compressibility (1/GPa) = 0.01784388
#
# Stress axis : x y z
#
# Youngs Moduli (GPa) = 66.19852 107.11864 130.22495
#
# Poissons Ratio (x) = -0.05790 0.46879
# Poissons Ratio (y) = -0.03578 0.53119
# Poissons Ratio (z) = 0.23831 0.43694
#
# Static dielectric constant tensor:
#      x y z
#    x 2.100950 0.000000 0.000000 
#    y 0.000000 2.099760 0.000000 
#    z 0.000000 0.000000 2.126570 
# 
# From -- ./inp_files/42079.got.cif
#   From: 2010.05.17/outbox.cif.g08.bks.cpg/sg70_22_cif.got.tgz:42079.got - 2010.06.03 15:57:51.
