data_PCOD9517269
_publ_section_title
;
Structure prediction by ZEFSAII (Michael W. Deem and Ramdas Pophale) SiO2 
 PCOD9517269
Probable space group: I M M M
;
_chemical_formula_sum "Si O2"
_cell_formula_units_Z 80
_cell_length_a 12.328648
_cell_length_b 19.192691
_cell_length_c 18.028841
_cell_angle_alpha 90.000000
_cell_angle_beta 90.000000
_cell_angle_gamma 90.000000
_cell_volume 4265.983123
_symmetry_space_group_name_H-M "I M M M"
_symmetry_group_IT_number 71
_symmetry_cell_setting 'orthorhombic'
loop_
_space_group_symop_operation_xyz
x,y,z
-x,-y,z
x,-y,-z
-x,y,-z
-x,-y,-z
x,y,-z
-x,y,z
x,-y,z
1/2+x,1/2+y,1/2+z
1/2-x,1/2-y,1/2+z
1/2+x,1/2-y,1/2-z
1/2-x,1/2+y,1/2-z
1/2-x,1/2-y,1/2-z
1/2+x,1/2+y,1/2-z
1/2-x,1/2+y,1/2+z
1/2+x,1/2-y,1/2+z
loop_
_atom_site_type_symbol
_atom_site_label
_atom_site_fract_x
_atom_site_fract_y
_atom_site_fract_z
Si Si1 0.129017 0.854891 0.361955
Si Si2 0.766190 0.000000 0.412716
Si Si3 0.000000 0.075834 0.871478
Si Si4 0.128284 0.500000 0.229489
Si Si5 0.220481 0.118135 0.205990
Si Si6 0.000000 0.765658 0.083331
Si Si7 0.235291 0.231225 0.913941
O O1 0.178549 0.843756 0.279925
O O2 0.180617 0.793650 0.410191
O O3 0.000000 0.851853 0.359691
O O4 0.166565 0.930497 0.391517
O O5 0.740968 0.000000 0.500000
O O6 0.663873 0.000000 0.357040
O O7 0.110856 0.080517 0.823906
O O8 0.000000 0.149428 0.914986
O O9 0.000000 0.000000 0.909596
O O10 0.186878 0.565594 0.267941
O O11 0.000000 0.500000 0.237802
O O12 0.262414 0.168414 0.141155
O O13 0.884120 0.743882 0.114964
O O14 0.000000 0.738490 0.000000
O O15 0.222858 0.208483 0.000000
#
# Coordination Sequence:
#
# PCOD9517269 Si02
#       7
#    16   8   8   8  16   8  16
#     4  11  22  37  61  86 113 148 190 237 285 340
#     4  10  23  41  60  87 116 144 185 239 290 333
#     4  10  16  29  60  84 107 145 184 233 280 320
#     4  10  22  39  59  84 116 153 188 227 280 341
#     4  10  20  37  58  85 116 148 192 236 279 333
#     4   8  18  35  52  79 116 146 181 228 279 333
#     4  10  21  38  58  83 115 152 190 233 285 336
#
# _framework density 18.753004000000001
#
# number of rings (size 3 to 8) (size 9 to 14) (size 15 to 20)
#    0.000    2.000    2.000    1.500    0.000    3.200 
#    7.200    0.500    0.000    0.600    0.000    0.000 
#    0.000    0.000    0.000    0.000    0.000    0.000 
#
# Total GULP energy -222957.036884 kJ/mol
# GULP energy per Si atom -5573.925922 kJ/mol
# Density = 1.871032 g / cm^3
# Si number density = 18.753004 Si / 1000 Ang^3
#
#
#
# Elastic Constant Matrix: (Units=GPa)
#
#
# Indices 1 2 3 4 5 6 
#
# 1 146.6342 47.3562 43.0038 0.0000 0.0000 0.0000
# 2 47.3562 77.5469 44.0123 0.0000 0.0000 0.0000
# 3 43.0038 44.0123 116.9666 0.0000 0.0000 0.0000
# 4 0.0000 0.0000 0.0000 -1.2357 0.0000 0.0000
# 5 0.0000 0.0000 0.0000 0.0000 14.1031 0.0000
# 6 0.0000 0.0000 0.0000 0.0000 0.0000 -14.8815
#
#
#
# Elastic Compliance Matrix: (Units=1/GPa)
#
#
# Indices 1 2 3 4 5 6 
#
# 1 0.008704 -0.004449 -0.001526 0.000000 0.000000 0.000000
# 2 -0.004449 0.018672 -0.005390 0.000000 0.000000 0.000000
# 3 -0.001526 -0.005390 0.011139 0.000000 0.000000 0.000000
# 4 0.000000 0.000000 0.000000 -0.809269 0.000000 0.000000
# 5 0.000000 0.000000 0.000000 0.000000 0.070906 0.000000
# 6 0.000000 0.000000 0.000000 0.000000 0.000000 -0.067197
#
#
# Mechanical properties :
#
#
# Convention : Reuss Voigt Hill
#
# Bulk Modulus (GPa) = 63.35568 67.76581 65.56074
# Shear Modulus (GPa) = -6.76540 13.38221 3.30841
#
# Velocity S-wave (km/s) = -1.90144 2.67423 1.32967
# Velocity P-wave (km/s) = 5.38860 6.76386 6.11501
#
# Compressibility (1/GPa) = 0.01578390
#
# Stress axis : x y z
#
# Youngs Moduli (GPa) = 114.88761 53.55717 89.77784
#
# Poissons Ratio (x) = 0.23830 0.13700
# Poissons Ratio (y) = 0.51118 0.48390
# Poissons Ratio (z) = 0.17531 0.28867
#
# Static dielectric constant tensor:
#      x y z
#    x 1.644230 0.000000 0.000000 
#    y 0.000000 1.657170 0.000000 
#    z 0.000000 0.000000 1.665560 
# 
# From -- ./inp_files/43305.got.cif
#   From: 2010.05.17/outbox.cif.g08.bks.cpg/sg71_22_cif.got.tgz:43305.got - 2010.06.03 16:22:01.
