data_PCOD9517022
_publ_section_title
;
Structure prediction by ZEFSAII (Michael W. Deem and Ramdas Pophale) SiO2 
 PCOD9517022
Probable space group: F D D D
;
_chemical_formula_sum "Si O2"
_cell_formula_units_Z 176
_cell_length_a 24.616929
_cell_length_b 25.829663
_cell_length_c 13.650525
_cell_angle_alpha 90.000000
_cell_angle_beta 90.000000
_cell_angle_gamma 90.000000
_cell_volume 8679.645099
_symmetry_space_group_name_H-M "F D D D"
_symmetry_group_IT_number 70
_space_group.IT_coordinate_system_code '2'
_symmetry_cell_setting 'orthorhombic'
loop_
_space_group_symop_operation_xyz
x,y,z
1/4-x,1/4-y,z
x,1/4-y,1/4-z
1/4-x,y,1/4-z
-x,-y,-z
3/4+x,3/4+y,-z
-x,3/4+y,3/4+z
3/4+x,-y,3/4+z
x,1/2+y,1/2+z
1/4-x,3/4-y,1/2+z
x,3/4-y,3/4-z
1/4-x,1/2+y,3/4-z
-x,1/2-y,1/2-z
3/4+x,1/4+y,1/2-z
-x,1/4+y,1/4+z
3/4+x,1/2-y,1/4+z
1/2+x,y,1/2+z
3/4-x,1/4-y,1/2+z
1/2+x,1/4-y,3/4-z
3/4-x,y,3/4-z
1/2-x,-y,1/2-z
1/4+x,3/4+y,1/2-z
1/2-x,3/4+y,1/4+z
1/4+x,-y,1/4+z
1/2+x,1/2+y,z
3/4-x,3/4-y,z
1/2+x,3/4-y,1/4-z
3/4-x,1/2+y,1/4-z
1/2-x,1/2-y,-z
1/4+x,1/4+y,-z
1/2-x,1/4+y,3/4+z
1/4+x,1/2-y,3/4+z
loop_
_atom_site_type_symbol
_atom_site_label
_atom_site_fract_x
_atom_site_fract_y
_atom_site_fract_z
Si Si1 0.641141 0.212983 0.731639
Si Si2 0.375000 0.875000 0.110768
Si Si3 0.726769 0.098750 0.019600
Si Si4 0.798597 0.711240 0.032139
Si Si5 0.689432 0.368986 0.138256
Si Si6 0.019788 0.477423 0.248064
O O1 0.625000 0.191488 0.625000
O O2 0.625008 0.174200 0.817878
O O3 0.604988 0.264052 0.746011
O O4 0.705027 0.222869 0.737198
O O5 0.322129 0.876913 0.043321
O O6 0.729180 0.125000 0.125000
O O7 0.781191 0.109788 0.958332
O O8 0.717378 0.037076 0.024593
O O9 0.796698 0.709982 0.149260
O O10 0.750000 0.750000 0.000000
O O11 0.792358 0.656942 0.976988
O O12 0.625000 0.369336 0.125000
O O13 0.710303 0.311823 0.165035
#
# Coordination Sequence:
#
# PCOD9517022 Si02
#       6
#    32  16  32  32  32  32
#     4  12  23  40  75 110 141 181 236 300 366 428
#     4  12  24  46  70 100 140 186 242 298 348 426
#     4  12  27  49  72 101 145 196 246 295 352 430
#     4  12  22  43  73 105 148 179 231 299 369 437
#     4  12  27  47  72 109 145 189 241 299 368 432
#     4  12  26  45  75 106 142 192 236 295 371 436
#
# _framework density 20.277325999999999
#
# number of rings (size 3 to 8) (size 9 to 14) (size 15 to 20)
#    0.000    0.000    7.273    2.727    0.000    6.545 
#    0.000    0.000    0.000    0.000    0.000    0.000 
#    0.000    0.000    0.000    0.000    0.000    0.000 
#
# Total GULP energy -246373.447950 kJ/mol
# GULP energy per Si atom -5599.396544 kJ/mol
# Density = 2.023117 g / cm^3
# Si number density = 20.277326 Si / 1000 Ang^3
#
#
#
# Elastic Constant Matrix: (Units=GPa)
#
#
# Indices 1 2 3 4 5 6 
#
# 1 119.5723 15.2252 23.0354 0.0000 0.0000 0.0000
# 2 15.2252 96.1322 62.7121 0.0000 0.0000 0.0000
# 3 23.0354 62.7121 126.4939 0.0000 0.0000 0.0000
# 4 0.0000 0.0000 0.0000 27.2680 0.0000 0.0000
# 5 0.0000 0.0000 0.0000 0.0000 24.2683 0.0000
# 6 0.0000 0.0000 0.0000 0.0000 0.0000 20.7299
#
#
#
# Elastic Compliance Matrix: (Units=1/GPa)
#
#
# Indices 1 2 3 4 5 6 
#
# 1 0.008684 -0.000508 -0.001330 0.000000 0.000000 0.000000
# 2 -0.000508 0.015405 -0.007545 0.000000 0.000000 0.000000
# 3 -0.001330 -0.007545 0.011888 0.000000 0.000000 0.000000
# 4 0.000000 0.000000 0.000000 0.036673 0.000000 0.000000
# 5 0.000000 0.000000 0.000000 0.000000 0.041206 0.000000
# 6 0.000000 0.000000 0.000000 0.000000 0.000000 0.048240
#
#
# Mechanical properties :
#
#
# Convention : Reuss Voigt Hill
#
# Bulk Modulus (GPa) = 58.09838 60.46044 59.27941
# Shear Modulus (GPa) = 26.79572 30.53495 28.66534
#
# Velocity S-wave (km/s) = 3.63914 3.88476 3.76395
# Velocity P-wave (km/s) = 6.80969 7.07130 6.94173
#
# Compressibility (1/GPa) = 0.01721218
#
# Stress axis : x y z
#
# Youngs Moduli (GPa) = 115.15481 64.91583 84.11802
#
# Poissons Ratio (x) = 0.03298 0.11184
# Poissons Ratio (y) = 0.05850 0.63464
# Poissons Ratio (z) = 0.15310 0.48977
#
# Static dielectric constant tensor:
#      x y z
#    x 1.700270 0.000000 0.000000 
#    y 0.000000 1.725220 0.000000 
#    z 0.000000 0.000000 1.709490 
# 
# From -- ./inp_files/28737.got.cif
#   From: 2010.05.17/outbox.cif.g08.bks.cpg/sg70_15_cif.got.tgz:28737.got - 2010.06.03 15:57:51.
