data_PCOD9517243
_publ_section_title
;
Structure prediction by ZEFSAII (Michael W. Deem and Ramdas Pophale) SiO2 
 PCOD9517243
Probable space group: I M M M
;
_chemical_formula_sum "Si O2"
_cell_formula_units_Z 80
_cell_length_a 19.720353
_cell_length_b 8.465075
_cell_length_c 34.470870
_cell_angle_alpha 90.000000
_cell_angle_beta 90.000000
_cell_angle_gamma 90.000000
_cell_volume 5754.369422
_symmetry_space_group_name_H-M "I M M M"
_symmetry_group_IT_number 71
_symmetry_cell_setting 'orthorhombic'
loop_
_space_group_symop_operation_xyz
x,y,z
-x,-y,z
x,-y,-z
-x,y,-z
-x,-y,-z
x,y,-z
-x,y,z
x,-y,z
1/2+x,1/2+y,1/2+z
1/2-x,1/2-y,1/2+z
1/2+x,1/2-y,1/2-z
1/2-x,1/2+y,1/2-z
1/2-x,1/2-y,1/2-z
1/2+x,1/2+y,1/2-z
1/2-x,1/2+y,1/2+z
1/2+x,1/2-y,1/2+z
loop_
_atom_site_type_symbol
_atom_site_label
_atom_site_fract_x
_atom_site_fract_y
_atom_site_fract_z
Si Si1 0.000000 0.188821 0.756612
Si Si2 0.078765 0.807508 0.543563
Si Si3 0.136542 0.808965 0.623287
Si Si4 0.000000 0.192071 0.667601
Si Si5 0.225213 0.311168 0.690290
Si Si6 0.854558 0.311256 0.232916
O O1 0.929625 0.247526 0.774472
O O2 0.000000 0.247105 0.711852
O O3 0.000000 0.000000 0.756436
O O4 0.097017 0.755564 0.500000
O O5 0.126732 0.756442 0.578785
O O6 0.000000 0.762536 0.551013
O O7 0.079245 0.000000 0.543593
O O8 0.197925 0.745295 0.648937
O O9 0.067626 0.758537 0.645343
O O10 0.139358 0.000000 0.623793
O O11 0.000000 0.000000 0.667725
O O12 0.226947 0.500000 0.691377
O O13 0.173466 0.256141 0.724660
O O14 0.298431 0.246045 0.702409
O O15 0.856176 0.500000 0.233330
#
# Coordination Sequence:
#
# PCOD9517243 Si02
#       6
#     8  16  16   8  16  16
#     4  11  19  29  45  62  83 107 135 173 212 249
#     4   8  13  21  36  59  83 106 137 176 211 244
#     4  10  16  26  42  59  80 108 141 177 214 249
#     4   9  16  23  36  59  80 103 139 174 206 243
#     4  10  20  31  42  58  80 106 138 175 213 249
#     4  10  20  32  44  59  80 106 137 172 210 250
#
# _framework density 13.902480000000001
#
# number of rings (size 3 to 8) (size 9 to 14) (size 15 to 20)
#    0.000    2.400    3.000    2.100    0.000    1.600 
#    0.000    0.500    0.000    0.600    0.000    1.400 
#    0.000    0.000    0.000    0.900    0.000   18.600 
#
# Total GULP energy -222937.389639 kJ/mol
# GULP energy per Si atom -5573.434741 kJ/mol
# Density = 1.387084 g / cm^3
# Si number density = 13.902480 Si / 1000 Ang^3
#
#
#
# Elastic Constant Matrix: (Units=GPa)
#
#
# Indices 1 2 3 4 5 6 
#
# 1 105.0738 24.0730 55.4468 0.0000 0.0000 0.0000
# 2 24.0730 22.9046 18.6842 0.0000 0.0000 0.0000
# 3 55.4468 18.6842 101.1304 0.0000 0.0000 0.0000
# 4 0.0000 0.0000 0.0000 11.4375 0.0000 0.0000
# 5 0.0000 0.0000 0.0000 0.0000 20.7720 0.0000
# 6 0.0000 0.0000 0.0000 0.0000 0.0000 16.2934
#
#
#
# Elastic Compliance Matrix: (Units=1/GPa)
#
#
# Indices 1 2 3 4 5 6 
#
# 1 0.015422 -0.010964 -0.006430 0.000000 0.000000 0.000000
# 2 -0.010964 0.059201 -0.004927 0.000000 0.000000 0.000000
# 3 -0.006430 -0.004927 0.014324 0.000000 0.000000 0.000000
# 4 0.000000 0.000000 0.000000 0.087432 0.000000 0.000000
# 5 0.000000 0.000000 0.000000 0.000000 0.048142 0.000000
# 6 0.000000 0.000000 0.000000 0.000000 0.000000 0.061374
#
#
# Mechanical properties :
#
#
# Convention : Reuss Voigt Hill
#
# Bulk Modulus (GPa) = 22.56994 47.27962 34.92478
# Shear Modulus (GPa) = 14.48001 18.42757 16.45379
#
# Velocity S-wave (km/s) = 3.23079 3.64467 3.44396
# Velocity P-wave (km/s) = 5.49428 7.19676 6.40236
#
# Compressibility (1/GPa) = 0.04430672
#
# Stress axis : x y z
#
# Youngs Moduli (GPa) = 64.84285 16.89160 69.81435
#
# Poissons Ratio (x) = 0.18519 0.44889
# Poissons Ratio (y) = 0.71091 0.34395
# Poissons Ratio (z) = 0.41693 0.08322
#
# Static dielectric constant tensor:
#      x y z
#    x 1.441430 0.000000 0.000000 
#    y 0.000000 1.473060 0.000000 
#    z 0.000000 0.000000 1.466810 
# 
# From -- ./inp_files/70299.got.cif
#   From: 2010.05.17/outbox.cif.g08.bks.cpg/sg71_36_cif.got.tgz:70299.got - 2010.06.03 16:22:01.
