data_PCOD9517723
_publ_section_title
;
Structure prediction by ZEFSAII (Michael W. Deem and Ramdas Pophale) SiO2 
 PCOD9517723
Probable space group: I M M M
;
_chemical_formula_sum "Si O2"
_cell_formula_units_Z 88
_cell_length_a 23.331312
_cell_length_b 23.367859
_cell_length_c 7.413071
_cell_angle_alpha 90.000000
_cell_angle_beta 90.000000
_cell_angle_gamma 90.000000
_cell_volume 4041.627133
_symmetry_space_group_name_H-M "I M M M"
_symmetry_group_IT_number 71
_symmetry_cell_setting 'orthorhombic'
loop_
_space_group_symop_operation_xyz
x,y,z
-x,-y,z
x,-y,-z
-x,y,-z
-x,-y,-z
x,y,-z
-x,y,z
x,-y,z
1/2+x,1/2+y,1/2+z
1/2-x,1/2-y,1/2+z
1/2+x,1/2-y,1/2-z
1/2-x,1/2+y,1/2-z
1/2-x,1/2-y,1/2-z
1/2+x,1/2+y,1/2-z
1/2-x,1/2+y,1/2+z
1/2+x,1/2-y,1/2+z
loop_
_atom_site_type_symbol
_atom_site_label
_atom_site_fract_x
_atom_site_fract_y
_atom_site_fract_z
Si Si1 0.878622 0.155326 0.713182
Si Si2 0.842204 0.405266 0.279055
Si Si3 0.066420 0.500000 0.280042
Si Si4 0.000000 0.862867 0.704131
Si Si5 0.784586 0.061914 0.217124
Si Si6 0.126330 0.283606 0.292256
Si Si7 0.000000 0.270984 0.216775
O O1 0.890331 0.163476 0.500000
O O2 0.824982 0.114128 0.730641
O O3 0.868058 0.219595 0.787370
O O4 0.937219 0.126229 0.787110
O O5 0.843743 0.404380 0.500000
O O6 0.895826 0.444708 0.223945
O O7 0.781136 0.430843 0.224594
O O8 0.844281 0.339687 0.214008
O O9 0.065486 0.500000 0.500000
O O10 0.000000 0.500000 0.220644
O O11 0.000000 0.793427 0.706692
O O12 0.000000 0.886435 0.500000
O O13 0.806593 0.000000 0.279388
O O14 0.783822 0.061600 0.000000
O O15 0.145386 0.279314 0.500000
O O16 0.058697 0.298078 0.283274
O O17 0.000000 0.268784 0.000000
#
# Coordination Sequence:
#
# PCOD9517723 Si02
#       7
#    16  16   8   8  16  16   8
#     4   9  18  33  53  77 103 132 169 209 255 313
#     4   9  17  31  50  74 105 136 172 218 260 297
#     4   9  16  26  46  80 108 129 172 225 257 286
#     4   8  16  34  55  75 103 134 166 209 253 297
#     4  10  20  35  53  74 103 137 171 212 263 312
#     4   9  18  32  51  75 102 136 174 215 258 301
#     4  10  18  28  46  74 108 138 167 204 254 313
#
# _framework density 21.773409999999998
#
# number of rings (size 3 to 8) (size 9 to 14) (size 15 to 20)
#    0.000    2.818    0.909    1.909    1.273    4.000 
#    0.000    1.364    0.000    2.727    0.000    0.636 
#    0.000    0.000    0.000    0.000    0.000    0.000 
#
# Total GULP energy -245247.478636 kJ/mol
# GULP energy per Si atom -5573.806333 kJ/mol
# Density = 2.172385 g / cm^3
# Si number density = 21.773410 Si / 1000 Ang^3
#
#
#
# Elastic Constant Matrix: (Units=GPa)
#
#
# Indices 1 2 3 4 5 6 
#
# 1 123.3639 75.3713 -1.7941 0.0000 0.0000 0.0000
# 2 75.3713 141.6845 1.7615 0.0000 0.0000 0.0000
# 3 -1.7941 1.7615 77.1030 0.0000 0.0000 0.0000
# 4 0.0000 0.0000 0.0000 -4.1013 0.0000 0.0000
# 5 0.0000 0.0000 0.0000 0.0000 7.2107 0.0000
# 6 0.0000 0.0000 0.0000 0.0000 0.0000 -33.9119
#
#
#
# Elastic Compliance Matrix: (Units=1/GPa)
#
#
# Indices 1 2 3 4 5 6 
#
# 1 0.012023 -0.006401 0.000426 0.000000 0.000000 0.000000
# 2 -0.006401 0.010468 -0.000388 0.000000 0.000000 0.000000
# 3 0.000426 -0.000388 0.012988 0.000000 0.000000 0.000000
# 4 0.000000 0.000000 0.000000 -0.243826 0.000000 0.000000
# 5 0.000000 0.000000 0.000000 0.000000 0.138682 0.000000
# 6 0.000000 0.000000 0.000000 0.000000 0.000000 -0.029488
#
#
# Mechanical properties :
#
#
# Convention : Reuss Voigt Hill
#
# Bulk Modulus (GPa) = 43.95022 54.75874 49.35448
# Shear Modulus (GPa) = -63.41869 11.62703 -25.89583
#
# Velocity S-wave (km/s) = -5.40277 2.31335 -3.45241
# Velocity P-wave (km/s) = 4.32328 5.68678 2.61234
#
# Compressibility (1/GPa) = 0.02275302
#
# Stress axis : x y z
#
# Youngs Moduli (GPa) = 83.17224 95.52927 76.99151
#
# Poissons Ratio (x) = 0.61151 -0.03280
# Poissons Ratio (y) = 0.53241 0.02988
# Poissons Ratio (z) = -0.03543 0.03707
#
# Static dielectric constant tensor:
#      x y z
#    x 1.807520 0.000000 0.000000 
#    y 0.000000 1.771880 0.000000 
#    z 0.000000 0.000000 1.909100 
# 
# From -- ./inp_files/10561.got.cif
#   From: 2010.05.17/outbox.cif.g08.bks.cpg/sg71_6_cif.got.tgz:10561.got - 2010.06.03 16:22:01.
