data_PCOD9517705
_publ_section_title
;
Structure prediction by ZEFSAII (Michael W. Deem and Ramdas Pophale) SiO2 
 PCOD9517705
Probable space group: I M M M
;
_chemical_formula_sum "Si O2"
_cell_formula_units_Z 120
_cell_length_a 17.725789
_cell_length_b 23.013741
_cell_length_c 19.098410
_cell_angle_alpha 90.000000
_cell_angle_beta 90.000000
_cell_angle_gamma 90.000000
_cell_volume 7790.942677
_symmetry_space_group_name_H-M "I M M M"
_symmetry_group_IT_number 71
_symmetry_cell_setting 'orthorhombic'
loop_
_space_group_symop_operation_xyz
x,y,z
-x,-y,z
x,-y,-z
-x,y,-z
-x,-y,-z
x,y,-z
-x,y,z
x,-y,z
1/2+x,1/2+y,1/2+z
1/2-x,1/2-y,1/2+z
1/2+x,1/2-y,1/2-z
1/2-x,1/2+y,1/2-z
1/2-x,1/2-y,1/2-z
1/2+x,1/2+y,1/2-z
1/2-x,1/2+y,1/2+z
1/2+x,1/2-y,1/2+z
loop_
_atom_site_type_symbol
_atom_site_label
_atom_site_fract_x
_atom_site_fract_y
_atom_site_fract_z
Si Si1 0.860232 0.835573 0.082420
Si Si2 0.088626 0.933415 0.811275
Si Si3 0.087339 0.287167 0.142829
Si Si4 0.698294 0.785918 0.078955
Si Si5 0.000000 0.069370 0.416801
Si Si6 0.089749 0.252038 0.302090
Si Si7 0.861660 0.880691 0.328561
Si Si8 0.270951 0.843796 0.579961
O O1 0.890425 0.888155 0.128550
O O2 0.899067 0.775407 0.106330
O O3 0.770446 0.826343 0.093702
O O4 0.873189 0.844069 0.000000
O O5 0.134744 0.918697 0.741321
O O6 0.000000 0.925720 0.793199
O O7 0.100035 0.000000 0.832800
O O8 0.104851 0.277203 0.224925
O O9 0.145659 0.332268 0.109212
O O10 0.000000 0.303551 0.135198
O O11 0.634989 0.786468 0.138154
O O12 0.732509 0.720483 0.078771
O O13 0.670248 0.797445 0.000000
O O14 0.926544 0.097235 0.381078
O O15 0.000000 0.079986 0.500000
O O16 0.000000 0.000000 0.404562
O O17 0.117624 0.185241 0.305669
O O18 0.000000 0.252797 0.313988
O O19 0.782372 0.880345 0.368876
O O20 0.271712 0.865202 0.500000
#
# Coordination Sequence:
#
# PCOD9517705 Si02
#       8
#    16  16  16  16   8  16  16  16
#     4  10  20  33  49  67  92 129 166 199 237 279
#     4  11  22  34  49  69  93 124 164 205 241 276
#     4  10  19  30  47  72  99 127 161 195 234 283
#     4   8  17  30  44  66  95 124 158 195 233 281
#     4  11  22  34  50  70  95 129 165 205 245 277
#     4  10  18  28  45  70  96 128 161 190 229 286
#     4  11  19  33  49  66  95 127 164 199 234 283
#     4   9  19  31  46  69  94 125 160 194 233 283
#
# _framework density 15.402501000000001
#
# number of rings (size 3 to 8) (size 9 to 14) (size 15 to 20)
#    0.000    2.067    2.667    2.400    1.867    4.533 
#    0.000    0.667    0.000    0.000    0.000    0.000 
#    0.000    3.733    0.000    9.467    0.000    0.000 
#
# Total GULP energy -334671.074112 kJ/mol
# GULP energy per Si atom -5577.851235 kJ/mol
# Density = 1.536744 g / cm^3
# Si number density = 15.402501 Si / 1000 Ang^3
#
#
#
# Elastic Constant Matrix: (Units=GPa)
#
#
# Indices 1 2 3 4 5 6 
#
# 1 54.0637 10.4832 37.6846 0.0000 0.0000 0.0000
# 2 10.4832 30.4889 10.7756 0.0000 0.0000 0.0000
# 3 37.6846 10.7756 78.8966 0.0000 0.0000 0.0000
# 4 0.0000 0.0000 0.0000 8.5656 0.0000 0.0000
# 5 0.0000 0.0000 0.0000 0.0000 27.4636 0.0000
# 6 0.0000 0.0000 0.0000 0.0000 0.0000 16.3581
#
#
#
# Elastic Compliance Matrix: (Units=1/GPa)
#
#
# Indices 1 2 3 4 5 6 
#
# 1 0.028504 -0.005242 -0.012899 0.000000 0.000000 0.000000
# 2 -0.005242 0.035426 -0.002335 0.000000 0.000000 0.000000
# 3 -0.012899 -0.002335 0.019155 0.000000 0.000000 0.000000
# 4 0.000000 0.000000 0.000000 0.116746 0.000000 0.000000
# 5 0.000000 0.000000 0.000000 0.000000 0.036412 0.000000
# 6 0.000000 0.000000 0.000000 0.000000 0.000000 0.061132
#
#
# Mechanical properties :
#
#
# Convention : Reuss Voigt Hill
#
# Bulk Modulus (GPa) = 23.73371 31.25957 27.49664
# Shear Modulus (GPa) = 14.18959 17.44451 15.81705
#
# Velocity S-wave (km/s) = 3.03851 3.36903 3.20803
# Velocity P-wave (km/s) = 5.26806 5.95592 5.62252
#
# Compressibility (1/GPa) = 0.04213416
#
# Stress axis : x y z
#
# Youngs Moduli (GPa) = 35.08251 28.22754 52.20620
#
# Poissons Ratio (x) = 0.14797 0.67341
# Poissons Ratio (y) = 0.18390 0.12189
# Poissons Ratio (z) = 0.45253 0.06590
#
# Static dielectric constant tensor:
#      x y z
#    x 1.511620 0.000000 0.000000 
#    y 0.000000 1.486700 0.000000 
#    z 0.000000 0.000000 1.521540 
# 
# From -- ./inp_files/46467.got.cif
#   From: 2010.05.17/outbox.cif.g08.bks.cpg/sg71_24_cif.got.tgz:46467.got - 2010.06.03 16:22:01.
