data_PCOD9517097
_publ_section_title
;
Structure prediction by ZEFSAII (Michael W. Deem and Ramdas Pophale) SiO2 
 PCOD9517097
Probable space group: F D D D
;
_chemical_formula_sum "Si O2"
_cell_formula_units_Z 112
_cell_length_a 22.798084
_cell_length_b 13.955104
_cell_length_c 14.305883
_cell_angle_alpha 90.000000
_cell_angle_beta 90.000000
_cell_angle_gamma 90.000000
_cell_volume 4551.411429
_symmetry_space_group_name_H-M "F D D D"
_symmetry_group_IT_number 70
_space_group.IT_coordinate_system_code '2'
_symmetry_cell_setting 'orthorhombic'
loop_
_space_group_symop_operation_xyz
x,y,z
1/4-x,1/4-y,z
x,1/4-y,1/4-z
1/4-x,y,1/4-z
-x,-y,-z
3/4+x,3/4+y,-z
-x,3/4+y,3/4+z
3/4+x,-y,3/4+z
x,1/2+y,1/2+z
1/4-x,3/4-y,1/2+z
x,3/4-y,3/4-z
1/4-x,1/2+y,3/4-z
-x,1/2-y,1/2-z
3/4+x,1/4+y,1/2-z
-x,1/4+y,1/4+z
3/4+x,1/2-y,1/4+z
1/2+x,y,1/2+z
3/4-x,1/4-y,1/2+z
1/2+x,1/4-y,3/4-z
3/4-x,y,3/4-z
1/2-x,-y,1/2-z
1/4+x,3/4+y,1/2-z
1/2-x,3/4+y,1/4+z
1/4+x,-y,1/4+z
1/2+x,1/2+y,z
3/4-x,3/4-y,z
1/2+x,3/4-y,1/4-z
3/4-x,1/2+y,1/4-z
1/2-x,1/2-y,-z
1/4+x,1/4+y,-z
1/2-x,1/4+y,3/4+z
1/4+x,1/2-y,3/4+z
loop_
_atom_site_type_symbol
_atom_site_label
_atom_site_fract_x
_atom_site_fract_y
_atom_site_fract_z
Si Si1 0.875000 0.875000 0.173158
Si Si2 0.183054 0.916660 0.600834
Si Si3 0.058397 0.962306 0.946040
Si Si4 0.508948 0.095642 0.227685
O O1 0.847304 0.791431 0.107580
O O2 0.930912 0.852266 0.238851
O O3 0.125000 0.975451 0.625000
O O4 0.158174 0.835474 0.532242
O O5 0.216278 0.872243 0.688477
O O6 0.225866 0.984562 0.540831
O O7 0.045405 0.875000 0.875000
O O8 0.000000 0.000000 0.000000
O O9 0.487765 0.125000 0.125000
#
# Coordination Sequence:
#
# PCOD9517097 Si02
#       4
#    16  32  32  32
#     4  12  25  46  85 116 170 208 279 356 413 512
#     4  12  27  49  78 117 162 213 275 338 414 506
#     4  12  26  50  82 120 169 219 282 346 431 506
#     4  12  27  49  79 119 160 214 275 343 420 499
#
# _framework density 24.607752000000001
#
# number of rings (size 3 to 8) (size 9 to 14) (size 15 to 20)
#    0.000    0.000    5.714    3.000    4.000    3.429 
#    0.000    0.000    0.000    0.000    0.000    0.000 
#    0.000    0.000    0.000    0.000    0.000    0.000 
#
# Total GULP energy -156422.231110 kJ/mol
# GULP energy per Si atom -5586.508254 kJ/mol
# Density = 2.455174 g / cm^3
# Si number density = 24.607752 Si / 1000 Ang^3
#
#
#
# Elastic Constant Matrix: (Units=GPa)
#
#
# Indices 1 2 3 4 5 6 
#
# 1 133.1035 45.9727 71.8624 0.0000 0.0000 0.0000
# 2 45.9727 134.1529 95.5971 0.0000 0.0000 0.0000
# 3 71.8624 95.5971 230.5272 0.0000 0.0000 0.0000
# 4 0.0000 0.0000 0.0000 66.1294 0.0000 0.0000
# 5 0.0000 0.0000 0.0000 0.0000 51.6902 0.0000
# 6 0.0000 0.0000 0.0000 0.0000 0.0000 29.2491
#
#
#
# Elastic Compliance Matrix: (Units=1/GPa)
#
#
# Indices 1 2 3 4 5 6 
#
# 1 0.009265 -0.001585 -0.002231 0.000000 0.000000 0.000000
# 2 -0.001585 0.010852 -0.004006 0.000000 0.000000 0.000000
# 3 -0.002231 -0.004006 0.006695 0.000000 0.000000 0.000000
# 4 0.000000 0.000000 0.000000 0.015122 0.000000 0.000000
# 5 0.000000 0.000000 0.000000 0.000000 0.019346 0.000000
# 6 0.000000 0.000000 0.000000 0.000000 0.000000 0.034189
#
#
# Mechanical properties :
#
#
# Convention : Reuss Voigt Hill
#
# Bulk Modulus (GPa) = 89.54719 102.73867 96.14293
# Shear Modulus (GPa) = 43.54061 48.37050 45.95556
#
# Velocity S-wave (km/s) = 4.21097 4.43839 4.32617
# Velocity P-wave (km/s) = 7.75318 8.25269 8.00683
#
# Compressibility (1/GPa) = 0.01116730
#
# Stress axis : x y z
#
# Youngs Moduli (GPa) = 107.93443 92.14725 149.37535
#
# Poissons Ratio (x) = 0.14609 0.33321
# Poissons Ratio (y) = 0.17112 0.59841
# Poissons Ratio (z) = 0.24077 0.36915
#
# Static dielectric constant tensor:
#      x y z
#    x 2.031790 0.000000 0.000000 
#    y 0.000000 2.136580 0.000000 
#    z 0.000000 0.000000 2.004080 
# 
# From -- ./inp_files/28292.got.cif
#   From: 2010.05.17/outbox.cif.g08.bks.cpg/sg70_15_cif.got.tgz:28292.got - 2010.06.03 15:57:51.
