data_PCOD9517504
_publ_section_title
;
Structure prediction by ZEFSAII (Michael W. Deem and Ramdas Pophale) SiO2 
 PCOD9517504
Probable space group: I M M M
;
_chemical_formula_sum "Si O2"
_cell_formula_units_Z 64
_cell_length_a 22.319352
_cell_length_b 8.076830
_cell_length_c 18.072844
_cell_angle_alpha 90.000000
_cell_angle_beta 90.000000
_cell_angle_gamma 90.000000
_cell_volume 3257.984572
_symmetry_space_group_name_H-M "I M M M"
_symmetry_group_IT_number 71
_symmetry_cell_setting 'orthorhombic'
loop_
_space_group_symop_operation_xyz
x,y,z
-x,-y,z
x,-y,-z
-x,y,-z
-x,-y,-z
x,y,-z
-x,y,z
x,-y,z
1/2+x,1/2+y,1/2+z
1/2-x,1/2-y,1/2+z
1/2+x,1/2-y,1/2-z
1/2-x,1/2+y,1/2-z
1/2-x,1/2-y,1/2-z
1/2+x,1/2+y,1/2-z
1/2-x,1/2+y,1/2+z
1/2+x,1/2-y,1/2+z
loop_
_atom_site_type_symbol
_atom_site_label
_atom_site_fract_x
_atom_site_fract_y
_atom_site_fract_z
Si Si1 0.625206 0.684088 0.158311
Si Si2 0.118860 0.696004 0.174497
Si Si3 0.000000 0.800587 0.086437
Si Si4 0.929226 0.500000 0.581898
Si Si5 0.752988 0.802153 0.163587
O O1 0.605235 0.500000 0.138307
O O2 0.619088 0.707507 0.247197
O O3 0.589723 0.834663 0.123450
O O4 0.694200 0.711915 0.133305
O O5 0.120817 0.500000 0.190282
O O6 0.181656 0.747128 0.135972
O O7 0.059865 0.737201 0.127544
O O8 0.000000 0.000000 0.089896
O O9 0.000000 0.750610 0.000000
O O10 0.902051 0.500000 0.500000
O O11 0.000000 0.500000 0.576904
O O12 0.750000 0.750000 0.250000
O O13 0.746239 0.000000 0.157334
#
# Coordination Sequence:
#
# PCOD9517504 Si02
#       5
#    16  16   8   8  16
#     4  11  21  39  66  96 126 161 212 262 310 371
#     4  11  21  36  61  93 126 164 213 262 309 364
#     4  11  25  43  59  85 127 172 217 259 311 377
#     4  11  26  46  64  90 128 163 203 257 323 385
#     4  10  17  32  57  92 126 155 203 261 310 354
#
# _framework density 19.644045999999999
#
# number of rings (size 3 to 8) (size 9 to 14) (size 15 to 20)
#    0.000    1.250    2.500    7.875    1.750    2.000 
#    0.000    2.500    0.000    3.000    0.000    0.000 
#    0.000    0.000    0.000    0.000    0.000    0.000 
#
# Total GULP energy -178654.153067 kJ/mol
# GULP energy per Si atom -5582.942283 kJ/mol
# Density = 1.959934 g / cm^3
# Si number density = 19.644046 Si / 1000 Ang^3
#
#
#
# Elastic Constant Matrix: (Units=GPa)
#
#
# Indices 1 2 3 4 5 6 
#
# 1 134.6218 31.6244 40.6223 0.0000 0.0000 0.0000
# 2 31.6244 165.2064 24.4881 0.0000 0.0000 0.0000
# 3 40.6223 24.4881 51.0323 0.0000 0.0000 0.0000
# 4 0.0000 0.0000 0.0000 6.2788 0.0000 0.0000
# 5 0.0000 0.0000 0.0000 0.0000 -62.7596 0.0000
# 6 0.0000 0.0000 0.0000 0.0000 0.0000 37.2404
#
#
#
# Elastic Compliance Matrix: (Units=1/GPa)
#
#
# Indices 1 2 3 4 5 6 
#
# 1 0.009869 -0.000780 -0.007481 0.000000 0.000000 0.000000
# 2 -0.000780 0.006578 -0.002536 0.000000 0.000000 0.000000
# 3 -0.007481 -0.002536 0.026767 0.000000 0.000000 0.000000
# 4 0.000000 0.000000 0.000000 0.159266 0.000000 0.000000
# 5 0.000000 0.000000 0.000000 0.000000 -0.015934 0.000000
# 6 0.000000 0.000000 0.000000 0.000000 0.000000 0.026853
#
#
# Mechanical properties :
#
#
# Convention : Reuss Voigt Hill
#
# Bulk Modulus (GPa) = 46.25289 60.48112 53.36701
# Shear Modulus (GPa) = 20.64406 13.09364 16.86885
#
# Velocity S-wave (km/s) = 3.24529 2.58455 2.93358
# Velocity P-wave (km/s) = 6.13507 6.30571 6.22097
#
# Compressibility (1/GPa) = 0.02162027
#
# Stress axis : x y z
#
# Youngs Moduli (GPa) = 101.32699 152.01685 37.35883
#
# Poissons Ratio (x) = 0.11860 0.27950
# Poissons Ratio (y) = 0.07906 0.09472
# Poissons Ratio (z) = 0.75807 0.38544
#
# Static dielectric constant tensor:
#      x y z
#    x 1.719500 0.000000 0.000000 
#    y 0.000000 1.662450 0.000000 
#    z 0.000000 0.000000 1.750440 
# 
# From -- ./inp_files/46816.got.cif
#   From: 2010.05.17/outbox.cif.g08.bks.cpg/sg71_24_cif.got.tgz:46816.got - 2010.06.03 16:22:01.
