data_PCOD9517554
_publ_section_title
;
Structure prediction by ZEFSAII (Michael W. Deem and Ramdas Pophale) SiO2 
 PCOD9517554
Probable space group: I M M M
;
_chemical_formula_sum "Si O2"
_cell_formula_units_Z 104
_cell_length_a 13.437186
_cell_length_b 21.423449
_cell_length_c 19.558684
_cell_angle_alpha 90.000000
_cell_angle_beta 90.000000
_cell_angle_gamma 90.000000
_cell_volume 5630.375359
_symmetry_space_group_name_H-M "I M M M"
_symmetry_group_IT_number 71
_symmetry_cell_setting 'orthorhombic'
loop_
_space_group_symop_operation_xyz
x,y,z
-x,-y,z
x,-y,-z
-x,y,-z
-x,-y,-z
x,y,-z
-x,y,z
x,-y,z
1/2+x,1/2+y,1/2+z
1/2-x,1/2-y,1/2+z
1/2+x,1/2-y,1/2-z
1/2-x,1/2+y,1/2-z
1/2-x,1/2-y,1/2-z
1/2+x,1/2+y,1/2-z
1/2-x,1/2+y,1/2+z
1/2+x,1/2-y,1/2+z
loop_
_atom_site_type_symbol
_atom_site_label
_atom_site_fract_x
_atom_site_fract_y
_atom_site_fract_z
Si Si1 0.786421 0.204112 0.355297
Si Si2 0.886874 0.074314 0.858605
Si Si3 0.883779 0.130860 0.000000
Si Si4 0.115077 0.596971 0.000000
Si Si5 0.612206 0.800401 0.758258
Si Si6 0.804738 0.266786 0.000000
Si Si7 0.246521 0.067146 0.627311
Si Si8 0.190283 0.569887 0.278931
O O1 0.688708 0.204286 0.305572
O O2 0.862294 0.246832 0.313232
O O3 0.758899 0.230449 0.429999
O O4 0.815056 0.131476 0.367516
O O5 0.845734 0.102925 0.929010
O O6 0.803943 0.085104 0.801351
O O7 0.000000 0.097476 0.844296
O O8 0.893735 0.000000 0.867404
O O9 0.867596 0.204062 0.000000
O O10 0.000000 0.113687 0.000000
O O11 0.126653 0.671899 0.000000
O O12 0.176197 0.573927 0.934435
O O13 0.000000 0.578780 0.000000
O O14 0.500000 0.794493 0.733257
O O15 0.627331 0.868349 0.793752
O O16 0.308199 0.065062 0.697355
O O17 0.192912 0.000000 0.621348
O O18 0.164442 0.500000 0.306006
#
# Coordination Sequence:
#
# PCOD9517554 Si02
#       8
#    16  16   8   8  16   8  16  16
#     4   9  20  36  53  76 102 133 172 208 252 306
#     4   9  17  30  48  72 104 139 173 211 255 301
#     4  10  18  26  43  72 102 134 171 210 256 304
#     4  10  20  32  49  76 106 134 163 198 251 315
#     4  10  20  36  55  74 102 138 172 209 256 308
#     4  10  19  32  49  70 102 134 166 212 254 294
#     4   9  18  32  49  70  99 132 163 200 244 295
#     4   9  18  32  50  76 108 139 174 211 248 297
#
# _framework density 18.471236999999999
#
# number of rings (size 3 to 8) (size 9 to 14) (size 15 to 20)
#    0.000    2.615    0.000    1.615    0.000    8.000 
#    0.000   13.462    0.000    1.385    0.000    1.615 
#    0.000   16.000    0.000    0.000    0.000    0.000 
#
# Total GULP energy -289488.600144 kJ/mol
# GULP energy per Si atom -5567.088464 kJ/mol
# Density = 1.842920 g / cm^3
# Si number density = 18.471237 Si / 1000 Ang^3
#
#
#
# Elastic Constant Matrix: (Units=GPa)
#
#
# Indices 1 2 3 4 5 6 
#
# 1 37.2077 28.7697 17.0052 0.0000 0.0000 0.0000
# 2 28.7697 62.6632 39.8729 0.0000 0.0000 0.0000
# 3 17.0052 39.8729 90.8411 0.0000 0.0000 0.0000
# 4 0.0000 0.0000 0.0000 22.6572 0.0000 0.0000
# 5 0.0000 0.0000 0.0000 0.0000 3.4369 0.0000
# 6 0.0000 0.0000 0.0000 0.0000 0.0000 14.5214
#
#
#
# Elastic Compliance Matrix: (Units=1/GPa)
#
#
# Indices 1 2 3 4 5 6 
#
# 1 0.041713 -0.019679 0.000829 0.000000 0.000000 0.000000
# 2 -0.019679 0.031426 -0.010110 0.000000 0.000000 0.000000
# 3 0.000829 -0.010110 0.015291 0.000000 0.000000 0.000000
# 4 0.000000 0.000000 0.000000 0.044136 0.000000 0.000000
# 5 0.000000 0.000000 0.000000 0.000000 0.290960 0.000000
# 6 0.000000 0.000000 0.000000 0.000000 0.000000 0.068864
#
#
# Mechanical properties :
#
#
# Convention : Reuss Voigt Hill
#
# Bulk Modulus (GPa) = 32.77567 40.22306 36.49936
# Shear Modulus (GPa) = 8.92093 15.12737 12.02415
#
# Velocity S-wave (km/s) = 2.20003 2.86487 2.55417
# Velocity P-wave (km/s) = 4.92303 5.72421 5.33867
#
# Compressibility (1/GPa) = 0.03051044
#
# Stress axis : x y z
#
# Youngs Moduli (GPa) = 23.97328 31.82053 65.39922
#
# Poissons Ratio (x) = 0.62618 -0.05421
# Poissons Ratio (y) = 0.47176 0.66120
# Poissons Ratio (z) = -0.01987 0.32171
#
# Static dielectric constant tensor:
#      x y z
#    x 1.599530 0.000000 0.000000 
#    y 0.000000 1.705970 0.000000 
#    z 0.000000 0.000000 1.648760 
# 
# From -- ./inp_files/53418.got.cif
#   From: 2010.05.17/outbox.cif.g08.bks.cpg/sg71_27_cif.got.tgz:53418.got - 2010.06.03 16:22:01.
