data_PCOD9517673
_publ_section_title
;
Structure prediction by ZEFSAII (Michael W. Deem and Ramdas Pophale) SiO2 
 PCOD9517673
Probable space group: I M M M
;
_chemical_formula_sum "Si O2"
_cell_formula_units_Z 80
_cell_length_a 18.371013
_cell_length_b 19.152536
_cell_length_c 11.982063
_cell_angle_alpha 90.000000
_cell_angle_beta 90.000000
_cell_angle_gamma 90.000000
_cell_volume 4215.906694
_symmetry_space_group_name_H-M "I M M M"
_symmetry_group_IT_number 71
_symmetry_cell_setting 'orthorhombic'
loop_
_space_group_symop_operation_xyz
x,y,z
-x,-y,z
x,-y,-z
-x,y,-z
-x,-y,-z
x,y,-z
-x,y,z
x,-y,z
1/2+x,1/2+y,1/2+z
1/2-x,1/2-y,1/2+z
1/2+x,1/2-y,1/2-z
1/2-x,1/2+y,1/2-z
1/2-x,1/2-y,1/2-z
1/2+x,1/2+y,1/2-z
1/2-x,1/2+y,1/2+z
1/2+x,1/2-y,1/2+z
loop_
_atom_site_type_symbol
_atom_site_label
_atom_site_fract_x
_atom_site_fract_y
_atom_site_fract_z
Si Si1 0.839862 0.751003 0.123707
Si Si2 0.612868 0.125480 0.126080
Si Si3 0.000000 0.248539 0.627038
Si Si4 0.757190 0.142877 0.255293
Si Si5 0.743004 0.000000 0.371134
Si Si6 0.920760 0.500000 0.791910
Si Si7 0.500000 0.266771 0.626835
O O1 0.824805 0.813403 0.209714
O O2 0.784964 0.689679 0.153846
O O3 0.923449 0.726596 0.125614
O O4 0.824820 0.777232 0.000000
O O5 0.568842 0.198114 0.132372
O O6 0.697186 0.136822 0.157091
O O7 0.584181 0.068290 0.212945
O O8 0.604500 0.099295 0.000000
O O9 0.000000 0.217243 0.500000
O O10 0.000000 0.204327 0.743547
O O11 0.771349 0.068187 0.307411
O O12 0.654264 0.000000 0.361372
O O13 0.763429 0.000000 0.500000
O O14 0.000000 0.500000 0.848903
O O15 0.500000 0.302807 0.500000
#
# Coordination Sequence:
#
# PCOD9517673 Si02
#       7
#    16  16   8  16   8   8   8
#     4  10  20  35  57  82 110 145 185 232 283 335
#     4  10  18  28  44  65 100 139 181 226 263 306
#     4  10  18  29  44  70 103 141 182 225 270 318
#     4  10  20  35  54  78 109 141 191 227 277 333
#     4  10  22  38  53  75 107 148 184 228 281 334
#     4  10  19  29  42  65 100 138 186 216 255 315
#     4  10  20  36  55  80 114 146 183 233 289 344
#
# _framework density 18.975750999999999
#
# number of rings (size 3 to 8) (size 9 to 14) (size 15 to 20)
#    0.000    2.000    3.000    1.500    0.000    0.600 
#    0.000    2.500    0.000    0.600    0.000    2.800 
#    0.000    0.000    0.000    0.000    0.000    0.000 
#
# Total GULP energy -222687.916237 kJ/mol
# GULP energy per Si atom -5567.197906 kJ/mol
# Density = 1.893256 g / cm^3
# Si number density = 18.975751 Si / 1000 Ang^3
#
#
#
# Elastic Constant Matrix: (Units=GPa)
#
#
# Indices 1 2 3 4 5 6 
#
# 1 53.2985 19.7969 19.4761 0.0000 0.0000 0.0000
# 2 19.7969 73.8734 21.7230 0.0000 0.0000 0.0000
# 3 19.4761 21.7230 109.4022 0.0000 0.0000 0.0000
# 4 0.0000 0.0000 0.0000 9.1801 0.0000 0.0000
# 5 0.0000 0.0000 0.0000 0.0000 20.2431 0.0000
# 6 0.0000 0.0000 0.0000 0.0000 0.0000 19.1815
#
#
#
# Elastic Compliance Matrix: (Units=1/GPa)
#
#
# Indices 1 2 3 4 5 6 
#
# 1 0.021653 -0.004959 -0.002870 0.000000 0.000000 0.000000
# 2 -0.004959 0.015512 -0.002197 0.000000 0.000000 0.000000
# 3 -0.002870 -0.002197 0.010088 0.000000 0.000000 0.000000
# 4 0.000000 0.000000 0.000000 0.108932 0.000000 0.000000
# 5 0.000000 0.000000 0.000000 0.000000 0.049400 0.000000
# 6 0.000000 0.000000 0.000000 0.000000 0.000000 0.052133
#
#
# Mechanical properties :
#
#
# Convention : Reuss Voigt Hill
#
# Bulk Modulus (GPa) = 36.76434 39.84069 38.30251
# Shear Modulus (GPa) = 17.43157 21.42614 19.42886
#
# Velocity S-wave (km/s) = 3.03417 3.36390 3.20328
# Velocity P-wave (km/s) = 5.62951 6.01074 5.82324
#
# Compressibility (1/GPa) = 0.02720027
#
# Stress axis : x y z
#
# Youngs Moduli (GPa) = 46.18326 64.46777 99.12941
#
# Poissons Ratio (x) = 0.31967 0.28451
# Poissons Ratio (y) = 0.22901 0.21781
# Poissons Ratio (z) = 0.13255 0.14165
#
# Static dielectric constant tensor:
#      x y z
#    x 1.702150 0.000000 0.000000 
#    y 0.000000 1.632730 0.000000 
#    z 0.000000 0.000000 1.712290 
# 
# From -- ./inp_files/23886.got.cif
#   From: 2010.05.17/outbox.cif.g08.bks.cpg/sg71_12_cif.got.tgz:23886.got - 2010.06.03 16:22:01.
