data_PCOD9517980
_publ_section_title
;
Structure prediction by ZEFSAII (Michael W. Deem and Ramdas Pophale) SiO2 
 PCOD9517980
Probable space group: I M M M
;
_chemical_formula_sum "Si O2"
_cell_formula_units_Z 96
_cell_length_a 7.830992
_cell_length_b 28.453252
_cell_length_c 23.638412
_cell_angle_alpha 90.000000
_cell_angle_beta 90.000000
_cell_angle_gamma 90.000000
_cell_volume 5267.044509
_symmetry_space_group_name_H-M "I M M M"
_symmetry_group_IT_number 71
_symmetry_cell_setting 'orthorhombic'
loop_
_space_group_symop_operation_xyz
x,y,z
-x,-y,z
x,-y,-z
-x,y,-z
-x,-y,-z
x,y,-z
-x,y,z
x,-y,z
1/2+x,1/2+y,1/2+z
1/2-x,1/2-y,1/2+z
1/2+x,1/2-y,1/2-z
1/2-x,1/2+y,1/2-z
1/2-x,1/2-y,1/2-z
1/2+x,1/2+y,1/2-z
1/2-x,1/2+y,1/2+z
1/2+x,1/2-y,1/2+z
loop_
_atom_site_type_symbol
_atom_site_label
_atom_site_fract_x
_atom_site_fract_y
_atom_site_fract_z
Si Si1 0.705899 0.858030 0.705363
Si Si2 0.303545 0.796729 0.192246
Si Si3 0.705461 0.287267 0.118749
Si Si4 0.791141 0.254721 0.500000
Si Si5 0.795651 0.364322 0.500000
Si Si6 0.301727 0.616764 0.376725
Si Si7 0.706354 0.052928 0.225912
O O1 0.500000 0.858347 0.709499
O O2 0.774453 0.820798 0.752278
O O3 0.753036 0.838121 0.644229
O O4 0.764722 0.909059 0.727096
O O5 0.500000 0.785284 0.206062
O O6 0.223607 0.751282 0.163309
O O7 0.301221 0.837958 0.145519
O O8 0.500000 0.282562 0.117748
O O9 0.765519 0.272304 0.056608
O O10 0.736484 0.309467 0.500000
O O11 0.000000 0.255352 0.500000
O O12 0.734740 0.389091 0.442712
O O13 0.000000 0.363732 0.500000
O O14 0.500000 0.627694 0.368751
O O15 0.255219 0.574079 0.335228
O O16 0.500000 0.051913 0.228075
O O17 0.769878 0.000000 0.233861
#
# Coordination Sequence:
#
# PCOD9517980 Si02
#       7
#    16  16  16   8   8  16  16
#     4   9  18  30  47  74 100 122 156 204 253 298
#     4   9  17  31  48  66  95 137 174 197 232 294
#     4  10  18  30  47  69  97 133 172 202 237 286
#     4   9  18  31  49  68  93 136 181 208 225 271
#     4  11  19  35  54  66  95 142 184 208 233 289
#     4  11  21  31  48  77 105 127 163 214 259 289
#     4   9  19  38  59  74  93 127 167 202 248 313
#
# _framework density 18.226541000000001
#
# number of rings (size 3 to 8) (size 9 to 14) (size 15 to 20)
#    0.000    2.333    1.667    3.250    0.000    3.667 
#    0.000    0.833    0.000    2.500    0.000    0.583 
#    0.000    4.667    0.000    0.000    0.000    0.000 
#
# Total GULP energy -267672.147064 kJ/mol
# GULP energy per Si atom -5576.503064 kJ/mol
# Density = 1.818506 g / cm^3
# Si number density = 18.226541 Si / 1000 Ang^3
#
#
#
# Elastic Constant Matrix: (Units=GPa)
#
#
# Indices 1 2 3 4 5 6 
#
# 1 34.1022 10.1339 8.8672 0.0000 0.0000 0.0000
# 2 10.1339 124.7854 69.8001 0.0000 0.0000 0.0000
# 3 8.8672 69.8001 61.4381 0.0000 0.0000 0.0000
# 4 0.0000 0.0000 0.0000 8.3618 0.0000 0.0000
# 5 0.0000 0.0000 0.0000 0.0000 17.3335 0.0000
# 6 0.0000 0.0000 0.0000 0.0000 0.0000 9.5732
#
#
#
# Elastic Compliance Matrix: (Units=1/GPa)
#
#
# Indices 1 2 3 4 5 6 
#
# 1 0.030467 -0.000040 -0.004352 0.000000 0.000000 0.000000
# 2 -0.000040 0.021985 -0.024972 0.000000 0.000000 0.000000
# 3 -0.004352 -0.024972 0.045275 0.000000 0.000000 0.000000
# 4 0.000000 0.000000 0.000000 0.119592 0.000000 0.000000
# 5 0.000000 0.000000 0.000000 0.000000 0.057692 0.000000
# 6 0.000000 0.000000 0.000000 0.000000 0.000000 0.104458
#
#
# Mechanical properties :
#
#
# Convention : Reuss Voigt Hill
#
# Bulk Modulus (GPa) = 25.64080 44.21421 34.92751
# Shear Modulus (GPa) = 11.08167 15.82201 13.45184
#
# Velocity S-wave (km/s) = 2.46843 2.94951 2.71963
# Velocity P-wave (km/s) = 4.71408 5.99252 5.39133
#
# Compressibility (1/GPa) = 0.03900034
#
# Stress axis : x y z
#
# Youngs Moduli (GPa) = 32.82236 45.48510 22.08718
#
# Poissons Ratio (x) = 0.00182 0.09612
# Poissons Ratio (y) = 0.00131 0.55156
# Poissons Ratio (z) = 0.14283 1.13584
#
# Static dielectric constant tensor:
#      x y z
#    x 1.666060 0.000000 0.000000 
#    y 0.000000 1.629500 0.000000 
#    z 0.000000 0.000000 1.650210 
# 
# From -- ./inp_files/57795.got.cif
#   From: 2010.05.17/outbox.cif.g08.bks.cpg/sg71_29_cif.got.tgz:57795.got - 2010.06.03 16:22:01.
