data_PCOD9517642
_publ_section_title
;
Structure prediction by ZEFSAII (Michael W. Deem and Ramdas Pophale) SiO2 
 PCOD9517642
Probable space group: I M M M
;
_chemical_formula_sum "Si O2"
_cell_formula_units_Z 88
_cell_length_a 30.699303
_cell_length_b 19.135181
_cell_length_c 7.442590
_cell_angle_alpha 90.000000
_cell_angle_beta 90.000000
_cell_angle_gamma 90.000000
_cell_volume 4372.050654
_symmetry_space_group_name_H-M "I M M M"
_symmetry_group_IT_number 71
_symmetry_cell_setting 'orthorhombic'
loop_
_space_group_symop_operation_xyz
x,y,z
-x,-y,z
x,-y,-z
-x,y,-z
-x,-y,-z
x,y,-z
-x,y,z
x,-y,z
1/2+x,1/2+y,1/2+z
1/2-x,1/2-y,1/2+z
1/2+x,1/2-y,1/2-z
1/2-x,1/2+y,1/2-z
1/2-x,1/2-y,1/2-z
1/2+x,1/2+y,1/2-z
1/2-x,1/2+y,1/2+z
1/2+x,1/2-y,1/2+z
loop_
_atom_site_type_symbol
_atom_site_label
_atom_site_fract_x
_atom_site_fract_y
_atom_site_fract_z
Si Si1 0.794095 0.291999 0.785477
Si Si2 0.755499 0.920953 0.719188
Si Si3 0.052970 0.500000 0.210831
Si Si4 0.145680 0.078803 0.285194
Si Si5 0.550439 0.846230 0.279893
Si Si6 0.383604 0.272549 0.285160
O O1 0.750000 0.250000 0.750000
O O2 0.781592 0.368646 0.717526
O O3 0.837145 0.255339 0.713106
O O4 0.799888 0.296102 0.000000
O O5 0.756176 0.917809 0.500000
O O6 0.804979 0.903547 0.779309
O O7 0.746954 0.000000 0.771677
O O8 0.066544 0.576514 0.281275
O O9 0.000000 0.500000 0.221581
O O10 0.064824 0.500000 0.000000
O O11 0.148258 0.074145 0.500000
O O12 0.114639 0.144321 0.247128
O O13 0.134452 0.000000 0.220475
O O14 0.551100 0.848028 0.500000
O O15 0.500000 0.838227 0.227124
O O16 0.579211 0.780489 0.219942
O O17 0.383629 0.265474 0.500000
#
# Coordination Sequence:
#
# PCOD9517642 Si02
#       6
#    16  16   8  16  16  16
#     4  10  18  28  42  62  89 116 144 179 218 258
#     4   8  14  26  42  57  78 113 150 176 203 247
#     4   7  10  20  40  62  87 121 151 173 207 259
#     4   9  17  30  48  65  83 117 158 184 214 269
#     4   8  14  26  43  64  93 123 148 180 224 269
#     4  10  19  28  43  71  95 113 145 188 230 266
#
# _framework density 20.127855
#
# number of rings (size 3 to 8) (size 9 to 14) (size 15 to 20)
#    0.000    3.182    1.818    2.182    0.000    0.364 
#    1.636    0.000    0.000    1.636    0.000    4.455 
#    0.000    2.182    0.000    0.000    0.000    0.000 
#
# Total GULP energy -245080.772521 kJ/mol
# GULP energy per Si atom -5570.017557 kJ/mol
# Density = 2.008204 g / cm^3
# Si number density = 20.127855 Si / 1000 Ang^3
#
#
#
# Elastic Constant Matrix: (Units=GPa)
#
#
# Indices 1 2 3 4 5 6 
#
# 1 71.6062 76.9751 2.0726 0.0000 0.0000 0.0000
# 2 76.9751 197.0769 3.0930 0.0000 0.0000 0.0000
# 3 2.0726 3.0930 61.8472 0.0000 0.0000 0.0000
# 4 0.0000 0.0000 0.0000 4.5885 0.0000 0.0000
# 5 0.0000 0.0000 0.0000 0.0000 4.9779 0.0000
# 6 0.0000 0.0000 0.0000 0.0000 0.0000 36.1046
#
#
#
# Elastic Compliance Matrix: (Units=1/GPa)
#
#
# Indices 1 2 3 4 5 6 
#
# 1 0.024080 -0.009400 -0.000337 0.000000 0.000000 0.000000
# 2 -0.009400 0.008748 -0.000122 0.000000 0.000000 0.000000
# 3 -0.000337 -0.000122 0.016186 0.000000 0.000000 0.000000
# 4 0.000000 0.000000 0.000000 0.217935 0.000000 0.000000
# 5 0.000000 0.000000 0.000000 0.000000 0.200887 0.000000
# 6 0.000000 0.000000 0.000000 0.000000 0.000000 0.027697
#
#
# Mechanical properties :
#
#
# Convention : Reuss Voigt Hill
#
# Bulk Modulus (GPa) = 34.13537 54.97907 44.55722
# Shear Modulus (GPa) = 9.52353 25.69352 17.60853
#
# Velocity S-wave (km/s) = 2.17756 3.57671 2.96097
# Velocity P-wave (km/s) = 4.82892 6.66569 5.82022
#
# Compressibility (1/GPa) = 0.02929513
#
# Stress axis : x y z
#
# Youngs Moduli (GPa) = 41.52885 114.31830 61.78070
#
# Poissons Ratio (x) = 1.07457 0.02081
# Poissons Ratio (y) = 0.39036 0.00757
# Poissons Ratio (z) = 0.01399 0.01400
#
# Static dielectric constant tensor:
#      x y z
#    x 1.682890 0.000000 0.000000 
#    y 0.000000 1.778670 0.000000 
#    z 0.000000 0.000000 1.786490 
# 
# From -- ./inp_files/16712.got.cif
#   From: 2010.05.17/outbox.cif.g08.bks.cpg/sg71_9_cif.got.tgz:16712.got - 2010.06.03 16:22:01.
