data_PCOD9517904
_publ_section_title
;
Structure prediction by ZEFSAII (Michael W. Deem and Ramdas Pophale) SiO2 
 PCOD9517904
Probable space group: I M M M
;
_chemical_formula_sum "Si O2"
_cell_formula_units_Z 80
_cell_length_a 15.438729
_cell_length_b 7.433267
_cell_length_c 33.781233
_cell_angle_alpha 90.000000
_cell_angle_beta 90.000000
_cell_angle_gamma 90.000000
_cell_volume 3876.740880
_symmetry_space_group_name_H-M "I M M M"
_symmetry_group_IT_number 71
_symmetry_cell_setting 'orthorhombic'
loop_
_space_group_symop_operation_xyz
x,y,z
-x,-y,z
x,-y,-z
-x,y,-z
-x,-y,-z
x,y,-z
-x,y,z
x,-y,z
1/2+x,1/2+y,1/2+z
1/2-x,1/2-y,1/2+z
1/2+x,1/2-y,1/2-z
1/2-x,1/2+y,1/2-z
1/2-x,1/2-y,1/2-z
1/2+x,1/2+y,1/2-z
1/2-x,1/2+y,1/2+z
1/2+x,1/2-y,1/2+z
loop_
_atom_site_type_symbol
_atom_site_label
_atom_site_fract_x
_atom_site_fract_y
_atom_site_fract_z
Si Si1 0.096888 0.784600 0.650834
Si Si2 0.406702 0.719433 0.320961
Si Si3 0.151410 0.214705 0.262433
Si Si4 0.225112 0.214995 0.113834
Si Si5 0.598270 0.719461 0.454537
O O1 0.125926 0.714570 0.694362
O O2 0.173556 0.749407 0.619790
O O3 0.000000 0.719070 0.641208
O O4 0.092038 0.000000 0.653875
O O5 0.500000 0.768621 0.338302
O O6 0.402873 0.500000 0.320255
O O7 0.400767 0.781286 0.275713
O O8 0.327082 0.782813 0.347546
O O9 0.250000 0.250000 0.250000
O O10 0.138444 0.000000 0.264332
O O11 0.172730 0.281266 0.075492
O O12 0.215753 0.000000 0.113525
O O13 0.612927 0.774630 0.500000
O O14 0.500000 0.772972 0.443055
O O15 0.598615 0.500000 0.454138
#
# Coordination Sequence:
#
# PCOD9517904 Si02
#       5
#    16  16  16  16  16
#     4  10  21  35  49  65  91 130 168 199 237 283
#     4   9  16  26  43  67  92 118 150 187 227 275
#     4  10  18  30  47  65  89 122 159 197 237 278
#     4  10  18  29  49  75  97 120 155 198 237 275
#     4   8  14  26  47  77 108 130 149 181 231 290
#
# _framework density 20.635888999999999
#
# number of rings (size 3 to 8) (size 9 to 14) (size 15 to 20)
#    0.000    2.600    2.000    1.800    0.000    5.200 
#    0.000    0.000    0.000    6.600    0.000    5.600 
#    0.000    0.000    0.000    0.000    0.000    0.000 
#
# Total GULP energy -223181.683828 kJ/mol
# GULP energy per Si atom -5579.542096 kJ/mol
# Density = 2.058892 g / cm^3
# Si number density = 20.635889 Si / 1000 Ang^3
#
#
#
# Elastic Constant Matrix: (Units=GPa)
#
#
# Indices 1 2 3 4 5 6 
#
# 1 193.3934 -2.5790 92.0278 0.0000 0.0000 0.0000
# 2 -2.5790 64.5174 6.9798 0.0000 0.0000 0.0000
# 3 92.0278 6.9798 123.8176 0.0000 0.0000 0.0000
# 4 0.0000 0.0000 0.0000 2.8212 0.0000 0.0000
# 5 0.0000 0.0000 0.0000 0.0000 32.3593 0.0000
# 6 0.0000 0.0000 0.0000 0.0000 0.0000 0.9981
#
#
#
# Elastic Compliance Matrix: (Units=1/GPa)
#
#
# Indices 1 2 3 4 5 6 
#
# 1 0.008061 0.000976 -0.006046 0.000000 0.000000 0.000000
# 2 0.000976 0.015713 -0.001611 0.000000 0.000000 0.000000
# 3 -0.006046 -0.001611 0.012661 0.000000 0.000000 0.000000
# 4 0.000000 0.000000 0.000000 0.354455 0.000000 0.000000
# 5 0.000000 0.000000 0.000000 0.000000 0.030903 0.000000
# 6 0.000000 0.000000 0.000000 0.000000 0.000000 1.001935
#
#
# Mechanical properties :
#
#
# Convention : Reuss Voigt Hill
#
# Bulk Modulus (GPa) = 43.34199 63.84284 53.59241
# Shear Modulus (GPa) = 3.46073 26.25570 14.85822
#
# Velocity S-wave (km/s) = 1.29641 3.57085 2.68623
# Velocity P-wave (km/s) = 4.82594 6.92865 5.97059
#
# Compressibility (1/GPa) = 0.02307232
#
# Stress axis : x y z
#
# Youngs Moduli (GPa) = 124.05267 63.64136 78.98084
#
# Poissons Ratio (x) = -0.06214 0.47756
# Poissons Ratio (y) = -0.12112 0.12727
# Poissons Ratio (z) = 0.75008 0.10256
#
# Static dielectric constant tensor:
#      x y z
#    x 1.765190 0.000000 0.000000 
#    y 0.000000 1.819520 0.000000 
#    z 0.000000 0.000000 1.726620 
# 
# From -- ./inp_files/69003.got.cif
#   From: 2010.05.17/outbox.cif.g08.bks.cpg/sg71_35_cif.got.tgz:69003.got - 2010.06.03 16:22:01.
