data_PCOD9517053
_publ_section_title
;
Structure prediction by ZEFSAII (Michael W. Deem and Ramdas Pophale) SiO2 
 PCOD9517053
Probable space group: F D D D
;
_chemical_formula_sum "Si O2"
_cell_formula_units_Z 160
_cell_length_a 28.356194
_cell_length_b 28.855049
_cell_length_c 7.207415
_cell_angle_alpha 90.000000
_cell_angle_beta 90.000000
_cell_angle_gamma 90.000000
_cell_volume 5897.246541
_symmetry_space_group_name_H-M "F D D D"
_symmetry_group_IT_number 70
_space_group.IT_coordinate_system_code '2'
_symmetry_cell_setting 'orthorhombic'
loop_
_space_group_symop_operation_xyz
x,y,z
1/4-x,1/4-y,z
x,1/4-y,1/4-z
1/4-x,y,1/4-z
-x,-y,-z
3/4+x,3/4+y,-z
-x,3/4+y,3/4+z
3/4+x,-y,3/4+z
x,1/2+y,1/2+z
1/4-x,3/4-y,1/2+z
x,3/4-y,3/4-z
1/4-x,1/2+y,3/4-z
-x,1/2-y,1/2-z
3/4+x,1/4+y,1/2-z
-x,1/4+y,1/4+z
3/4+x,1/2-y,1/4+z
1/2+x,y,1/2+z
3/4-x,1/4-y,1/2+z
1/2+x,1/4-y,3/4-z
3/4-x,y,3/4-z
1/2-x,-y,1/2-z
1/4+x,3/4+y,1/2-z
1/2-x,3/4+y,1/4+z
1/4+x,-y,1/4+z
1/2+x,1/2+y,z
3/4-x,3/4-y,z
1/2+x,3/4-y,1/4-z
3/4-x,1/2+y,1/4-z
1/2-x,1/2-y,-z
1/4+x,1/4+y,-z
1/2-x,1/4+y,3/4+z
1/4+x,1/2-y,3/4+z
loop_
_atom_site_type_symbol
_atom_site_label
_atom_site_fract_x
_atom_site_fract_y
_atom_site_fract_z
Si Si1 0.701320 0.051503 0.461113
Si Si2 0.520014 0.876420 0.597043
Si Si3 0.549970 0.549026 0.856321
Si Si4 0.875000 0.875000 0.631452
Si Si5 0.877437 0.021753 0.650873
Si Si6 0.875000 0.146079 0.875000
O O1 0.743575 0.077646 0.355620
O O2 0.711298 0.039598 0.674114
O O3 0.660827 0.090572 0.482291
O O4 0.674398 0.009241 0.363159
O O5 0.511001 0.875000 0.375000
O O6 0.496879 0.921733 0.690345
O O7 0.575185 0.878731 0.622340
O O8 0.588762 0.588201 0.794745
O O9 0.580222 0.503028 0.817431
O O10 0.878133 0.070666 0.553886
O O11 0.875000 0.022274 0.875000
#
# Coordination Sequence:
#
# PCOD9517053 Si02
#       6
#    32  32  32  16  32  16
#     4   8  13  27  56  86 118 156 202 257 313 373
#     4   9  19  37  61  86 122 172 220 256 313 391
#     4   8  13  28  57  86 117 161 207 253 309 382
#     4   8   9  16  46  87 110 145 201 250 301 363
#     4   9  19  37  63  97 129 159 203 266 332 379
#     4  12  24  38  64  93 134 172 208 272 325 378
#
# _framework density 27.131305000000001
#
# number of rings (size 3 to 8) (size 9 to 14) (size 15 to 20)
#    0.000    3.200    0.000    4.200    0.000    0.800 
#    1.800    9.000    4.400   22.800    0.000    0.000 
#    0.000    0.000    0.000    0.000    0.000    0.000 
#
# Total GULP energy -223175.054686 kJ/mol
# GULP energy per Si atom -5579.376367 kJ/mol
# Density = 2.706955 g / cm^3
# Si number density = 27.131305 Si / 1000 Ang^3
#
#
#
# Elastic Constant Matrix: (Units=GPa)
#
#
# Indices 1 2 3 4 5 6 
#
# 1 201.9004 58.7985 21.3386 0.1198 -0.0025 -0.0114
# 2 58.7985 73.5011 14.5526 0.5633 -0.0120 -0.0178
# 3 21.3386 14.5526 123.7703 -0.0518 -0.0222 -0.0173
# 4 0.1198 0.5633 -0.0518 3036.5428 0.2968 -0.0817
# 5 -0.0025 -0.0120 -0.0222 0.2968 12.5548 0.0092
# 6 -0.0114 -0.0178 -0.0173 -0.0817 0.0092 44.3637
#
#
#
# Elastic Compliance Matrix: (Units=1/GPa)
#
#
# Indices 1 2 3 4 5 6 
#
# 1 0.006490 -0.005089 -0.000521 0.000001 -0.000005 -0.000001
# 2 -0.005089 0.017919 -0.001230 -0.000003 0.000014 0.000005
# 3 -0.000521 -0.001230 0.008314 0.000000 0.000013 0.000003
# 4 0.000001 -0.000003 0.000000 0.000329 -0.000008 0.000001
# 5 -0.000005 0.000014 0.000013 -0.000008 0.079651 -0.000017
# 6 -0.000001 0.000005 0.000003 0.000001 -0.000017 0.022541
#
#
# Mechanical properties :
#
#
# Convention : Reuss Voigt Hill
#
# Bulk Modulus (GPa) = 52.50585 65.39458 58.95021
# Shear Modulus (GPa) = 32.20186 638.99106 335.59646
#
# Velocity S-wave (km/s) = 3.44886 15.36324 11.13382
# Velocity P-wave (km/s) = 5.93751 18.40818 13.67690
#
# Compressibility (1/GPa) = 0.01904550
#
# Stress axis : x y z
#
# Youngs Moduli (GPa) = 154.08557 55.80524 120.28176
#
# Poissons Ratio (x) = 0.28397 0.06262
# Poissons Ratio (y) = 0.78409 0.14790
# Poissons Ratio (z) = 0.08021 0.06862
#
# Static dielectric constant tensor:
#      x y z
#    x 2.108120 -0.000010 0.000030 
#    y -0.000010 2.126770 -0.000060 
#    z 0.000030 -0.000060 2.265670 
# 
# From -- ./inp_files/12333.got.cif
#   From: 2010.05.17/outbox.cif.g08.bks.cpg/sg70_7_cif.got.tgz:12333.got - 2010.06.03 15:57:51.
