data_PCOD9517938
_publ_section_title
;
Structure prediction by ZEFSAII (Michael W. Deem and Ramdas Pophale) SiO2 
 PCOD9517938
Probable space group: I M M M
;
_chemical_formula_sum "Si O2"
_cell_formula_units_Z 88
_cell_length_a 21.772739
_cell_length_b 20.194494
_cell_length_c 13.331894
_cell_angle_alpha 90.000000
_cell_angle_beta 90.000000
_cell_angle_gamma 90.000000
_cell_volume 5861.893102
_symmetry_space_group_name_H-M "I M M M"
_symmetry_group_IT_number 71
_symmetry_cell_setting 'orthorhombic'
loop_
_space_group_symop_operation_xyz
x,y,z
-x,-y,z
x,-y,-z
-x,y,-z
-x,-y,-z
x,y,-z
-x,y,z
x,-y,z
1/2+x,1/2+y,1/2+z
1/2-x,1/2-y,1/2+z
1/2+x,1/2-y,1/2-z
1/2-x,1/2+y,1/2-z
1/2-x,1/2-y,1/2-z
1/2+x,1/2+y,1/2-z
1/2-x,1/2+y,1/2+z
1/2+x,1/2-y,1/2+z
loop_
_atom_site_type_symbol
_atom_site_label
_atom_site_fract_x
_atom_site_fract_y
_atom_site_fract_z
Si Si1 0.710328 0.078437 0.382724
Si Si2 0.242928 0.805112 0.113170
Si Si3 0.571394 0.000000 0.879817
Si Si4 0.138672 0.630177 0.698181
Si Si5 0.928642 0.756545 0.381464
Si Si6 0.687443 0.672052 0.178816
O O1 0.698104 0.089711 0.500000
O O2 0.663718 0.117639 0.310186
O O3 0.778015 0.106186 0.356213
O O4 0.705937 0.000000 0.362323
O O5 0.300277 0.854223 0.133168
O O6 0.272149 0.732397 0.131761
O O7 0.194768 0.819111 0.201494
O O8 0.220339 0.810563 0.000000
O O9 0.604407 0.065204 0.839066
O O10 0.500000 0.000000 0.849917
O O11 0.574359 0.000000 0.000000
O O12 0.095350 0.693652 0.681940
O O13 0.922116 0.740010 0.500000
O O14 0.881620 0.815694 0.356618
O O15 0.000000 0.770503 0.362184
#
# Coordination Sequence:
#
# PCOD9517938 Si02
#       6
#    16  16   8  16  16  16
#     4  10  19  31  48  68  92 122 154 191 232 273
#     4   9  16  27  45  67  89 113 144 189 237 272
#     4  11  20  28  41  61  89 125 155 180 214 260
#     4  10  18  30  44  65  91 120 151 188 224 270
#     4  10  19  31  48  69  93 120 151 189 232 276
#     4   9  17  28  46  67  89 116 150 186 230 277
#
# _framework density 15.012214999999999
#
# number of rings (size 3 to 8) (size 9 to 14) (size 15 to 20)
#    0.000    2.273    0.909    6.000    0.000    1.455 
#    0.000    0.000    0.000    4.909    0.000    2.545 
#    0.000    0.000    0.000    4.727    0.000    0.727 
#
# Total GULP energy -245244.930400 kJ/mol
# GULP energy per Si atom -5573.748418 kJ/mol
# Density = 1.497805 g / cm^3
# Si number density = 15.012215 Si / 1000 Ang^3
#
#
#
# Elastic Constant Matrix: (Units=GPa)
#
#
# Indices 1 2 3 4 5 6 
#
# 1 91.0190 25.9262 39.0558 0.0000 0.0000 0.0000
# 2 25.9262 31.8623 24.4146 0.0000 0.0000 0.0000
# 3 39.0558 24.4146 108.0379 0.0000 0.0000 0.0000
# 4 0.0000 0.0000 0.0000 18.0928 0.0000 0.0000
# 5 0.0000 0.0000 0.0000 0.0000 18.8273 0.0000
# 6 0.0000 0.0000 0.0000 0.0000 0.0000 14.9717
#
#
#
# Elastic Compliance Matrix: (Units=1/GPa)
#
#
# Indices 1 2 3 4 5 6 
#
# 1 0.015197 -0.009865 -0.003265 0.000000 0.000000 0.000000
# 2 -0.009865 0.044361 -0.006459 0.000000 0.000000 0.000000
# 3 -0.003265 -0.006459 0.011896 0.000000 0.000000 0.000000
# 4 0.000000 0.000000 0.000000 0.055271 0.000000 0.000000
# 5 0.000000 0.000000 0.000000 0.000000 0.053114 0.000000
# 6 0.000000 0.000000 0.000000 0.000000 0.000000 0.066793
#
#
# Mechanical properties :
#
#
# Convention : Reuss Voigt Hill
#
# Bulk Modulus (GPa) = 30.98071 45.52361 38.25216
# Shear Modulus (GPa) = 16.85961 19.81319 18.33640
#
# Velocity S-wave (km/s) = 3.35484 3.63685 3.49869
# Velocity P-wave (km/s) = 5.97398 6.93007 6.46971
#
# Compressibility (1/GPa) = 0.03227815
#
# Stress axis : x y z
#
# Youngs Moduli (GPa) = 65.80058 22.54248 84.06371
#
# Poissons Ratio (x) = 0.22237 0.27444
# Poissons Ratio (y) = 0.64909 0.54294
# Poissons Ratio (z) = 0.21482 0.14559
#
# Static dielectric constant tensor:
#      x y z
#    x 1.489460 0.000000 0.000000 
#    y 0.000000 1.502680 0.000000 
#    z 0.000000 0.000000 1.507950 
# 
# From -- ./inp_files/25648.got.cif
#   From: 2010.05.17/outbox.cif.g08.bks.cpg/sg71_13_cif.got.tgz:25648.got - 2010.06.03 16:22:01.
