data_PCOD9517652
_publ_section_title
;
Structure prediction by ZEFSAII (Michael W. Deem and Ramdas Pophale) SiO2 
 PCOD9517652
Probable space group: I M M M
;
_chemical_formula_sum "Si O2"
_cell_formula_units_Z 112
_cell_length_a 26.458251
_cell_length_b 7.362349
_cell_length_c 30.075879
_cell_angle_alpha 90.000000
_cell_angle_beta 90.000000
_cell_angle_gamma 90.000000
_cell_volume 5858.627174
_symmetry_space_group_name_H-M "I M M M"
_symmetry_group_IT_number 71
_symmetry_cell_setting 'orthorhombic'
loop_
_space_group_symop_operation_xyz
x,y,z
-x,-y,z
x,-y,-z
-x,y,-z
-x,-y,-z
x,y,-z
-x,y,z
x,-y,z
1/2+x,1/2+y,1/2+z
1/2-x,1/2-y,1/2+z
1/2+x,1/2-y,1/2-z
1/2-x,1/2+y,1/2-z
1/2-x,1/2-y,1/2-z
1/2+x,1/2+y,1/2-z
1/2-x,1/2+y,1/2+z
1/2+x,1/2-y,1/2+z
loop_
_atom_site_type_symbol
_atom_site_label
_atom_site_fract_x
_atom_site_fract_y
_atom_site_fract_z
Si Si1 0.152674 0.277304 0.607838
Si Si2 0.750064 0.218749 0.050939
Si Si3 0.195748 0.720856 0.800413
Si Si4 0.557083 0.778922 0.051064
Si Si5 0.185369 0.711585 0.702471
Si Si6 0.942711 0.721567 0.949039
Si Si7 0.150128 0.285932 0.108421
O O1 0.153403 0.500000 0.608353
O O2 0.201331 0.219921 0.578958
O O3 0.101270 0.219724 0.583837
O O4 0.158746 0.213468 0.658576
O O5 0.801395 0.266739 0.076472
O O6 0.747608 0.000000 0.049568
O O7 0.749724 0.283761 0.000000
O O8 0.195533 0.500000 0.799943
O O9 0.176992 0.786035 0.752089
O O10 0.254299 0.775602 0.805436
O O11 0.164767 0.786287 0.843018
O O12 0.500000 0.721969 0.062706
O O13 0.557326 0.000000 0.051355
O O14 0.567395 0.724516 0.000000
O O15 0.171360 0.500000 0.704649
O O16 0.941857 0.500000 0.948872
O O17 0.899430 0.787599 0.915970
O O18 0.000000 0.776070 0.937715
O O19 0.932122 0.776374 0.000000
O O20 0.141194 0.500000 0.114627
#
# Coordination Sequence:
#
# PCOD9517652 Si02
#       7
#    16  16  16  16  16  16  16
#     4   9  15  24  38  55  78 109 138 165 200 242
#     4  10  19  28  39  59  86 112 136 163 201 251
#     4   9  17  27  40  60  83 106 135 170 203 241
#     4   8  13  21  34  53  77 106 140 173 201 234
#     4   9  16  27  42  58  80 110 139 165 199 246
#     4   8  14  25  41  59  77 102 138 171 197 234
#     4  10  18  28  43  62  84 107 134 172 210 242
#
# _framework density 19.117108000000002
#
# number of rings (size 3 to 8) (size 9 to 14) (size 15 to 20)
#    0.000    3.000    1.429    1.714    0.000    2.571 
#    0.000    0.000    0.000    1.286    0.000    8.000 
#    0.000    2.286    0.000   15.000    0.000   14.571 
#
# Total GULP energy -312401.963433 kJ/mol
# GULP energy per Si atom -5578.606490 kJ/mol
# Density = 1.907360 g / cm^3
# Si number density = 19.117108 Si / 1000 Ang^3
#
#
#
# Elastic Constant Matrix: (Units=GPa)
#
#
# Indices 1 2 3 4 5 6 
#
# 1 135.0201 -4.9658 111.1992 0.0000 0.0000 0.0000
# 2 -4.9658 67.6906 0.6996 0.0000 0.0000 0.0000
# 3 111.1992 0.6996 195.9336 0.0000 0.0000 0.0000
# 4 0.0000 0.0000 0.0000 1.4282 0.0000 0.0000
# 5 0.0000 0.0000 0.0000 0.0000 24.5209 0.0000
# 6 0.0000 0.0000 0.0000 0.0000 0.0000 8.4591
#
#
#
# Elastic Compliance Matrix: (Units=1/GPa)
#
#
# Indices 1 2 3 4 5 6 
#
# 1 0.013989 0.001108 -0.007943 0.000000 0.000000 0.000000
# 2 0.001108 0.014861 -0.000682 0.000000 0.000000 0.000000
# 3 -0.007943 -0.000682 0.009614 0.000000 0.000000 0.000000
# 4 0.000000 0.000000 0.000000 0.700195 0.000000 0.000000
# 5 0.000000 0.000000 0.000000 0.000000 0.040782 0.000000
# 6 0.000000 0.000000 0.000000 0.000000 0.000000 0.118216
#
#
# Mechanical properties :
#
#
# Convention : Reuss Voigt Hill
#
# Bulk Modulus (GPa) = 42.67898 68.05670 55.36784
# Shear Modulus (GPa) = 5.43182 26.32905 15.88044
#
# Velocity S-wave (km/s) = 1.68746 3.71516 2.88530
# Velocity P-wave (km/s) = 5.11568 7.35394 6.33445
#
# Compressibility (1/GPa) = 0.02343074
#
# Stress axis : x y z
#
# Youngs Moduli (GPa) = 71.48580 67.28817 104.01297
#
# Poissons Ratio (x) = -0.07458 0.82618
# Poissons Ratio (y) = -0.07923 0.07094
# Poissons Ratio (z) = 0.56782 0.04590
#
# Static dielectric constant tensor:
#      x y z
#    x 1.621500 0.000000 0.000000 
#    y 0.000000 1.811240 0.000000 
#    z 0.000000 0.000000 1.673450 
# 
# From -- ./inp_files/66980.got.cif
#   From: 2010.05.17/outbox.cif.g08.bks.cpg/sg71_34_cif.got.tgz:66980.got - 2010.06.03 16:22:01.
