data_PCOD9517757
_publ_section_title
;
Structure prediction by ZEFSAII (Michael W. Deem and Ramdas Pophale) SiO2 
 PCOD9517757
Probable space group: I M M M
;
_chemical_formula_sum "Si O2"
_cell_formula_units_Z 112
_cell_length_a 14.863560
_cell_length_b 18.540729
_cell_length_c 25.890128
_cell_angle_alpha 90.000000
_cell_angle_beta 90.000000
_cell_angle_gamma 90.000000
_cell_volume 7134.833525
_symmetry_space_group_name_H-M "I M M M"
_symmetry_group_IT_number 71
_symmetry_cell_setting 'orthorhombic'
loop_
_space_group_symop_operation_xyz
x,y,z
-x,-y,z
x,-y,-z
-x,y,-z
-x,-y,-z
x,y,-z
-x,y,z
x,-y,z
1/2+x,1/2+y,1/2+z
1/2-x,1/2-y,1/2+z
1/2+x,1/2-y,1/2-z
1/2-x,1/2+y,1/2-z
1/2-x,1/2-y,1/2-z
1/2+x,1/2+y,1/2-z
1/2-x,1/2+y,1/2+z
1/2+x,1/2-y,1/2+z
loop_
_atom_site_type_symbol
_atom_site_label
_atom_site_fract_x
_atom_site_fract_y
_atom_site_fract_z
Si Si1 0.393955 0.922178 0.750403
Si Si2 0.144853 0.733559 0.252687
Si Si3 0.390638 0.653286 0.441591
Si Si4 0.391973 0.500000 0.720458
Si Si5 0.604755 0.784285 0.368523
Si Si6 0.282044 0.919087 0.643487
Si Si7 0.397684 0.381063 0.803654
Si Si8 0.610239 0.500000 0.396675
O O1 0.500000 0.919970 0.736276
O O2 0.372656 0.845660 0.776328
O O3 0.332892 0.922420 0.699101
O O4 0.378159 0.000000 0.776922
O O5 0.250000 0.750000 0.250000
O O6 0.111446 0.731263 0.193129
O O7 0.103572 0.798629 0.285133
O O8 0.361527 0.669472 0.500000
O O9 0.500000 0.652150 0.441386
O O10 0.364905 0.714295 0.400482
O O11 0.361406 0.573507 0.424464
O O12 0.500000 0.500000 0.715823
O O13 0.369474 0.430006 0.754256
O O14 0.357025 0.500000 0.662530
O O15 0.500000 0.798908 0.380007
O O16 0.665253 0.853349 0.382791
O O17 0.178757 0.897579 0.654429
O O18 0.287799 0.000000 0.621235
O O19 0.500000 0.401384 0.818155
O O20 0.500000 0.500000 0.396522
#
# Coordination Sequence:
#
# PCOD9517757 Si02
#       8
#    16  16  16   8  16  16  16   8
#     4   9  17  29  42  55  75 108 152 191 218 252
#     4  11  18  28  42  61  86 118 154 191 226 266
#     4   9  17  29  46  67  90 118 153 192 233 275
#     4   9  18  27  38  59  87 123 158 187 225 269
#     4  10  19  31  46  64  89 122 159 192 225 268
#     4  10  18  29  43  61  83 113 155 193 223 269
#     4  11  19  28  41  58  88 124 157 192 230 267
#     4   9  15  26  43  64  90 121 155 188 224 271
#
# _framework density 15.697632
#
# number of rings (size 3 to 8) (size 9 to 14) (size 15 to 20)
#    0.000    2.143    3.571    3.643    0.000    4.000 
#    0.000    0.000    0.000    0.429    0.000    2.000 
#    0.000    0.571    0.000    1.286    0.000    2.429 
#
# Total GULP energy -311800.672090 kJ/mol
# GULP energy per Si atom -5567.869144 kJ/mol
# Density = 1.566190 g / cm^3
# Si number density = 15.697632 Si / 1000 Ang^3
#
#
#
# Elastic Constant Matrix: (Units=GPa)
#
#
# Indices 1 2 3 4 5 6 
#
# 1 77.3789 22.7514 4.6690 0.0000 0.0000 0.0000
# 2 22.7514 154.7962 27.5367 0.0000 0.0000 0.0000
# 3 4.6690 27.5367 29.9795 0.0000 0.0000 0.0000
# 4 0.0000 0.0000 0.0000 4.5208 0.0000 0.0000
# 5 0.0000 0.0000 0.0000 0.0000 4.5823 0.0000
# 6 0.0000 0.0000 0.0000 0.0000 0.0000 11.3183
#
#
#
# Elastic Compliance Matrix: (Units=1/GPa)
#
#
# Indices 1 2 3 4 5 6 
#
# 1 0.013510 -0.001926 -0.000335 0.000000 0.000000 0.000000
# 2 -0.001926 0.007996 -0.007045 0.000000 0.000000 0.000000
# 3 -0.000335 -0.007045 0.039879 0.000000 0.000000 0.000000
# 4 0.000000 0.000000 0.000000 0.221202 0.000000 0.000000
# 5 0.000000 0.000000 0.000000 0.000000 0.218232 0.000000
# 6 0.000000 0.000000 0.000000 0.000000 0.000000 0.088352
#
#
# Mechanical properties :
#
#
# Convention : Reuss Voigt Hill
#
# Bulk Modulus (GPa) = 23.37881 41.34099 32.35990
# Shear Modulus (GPa) = 8.03805 17.89744 12.96774
#
# Velocity S-wave (km/s) = 2.26532 3.38025 2.87731
# Velocity P-wave (km/s) = 4.66559 6.45196 5.63008
#
# Compressibility (1/GPa) = 0.04277378
#
# Stress axis : x y z
#
# Youngs Moduli (GPa) = 74.01961 125.05621 25.07574
#
# Poissons Ratio (x) = 0.24087 0.00840
# Poissons Ratio (y) = 0.14257 0.17666
# Poissons Ratio (z) = 0.02479 0.88101
#
# Static dielectric constant tensor:
#      x y z
#    x 1.546280 0.000000 0.000000 
#    y 0.000000 1.585680 0.000000 
#    z 0.000000 0.000000 1.494060 
# 
# From -- ./inp_files/70203.got.cif
#   From: 2010.05.17/outbox.cif.g08.bks.cpg/sg71_36_cif.got.tgz:70203.got - 2010.06.03 16:22:01.
