data_PCOD9517950
_publ_section_title
;
Structure prediction by ZEFSAII (Michael W. Deem and Ramdas Pophale) SiO2 
 PCOD9517950
Probable space group: I M M M
;
_chemical_formula_sum "Si O2"
_cell_formula_units_Z 104
_cell_length_a 9.117409
_cell_length_b 24.956699
_cell_length_c 33.706411
_cell_angle_alpha 90.000000
_cell_angle_beta 90.000000
_cell_angle_gamma 90.000000
_cell_volume 7669.571323
_symmetry_space_group_name_H-M "I M M M"
_symmetry_group_IT_number 71
_symmetry_cell_setting 'orthorhombic'
loop_
_space_group_symop_operation_xyz
x,y,z
-x,-y,z
x,-y,-z
-x,y,-z
-x,-y,-z
x,y,-z
-x,y,z
x,-y,z
1/2+x,1/2+y,1/2+z
1/2-x,1/2-y,1/2+z
1/2+x,1/2-y,1/2-z
1/2-x,1/2+y,1/2-z
1/2-x,1/2-y,1/2-z
1/2+x,1/2+y,1/2-z
1/2-x,1/2+y,1/2+z
1/2+x,1/2-y,1/2+z
loop_
_atom_site_type_symbol
_atom_site_label
_atom_site_fract_x
_atom_site_fract_y
_atom_site_fract_z
Si Si1 0.325113 0.060117 0.745977
Si Si2 0.824229 0.233543 0.810377
Si Si3 0.671942 0.440526 0.330656
Si Si4 0.674694 0.667912 0.769277
Si Si5 0.325671 0.111282 0.953395
Si Si6 0.166640 0.000000 0.048110
Si Si7 0.174929 0.837456 0.883990
O O1 0.500000 0.066236 0.744369
O O2 0.269827 0.062296 0.791464
O O3 0.247039 0.110036 0.725195
O O4 0.287318 0.000000 0.731283
O O5 0.741299 0.287441 0.798370
O O6 0.792819 0.190232 0.775389
O O7 0.784305 0.209267 0.853092
O O8 0.000000 0.242175 0.809588
O O9 0.500000 0.435034 0.318760
O O10 0.690153 0.500000 0.348458
O O11 0.704570 0.392523 0.360103
O O12 0.500000 0.664809 0.773173
O O13 0.500000 0.106829 0.948555
O O14 0.250449 0.054678 0.941956
O O15 0.260415 0.156826 0.924972
O O16 0.294469 0.120875 0.000000
O O17 0.000000 0.000000 0.063792
O O18 0.158789 0.000000 0.000000
O O19 0.000000 0.834596 0.891117
#
# Coordination Sequence:
#
# PCOD9517950 Si02
#       7
#    16  16  16  16  16   8  16
#     4  10  19  29  42  61  84 110 139 171 208 250
#     4   9  18  31  44  62  84 107 136 172 209 246
#     4   9  17  29  42  57  79 104 132 171 213 252
#     4  10  18  30  46  62  82 109 139 170 207 247
#     4  10  21  34  45  60  82 104 130 170 216 258
#     4   9  17  31  49  63  75  99 135 169 209 263
#     4  10  19  31  46  63  81 104 138 172 209 256
#
# _framework density 13.560081
#
# number of rings (size 3 to 8) (size 9 to 14) (size 15 to 20)
#    0.000    2.385    1.538    1.615    1.077    4.615 
#    0.000    0.000    0.000    0.000    0.000    0.000 
#    0.000    0.000    0.000    0.000    0.000    0.769 
#
# Total GULP energy -289961.805998 kJ/mol
# GULP energy per Si atom -5576.188577 kJ/mol
# Density = 1.352922 g / cm^3
# Si number density = 13.560081 Si / 1000 Ang^3
#
#
#
# Elastic Constant Matrix: (Units=GPa)
#
#
# Indices 1 2 3 4 5 6 
#
# 1 48.7334 50.0042 37.4798 0.0000 0.0000 0.0000
# 2 50.0042 97.9436 41.2119 0.0000 0.0000 0.0000
# 3 37.4798 41.2119 65.7485 0.0000 0.0000 0.0000
# 4 0.0000 0.0000 0.0000 21.2466 0.0000 0.0000
# 5 0.0000 0.0000 0.0000 0.0000 18.5731 0.0000
# 6 0.0000 0.0000 0.0000 0.0000 0.0000 21.5103
#
#
#
# Elastic Compliance Matrix: (Units=1/GPa)
#
#
# Indices 1 2 3 4 5 6 
#
# 1 0.056750 -0.020864 -0.019272 0.000000 0.000000 0.000000
# 2 -0.020864 0.021538 -0.001607 0.000000 0.000000 0.000000
# 3 -0.019272 -0.001607 0.027203 0.000000 0.000000 0.000000
# 4 0.000000 0.000000 0.000000 0.047066 0.000000 0.000000
# 5 0.000000 0.000000 0.000000 0.000000 0.053841 0.000000
# 6 0.000000 0.000000 0.000000 0.000000 0.000000 0.046489
#
#
# Mechanical properties :
#
#
# Convention : Reuss Voigt Hill
#
# Bulk Modulus (GPa) = 45.44545 52.20193 48.82369
# Shear Modulus (GPa) = 14.54724 17.84797 16.19760
#
# Velocity S-wave (km/s) = 3.27891 3.63190 3.45991
# Velocity P-wave (km/s) = 6.92257 7.49453 7.21422
#
# Compressibility (1/GPa) = 0.02200440
#
# Stress axis : x y z
#
# Youngs Moduli (GPa) = 17.62129 46.42987 36.76087
#
# Poissons Ratio (x) = 0.96870 0.70847
# Poissons Ratio (y) = 0.36765 0.05907
# Poissons Ratio (z) = 0.33960 0.07461
#
# Static dielectric constant tensor:
#      x y z
#    x 1.450940 0.000000 0.000000 
#    y 0.000000 1.448750 0.000000 
#    z 0.000000 0.000000 1.445400 
# 
# From -- ./inp_files/17242.got.cif
#   From: 2010.05.17/outbox.cif.g08.bks.cpg/sg71_9_cif.got.tgz:17242.got - 2010.06.03 16:22:01.
