data_PCOD9517733
_publ_section_title
;
Structure prediction by ZEFSAII (Michael W. Deem and Ramdas Pophale) SiO2 
 PCOD9517733
Probable space group: I M M M
;
_chemical_formula_sum "Si O2"
_cell_formula_units_Z 80
_cell_length_a 20.569738
_cell_length_b 8.965813
_cell_length_c 25.335842
_cell_angle_alpha 90.000000
_cell_angle_beta 90.000000
_cell_angle_gamma 90.000000
_cell_volume 4672.548077
_symmetry_space_group_name_H-M "I M M M"
_symmetry_group_IT_number 71
_symmetry_cell_setting 'orthorhombic'
loop_
_space_group_symop_operation_xyz
x,y,z
-x,-y,z
x,-y,-z
-x,y,-z
-x,-y,-z
x,y,-z
-x,y,z
x,-y,z
1/2+x,1/2+y,1/2+z
1/2-x,1/2-y,1/2+z
1/2+x,1/2-y,1/2-z
1/2-x,1/2+y,1/2-z
1/2-x,1/2-y,1/2-z
1/2+x,1/2+y,1/2-z
1/2-x,1/2+y,1/2+z
1/2+x,1/2-y,1/2+z
loop_
_atom_site_type_symbol
_atom_site_label
_atom_site_fract_x
_atom_site_fract_y
_atom_site_fract_z
Si Si1 0.389845 0.676544 0.500000
Si Si2 0.391563 0.824165 0.390338
Si Si3 0.265818 0.327593 0.884376
Si Si4 0.809712 0.676404 0.718485
Si Si5 0.250532 0.175662 0.500000
Si Si6 0.925877 0.175409 0.780736
O O1 0.400725 0.500000 0.500000
O O2 0.413562 0.750584 0.445454
O O3 0.312811 0.717025 0.500000
O O4 0.312764 0.808811 0.384979
O O5 0.420171 0.744311 0.339227
O O6 0.406253 0.000000 0.390564
O O7 0.278652 0.500000 0.869719
O O8 0.298752 0.221518 0.842160
O O9 0.286312 0.303309 0.945091
O O10 0.808119 0.500000 0.725755
O O11 0.750000 0.750000 0.750000
O O12 0.875308 0.742364 0.742960
O O13 0.273832 0.000000 0.500000
O O14 0.000000 0.191890 0.762380
O O15 0.909759 0.000000 0.783290
#
# Coordination Sequence:
#
# PCOD9517733 Si02
#       6
#     8  16  16  16   8  16
#     4  10  18  28  47  73 104 139 179 226 266 309
#     4  10  19  33  53  75 104 141 180 222 269 322
#     4   9  17  31  52  79 108 140 176 220 266 316
#     4  12  23  35  55  81 110 144 182 225 268 319
#     4   8  16  30  48  73 108 141 174 215 268 321
#     4  11  24  40  57  78 106 140 180 227 277 329
#
# _framework density 17.121279000000001
#
# number of rings (size 3 to 8) (size 9 to 14) (size 15 to 20)
#    0.000    1.800    2.000    5.100    0.000    4.800 
#    0.000    0.500    0.000    3.000    0.000    0.700 
#    0.000    5.600    0.000    0.000    0.000    0.000 
#
# Total GULP energy -223345.422511 kJ/mol
# GULP energy per Si atom -5583.635563 kJ/mol
# Density = 1.708231 g / cm^3
# Si number density = 17.121279 Si / 1000 Ang^3
#
#
#
# Elastic Constant Matrix: (Units=GPa)
#
#
# Indices 1 2 3 4 5 6 
#
# 1 53.6390 56.8799 42.2234 0.0000 0.0000 0.0000
# 2 56.8799 145.8450 64.0258 0.0000 0.0000 0.0000
# 3 42.2234 64.0258 104.2008 0.0000 0.0000 0.0000
# 4 0.0000 0.0000 0.0000 34.4716 0.0000 0.0000
# 5 0.0000 0.0000 0.0000 0.0000 8.3239 0.0000
# 6 0.0000 0.0000 0.0000 0.0000 0.0000 17.6167
#
#
#
# Elastic Compliance Matrix: (Units=1/GPa)
#
#
# Indices 1 2 3 4 5 6 
#
# 1 0.036306 -0.010546 -0.008232 0.000000 0.000000 0.000000
# 2 -0.010546 0.012452 -0.003378 0.000000 0.000000 0.000000
# 3 -0.008232 -0.003378 0.015008 0.000000 0.000000 0.000000
# 4 0.000000 0.000000 0.000000 0.029009 0.000000 0.000000
# 5 0.000000 0.000000 0.000000 0.000000 0.120136 0.000000
# 6 0.000000 0.000000 0.000000 0.000000 0.000000 0.056764
#
#
# Mechanical properties :
#
#
# Convention : Reuss Voigt Hill
#
# Bulk Modulus (GPa) = 51.39999 69.99368 60.69683
# Shear Modulus (GPa) = 15.60197 21.45283 18.52740
#
# Velocity S-wave (km/s) = 3.02199 3.54360 3.29314
# Velocity P-wave (km/s) = 6.50099 7.59689 7.07020
#
# Compressibility (1/GPa) = 0.01945526
#
# Stress axis : x y z
#
# Youngs Moduli (GPa) = 27.54376 80.30580 66.63031
#
# Poissons Ratio (x) = 0.84687 0.54849
# Poissons Ratio (y) = 0.29047 0.22509
# Poissons Ratio (z) = 0.22674 0.27128
#
# Static dielectric constant tensor:
#      x y z
#    x 1.570980 0.000000 0.000000 
#    y 0.000000 1.573920 0.000000 
#    z 0.000000 0.000000 1.603390 
# 
# From -- ./inp_files/50382.got.cif
#   From: 2010.05.17/outbox.cif.g08.bks.cpg/sg71_26_cif.got.tgz:50382.got - 2010.06.03 16:22:01.
