data_PCOD9517173
_publ_section_title
;
Structure prediction by ZEFSAII (Michael W. Deem and Ramdas Pophale) SiO2 
 PCOD9517173
Probable space group: F D D D
;
_chemical_formula_sum "Si O2"
_cell_formula_units_Z 48
_cell_length_a 15.000000
_cell_length_b 27.000000
_cell_length_c 27.000000
_cell_angle_alpha 90.000000
_cell_angle_beta 90.000000
_cell_angle_gamma 90.000000
_cell_volume 10935.000000
_symmetry_space_group_name_H-M "F D D D"
_symmetry_group_IT_number 70
_space_group.IT_coordinate_system_code '2'
_symmetry_cell_setting 'orthorhombic'
loop_
_space_group_symop_operation_xyz
x,y,z
1/4-x,1/4-y,z
x,1/4-y,1/4-z
1/4-x,y,1/4-z
-x,-y,-z
3/4+x,3/4+y,-z
-x,3/4+y,3/4+z
3/4+x,-y,3/4+z
x,1/2+y,1/2+z
1/4-x,3/4-y,1/2+z
x,3/4-y,3/4-z
1/4-x,1/2+y,3/4-z
-x,1/2-y,1/2-z
3/4+x,1/4+y,1/2-z
-x,1/4+y,1/4+z
3/4+x,1/2-y,1/4+z
1/2+x,y,1/2+z
3/4-x,1/4-y,1/2+z
1/2+x,1/4-y,3/4-z
3/4-x,y,3/4-z
1/2-x,-y,1/2-z
1/4+x,3/4+y,1/2-z
1/2-x,3/4+y,1/4+z
1/4+x,-y,1/4+z
1/2+x,1/2+y,z
3/4-x,3/4-y,z
1/2+x,3/4-y,1/4-z
3/4-x,1/2+y,1/4-z
1/2-x,1/2-y,-z
1/4+x,1/4+y,-z
1/2-x,1/4+y,3/4+z
1/4+x,1/2-y,3/4+z
loop_
_atom_site_type_symbol
_atom_site_label
_atom_site_fract_x
_atom_site_fract_y
_atom_site_fract_z
Si Si1 0.496546 0.875000 0.375000
Si Si2 0.680436 0.226322 0.578356
Si Si3 0.376189 0.769004 0.145115
Si Si4 0.625000 0.125000 0.341962
Si Si5 0.629394 0.807303 0.805535
Si Si6 0.478309 0.870564 0.994948
Si Si7 0.781316 0.746905 0.745701
O O1 0.446497 0.917746 0.407884
O O2 0.557419 0.845507 0.414410
O O3 0.625000 0.246684 0.625000
O O4 0.778425 0.250871 0.581793
O O5 0.616717 0.238561 0.531323
O O6 0.383370 0.824912 0.124009
O O7 0.352273 0.732488 0.098658
O O8 0.306541 0.764114 0.190231
O O9 0.541823 0.130933 0.303367
O O10 0.548891 0.839968 0.779812
O O11 0.694551 0.775994 0.768188
O O12 0.375000 0.875000 0.973732
O O13 0.512461 0.812957 0.993148
#
# Coordination Sequence:
#
# PCOD9517173 Si02
#       7
#    16  32  32  16  32  32  32
#     4  10  21  36  65  96 132 170 207 280 310 395
#     4  11  20  38  62  93 136 170 216 265 337 401
#     4  11  24  41  63  98 135 170 222 281 329 403
#     4  10  22  44  64  91 133 174 210 284 340 386
#     4  11  22  44  65  94 131 170 231 272 330 409
#     4  10  23  44  70  87 125 181 218 275 343 387
#     4  12  24  40  66  97 130 181 215 278 348 394
#
# _framework density 4.3895749999999998
#
# number of rings (size 3 to 8) (size 9 to 14) (size 15 to 20)
#    0.500    0.667    5.000    2.750    0.000    5.333 
#    0.000    7.917    0.000    0.000    0.000    0.000 
#    0.000    0.000    0.000    0.000    0.000    0.000 
#
# Total GULP energy -267402.567667 kJ/mol
# GULP energy per Si atom -5570.886826 kJ/mol
# Density = 0.437958 g / cm^3
# Si number density = 4.389575 Si / 1000 Ang^3
#
#
#
# Elastic Constant Matrix: (Units=GPa)
#
#
# Indices 1 2 3 4 5 6 
#
# 1 107.3956 63.2469 56.7520 0.0000 0.0000 0.0000
# 2 63.2469 162.6784 64.4153 0.0000 0.0000 0.0000
# 3 56.7520 64.4153 136.8595 0.0000 0.0000 0.0000
# 4 0.0000 0.0000 0.0000 35.9544 0.0000 0.0000
# 5 0.0000 0.0000 0.0000 0.0000 33.6344 0.0000
# 6 0.0000 0.0000 0.0000 0.0000 0.0000 43.8263
#
#
#
# Elastic Compliance Matrix: (Units=1/GPa)
#
#
# Indices 1 2 3 4 5 6 
#
# 1 0.013554 -0.003741 -0.003860 0.000000 0.000000 0.000000
# 2 -0.003741 0.008588 -0.002491 0.000000 0.000000 0.000000
# 3 -0.003860 -0.002491 0.010079 0.000000 0.000000 0.000000
# 4 0.000000 0.000000 0.000000 0.027813 0.000000 0.000000
# 5 0.000000 0.000000 0.000000 0.000000 0.029731 0.000000
# 6 0.000000 0.000000 0.000000 0.000000 0.000000 0.022817
#
#
# Mechanical properties :
#
#
# Convention : Reuss Voigt Hill
#
# Bulk Modulus (GPa) = 83.06738 86.19574 84.63156
# Shear Modulus (GPa) = 36.55514 37.51763 37.03639
#
# Velocity S-wave (km/s) = 4.56777 4.62751 4.59774
# Velocity P-wave (km/s) = 8.67361 8.81757 8.74589
#
# Compressibility (1/GPa) = 0.01203842
#
# Stress axis : x y z
#
# Youngs Moduli (GPa) = 73.77707 116.44299 99.21134
#
# Poissons Ratio (x) = 0.43566 0.38292
# Poissons Ratio (y) = 0.27603 0.24709
# Poissons Ratio (z) = 0.28475 0.29001
#
# Static dielectric constant tensor:
#      x y z
#    x 1.643200 0.000000 0.000000 
#    y 0.000000 1.604970 0.000000 
#    z 0.000000 0.000000 1.605830 
# 
# From -- ./inp_files/58746.got.cif
#   From: 2010.05.17/outbox.ucp.g08.bks.cvg/sg70_30_cif.got.tgz:58746.got - 2010.06.11 16:26:41.
