data_PCOD9517264
_publ_section_title
;
Structure prediction by ZEFSAII (Michael W. Deem and Ramdas Pophale) SiO2 
 PCOD9517264
Probable space group: I M M M
;
_chemical_formula_sum "Si O2"
_cell_formula_units_Z 80
_cell_length_a 7.954343
_cell_length_b 27.085557
_cell_length_c 24.802465
_cell_angle_alpha 90.000000
_cell_angle_beta 90.000000
_cell_angle_gamma 90.000000
_cell_volume 5343.636785
_symmetry_space_group_name_H-M "I M M M"
_symmetry_group_IT_number 71
_symmetry_cell_setting 'orthorhombic'
loop_
_space_group_symop_operation_xyz
x,y,z
-x,-y,z
x,-y,-z
-x,y,-z
-x,-y,-z
x,y,-z
-x,y,z
x,-y,z
1/2+x,1/2+y,1/2+z
1/2-x,1/2-y,1/2+z
1/2+x,1/2-y,1/2-z
1/2-x,1/2+y,1/2-z
1/2-x,1/2-y,1/2-z
1/2+x,1/2+y,1/2-z
1/2-x,1/2+y,1/2+z
1/2+x,1/2-y,1/2+z
loop_
_atom_site_type_symbol
_atom_site_label
_atom_site_fract_x
_atom_site_fract_y
_atom_site_fract_z
Si Si1 0.699506 0.222348 0.000000
Si Si2 0.700848 0.854988 0.182064
Si Si3 0.703022 0.055872 0.111176
Si Si4 0.799915 0.200316 0.717828
Si Si5 0.699593 0.391590 0.500000
Si Si6 0.293570 0.243257 0.117875
O O1 0.766725 0.243435 0.056441
O O2 0.500000 0.231957 0.000000
O O3 0.723329 0.163235 0.000000
O O4 0.500000 0.855058 0.176102
O O5 0.765464 0.905721 0.156511
O O6 0.737209 0.843883 0.244573
O O7 0.761460 0.808145 0.146354
O O8 0.500000 0.053939 0.114852
O O9 0.767132 0.000000 0.116221
O O10 0.746004 0.078945 0.053219
O O11 0.750000 0.250000 0.750000
O O12 0.740635 0.211868 0.657019
O O13 0.000000 0.197025 0.716496
O O14 0.500000 0.386272 0.500000
O O15 0.500000 0.242601 0.117494
#
# Coordination Sequence:
#
# PCOD9517264 Si02
#       6
#     8  16  16  16   8  16
#     4  10  16  29  47  58  76 109 141 171 198 230
#     4   9  16  28  43  60  76  97 132 169 204 241
#     4  10  20  34  49  59  72 103 145 179 207 245
#     4   9  16  26  39  59  80 101 128 160 198 241
#     4  12  23  31  40  59  84 106 134 175 217 249
#     4   8  14  24  41  59  75  98 132 165 191 230
#
# _framework density 14.971078
#
# number of rings (size 3 to 8) (size 9 to 14) (size 15 to 20)
#    0.000    2.600    2.000    3.000    0.000    2.400 
#    0.000    1.000    0.000    0.000    0.000    0.000 
#    0.000    0.000    0.000    0.900    0.000   20.200 
#
# Total GULP energy -222749.710191 kJ/mol
# GULP energy per Si atom -5568.742755 kJ/mol
# Density = 1.493700 g / cm^3
# Si number density = 14.971078 Si / 1000 Ang^3
#
#
#
# Elastic Constant Matrix: (Units=GPa)
#
#
# Indices 1 2 3 4 5 6 
#
# 1 8.1518 -1.3970 0.8080 0.0000 0.0000 0.0000
# 2 -1.3970 63.3662 71.4152 0.0000 0.0000 0.0000
# 3 0.8080 71.4152 143.4841 0.0000 0.0000 0.0000
# 4 0.0000 0.0000 0.0000 10.1580 0.0000 0.0000
# 5 0.0000 0.0000 0.0000 0.0000 14.9102 0.0000
# 6 0.0000 0.0000 0.0000 0.0000 0.0000 9.0424
#
#
#
# Elastic Compliance Matrix: (Units=1/GPa)
#
#
# Indices 1 2 3 4 5 6 
#
# 1 0.124520 0.008052 -0.004709 0.000000 0.000000 0.000000
# 2 0.008052 0.036464 -0.018194 0.000000 0.000000 0.000000
# 3 -0.004709 -0.018194 0.016052 0.000000 0.000000 0.000000
# 4 0.000000 0.000000 0.000000 0.098445 0.000000 0.000000
# 5 0.000000 0.000000 0.000000 0.000000 0.067068 0.000000
# 6 0.000000 0.000000 0.000000 0.000000 0.000000 0.110591
#
#
# Mechanical properties :
#
#
# Convention : Reuss Voigt Hill
#
# Bulk Modulus (GPa) = 6.78732 39.62829 23.20781
# Shear Modulus (GPa) = 9.39933 16.43383 12.91658
#
# Velocity S-wave (km/s) = 2.50838 3.31676 2.94048
# Velocity P-wave (km/s) = 3.59621 6.41835 5.20230
#
# Compressibility (1/GPa) = 0.14733346
#
# Stress axis : x y z
#
# Youngs Moduli (GPa) = 8.03086 27.42399 62.29858
#
# Poissons Ratio (x) = -0.22083 0.29337
# Poissons Ratio (y) = -0.06467 1.13349
# Poissons Ratio (z) = 0.03782 0.49897
#
# Static dielectric constant tensor:
#      x y z
#    x 1.540100 0.000000 0.000000 
#    y 0.000000 1.488250 0.000000 
#    z 0.000000 0.000000 1.531560 
# 
# From -- ./inp_files/12770.got.cif
#   From: 2010.05.17/outbox.cif.g08.bks.cpg/sg71_7_cif.got.tgz:12770.got - 2010.06.03 16:22:01.
