data_PCOD9517214
_publ_section_title
;
Structure prediction by ZEFSAII (Michael W. Deem and Ramdas Pophale) SiO2 
 PCOD9517214
Probable space group: I M M M
;
_chemical_formula_sum "Si O2"
_cell_formula_units_Z 104
_cell_length_a 21.938283
_cell_length_b 15.185826
_cell_length_c 14.430616
_cell_angle_alpha 90.000000
_cell_angle_beta 90.000000
_cell_angle_gamma 90.000000
_cell_volume 4807.573406
_symmetry_space_group_name_H-M "I M M M"
_symmetry_group_IT_number 71
_symmetry_cell_setting 'orthorhombic'
loop_
_space_group_symop_operation_xyz
x,y,z
-x,-y,z
x,-y,-z
-x,y,-z
-x,-y,-z
x,y,-z
-x,y,z
x,-y,z
1/2+x,1/2+y,1/2+z
1/2-x,1/2-y,1/2+z
1/2+x,1/2-y,1/2-z
1/2-x,1/2+y,1/2-z
1/2-x,1/2-y,1/2-z
1/2+x,1/2+y,1/2-z
1/2-x,1/2+y,1/2+z
1/2+x,1/2-y,1/2+z
loop_
_atom_site_type_symbol
_atom_site_label
_atom_site_fract_x
_atom_site_fract_y
_atom_site_fract_z
Si Si1 0.617952 0.713512 0.650646
Si Si2 0.125430 0.403113 0.136916
Si Si3 0.572175 0.096080 0.154354
Si Si4 0.729970 0.399361 0.640360
Si Si5 0.000000 0.104167 0.888058
Si Si6 0.841051 0.734208 0.640259
Si Si7 0.728950 0.595890 0.863296
O O1 0.601456 0.807881 0.605475
O O2 0.672050 0.656244 0.606021
O O3 0.559246 0.652017 0.652739
O O4 0.643685 0.739984 0.752577
O O5 0.106961 0.500000 0.100377
O O6 0.105492 0.407863 0.245205
O O7 0.198389 0.394891 0.121169
O O8 0.500000 0.104078 0.168125
O O9 0.599032 0.182966 0.106759
O O10 0.584004 0.000000 0.110305
O O11 0.733850 0.500000 0.606413
O O12 0.789431 0.340146 0.626811
O O13 0.723764 0.405429 0.751770
O O14 0.000000 0.000000 0.868072
O O15 0.000000 0.114583 0.000000
O O16 0.811590 0.823507 0.602128
O O17 0.709684 0.500000 0.897240
#
# Coordination Sequence:
#
# PCOD9517214 Si02
#       7
#    16  16  16  16   8  16  16
#     4  10  18  30  48  64  78 110 149 186 233 278
#     4   9  15  24  40  62  83 103 130 168 216 269
#     4   9  16  22  30  46  74 110 141 161 189 240
#     4  10  15  23  40  66  91 106 128 171 223 278
#     4  11  26  44  53  59  79 115 166 220 252 267
#     4  10  16  24  38  62  86 105 124 175 220 272
#     4   9  14  22  34  53  82 105 119 151 210 266
#
# _framework density 21.632535000000001
#
# number of rings (size 3 to 8) (size 9 to 14) (size 15 to 20)
#    0.000    2.385    4.615    1.846    4.308    0.615 
#    0.000    0.000    0.000    0.923    0.000    0.000 
#    0.000    0.000    0.000    0.000    0.000    0.769 
#
# Total GULP energy -289654.022314 kJ/mol
# GULP energy per Si atom -5570.269660 kJ/mol
# Density = 2.158330 g / cm^3
# Si number density = 21.632535 Si / 1000 Ang^3
#
#
#
# Elastic Constant Matrix: (Units=GPa)
#
#
# Indices 1 2 3 4 5 6 
#
# 1 117.4864 78.6046 1.8954 0.0000 0.0000 0.0000
# 2 78.6046 243.8866 11.7000 0.0000 0.0000 0.0000
# 3 1.8954 11.7000 81.3163 0.0000 0.0000 0.0000
# 4 0.0000 0.0000 0.0000 -38.1971 0.0000 0.0000
# 5 0.0000 0.0000 0.0000 0.0000 -3.8537 0.0000
# 6 0.0000 0.0000 0.0000 0.0000 0.0000 45.7741
#
#
#
# Elastic Compliance Matrix: (Units=1/GPa)
#
#
# Indices 1 2 3 4 5 6 
#
# 1 0.010857 -0.003511 0.000252 0.000000 0.000000 0.000000
# 2 -0.003511 0.005264 -0.000676 0.000000 0.000000 0.000000
# 3 0.000252 -0.000676 0.012389 0.000000 0.000000 0.000000
# 4 0.000000 0.000000 0.000000 -0.026180 0.000000 0.000000
# 5 0.000000 0.000000 0.000000 0.000000 -0.259490 0.000000
# 6 0.000000 0.000000 0.000000 0.000000 0.000000 0.021846
#
#
# Mechanical properties :
#
#
# Convention : Reuss Voigt Hill
#
# Bulk Modulus (GPa) = 48.44796 69.67662 59.06229
# Shear Modulus (GPa) = -22.66918 24.11060 0.72071
#
# Velocity S-wave (km/s) = -3.24067 3.34211 0.57783
# Velocity P-wave (km/s) = 2.90549 6.86819 5.27323
#
# Compressibility (1/GPa) = 0.02064070
#
# Stress axis : x y z
#
# Youngs Moduli (GPa) = 92.10858 189.95717 80.71688
#
# Poissons Ratio (x) = 0.66698 -0.02035
# Poissons Ratio (y) = 0.32341 0.05453
# Poissons Ratio (z) = -0.02322 0.12834
#
# Static dielectric constant tensor:
#      x y z
#    x 1.756890 0.000000 0.000000 
#    y 0.000000 1.844040 0.000000 
#    z 0.000000 0.000000 1.871460 
# 
# From -- ./inp_files/55077.got.cif
#   From: 2010.05.17/outbox.cif.g08.bks.cpg/sg71_28_cif.got.tgz:55077.got - 2010.06.03 16:22:01.
