data_PCOD9517689
_publ_section_title
;
Structure prediction by ZEFSAII (Michael W. Deem and Ramdas Pophale) SiO2 
 PCOD9517689
Probable space group: I M M M
;
_chemical_formula_sum "Si O2"
_cell_formula_units_Z 116
_cell_length_a 26.171979
_cell_length_b 32.304938
_cell_length_c 7.635518
_cell_angle_alpha 90.000000
_cell_angle_beta 90.000000
_cell_angle_gamma 90.000000
_cell_volume 6455.709514
_symmetry_space_group_name_H-M "I M M M"
_symmetry_group_IT_number 71
_symmetry_cell_setting 'orthorhombic'
loop_
_space_group_symop_operation_xyz
x,y,z
-x,-y,z
x,-y,-z
-x,y,-z
-x,-y,-z
x,y,-z
-x,y,z
x,-y,z
1/2+x,1/2+y,1/2+z
1/2-x,1/2-y,1/2+z
1/2+x,1/2-y,1/2-z
1/2-x,1/2+y,1/2-z
1/2-x,1/2-y,1/2-z
1/2+x,1/2+y,1/2-z
1/2-x,1/2+y,1/2+z
1/2+x,1/2-y,1/2+z
loop_
_atom_site_type_symbol
_atom_site_label
_atom_site_fract_x
_atom_site_fract_y
_atom_site_fract_z
Si Si1 0.057900 0.181826 0.710970
Si Si2 0.834665 0.662485 0.300089
Si Si3 0.145844 0.876558 0.795816
Si Si4 0.842333 0.500000 0.000000
Si Si5 0.774568 0.808222 0.699853
Si Si6 0.179725 0.430302 0.705548
Si Si7 0.792907 0.952698 0.708449
Si Si8 0.137877 0.251125 0.284628
O O1 0.056423 0.184147 0.500000
O O2 0.089669 0.140737 0.757730
O O3 0.092202 0.220861 0.771232
O O4 0.000000 0.182261 0.776426
O O5 0.852120 0.658610 0.500000
O O6 0.775916 0.677956 0.298519
O O7 0.835452 0.615879 0.231047
O O8 0.864747 0.701654 0.222079
O O9 0.185600 0.846387 0.699311
O O10 0.159394 0.923205 0.745264
O O11 0.156145 0.871343 0.000000
O O12 0.839586 0.464045 0.156202
O O13 0.759687 0.799590 0.500000
O O14 0.808623 0.770306 0.769961
O O15 0.164444 0.436479 0.500000
O O16 0.241597 0.433837 0.709336
O O17 0.783677 0.953768 0.500000
O O18 0.799448 0.000000 0.768032
O O19 0.138758 0.251062 0.500000
#
# Coordination Sequence:
#
# PCOD9517689 Si02
#       8
#    16  16  16   4  16  16  16  16
#     4   9  18  35  57  75  92 122 162 203 250 306
#     4  10  19  29  43  65  97 130 162 199 245 291
#     4  11  21  31  47  71  97 125 161 205 251 300
#     4  12  22  36  48  66  96 136 184 216 248 292
#     4  10  18  28  45  63  92 129 164 199 234 286
#     4  11  21  32  48  69  95 136 176 214 252 295
#     4  11  20  33  49  68  94 126 165 211 256 297
#     4   8  16  30  45  68  95 124 158 198 242 296
#
# _framework density 17.968589999999999
#
# number of rings (size 3 to 8) (size 9 to 14) (size 15 to 20)
#    0.000    1.931    2.759    3.517    0.966    1.103 
#    0.000    2.759    0.000    0.414    0.000    2.897 
#    0.000    0.000    0.000    1.241    0.000   17.655 
#
# Total GULP energy -322948.683360 kJ/mol
# GULP energy per Si atom -5568.080748 kJ/mol
# Density = 1.792769 g / cm^3
# Si number density = 17.968590 Si / 1000 Ang^3
#
#
#
# Elastic Constant Matrix: (Units=GPa)
#
#
# Indices 1 2 3 4 5 6 
#
# 1 24.8963 2.8338 -4.3131 0.0000 0.0000 0.0000
# 2 2.8338 132.3256 10.5768 0.0000 0.0000 0.0000
# 3 -4.3131 10.5768 75.0322 0.0000 0.0000 0.0000
# 4 0.0000 0.0000 0.0000 14.9447 0.0000 0.0000
# 5 0.0000 0.0000 0.0000 0.0000 5.9640 0.0000
# 6 0.0000 0.0000 0.0000 0.0000 0.0000 1.7590
#
#
#
# Elastic Compliance Matrix: (Units=1/GPa)
#
#
# Indices 1 2 3 4 5 6 
#
# 1 0.040720 -0.001071 0.002492 0.000000 0.000000 0.000000
# 2 -0.001071 0.007671 -0.001143 0.000000 0.000000 0.000000
# 3 0.002492 -0.001143 0.013632 0.000000 0.000000 0.000000
# 4 0.000000 0.000000 0.000000 0.066913 0.000000 0.000000
# 5 0.000000 0.000000 0.000000 0.000000 0.167673 0.000000
# 6 0.000000 0.000000 0.000000 0.000000 0.000000 0.568501
#
#
# Mechanical properties :
#
#
# Convention : Reuss Voigt Hill
#
# Bulk Modulus (GPa) = 15.97986 27.82767 21.90377
# Shear Modulus (GPa) = 5.64707 19.41064 12.52886
#
# Velocity S-wave (km/s) = 1.77470 3.29029 2.64344
# Velocity P-wave (km/s) = 3.62104 5.47313 4.64042
#
# Compressibility (1/GPa) = 0.06257875
#
# Stress axis : x y z
#
# Youngs Moduli (GPa) = 24.55780 130.35410 73.35699
#
# Poissons Ratio (x) = 0.13964 -0.18279
# Poissons Ratio (y) = 0.02631 0.08384
# Poissons Ratio (z) = -0.06119 0.14899
#
# Static dielectric constant tensor:
#      x y z
#    x 1.590290 0.000000 0.000000 
#    y 0.000000 1.665690 0.000000 
#    z 0.000000 0.000000 1.681760 
# 
# From -- ./inp_files/15850.got.cif
#   From: 2010.05.17/outbox.cif.g08.bks.cpg/sg71_8_cif.got.tgz:15850.got - 2010.06.03 16:22:01.
