data_PCOD9517752
_publ_section_title
;
Structure prediction by ZEFSAII (Michael W. Deem and Ramdas Pophale) SiO2 
 PCOD9517752
Probable space group: I M M M
;
_chemical_formula_sum "Si O2"
_cell_formula_units_Z 88
_cell_length_a 24.597069
_cell_length_b 31.070191
_cell_length_c 8.803707
_cell_angle_alpha 90.000000
_cell_angle_beta 90.000000
_cell_angle_gamma 90.000000
_cell_volume 6728.106582
_symmetry_space_group_name_H-M "I M M M"
_symmetry_group_IT_number 71
_symmetry_cell_setting 'orthorhombic'
loop_
_space_group_symop_operation_xyz
x,y,z
-x,-y,z
x,-y,-z
-x,y,-z
-x,-y,-z
x,y,-z
-x,y,z
x,-y,z
1/2+x,1/2+y,1/2+z
1/2-x,1/2-y,1/2+z
1/2+x,1/2-y,1/2-z
1/2-x,1/2+y,1/2-z
1/2-x,1/2-y,1/2-z
1/2+x,1/2+y,1/2-z
1/2-x,1/2+y,1/2+z
1/2+x,1/2-y,1/2+z
loop_
_atom_site_type_symbol
_atom_site_label
_atom_site_fract_x
_atom_site_fract_y
_atom_site_fract_z
Si Si1 0.892884 0.587522 0.178119
Si Si2 0.500000 0.763796 0.821939
Si Si3 0.279851 0.708484 0.317729
Si Si4 0.323768 0.161023 0.182579
Si Si5 0.615607 0.754549 0.317435
Si Si6 0.936181 0.500000 0.317852
Si Si7 0.000000 0.645852 0.173334
O O1 0.846348 0.616314 0.254492
O O2 0.906465 0.542403 0.256091
O O3 0.947271 0.616475 0.191311
O O4 0.881724 0.581165 0.000000
O O5 0.444362 0.747500 0.746635
O O6 0.500000 0.815045 0.789188
O O7 0.500000 0.755267 0.000000
O O8 0.278309 0.710852 0.500000
O O9 0.250000 0.750000 0.250000
O O10 0.239564 0.669648 0.275016
O O11 0.342592 0.715996 0.274572
O O12 0.359098 0.200805 0.251385
O O13 0.329270 0.162420 0.000000
O O14 0.613802 0.758675 0.500000
O O15 0.935658 0.500000 0.500000
O O16 0.000000 0.500000 0.268248
O O17 0.000000 0.663599 0.000000
#
# Coordination Sequence:
#
# PCOD9517752 Si02
#       7
#    16   8  16  16  16   8   8
#     4  11  21  33  47  60  77 104 135 166 208 254
#     4  12  22  28  39  59  82 106 135 172 208 240
#     4   8  16  28  42  58  77 101 128 162 200 238
#     4  10  18  29  44  62  80  99 130 169 205 239
#     4  10  18  29  42  57  79 106 134 163 201 244
#     4  11  23  35  47  61  79 101 131 172 215 250
#     4  10  20  31  43  56  77 104 134 167 204 247
#
# _framework density 13.079459
#
# number of rings (size 3 to 8) (size 9 to 14) (size 15 to 20)
#    0.000    1.909    2.727    2.727    0.000    2.545 
#    0.000    0.000    0.000    0.000    0.000    0.000 
#    0.000    0.000    0.000    0.000    0.000    0.909 
#
# Total GULP energy -245194.792648 kJ/mol
# GULP energy per Si atom -5572.608924 kJ/mol
# Density = 1.304969 g / cm^3
# Si number density = 13.079459 Si / 1000 Ang^3
#
#
#
# Elastic Constant Matrix: (Units=GPa)
#
#
# Indices 1 2 3 4 5 6 
#
# 1 112.4790 52.8384 42.7557 0.0000 0.0000 0.0000
# 2 52.8384 65.7743 31.0830 0.0000 0.0000 0.0000
# 3 42.7557 31.0830 57.9865 0.0000 0.0000 0.0000
# 4 0.0000 0.0000 0.0000 14.8412 0.0000 0.0000
# 5 0.0000 0.0000 0.0000 0.0000 15.2972 0.0000
# 6 0.0000 0.0000 0.0000 0.0000 0.0000 15.5594
#
#
#
# Elastic Compliance Matrix: (Units=1/GPa)
#
#
# Indices 1 2 3 4 5 6 
#
# 1 0.015942 -0.009712 -0.006549 0.000000 0.000000 0.000000
# 2 -0.009712 0.026278 -0.006925 0.000000 0.000000 0.000000
# 3 -0.006549 -0.006925 0.025786 0.000000 0.000000 0.000000
# 4 0.000000 0.000000 0.000000 0.067380 0.000000 0.000000
# 5 0.000000 0.000000 0.000000 0.000000 0.065371 0.000000
# 6 0.000000 0.000000 0.000000 0.000000 0.000000 0.064270
#
#
# Mechanical properties :
#
#
# Convention : Reuss Voigt Hill
#
# Bulk Modulus (GPa) = 46.22191 54.39932 50.31062
# Shear Modulus (GPa) = 15.69312 16.44374 16.06843
#
# Velocity S-wave (km/s) = 3.46761 3.54957 3.50883
# Velocity P-wave (km/s) = 7.17276 7.64729 7.41382
#
# Compressibility (1/GPa) = 0.02163476
#
# Stress axis : x y z
#
# Youngs Moduli (GPa) = 62.72628 38.05454 38.78064
#
# Poissons Ratio (x) = 0.36959 0.25397
# Poissons Ratio (y) = 0.60921 0.26855
# Poissons Ratio (z) = 0.41078 0.26352
#
# Static dielectric constant tensor:
#      x y z
#    x 1.458140 0.000000 0.000000 
#    y 0.000000 1.403190 0.000000 
#    z 0.000000 0.000000 1.439490 
# 
# From -- ./inp_files/13580.got.cif
#   From: 2010.05.17/outbox.cif.g08.bks.cpg/sg71_7_cif.got.tgz:13580.got - 2010.06.03 16:22:01.
