data_PCOD9517772
_publ_section_title
;
Structure prediction by ZEFSAII (Michael W. Deem and Ramdas Pophale) SiO2 
 PCOD9517772
Probable space group: I M M M
;
_chemical_formula_sum "Si O2"
_cell_formula_units_Z 96
_cell_length_a 28.783924
_cell_length_b 8.971515
_cell_length_c 29.166667
_cell_angle_alpha 90.000000
_cell_angle_beta 90.000000
_cell_angle_gamma 90.000000
_cell_volume 7531.866092
_symmetry_space_group_name_H-M "I M M M"
_symmetry_group_IT_number 71
_symmetry_cell_setting 'orthorhombic'
loop_
_space_group_symop_operation_xyz
x,y,z
-x,-y,z
x,-y,-z
-x,y,-z
-x,-y,-z
x,y,-z
-x,y,z
x,-y,z
1/2+x,1/2+y,1/2+z
1/2-x,1/2-y,1/2+z
1/2+x,1/2-y,1/2-z
1/2-x,1/2+y,1/2-z
1/2-x,1/2-y,1/2-z
1/2+x,1/2+y,1/2-z
1/2-x,1/2+y,1/2+z
1/2+x,1/2-y,1/2+z
loop_
_atom_site_type_symbol
_atom_site_label
_atom_site_fract_x
_atom_site_fract_y
_atom_site_fract_z
Si Si1 0.280646 0.820735 0.601054
Si Si2 0.804848 0.322572 0.000000
Si Si3 0.906196 0.821629 0.000000
Si Si4 0.222485 0.828261 0.683448
Si Si5 0.554906 0.176320 0.407454
Si Si6 0.368253 0.677601 0.347383
Si Si7 0.677484 0.829116 0.735577
O O1 0.277792 0.791327 0.547081
O O2 0.236643 0.777453 0.632425
O O3 0.326091 0.739371 0.620959
O O4 0.286899 0.000000 0.607648
O O5 0.852789 0.232115 0.000000
O O6 0.816272 0.500000 0.000000
O O7 0.930186 0.754692 0.954802
O O8 0.908893 0.000000 0.000000
O O9 0.272267 0.824995 0.709938
O O10 0.187433 0.732328 0.713741
O O11 0.206971 0.000000 0.682495
O O12 0.500000 0.194204 0.400305
O O13 0.585325 0.249217 0.367358
O O14 0.565515 0.000000 0.410664
O O15 0.370038 0.500000 0.350256
O O16 0.355984 0.730766 0.296048
O O17 0.661989 0.000000 0.736056
#
# Coordination Sequence:
#
# PCOD9517772 Si02
#       7
#    16   8   8  16  16  16  16
#     4   9  17  28  42  57  76 101 127 154 188 231
#     4  10  18  29  45  58  76 105 132 158 191 235
#     4  12  23  33  46  63  76  92 122 164 204 237
#     4   8  14  24  37  56  77  96 120 150 182 217
#     4  11  23  37  49  58  72  97 126 157 197 244
#     4  11  20  29  43  60  77  94 117 154 195 232
#     4   9  16  26  40  56  75  97 120 144 180 229
#
# _framework density 12.745844999999999
#
# number of rings (size 3 to 8) (size 9 to 14) (size 15 to 20)
#    0.000    2.167    1.667    4.500    0.000    6.333 
#    0.000    0.000    0.000    0.000    0.000    0.000 
#    0.000    0.000    0.000    0.000    0.000    0.000 
#
# Total GULP energy -267550.310753 kJ/mol
# GULP energy per Si atom -5573.964807 kJ/mol
# Density = 1.271683 g / cm^3
# Si number density = 12.745845 Si / 1000 Ang^3
#
#
#
# Elastic Constant Matrix: (Units=GPa)
#
#
# Indices 1 2 3 4 5 6 
#
# 1 33.7630 30.9826 43.2868 0.0000 0.0000 0.0000
# 2 30.9826 74.8383 50.0167 0.0000 0.0000 0.0000
# 3 43.2868 50.0167 100.3131 0.0000 0.0000 0.0000
# 4 0.0000 0.0000 0.0000 18.5864 0.0000 0.0000
# 5 0.0000 0.0000 0.0000 0.0000 7.1844 0.0000
# 6 0.0000 0.0000 0.0000 0.0000 0.0000 10.9438
#
#
#
# Elastic Compliance Matrix: (Units=1/GPa)
#
#
# Indices 1 2 3 4 5 6 
#
# 1 0.075112 -0.014149 -0.025357 0.000000 0.000000 0.000000
# 2 -0.014149 0.022705 -0.005216 0.000000 0.000000 0.000000
# 3 -0.025357 -0.005216 0.023511 0.000000 0.000000 0.000000
# 4 0.000000 0.000000 0.000000 0.053803 0.000000 0.000000
# 5 0.000000 0.000000 0.000000 0.000000 0.139190 0.000000
# 6 0.000000 0.000000 0.000000 0.000000 0.000000 0.091376
#
#
# Mechanical properties :
#
#
# Convention : Reuss Voigt Hill
#
# Bulk Modulus (GPa) = 31.36241 50.83183 41.09712
# Shear Modulus (GPa) = 9.88593 12.98481 11.43537
#
# Velocity S-wave (km/s) = 2.78802 3.19525 2.99855
# Velocity P-wave (km/s) = 5.91806 7.31987 6.65597
#
# Compressibility (1/GPa) = 0.03188530
#
# Stress axis : x y z
#
# Youngs Moduli (GPa) = 13.31343 44.04234 42.53238
#
# Poissons Ratio (x) = 0.62315 1.07851
# Poissons Ratio (y) = 0.18837 0.22183
# Poissons Ratio (z) = 0.33759 0.22971
#
# Static dielectric constant tensor:
#      x y z
#    x 1.384370 0.000000 0.000000 
#    y 0.000000 1.429180 0.000000 
#    z 0.000000 0.000000 1.437300 
# 
# From -- ./inp_files/71243.got.cif
#   From: 2010.05.17/outbox.cif.g08.bks.cpg/sg71_36_cif.got.tgz:71243.got - 2010.06.03 16:22:01.
