data_PCOD9517015
_publ_section_title
;
Structure prediction by ZEFSAII (Michael W. Deem and Ramdas Pophale) SiO2 
 PCOD9517015
Probable space group: F D D D
;
_chemical_formula_sum "Si O2"
_cell_formula_units_Z 176
_cell_length_a 16.146869
_cell_length_b 29.945921
_cell_length_c 16.244264
_cell_angle_alpha 90.000000
_cell_angle_beta 90.000000
_cell_angle_gamma 90.000000
_cell_volume 7854.635487
_symmetry_space_group_name_H-M "F D D D"
_symmetry_group_IT_number 70
_space_group.IT_coordinate_system_code '2'
_symmetry_cell_setting 'orthorhombic'
loop_
_space_group_symop_operation_xyz
x,y,z
1/4-x,1/4-y,z
x,1/4-y,1/4-z
1/4-x,y,1/4-z
-x,-y,-z
3/4+x,3/4+y,-z
-x,3/4+y,3/4+z
3/4+x,-y,3/4+z
x,1/2+y,1/2+z
1/4-x,3/4-y,1/2+z
x,3/4-y,3/4-z
1/4-x,1/2+y,3/4-z
-x,1/2-y,1/2-z
3/4+x,1/4+y,1/2-z
-x,1/4+y,1/4+z
3/4+x,1/2-y,1/4+z
1/2+x,y,1/2+z
3/4-x,1/4-y,1/2+z
1/2+x,1/4-y,3/4-z
3/4-x,y,3/4-z
1/2-x,-y,1/2-z
1/4+x,3/4+y,1/2-z
1/2-x,3/4+y,1/4+z
1/4+x,-y,1/4+z
1/2+x,1/2+y,z
3/4-x,3/4-y,z
1/2+x,3/4-y,1/4-z
3/4-x,1/2+y,1/4-z
1/2-x,1/2-y,-z
1/4+x,1/4+y,-z
1/2-x,1/4+y,3/4+z
1/4+x,1/2-y,3/4+z
loop_
_atom_site_type_symbol
_atom_site_label
_atom_site_fract_x
_atom_site_fract_y
_atom_site_fract_z
Si Si1 0.852840 0.325047 0.137415
Si Si2 0.051225 0.075039 0.059658
Si Si3 0.375000 0.575337 0.875000
Si Si4 0.309639 0.035088 0.940386
Si Si5 0.519519 0.008046 0.345506
Si Si6 0.856807 0.632652 0.215523
O O1 0.875000 0.375000 0.107325
O O2 0.898433 0.319690 0.225535
O O3 0.755145 0.317507 0.144421
O O4 0.893016 0.283316 0.090511
O O5 0.125000 0.079044 0.125000
O O6 0.988664 0.115845 0.043804
O O7 0.993974 0.034657 0.094830
O O8 0.453812 0.543333 0.880234
O O9 0.387871 0.604150 0.792844
O O10 0.375000 0.016081 0.875000
O O11 0.357627 0.066306 0.006085
O O12 0.254135 0.004359 0.999928
O O13 0.894672 0.625000 0.125000
#
# Coordination Sequence:
#
# PCOD9517015 Si02
#       6
#    32  32  16  32  32  32
#     4  12  24  42  65  97 135 175 219 278 357 406
#     4  12  22  37  67 107 136 161 211 290 369 422
#     4  12  24  44  68 105 144 176 227 286 346 416
#     4  12  26  44  64  96 139 184 231 280 335 411
#     4  12  25  39  69  99 135 179 230 284 342 408
#     4  12  24  41  69 103 141 180 216 280 357 418
#
# _framework density 22.407150999999999
#
# number of rings (size 3 to 8) (size 9 to 14) (size 15 to 20)
#    0.000    0.000    9.091    0.545    2.545    0.727 
#    1.636    0.000    0.000    0.000    0.000    0.000 
#    0.000    0.000    0.000    0.000    0.000    0.000 
#
# Total GULP energy -245742.802758 kJ/mol
# GULP energy per Si atom -5585.063699 kJ/mol
# Density = 2.235615 g / cm^3
# Si number density = 22.407151 Si / 1000 Ang^3
#
#
#
# Elastic Constant Matrix: (Units=GPa)
#
#
# Indices 1 2 3 4 5 6 
#
# 1 39.6867 4.8940 2.8299 0.0000 0.0000 0.0000
# 2 4.8940 73.4220 16.4805 0.0000 0.0000 0.0000
# 3 2.8299 16.4805 79.4148 0.0000 0.0000 0.0000
# 4 0.0000 0.0000 0.0000 17.8078 0.0000 0.0000
# 5 0.0000 0.0000 0.0000 0.0000 35.3956 0.0000
# 6 0.0000 0.0000 0.0000 0.0000 0.0000 21.9476
#
#
#
# Elastic Compliance Matrix: (Units=1/GPa)
#
#
# Indices 1 2 3 4 5 6 
#
# 1 0.025432 -0.001565 -0.000582 0.000000 0.000000 0.000000
# 2 -0.001565 0.014382 -0.002929 0.000000 0.000000 0.000000
# 3 -0.000582 -0.002929 0.013221 0.000000 0.000000 0.000000
# 4 0.000000 0.000000 0.000000 0.056155 0.000000 0.000000
# 5 0.000000 0.000000 0.000000 0.000000 0.028252 0.000000
# 6 0.000000 0.000000 0.000000 0.000000 0.000000 0.045563
#
#
# Mechanical properties :
#
#
# Convention : Reuss Voigt Hill
#
# Bulk Modulus (GPa) = 23.31871 26.77028 25.04450
# Shear Modulus (GPa) = 24.10233 26.25148 25.17690
#
# Velocity S-wave (km/s) = 3.28327 3.42653 3.35567
# Velocity P-wave (km/s) = 4.98022 5.25623 5.12008
#
# Compressibility (1/GPa) = 0.04288401
#
# Stress axis : x y z
#
# Youngs Moduli (GPa) = 39.32094 69.53331 75.63938
#
# Poissons Ratio (x) = 0.10879 0.04399
# Poissons Ratio (y) = 0.06152 0.22153
# Poissons Ratio (z) = 0.02287 0.20365
#
# Static dielectric constant tensor:
#      x y z
#    x 1.857880 0.000000 0.000000 
#    y 0.000000 1.941460 0.000000 
#    z 0.000000 0.000000 1.927410 
# 
# From -- ./inp_files/35436.got.cif
#   From: 2010.05.17/outbox.cif.g08.bks.cpg/sg70_18_cif.got.tgz:35436.got - 2010.06.03 15:57:51.
