data_PCOD9517546
_publ_section_title
;
Structure prediction by ZEFSAII (Michael W. Deem and Ramdas Pophale) SiO2 
 PCOD9517546
Probable space group: I M M M
;
_chemical_formula_sum "Si O2"
_cell_formula_units_Z 72
_cell_length_a 9.509737
_cell_length_b 14.562689
_cell_length_c 21.583385
_cell_angle_alpha 90.000000
_cell_angle_beta 90.000000
_cell_angle_gamma 90.000000
_cell_volume 2989.025629
_symmetry_space_group_name_H-M "I M M M"
_symmetry_group_IT_number 71
_symmetry_cell_setting 'orthorhombic'
loop_
_space_group_symop_operation_xyz
x,y,z
-x,-y,z
x,-y,-z
-x,y,-z
-x,-y,-z
x,y,-z
-x,y,z
x,-y,z
1/2+x,1/2+y,1/2+z
1/2-x,1/2-y,1/2+z
1/2+x,1/2-y,1/2-z
1/2-x,1/2+y,1/2-z
1/2-x,1/2-y,1/2-z
1/2+x,1/2+y,1/2-z
1/2-x,1/2+y,1/2+z
1/2+x,1/2-y,1/2+z
loop_
_atom_site_type_symbol
_atom_site_label
_atom_site_fract_x
_atom_site_fract_y
_atom_site_fract_z
Si Si1 0.162380 0.367994 0.877790
Si Si2 0.328783 0.350407 0.000000
Si Si3 0.706864 0.349179 0.372967
Si Si4 0.835351 0.154465 0.261269
Si Si5 0.500000 0.890511 0.075207
Si Si6 0.647658 0.331475 0.500000
O O1 0.255797 0.390596 0.938220
O O2 0.155993 0.256350 0.874481
O O3 0.249522 0.393758 0.816184
O O4 0.000000 0.398996 0.879897
O O5 0.500000 0.354991 0.000000
O O6 0.270396 0.244904 0.000000
O O7 0.669886 0.390338 0.306981
O O8 0.870776 0.349979 0.386776
O O9 0.653223 0.389671 0.437693
O O10 0.750000 0.250000 0.250000
O O11 0.000000 0.168576 0.277502
O O12 0.500000 0.000000 0.082348
O O13 0.500000 0.876306 0.000000
O O14 0.500000 0.278173 0.500000
#
# Coordination Sequence:
#
# PCOD9517546 Si02
#       6
#    16   8  16  16   8   8
#     4  10  20  30  45  71 102 129 163 196 240 306
#     4  10  18  26  42  62  95 131 165 191 219 274
#     4  10  19  29  49  63  90 118 157 206 263 294
#     4  10  19  29  45  70  98 122 156 196 247 310
#     4  11  24  38  50  70  90 123 183 243 272 296
#     4  10  18  28  44  65  86 116 160 198 253 303
#
# _framework density 24.088118000000001
#
# number of rings (size 3 to 8) (size 9 to 14) (size 15 to 20)
#    0.000    1.889    1.111    7.000   14.000    0.000 
#    0.000    0.000    0.000    6.667    0.000    0.000 
#    0.000    0.000    0.000    2.000    0.000    7.333 
#
# Total GULP energy -200771.355480 kJ/mol
# GULP energy per Si atom -5576.982097 kJ/mol
# Density = 2.403329 g / cm^3
# Si number density = 24.088118 Si / 1000 Ang^3
#
#
#
# Elastic Constant Matrix: (Units=GPa)
#
#
# Indices 1 2 3 4 5 6 
#
# 1 282.2281 22.9976 88.0608 0.0000 0.0000 0.0000
# 2 22.9976 90.9809 10.8337 0.0000 0.0000 0.0000
# 3 88.0608 10.8337 267.9983 0.0000 0.0000 0.0000
# 4 0.0000 0.0000 0.0000 -16.6925 0.0000 0.0000
# 5 0.0000 0.0000 0.0000 0.0000 41.3674 0.0000
# 6 0.0000 0.0000 0.0000 0.0000 0.0000 -39.1756
#
#
#
# Elastic Compliance Matrix: (Units=1/GPa)
#
#
# Indices 1 2 3 4 5 6 
#
# 1 0.004014 -0.000862 -0.001284 0.000000 0.000000 0.000000
# 2 -0.000862 0.011229 -0.000171 0.000000 0.000000 0.000000
# 3 -0.001284 -0.000171 0.004160 0.000000 0.000000 0.000000
# 4 0.000000 0.000000 0.000000 -0.059907 0.000000 0.000000
# 5 0.000000 0.000000 0.000000 0.000000 0.024174 0.000000
# 6 0.000000 0.000000 0.000000 0.000000 0.000000 -0.025526
#
#
# Mechanical properties :
#
#
# Convention : Reuss Voigt Hill
#
# Bulk Modulus (GPa) = 67.70272 98.33238 83.01755
# Shear Modulus (GPa) = -154.80350 31.72087 -61.54132
#
# Velocity S-wave (km/s) = -8.02527 3.63280 -5.06003
# Velocity P-wave (km/s) = 7.59645 7.64898 0.63279
#
# Compressibility (1/GPa) = 0.01477046
#
# Stress axis : x y z
#
# Youngs Moduli (GPa) = 249.11955 89.05124 240.37140
#
# Poissons Ratio (x) = 0.07674 0.30867
# Poissons Ratio (y) = 0.21468 0.04105
# Poissons Ratio (z) = 0.31991 0.01521
#
# Static dielectric constant tensor:
#      x y z
#    x 1.977190 0.000000 0.000000 
#    y 0.000000 1.880210 0.000000 
#    z 0.000000 0.000000 2.032620 
# 
# From -- ./inp_files/57412.got.cif
#   From: 2010.05.17/outbox.cif.g08.bks.cpg/sg71_29_cif.got.tgz:57412.got - 2010.06.03 16:22:01.
