data_PCOD9517811
_publ_section_title
;
Structure prediction by ZEFSAII (Michael W. Deem and Ramdas Pophale) SiO2 
 PCOD9517811
Probable space group: I M M M
;
_chemical_formula_sum "Si O2"
_cell_formula_units_Z 120
_cell_length_a 7.553337
_cell_length_b 30.634101
_cell_length_c 27.970627
_cell_angle_alpha 90.000000
_cell_angle_beta 90.000000
_cell_angle_gamma 90.000000
_cell_volume 6472.114670
_symmetry_space_group_name_H-M "I M M M"
_symmetry_group_IT_number 71
_symmetry_cell_setting 'orthorhombic'
loop_
_space_group_symop_operation_xyz
x,y,z
-x,-y,z
x,-y,-z
-x,y,-z
-x,-y,-z
x,y,-z
-x,y,z
x,-y,z
1/2+x,1/2+y,1/2+z
1/2-x,1/2-y,1/2+z
1/2+x,1/2-y,1/2-z
1/2-x,1/2+y,1/2-z
1/2-x,1/2-y,1/2-z
1/2+x,1/2+y,1/2-z
1/2-x,1/2+y,1/2+z
1/2+x,1/2-y,1/2+z
loop_
_atom_site_type_symbol
_atom_site_label
_atom_site_fract_x
_atom_site_fract_y
_atom_site_fract_z
Si Si1 0.709249 0.050079 0.280502
Si Si2 0.208776 0.800165 0.842430
Si Si3 0.713700 0.233251 0.052238
Si Si4 0.216213 0.000000 0.553852
Si Si5 0.792209 0.364292 0.266874
Si Si6 0.795114 0.824710 0.413610
Si Si7 0.784981 0.917006 0.386660
Si Si8 0.284061 0.207940 0.308133
O O1 0.500000 0.045478 0.271349
O O2 0.781290 0.087504 0.244467
O O3 0.730727 0.072573 0.332475
O O4 0.781832 0.000000 0.280112
O O5 0.241712 0.791737 0.898631
O O6 0.276677 0.844976 0.819927
O O7 0.277926 0.758444 0.811280
O O8 0.000000 0.800520 0.836038
O O9 0.500000 0.234992 0.051839
O O10 0.780992 0.283174 0.058601
O O11 0.771286 0.216288 0.000000
O O12 0.272787 0.957627 0.582128
O O13 0.277312 0.000000 0.500000
O O14 0.000000 0.000000 0.553731
O O15 0.720292 0.325595 0.232388
O O16 0.000000 0.366984 0.255231
O O17 0.716949 0.872941 0.411558
O O18 0.782715 0.810933 0.358263
O O19 0.000000 0.828516 0.429044
O O20 0.000000 0.914363 0.386007
O O21 0.500000 0.208460 0.307902
#
# Coordination Sequence:
#
# PCOD9517811 Si02
#       8
#    16  16  16   8  16  16  16  16
#     4  10  20  33  50  70  92 123 159 196 239 289
#     4  10  20  31  46  70  97 123 156 195 234 277
#     4   9  18  33  50  67  92 127 162 195 233 276
#     4   9  18  30  43  61  85 113 149 199 254 295
#     4  10  19  31  47  67  94 125 156 189 232 286
#     4   9  17  27  43  67  90 116 154 197 234 274
#     4  10  18  29  46  66  88 116 154 200 246 290
#     4   9  17  29  44  65  92 123 154 186 227 276
#
# _framework density 18.541081999999999
#
# number of rings (size 3 to 8) (size 9 to 14) (size 15 to 20)
#    0.000    2.467    2.000    0.800    0.000    2.400 
#    0.000    2.667    0.000    0.800    0.000    1.867 
#    0.000    0.533    0.000    6.133    0.000    1.733 
#
# Total GULP energy -334316.429076 kJ/mol
# GULP energy per Si atom -5571.940485 kJ/mol
# Density = 1.849888 g / cm^3
# Si number density = 18.541082 Si / 1000 Ang^3
#
#
#
# Elastic Constant Matrix: (Units=GPa)
#
#
# Indices 1 2 3 4 5 6 
#
# 1 48.6853 5.8338 -4.0990 0.0000 0.0000 0.0000
# 2 5.8338 78.2626 51.9252 0.0000 0.0000 0.0000
# 3 -4.0990 51.9252 84.2691 0.0000 0.0000 0.0000
# 4 0.0000 0.0000 0.0000 16.9480 0.0000 0.0000
# 5 0.0000 0.0000 0.0000 0.0000 24.0435 0.0000
# 6 0.0000 0.0000 0.0000 0.0000 0.0000 5.1236
#
#
#
# Elastic Compliance Matrix: (Units=1/GPa)
#
#
# Indices 1 2 3 4 5 6 
#
# 1 0.021288 -0.003846 0.003405 0.000000 0.000000 0.000000
# 2 -0.003846 0.022308 -0.013933 0.000000 0.000000 0.000000
# 3 0.003405 -0.013933 0.020618 0.000000 0.000000 0.000000
# 4 0.000000 0.000000 0.000000 0.059004 0.000000 0.000000
# 5 0.000000 0.000000 0.000000 0.000000 0.041591 0.000000
# 6 0.000000 0.000000 0.000000 0.000000 0.000000 0.195174
#
#
# Mechanical properties :
#
#
# Convention : Reuss Voigt Hill
#
# Bulk Modulus (GPa) = 28.19603 35.39301 31.79452
# Shear Modulus (GPa) = 12.48271 19.72681 16.10476
#
# Velocity S-wave (km/s) = 2.59751 3.26537 2.95040
# Velocity P-wave (km/s) = 4.92305 5.77471 5.36580
#
# Compressibility (1/GPa) = 0.03546599
#
# Stress axis : x y z
#
# Youngs Moduli (GPa) = 46.97551 44.82597 48.50185
#
# Poissons Ratio (x) = 0.17241 -0.16517
# Poissons Ratio (y) = 0.18068 0.67579
# Poissons Ratio (z) = -0.15997 0.62457
#
# Static dielectric constant tensor:
#      x y z
#    x 1.691390 0.000000 0.000000 
#    y 0.000000 1.672600 0.000000 
#    z 0.000000 0.000000 1.635540 
# 
# From -- ./inp_files/63807.got.cif
#   From: 2010.05.17/outbox.cif.g08.bks.cpg/sg71_32_cif.got.tgz:63807.got - 2010.06.03 16:22:01.
