data_PCOD9517204
_publ_section_title
;
Structure prediction by ZEFSAII (Michael W. Deem and Ramdas Pophale) SiO2 
 PCOD9517204
Probable space group: F D D D
;
_chemical_formula_sum "Si O2"
_cell_formula_units_Z 44
_cell_length_a 24.000000
_cell_length_b 24.000000
_cell_length_c 15.000000
_cell_angle_alpha 90.000000
_cell_angle_beta 90.000000
_cell_angle_gamma 90.000000
_cell_volume 8640.000000
_symmetry_space_group_name_H-M "F D D D"
_symmetry_group_IT_number 70
_space_group.IT_coordinate_system_code '2'
_symmetry_cell_setting 'orthorhombic'
loop_
_space_group_symop_operation_xyz
x,y,z
1/4-x,1/4-y,z
x,1/4-y,1/4-z
1/4-x,y,1/4-z
-x,-y,-z
3/4+x,3/4+y,-z
-x,3/4+y,3/4+z
3/4+x,-y,3/4+z
x,1/2+y,1/2+z
1/4-x,3/4-y,1/2+z
x,3/4-y,3/4-z
1/4-x,1/2+y,3/4-z
-x,1/2-y,1/2-z
3/4+x,1/4+y,1/2-z
-x,1/4+y,1/4+z
3/4+x,1/2-y,1/4+z
1/2+x,y,1/2+z
3/4-x,1/4-y,1/2+z
1/2+x,1/4-y,3/4-z
3/4-x,y,3/4-z
1/2-x,-y,1/2-z
1/4+x,3/4+y,1/2-z
1/2-x,3/4+y,1/4+z
1/4+x,-y,1/4+z
1/2+x,1/2+y,z
3/4-x,3/4-y,z
1/2+x,3/4-y,1/4-z
3/4-x,1/2+y,1/4-z
1/2-x,1/2-y,-z
1/4+x,1/4+y,-z
1/2-x,1/4+y,3/4+z
1/4+x,1/2-y,3/4+z
loop_
_atom_site_type_symbol
_atom_site_label
_atom_site_fract_x
_atom_site_fract_y
_atom_site_fract_z
Si Si1 0.642393 0.558918 0.863575
Si Si2 0.436772 0.153513 0.918347
Si Si3 0.782555 0.625000 0.625000
Si Si4 0.738430 0.805272 0.704906
Si Si5 0.771116 0.252251 0.607540
Si Si6 0.183381 0.709060 0.085230
O O1 0.625000 0.625000 0.853675
O O2 0.694896 0.552353 0.931756
O O3 0.584799 0.526856 0.890303
O O4 0.667491 0.535038 0.769602
O O5 0.375000 0.161308 0.875000
O O6 0.466473 0.109509 0.849973
O O7 0.476859 0.206549 0.905032
O O8 0.436898 0.139435 0.027693
O O9 0.738699 0.671992 0.593386
O O10 0.728847 0.797284 0.813351
O O11 0.701430 0.759498 0.650678
O O12 0.750000 0.250000 0.500000
O O13 0.125000 0.686691 0.125000
#
# Coordination Sequence:
#
# PCOD9517204 Si02
#       6
#    32  32  16  32  32  32
#     4  12  24  48  74 104 147 187 243 300 362 442
#     4  12  28  47  70 109 150 191 236 304 372 432
#     4  12  23  44  76 110 146 187 242 302 374 442
#     4  12  26  45  73 110 140 185 244 298 368 436
#     4  12  29  50  72 103 145 200 248 295 361 442
#     4  12  21  39  76 111 142 175 228 306 376 428
#
# _framework density 5.0925929999999999
#
# number of rings (size 3 to 8) (size 9 to 14) (size 15 to 20)
#    0.000    0.000    7.273    2.455    2.545    2.182 
#    0.000    0.909    0.000    0.000    0.000    0.000 
#    0.000    0.000    0.000    0.000    0.000    0.000 
#
# Total GULP energy -245009.781166 kJ/mol
# GULP energy per Si atom -5568.404117 kJ/mol
# Density = 0.508100 g / cm^3
# Si number density = 5.092593 Si / 1000 Ang^3
#
#
#
# Elastic Constant Matrix: (Units=GPa)
#
#
# Indices 1 2 3 4 5 6 
#
# 1 161.0532 8.3318 34.8208 0.0000 0.0000 0.0000
# 2 8.3318 43.6969 11.2179 0.0000 0.0000 0.0000
# 3 34.8208 11.2179 178.1788 0.0000 0.0000 0.0000
# 4 0.0000 0.0000 0.0000 32.6454 0.0000 0.0000
# 5 0.0000 0.0000 0.0000 0.0000 57.3172 0.0000
# 6 0.0000 0.0000 0.0000 0.0000 0.0000 29.2757
#
#
#
# Elastic Compliance Matrix: (Units=1/GPa)
#
#
# Indices 1 2 3 4 5 6 
#
# 1 0.006520 -0.000931 -0.001216 0.000000 0.000000 0.000000
# 2 -0.000931 0.023394 -0.001291 0.000000 0.000000 0.000000
# 3 -0.001216 -0.001291 0.005931 0.000000 0.000000 0.000000
# 4 0.000000 0.000000 0.000000 0.030632 0.000000 0.000000
# 5 0.000000 0.000000 0.000000 0.000000 0.017447 0.000000
# 6 0.000000 0.000000 0.000000 0.000000 0.000000 0.034158
#
#
# Mechanical properties :
#
#
# Convention : Reuss Voigt Hill
#
# Bulk Modulus (GPa) = 34.51852 54.62997 44.57425
# Shear Modulus (GPa) = 37.14326 45.75156 41.44741
#
# Velocity S-wave (km/s) = 4.27476 4.74432 4.51565
# Velocity P-wave (km/s) = 6.43016 7.54242 7.00839
#
# Compressibility (1/GPa) = 0.02896995
#
# Stress axis : x y z
#
# Youngs Moduli (GPa) = 153.37149 42.74625 168.60083
#
# Poissons Ratio (x) = 0.03980 0.20495
# Poissons Ratio (y) = 0.14281 0.21764
# Poissons Ratio (z) = 0.18643 0.05518
#
# Static dielectric constant tensor:
#      x y z
#    x 1.707540 0.000000 0.000000 
#    y 0.000000 1.876250 0.000000 
#    z 0.000000 0.000000 1.766920 
# 
# From -- ./inp_files/28784.got.cif
#   From: 2010.05.17/outbox.ucp.g08.bks.cvg/sg70_15_cif.got.tgz:28784.got - 2010.06.11 16:26:41.
