data_PCOD9517813
_publ_section_title
;
Structure prediction by ZEFSAII (Michael W. Deem and Ramdas Pophale) SiO2 
 PCOD9517813
Probable space group: I M M M
;
_chemical_formula_sum "Si O2"
_cell_formula_units_Z 112
_cell_length_a 32.695848
_cell_length_b 15.856534
_cell_length_c 14.007461
_cell_angle_alpha 90.000000
_cell_angle_beta 90.000000
_cell_angle_gamma 90.000000
_cell_volume 7262.067659
_symmetry_space_group_name_H-M "I M M M"
_symmetry_group_IT_number 71
_symmetry_cell_setting 'orthorhombic'
loop_
_space_group_symop_operation_xyz
x,y,z
-x,-y,z
x,-y,-z
-x,y,-z
-x,-y,-z
x,y,-z
-x,y,z
x,-y,z
1/2+x,1/2+y,1/2+z
1/2-x,1/2-y,1/2+z
1/2+x,1/2-y,1/2-z
1/2-x,1/2+y,1/2-z
1/2-x,1/2-y,1/2-z
1/2+x,1/2+y,1/2-z
1/2-x,1/2+y,1/2+z
1/2+x,1/2-y,1/2+z
loop_
_atom_site_type_symbol
_atom_site_label
_atom_site_fract_x
_atom_site_fract_y
_atom_site_fract_z
Si Si1 0.268877 0.098730 0.293563
Si Si2 0.810577 0.165542 0.389368
Si Si3 0.317371 0.133907 0.891226
Si Si4 0.398033 0.594217 0.115939
Si Si5 0.147112 0.602440 0.892220
Si Si6 0.402195 0.096826 0.791279
Si Si7 0.548245 0.754495 0.885650
O O1 0.228271 0.146726 0.324076
O O2 0.282672 0.107652 0.183872
O O3 0.308345 0.129703 0.353938
O O4 0.262674 0.000000 0.315253
O O5 0.801121 0.142128 0.500000
O O6 0.820571 0.264638 0.388133
O O7 0.851235 0.115997 0.358488
O O8 0.360589 0.098762 0.854114
O O9 0.309380 0.108405 0.000000
O O10 0.409339 0.500000 0.148432
O O11 0.427497 0.670412 0.146164
O O12 0.399306 0.593922 0.000000
O O13 0.148246 0.500000 0.891978
O O14 0.113088 0.624604 0.814002
O O15 0.139658 0.631133 0.000000
O O16 0.433420 0.163408 0.834789
O O17 0.417094 0.000000 0.788476
O O18 0.500000 0.745812 0.869014
O O19 0.554799 0.763701 0.000000
#
# Coordination Sequence:
#
# PCOD9517813 Si02
#       7
#    16  16  16  16  16  16  16
#     4  10  19  28  42  67  93 122 161 196 230 269
#     4  10  18  29  46  66  91 121 156 199 237 272
#     4  10  19  31  45  63  93 131 165 192 223 269
#     4   9  17  30  48  69  92 122 157 190 233 282
#     4   8  15  28  45  66  93 123 155 192 230 267
#     4  10  19  31  49  70  94 127 161 190 226 277
#     4  10  20  33  48  69  97 124 153 192 233 277
#
# _framework density 15.422605000000001
#
# number of rings (size 3 to 8) (size 9 to 14) (size 15 to 20)
#    0.000    2.429    1.429    3.000    0.000    4.000 
#    0.000    2.143    0.000    0.429    0.000    2.000 
#    0.000    0.571    0.000    1.286    0.000    0.143 
#
# Total GULP energy -312143.828003 kJ/mol
# GULP energy per Si atom -5573.996929 kJ/mol
# Density = 1.538750 g / cm^3
# Si number density = 15.422605 Si / 1000 Ang^3
#
#
#
# Elastic Constant Matrix: (Units=GPa)
#
#
# Indices 1 2 3 4 5 6 
#
# 1 73.1469 34.8995 34.2746 0.0000 0.0000 0.0000
# 2 34.8995 77.6963 14.1736 0.0000 0.0000 0.0000
# 3 34.2746 14.1736 71.1794 0.0000 0.0000 0.0000
# 4 0.0000 0.0000 0.0000 11.6550 0.0000 0.0000
# 5 0.0000 0.0000 0.0000 0.0000 19.0878 0.0000
# 6 0.0000 0.0000 0.0000 0.0000 0.0000 7.5949
#
#
#
# Elastic Compliance Matrix: (Units=1/GPa)
#
#
# Indices 1 2 3 4 5 6 
#
# 1 0.021684 -0.008131 -0.008823 0.000000 0.000000 0.000000
# 2 -0.008131 0.016404 0.000649 0.000000 0.000000 0.000000
# 3 -0.008823 0.000649 0.018168 0.000000 0.000000 0.000000
# 4 0.000000 0.000000 0.000000 0.085800 0.000000 0.000000
# 5 0.000000 0.000000 0.000000 0.000000 0.052390 0.000000
# 6 0.000000 0.000000 0.000000 0.000000 0.000000 0.131667
#
#
# Mechanical properties :
#
#
# Convention : Reuss Voigt Hill
#
# Bulk Modulus (GPa) = 42.28748 43.19089 42.73919
# Shear Modulus (GPa) = 13.63862 16.91252 15.27557
#
# Velocity S-wave (km/s) = 2.97699 3.31510 3.15058
# Velocity P-wave (km/s) = 6.26860 6.53597 6.40368
#
# Compressibility (1/GPa) = 0.02364766
#
# Stress axis : x y z
#
# Youngs Moduli (GPa) = 46.11610 60.95908 55.04143
#
# Poissons Ratio (x) = 0.49564 0.48561
# Poissons Ratio (y) = 0.37496 -0.03570
# Poissons Ratio (z) = 0.40686 -0.03954
#
# Static dielectric constant tensor:
#      x y z
#    x 1.494750 0.000000 0.000000 
#    y 0.000000 1.529700 0.000000 
#    z 0.000000 0.000000 1.515940 
# 
# From -- ./inp_files/35338.got.cif
#   From: 2010.05.17/outbox.cif.g08.bks.cpg/sg71_18_cif.got.tgz:35338.got - 2010.06.03 16:22:01.
