data_PCOD9517908
_publ_section_title
;
Structure prediction by ZEFSAII (Michael W. Deem and Ramdas Pophale) SiO2 
 PCOD9517908
Probable space group: I M M M
;
_chemical_formula_sum "Si O2"
_cell_formula_units_Z 104
_cell_length_a 23.705478
_cell_length_b 7.956049
_cell_length_c 29.127422
_cell_angle_alpha 90.000000
_cell_angle_beta 90.000000
_cell_angle_gamma 90.000000
_cell_volume 5493.488429
_symmetry_space_group_name_H-M "I M M M"
_symmetry_group_IT_number 71
_symmetry_cell_setting 'orthorhombic'
loop_
_space_group_symop_operation_xyz
x,y,z
-x,-y,z
x,-y,-z
-x,y,-z
-x,-y,-z
x,y,-z
-x,y,z
x,-y,z
1/2+x,1/2+y,1/2+z
1/2-x,1/2-y,1/2+z
1/2+x,1/2-y,1/2-z
1/2-x,1/2+y,1/2-z
1/2-x,1/2-y,1/2-z
1/2+x,1/2+y,1/2-z
1/2-x,1/2+y,1/2+z
1/2+x,1/2-y,1/2+z
loop_
_atom_site_type_symbol
_atom_site_label
_atom_site_fract_x
_atom_site_fract_y
_atom_site_fract_z
Si Si1 0.000000 0.801538 0.552964
Si Si2 0.438840 0.205049 0.552937
Si Si3 0.680835 0.801641 0.806147
Si Si4 0.114066 0.697192 0.394695
Si Si5 0.775391 0.203672 0.447399
Si Si6 0.691386 0.301663 0.291645
Si Si7 0.167298 0.703744 0.110338
O O1 0.943887 0.759609 0.582428
O O2 0.000000 0.729745 0.500000
O O3 0.000000 0.000000 0.547592
O O4 0.434898 0.255759 0.500000
O O5 0.500000 0.257801 0.571187
O O6 0.384946 0.263283 0.580261
O O7 0.437810 0.000000 0.553501
O O8 0.639656 0.732511 0.846008
O O9 0.663039 0.777445 0.753308
O O10 0.745192 0.731742 0.802937
O O11 0.686537 0.000000 0.815932
O O12 0.105274 0.500000 0.387519
O O13 0.164935 0.728458 0.430251
O O14 0.763515 0.252027 0.500000
O O15 0.725801 0.260219 0.413173
O O16 0.777626 0.000000 0.445844
O O17 0.696498 0.500000 0.282918
O O18 0.659598 0.267744 0.338466
O O19 0.168424 0.500000 0.110711
#
# Coordination Sequence:
#
# PCOD9517908 Si02
#       7
#     8  16  16  16  16  16  16
#     4  11  25  43  61  83 113 149 189 229 272 331
#     4   8  14  26  46  72 101 135 178 221 255 296
#     4   9  19  35  54  78 106 135 171 215 263 318
#     4  11  22  38  59  82 108 140 181 227 275 324
#     4  10  20  32  48  75 110 143 175 215 267 326
#     4  10  19  32  52  79 109 138 172 213 264 321
#     4  10  18  29  49  76 106 139 175 218 269 317
#
# _framework density 18.931505000000001
#
# number of rings (size 3 to 8) (size 9 to 14) (size 15 to 20)
#    0.000    2.231    1.538    2.538    0.000    6.462 
#    0.000    0.000    1.692    1.846    0.000    1.077 
#    0.000    0.000    0.000    0.000    0.000    0.000 
#
# Total GULP energy -289832.822588 kJ/mol
# GULP energy per Si atom -5573.708127 kJ/mol
# Density = 1.888842 g / cm^3
# Si number density = 18.931505 Si / 1000 Ang^3
#
#
#
# Elastic Constant Matrix: (Units=GPa)
#
#
# Indices 1 2 3 4 5 6 
#
# 1 94.0214 8.8649 43.0668 0.0000 0.0000 0.0000
# 2 8.8649 21.6900 4.5597 0.0000 0.0000 0.0000
# 3 43.0668 4.5597 123.6818 0.0000 0.0000 0.0000
# 4 0.0000 0.0000 0.0000 22.0028 0.0000 0.0000
# 5 0.0000 0.0000 0.0000 0.0000 17.8296 0.0000
# 6 0.0000 0.0000 0.0000 0.0000 0.0000 -8.7862
#
#
#
# Elastic Compliance Matrix: (Units=1/GPa)
#
#
# Indices 1 2 3 4 5 6 
#
# 1 0.013061 -0.004416 -0.004385 0.000000 0.000000 0.000000
# 2 -0.004416 0.047958 -0.000230 0.000000 0.000000 0.000000
# 3 -0.004385 -0.000230 0.009621 0.000000 0.000000 0.000000
# 4 0.000000 0.000000 0.000000 0.045449 0.000000 0.000000
# 5 0.000000 0.000000 0.000000 0.000000 0.056086 0.000000
# 6 0.000000 0.000000 0.000000 0.000000 0.000000 -0.113815
#
#
# Mechanical properties :
#
#
# Convention : Reuss Voigt Hill
#
# Bulk Modulus (GPa) = 19.02010 39.15291 29.08650
# Shear Modulus (GPa) = 53.22079 18.40270 35.81174
#
# Velocity S-wave (km/s) = 5.30785 3.12118 4.35403
# Velocity P-wave (km/s) = 6.90167 5.80649 6.37763
#
# Compressibility (1/GPa) = 0.05257597
#
# Stress axis : x y z
#
# Youngs Moduli (GPa) = 76.56457 20.85173 103.94297
#
# Poissons Ratio (x) = 0.09209 0.45580
# Poissons Ratio (y) = 0.33813 0.02393
# Poissons Ratio (z) = 0.33574 0.00480
#
# Static dielectric constant tensor:
#      x y z
#    x 1.656410 0.000000 0.000000 
#    y 0.000000 1.692150 0.000000 
#    z 0.000000 0.000000 1.689860 
# 
# From -- ./inp_files/66795.got.cif
#   From: 2010.05.17/outbox.cif.g08.bks.cpg/sg71_34_cif.got.tgz:66795.got - 2010.06.03 16:22:01.
