data_PCOD9517586
_publ_section_title
;
Structure prediction by ZEFSAII (Michael W. Deem and Ramdas Pophale) SiO2 
 PCOD9517586
Probable space group: I M M M
;
_chemical_formula_sum "Si O2"
_cell_formula_units_Z 72
_cell_length_a 14.102862
_cell_length_b 15.426790
_cell_length_c 14.844430
_cell_angle_alpha 90.000000
_cell_angle_beta 90.000000
_cell_angle_gamma 90.000000
_cell_volume 3229.582254
_symmetry_space_group_name_H-M "I M M M"
_symmetry_group_IT_number 71
_symmetry_cell_setting 'orthorhombic'
loop_
_space_group_symop_operation_xyz
x,y,z
-x,-y,z
x,-y,-z
-x,y,-z
-x,-y,-z
x,y,-z
-x,y,z
x,-y,z
1/2+x,1/2+y,1/2+z
1/2-x,1/2-y,1/2+z
1/2+x,1/2-y,1/2-z
1/2-x,1/2+y,1/2-z
1/2-x,1/2-y,1/2-z
1/2+x,1/2+y,1/2-z
1/2-x,1/2+y,1/2+z
1/2+x,1/2-y,1/2+z
loop_
_atom_site_type_symbol
_atom_site_label
_atom_site_fract_x
_atom_site_fract_y
_atom_site_fract_z
Si Si1 0.616164 0.403610 0.000000
Si Si2 0.610545 0.734963 0.137633
Si Si3 0.386192 0.095797 0.334495
Si Si4 0.609322 0.285541 0.647618
Si Si5 0.783180 0.402366 0.640909
O O1 0.647177 0.349148 0.913661
O O2 0.653163 0.500000 0.000000
O O3 0.500000 0.408548 0.000000
O O4 0.500000 0.739403 0.119484
O O5 0.622358 0.724028 0.244196
O O6 0.654086 0.824069 0.103828
O O7 0.500000 0.101847 0.308099
O O8 0.368270 0.187117 0.385231
O O9 0.319348 0.095022 0.245678
O O10 0.375639 0.000000 0.377746
O O11 0.500000 0.304250 0.626791
O O12 0.678542 0.363980 0.624528
O O13 0.794283 0.500000 0.607245
#
# Coordination Sequence:
#
# PCOD9517586 Si02
#       5
#     8  16  16  16  16
#     4   9  18  32  49  69  94 123 151 181 221 271
#     4   9  17  30  47  67  93 122 152 185 221 267
#     4   8  13  22  37  56  79 110 145 178 215 260
#     4   9  17  28  42  63  93 125 154 186 224 266
#     4  10  18  27  41  62  90 122 154 188 225 266
#
# _framework density 22.293904999999999
#
# number of rings (size 3 to 8) (size 9 to 14) (size 15 to 20)
#    0.000    3.000    0.000    4.667    0.000    2.667 
#    0.000    3.889    0.000    2.000    0.000    0.778 
#    0.000    2.667    0.000    0.000    0.000    1.111 
#
# Total GULP energy -200610.847113 kJ/mol
# GULP energy per Si atom -5572.523531 kJ/mol
# Density = 2.224316 g / cm^3
# Si number density = 22.293905 Si / 1000 Ang^3
#
#
#
# Elastic Constant Matrix: (Units=GPa)
#
#
# Indices 1 2 3 4 5 6 
#
# 1 73.5072 27.6233 3.2553 0.0000 0.0000 0.0000
# 2 27.6233 208.4583 17.9504 0.0000 0.0000 0.0000
# 3 3.2553 17.9504 34.1401 0.0000 0.0000 0.0000
# 4 0.0000 0.0000 0.0000 -5.4679 0.0000 0.0000
# 5 0.0000 0.0000 0.0000 0.0000 -10.6446 0.0000
# 6 0.0000 0.0000 0.0000 0.0000 0.0000 37.9443
#
#
#
# Elastic Compliance Matrix: (Units=1/GPa)
#
#
# Indices 1 2 3 4 5 6 
#
# 1 0.014322 -0.001865 -0.000385 0.000000 0.000000 0.000000
# 2 -0.001865 0.005267 -0.002592 0.000000 0.000000 0.000000
# 3 -0.000385 -0.002592 0.030690 0.000000 0.000000 0.000000
# 4 0.000000 0.000000 0.000000 -0.182886 0.000000 0.000000
# 5 0.000000 0.000000 0.000000 0.000000 -0.093944 0.000000
# 6 0.000000 0.000000 0.000000 0.000000 0.000000 0.026354
#
#
# Mechanical properties :
#
#
# Convention : Reuss Voigt Hill
#
# Bulk Modulus (GPa) = 24.63260 45.97372 35.30316
# Shear Modulus (GPa) = -28.25161 22.18479 -3.03341
#
# Velocity S-wave (km/s) = -3.56369 3.15795 -1.16773
# Velocity P-wave (km/s) = 2.42077 5.82780 3.74854
#
# Compressibility (1/GPa) = 0.04059661
#
# Stress axis : x y z
#
# Youngs Moduli (GPa) = 69.82315 189.84747 32.58339
#
# Poissons Ratio (x) = 0.35400 0.01255
# Poissons Ratio (y) = 0.13020 0.08445
# Poissons Ratio (z) = 0.02690 0.49203
#
# Static dielectric constant tensor:
#      x y z
#    x 1.863460 0.000000 0.000000 
#    y 0.000000 1.818810 0.000000 
#    z 0.000000 0.000000 1.852190 
# 
# From -- ./inp_files/34080.got.cif
#   From: 2010.05.17/outbox.cif.g08.bks.cpg/sg71_18_cif.got.tgz:34080.got - 2010.06.03 16:22:01.
