data_PCOD9517618
_publ_section_title
;
Structure prediction by ZEFSAII (Michael W. Deem and Ramdas Pophale) SiO2 
 PCOD9517618
Probable space group: I M M M
;
_chemical_formula_sum "Si O2"
_cell_formula_units_Z 72
_cell_length_a 14.715431
_cell_length_b 14.376402
_cell_length_c 20.730331
_cell_angle_alpha 90.000000
_cell_angle_beta 90.000000
_cell_angle_gamma 90.000000
_cell_volume 4385.604173
_symmetry_space_group_name_H-M "I M M M"
_symmetry_group_IT_number 71
_symmetry_cell_setting 'orthorhombic'
loop_
_space_group_symop_operation_xyz
x,y,z
-x,-y,z
x,-y,-z
-x,y,-z
-x,-y,-z
x,y,-z
-x,y,z
x,-y,z
1/2+x,1/2+y,1/2+z
1/2-x,1/2-y,1/2+z
1/2+x,1/2-y,1/2-z
1/2-x,1/2+y,1/2-z
1/2-x,1/2-y,1/2-z
1/2+x,1/2+y,1/2-z
1/2-x,1/2+y,1/2+z
1/2+x,1/2-y,1/2+z
loop_
_atom_site_type_symbol
_atom_site_label
_atom_site_fract_x
_atom_site_fract_y
_atom_site_fract_z
Si Si1 0.889717 0.107937 0.428314
Si Si2 0.602524 0.390922 0.319723
Si Si3 0.293973 0.890159 0.131227
Si Si4 0.896514 0.612893 0.500000
Si Si5 0.892428 0.767768 0.692307
O O1 0.861371 0.140245 0.500000
O O2 0.860254 0.168957 0.367869
O O3 0.000000 0.108954 0.427557
O O4 0.862481 0.000000 0.420943
O O5 0.500000 0.374451 0.344537
O O6 0.606418 0.500000 0.299671
O O7 0.685526 0.376059 0.368564
O O8 0.617339 0.325685 0.257826
O O9 0.337429 0.827630 0.187241
O O10 0.310803 0.000000 0.141187
O O11 0.343237 0.861955 0.064834
O O12 0.901464 0.500000 0.500000
O O13 0.000000 0.649557 0.500000
O O14 0.000000 0.748512 0.683916
#
# Coordination Sequence:
#
# PCOD9517618 Si02
#       5
#    16  16  16   8  16
#     4   8  14  24  38  60  90 120 150 183 220 267
#     4   9  18  33  50  67  88 118 158 201 240 275
#     4  10  20  32  46  66  94 126 158 192 229 275
#     4   9  18  32  47  65  92 122 149 178 219 275
#     4  10  18  27  45  68  93 124 153 185 231 280
#
# _framework density 16.417351
#
# number of rings (size 3 to 8) (size 9 to 14) (size 15 to 20)
#    0.000    2.778    0.000    2.667    1.556    4.000 
#    0.000    0.556    0.000    3.333    0.000    0.000 
#    0.000    0.000    0.000    2.444    0.000    0.889 
#
# Total GULP energy -200559.595951 kJ/mol
# GULP energy per Si atom -5571.099888 kJ/mol
# Density = 1.637998 g / cm^3
# Si number density = 16.417351 Si / 1000 Ang^3
#
#
#
# Elastic Constant Matrix: (Units=GPa)
#
#
# Indices 1 2 3 4 5 6 
#
# 1 107.6019 37.3160 47.4627 0.0000 0.0000 0.0000
# 2 37.3160 49.3806 19.8186 0.0000 0.0000 0.0000
# 3 47.4627 19.8186 42.8855 0.0000 0.0000 0.0000
# 4 0.0000 0.0000 0.0000 13.6967 0.0000 0.0000
# 5 0.0000 0.0000 0.0000 0.0000 23.5815 0.0000
# 6 0.0000 0.0000 0.0000 0.0000 0.0000 18.0552
#
#
#
# Elastic Compliance Matrix: (Units=1/GPa)
#
#
# Indices 1 2 3 4 5 6 
#
# 1 0.020329 -0.007774 -0.018906 0.000000 0.000000 0.000000
# 2 -0.007774 0.027835 -0.004259 0.000000 0.000000 0.000000
# 3 -0.018906 -0.004259 0.046210 0.000000 0.000000 0.000000
# 4 0.000000 0.000000 0.000000 0.073010 0.000000 0.000000
# 5 0.000000 0.000000 0.000000 0.000000 0.042406 0.000000
# 6 0.000000 0.000000 0.000000 0.000000 0.000000 0.055386
#
#
# Mechanical properties :
#
#
# Convention : Reuss Voigt Hill
#
# Bulk Modulus (GPa) = 30.77395 45.45140 38.11268
# Shear Modulus (GPa) = 14.79785 17.41807 16.10796
#
# Velocity S-wave (km/s) = 3.00551 3.26076 3.13574
# Velocity P-wave (km/s) = 5.55244 6.47471 6.03123
#
# Compressibility (1/GPa) = 0.03249501
#
# Stress axis : x y z
#
# Youngs Moduli (GPa) = 49.19084 35.92563 21.64040
#
# Poissons Ratio (x) = 0.27930 0.40913
# Poissons Ratio (y) = 0.38243 0.09217
# Poissons Ratio (z) = 0.93000 0.15301
#
# Static dielectric constant tensor:
#      x y z
#    x 1.552230 0.000000 0.000000 
#    y 0.000000 1.578290 0.000000 
#    z 0.000000 0.000000 1.551420 
# 
# From -- ./inp_files/21793.got.cif
#   From: 2010.05.17/outbox.cif.g08.bks.cpg/sg71_11_cif.got.tgz:21793.got - 2010.06.03 16:22:01.
