data_PCOD9517830
_publ_section_title
;
Structure prediction by ZEFSAII (Michael W. Deem and Ramdas Pophale) SiO2 
 PCOD9517830
Probable space group: I M M M
;
_chemical_formula_sum "Si O2"
_cell_formula_units_Z 120
_cell_length_a 30.716390
_cell_length_b 7.312643
_cell_length_c 24.765598
_cell_angle_alpha 90.000000
_cell_angle_beta 90.000000
_cell_angle_gamma 90.000000
_cell_volume 5562.798951
_symmetry_space_group_name_H-M "I M M M"
_symmetry_group_IT_number 71
_symmetry_cell_setting 'orthorhombic'
loop_
_space_group_symop_operation_xyz
x,y,z
-x,-y,z
x,-y,-z
-x,y,-z
-x,-y,-z
x,y,-z
-x,y,z
x,-y,z
1/2+x,1/2+y,1/2+z
1/2-x,1/2-y,1/2+z
1/2+x,1/2-y,1/2-z
1/2-x,1/2+y,1/2-z
1/2-x,1/2-y,1/2-z
1/2+x,1/2+y,1/2-z
1/2-x,1/2+y,1/2+z
1/2+x,1/2-y,1/2+z
loop_
_atom_site_type_symbol
_atom_site_label
_atom_site_fract_x
_atom_site_fract_y
_atom_site_fract_z
Si Si1 0.951500 0.277429 0.322080
Si Si2 0.213196 0.781913 0.561615
Si Si3 0.699478 0.776979 0.620728
Si Si4 0.801361 0.717610 0.242774
Si Si5 0.451518 0.221965 0.696899
Si Si6 0.856418 0.718474 0.653558
Si Si7 0.393648 0.777218 0.599997
Si Si8 0.950745 0.723416 0.000000
O O1 0.952393 0.500000 0.324219
O O2 0.946847 0.224026 0.259078
O O3 0.906462 0.216260 0.349482
O O4 0.000000 0.217784 0.340571
O O5 0.209406 0.713090 0.500000
O O6 0.255995 0.712394 0.593448
O O7 0.171808 0.751507 0.600088
O O8 0.218536 0.000000 0.557693
O O9 0.690911 0.714653 0.682110
O O10 0.655904 0.724162 0.589527
O O11 0.702145 0.000000 0.622507
O O12 0.809161 0.500000 0.241604
O O13 0.750000 0.750000 0.250000
O O14 0.829947 0.787881 0.293269
O O15 0.500000 0.275408 0.677898
O O16 0.413814 0.283210 0.656985
O O17 0.450629 0.000000 0.696977
O O18 0.858840 0.500000 0.660162
O O19 0.425362 0.717993 0.552939
O O20 0.393846 0.000000 0.601154
O O21 0.950910 0.500000 0.000000
O O22 0.000000 0.784351 0.000000
#
# Coordination Sequence:
#
# PCOD9517830 Si02
#       8
#    16  16  16  16  16  16  16   8
#     4   8  14  25  43  68  94 116 142 182 233 287
#     4  10  21  35  50  67  92 128 166 196 230 281
#     4   9  17  28  42  60  85 118 157 196 229 270
#     4  10  18  29  46  70  98 126 159 195 237 283
#     4   8  12  19  32  51  78 111 143 177 222 273
#     4  10  19  31  51  76  99 124 156 195 240 286
#     4   9  15  21  31  47  72 109 151 192 227 262
#     4   9  16  22  28  44  72 108 153 199 234 263
#
# _framework density 21.571874999999999
#
# number of rings (size 3 to 8) (size 9 to 14) (size 15 to 20)
#    0.000    2.867    1.333    2.000    0.933    5.067 
#    0.000    0.000    0.000    0.800    0.000    2.800 
#    0.000    0.000    0.000    0.000    0.000    5.200 
#
# Total GULP energy -334824.079142 kJ/mol
# GULP energy per Si atom -5580.401319 kJ/mol
# Density = 2.152278 g / cm^3
# Si number density = 21.571875 Si / 1000 Ang^3
#
#
#
# Elastic Constant Matrix: (Units=GPa)
#
#
# Indices 1 2 3 4 5 6 
#
# 1 210.6733 0.7079 96.6334 0.0000 0.0000 0.0000
# 2 0.7079 87.2968 3.7885 0.0000 0.0000 0.0000
# 3 96.6334 3.7885 123.2732 0.0000 0.0000 0.0000
# 4 0.0000 0.0000 0.0000 -24.7143 0.0000 0.0000
# 5 0.0000 0.0000 0.0000 0.0000 28.8574 0.0000
# 6 0.0000 0.0000 0.0000 0.0000 0.0000 -16.6855
#
#
#
# Elastic Compliance Matrix: (Units=1/GPa)
#
#
# Indices 1 2 3 4 5 6 
#
# 1 0.007415 0.000192 -0.005818 0.000000 0.000000 0.000000
# 2 0.000192 0.011475 -0.000503 0.000000 0.000000 0.000000
# 3 -0.005818 -0.000503 0.012689 0.000000 0.000000 0.000000
# 4 0.000000 0.000000 0.000000 -0.040462 0.000000 0.000000
# 5 0.000000 0.000000 0.000000 0.000000 0.034653 0.000000
# 6 0.000000 0.000000 0.000000 0.000000 0.000000 -0.059932
#
#
# Mechanical properties :
#
#
# Convention : Reuss Voigt Hill
#
# Bulk Modulus (GPa) = 51.76012 69.27809 60.51911
# Shear Modulus (GPa) = -323.33713 18.83243 -152.25235
#
# Velocity S-wave (km/s) = -12.25617 2.95788 -8.41025
# Velocity P-wave (km/s) = 13.27549 6.62194 8.13598
#
# Compressibility (1/GPa) = 0.01931989
#
# Stress axis : x y z
#
# Youngs Moduli (GPa) = 134.86407 87.14248 78.81113
#
# Poissons Ratio (x) = -0.01676 0.45855
# Poissons Ratio (y) = -0.02595 0.03968
# Poissons Ratio (z) = 0.78469 0.04387
#
# Static dielectric constant tensor:
#      x y z
#    x 1.791260 0.000000 0.000000 
#    y 0.000000 2.030400 0.000000 
#    z 0.000000 0.000000 1.764310 
# 
# From -- ./inp_files/62443.got.cif
#   From: 2010.05.17/outbox.cif.g08.bks.cpg/sg71_32_cif.got.tgz:62443.got - 2010.06.03 16:22:01.
