data_PCOD9517681
_publ_section_title
;
Structure prediction by ZEFSAII (Michael W. Deem and Ramdas Pophale) SiO2 
 PCOD9517681
Probable space group: I M M M
;
_chemical_formula_sum "Si O2"
_cell_formula_units_Z 96
_cell_length_a 21.940270
_cell_length_b 28.562609
_cell_length_c 8.963068
_cell_angle_alpha 90.000000
_cell_angle_beta 90.000000
_cell_angle_gamma 90.000000
_cell_volume 5616.897954
_symmetry_space_group_name_H-M "I M M M"
_symmetry_group_IT_number 71
_symmetry_cell_setting 'orthorhombic'
loop_
_space_group_symop_operation_xyz
x,y,z
-x,-y,z
x,-y,-z
-x,y,-z
-x,-y,-z
x,y,-z
-x,y,z
x,-y,z
1/2+x,1/2+y,1/2+z
1/2-x,1/2-y,1/2+z
1/2+x,1/2-y,1/2-z
1/2-x,1/2+y,1/2-z
1/2-x,1/2-y,1/2-z
1/2+x,1/2+y,1/2-z
1/2-x,1/2+y,1/2+z
1/2+x,1/2-y,1/2+z
loop_
_atom_site_type_symbol
_atom_site_label
_atom_site_fract_x
_atom_site_fract_y
_atom_site_fract_z
Si Si1 0.185702 0.861875 0.172777
Si Si2 0.500000 0.782879 0.322279
Si Si3 0.000000 0.386015 0.677610
Si Si4 0.748523 0.447212 0.820548
Si Si5 0.124653 0.399955 0.822048
Si Si6 0.316356 0.812245 0.827148
Si Si7 0.875233 0.228274 0.820751
O O1 0.201327 0.908761 0.261189
O O2 0.247441 0.830670 0.180592
O O3 0.133376 0.825918 0.223615
O O4 0.175335 0.874167 0.000000
O O5 0.500000 0.793823 0.500000
O O6 0.500000 0.832007 0.235610
O O7 0.440508 0.751637 0.289898
O O8 0.938941 0.409763 0.741870
O O9 0.000000 0.386536 0.500000
O O10 0.736159 0.500000 0.769534
O O11 0.817358 0.431640 0.776543
O O12 0.747360 0.446198 0.000000
O O13 0.144259 0.347680 0.773327
O O14 0.117221 0.402463 0.000000
O O15 0.327084 0.760831 0.764322
O O16 0.335941 0.815248 0.000000
O O17 0.864684 0.230536 0.000000
#
# Coordination Sequence:
#
# PCOD9517681 Si02
#       7
#    16   8   8  16  16  16  16
#     4   9  19  32  47  71  99 127 158 197 247 297
#     4  10  20  32  48  67  96 139 174 200 234 275
#     4  12  22  32  47  69  98 130 171 210 236 278
#     4   9  19  36  56  76  95 119 157 205 254 302
#     4  10  19  32  50  69  94 129 165 200 244 293
#     4  10  18  28  44  68  98 128 161 200 240 282
#     4  10  19  31  46  67  98 133 168 198 233 288
#
# _framework density 17.091284000000002
#
# number of rings (size 3 to 8) (size 9 to 14) (size 15 to 20)
#    0.000    2.167    1.667    2.250    0.000    2.333 
#    0.000    0.417    0.000    2.500    0.000    0.583 
#    0.000    4.667    0.000    0.000    0.000    0.000 
#
# Total GULP energy -267709.889289 kJ/mol
# GULP energy per Si atom -5577.289360 kJ/mol
# Density = 1.705238 g / cm^3
# Si number density = 17.091284 Si / 1000 Ang^3
#
#
#
# Elastic Constant Matrix: (Units=GPa)
#
#
# Indices 1 2 3 4 5 6 
#
# 1 21.3585 10.9334 10.3858 0.0000 0.0000 0.0000
# 2 10.9334 106.1722 24.6403 0.0000 0.0000 0.0000
# 3 10.3858 24.6403 39.2107 0.0000 0.0000 0.0000
# 4 0.0000 0.0000 0.0000 21.2925 0.0000 0.0000
# 5 0.0000 0.0000 0.0000 0.0000 16.5942 0.0000
# 6 0.0000 0.0000 0.0000 0.0000 0.0000 16.0436
#
#
#
# Elastic Compliance Matrix: (Units=1/GPa)
#
#
# Indices 1 2 3 4 5 6 
#
# 1 0.054367 -0.002642 -0.012740 0.000000 0.000000 0.000000
# 2 -0.002642 0.011155 -0.006310 0.000000 0.000000 0.000000
# 3 -0.012740 -0.006310 0.032843 0.000000 0.000000 0.000000
# 4 0.000000 0.000000 0.000000 0.046965 0.000000 0.000000
# 5 0.000000 0.000000 0.000000 0.000000 0.060262 0.000000
# 6 0.000000 0.000000 0.000000 0.000000 0.000000 0.062330
#
#
# Mechanical properties :
#
#
# Convention : Reuss Voigt Hill
#
# Bulk Modulus (GPa) = 18.18812 28.74004 23.46408
# Shear Modulus (GPa) = 15.16833 18.83819 17.00326
#
# Velocity S-wave (km/s) = 2.98231 3.32356 3.15755
# Velocity P-wave (km/s) = 4.74592 5.61962 5.20115
#
# Compressibility (1/GPa) = 0.05498094
#
# Stress axis : x y z
#
# Youngs Moduli (GPa) = 18.39343 89.64434 30.44770
#
# Poissons Ratio (x) = 0.23683 0.38791
# Poissons Ratio (y) = 0.04859 0.19213
# Poissons Ratio (z) = 0.23434 0.56568
#
# Static dielectric constant tensor:
#      x y z
#    x 1.603530 0.000000 0.000000 
#    y 0.000000 1.581730 0.000000 
#    z 0.000000 0.000000 1.576320 
# 
# From -- ./inp_files/12936.got.cif
#   From: 2010.05.17/outbox.cif.g08.bks.cpg/sg71_7_cif.got.tgz:12936.got - 2010.06.03 16:22:01.
