data_PCOD9517563
_publ_section_title
;
Structure prediction by ZEFSAII (Michael W. Deem and Ramdas Pophale) SiO2 
 PCOD9517563
Probable space group: I M M M
;
_chemical_formula_sum "Si O2"
_cell_formula_units_Z 104
_cell_length_a 11.382835
_cell_length_b 28.238688
_cell_length_c 14.773619
_cell_angle_alpha 90.000000
_cell_angle_beta 90.000000
_cell_angle_gamma 90.000000
_cell_volume 4748.777815
_symmetry_space_group_name_H-M "I M M M"
_symmetry_group_IT_number 71
_symmetry_cell_setting 'orthorhombic'
loop_
_space_group_symop_operation_xyz
x,y,z
-x,-y,z
x,-y,-z
-x,y,-z
-x,-y,-z
x,y,-z
-x,y,z
x,-y,z
1/2+x,1/2+y,1/2+z
1/2-x,1/2-y,1/2+z
1/2+x,1/2-y,1/2-z
1/2-x,1/2+y,1/2-z
1/2-x,1/2-y,1/2-z
1/2+x,1/2+y,1/2-z
1/2-x,1/2+y,1/2+z
1/2+x,1/2-y,1/2+z
loop_
_atom_site_type_symbol
_atom_site_label
_atom_site_fract_x
_atom_site_fract_y
_atom_site_fract_z
Si Si1 0.628800 0.682507 0.845764
Si Si2 0.128300 0.943553 0.500000
Si Si3 0.365209 0.448475 0.654655
Si Si4 0.867756 0.843030 0.133690
Si Si5 0.124086 0.345101 0.150631
Si Si6 0.706331 0.053324 0.668396
Si Si7 0.129350 0.704203 0.652183
O O1 0.500000 0.671190 0.885118
O O2 0.629817 0.660361 0.744145
O O3 0.750263 0.667449 0.892508
O O4 0.635011 0.739326 0.838001
O O5 0.200599 0.934667 0.590164
O O6 0.000000 0.921974 0.500000
O O7 0.115416 0.000000 0.500000
O O8 0.500000 0.447702 0.689281
O O9 0.351317 0.500000 0.607837
O O10 0.351971 0.398032 0.606280
O O11 0.275068 0.447972 0.737250
O O12 0.750393 0.814338 0.107627
O O13 0.000000 0.827279 0.105583
O O14 0.123728 0.401408 0.167612
O O15 0.127037 0.318549 0.247513
O O16 0.000000 0.331746 0.106201
O O17 0.658396 0.000000 0.651664
O O18 0.000000 0.692726 0.611092
#
# Coordination Sequence:
#
# PCOD9517563 Si02
#       7
#    16   8  16  16  16  16  16
#     4   9  16  25  37  52  70  90 109 130 158 195
#     4   9  18  30  43  57  69  85 113 151 191 227
#     4   9  15  22  34  50  66  83 104 135 172 207
#     4   9  14  21  33  48  64  83 107 130 157 195
#     4  10  18  27  39  54  71  89 110 135 166 209
#     4  10  18  28  40  53  69  88 113 146 185 225
#     4   9  16  25  35  50  72  91 107 129 158 197
#
# _framework density 21.900372000000001
#
# number of rings (size 3 to 8) (size 9 to 14) (size 15 to 20)
#    0.000    2.692    3.077    2.308    0.000    4.615 
#    0.000    0.385    0.000    1.846    0.000    0.000 
#    0.000    0.000    0.000    0.000    0.000    0.000 
#
# Total GULP energy -289539.814773 kJ/mol
# GULP energy per Si atom -5568.073361 kJ/mol
# Density = 2.185053 g / cm^3
# Si number density = 21.900372 Si / 1000 Ang^3
#
#
#
# Elastic Constant Matrix: (Units=GPa)
#
#
# Indices 1 2 3 4 5 6 
#
# 1 211.8498 62.4118 20.4797 0.0000 0.0000 0.0000
# 2 62.4118 147.6838 5.1444 -0.0002 0.0000 0.0000
# 3 20.4797 5.1444 59.9085 -0.0005 0.0001 0.0000
# 4 0.0000 -0.0002 -0.0005 -0.2905 0.0000 0.0000
# 5 0.0000 0.0000 0.0001 0.0000 -4.8337 0.0000
# 6 0.0000 0.0000 0.0000 0.0000 0.0000 22.5641
#
#
#
# Elastic Compliance Matrix: (Units=1/GPa)
#
#
# Indices 1 2 3 4 5 6 
#
# 1 0.005560 -0.002290 -0.001704 0.000005 0.000000 0.000000
# 2 -0.002290 0.007735 0.000119 -0.000006 0.000000 0.000000
# 3 -0.001704 0.000119 0.017264 -0.000029 0.000000 0.000000
# 4 0.000005 -0.000006 -0.000029 -3.441942 -0.000031 -0.000007
# 5 0.000000 0.000000 0.000000 -0.000031 -0.206880 0.000000
# 6 0.000000 0.000000 0.000000 -0.000007 0.000000 0.044318
#
#
# Mechanical properties :
#
#
# Convention : Reuss Voigt Hill
#
# Bulk Modulus (GPa) = 43.84387 66.16821 55.00604
# Shear Modulus (GPa) = -1.40505 25.58171 12.08833
#
# Velocity S-wave (km/s) = -0.80185 3.42145 2.35195
# Velocity P-wave (km/s) = 4.38245 6.77402 5.70496
#
# Compressibility (1/GPa) = 0.02280821
#
# Stress axis : x y z
#
# Youngs Moduli (GPa) = 179.86409 129.28334 57.92261
#
# Poissons Ratio (x) = 0.29609 0.09870
# Poissons Ratio (y) = 0.41193 -0.00688
# Poissons Ratio (z) = 0.30648 -0.01535
#
# Static dielectric constant tensor:
#      x y z
#    x 1.854750 0.000000 0.000000 
#    y 0.000000 1.822310 0.000000 
#    z 0.000000 0.000000 1.780950 
# 
# From -- ./inp_files/52358.got.cif
#   From: 2010.05.17/outbox.cif.g08.bks.cpg/sg71_27_cif.got.tgz:52358.got - 2010.06.03 16:22:01.
