data_PCOD9517321
_publ_section_title
;
Structure prediction by ZEFSAII (Michael W. Deem and Ramdas Pophale) SiO2 
 PCOD9517321
Probable space group: I M M M
;
_chemical_formula_sum "Si O2"
_cell_formula_units_Z 80
_cell_length_a 7.363138
_cell_length_b 20.595941
_cell_length_c 25.188426
_cell_angle_alpha 90.000000
_cell_angle_beta 90.000000
_cell_angle_gamma 90.000000
_cell_volume 3819.843841
_symmetry_space_group_name_H-M "I M M M"
_symmetry_group_IT_number 71
_symmetry_cell_setting 'orthorhombic'
loop_
_space_group_symop_operation_xyz
x,y,z
-x,-y,z
x,-y,-z
-x,y,-z
-x,-y,-z
x,y,-z
-x,y,z
x,-y,z
1/2+x,1/2+y,1/2+z
1/2-x,1/2-y,1/2+z
1/2+x,1/2-y,1/2-z
1/2-x,1/2+y,1/2-z
1/2-x,1/2-y,1/2-z
1/2+x,1/2+y,1/2-z
1/2-x,1/2+y,1/2+z
1/2+x,1/2-y,1/2+z
loop_
_atom_site_type_symbol
_atom_site_label
_atom_site_fract_x
_atom_site_fract_y
_atom_site_fract_z
Si Si1 0.779908 0.891240 0.142805
Si Si2 0.721939 0.500000 0.560866
Si Si3 0.701480 0.000000 0.656149
Si Si4 0.220167 0.577574 0.000000
Si Si5 0.217718 0.000000 0.225917
Si Si6 0.717702 0.253329 0.313996
Si Si7 0.277905 0.133444 0.387185
O O1 0.720458 0.934560 0.092251
O O2 0.715276 0.819569 0.157794
O O3 0.000000 0.887962 0.138712
O O4 0.734597 0.936980 0.192319
O O5 0.500000 0.500000 0.562309
O O6 0.778959 0.500000 0.500000
O O7 0.786867 0.067088 0.639782
O O8 0.500000 0.000000 0.630672
O O9 0.689654 0.000000 0.718462
O O10 0.273878 0.619622 0.948265
O O11 0.278191 0.500000 0.000000
O O12 0.000000 0.574212 0.000000
O O13 0.000000 0.000000 0.233192
O O14 0.500000 0.253977 0.318179
O O15 0.750000 0.250000 0.250000
O O16 0.783380 0.193159 0.350304
O O17 0.500000 0.136956 0.386231
#
# Coordination Sequence:
#
# PCOD9517321 Si02
#       7
#    16   8   8   8   8  16  16
#     4   8  15  27  41  59  86 116 143 175 216 260
#     4   8  13  24  42  62  86 115 143 175 221 268
#     4  10  17  26  41  64  87 109 144 183 216 252
#     4   9  14  26  44  62  90 121 145 177 226 270
#     4   9  16  27  43  60  82 116 148 172 210 264
#     4  10  19  31  45  66  95 120 146 182 221 262
#     4   9  17  27  42  64  90 118 146 180 221 263
#
# _framework density 20.943266000000001
#
# number of rings (size 3 to 8) (size 9 to 14) (size 15 to 20)
#    0.000    3.000    1.000    2.400    0.000    0.000 
#    1.800    0.000    0.000    0.000    0.000    3.500 
#    0.000   13.600    0.000    0.000    0.000    0.000 
#
# Total GULP energy -222819.401151 kJ/mol
# GULP energy per Si atom -5570.485029 kJ/mol
# Density = 2.089560 g / cm^3
# Si number density = 20.943266 Si / 1000 Ang^3
#
#
#
# Elastic Constant Matrix: (Units=GPa)
#
#
# Indices 1 2 3 4 5 6 
#
# 1 72.3088 13.2700 7.9672 0.0000 0.0000 0.0000
# 2 13.2700 235.8252 123.9410 0.0000 0.0000 0.0000
# 3 7.9672 123.9410 210.1160 0.0000 0.0000 0.0000
# 4 0.0000 0.0000 0.0000 21.1335 0.0000 0.0000
# 5 0.0000 0.0000 0.0000 0.0000 12.2033 0.0000
# 6 0.0000 0.0000 0.0000 0.0000 0.0000 -18.8702
#
#
#
# Elastic Compliance Matrix: (Units=1/GPa)
#
#
# Indices 1 2 3 4 5 6 
#
# 1 0.013975 -0.000736 -0.000096 0.000000 0.000000 0.000000
# 2 -0.000736 0.006184 -0.003620 0.000000 0.000000 0.000000
# 3 -0.000096 -0.003620 0.006898 0.000000 0.000000 0.000000
# 4 0.000000 0.000000 0.000000 0.047318 0.000000 0.000000
# 5 0.000000 0.000000 0.000000 0.000000 0.081945 0.000000
# 6 0.000000 0.000000 0.000000 0.000000 0.000000 -0.052994
#
#
# Mechanical properties :
#
#
# Convention : Reuss Voigt Hill
#
# Bulk Modulus (GPa) = 55.08391 89.84516 72.46454
# Shear Modulus (GPa) = 42.27167 27.76478 35.01823
#
# Velocity S-wave (km/s) = 4.49752 3.64499 4.09351
# Velocity P-wave (km/s) = 7.30266 7.79147 7.55102
#
# Compressibility (1/GPa) = 0.01815412
#
# Stress axis : x y z
#
# Youngs Moduli (GPa) = 71.55533 161.69612 144.96340
#
# Poissons Ratio (x) = 0.11902 0.01388
# Poissons Ratio (y) = 0.05267 0.52478
# Poissons Ratio (z) = 0.00685 0.58536
#
# Static dielectric constant tensor:
#      x y z
#    x 1.830580 0.000000 0.000000 
#    y 0.000000 1.753470 0.000000 
#    z 0.000000 0.000000 1.735410 
# 
# From -- ./inp_files/57484.got.cif
#   From: 2010.05.17/outbox.cif.g08.bks.cpg/sg71_29_cif.got.tgz:57484.got - 2010.06.03 16:22:01.
