data_PCOD9517895
_publ_section_title
;
Structure prediction by ZEFSAII (Michael W. Deem and Ramdas Pophale) SiO2 
 PCOD9517895
Probable space group: I M M M
;
_chemical_formula_sum "Si O2"
_cell_formula_units_Z 82
_cell_length_a 21.910322
_cell_length_b 11.793357
_cell_length_c 20.267228
_cell_angle_alpha 90.000000
_cell_angle_beta 90.000000
_cell_angle_gamma 90.000000
_cell_volume 5236.975700
_symmetry_space_group_name_H-M "I M M M"
_symmetry_group_IT_number 71
_symmetry_cell_setting 'orthorhombic'
loop_
_space_group_symop_operation_xyz
x,y,z
-x,-y,z
x,-y,-z
-x,y,-z
-x,-y,-z
x,y,-z
-x,y,z
x,-y,z
1/2+x,1/2+y,1/2+z
1/2-x,1/2-y,1/2+z
1/2+x,1/2-y,1/2-z
1/2-x,1/2+y,1/2-z
1/2-x,1/2-y,1/2-z
1/2+x,1/2+y,1/2-z
1/2-x,1/2+y,1/2+z
1/2+x,1/2-y,1/2+z
loop_
_atom_site_type_symbol
_atom_site_label
_atom_site_fract_x
_atom_site_fract_y
_atom_site_fract_z
Si Si1 0.500000 0.000000 0.500000
Si Si2 0.901165 0.500000 0.881243
Si Si3 0.570182 0.000000 0.229358
Si Si4 0.814728 0.699476 0.923643
Si Si5 0.299213 0.631427 0.312772
Si Si6 0.841317 0.707355 0.303380
Si Si7 0.172729 0.867913 0.423795
O O1 0.552444 0.000000 0.441702
O O2 0.929533 0.500000 0.808957
O O3 0.858647 0.609908 0.889159
O O4 0.608050 0.111282 0.207104
O O5 0.500000 0.000000 0.206093
O O6 0.815955 0.815730 0.883403
O O7 0.746082 0.649720 0.920524
O O8 0.831315 0.712544 0.000000
O O9 0.313521 0.500000 0.306331
O O10 0.226003 0.649555 0.306087
O O11 0.333595 0.704957 0.257212
O O12 0.852363 0.780777 0.369625
O O13 0.154589 0.844851 0.500000
O O14 0.159246 0.000000 0.409033
#
# Coordination Sequence:
#
# PCOD9517895 Si02
#       7
#     2   8   8  16  16  16  16
#     4  12  24  32  56  80 110 156 194 232 246 298
#     4  12  20  34  50  81 106 144 192 229 260 299
#     4  12  24  38  55  78 108 150 190 224 264 321
#     4  10  18  29  49  74 114 143 173 223 272 326
#     4  10  19  30  51  79 109 140 175 224 288 332
#     4  10  20  33  51  78 110 139 179 225 275 330
#     4   9  17  30  53  83 108 141 169 213 284 334
#
# _framework density 15.657893
#
# number of rings (size 3 to 8) (size 9 to 14) (size 15 to 20)
#    0.000    1.756    5.366    0.585    0.000    0.390 
#    0.000    0.488    0.000    3.512    0.000    2.049 
#    0.000    0.000    0.000    0.000    0.000    0.000 
#
# Total GULP energy -228323.551835 kJ/mol
# GULP energy per Si atom -5568.867118 kJ/mol
# Density = 1.562225 g / cm^3
# Si number density = 15.657893 Si / 1000 Ang^3
#
#
#
# Elastic Constant Matrix: (Units=GPa)
#
#
# Indices 1 2 3 4 5 6 
#
# 1 63.1388 46.1367 30.5444 0.0000 0.0000 0.0000
# 2 46.1367 137.3739 59.9859 0.0000 0.0000 0.0000
# 3 30.5444 59.9859 93.5432 0.0000 0.0000 0.0000
# 4 0.0000 0.0000 0.0000 23.4105 0.0000 0.0000
# 5 0.0000 0.0000 0.0000 0.0000 16.6169 0.0000
# 6 0.0000 0.0000 0.0000 0.0000 0.0000 4.6873
#
#
#
# Elastic Compliance Matrix: (Units=1/GPa)
#
#
# Indices 1 2 3 4 5 6 
#
# 1 0.021721 -0.005831 -0.003354 0.000000 0.000000 0.000000
# 2 -0.005831 0.011676 -0.005583 0.000000 0.000000 0.000000
# 3 -0.003354 -0.005583 0.015366 0.000000 0.000000 0.000000
# 4 0.000000 0.000000 0.000000 0.042716 0.000000 0.000000
# 5 0.000000 0.000000 0.000000 0.000000 0.060180 0.000000
# 6 0.000000 0.000000 0.000000 0.000000 0.000000 0.213344
#
#
# Mechanical properties :
#
#
# Convention : Reuss Voigt Hill
#
# Bulk Modulus (GPa) = 52.00922 63.04332 57.52627
# Shear Modulus (GPa) = 12.47051 19.43553 15.95302
#
# Velocity S-wave (km/s) = 2.82518 3.52698 3.19540
# Velocity P-wave (km/s) = 6.62799 7.54562 7.10165
#
# Compressibility (1/GPa) = 0.01922736
#
# Stress axis : x y z
#
# Youngs Moduli (GPa) = 46.03851 85.64864 65.08026
#
# Poissons Ratio (x) = 0.49938 0.21825
# Poissons Ratio (y) = 0.26843 0.36336
# Poissons Ratio (z) = 0.15439 0.47820
#
# Static dielectric constant tensor:
#      x y z
#    x 1.499530 0.000000 0.000000 
#    y 0.000000 1.505040 0.000000 
#    z 0.000000 0.000000 1.536230 
# 
# From -- ./inp_files/25599.got.cif
#   From: 2010.05.17/outbox.cif.g08.bks.cpg/sg71_13_cif.got.tgz:25599.got - 2010.06.03 16:22:01.
