data_PCOD9517468
_publ_section_title
;
Structure prediction by ZEFSAII (Michael W. Deem and Ramdas Pophale) SiO2 
 PCOD9517468
Probable space group: I M M M
;
_chemical_formula_sum "Si O2"
_cell_formula_units_Z 60
_cell_length_a 20.020330
_cell_length_b 20.559751
_cell_length_c 7.346948
_cell_angle_alpha 90.000000
_cell_angle_beta 90.000000
_cell_angle_gamma 90.000000
_cell_volume 3024.099305
_symmetry_space_group_name_H-M "I M M M"
_symmetry_group_IT_number 71
_symmetry_cell_setting 'orthorhombic'
loop_
_space_group_symop_operation_xyz
x,y,z
-x,-y,z
x,-y,-z
-x,y,-z
-x,-y,-z
x,y,-z
-x,y,z
x,-y,z
1/2+x,1/2+y,1/2+z
1/2-x,1/2-y,1/2+z
1/2+x,1/2-y,1/2-z
1/2-x,1/2+y,1/2-z
1/2-x,1/2-y,1/2-z
1/2+x,1/2+y,1/2-z
1/2-x,1/2+y,1/2+z
1/2+x,1/2-y,1/2+z
loop_
_atom_site_type_symbol
_atom_site_label
_atom_site_fract_x
_atom_site_fract_y
_atom_site_fract_z
Si Si1 0.421184 0.869656 0.500000
Si Si2 0.836450 0.500000 0.000000
Si Si3 0.578466 0.757694 0.219174
Si Si4 0.707250 0.500000 0.790421
Si Si5 0.142785 0.129139 0.295801
Si Si6 0.000000 0.077259 0.214654
O O1 0.500000 0.884933 0.500000
O O2 0.379432 0.935107 0.500000
O O3 0.407326 0.824027 0.674748
O O4 0.785893 0.500000 0.172369
O O5 0.500000 0.741024 0.260894
O O6 0.629888 0.701216 0.280803
O O7 0.583027 0.763398 0.000000
O O8 0.682435 0.568401 0.709197
O O9 0.677955 0.500000 0.000000
O O10 0.170733 0.137753 0.500000
O O11 0.066851 0.103931 0.301699
O O12 0.000000 0.000000 0.230599
O O13 0.000000 0.093730 0.000000
#
# Coordination Sequence:
#
# PCOD9517468 Si02
#       6
#     8   4  16   8  16   8
#     4  10  21  38  64  87 109 138 179 246 306 341
#     4  10  21  42  60  81 100 142 202 240 276 335
#     4   9  18  31  53  88 119 140 172 224 286 348
#     4   8  18  32  54  73 103 147 197 228 248 318
#     4  10  17  30  50  75 106 153 187 220 268 325
#     4  11  21  25  39  77 119 153 192 229 270 322
#
# _framework density 19.840617999999999
#
# number of rings (size 3 to 8) (size 9 to 14) (size 15 to 20)
#    0.400    2.000    2.667    0.600    1.867    0.533 
#    0.000    2.000    0.000    6.400    0.000    0.000 
#    0.000    0.000    0.000    0.000    0.000    0.000 
#
# Total GULP energy -167064.209582 kJ/mol
# GULP energy per Si atom -5568.806986 kJ/mol
# Density = 1.979546 g / cm^3
# Si number density = 19.840618 Si / 1000 Ang^3
#
#
#
# Elastic Constant Matrix: (Units=GPa)
#
#
# Indices 1 2 3 4 5 6 
#
# 1 72.1640 85.1092 11.3970 0.0000 0.0000 0.0000
# 2 85.1092 191.8189 34.2279 0.0000 0.0000 0.0000
# 3 11.3970 34.2279 69.7776 0.0000 0.0000 0.0000
# 4 0.0000 0.0000 0.0000 87.6022 0.0000 0.0000
# 5 0.0000 0.0000 0.0000 0.0000 -24.4497 0.0000
# 6 0.0000 0.0000 0.0000 0.0000 0.0000 21.1408
#
#
#
# Elastic Compliance Matrix: (Units=1/GPa)
#
#
# Indices 1 2 3 4 5 6 
#
# 1 0.029260 -0.013294 0.001742 0.000000 0.000000 0.000000
# 2 -0.013294 0.011753 -0.003594 0.000000 0.000000 0.000000
# 3 0.001742 -0.003594 0.015810 0.000000 0.000000 0.000000
# 4 0.000000 0.000000 0.000000 0.011415 0.000000 0.000000
# 5 0.000000 0.000000 0.000000 0.000000 -0.040900 0.000000
# 6 0.000000 0.000000 0.000000 0.000000 0.000000 0.047302
#
#
# Mechanical properties :
#
#
# Convention : Reuss Voigt Hill
#
# Bulk Modulus (GPa) = 37.69100 66.13653 51.91376
# Shear Modulus (GPa) = 43.94638 30.39373 37.17005
#
# Velocity S-wave (km/s) = 4.71145 3.91819 4.33301
# Velocity P-wave (km/s) = 6.97389 7.34002 7.15930
#
# Compressibility (1/GPa) = 0.02653153
#
# Stress axis : x y z
#
# Youngs Moduli (GPa) = 34.17586 85.08614 63.25251
#
# Poissons Ratio (x) = 1.13109 -0.11016
# Poissons Ratio (y) = 0.45432 0.22732
# Poissons Ratio (z) = -0.05952 0.30578
#
# Static dielectric constant tensor:
#      x y z
#    x 1.665500 0.000000 0.000000 
#    y 0.000000 1.727340 0.000000 
#    z 0.000000 0.000000 1.753310 
# 
# From -- ./inp_files/9579.got.cif
#   From: 2010.05.17/outbox.cif.g08.bks.cpg/sg71_5_cif.got.tgz:9579.got - 2010.06.03 16:22:01.
