data_PCOD9517373
_publ_section_title
;
Structure prediction by ZEFSAII (Michael W. Deem and Ramdas Pophale) SiO2 
 PCOD9517373
Probable space group: I M M M
;
_chemical_formula_sum "Si O2"
_cell_formula_units_Z 104
_cell_length_a 31.246769
_cell_length_b 8.014879
_cell_length_c 23.407267
_cell_angle_alpha 90.000000
_cell_angle_beta 90.000000
_cell_angle_gamma 90.000000
_cell_volume 5862.094241
_symmetry_space_group_name_H-M "I M M M"
_symmetry_group_IT_number 71
_symmetry_cell_setting 'orthorhombic'
loop_
_space_group_symop_operation_xyz
x,y,z
-x,-y,z
x,-y,-z
-x,y,-z
-x,-y,-z
x,y,-z
-x,y,z
x,-y,z
1/2+x,1/2+y,1/2+z
1/2-x,1/2-y,1/2+z
1/2+x,1/2-y,1/2-z
1/2-x,1/2+y,1/2-z
1/2-x,1/2-y,1/2-z
1/2+x,1/2+y,1/2-z
1/2-x,1/2+y,1/2+z
1/2+x,1/2-y,1/2+z
loop_
_atom_site_type_symbol
_atom_site_label
_atom_site_fract_x
_atom_site_fract_y
_atom_site_fract_z
Si Si1 0.379437 0.798977 0.434901
Si Si2 0.806552 0.795733 0.433188
Si Si3 0.451496 0.800949 0.217615
Si Si4 0.786409 0.306465 0.930498
Si Si5 0.450677 0.704300 0.000000
Si Si6 0.548373 0.301164 0.653804
Si Si7 0.603346 0.700419 0.890048
O O1 0.387543 0.740180 0.500000
O O2 0.332683 0.733154 0.414877
O O3 0.417428 0.758086 0.392221
O O4 0.375595 0.000000 0.437576
O O5 0.812855 0.751886 0.500000
O O6 0.759714 0.733630 0.413621
O O7 0.847959 0.739288 0.398264
O O8 0.804911 0.000000 0.431630
O O9 0.500000 0.736218 0.206361
O O10 0.439499 0.747642 0.281628
O O11 0.419060 0.743336 0.169168
O O12 0.453038 0.000000 0.216203
O O13 0.786326 0.500000 0.911537
O O14 0.786062 0.307476 0.000000
O O15 0.425630 0.759824 0.943275
O O16 0.450601 0.500000 0.000000
O O17 0.500000 0.758128 0.000000
O O18 0.500000 0.235154 0.643438
O O19 0.546685 0.500000 0.650783
O O20 0.604894 0.500000 0.894623
#
# Coordination Sequence:
#
# PCOD9517373 Si02
#       7
#    16  16  16  16   8  16  16
#     4   9  17  30  50  77 105 131 156 183 225 278
#     4   8  12  21  40  68  98 125 158 197 235 275
#     4  10  21  36  51  66  88 123 164 201 240 288
#     4   7  11  21  40  67  98 128 156 188 224 269
#     4   9  16  24  37  63  97 127 155 193 240 283
#     4  10  21  36  53  72  94 122 157 197 237 277
#     4  10  17  27  46  71  96 124 160 202 242 280
#
# _framework density 17.741098999999998
#
# number of rings (size 3 to 8) (size 9 to 14) (size 15 to 20)
#    0.000    3.000    0.769    3.231    0.000    3.077 
#    0.000    1.923    0.000    3.231    0.000    2.154 
#    0.000    0.000    0.000    0.000    0.000    0.000 
#
# Total GULP energy -289630.850804 kJ/mol
# GULP energy per Si atom -5569.824054 kJ/mol
# Density = 1.770072 g / cm^3
# Si number density = 17.741099 Si / 1000 Ang^3
#
#
#
# Elastic Constant Matrix: (Units=GPa)
#
#
# Indices 1 2 3 4 5 6 
#
# 1 188.4396 13.3817 108.9822 0.0000 0.0000 0.0000
# 2 13.3817 12.9451 5.7408 0.0000 0.0000 0.0000
# 3 108.9822 5.7408 102.0759 0.0000 0.0000 0.0000
# 4 0.0000 0.0000 0.0000 15.6488 0.0000 0.0000
# 5 0.0000 0.0000 0.0000 0.0000 16.7710 0.0000
# 6 0.0000 0.0000 0.0000 0.0000 0.0000 8.3673
#
#
#
# Elastic Compliance Matrix: (Units=1/GPa)
#
#
# Indices 1 2 3 4 5 6 
#
# 1 0.014724 -0.008460 -0.015244 0.000000 0.000000 0.000000
# 2 -0.008460 0.084086 0.004303 0.000000 0.000000 0.000000
# 3 -0.015244 0.004303 0.025830 0.000000 0.000000 0.000000
# 4 0.000000 0.000000 0.000000 0.063903 0.000000 0.000000
# 5 0.000000 0.000000 0.000000 0.000000 0.059627 0.000000
# 6 0.000000 0.000000 0.000000 0.000000 0.000000 0.119513
#
#
# Mechanical properties :
#
#
# Convention : Reuss Voigt Hill
#
# Bulk Modulus (GPa) = 11.64975 62.18557 36.91766
# Shear Modulus (GPa) = 11.49165 19.84779 15.66972
#
# Velocity S-wave (km/s) = 2.54784 3.34840 2.97517
# Velocity P-wave (km/s) = 3.90334 7.07650 5.71458
#
# Compressibility (1/GPa) = 0.08583878
#
# Stress axis : x y z
#
# Youngs Moduli (GPa) = 67.91657 11.89252 38.71412
#
# Poissons Ratio (x) = 0.10061 0.59017
# Poissons Ratio (y) = 0.57458 -0.16661
# Poissons Ratio (z) = 1.03534 -0.05118
#
# Static dielectric constant tensor:
#      x y z
#    x 1.660770 0.000000 0.000000 
#    y 0.000000 1.645110 0.000000 
#    z 0.000000 0.000000 1.570830 
# 
# From -- ./inp_files/56680.got.cif
#   From: 2010.05.17/outbox.cif.g08.bks.cpg/sg71_29_cif.got.tgz:56680.got - 2010.06.03 16:22:01.
