data_PCOD9517280
_publ_section_title
;
Structure prediction by ZEFSAII (Michael W. Deem and Ramdas Pophale) SiO2 
 PCOD9517280
Probable space group: I M M M
;
_chemical_formula_sum "Si O2"
_cell_formula_units_Z 84
_cell_length_a 16.441439
_cell_length_b 22.888070
_cell_length_c 12.214571
_cell_angle_alpha 90.000000
_cell_angle_beta 90.000000
_cell_angle_gamma 90.000000
_cell_volume 4596.499496
_symmetry_space_group_name_H-M "I M M M"
_symmetry_group_IT_number 71
_symmetry_cell_setting 'orthorhombic'
loop_
_space_group_symop_operation_xyz
x,y,z
-x,-y,z
x,-y,-z
-x,y,-z
-x,-y,-z
x,y,-z
-x,y,z
x,-y,z
1/2+x,1/2+y,1/2+z
1/2-x,1/2-y,1/2+z
1/2+x,1/2-y,1/2-z
1/2-x,1/2+y,1/2-z
1/2-x,1/2-y,1/2-z
1/2+x,1/2+y,1/2-z
1/2-x,1/2+y,1/2+z
1/2+x,1/2-y,1/2+z
loop_
_atom_site_type_symbol
_atom_site_label
_atom_site_fract_x
_atom_site_fract_y
_atom_site_fract_z
Si Si1 0.301768 0.934045 0.370082
Si Si2 0.500000 0.579390 0.000000
Si Si3 0.372530 0.396515 0.804359
Si Si4 0.597893 0.141610 0.213009
Si Si5 0.500000 0.429803 0.626164
Si Si6 0.401533 0.731425 0.129362
Si Si7 0.901046 0.432976 0.500000
O O1 0.291542 0.925899 0.500000
O O2 0.214277 0.926596 0.313512
O O3 0.361548 0.886737 0.318298
O O4 0.332727 0.000000 0.350882
O O5 0.429556 0.581289 0.096147
O O6 0.421376 0.408056 0.693144
O O7 0.362884 0.327035 0.823055
O O8 0.500000 0.139501 0.220165
O O9 0.620548 0.208700 0.189195
O O10 0.623179 0.102442 0.108268
O O11 0.500000 0.500000 0.629792
O O12 0.500000 0.410838 0.500000
O O13 0.500000 0.723292 0.136661
O O14 0.383497 0.736246 0.000000
O O15 0.872753 0.500000 0.500000
O O16 0.000000 0.433846 0.500000
#
# Coordination Sequence:
#
# PCOD9517280 Si02
#       7
#    16   4  16  16   8  16   8
#     4  11  24  40  56  82 121 157 202 259 302 351
#     4  10  16  32  65  94 114 144 191 242 288 350
#     4  11  19  37  63  92 118 156 195 246 297 354
#     4  10  21  36  58  85 113 159 201 245 308 360
#     4  10  22  40  59  85 124 166 199 234 290 363
#     4  10  16  32  61  91 120 148 193 248 299 355
#     4   9  16  31  55  82 107 140 200 252 284 352
#
# _framework density 18.274775999999999
#
# number of rings (size 3 to 8) (size 9 to 14) (size 15 to 20)
#    0.000    1.714    4.762    1.143    0.000    2.286 
#    1.714    3.333    0.000    0.000    0.000    0.000 
#    0.000    0.000    0.000    0.000    0.000    0.000 
#
# Total GULP energy -233953.616828 kJ/mol
# GULP energy per Si atom -5570.324210 kJ/mol
# Density = 1.823318 g / cm^3
# Si number density = 18.274776 Si / 1000 Ang^3
#
#
#
# Elastic Constant Matrix: (Units=GPa)
#
#
# Indices 1 2 3 4 5 6 
#
# 1 22.6686 12.6125 16.5861 0.0000 0.0000 0.0000
# 2 12.6125 99.2382 32.3251 0.0000 0.0000 0.0000
# 3 16.5861 32.3251 103.8878 0.0000 0.0000 0.0000
# 4 0.0000 0.0000 0.0000 19.5233 0.0000 0.0000
# 5 0.0000 0.0000 0.0000 0.0000 9.2752 0.0000
# 6 0.0000 0.0000 0.0000 0.0000 0.0000 24.2244
#
#
#
# Elastic Compliance Matrix: (Units=1/GPa)
#
#
# Indices 1 2 3 4 5 6 
#
# 1 0.051552 -0.004308 -0.006890 0.000000 0.000000 0.000000
# 2 -0.004308 0.011573 -0.002913 0.000000 0.000000 0.000000
# 3 -0.006890 -0.002913 0.011632 0.000000 0.000000 0.000000
# 4 0.000000 0.000000 0.000000 0.051221 0.000000 0.000000
# 5 0.000000 0.000000 0.000000 0.000000 0.107815 0.000000
# 6 0.000000 0.000000 0.000000 0.000000 0.000000 0.041281
#
#
# Mechanical properties :
#
#
# Convention : Reuss Voigt Hill
#
# Bulk Modulus (GPa) = 21.48902 38.76023 30.12463
# Shear Modulus (GPa) = 15.68344 21.55598 18.61971
#
# Velocity S-wave (km/s) = 2.93269 3.43818 3.19544
# Velocity P-wave (km/s) = 4.82202 6.08417 5.48949
#
# Compressibility (1/GPa) = 0.04653539
#
# Stress axis : x y z
#
# Youngs Moduli (GPa) = 19.39787 86.40657 85.96747
#
# Poissons Ratio (x) = 0.37220 0.59233
# Poissons Ratio (y) = 0.08356 0.25045
# Poissons Ratio (z) = 0.13365 0.25173
#
# Static dielectric constant tensor:
#      x y z
#    x 1.617710 0.000000 0.000000 
#    y 0.000000 1.655060 0.000000 
#    z 0.000000 0.000000 1.608330 
# 
# From -- ./inp_files/22069.got.cif
#   From: 2010.05.17/outbox.cif.g08.bks.cpg/sg71_12_cif.got.tgz:22069.got - 2010.06.03 16:22:01.
