data_PCOD9517134
_publ_section_title
;
Structure prediction by ZEFSAII (Michael W. Deem and Ramdas Pophale) SiO2 
 PCOD9517134
Probable space group: F D D D
;
_chemical_formula_sum "Si O2"
_cell_formula_units_Z 80
_cell_length_a 19.539886
_cell_length_b 5.131862
_cell_length_c 30.974147
_cell_angle_alpha 90.000000
_cell_angle_beta 90.000000
_cell_angle_gamma 90.000000
_cell_volume 3105.963516
_symmetry_space_group_name_H-M "F D D D"
_symmetry_group_IT_number 70
_space_group.IT_coordinate_system_code '2'
_symmetry_cell_setting 'orthorhombic'
loop_
_space_group_symop_operation_xyz
x,y,z
1/4-x,1/4-y,z
x,1/4-y,1/4-z
1/4-x,y,1/4-z
-x,-y,-z
3/4+x,3/4+y,-z
-x,3/4+y,3/4+z
3/4+x,-y,3/4+z
x,1/2+y,1/2+z
1/4-x,3/4-y,1/2+z
x,3/4-y,3/4-z
1/4-x,1/2+y,3/4-z
-x,1/2-y,1/2-z
3/4+x,1/4+y,1/2-z
-x,1/4+y,1/4+z
3/4+x,1/2-y,1/4+z
1/2+x,y,1/2+z
3/4-x,1/4-y,1/2+z
1/2+x,1/4-y,3/4-z
3/4-x,y,3/4-z
1/2-x,-y,1/2-z
1/4+x,3/4+y,1/2-z
1/2-x,3/4+y,1/4+z
1/4+x,-y,1/4+z
1/2+x,1/2+y,z
3/4-x,3/4-y,z
1/2+x,3/4-y,1/4-z
3/4-x,1/2+y,1/4-z
1/2-x,1/2-y,-z
1/4+x,1/4+y,-z
1/2-x,1/4+y,3/4+z
1/4+x,1/2-y,3/4+z
loop_
_atom_site_type_symbol
_atom_site_label
_atom_site_fract_x
_atom_site_fract_y
_atom_site_fract_z
Si Si1 0.125000 0.625000 0.190513
Si Si2 0.427402 0.167917 0.730479
Si Si3 0.235738 0.641823 0.902597
O O1 0.141740 0.845226 0.224906
O O2 0.059081 0.732276 0.165611
O O3 0.500000 0.250000 0.750000
O O4 0.375000 0.375000 0.709749
O O5 0.446728 0.943504 0.696105
O O6 0.244384 0.375000 0.875000
O O7 0.201403 0.875000 0.875000
#
# Coordination Sequence:
#
# PCOD9517134 Si02
#       3
#    16  32  32
#     4  12  27  50  88 112 164 226 292 334 420 534
#     4  12  27  52  86 120 165 225 293 347 423 527
#     4  12  29  51  80 128 174 222 284 367 440 505
#
# _framework density 25.756903000000001
#
# number of rings (size 3 to 8) (size 9 to 14) (size 15 to 20)
#    0.000    0.000    4.000    4.200    5.600    4.800 
#    3.600    0.000    0.000    0.000    0.000    0.000 
#    0.000    0.000    0.000    0.000    0.000    0.000 
#
# Total GULP energy -111862.064017 kJ/mol
# GULP energy per Si atom -5593.103201 kJ/mol
# Density = 2.569828 g / cm^3
# Si number density = 25.756903 Si / 1000 Ang^3
#
#
#
# Elastic Constant Matrix: (Units=GPa)
#
#
# Indices 1 2 3 4 5 6 
#
# 1 123.4999 51.0351 60.6581 0.0000 0.0000 -0.0001
# 2 51.0351 185.6155 84.4467 -0.0002 0.0001 -0.0012
# 3 60.6581 84.4467 181.1647 0.0000 0.0000 0.0000
# 4 0.0000 -0.0002 0.0000 63.3127 -0.0001 0.0001
# 5 0.0000 0.0001 0.0000 -0.0001 56.2155 0.0000
# 6 -0.0001 -0.0012 0.0000 0.0001 0.0000 59.3770
#
#
#
# Elastic Compliance Matrix: (Units=1/GPa)
#
#
# Indices 1 2 3 4 5 6 
#
# 1 0.010035 -0.001562 -0.002632 0.000000 0.000000 0.000000
# 2 -0.001562 0.007081 -0.002778 0.000000 0.000000 0.000000
# 3 -0.002632 -0.002778 0.007696 0.000000 0.000000 0.000000
# 4 0.000000 0.000000 0.000000 0.015795 0.000000 0.000000
# 5 0.000000 0.000000 0.000000 0.000000 0.017789 0.000000
# 6 0.000000 0.000000 0.000000 0.000000 0.000000 0.016842
#
#
# Mechanical properties :
#
#
# Convention : Reuss Voigt Hill
#
# Bulk Modulus (GPa) = 92.00535 98.06219 95.03377
# Shear Modulus (GPa) = 53.87798 55.39038 54.63418
#
# Velocity S-wave (km/s) = 4.57857 4.64239 4.61059
# Velocity P-wave (km/s) = 7.98431 8.17866 8.08207
#
# Compressibility (1/GPa) = 0.01086893
#
# Stress axis : x y z
#
# Youngs Moduli (GPa) = 99.64810 141.23200 129.94046
#
# Poissons Ratio (x) = 0.22057 0.34201
# Poissons Ratio (y) = 0.15562 0.36092
# Poissons Ratio (z) = 0.26228 0.39228
#
# Static dielectric constant tensor:
#      x y z
#    x 1.845950 0.000000 0.000000 
#    y 0.000000 2.104130 0.000000 
#    z 0.000000 0.000000 1.940420 
# 
# From -- ./inp_files/3728.got.cif
#   From: 2010.05.17/outbox.cif.g08.bks.cpg/sg70_2_cif.got.tgz:3728.got - 2010.06.03 15:57:51.
