data_PCOD9517663
_publ_section_title
;
Structure prediction by ZEFSAII (Michael W. Deem and Ramdas Pophale) SiO2 
 PCOD9517663
Probable space group: I M M M
;
_chemical_formula_sum "Si O2"
_cell_formula_units_Z 112
_cell_length_a 14.062279
_cell_length_b 17.749091
_cell_length_c 25.722897
_cell_angle_alpha 90.000000
_cell_angle_beta 90.000000
_cell_angle_gamma 90.000000
_cell_volume 6420.246533
_symmetry_space_group_name_H-M "I M M M"
_symmetry_group_IT_number 71
_symmetry_cell_setting 'orthorhombic'
loop_
_space_group_symop_operation_xyz
x,y,z
-x,-y,z
x,-y,-z
-x,y,-z
-x,-y,-z
x,y,-z
-x,y,z
x,-y,z
1/2+x,1/2+y,1/2+z
1/2-x,1/2-y,1/2+z
1/2+x,1/2-y,1/2-z
1/2-x,1/2+y,1/2-z
1/2-x,1/2-y,1/2-z
1/2+x,1/2+y,1/2-z
1/2-x,1/2+y,1/2+z
1/2+x,1/2-y,1/2+z
loop_
_atom_site_type_symbol
_atom_site_label
_atom_site_fract_x
_atom_site_fract_y
_atom_site_fract_z
Si Si1 0.739700 0.084005 0.244755
Si Si2 0.112661 0.411939 0.641735
Si Si3 0.392285 0.688706 0.297051
Si Si4 0.110499 0.302470 0.059473
Si Si5 0.104880 0.084431 0.101186
Si Si6 0.235937 0.331657 0.442608
Si Si7 0.890495 0.362181 0.831163
O O1 0.666465 0.095298 0.196776
O O2 0.817053 0.149871 0.240554
O O3 0.681604 0.089511 0.297898
O O4 0.781589 0.000000 0.239215
O O5 0.126176 0.500000 0.624862
O O6 0.160239 0.353411 0.601484
O O7 0.000000 0.399402 0.647161
O O8 0.500000 0.681187 0.277403
O O9 0.385319 0.640956 0.350491
O O10 0.376939 0.775708 0.311385
O O11 0.193976 0.240324 0.064998
O O12 0.123554 0.360180 0.106761
O O13 0.000000 0.273223 0.066362
O O14 0.115433 0.330614 0.000000
O O15 0.187451 0.101206 0.061233
O O16 0.000000 0.093400 0.078095
O O17 0.113182 0.000000 0.121671
O O18 0.193015 0.326449 0.500000
O O19 0.000000 0.383362 0.820579
#
# Coordination Sequence:
#
# PCOD9517663 Si02
#       7
#    16  16  16  16  16  16  16
#     4  11  21  34  53  75 101 131 166 211 256 297
#     4  10  21  35  46  59  87 129 171 206 244 286
#     4  10  19  32  51  75 101 131 165 202 247 300
#     4   9  17  31  52  76 101 127 155 194 247 304
#     4  10  18  28  43  65  94 123 153 193 243 294
#     4  11  20  30  46  67  91 122 165 208 243 286
#     4  10  19  32  52  76 101 132 170 204 238 291
#
# _framework density 17.444811999999999
#
# number of rings (size 3 to 8) (size 9 to 14) (size 15 to 20)
#    0.000    1.857    2.857    2.143    0.000    4.000 
#    0.000    1.429    0.000    0.429    0.000    2.000 
#    0.000    0.000    0.000    1.286    0.000    0.000 
#
# Total GULP energy -312153.437447 kJ/mol
# GULP energy per Si atom -5574.168526 kJ/mol
# Density = 1.740511 g / cm^3
# Si number density = 17.444812 Si / 1000 Ang^3
#
#
#
# Elastic Constant Matrix: (Units=GPa)
#
#
# Indices 1 2 3 4 5 6 
#
# 1 69.0450 7.0721 27.2488 0.0000 0.0000 0.0000
# 2 7.0721 12.7145 6.7830 0.0000 0.0000 0.0000
# 3 27.2488 6.7830 79.9153 0.0000 0.0000 0.0000
# 4 0.0000 0.0000 0.0000 18.1637 0.0000 0.0000
# 5 0.0000 0.0000 0.0000 0.0000 18.4475 0.0000
# 6 0.0000 0.0000 0.0000 0.0000 0.0000 14.3003
#
#
#
# Elastic Compliance Matrix: (Units=1/GPa)
#
#
# Indices 1 2 3 4 5 6 
#
# 1 0.017275 -0.006773 -0.005315 0.000000 0.000000 0.000000
# 2 -0.006773 0.085036 -0.004908 0.000000 0.000000 0.000000
# 3 -0.005315 -0.004908 0.014742 0.000000 0.000000 0.000000
# 4 0.000000 0.000000 0.000000 0.055055 0.000000 0.000000
# 5 0.000000 0.000000 0.000000 0.000000 0.054208 0.000000
# 6 0.000000 0.000000 0.000000 0.000000 0.000000 0.069929
#
#
# Mechanical properties :
#
#
# Convention : Reuss Voigt Hill
#
# Bulk Modulus (GPa) = 12.03946 27.09806 19.56876
# Shear Modulus (GPa) = 13.96941 18.22034 16.09487
#
# Velocity S-wave (km/s) = 2.83287 3.23531 3.04076
# Velocity P-wave (km/s) = 4.19722 5.43357 4.85491
#
# Compressibility (1/GPa) = 0.08306021
#
# Stress axis : x y z
#
# Youngs Moduli (GPa) = 57.88798 11.75966 67.83240
#
# Poissons Ratio (x) = 0.07965 0.36055
# Poissons Ratio (y) = 0.39208 0.33294
# Poissons Ratio (z) = 0.30769 0.05772
#
# Static dielectric constant tensor:
#      x y z
#    x 1.604870 0.000000 0.000000 
#    y 0.000000 1.609710 0.000000 
#    z 0.000000 0.000000 1.620130 
# 
# From -- ./inp_files/65531.got.cif
#   From: 2010.05.17/outbox.cif.g08.bks.cpg/sg71_33_cif.got.tgz:65531.got - 2010.06.03 16:22:01.
