data_PCOD9517074
_publ_section_title
;
Structure prediction by ZEFSAII (Michael W. Deem and Ramdas Pophale) SiO2 
 PCOD9517074
Probable space group: F D D D
;
_chemical_formula_sum "Si O2"
_cell_formula_units_Z 80
_cell_length_a 17.283690
_cell_length_b 7.510711
_cell_length_c 23.484648
_cell_angle_alpha 90.000000
_cell_angle_beta 90.000000
_cell_angle_gamma 90.000000
_cell_volume 3048.607928
_symmetry_space_group_name_H-M "F D D D"
_symmetry_group_IT_number 70
_space_group.IT_coordinate_system_code '2'
_symmetry_cell_setting 'orthorhombic'
loop_
_space_group_symop_operation_xyz
x,y,z
1/4-x,1/4-y,z
x,1/4-y,1/4-z
1/4-x,y,1/4-z
-x,-y,-z
3/4+x,3/4+y,-z
-x,3/4+y,3/4+z
3/4+x,-y,3/4+z
x,1/2+y,1/2+z
1/4-x,3/4-y,1/2+z
x,3/4-y,3/4-z
1/4-x,1/2+y,3/4-z
-x,1/2-y,1/2-z
3/4+x,1/4+y,1/2-z
-x,1/4+y,1/4+z
3/4+x,1/2-y,1/4+z
1/2+x,y,1/2+z
3/4-x,1/4-y,1/2+z
1/2+x,1/4-y,3/4-z
3/4-x,y,3/4-z
1/2-x,-y,1/2-z
1/4+x,3/4+y,1/2-z
1/2-x,3/4+y,1/4+z
1/4+x,-y,1/4+z
1/2+x,1/2+y,z
3/4-x,3/4-y,z
1/2+x,3/4-y,1/4-z
3/4-x,1/2+y,1/4-z
1/2-x,1/2-y,-z
1/4+x,1/4+y,-z
1/2-x,1/4+y,3/4+z
1/4+x,1/2-y,3/4+z
loop_
_atom_site_type_symbol
_atom_site_label
_atom_site_fract_x
_atom_site_fract_y
_atom_site_fract_z
Si Si1 0.360665 0.585031 0.724163
Si Si2 0.973013 0.625000 0.125000
Si Si3 0.037427 0.779683 0.580063
O O1 0.375000 0.375000 0.710447
O O2 0.418992 0.666227 0.678781
O O3 0.279547 0.685116 0.710972
O O4 0.396167 0.595892 0.787017
O O5 0.020194 0.444757 0.121926
O O6 0.050612 0.625000 0.625000
#
# Coordination Sequence:
#
# PCOD9517074 Si02
#       3
#    32  16  32
#     4  12  24  49  80 111 158 217 268 335 411 489
#     4  12  24  48  79 108 161 214 264 330 414 492
#     4  12  27  50  79 116 163 216 272 338 414 494
#
# _framework density 26.241485000000001
#
# number of rings (size 3 to 8) (size 9 to 14) (size 15 to 20)
#    0.000    0.000    6.000    3.600    0.000    0.800 
#    0.000    2.000    0.000    0.000    0.000    0.000 
#    0.000    0.000    0.000    0.000    0.000    0.000 
#
# Total GULP energy -111658.607332 kJ/mol
# GULP energy per Si atom -5582.930367 kJ/mol
# Density = 2.618176 g / cm^3
# Si number density = 26.241485 Si / 1000 Ang^3
#
#
#
# Elastic Constant Matrix: (Units=GPa)
#
#
# Indices 1 2 3 4 5 6 
#
# 1 151.8822 70.7485 108.8030 0.0000 0.0000 0.0000
# 2 70.7485 139.5993 4.7622 0.0000 0.0000 0.0000
# 3 108.8030 4.7622 173.7698 0.0000 0.0000 0.0000
# 4 0.0000 0.0000 0.0000 14.8112 0.0000 0.0000
# 5 0.0000 0.0000 0.0000 0.0000 49.6144 0.0000
# 6 0.0000 0.0000 0.0000 0.0000 0.0000 19.5328
#
#
#
# Elastic Compliance Matrix: (Units=1/GPa)
#
#
# Indices 1 2 3 4 5 6 
#
# 1 0.019674 -0.009559 -0.012056 0.000000 0.000000 0.000000
# 2 -0.009559 0.011815 0.005662 0.000000 0.000000 0.000000
# 3 -0.012056 0.005662 0.013148 0.000000 0.000000 0.000000
# 4 0.000000 0.000000 0.000000 0.067516 0.000000 0.000000
# 5 0.000000 0.000000 0.000000 0.000000 0.020155 0.000000
# 6 0.000000 0.000000 0.000000 0.000000 0.000000 0.051196
#
#
# Mechanical properties :
#
#
# Convention : Reuss Voigt Hill
#
# Bulk Modulus (GPa) = 78.56149 92.65317 85.60733
# Shear Modulus (GPa) = 22.76293 35.52084 29.14188
#
# Velocity S-wave (km/s) = 2.94843 3.68314 3.33607
# Velocity P-wave (km/s) = 6.44933 7.31245 6.89441
#
# Compressibility (1/GPa) = 0.01272888
#
# Stress axis : x y z
#
# Youngs Moduli (GPa) = 50.82977 84.63957 76.05488
#
# Poissons Ratio (x) = 0.80909 0.91694
# Poissons Ratio (y) = 0.48589 -0.43059
# Poissons Ratio (z) = 0.61282 -0.47919
#
# Static dielectric constant tensor:
#      x y z
#    x 2.238680 0.000000 0.000000 
#    y 0.000000 6.226250 0.000000 
#    z 0.000000 0.000000 2.018910 
# 
# From -- ./inp_files/6846.got.cif
#   From: 2010.05.17/outbox.cif.g08.bks.cpg/sg70_4_cif.got.tgz:6846.got - 2010.06.03 15:57:51.
