data_PCOD9517929
_publ_section_title
;
Structure prediction by ZEFSAII (Michael W. Deem and Ramdas Pophale) SiO2 
 PCOD9517929
Probable space group: I M M M
;
_chemical_formula_sum "Si O2"
_cell_formula_units_Z 88
_cell_length_a 17.280209
_cell_length_b 22.646570
_cell_length_c 11.882924
_cell_angle_alpha 90.000000
_cell_angle_beta 90.000000
_cell_angle_gamma 90.000000
_cell_volume 4650.233328
_symmetry_space_group_name_H-M "I M M M"
_symmetry_group_IT_number 71
_symmetry_cell_setting 'orthorhombic'
loop_
_space_group_symop_operation_xyz
x,y,z
-x,-y,z
x,-y,-z
-x,y,-z
-x,-y,-z
x,y,-z
-x,y,z
x,-y,z
1/2+x,1/2+y,1/2+z
1/2-x,1/2-y,1/2+z
1/2+x,1/2-y,1/2-z
1/2-x,1/2+y,1/2-z
1/2-x,1/2-y,1/2-z
1/2+x,1/2+y,1/2-z
1/2-x,1/2+y,1/2+z
1/2+x,1/2-y,1/2+z
loop_
_atom_site_type_symbol
_atom_site_label
_atom_site_fract_x
_atom_site_fract_y
_atom_site_fract_z
Si Si1 0.586950 0.756114 0.767073
Si Si2 0.088409 0.935700 0.755643
Si Si3 0.590134 0.000000 0.863845
Si Si4 0.818278 0.830867 0.868814
Si Si5 0.408820 0.313719 0.000000
Si Si6 0.366292 0.436026 0.000000
Si Si7 0.359362 0.870352 0.132545
O O1 0.500000 0.740163 0.728271
O O2 0.651670 0.730012 0.684784
O O3 0.592227 0.825447 0.791692
O O4 0.599529 0.724899 0.888215
O O5 0.137695 0.882498 0.802404
O O6 0.090433 0.937130 0.619778
O O7 0.000000 0.928917 0.791654
O O8 0.117563 0.000000 0.794645
O O9 0.630956 0.061524 0.830980
O O10 0.500000 0.000000 0.828374
O O11 0.590867 0.000000 0.000000
O O12 0.727770 0.845663 0.859623
O O13 0.838744 0.832606 0.000000
O O14 0.500000 0.334698 0.000000
O O15 0.345257 0.366317 0.000000
O O16 0.321888 0.500000 0.000000
O O17 0.383021 0.866792 0.000000
#
# Coordination Sequence:
#
# PCOD9517929 Si02
#       7
#    16  16   8  16   8   8  16
#     4  11  21  36  59  83 109 145 190 235 284 342
#     4  10  20  33  52  77 107 147 192 237 280 331
#     4   9  18  34  60  90 114 140 181 234 292 345
#     4  11  24  37  52  78 116 158 193 224 275 344
#     4  10  18  29  52  81 102 132 177 232 287 328
#     4  10  18  31  52  80 107 135 184 244 290 323
#     4  10  21  37  57  84 118 149 181 235 295 349
#
# _framework density 18.923781999999999
#
# number of rings (size 3 to 8) (size 9 to 14) (size 15 to 20)
#    0.000    1.727    2.727    2.455    1.273    4.545 
#    0.000    0.909    0.000    0.000    0.000    0.636 
#    0.000    2.182    0.000    0.000    0.000    0.000 
#
# Total GULP energy -245145.418526 kJ/mol
# GULP energy per Si atom -5571.486785 kJ/mol
# Density = 1.888071 g / cm^3
# Si number density = 18.923782 Si / 1000 Ang^3
#
#
#
# Elastic Constant Matrix: (Units=GPa)
#
#
# Indices 1 2 3 4 5 6 
#
# 1 46.1145 24.2305 24.7255 0.0000 0.0000 0.0000
# 2 24.2305 128.7804 23.2392 0.0000 0.0000 0.0000
# 3 24.7255 23.2392 61.6241 0.0000 0.0000 0.0000
# 4 0.0000 0.0000 0.0000 14.0082 0.0000 0.0000
# 5 0.0000 0.0000 0.0000 0.0000 13.3825 0.0000
# 6 0.0000 0.0000 0.0000 0.0000 0.0000 21.1082
#
#
#
# Elastic Compliance Matrix: (Units=1/GPa)
#
#
# Indices 1 2 3 4 5 6 
#
# 1 0.029118 -0.003617 -0.010319 0.000000 0.000000 0.000000
# 2 -0.003617 0.008781 -0.001860 0.000000 0.000000 0.000000
# 3 -0.010319 -0.001860 0.021069 0.000000 0.000000 0.000000
# 4 0.000000 0.000000 0.000000 0.071387 0.000000 0.000000
# 5 0.000000 0.000000 0.000000 0.000000 0.074724 0.000000
# 6 0.000000 0.000000 0.000000 0.000000 0.000000 0.047375
#
#
# Mechanical properties :
#
#
# Convention : Reuss Voigt Hill
#
# Bulk Modulus (GPa) = 36.52770 42.32326 39.42548
# Shear Modulus (GPa) = 17.05474 20.65471 18.85472
#
# Velocity S-wave (km/s) = 3.00531 3.30732 3.15993
# Velocity P-wave (km/s) = 5.60241 6.08261 5.84744
#
# Compressibility (1/GPa) = 0.02737648
#
# Stress axis : x y z
#
# Youngs Moduli (GPa) = 34.34249 113.87761 47.46205
#
# Poissons Ratio (x) = 0.41184 0.48978
# Poissons Ratio (y) = 0.12420 0.08830
# Poissons Ratio (z) = 0.35439 0.21187
#
# Static dielectric constant tensor:
#      x y z
#    x 1.655610 0.000000 0.000000 
#    y 0.000000 1.730340 0.000000 
#    z 0.000000 0.000000 1.631500 
# 
# From -- ./inp_files/24019.got.cif
#   From: 2010.05.17/outbox.cif.g08.bks.cpg/sg71_13_cif.got.tgz:24019.got - 2010.06.03 16:22:01.
