data_PCOD9517377
_publ_section_title
;
Structure prediction by ZEFSAII (Michael W. Deem and Ramdas Pophale) SiO2 
 PCOD9517377
Probable space group: I M M M
;
_chemical_formula_sum "Si O2"
_cell_formula_units_Z 96
_cell_length_a 25.595743
_cell_length_b 12.609288
_cell_length_c 14.510904
_cell_angle_alpha 90.000000
_cell_angle_beta 90.000000
_cell_angle_gamma 90.000000
_cell_volume 4683.308580
_symmetry_space_group_name_H-M "I M M M"
_symmetry_group_IT_number 71
_symmetry_cell_setting 'orthorhombic'
loop_
_space_group_symop_operation_xyz
x,y,z
-x,-y,z
x,-y,-z
-x,y,-z
-x,-y,-z
x,y,-z
-x,y,z
x,-y,z
1/2+x,1/2+y,1/2+z
1/2-x,1/2-y,1/2+z
1/2+x,1/2-y,1/2-z
1/2-x,1/2+y,1/2-z
1/2-x,1/2-y,1/2-z
1/2+x,1/2+y,1/2-z
1/2-x,1/2+y,1/2+z
1/2+x,1/2-y,1/2+z
loop_
_atom_site_type_symbol
_atom_site_label
_atom_site_fract_x
_atom_site_fract_y
_atom_site_fract_z
Si Si1 0.844569 0.269825 0.606261
Si Si2 0.836633 0.500000 0.607885
Si Si3 0.165599 0.782182 0.108451
Si Si4 0.249820 0.879084 0.386876
Si Si5 0.440815 0.379009 0.642486
Si Si6 0.711660 0.500000 0.608967
Si Si7 0.440798 0.380140 0.864145
O O1 0.828559 0.290033 0.500000
O O2 0.853016 0.386266 0.648604
O O3 0.797908 0.196550 0.643788
O O4 0.897296 0.202503 0.606897
O O5 0.854231 0.500000 0.500000
O O6 0.773854 0.500000 0.612352
O O7 0.196656 0.679414 0.142620
O O8 0.103546 0.795392 0.116499
O O9 0.188878 0.891443 0.149298
O O10 0.178144 0.783520 0.000000
O O11 0.247807 0.884836 0.500000
O O12 0.245642 0.000000 0.353290
O O13 0.500000 0.355919 0.611509
O O14 0.427495 0.500000 0.611359
O O15 0.441364 0.381501 0.753195
O O16 0.697284 0.500000 0.500000
O O17 0.500000 0.355721 0.894004
O O18 0.427648 0.500000 0.894244
#
# Coordination Sequence:
#
# PCOD9517377 Si02
#       7
#    16   8  16  16  16   8  16
#     4  10  18  30  51  75  97 123 156 194 233 278
#     4   9  16  28  47  73 103 127 147 181 238 292
#     4  10  17  27  48  74  99 125 157 194 231 279
#     4   9  17  28  45  71 101 129 155 189 234 279
#     4   9  18  32  49  69  95 126 157 195 244 286
#     4   9  14  24  43  71  99 125 151 179 228 286
#     4   9  19  35  51  67  92 127 161 195 239 282
#
# _framework density 20.498328999999998
#
# number of rings (size 3 to 8) (size 9 to 14) (size 15 to 20)
#    0.000    2.667    2.500    1.500    0.000    1.667 
#    0.000    2.917    1.833    2.000    0.000    2.333 
#    0.000    0.000    0.000    0.000    0.000    0.000 
#
# Total GULP energy -267764.962137 kJ/mol
# GULP energy per Si atom -5578.436711 kJ/mol
# Density = 2.045167 g / cm^3
# Si number density = 20.498329 Si / 1000 Ang^3
#
#
#
# Elastic Constant Matrix: (Units=GPa)
#
#
# Indices 1 2 3 4 5 6 
#
# 1 116.6097 97.0870 -10.2321 0.0000 0.0000 0.0000
# 2 97.0870 185.3262 7.6243 0.0000 0.0000 0.0000
# 3 -10.2321 7.6243 53.6881 0.0000 0.0000 0.0000
# 4 0.0000 0.0000 0.0000 11.5228 0.0000 0.0000
# 5 0.0000 0.0000 0.0000 0.0000 24.2646 0.0000
# 6 0.0000 0.0000 0.0000 0.0000 0.0000 26.4821
#
#
#
# Elastic Compliance Matrix: (Units=1/GPa)
#
#
# Indices 1 2 3 4 5 6 
#
# 1 0.016140 -0.008632 0.004302 0.000000 0.000000 0.000000
# 2 -0.008632 0.010045 -0.003072 0.000000 0.000000 0.000000
# 3 0.004302 -0.003072 0.019882 0.000000 0.000000 0.000000
# 4 0.000000 0.000000 0.000000 0.086784 0.000000 0.000000
# 5 0.000000 0.000000 0.000000 0.000000 0.041212 0.000000
# 6 0.000000 0.000000 0.000000 0.000000 0.000000 0.037761
#
#
# Mechanical properties :
#
#
# Convention : Reuss Voigt Hill
#
# Bulk Modulus (GPa) = 31.98684 60.50917 46.24800
# Shear Modulus (GPa) = 21.09258 29.86356 25.47807
#
# Velocity S-wave (km/s) = 3.21127 3.82105 3.52935
# Velocity P-wave (km/s) = 5.42108 7.00360 6.26253
#
# Compressibility (1/GPa) = 0.03126286
#
# Stress axis : x y z
#
# Youngs Moduli (GPa) = 61.95678 99.55667 50.29629
#
# Poissons Ratio (x) = 0.85941 -0.21637
# Poissons Ratio (y) = 0.53484 0.15449
# Poissons Ratio (z) = -0.26654 0.30580
#
# Static dielectric constant tensor:
#      x y z
#    x 1.716600 0.000000 0.000000 
#    y 0.000000 1.743660 0.000000 
#    z 0.000000 0.000000 1.799840 
# 
# From -- ./inp_files/54913.got.cif
#   From: 2010.05.17/outbox.cif.g08.bks.cpg/sg71_28_cif.got.tgz:54913.got - 2010.06.03 16:22:01.
