data_PCOD9517279
_publ_section_title
;
Structure prediction by ZEFSAII (Michael W. Deem and Ramdas Pophale) SiO2 
 PCOD9517279
Probable space group: I M M M
;
_chemical_formula_sum "Si O2"
_cell_formula_units_Z 82
_cell_length_a 11.877150
_cell_length_b 20.821872
_cell_length_c 16.745407
_cell_angle_alpha 90.000000
_cell_angle_beta 90.000000
_cell_angle_gamma 90.000000
_cell_volume 4141.214456
_symmetry_space_group_name_H-M "I M M M"
_symmetry_group_IT_number 71
_symmetry_cell_setting 'orthorhombic'
loop_
_space_group_symop_operation_xyz
x,y,z
-x,-y,z
x,-y,-z
-x,y,-z
-x,-y,-z
x,y,-z
-x,y,z
x,-y,z
1/2+x,1/2+y,1/2+z
1/2-x,1/2-y,1/2+z
1/2+x,1/2-y,1/2-z
1/2-x,1/2+y,1/2-z
1/2-x,1/2-y,1/2-z
1/2+x,1/2+y,1/2-z
1/2-x,1/2+y,1/2+z
1/2+x,1/2-y,1/2+z
loop_
_atom_site_type_symbol
_atom_site_label
_atom_site_fract_x
_atom_site_fract_y
_atom_site_fract_z
Si Si1 0.000000 0.073907 0.209824
Si Si2 0.866461 0.500000 0.128374
Si Si3 0.000000 0.000000 0.500000
Si Si4 0.128524 0.764397 0.093275
Si Si5 0.627895 0.000000 0.176885
Si Si6 0.752571 0.634626 0.871057
Si Si7 0.233340 0.877375 0.821010
Si Si8 0.500000 0.622997 0.886216
O O1 0.112264 0.090335 0.164140
O O2 0.000000 0.113750 0.291170
O O3 0.000000 0.000000 0.233274
O O4 0.863365 0.500000 0.225600
O O5 0.799371 0.435579 0.102590
O O6 0.000000 0.500000 0.105664
O O7 0.000000 0.944239 0.568869
O O8 0.163513 0.690460 0.103086
O O9 0.219982 0.808552 0.138001
O O10 0.000000 0.773613 0.124226
O O11 0.128954 0.780967 0.000000
O O12 0.681636 0.067621 0.150870
O O13 0.500000 0.000000 0.153190
O O14 0.749830 0.632333 0.774148
O O15 0.625807 0.650096 0.902055
#
# Coordination Sequence:
#
# PCOD9517279 Si02
#       8
#     8   8   2  16   8  16  16   8
#     4  10  16  32  59  88 108 137 192 242 285 333
#     4   9  17  32  58  89 114 141 186 237 284 332
#     4  12  20  32  52  80 122 152 178 222 284 342
#     4  11  24  41  58  81 115 154 194 243 292 337
#     4   9  18  32  57  93 115 140 177 233 289 338
#     4  10  21  38  58  85 115 151 195 234 284 344
#     4  10  19  36  62  85 114 147 188 237 286 343
#     4  10  22  32  54  85 114 151 187 227 286 349
#
# _framework density 19.800954000000001
#
# number of rings (size 3 to 8) (size 9 to 14) (size 15 to 20)
#    0.000    1.951    2.439    1.756    4.098    0.780 
#    1.756    0.488    0.000    4.098    0.000    0.000 
#    0.000    0.000    0.000    0.000    0.000    0.000 
#
# Total GULP energy -228243.029395 kJ/mol
# GULP energy per Si atom -5566.903156 kJ/mol
# Density = 1.975589 g / cm^3
# Si number density = 19.800954 Si / 1000 Ang^3
#
#
#
# Elastic Constant Matrix: (Units=GPa)
#
#
# Indices 1 2 3 4 5 6 
#
# 1 109.4249 42.8297 11.9537 0.0000 0.0000 0.0000
# 2 42.8297 99.3338 27.7330 0.0000 0.0000 0.0000
# 3 11.9537 27.7330 30.7483 -0.0001 0.0000 0.0000
# 4 0.0000 0.0000 -0.0001 16.0303 0.0000 0.0000
# 5 0.0000 0.0000 0.0000 0.0000 3.7697 0.0000
# 6 0.0000 0.0000 0.0000 0.0000 0.0000 8.0017
#
#
#
# Elastic Compliance Matrix: (Units=1/GPa)
#
#
# Indices 1 2 3 4 5 6 
#
# 1 0.010994 -0.004741 0.000002 0.000000 0.000000 0.000000
# 2 -0.004741 0.015500 -0.012137 0.000000 0.000000 0.000000
# 3 0.000002 -0.012137 0.043468 0.000000 0.000001 0.000000
# 4 0.000000 0.000000 0.000000 0.062382 0.000000 0.000000
# 5 0.000000 0.000000 0.000001 0.000000 0.265274 0.000000
# 6 0.000000 0.000000 0.000000 0.000000 0.000000 0.124974
#
#
# Mechanical properties :
#
#
# Convention : Reuss Voigt Hill
#
# Bulk Modulus (GPa) = 27.61642 44.94889 36.28265
# Shear Modulus (GPa) = 8.79644 16.02638 12.41141
#
# Velocity S-wave (km/s) = 2.10999 2.84804 2.50633
# Velocity P-wave (km/s) = 4.46244 5.79351 5.17098
#
# Compressibility (1/GPa) = 0.03621034
#
# Stress axis : x y z
#
# Youngs Moduli (GPa) = 90.95808 64.51791 23.00555
#
# Poissons Ratio (x) = 0.30587 -0.00004
# Poissons Ratio (y) = 0.43122 0.27921
# Poissons Ratio (z) = -0.00017 0.78303
#
# Static dielectric constant tensor:
#      x y z
#    x 1.710180 0.000000 0.000000 
#    y 0.000000 1.696250 0.000000 
#    z 0.000000 0.000000 1.704910 
# 
# From -- ./inp_files/43337.got.cif
#   From: 2010.05.17/outbox.cif.g08.bks.cpg/sg71_22_cif.got.tgz:43337.got - 2010.06.03 16:22:01.
