data_PCOD9517997
_publ_section_title
;
Structure prediction by ZEFSAII (Michael W. Deem and Ramdas Pophale) SiO2 
 PCOD9517997
Probable space group: I M M M
;
_chemical_formula_sum "Si O2"
_cell_formula_units_Z 64
_cell_length_a 8.656147
_cell_length_b 14.918584
_cell_length_c 28.453771
_cell_angle_alpha 90.000000
_cell_angle_beta 90.000000
_cell_angle_gamma 90.000000
_cell_volume 3674.447604
_symmetry_space_group_name_H-M "I M M M"
_symmetry_group_IT_number 71
_symmetry_cell_setting 'orthorhombic'
loop_
_space_group_symop_operation_xyz
x,y,z
-x,-y,z
x,-y,-z
-x,y,-z
-x,-y,-z
x,y,-z
-x,y,z
x,-y,z
1/2+x,1/2+y,1/2+z
1/2-x,1/2-y,1/2+z
1/2+x,1/2-y,1/2-z
1/2-x,1/2+y,1/2-z
1/2-x,1/2-y,1/2-z
1/2+x,1/2+y,1/2-z
1/2-x,1/2+y,1/2+z
1/2+x,1/2-y,1/2+z
loop_
_atom_site_type_symbol
_atom_site_label
_atom_site_fract_x
_atom_site_fract_y
_atom_site_fract_z
Si Si1 0.685678 0.104082 0.445274
Si Si2 0.815336 0.345999 0.766134
Si Si3 0.184856 0.097562 0.828777
Si Si4 0.683223 0.711623 0.859990
O O1 0.722394 0.121469 0.500000
O O2 0.500000 0.112386 0.439886
O O3 0.768180 0.170854 0.409716
O O4 0.726099 0.000000 0.435275
O O5 0.750000 0.250000 0.750000
O O6 0.745771 0.405550 0.724844
O O7 0.757220 0.351899 0.819461
O O8 0.000000 0.349102 0.765022
O O9 0.255764 0.186511 0.852481
O O10 0.000000 0.108410 0.828140
O O11 0.221857 0.000000 0.850669
O O12 0.500000 0.712299 0.853730
#
# Coordination Sequence:
#
# PCOD9517997 Si02
#       4
#    16  16  16  16
#     4   9  19  37  59  80 102 130 166 209 257 308
#     4  10  18  30  48  69  98 133 170 210 249 293
#     4  10  20  34  52  74 103 139 178 217 255 299
#     4  11  21  33  52  77 107 139 171 210 255 306
#
# _framework density 17.417584999999999
#
# number of rings (size 3 to 8) (size 9 to 14) (size 15 to 20)
#    0.000    2.000    0.000    9.000    0.000    4.000 
#    0.000    1.250    0.000    0.750    0.000    5.250 
#    0.000    0.000    0.000    0.000    0.000    0.000 
#
# Total GULP energy -178391.155179 kJ/mol
# GULP energy per Si atom -5574.723599 kJ/mol
# Density = 1.737794 g / cm^3
# Si number density = 17.417585 Si / 1000 Ang^3
#
#
#
# Elastic Constant Matrix: (Units=GPa)
#
#
# Indices 1 2 3 4 5 6 
#
# 1 96.0555 40.0423 38.9384 0.0000 0.0000 0.0000
# 2 40.0423 105.6781 55.3421 0.0000 0.0000 0.0000
# 3 38.9384 55.3421 85.5914 0.0000 0.0000 0.0000
# 4 0.0000 0.0000 0.0000 24.8341 0.0000 0.0000
# 5 0.0000 0.0000 0.0000 0.0000 29.5592 0.0000
# 6 0.0000 0.0000 0.0000 0.0000 0.0000 13.7403
#
#
#
# Elastic Compliance Matrix: (Units=1/GPa)
#
#
# Indices 1 2 3 4 5 6 
#
# 1 0.013301 -0.002829 -0.004222 0.000000 0.000000 0.000000
# 2 -0.002829 0.014909 -0.008353 0.000000 0.000000 0.000000
# 3 -0.004222 -0.008353 0.019005 0.000000 0.000000 0.000000
# 4 0.000000 0.000000 0.000000 0.040267 0.000000 0.000000
# 5 0.000000 0.000000 0.000000 0.000000 0.033830 0.000000
# 6 0.000000 0.000000 0.000000 0.000000 0.000000 0.072779
#
#
# Mechanical properties :
#
#
# Convention : Reuss Voigt Hill
#
# Bulk Modulus (GPa) = 60.94776 61.77450 61.36113
# Shear Modulus (GPa) = 21.70434 23.82688 22.76561
#
# Velocity S-wave (km/s) = 3.53387 3.70263 3.61923
# Velocity P-wave (km/s) = 7.19159 7.33642 7.26437
#
# Compressibility (1/GPa) = 0.01640749
#
# Stress axis : x y z
#
# Youngs Moduli (GPa) = 75.17950 67.07407 52.61758
#
# Poissons Ratio (x) = 0.18975 0.22216
# Poissons Ratio (y) = 0.21268 0.43951
# Poissons Ratio (z) = 0.31742 0.56026
#
# Static dielectric constant tensor:
#      x y z
#    x 1.580770 0.000000 0.000000 
#    y 0.000000 1.609020 0.000000 
#    z 0.000000 0.000000 1.602370 
# 
# From -- ./inp_files/12115.got.cif
#   From: 2010.05.17/outbox.cif.g08.bks.cpg/sg71_7_cif.got.tgz:12115.got - 2010.06.03 16:22:01.
