data_PCOD9517718
_publ_section_title
;
Structure prediction by ZEFSAII (Michael W. Deem and Ramdas Pophale) SiO2 
 PCOD9517718
Probable space group: I M M M
;
_chemical_formula_sum "Si O2"
_cell_formula_units_Z 96
_cell_length_a 24.021355
_cell_length_b 7.516895
_cell_length_c 27.936991
_cell_angle_alpha 90.000000
_cell_angle_beta 90.000000
_cell_angle_gamma 90.000000
_cell_volume 5044.470809
_symmetry_space_group_name_H-M "I M M M"
_symmetry_group_IT_number 71
_symmetry_cell_setting 'orthorhombic'
loop_
_space_group_symop_operation_xyz
x,y,z
-x,-y,z
x,-y,-z
-x,y,-z
-x,-y,-z
x,y,-z
-x,y,z
x,-y,z
1/2+x,1/2+y,1/2+z
1/2-x,1/2-y,1/2+z
1/2+x,1/2-y,1/2-z
1/2-x,1/2+y,1/2-z
1/2-x,1/2-y,1/2-z
1/2+x,1/2+y,1/2-z
1/2-x,1/2+y,1/2+z
1/2+x,1/2-y,1/2+z
loop_
_atom_site_type_symbol
_atom_site_label
_atom_site_fract_x
_atom_site_fract_y
_atom_site_fract_z
Si Si1 0.868180 0.712751 0.890182
Si Si2 0.434098 0.500000 0.445688
Si Si3 0.744746 0.787170 0.554712
Si Si4 0.934537 0.282485 0.500000
Si Si5 0.185935 0.714355 0.796274
Si Si6 0.364165 0.797636 0.908457
Si Si7 0.814668 0.711829 0.310972
O O1 0.876903 0.500000 0.894186
O O2 0.808659 0.756572 0.914087
O O3 0.860161 0.764492 0.834899
O O4 0.912969 0.827037 0.917775
O O5 0.500000 0.500000 0.447462
O O6 0.411948 0.500000 0.500000
O O7 0.732419 0.743985 0.500000
O O8 0.801994 0.698882 0.570065
O O9 0.753742 0.000000 0.558828
O O10 0.930256 0.500000 0.500000
O O11 0.903209 0.221128 0.451002
O O12 0.000000 0.236245 0.500000
O O13 0.186817 0.500000 0.794099
O O14 0.174646 0.782236 0.742716
O O15 0.247736 0.763993 0.815054
O O16 0.351240 0.716670 0.855531
O O17 0.384463 0.000000 0.900894
O O18 0.824339 0.500000 0.310923
#
# Coordination Sequence:
#
# PCOD9517718 Si02
#       7
#    16   8  16   8  16  16  16
#     4  10  21  37  58  83 114 150 186 230 280 338
#     4  11  26  44  62  86 112 148 192 235 283 337
#     4  10  19  29  44  71 106 136 167 215 276 330
#     4   9  18  32  47  67  97 137 183 224 273 324
#     4   9  17  29  46  73 110 145 174 211 273 342
#     4  10  18  28  46  71  98 133 176 227 272 322
#     4   9  17  27  43  72 110 141 174 219 274 336
#
# _framework density 19.030737999999999
#
# number of rings (size 3 to 8) (size 9 to 14) (size 15 to 20)
#    0.000    2.333    2.500    0.500    2.333    1.333 
#    0.000    0.833    0.000    2.000    0.000    4.667 
#    0.000    0.000    0.000    0.000    0.000    0.000 
#
# Total GULP energy -267541.582481 kJ/mol
# GULP energy per Si atom -5573.782968 kJ/mol
# Density = 1.898742 g / cm^3
# Si number density = 19.030738 Si / 1000 Ang^3
#
#
#
# Elastic Constant Matrix: (Units=GPa)
#
#
# Indices 1 2 3 4 5 6 
#
# 1 77.8719 20.2720 59.5368 0.0000 0.0000 0.0000
# 2 20.2720 50.2580 29.0262 0.0000 0.0000 0.0000
# 3 59.5368 29.0262 170.0717 0.0000 0.0000 0.0000
# 4 0.0000 0.0000 0.0000 10.1480 0.0000 0.0000
# 5 0.0000 0.0000 0.0000 0.0000 12.6979 0.0000
# 6 0.0000 0.0000 0.0000 0.0000 0.0000 -37.5855
#
#
#
# Elastic Compliance Matrix: (Units=1/GPa)
#
#
# Indices 1 2 3 4 5 6 
#
# 1 0.018257 -0.004075 -0.005696 0.000000 0.000000 0.000000
# 2 -0.004075 0.022982 -0.002496 0.000000 0.000000 0.000000
# 3 -0.005696 -0.002496 0.008300 0.000000 0.000000 0.000000
# 4 0.000000 0.000000 0.000000 0.098541 0.000000 0.000000
# 5 0.000000 0.000000 0.000000 0.000000 0.078753 0.000000
# 6 0.000000 0.000000 0.000000 0.000000 0.000000 -0.026606
#
#
# Mechanical properties :
#
#
# Convention : Reuss Voigt Hill
#
# Bulk Modulus (GPa) = 39.98968 57.31907 48.65438
# Shear Modulus (GPa) = 21.45038 9.67651 15.56345
#
# Velocity S-wave (km/s) = 3.36094 2.25737 2.86283
# Velocity P-wave (km/s) = 6.00999 6.08103 6.04561
#
# Compressibility (1/GPa) = 0.02500645
#
# Stress axis : x y z
#
# Youngs Moduli (GPa) = 54.77345 43.51150 120.48475
#
# Poissons Ratio (x) = 0.17729 0.68626
# Poissons Ratio (y) = 0.22318 0.30074
# Poissons Ratio (z) = 0.31198 0.10861
#
# Static dielectric constant tensor:
#      x y z
#    x 1.603140 0.000000 0.000000 
#    y 0.000000 1.711400 0.000000 
#    z 0.000000 0.000000 1.740290 
# 
# From -- ./inp_files/66743.got.cif
#   From: 2010.05.17/outbox.cif.g08.bks.cpg/sg71_34_cif.got.tgz:66743.got - 2010.06.03 16:22:01.
