data_PCOD9517169
_publ_section_title
;
Structure prediction by ZEFSAII (Michael W. Deem and Ramdas Pophale) SiO2 
 PCOD9517169
Probable space group: F D D D
;
_chemical_formula_sum "Si O2"
_cell_formula_units_Z 52
_cell_length_a 18.000000
_cell_length_b 21.000000
_cell_length_c 27.000000
_cell_angle_alpha 90.000000
_cell_angle_beta 90.000000
_cell_angle_gamma 90.000000
_cell_volume 10206.000000
_symmetry_space_group_name_H-M "F D D D"
_symmetry_group_IT_number 70
_space_group.IT_coordinate_system_code '2'
_symmetry_cell_setting 'orthorhombic'
loop_
_space_group_symop_operation_xyz
x,y,z
1/4-x,1/4-y,z
x,1/4-y,1/4-z
1/4-x,y,1/4-z
-x,-y,-z
3/4+x,3/4+y,-z
-x,3/4+y,3/4+z
3/4+x,-y,3/4+z
x,1/2+y,1/2+z
1/4-x,3/4-y,1/2+z
x,3/4-y,3/4-z
1/4-x,1/2+y,3/4-z
-x,1/2-y,1/2-z
3/4+x,1/4+y,1/2-z
-x,1/4+y,1/4+z
3/4+x,1/2-y,1/4+z
1/2+x,y,1/2+z
3/4-x,1/4-y,1/2+z
1/2+x,1/4-y,3/4-z
3/4-x,y,3/4-z
1/2-x,-y,1/2-z
1/4+x,3/4+y,1/2-z
1/2-x,3/4+y,1/4+z
1/4+x,-y,1/4+z
1/2+x,1/2+y,z
3/4-x,3/4-y,z
1/2+x,3/4-y,1/4-z
3/4-x,1/2+y,1/4-z
1/2-x,1/2-y,-z
1/4+x,1/4+y,-z
1/2-x,1/4+y,3/4+z
1/4+x,1/2-y,3/4+z
loop_
_atom_site_type_symbol
_atom_site_label
_atom_site_fract_x
_atom_site_fract_y
_atom_site_fract_z
Si Si1 0.448365 0.911584 0.781786
Si Si2 0.875000 0.277840 0.875000
Si Si3 0.517978 0.283690 0.963080
Si Si4 0.460821 0.888557 0.197893
Si Si5 0.213546 0.935798 0.117471
Si Si6 0.996732 0.950852 0.600343
Si Si7 0.920794 0.168740 0.674907
O O1 0.375000 0.875000 0.762436
O O2 0.425822 0.932220 0.838048
O O3 0.518331 0.864444 0.789285
O O4 0.463989 0.973436 0.748799
O O5 0.826163 0.232257 0.909413
O O6 0.483569 0.249163 0.913790
O O7 0.589773 0.324443 0.947891
O O8 0.472637 0.333765 0.997339
O O9 0.375000 0.875000 0.190160
O O10 0.247253 0.922679 0.172891
O O11 0.485491 0.943848 0.159547
O O12 0.125000 0.929706 0.125000
O O13 0.248195 0.874188 0.087242
O O14 0.941987 0.006286 0.582999
O O15 0.919057 0.125000 0.625000
#
# Coordination Sequence:
#
# PCOD9517169 Si02
#       7
#    32  16  32  32  32  32  32
#     4  12  24  36  64 101 140 179 225 276 351 438
#     4  12  17  40  62  96 136 180 211 268 352 424
#     4  12  28  42  67 104 130 184 249 289 356 442
#     4  10  22  45  70  96 134 181 233 294 359 419
#     4  10  24  45  72  99 142 187 233 300 369 420
#     4  10  20  38  70  92 133 185 218 272 364 415
#     4  12  24  42  64  94 140 181 227 286 352 431
#
# _framework density 5.0950420000000003
#
# number of rings (size 3 to 8) (size 9 to 14) (size 15 to 20)
#    0.923    0.000    5.385    1.154    4.308    0.615 
#    2.769    0.769    0.000    0.000    0.000    0.000 
#    0.000    0.000    0.000    0.000    0.000    0.000 
#
# Total GULP energy -289599.865230 kJ/mol
# GULP energy per Si atom -5569.228178 kJ/mol
# Density = 0.508345 g / cm^3
# Si number density = 5.095042 Si / 1000 Ang^3
#
#
#
# Elastic Constant Matrix: (Units=GPa)
#
#
# Indices 1 2 3 4 5 6 
#
# 1 102.9553 28.8699 25.2499 0.0000 0.0000 0.0000
# 2 28.8699 54.5635 27.2114 0.0000 0.0000 0.0000
# 3 25.2499 27.2114 56.2948 0.0000 0.0000 0.0000
# 4 0.0000 0.0000 0.0000 16.4486 0.0000 0.0000
# 5 0.0000 0.0000 0.0000 0.0000 19.6050 0.0000
# 6 0.0000 0.0000 0.0000 0.0000 0.0000 27.6906
#
#
#
# Elastic Compliance Matrix: (Units=1/GPa)
#
#
# Indices 1 2 3 4 5 6 
#
# 1 0.011775 -0.004739 -0.002991 0.000000 0.000000 0.000000
# 2 -0.004739 0.026056 -0.010469 0.000000 0.000000 0.000000
# 3 -0.002991 -0.010469 0.024166 0.000000 0.000000 0.000000
# 4 0.000000 0.000000 0.000000 0.060795 0.000000 0.000000
# 5 0.000000 0.000000 0.000000 0.000000 0.051007 0.000000
# 6 0.000000 0.000000 0.000000 0.000000 0.000000 0.036113
#
#
# Mechanical properties :
#
#
# Convention : Reuss Voigt Hill
#
# Bulk Modulus (GPa) = 39.06419 41.83066 40.44743
# Shear Modulus (GPa) = 19.61988 21.58099 20.60043
#
# Velocity S-wave (km/s) = 3.10610 3.25764 3.18277
# Velocity P-wave (km/s) = 5.66332 5.89231 5.77895
#
# Compressibility (1/GPa) = 0.02559889
#
# Stress axis : x y z
#
# Youngs Moduli (GPa) = 84.92348 38.37945 41.38102
#
# Poissons Ratio (x) = 0.18187 0.12377
# Poissons Ratio (y) = 0.40243 0.43322
# Poissons Ratio (z) = 0.25401 0.40180
#
# Static dielectric constant tensor:
#      x y z
#    x 1.746840 0.000000 0.000000 
#    y 0.000000 1.727920 0.000000 
#    z 0.000000 0.000000 1.763460 
# 
# From -- ./inp_files/59617.got.cif
#   From: 2010.05.17/outbox.ucp.g08.bks.cvg/sg70_30_cif.got.tgz:59617.got - 2010.06.11 16:26:41.
