data_PCOD9517871
_publ_section_title
;
Structure prediction by ZEFSAII (Michael W. Deem and Ramdas Pophale) SiO2 
 PCOD9517871
Probable space group: I M M M
;
_chemical_formula_sum "Si O2"
_cell_formula_units_Z 104
_cell_length_a 21.480034
_cell_length_b 7.385231
_cell_length_c 31.127187
_cell_angle_alpha 90.000000
_cell_angle_beta 90.000000
_cell_angle_gamma 90.000000
_cell_volume 4937.861714
_symmetry_space_group_name_H-M "I M M M"
_symmetry_group_IT_number 71
_symmetry_cell_setting 'orthorhombic'
loop_
_space_group_symop_operation_xyz
x,y,z
-x,-y,z
x,-y,-z
-x,y,-z
-x,-y,-z
x,y,-z
-x,y,z
x,-y,z
1/2+x,1/2+y,1/2+z
1/2-x,1/2-y,1/2+z
1/2+x,1/2-y,1/2-z
1/2-x,1/2+y,1/2-z
1/2-x,1/2-y,1/2-z
1/2+x,1/2+y,1/2-z
1/2-x,1/2+y,1/2+z
1/2+x,1/2-y,1/2+z
loop_
_atom_site_type_symbol
_atom_site_label
_atom_site_fract_x
_atom_site_fract_y
_atom_site_fract_z
Si Si1 0.685029 0.716954 0.775135
Si Si2 0.430149 0.287067 0.719879
Si Si3 0.000000 0.793817 0.551986
Si Si4 0.218894 0.778947 0.368890
Si Si5 0.138396 0.281272 0.131940
Si Si6 0.637848 0.278214 0.950302
Si Si7 0.427955 0.220499 0.453243
O O1 0.679746 0.500000 0.776617
O O2 0.750000 0.750000 0.750000
O O3 0.625339 0.789117 0.749380
O O4 0.687105 0.780155 0.824415
O O5 0.500000 0.211427 0.724202
O O6 0.434465 0.500000 0.729963
O O7 0.405030 0.272334 0.671393
O O8 0.067829 0.716012 0.562419
O O9 0.000000 0.801639 0.500000
O O10 0.000000 0.000000 0.568841
O O11 0.290502 0.720983 0.364540
O O12 0.185925 0.722246 0.413243
O O13 0.218237 0.000000 0.369595
O O14 0.139073 0.500000 0.131653
O O15 0.110590 0.216373 0.087107
O O16 0.636483 0.500000 0.950912
O O17 0.651140 0.224012 0.000000
O O18 0.404406 0.277691 0.500000
O O19 0.500000 0.273663 0.449323
O O20 0.426936 0.000000 0.452769
#
# Coordination Sequence:
#
# PCOD9517871 Si02
#       7
#    16  16   8  16  16  16  16
#     4  10  19  34  52  69  95 126 158 194 234 281
#     4  10  21  35  50  69  94 125 160 197 238 283
#     4   7  10  18  32  50  78 120 159 181 211 269
#     4   9  17  27  41  64  89 115 151 190 226 272
#     4  10  18  29  48  71  93 120 157 195 233 280
#     4   8  13  22  36  57  88 122 153 187 228 274
#     4   8  14  24  38  60  90 118 144 180 227 273
#
# _framework density 21.061747
#
# number of rings (size 3 to 8) (size 9 to 14) (size 15 to 20)
#    0.000    3.000    1.538    1.846    0.000    1.538 
#    1.385    3.077    0.000    0.462    0.000    2.154 
#    0.000    0.615    0.000    0.000    0.000   17.308 
#
# Total GULP energy -290014.934110 kJ/mol
# GULP energy per Si atom -5577.210271 kJ/mol
# Density = 2.101381 g / cm^3
# Si number density = 21.061747 Si / 1000 Ang^3
#
#
#
# Elastic Constant Matrix: (Units=GPa)
#
#
# Indices 1 2 3 4 5 6 
#
# 1 167.9774 6.2093 98.7382 0.0000 0.0000 0.0000
# 2 6.2093 73.9143 2.0298 0.0000 0.0000 0.0000
# 3 98.7382 2.0298 171.0048 0.0000 0.0000 0.0000
# 4 0.0000 0.0000 0.0000 4.2532 0.0000 0.0000
# 5 0.0000 0.0000 0.0000 0.0000 -74.5353 0.0000
# 6 0.0000 0.0000 0.0000 0.0000 0.0000 0.0683
#
#
#
# Elastic Compliance Matrix: (Units=1/GPa)
#
#
# Indices 1 2 3 4 5 6 
#
# 1 0.009040 -0.000616 -0.005212 0.000000 0.000000 0.000000
# 2 -0.000616 0.013576 0.000195 0.000000 0.000000 0.000000
# 3 -0.005212 0.000195 0.008855 0.000000 0.000000 0.000000
# 4 0.000000 0.000000 0.000000 0.235119 0.000000 0.000000
# 5 0.000000 0.000000 0.000000 0.000000 -0.013416 0.000000
# 6 0.000000 0.000000 0.000000 0.000000 0.000000 14.640966
#
#
# Mechanical properties :
#
#
# Convention : Reuss Voigt Hill
#
# Bulk Modulus (GPa) = 49.49820 69.65013 59.57417
# Shear Modulus (GPa) = 0.33530 6.35184 3.34357
#
# Velocity S-wave (km/s) = 0.39943 1.73850 1.26133
# Velocity P-wave (km/s) = 4.87496 6.09681 5.51980
#
# Compressibility (1/GPa) = 0.02020275
#
# Stress axis : x y z
#
# Youngs Moduli (GPa) = 110.62251 73.66155 112.93018
#
# Poissons Ratio (x) = 0.04540 0.58862
# Poissons Ratio (y) = 0.06817 -0.02199
# Poissons Ratio (z) = 0.57659 -0.01434
#
# Static dielectric constant tensor:
#      x y z
#    x 1.746740 0.000000 0.000000 
#    y 0.000000 1.893320 0.000000 
#    z 0.000000 0.000000 1.727960 
# 
# From -- ./inp_files/70496.got.cif
#   From: 2010.05.17/outbox.cif.g08.bks.cpg/sg71_36_cif.got.tgz:70496.got - 2010.06.03 16:22:01.
