data_PCOD9517633
_publ_section_title
;
Structure prediction by ZEFSAII (Michael W. Deem and Ramdas Pophale) SiO2 
 PCOD9517633
Probable space group: I M M M
;
_chemical_formula_sum "Si O2"
_cell_formula_units_Z 96
_cell_length_a 20.808800
_cell_length_b 30.794028
_cell_length_c 7.338442
_cell_angle_alpha 90.000000
_cell_angle_beta 90.000000
_cell_angle_gamma 90.000000
_cell_volume 4702.376545
_symmetry_space_group_name_H-M "I M M M"
_symmetry_group_IT_number 71
_symmetry_cell_setting 'orthorhombic'
loop_
_space_group_symop_operation_xyz
x,y,z
-x,-y,z
x,-y,-z
-x,y,-z
-x,-y,-z
x,y,-z
-x,y,z
x,-y,z
1/2+x,1/2+y,1/2+z
1/2-x,1/2-y,1/2+z
1/2+x,1/2-y,1/2-z
1/2-x,1/2+y,1/2-z
1/2-x,1/2-y,1/2-z
1/2+x,1/2+y,1/2-z
1/2-x,1/2+y,1/2+z
1/2+x,1/2-y,1/2+z
loop_
_atom_site_type_symbol
_atom_site_label
_atom_site_fract_x
_atom_site_fract_y
_atom_site_fract_z
Si Si1 0.928902 0.269096 0.285993
Si Si2 0.202748 0.126797 0.222743
Si Si3 0.290790 0.793678 0.782131
Si Si4 0.431035 0.947769 0.781475
Si Si5 0.709305 0.049995 0.777448
Si Si6 0.570932 0.666509 0.280038
O O1 0.931319 0.280118 0.500000
O O2 0.863517 0.289637 0.210028
O O3 0.920417 0.216979 0.271609
O O4 0.000000 0.279551 0.209911
O O5 0.249904 0.165468 0.283092
O O6 0.233805 0.081506 0.279982
O O7 0.130902 0.138157 0.283279
O O8 0.202002 0.127090 0.000000
O O9 0.250000 0.750000 0.750000
O O10 0.296120 0.798248 0.000000
O O11 0.500000 0.931061 0.711655
O O12 0.361123 0.932676 0.717429
O O13 0.430660 0.000000 0.752030
O O14 0.431892 0.941209 0.000000
O O15 0.716742 0.000000 0.720620
O O16 0.707937 0.049801 0.000000
O O17 0.571030 0.665476 0.500000
O O18 0.500000 0.652766 0.217671
#
# Coordination Sequence:
#
# PCOD9517633 Si02
#       6
#    16  16  16  16  16  16
#     4   9  17  28  41  58  82 110 137 167 204 244
#     4   9  16  25  37  55  77 102 135 170 201 239
#     4  10  18  28  42  60  84 110 135 167 203 242
#     4   7   9  14  25  41  61  87 122 159 188 221
#     4   8  13  21  33  49  71 100 131 164 203 241
#     4   9  16  26  41  59  79 105 136 168 201 240
#
# _framework density 20.415209000000001
#
# number of rings (size 3 to 8) (size 9 to 14) (size 15 to 20)
#    0.000    3.333    1.667    1.500    0.000    0.000 
#    0.000    0.833    0.000    5.500    0.000    3.500 
#    0.000    2.667    0.000    4.167    0.000    4.333 
#
# Total GULP energy -267540.984488 kJ/mol
# GULP energy per Si atom -5573.770510 kJ/mol
# Density = 2.036874 g / cm^3
# Si number density = 20.415209 Si / 1000 Ang^3
#
#
#
# Elastic Constant Matrix: (Units=GPa)
#
#
# Indices 1 2 3 4 5 6 
#
# 1 223.9769 67.7012 9.5444 0.0000 0.0000 0.0000
# 2 67.7012 64.5271 -2.1058 0.0000 0.0000 0.0000
# 3 9.5444 -2.1058 78.0331 -0.0001 0.0000 0.0000
# 4 0.0000 0.0000 -0.0001 73.5194 -0.0001 0.0000
# 5 0.0000 0.0000 0.0000 -0.0001 -6.8254 0.0000
# 6 0.0000 0.0000 0.0000 0.0000 0.0000 26.0400
#
#
#
# Elastic Compliance Matrix: (Units=1/GPa)
#
#
# Indices 1 2 3 4 5 6 
#
# 1 0.006615 -0.006973 -0.000997 0.000000 0.000000 0.000000
# 2 -0.006973 0.022861 0.001470 0.000000 0.000000 0.000000
# 3 -0.000997 0.001470 0.012977 0.000000 0.000000 0.000000
# 4 0.000000 0.000000 0.000000 0.013602 0.000000 0.000000
# 5 0.000000 0.000000 0.000000 0.000000 -0.146511 0.000000
# 6 0.000000 0.000000 0.000000 0.000000 0.000000 0.038402
#
#
# Mechanical properties :
#
#
# Convention : Reuss Voigt Hill
#
# Bulk Modulus (GPa) = 33.95336 57.42411 45.68873
# Shear Modulus (GPa) = -171.02496 37.97327 -66.52584
#
# Velocity S-wave (km/s) = -9.16271 4.31751 -5.71464
# Velocity P-wave (km/s) = 9.76077 7.28311 4.59506
#
# Compressibility (1/GPa) = 0.02945217
#
# Stress axis : x y z
#
# Youngs Moduli (GPa) = 151.17355 43.74230 77.06113
#
# Poissons Ratio (x) = 0.30501 0.07685
# Poissons Ratio (y) = 1.05411 -0.11326
# Poissons Ratio (z) = 0.15076 -0.06429
#
# Static dielectric constant tensor:
#      x y z
#    x 1.766590 0.000000 0.000000 
#    y 0.000000 1.684870 0.000000 
#    z 0.000000 0.000000 1.716080 
# 
# From -- ./inp_files/10882.got.cif
#   From: 2010.05.17/outbox.cif.g08.bks.cpg/sg71_6_cif.got.tgz:10882.got - 2010.06.03 16:22:01.
