data_PCOD9517364
_publ_section_title
;
Structure prediction by ZEFSAII (Michael W. Deem and Ramdas Pophale) SiO2 
 PCOD9517364
Probable space group: I M M M
;
_chemical_formula_sum "Si O2"
_cell_formula_units_Z 80
_cell_length_a 26.461699
_cell_length_b 7.665577
_cell_length_c 21.044872
_cell_angle_alpha 90.000000
_cell_angle_beta 90.000000
_cell_angle_gamma 90.000000
_cell_volume 4268.830040
_symmetry_space_group_name_H-M "I M M M"
_symmetry_group_IT_number 71
_symmetry_cell_setting 'orthorhombic'
loop_
_space_group_symop_operation_xyz
x,y,z
-x,-y,z
x,-y,-z
-x,y,-z
-x,-y,-z
x,y,-z
-x,y,z
x,-y,z
1/2+x,1/2+y,1/2+z
1/2-x,1/2-y,1/2+z
1/2+x,1/2-y,1/2-z
1/2-x,1/2+y,1/2-z
1/2-x,1/2-y,1/2-z
1/2+x,1/2+y,1/2-z
1/2-x,1/2+y,1/2+z
1/2+x,1/2-y,1/2+z
loop_
_atom_site_type_symbol
_atom_site_label
_atom_site_fract_x
_atom_site_fract_y
_atom_site_fract_z
Si Si1 0.391424 0.296679 0.724913
Si Si2 0.109198 0.294236 0.372320
Si Si3 0.284987 0.213408 0.929104
Si Si4 0.000000 0.792440 0.619261
Si Si5 0.500000 0.714277 0.267367
Si Si6 0.282878 0.289692 0.687742
O O1 0.391970 0.500000 0.706884
O O2 0.389769 0.288488 0.801930
O O3 0.446374 0.224211 0.705466
O O4 0.339677 0.219928 0.697687
O O5 0.114847 0.500000 0.361831
O O6 0.157892 0.233028 0.411164
O O7 0.054791 0.265388 0.405327
O O8 0.246706 0.273289 0.874460
O O9 0.284474 0.000000 0.928684
O O10 0.271783 0.270355 0.000000
O O11 0.000000 0.732678 0.693114
O O12 0.000000 0.000000 0.617883
O O13 0.500000 0.500000 0.268100
O O14 0.285835 0.500000 0.683448
O O15 0.250000 0.250000 0.750000
#
# Coordination Sequence:
#
# PCOD9517364 Si02
#       6
#    16  16  16   8   8  16
#     4   9  16  26  43  65  91 119 147 183 233 281
#     4  10  17  27  45  66  87 116 155 194 230 270
#     4   9  18  31  45  64  92 123 156 195 237 281
#     4   9  17  29  44  62  89 121 151 189 231 271
#     4   7  12  23  37  58  85 111 136 168 213 266
#     4  10  18  29  47  69  90 118 155 194 236 278
#
# _framework density 18.740500000000001
#
# number of rings (size 3 to 8) (size 9 to 14) (size 15 to 20)
#    0.000    2.800    2.000    2.100    0.000    0.000 
#    0.000    0.500    0.000    8.400    0.000    0.700 
#    0.000    5.600    0.000    0.000    0.000   16.200 
#
# Total GULP energy -222864.653159 kJ/mol
# GULP energy per Si atom -5571.616329 kJ/mol
# Density = 1.869785 g / cm^3
# Si number density = 18.740500 Si / 1000 Ang^3
#
#
#
# Elastic Constant Matrix: (Units=GPa)
#
#
# Indices 1 2 3 4 5 6 
#
# 1 201.2504 7.4528 77.4902 0.0000 0.0000 0.0000
# 2 7.4528 35.6335 -4.1399 0.0000 0.0000 0.0000
# 3 77.4902 -4.1399 91.7173 0.0000 0.0000 0.0000
# 4 0.0000 0.0000 0.0000 8.4235 0.0000 0.0000
# 5 0.0000 0.0000 0.0000 0.0000 12.8743 0.0000
# 6 0.0000 0.0000 0.0000 0.0000 0.0000 11.9120
#
#
#
# Elastic Compliance Matrix: (Units=1/GPa)
#
#
# Indices 1 2 3 4 5 6 
#
# 1 0.007553 -0.002333 -0.006487 0.000000 0.000000 0.000000
# 2 -0.002333 0.028932 0.003277 0.000000 0.000000 0.000000
# 3 -0.006487 0.003277 0.016532 0.000000 0.000000 0.000000
# 4 0.000000 0.000000 0.000000 0.118715 0.000000 0.000000
# 5 0.000000 0.000000 0.000000 0.000000 0.077674 0.000000
# 6 0.000000 0.000000 0.000000 0.000000 0.000000 0.083949
#
#
# Mechanical properties :
#
#
# Convention : Reuss Voigt Hill
#
# Bulk Modulus (GPa) = 23.84855 54.46751 39.15803
# Shear Modulus (GPa) = 13.95022 23.16185 18.55603
#
# Velocity S-wave (km/s) = 2.73131 3.51939 3.15009
# Velocity P-wave (km/s) = 4.76445 6.75588 5.84560
#
# Compressibility (1/GPa) = 0.04193127
#
# Stress axis : x y z
#
# Youngs Moduli (GPa) = 132.39750 34.56352 60.49055
#
# Poissons Ratio (x) = 0.08065 0.39239
# Poissons Ratio (y) = 0.30893 -0.19825
# Poissons Ratio (z) = 0.85883 -0.11328
#
# Static dielectric constant tensor:
#      x y z
#    x 1.721630 0.000000 0.000000 
#    y 0.000000 1.736760 0.000000 
#    z 0.000000 0.000000 1.608430 
# 
# From -- ./inp_files/10713.got.cif
#   From: 2010.05.17/outbox.cif.g08.bks.cpg/sg71_6_cif.got.tgz:10713.got - 2010.06.03 16:22:01.
