data_PCOD9517223
_publ_section_title
;
Structure prediction by ZEFSAII (Michael W. Deem and Ramdas Pophale) SiO2 
 PCOD9517223
Probable space group: I M M M
;
_chemical_formula_sum "Si O2"
_cell_formula_units_Z 112
_cell_length_a 7.324911
_cell_length_b 29.614634
_cell_length_c 28.510473
_cell_angle_alpha 90.000000
_cell_angle_beta 90.000000
_cell_angle_gamma 90.000000
_cell_volume 6184.621764
_symmetry_space_group_name_H-M "I M M M"
_symmetry_group_IT_number 71
_symmetry_cell_setting 'orthorhombic'
loop_
_space_group_symop_operation_xyz
x,y,z
-x,-y,z
x,-y,-z
-x,y,-z
-x,-y,-z
x,y,-z
-x,y,z
x,-y,z
1/2+x,1/2+y,1/2+z
1/2-x,1/2-y,1/2+z
1/2+x,1/2-y,1/2-z
1/2-x,1/2+y,1/2-z
1/2-x,1/2-y,1/2-z
1/2+x,1/2+y,1/2-z
1/2-x,1/2+y,1/2+z
1/2+x,1/2-y,1/2+z
loop_
_atom_site_type_symbol
_atom_site_label
_atom_site_fract_x
_atom_site_fract_y
_atom_site_fract_z
Si Si1 0.722275 0.550359 0.365719
Si Si2 0.782419 0.715949 0.144737
Si Si3 0.221235 0.198281 0.800864
Si Si4 0.782799 0.142217 0.286924
Si Si5 0.279176 0.644967 0.604535
Si Si6 0.222225 0.050320 0.243680
Si Si7 0.223001 0.766474 0.052437
O O1 0.500000 0.550333 0.366601
O O2 0.781367 0.500000 0.379832
O O3 0.784058 0.593273 0.395951
O O4 0.773090 0.557378 0.310977
O O5 0.712989 0.752389 0.183206
O O6 0.746913 0.665919 0.163278
O O7 0.717350 0.732481 0.093780
O O8 0.000000 0.721297 0.143431
O O9 0.289844 0.176289 0.753127
O O10 0.264681 0.165452 0.844336
O O11 0.000000 0.200359 0.797855
O O12 0.714995 0.091976 0.275522
O O13 0.000000 0.140012 0.280433
O O14 0.500000 0.643936 0.601432
O O15 0.219502 0.682842 0.567565
O O16 0.000000 0.049963 0.244298
O O17 0.281851 0.000000 0.257697
O O18 0.000000 0.766271 0.052483
O O19 0.282491 0.755294 0.000000
#
# Coordination Sequence:
#
# PCOD9517223 Si02
#       7
#    16  16  16  16  16  16  16
#     4   8  11  15  25  42  65  92 120 150 182 211
#     4   9  17  26  36  52  74  96 121 151 182 215
#     4   8  13  21  32  49  72  97 121 147 175 206
#     4  10  16  23  37  54  75  99 122 147 175 211
#     4   8  11  17  29  45  65  88 119 155 185 210
#     4   8  13  20  31  49  72  97 124 150 173 202
#     4   8  14  24  37  49  62  87 123 157 184 216
#
# _framework density 18.109434
#
# number of rings (size 3 to 8) (size 9 to 14) (size 15 to 20)
#    0.000    3.571    1.429    3.000    0.000    0.000 
#    0.000    0.000    0.000    1.286    0.000    3.000 
#    0.000    0.571    0.000    7.143    0.000    0.000 
#
# Total GULP energy -311992.337578 kJ/mol
# GULP energy per Si atom -5571.291742 kJ/mol
# Density = 1.806822 g / cm^3
# Si number density = 18.109434 Si / 1000 Ang^3
#
#
#
# Elastic Constant Matrix: (Units=GPa)
#
#
# Indices 1 2 3 4 5 6 
#
# 1 70.0336 4.0885 3.2236 0.0000 0.0000 0.0000
# 2 4.0885 89.1278 61.4206 0.0000 0.0000 0.0000
# 3 3.2236 61.4206 89.6513 0.0000 0.0000 0.0000
# 4 0.0000 0.0000 0.0000 15.4311 0.0000 0.0000
# 5 0.0000 0.0000 0.0000 0.0000 143.3119 0.0000
# 6 0.0000 0.0000 0.0000 0.0000 0.0000 -5.3679
#
#
#
# Elastic Compliance Matrix: (Units=1/GPa)
#
#
# Indices 1 2 3 4 5 6 
#
# 1 0.014318 -0.000572 -0.000123 0.000000 0.000000 0.000000
# 2 -0.000572 0.021278 -0.014557 0.000000 0.000000 0.000000
# 3 -0.000123 -0.014557 0.021132 0.000000 0.000000 0.000000
# 4 0.000000 0.000000 0.000000 0.064804 0.000000 0.000000
# 5 0.000000 0.000000 0.000000 0.000000 0.006978 0.000000
# 6 0.000000 0.000000 0.000000 0.000000 0.000000 -0.186292
#
#
# Mechanical properties :
#
#
# Convention : Reuss Voigt Hill
#
# Bulk Modulus (GPa) = 38.13360 42.91978 40.52669
# Shear Modulus (GPa) = -269.72627 42.68035 -113.52296
#
# Velocity S-wave (km/s) = -12.21744 4.85996 -7.92611
# Velocity P-wave (km/s) = 13.33859 7.43263 7.83180
#
# Compressibility (1/GPa) = 0.02622359
#
# Stress axis : x y z
#
# Youngs Moduli (GPa) = 69.84261 46.99765 47.32221
#
# Poissons Ratio (x) = 0.02689 0.00581
# Poissons Ratio (y) = 0.03996 0.68886
# Poissons Ratio (z) = 0.00858 0.68414
#
# Static dielectric constant tensor:
#      x y z
#    x 1.963890 0.000000 0.000000 
#    y 0.000000 1.659810 0.000000 
#    z 0.000000 0.000000 1.596240 
# 
# From -- ./inp_files/59258.got.cif
#   From: 2010.05.17/outbox.cif.g08.bks.cpg/sg71_30_cif.got.tgz:59258.got - 2010.06.03 16:22:01.
