data_PCOD9517527
_publ_section_title
;
Structure prediction by ZEFSAII (Michael W. Deem and Ramdas Pophale) SiO2 
 PCOD9517527
Probable space group: I M M M
;
_chemical_formula_sum "Si O2"
_cell_formula_units_Z 72
_cell_length_a 23.736204
_cell_length_b 24.248282
_cell_length_c 8.657116
_cell_angle_alpha 90.000000
_cell_angle_beta 90.000000
_cell_angle_gamma 90.000000
_cell_volume 4982.708455
_symmetry_space_group_name_H-M "I M M M"
_symmetry_group_IT_number 71
_symmetry_cell_setting 'orthorhombic'
loop_
_space_group_symop_operation_xyz
x,y,z
-x,-y,z
x,-y,-z
-x,y,-z
-x,-y,-z
x,y,-z
-x,y,z
x,-y,z
1/2+x,1/2+y,1/2+z
1/2-x,1/2-y,1/2+z
1/2+x,1/2-y,1/2-z
1/2-x,1/2+y,1/2-z
1/2-x,1/2-y,1/2-z
1/2+x,1/2+y,1/2-z
1/2-x,1/2+y,1/2+z
1/2+x,1/2-y,1/2+z
loop_
_atom_site_type_symbol
_atom_site_label
_atom_site_fract_x
_atom_site_fract_y
_atom_site_fract_z
Si Si1 0.405876 0.143185 0.183354
Si Si2 0.792972 0.328986 0.182992
Si Si3 0.563931 0.735800 0.314988
Si Si4 0.176204 0.208914 0.315065
Si Si5 0.500000 0.064315 0.314855
O O1 0.340391 0.136189 0.229987
O O2 0.426319 0.201574 0.255207
O O3 0.445563 0.095646 0.248821
O O4 0.411225 0.146800 0.000000
O O5 0.807707 0.265814 0.228744
O O6 0.726540 0.333856 0.220905
O O7 0.800243 0.336163 0.000000
O O8 0.570220 0.735817 0.500000
O O9 0.500000 0.719559 0.276203
O O10 0.612699 0.698488 0.239540
O O11 0.177253 0.218432 0.500000
O O12 0.500000 0.069334 0.500000
O O13 0.500000 0.000000 0.273239
#
# Coordination Sequence:
#
# PCOD9517527 Si02
#       5
#    16  16  16  16   8
#     4  11  20  29  44  60  74  95 124 161 199 237
#     4   9  16  26  39  54  74  97 122 155 193 233
#     4  10  18  26  38  54  77 106 133 161 194 233
#     4   9  16  24  36  54  74  97 126 160 192 222
#     4  11  23  37  49  59  75  99 127 163 207 249
#
# _framework density 14.449973
#
# number of rings (size 3 to 8) (size 9 to 14) (size 15 to 20)
#    0.000    2.111    1.111    7.000    0.000    4.889 
#    0.000    0.000    0.000    0.000    0.000    0.000 
#    0.000    0.000    0.000    0.000    0.000    1.111 
#
# Total GULP energy -200495.494761 kJ/mol
# GULP energy per Si atom -5569.319299 kJ/mol
# Density = 1.441708 g / cm^3
# Si number density = 14.449973 Si / 1000 Ang^3
#
#
#
# Elastic Constant Matrix: (Units=GPa)
#
#
# Indices 1 2 3 4 5 6 
#
# 1 139.3895 31.5654 26.3665 0.0000 0.0000 0.0000
# 2 31.5654 27.6060 11.5682 0.0000 0.0000 0.0000
# 3 26.3665 11.5682 41.6848 0.0000 0.0000 0.0000
# 4 0.0000 0.0000 0.0000 7.5091 0.0000 0.0000
# 5 0.0000 0.0000 0.0000 0.0000 27.2740 0.0000
# 6 0.0000 0.0000 0.0000 0.0000 0.0000 9.6838
#
#
#
# Elastic Compliance Matrix: (Units=1/GPa)
#
#
# Indices 1 2 3 4 5 6 
#
# 1 0.010141 -0.010080 -0.003617 0.000000 0.000000 0.000000
# 2 -0.010080 0.051010 -0.007780 0.000000 0.000000 0.000000
# 3 -0.003617 -0.007780 0.028437 0.000000 0.000000 0.000000
# 4 0.000000 0.000000 0.000000 0.133171 0.000000 0.000000
# 5 0.000000 0.000000 0.000000 0.000000 0.036665 0.000000
# 6 0.000000 0.000000 0.000000 0.000000 0.000000 0.103265
#
#
# Mechanical properties :
#
#
# Convention : Reuss Voigt Hill
#
# Bulk Modulus (GPa) = 21.44405 38.63115 30.03760
# Shear Modulus (GPa) = 11.87120 18.17206 15.02163
#
# Velocity S-wave (km/s) = 2.86936 3.55009 3.22772
# Velocity P-wave (km/s) = 5.08429 6.60278 5.89265
#
# Compressibility (1/GPa) = 0.04663299
#
# Stress axis : x y z
#
# Youngs Moduli (GPa) = 98.61037 19.60408 35.16589
#
# Poissons Ratio (x) = 0.19760 0.12720
# Poissons Ratio (y) = 0.99396 0.27361
# Poissons Ratio (z) = 0.35668 0.15253
#
# Static dielectric constant tensor:
#      x y z
#    x 1.562490 0.000000 0.000000 
#    y 0.000000 1.424480 0.000000 
#    z 0.000000 0.000000 1.481020 
# 
# From -- ./inp_files/12693.got.cif
#   From: 2010.05.17/outbox.cif.g08.bks.cpg/sg71_7_cif.got.tgz:12693.got - 2010.06.03 16:22:01.
