data_PCOD9517775
_publ_section_title
;
Structure prediction by ZEFSAII (Michael W. Deem and Ramdas Pophale) SiO2 
 PCOD9517775
Probable space group: I M M M
;
_chemical_formula_sum "Si O2"
_cell_formula_units_Z 104
_cell_length_a 25.036530
_cell_length_b 9.068557
_cell_length_c 33.965360
_cell_angle_alpha 90.000000
_cell_angle_beta 90.000000
_cell_angle_gamma 90.000000
_cell_volume 7711.671933
_symmetry_space_group_name_H-M "I M M M"
_symmetry_group_IT_number 71
_symmetry_cell_setting 'orthorhombic'
loop_
_space_group_symop_operation_xyz
x,y,z
-x,-y,z
x,-y,-z
-x,y,-z
-x,-y,-z
x,y,-z
-x,y,z
x,-y,z
1/2+x,1/2+y,1/2+z
1/2-x,1/2-y,1/2+z
1/2+x,1/2-y,1/2-z
1/2-x,1/2+y,1/2-z
1/2-x,1/2-y,1/2-z
1/2+x,1/2+y,1/2-z
1/2-x,1/2+y,1/2+z
1/2+x,1/2-y,1/2+z
loop_
_atom_site_type_symbol
_atom_site_label
_atom_site_fract_x
_atom_site_fract_y
_atom_site_fract_z
Si Si1 0.939453 0.673125 0.658882
Si Si2 0.160426 0.824151 0.618841
Si Si3 0.440410 0.174188 0.746300
Si Si4 0.500000 0.168569 0.952198
Si Si5 0.234750 0.822968 0.310173
Si Si6 0.381674 0.178437 0.045703
Si Si7 0.831208 0.824206 0.231520
O O1 0.929547 0.500000 0.649795
O O2 0.893886 0.771761 0.640171
O O3 0.938132 0.688994 0.706178
O O4 0.000000 0.708607 0.645749
O O5 0.208183 0.781003 0.648417
O O6 0.159254 0.746724 0.576496
O O7 0.160832 0.000000 0.614689
O O8 0.500000 0.222845 0.733955
O O9 0.390564 0.260520 0.728749
O O10 0.435366 0.000000 0.737775
O O11 0.558147 0.232197 0.942609
O O12 0.500000 0.000000 0.937388
O O13 0.500000 0.161066 0.000000
O O14 0.193546 0.785344 0.274651
O O15 0.290076 0.745054 0.299580
O O16 0.241732 0.000000 0.309357
O O17 0.382023 0.000000 0.048196
O O18 0.372227 0.216931 0.000000
O O19 0.831614 0.000000 0.228345
#
# Coordination Sequence:
#
# PCOD9517775 Si02
#       7
#    16  16  16   8  16  16  16
#     4   9  18  30  42  56  76 105 138 168 202 247
#     4  11  21  31  43  61  83 102 129 170 215 254
#     4   9  17  29  44  61  82 109 138 167 203 248
#     4   7  12  26  45  59  71  93 127 163 199 243
#     4   9  19  32  42  57  81 109 136 166 207 250
#     4   9  18  32  47  60  76 101 133 167 203 250
#     4  10  18  29  45  62  81 106 137 172 206 239
#
# _framework density 13.486050000000001
#
# number of rings (size 3 to 8) (size 9 to 14) (size 15 to 20)
#    0.000    2.692    1.538    2.769    1.077    2.769 
#    0.000    1.538    0.000    1.385    0.000    0.000 
#    0.000    0.000    0.000    0.000    0.000    0.769 
#
# Total GULP energy -289811.125788 kJ/mol
# GULP energy per Si atom -5573.290881 kJ/mol
# Density = 1.345536 g / cm^3
# Si number density = 13.486050 Si / 1000 Ang^3
#
#
#
# Elastic Constant Matrix: (Units=GPa)
#
#
# Indices 1 2 3 4 5 6 
#
# 1 98.5722 37.0718 47.6421 0.0000 0.0000 0.0000
# 2 37.0718 25.2404 29.2408 0.0000 0.0000 0.0000
# 3 47.6421 29.2408 74.2350 0.0000 0.0000 0.0000
# 4 0.0000 0.0000 0.0000 18.0353 0.0000 0.0000
# 5 0.0000 0.0000 0.0000 0.0000 24.5828 0.0000
# 6 0.0000 0.0000 0.0000 0.0000 0.0000 21.8954
#
#
#
# Elastic Compliance Matrix: (Units=1/GPa)
#
#
# Indices 1 2 3 4 5 6 
#
# 1 0.022948 -0.030612 -0.002669 0.000000 0.000000 0.000000
# 2 -0.030612 0.113709 -0.025143 0.000000 0.000000 0.000000
# 3 -0.002669 -0.025143 0.025088 0.000000 0.000000 0.000000
# 4 0.000000 0.000000 0.000000 0.055447 0.000000 0.000000
# 5 0.000000 0.000000 0.000000 0.000000 0.040679 0.000000
# 6 0.000000 0.000000 0.000000 0.000000 0.000000 0.045672
#
#
# Mechanical properties :
#
#
# Convention : Reuss Voigt Hill
#
# Bulk Modulus (GPa) = 22.27429 47.32857 34.80143
# Shear Modulus (GPa) = 11.48483 18.50890 14.99686
#
# Velocity S-wave (km/s) = 2.92140 3.70868 3.33833
# Velocity P-wave (km/s) = 5.28506 7.31503 6.38128
#
# Compressibility (1/GPa) = 0.04489482
#
# Stress axis : x y z
#
# Youngs Moduli (GPa) = 43.57694 8.79436 39.86015
#
# Poissons Ratio (x) = 0.26922 0.10640
# Poissons Ratio (y) = 1.33399 1.00222
# Poissons Ratio (z) = 0.11632 0.22112
#
# Static dielectric constant tensor:
#      x y z
#    x 1.438200 0.000000 0.000000 
#    y 0.000000 1.447540 0.000000 
#    z 0.000000 0.000000 1.452350 
# 
# From -- ./inp_files/70963.got.cif
#   From: 2010.05.17/outbox.cif.g08.bks.cpg/sg71_36_cif.got.tgz:70963.got - 2010.06.03 16:22:01.
