data_PCOD9517744
_publ_section_title
;
Structure prediction by ZEFSAII (Michael W. Deem and Ramdas Pophale) SiO2 
 PCOD9517744
Probable space group: I M M M
;
_chemical_formula_sum "Si O2"
_cell_formula_units_Z 128
_cell_length_a 15.781429
_cell_length_b 19.440937
_cell_length_c 23.233484
_cell_angle_alpha 90.000000
_cell_angle_beta 90.000000
_cell_angle_gamma 90.000000
_cell_volume 7128.166878
_symmetry_space_group_name_H-M "I M M M"
_symmetry_group_IT_number 71
_symmetry_cell_setting 'orthorhombic'
loop_
_space_group_symop_operation_xyz
x,y,z
-x,-y,z
x,-y,-z
-x,y,-z
-x,-y,-z
x,y,-z
-x,y,z
x,-y,z
1/2+x,1/2+y,1/2+z
1/2-x,1/2-y,1/2+z
1/2+x,1/2-y,1/2-z
1/2-x,1/2+y,1/2-z
1/2-x,1/2-y,1/2-z
1/2+x,1/2+y,1/2-z
1/2-x,1/2+y,1/2+z
1/2+x,1/2-y,1/2+z
loop_
_atom_site_type_symbol
_atom_site_label
_atom_site_fract_x
_atom_site_fract_y
_atom_site_fract_z
Si Si1 0.404219 0.681620 0.158877
Si Si2 0.220945 0.578875 0.310395
Si Si3 0.775405 0.614118 0.564235
Si Si4 0.766447 0.781701 0.433962
Si Si5 0.595441 0.417996 0.734731
Si Si6 0.406430 0.772091 0.624078
Si Si7 0.410449 0.626249 0.434286
Si Si8 0.158692 0.288183 0.252383
O O1 0.500000 0.677044 0.136646
O O2 0.335540 0.686634 0.108758
O O3 0.390169 0.620090 0.204562
O O4 0.392993 0.749506 0.198057
O O5 0.210755 0.500000 0.292743
O O6 0.187685 0.587982 0.375777
O O7 0.322197 0.596350 0.304566
O O8 0.174910 0.633544 0.269997
O O9 0.808470 0.596611 0.500000
O O10 0.773238 0.697707 0.568346
O O11 0.678023 0.587533 0.567732
O O12 0.778827 0.801639 0.500000
O O13 0.672859 0.800784 0.411641
O O14 0.500000 0.396800 0.714715
O O15 0.593338 0.500000 0.741964
O O16 0.500000 0.800028 0.610836
O O17 0.408443 0.691577 0.607137
O O18 0.385504 0.780002 0.691126
O O19 0.411192 0.654625 0.500000
O O20 0.500000 0.588331 0.425939
O O21 0.250000 0.250000 0.250000
#
# Coordination Sequence:
#
# PCOD9517744 Si02
#       8
#    16  16  16  16  16  16  16  16
#     4  11  21  34  56  79 104 142 181 224 273 319
#     4  11  21  33  51  72 102 144 180 219 273 323
#     4   9  17  30  46  65  95 135 175 220 263 298
#     4  10  19  33  52  77 110 139 173 226 269 309
#     4   9  19  33  49  76 110 141 174 213 264 329
#     4  10  18  28  48  76 106 139 170 208 265 324
#     4   8  14  24  40  67 102 136 168 203 247 301
#     4  12  19  34  52  76 109 136 175 231 267 313
#
# _framework density 17.956931000000001
#
# number of rings (size 3 to 8) (size 9 to 14) (size 15 to 20)
#    0.000    2.000    3.750    2.250    0.000    1.750 
#    0.000    0.000    0.000    1.875    0.000    5.250 
#    0.000    3.500    0.000   11.375    0.000    0.000 
#
# Total GULP energy -356713.312243 kJ/mol
# GULP energy per Si atom -5573.645504 kJ/mol
# Density = 1.791606 g / cm^3
# Si number density = 17.956931 Si / 1000 Ang^3
#
#
#
# Elastic Constant Matrix: (Units=GPa)
#
#
# Indices 1 2 3 4 5 6 
#
# 1 63.8564 13.7767 37.0600 0.0000 0.0000 0.0000
# 2 13.7767 43.7730 35.0479 0.0000 0.0000 0.0000
# 3 37.0600 35.0479 124.2465 0.0000 0.0000 0.0000
# 4 0.0000 0.0000 0.0000 10.4152 0.0000 0.0000
# 5 0.0000 0.0000 0.0000 0.0000 17.0833 0.0000
# 6 0.0000 0.0000 0.0000 0.0000 0.0000 11.7597
#
#
#
# Elastic Compliance Matrix: (Units=1/GPa)
#
#
# Indices 1 2 3 4 5 6 
#
# 1 0.019056 -0.001869 -0.005157 0.000000 0.000000 0.000000
# 2 -0.001869 0.029693 -0.007819 0.000000 0.000000 0.000000
# 3 -0.005157 -0.007819 0.011792 0.000000 0.000000 0.000000
# 4 0.000000 0.000000 0.000000 0.096014 0.000000 0.000000
# 5 0.000000 0.000000 0.000000 0.000000 0.058537 0.000000
# 6 0.000000 0.000000 0.000000 0.000000 0.000000 0.085036
#
#
# Mechanical properties :
#
#
# Convention : Reuss Voigt Hill
#
# Bulk Modulus (GPa) = 32.41121 44.84944 38.63033
# Shear Modulus (GPa) = 14.70148 17.58438 16.14293
#
# Velocity S-wave (km/s) = 2.86441 3.13270 3.00155
# Velocity P-wave (km/s) = 5.38780 6.17377 5.79413
#
# Compressibility (1/GPa) = 0.03085352
#
# Stress axis : x y z
#
# Youngs Moduli (GPa) = 52.47639 33.67748 84.80152
#
# Poissons Ratio (x) = 0.06293 0.43732
# Poissons Ratio (y) = 0.09805 0.66304
# Poissons Ratio (z) = 0.27062 0.26331
#
# Static dielectric constant tensor:
#      x y z
#    x 1.672710 0.000000 0.000000 
#    y 0.000000 1.601640 0.000000 
#    z 0.000000 0.000000 1.637500 
# 
# From -- ./inp_files/46670.got.cif
#   From: 2010.05.17/outbox.cif.g08.bks.cpg/sg71_24_cif.got.tgz:46670.got - 2010.06.03 16:22:01.
