data_PCOD9517135
_publ_section_title
;
Structure prediction by ZEFSAII (Michael W. Deem and Ramdas Pophale) SiO2 
 PCOD9517135
Probable space group: F D D D
;
_chemical_formula_sum "Si O2"
_cell_formula_units_Z 104
_cell_length_a 28.199324
_cell_length_b 8.090973
_cell_length_c 17.527932
_cell_angle_alpha 90.000000
_cell_angle_beta 90.000000
_cell_angle_gamma 90.000000
_cell_volume 3999.172424
_symmetry_space_group_name_H-M "F D D D"
_symmetry_group_IT_number 70
_space_group.IT_coordinate_system_code '2'
_symmetry_cell_setting 'orthorhombic'
loop_
_space_group_symop_operation_xyz
x,y,z
1/4-x,1/4-y,z
x,1/4-y,1/4-z
1/4-x,y,1/4-z
-x,-y,-z
3/4+x,3/4+y,-z
-x,3/4+y,3/4+z
3/4+x,-y,3/4+z
x,1/2+y,1/2+z
1/4-x,3/4-y,1/2+z
x,3/4-y,3/4-z
1/4-x,1/2+y,3/4-z
-x,1/2-y,1/2-z
3/4+x,1/4+y,1/2-z
-x,1/4+y,1/4+z
3/4+x,1/2-y,1/4+z
1/2+x,y,1/2+z
3/4-x,1/4-y,1/2+z
1/2+x,1/4-y,3/4-z
3/4-x,y,3/4-z
1/2-x,-y,1/2-z
1/4+x,3/4+y,1/2-z
1/2-x,3/4+y,1/4+z
1/4+x,-y,1/4+z
1/2+x,1/2+y,z
3/4-x,3/4-y,z
1/2+x,3/4-y,1/4-z
3/4-x,1/2+y,1/4-z
1/2-x,1/2-y,-z
1/4+x,1/4+y,-z
1/2-x,1/4+y,3/4+z
1/4+x,1/2-y,3/4+z
loop_
_atom_site_type_symbol
_atom_site_label
_atom_site_fract_x
_atom_site_fract_y
_atom_site_fract_z
Si Si1 0.125000 0.125000 0.625000
Si Si2 0.031601 0.937390 0.797396
Si Si3 0.618624 0.314265 0.511142
Si Si4 0.218030 0.525985 0.405240
O O1 0.142801 0.273326 0.564539
O O2 0.006800 0.875000 0.875000
O O3 0.081374 0.853045 0.779476
O O4 0.041994 0.119033 0.829896
O O5 0.999106 0.912301 0.725224
O O6 0.578935 0.288507 0.446785
O O7 0.625000 0.125000 0.544127
O O8 0.249229 0.375000 0.375000
#
# Coordination Sequence:
#
# PCOD9517135 Si02
#       4
#     8  32  32  32
#     4  12  30  48  80 126 168 216 288 356 412 502
#     4  12  27  51  83 119 169 220 281 348 429 503
#     4  12  28  51  85 121 172 226 288 342 442 507
#     4  12  28  50  85 123 170 221 285 352 425 515
#
# _framework density 26.005382000000001
#
# number of rings (size 3 to 8) (size 9 to 14) (size 15 to 20)
#    0.000    0.000    3.077    5.077    6.462    0.000 
#    0.000    0.000    0.000    0.000    0.000    0.000 
#    0.000    0.000    0.000    0.000    0.000    0.000 
#
# Total GULP energy -144745.129649 kJ/mol
# GULP energy per Si atom -5567.120371 kJ/mol
# Density = 2.594619 g / cm^3
# Si number density = 26.005382 Si / 1000 Ang^3
#
#
#
# Elastic Constant Matrix: (Units=GPa)
#
#
# Indices 1 2 3 4 5 6 
#
# 1 113.3213 33.4522 44.6792 0.0000 0.0000 0.0000
# 2 33.4522 226.4550 73.3269 0.0000 0.0000 0.0000
# 3 44.6792 73.3269 139.7493 0.0000 0.0000 0.0000
# 4 0.0000 0.0000 0.0000 62.3058 0.0000 0.0000
# 5 0.0000 0.0000 0.0000 0.0000 -26.6262 0.0000
# 6 0.0000 0.0000 0.0000 0.0000 0.0000 26.4543
#
#
#
# Elastic Compliance Matrix: (Units=1/GPa)
#
#
# Indices 1 2 3 4 5 6 
#
# 1 0.010152 -0.000541 -0.002962 0.000000 0.000000 0.000000
# 2 -0.000541 0.005348 -0.002634 0.000000 0.000000 0.000000
# 3 -0.002962 -0.002634 0.009484 0.000000 0.000000 0.000000
# 4 0.000000 0.000000 0.000000 0.016050 0.000000 0.000000
# 5 0.000000 0.000000 0.000000 0.000000 -0.037557 0.000000
# 6 0.000000 0.000000 0.000000 0.000000 0.000000 0.037801
#
#
# Mechanical properties :
#
#
# Convention : Reuss Voigt Hill
#
# Bulk Modulus (GPa) = 78.66198 86.93800 82.79999
# Shear Modulus (GPa) = 86.52230 34.29793 60.41012
#
# Velocity S-wave (km/s) = 5.77435 3.63558 4.82496
# Velocity P-wave (km/s) = 8.64705 7.15028 7.93404
#
# Compressibility (1/GPa) = 0.01271262
#
# Stress axis : x y z
#
# Youngs Moduli (GPa) = 98.50400 186.96859 105.43524
#
# Poissons Ratio (x) = 0.10106 0.31230
# Poissons Ratio (y) = 0.05324 0.27767
# Poissons Ratio (z) = 0.29177 0.49239
#
# Static dielectric constant tensor:
#      x y z
#    x 1.974340 0.000000 0.000000 
#    y 0.000000 2.723000 0.000000 
#    z 0.000000 0.000000 2.038660 
# 
# From -- ./inp_files/46455.got.cif
#   From: 2010.05.17/outbox.cif.g08.bks.cpg/sg70_24_cif.got.tgz:46455.got - 2010.06.03 15:57:51.
