data_PCOD9517535
_publ_section_title
;
Structure prediction by ZEFSAII (Michael W. Deem and Ramdas Pophale) SiO2 
 PCOD9517535
Probable space group: I M M M
;
_chemical_formula_sum "Si O2"
_cell_formula_units_Z 80
_cell_length_a 21.344056
_cell_length_b 19.835261
_cell_length_c 7.376471
_cell_angle_alpha 90.000000
_cell_angle_beta 90.000000
_cell_angle_gamma 90.000000
_cell_volume 3122.939066
_symmetry_space_group_name_H-M "I M M M"
_symmetry_group_IT_number 71
_symmetry_cell_setting 'orthorhombic'
loop_
_space_group_symop_operation_xyz
x,y,z
-x,-y,z
x,-y,-z
-x,y,-z
-x,-y,-z
x,y,-z
-x,y,z
x,-y,z
1/2+x,1/2+y,1/2+z
1/2-x,1/2-y,1/2+z
1/2+x,1/2-y,1/2-z
1/2-x,1/2+y,1/2-z
1/2-x,1/2-y,1/2-z
1/2+x,1/2+y,1/2-z
1/2-x,1/2+y,1/2+z
1/2+x,1/2-y,1/2+z
loop_
_atom_site_type_symbol
_atom_site_label
_atom_site_fract_x
_atom_site_fract_y
_atom_site_fract_z
Si Si1 0.248387 0.648294 0.290441
Si Si2 0.925973 0.071592 0.781748
Si Si3 0.872351 0.787780 0.222988
Si Si4 0.742637 0.500000 0.783820
Si Si5 0.389696 0.000000 0.277926
Si Si6 0.604674 0.145284 0.295751
O O1 0.234952 0.661232 0.500000
O O2 0.299837 0.701318 0.223217
O O3 0.279738 0.573361 0.280757
O O4 0.181284 0.644287 0.194966
O O5 0.903636 0.143472 0.714305
O O6 0.000000 0.069429 0.750052
O O7 0.899312 0.000000 0.712602
O O8 0.916708 0.071933 0.000000
O O9 0.905063 0.719103 0.286667
O O10 0.873131 0.785664 0.000000
O O11 0.816352 0.500000 0.726674
O O12 0.740299 0.500000 0.000000
O O13 0.415033 0.927129 0.216362
O O14 0.392785 0.000000 0.500000
O O15 0.579374 0.146561 0.500000
#
# Coordination Sequence:
#
# PCOD9517535 Si02
#       6
#    16  16  16   8   8  16
#     4  10  18  26  39  61  87 115 144 183 221 256
#     4   8  14  25  40  58  83 113 143 182 233 279
#     4   9  17  25  38  60  84 111 144 182 226 271
#     4   9  17  29  41  55  80 117 152 178 207 254
#     4   7  12  23  39  51  68 104 142 166 187 233
#     4   9  16  28  41  57  84 118 149 176 212 262
#
# _framework density 25.616893000000001
#
# number of rings (size 3 to 8) (size 9 to 14) (size 15 to 20)
#    0.000    3.200    0.000    3.300    1.400    0.000 
#    0.000    1.000    0.000    0.000    0.000    0.700 
#    0.000   13.600    0.000    0.000    0.000   13.400 
#
# Total GULP energy -223243.634901 kJ/mol
# GULP energy per Si atom -5581.090873 kJ/mol
# Density = 2.555859 g / cm^3
# Si number density = 25.616893 Si / 1000 Ang^3
#
#
#
# Elastic Constant Matrix: (Units=GPa)
#
#
# Indices 1 2 3 4 5 6 
#
# 1 31.6345 30.9535 2.9854 0.0000 0.0000 0.0000
# 2 30.9535 283.3762 4.5710 0.0000 0.0000 0.0000
# 3 2.9854 4.5710 105.4701 0.0000 0.0000 0.0000
# 4 0.0000 0.0000 0.0000 2.8363 0.0000 0.0000
# 5 0.0000 0.0000 0.0000 0.0000 -4.6317 0.0000
# 6 0.0000 0.0000 0.0000 0.0000 0.0000 25.6400
#
#
#
# Elastic Compliance Matrix: (Units=1/GPa)
#
#
# Indices 1 2 3 4 5 6 
#
# 1 0.035468 -0.003861 -0.000837 0.000000 0.000000 0.000000
# 2 -0.003861 0.003952 -0.000062 0.000000 0.000000 0.000000
# 3 -0.000837 -0.000062 0.009508 0.000000 0.000000 0.000000
# 4 0.000000 0.000000 0.000000 0.352566 0.000000 0.000000
# 5 0.000000 0.000000 0.000000 0.000000 -0.215905 0.000000
# 6 0.000000 0.000000 0.000000 0.000000 0.000000 0.039002
#
#
# Mechanical properties :
#
#
# Convention : Reuss Voigt Hill
#
# Bulk Modulus (GPa) = 25.37535 55.27784 40.32659
# Shear Modulus (GPa) = 20.22295 30.23367 25.22831
#
# Velocity S-wave (km/s) = 2.81274 3.43917 3.14161
# Velocity P-wave (km/s) = 4.52503 6.11523 5.37921
#
# Compressibility (1/GPa) = 0.03940833
#
# Stress axis : x y z
#
# Youngs Moduli (GPa) = 28.19481 253.06330 105.17760
#
# Poissons Ratio (x) = 0.97699 0.08799
# Poissons Ratio (y) = 0.10885 0.00652
# Poissons Ratio (z) = 0.02359 0.01568
#
# Static dielectric constant tensor:
#      x y z
#    x 2.016300 0.000000 0.000000 
#    y 0.000000 2.123150 0.000000 
#    z 0.000000 0.000000 1.862830 
# 
# From -- ./inp_files/16557.got.cif
#   From: 2010.05.17/outbox.cif.g08.bks.cpg/sg71_9_cif.got.tgz:16557.got - 2010.06.03 16:22:01.
