data_PCOD9517058
_publ_section_title
;
Structure prediction by ZEFSAII (Michael W. Deem and Ramdas Pophale) SiO2 
 PCOD9517058
Probable space group: F D D D
;
_chemical_formula_sum "Si O2"
_cell_formula_units_Z 168
_cell_length_a 11.750591
_cell_length_b 26.529171
_cell_length_c 21.398868
_cell_angle_alpha 90.000000
_cell_angle_beta 90.000000
_cell_angle_gamma 90.000000
_cell_volume 6670.742691
_symmetry_space_group_name_H-M "F D D D"
_symmetry_group_IT_number 70
_space_group.IT_coordinate_system_code '2'
_symmetry_cell_setting 'orthorhombic'
loop_
_space_group_symop_operation_xyz
x,y,z
1/4-x,1/4-y,z
x,1/4-y,1/4-z
1/4-x,y,1/4-z
-x,-y,-z
3/4+x,3/4+y,-z
-x,3/4+y,3/4+z
3/4+x,-y,3/4+z
x,1/2+y,1/2+z
1/4-x,3/4-y,1/2+z
x,3/4-y,3/4-z
1/4-x,1/2+y,3/4-z
-x,1/2-y,1/2-z
3/4+x,1/4+y,1/2-z
-x,1/4+y,1/4+z
3/4+x,1/2-y,1/4+z
1/2+x,y,1/2+z
3/4-x,1/4-y,1/2+z
1/2+x,1/4-y,3/4-z
3/4-x,y,3/4-z
1/2-x,-y,1/2-z
1/4+x,3/4+y,1/2-z
1/2-x,3/4+y,1/4+z
1/4+x,-y,1/4+z
1/2+x,1/2+y,z
3/4-x,3/4-y,z
1/2+x,3/4-y,1/4-z
3/4-x,1/2+y,1/4-z
1/2-x,1/2-y,-z
1/4+x,1/4+y,-z
1/2-x,1/4+y,3/4+z
1/4+x,1/2-y,3/4+z
loop_
_atom_site_type_symbol
_atom_site_label
_atom_site_fract_x
_atom_site_fract_y
_atom_site_fract_z
Si Si1 0.865222 0.932325 0.618327
Si Si2 0.424558 0.572148 0.960068
Si Si3 0.434480 0.298598 0.481613
Si Si4 0.878345 0.315423 0.443393
Si Si5 0.625000 0.125000 0.125000
Si Si6 0.315188 0.192568 0.292325
O O1 0.875000 0.875000 0.640397
O O2 0.741468 0.945165 0.646995
O O3 0.879813 0.933909 0.544450
O O4 0.972579 0.955128 0.653652
O O5 0.397260 0.633442 0.952502
O O6 0.312544 0.546877 0.989197
O O7 0.521524 0.558169 0.011184
O O8 0.438044 0.337700 0.423984
O O9 0.373633 0.246558 0.460885
O O10 0.875000 0.292548 0.375000
O O11 0.875000 0.375000 0.436182
O O12 0.997027 0.305982 0.477250
#
# Coordination Sequence:
#
# PCOD9517058 Si02
#       6
#    32  32  32  32   8  32
#     4   9  19  42  66  92 127 156 201 274 317 370
#     4   9  20  38  65  95 120 165 216 250 321 392
#     4  12  24  44  64  85 128 170 211 267 315 371
#     4   8  15  30  55  93 138 157 183 263 327 374
#     4  12  32  48  52  88 126 176 214 268 308 356
#     4   9  21  38  63  97 121 159 216 256 321 387
#
# _framework density 25.184601000000001
#
# number of rings (size 3 to 8) (size 9 to 14) (size 15 to 20)
#    0.000    2.476    0.952    2.857    0.000   10.667 
#    6.857    1.905    0.000    0.000    0.000    0.000 
#    0.000    0.000    0.000    0.000    0.000    0.000 
#
# Total GULP energy -233941.772740 kJ/mol
# GULP energy per Si atom -5570.042208 kJ/mol
# Density = 2.512728 g / cm^3
# Si number density = 25.184601 Si / 1000 Ang^3
#
#
#
# Elastic Constant Matrix: (Units=GPa)
#
#
# Indices 1 2 3 4 5 6 
#
# 1 32.9863 11.9384 2.5074 0.0000 0.0000 0.0000
# 2 11.9384 152.7252 12.7838 0.0000 0.0000 0.0000
# 3 2.5074 12.7838 162.6841 0.0000 0.0000 0.0000
# 4 0.0000 0.0000 0.0000 8.2645 0.0000 0.0000
# 5 0.0000 0.0000 0.0000 0.0000 50.0112 0.0000
# 6 0.0000 0.0000 0.0000 0.0000 0.0000 24.3961
#
#
#
# Elastic Compliance Matrix: (Units=1/GPa)
#
#
# Indices 1 2 3 4 5 6 
#
# 1 0.031212 -0.002415 -0.000291 0.000000 0.000000 0.000000
# 2 -0.002415 0.006778 -0.000495 0.000000 0.000000 0.000000
# 3 -0.000291 -0.000495 0.006190 0.000000 0.000000 0.000000
# 4 0.000000 0.000000 0.000000 0.120999 0.000000 0.000000
# 5 0.000000 0.000000 0.000000 0.000000 0.019996 0.000000
# 6 0.000000 0.000000 0.000000 0.000000 0.000000 0.040990
#
#
# Mechanical properties :
#
#
# Convention : Reuss Voigt Hill
#
# Bulk Modulus (GPa) = 26.47177 44.76164 35.61671
# Shear Modulus (GPa) = 20.39473 37.94543 29.17008
#
# Velocity S-wave (km/s) = 2.84880 3.88582 3.40700
# Velocity P-wave (km/s) = 4.62113 6.15994 5.44517
#
# Compressibility (1/GPa) = 0.03777609
#
# Stress axis : x y z
#
# Youngs Moduli (GPa) = 32.03903 147.53644 161.54308
#
# Poissons Ratio (x) = 0.35636 0.04705
# Poissons Ratio (y) = 0.07739 0.08003
# Poissons Ratio (z) = 0.00933 0.07309
#
# Static dielectric constant tensor:
#      x y z
#    x 2.152320 0.000000 0.000000 
#    y 0.000000 2.016900 0.000000 
#    z 0.000000 0.000000 2.024050 
# 
# From -- ./inp_files/42818.got.cif
#   From: 2010.05.17/outbox.cif.g08.bks.cpg/sg70_22_cif.got.tgz:42818.got - 2010.06.03 15:57:51.
