data_PCOD9517383
_publ_section_title
;
Structure prediction by ZEFSAII (Michael W. Deem and Ramdas Pophale) SiO2 
 PCOD9517383
Probable space group: I M M M
;
_chemical_formula_sum "Si O2"
_cell_formula_units_Z 96
_cell_length_a 34.817550
_cell_length_b 13.385741
_cell_length_c 14.890845
_cell_angle_alpha 90.000000
_cell_angle_beta 90.000000
_cell_angle_gamma 90.000000
_cell_volume 6940.007960
_symmetry_space_group_name_H-M "I M M M"
_symmetry_group_IT_number 71
_symmetry_cell_setting 'orthorhombic'
loop_
_space_group_symop_operation_xyz
x,y,z
-x,-y,z
x,-y,-z
-x,y,-z
-x,-y,-z
x,y,-z
-x,y,z
x,-y,z
1/2+x,1/2+y,1/2+z
1/2-x,1/2-y,1/2+z
1/2+x,1/2-y,1/2-z
1/2-x,1/2+y,1/2-z
1/2-x,1/2-y,1/2-z
1/2+x,1/2+y,1/2-z
1/2-x,1/2+y,1/2+z
1/2+x,1/2-y,1/2+z
loop_
_atom_site_type_symbol
_atom_site_label
_atom_site_fract_x
_atom_site_fract_y
_atom_site_fract_z
Si Si1 0.361024 0.621565 0.000000
Si Si2 0.691905 0.690348 0.303489
Si Si3 0.331145 0.379154 0.500000
Si Si4 0.226790 0.120598 0.500000
Si Si5 0.578584 0.378914 0.500000
Si Si6 0.383588 0.621126 0.196896
Si Si7 0.043340 0.121697 0.189058
Si Si8 0.763491 0.383604 0.190507
O O1 0.380377 0.651896 0.093137
O O2 0.360446 0.500000 0.000000
O O3 0.316929 0.657087 0.000000
O O4 0.686981 0.662332 0.408050
O O5 0.652941 0.660501 0.252376
O O6 0.727978 0.632649 0.258742
O O7 0.702534 0.806511 0.289393
O O8 0.328445 0.500000 0.500000
O O9 0.376525 0.351663 0.500000
O O10 0.247886 0.147467 0.408157
O O11 0.224837 0.000000 0.500000
O O12 0.577787 0.500000 0.500000
O O13 0.557079 0.346248 0.409934
O O14 0.381401 0.500000 0.201255
O O15 0.423605 0.652340 0.241694
O O16 0.000000 0.155013 0.208667
O O17 0.042904 0.000000 0.189101
O O18 0.774253 0.500000 0.189392
#
# Coordination Sequence:
#
# PCOD9517383 Si02
#       8
#     8  16   8   8   8  16  16  16
#     4   9  16  25  42  59  75 104 143 178 204 236
#     4  11  20  29  45  62  83 115 143 175 219 257
#     4  11  19  28  42  65  90 112 141 181 214 249
#     4   9  15  27  45  57  75 106 140 176 205 231
#     4   9  15  23  38  57  83 115 140 166 199 244
#     4  10  17  28  43  61  82 108 142 176 208 250
#     4   9  16  25  38  57  83 114 142 168 203 247
#     4  10  20  32  44  62  84 109 145 185 214 248
#
# _framework density 13.832837
#
# number of rings (size 3 to 8) (size 9 to 14) (size 15 to 20)
#    0.000    2.167    3.333    2.250    0.000    1.000 
#    0.000    0.417    0.000    2.500    0.000    0.000 
#    0.000    0.667    0.000    1.500    0.000    1.833 
#
# Total GULP energy -267385.078813 kJ/mol
# GULP energy per Si atom -5570.522475 kJ/mol
# Density = 1.380135 g / cm^3
# Si number density = 13.832837 Si / 1000 Ang^3
#
#
#
# Elastic Constant Matrix: (Units=GPa)
#
#
# Indices 1 2 3 4 5 6 
#
# 1 97.1030 26.5462 51.9230 0.0000 0.0000 0.0000
# 2 26.5462 41.8836 17.3881 0.0000 0.0000 0.0000
# 3 51.9230 17.3881 113.4197 0.0000 0.0000 0.0000
# 4 0.0000 0.0000 0.0000 6.2637 0.0000 0.0000
# 5 0.0000 0.0000 0.0000 0.0000 14.9705 0.0000
# 6 0.0000 0.0000 0.0000 0.0000 0.0000 13.2008
#
#
#
# Elastic Compliance Matrix: (Units=1/GPa)
#
#
# Indices 1 2 3 4 5 6 
#
# 1 0.015498 -0.007345 -0.005969 0.000000 0.000000 0.000000
# 2 -0.007345 0.028979 -0.001080 0.000000 0.000000 0.000000
# 3 -0.005969 -0.001080 0.011715 0.000000 0.000000 0.000000
# 4 0.000000 0.000000 0.000000 0.159649 0.000000 0.000000
# 5 0.000000 0.000000 0.000000 0.000000 0.066798 0.000000
# 6 0.000000 0.000000 0.000000 0.000000 0.000000 0.075753
#
#
# Mechanical properties :
#
#
# Convention : Reuss Voigt Hill
#
# Bulk Modulus (GPa) = 36.49062 49.34677 42.91870
# Shear Modulus (GPa) = 12.61623 17.32361 14.96992
#
# Velocity S-wave (km/s) = 3.02329 3.54270 3.29325
# Velocity P-wave (km/s) = 6.21482 7.24468 6.74942
#
# Compressibility (1/GPa) = 0.02740430
#
# Stress axis : x y z
#
# Youngs Moduli (GPa) = 64.52460 34.50730 85.36083
#
# Poissons Ratio (x) = 0.25345 0.50951
# Poissons Ratio (y) = 0.47392 0.09222
# Poissons Ratio (z) = 0.38514 0.03728
#
# Static dielectric constant tensor:
#      x y z
#    x 1.449040 0.000000 0.000000 
#    y 0.000000 1.431760 0.000000 
#    z 0.000000 0.000000 1.477030 
# 
# From -- ./inp_files/41051.got.cif
#   From: 2010.05.17/outbox.cif.g08.bks.cpg/sg71_21_cif.got.tgz:41051.got - 2010.06.03 16:22:01.
