data_PCOD9517360
_publ_section_title
;
Structure prediction by ZEFSAII (Michael W. Deem and Ramdas Pophale) SiO2 
 PCOD9517360
Probable space group: I M M M
;
_chemical_formula_sum "Si O2"
_cell_formula_units_Z 104
_cell_length_a 23.619032
_cell_length_b 21.431821
_cell_length_c 13.788247
_cell_angle_alpha 90.000000
_cell_angle_beta 90.000000
_cell_angle_gamma 90.000000
_cell_volume 6979.594996
_symmetry_space_group_name_H-M "I M M M"
_symmetry_group_IT_number 71
_symmetry_cell_setting 'orthorhombic'
loop_
_space_group_symop_operation_xyz
x,y,z
-x,-y,z
x,-y,-z
-x,y,-z
-x,-y,-z
x,y,-z
-x,y,z
x,-y,z
1/2+x,1/2+y,1/2+z
1/2-x,1/2-y,1/2+z
1/2+x,1/2-y,1/2-z
1/2-x,1/2+y,1/2-z
1/2-x,1/2-y,1/2-z
1/2+x,1/2+y,1/2-z
1/2-x,1/2+y,1/2+z
1/2+x,1/2-y,1/2+z
loop_
_atom_site_type_symbol
_atom_site_label
_atom_site_fract_x
_atom_site_fract_y
_atom_site_fract_z
Si Si1 0.253082 0.573611 0.386407
Si Si2 0.626177 0.428000 0.298856
Si Si3 0.933062 0.742614 0.302139
Si Si4 0.932020 0.188583 0.892201
Si Si5 0.433368 0.379347 0.887701
Si Si6 0.065299 0.500000 0.382061
Si Si7 0.632043 0.875612 0.116938
O O1 0.267695 0.585664 0.500000
O O2 0.237674 0.500000 0.381036
O O3 0.307633 0.584062 0.319803
O O4 0.197987 0.613356 0.359809
O O5 0.615082 0.500000 0.324522
O O6 0.592251 0.378791 0.364039
O O7 0.605620 0.415000 0.189282
O O8 0.916546 0.763858 0.193501
O O9 0.926519 0.805359 0.366467
O O10 0.895731 0.685830 0.339042
O O11 0.000000 0.726124 0.304398
O O12 0.000000 0.184511 0.890167
O O13 0.913703 0.206926 0.000000
O O14 0.500000 0.393643 0.868317
O O15 0.421581 0.393129 0.000000
O O16 0.066039 0.500000 0.500000
O O17 0.097480 0.562746 0.351448
O O18 0.000000 0.500000 0.351009
O O19 0.627916 0.872027 0.000000
#
# Coordination Sequence:
#
# PCOD9517360 Si02
#       7
#    16  16  16  16  16   8  16
#     4   9  17  30  45  63  91 125 155 184 225 272
#     4  10  19  30  47  68  88 116 155 190 223 268
#     4   9  17  29  47  69  91 120 154 183 221 276
#     4   9  18  32  47  65  91 117 144 187 235 271
#     4   9  18  32  47  66  96 126 150 183 226 271
#     4   9  16  24  38  66  99 121 142 181 225 265
#     4  10  17  27  44  67  95 124 151 181 222 272
#
# _framework density 14.900577999999999
#
# number of rings (size 3 to 8) (size 9 to 14) (size 15 to 20)
#    0.000    2.692    0.769    2.769    0.000    4.000 
#    0.000    4.615    0.000    2.769    0.000    0.538 
#    0.000    3.077    0.000    0.000    0.000    0.000 
#
# Total GULP energy -289700.395642 kJ/mol
# GULP energy per Si atom -5571.161455 kJ/mol
# Density = 1.486666 g / cm^3
# Si number density = 14.900578 Si / 1000 Ang^3
#
#
#
# Elastic Constant Matrix: (Units=GPa)
#
#
# Indices 1 2 3 4 5 6 
#
# 1 68.6970 39.7981 41.4116 0.0000 0.0000 0.0000
# 2 39.7981 62.5784 17.7907 0.0000 0.0000 0.0000
# 3 41.4116 17.7907 63.9870 0.0000 0.0000 0.0000
# 4 0.0000 0.0000 0.0000 13.7039 0.0000 0.0000
# 5 0.0000 0.0000 0.0000 0.0000 19.4256 0.0000
# 6 0.0000 0.0000 0.0000 0.0000 0.0000 22.8065
#
#
#
# Elastic Compliance Matrix: (Units=1/GPa)
#
#
# Indices 1 2 3 4 5 6 
#
# 1 0.035695 -0.017518 -0.018231 0.000000 0.000000 0.000000
# 2 -0.017518 0.025949 0.004123 0.000000 0.000000 0.000000
# 3 -0.018231 0.004123 0.026281 0.000000 0.000000 0.000000
# 4 0.000000 0.000000 0.000000 0.072972 0.000000 0.000000
# 5 0.000000 0.000000 0.000000 0.000000 0.051478 0.000000
# 6 0.000000 0.000000 0.000000 0.000000 0.000000 0.043847
#
#
# Mechanical properties :
#
#
# Convention : Reuss Voigt Hill
#
# Bulk Modulus (GPa) = 40.53112 43.69590 42.11351
# Shear Modulus (GPa) = 15.25788 17.60466 16.43127
#
# Velocity S-wave (km/s) = 3.20344 3.44099 3.32434
# Velocity P-wave (km/s) = 6.39865 6.72130 6.56196
#
# Compressibility (1/GPa) = 0.02467240
#
# Stress axis : x y z
#
# Youngs Moduli (GPa) = 28.01480 38.53712 38.05077
#
# Poissons Ratio (x) = 0.67511 0.69370
# Poissons Ratio (y) = 0.49077 -0.15688
# Poissons Ratio (z) = 0.51074 -0.15888
#
# Static dielectric constant tensor:
#      x y z
#    x 1.489550 0.000000 0.000000 
#    y 0.000000 1.478160 0.000000 
#    z 0.000000 0.000000 1.498480 
# 
# From -- ./inp_files/39469.got.cif
#   From: 2010.05.17/outbox.cif.g08.bks.cpg/sg71_20_cif.got.tgz:39469.got - 2010.06.03 16:22:01.
