data_PCOD9517643
_publ_section_title
;
Structure prediction by ZEFSAII (Michael W. Deem and Ramdas Pophale) SiO2 
 PCOD9517643
Probable space group: I M M M
;
_chemical_formula_sum "Si O2"
_cell_formula_units_Z 120
_cell_length_a 14.301194
_cell_length_b 19.751995
_cell_length_c 26.742116
_cell_angle_alpha 90.000000
_cell_angle_beta 90.000000
_cell_angle_gamma 90.000000
_cell_volume 7554.035707
_symmetry_space_group_name_H-M "I M M M"
_symmetry_group_IT_number 71
_symmetry_cell_setting 'orthorhombic'
loop_
_space_group_symop_operation_xyz
x,y,z
-x,-y,z
x,-y,-z
-x,y,-z
-x,-y,-z
x,y,-z
-x,y,z
x,-y,z
1/2+x,1/2+y,1/2+z
1/2-x,1/2-y,1/2+z
1/2+x,1/2-y,1/2-z
1/2-x,1/2+y,1/2-z
1/2-x,1/2-y,1/2-z
1/2+x,1/2+y,1/2-z
1/2-x,1/2+y,1/2+z
1/2+x,1/2-y,1/2+z
loop_
_atom_site_type_symbol
_atom_site_label
_atom_site_fract_x
_atom_site_fract_y
_atom_site_fract_z
Si Si1 0.891669 0.150691 0.560231
Si Si2 0.113280 0.000000 0.442616
Si Si3 0.611983 0.073030 0.226074
Si Si4 0.892621 0.077319 0.250405
Si Si5 0.723881 0.074577 0.672919
Si Si6 0.611010 0.777451 0.211670
Si Si7 0.243720 0.214198 0.368664
Si Si8 0.390008 0.705464 0.316432
O O1 0.888825 0.149366 0.500000
O O2 0.820512 0.205037 0.582709
O O3 0.000000 0.163267 0.574882
O O4 0.864657 0.074330 0.578922
O O5 0.148215 0.000000 0.500000
O O6 0.000000 0.000000 0.444731
O O7 0.500000 0.073141 0.224898
O O8 0.647449 0.075200 0.282861
O O9 0.640710 0.144671 0.202753
O O10 0.645011 0.000000 0.205154
O O11 0.821587 0.081156 0.296525
O O12 0.869883 0.132078 0.207880
O O13 0.000000 0.090798 0.266411
O O14 0.887563 0.000000 0.231753
O O15 0.710714 0.140680 0.640082
O O16 0.720569 0.000000 0.648812
O O17 0.500000 0.770197 0.202691
O O18 0.670753 0.730320 0.175890
O O19 0.627088 0.756344 0.269320
O O20 0.323510 0.270427 0.361113
O O21 0.500000 0.708308 0.328961
#
# Coordination Sequence:
#
# PCOD9517643 Si02
#       8
#    16   8  16  16  16  16  16  16
#     4   9  19  34  49  67  90 114 144 184 228 270
#     4   7  12  28  50  66  85 113 141 177 226 270
#     4   9  17  29  42  55  81 121 155 183 213 246
#     4   9  17  29  42  57  87 126 153 177 214 258
#     4  10  19  27  37  59  86 113 152 188 214 253
#     4  10  18  28  42  63  90 117 146 180 220 263
#     4  12  20  28  46  65  87 118 152 186 225 264
#     4  10  19  30  43  63  92 122 151 184 219 259
#
# _framework density 15.885548
#
# number of rings (size 3 to 8) (size 9 to 14) (size 15 to 20)
#    0.000    2.333    2.667    2.400    0.933    0.533 
#    0.000    0.000    0.000    0.400    0.000    0.000 
#    0.000    3.733    0.000   12.800    0.000    0.000 
#
# Total GULP energy -334146.339894 kJ/mol
# GULP energy per Si atom -5569.105665 kJ/mol
# Density = 1.584939 g / cm^3
# Si number density = 15.885548 Si / 1000 Ang^3
#
#
#
# Elastic Constant Matrix: (Units=GPa)
#
#
# Indices 1 2 3 4 5 6 
#
# 1 33.2500 6.2416 11.0414 0.0000 0.0000 0.0000
# 2 6.2416 89.1409 4.3953 0.0000 0.0000 0.0000
# 3 11.0414 4.3953 18.4411 0.0000 0.0000 0.0000
# 4 0.0000 0.0000 0.0000 18.1897 0.0000 0.0000
# 5 0.0000 0.0000 0.0000 0.0000 15.4554 0.0000
# 6 0.0000 0.0000 0.0000 0.0000 0.0000 17.9008
#
#
#
# Elastic Compliance Matrix: (Units=1/GPa)
#
#
# Indices 1 2 3 4 5 6 
#
# 1 0.037748 -0.001547 -0.022233 0.000000 0.000000 0.000000
# 2 -0.001547 0.011415 -0.001795 0.000000 0.000000 0.000000
# 3 -0.022233 -0.001795 0.067966 0.000000 0.000000 0.000000
# 4 0.000000 0.000000 0.000000 0.054976 0.000000 0.000000
# 5 0.000000 0.000000 0.000000 0.000000 0.064702 0.000000
# 6 0.000000 0.000000 0.000000 0.000000 0.000000 0.055864
#
#
# Mechanical properties :
#
#
# Convention : Reuss Voigt Hill
#
# Bulk Modulus (GPa) = 15.15586 20.46540 17.81063
# Shear Modulus (GPa) = 13.66819 18.25276 15.96048
#
# Velocity S-wave (km/s) = 2.93647 3.39339 3.17317
# Velocity P-wave (km/s) = 4.58895 5.31643 4.96603
#
# Compressibility (1/GPa) = 0.06598108
#
# Stress axis : x y z
#
# Youngs Moduli (GPa) = 26.49125 87.60415 14.71330
#
# Poissons Ratio (x) = 0.13551 0.32711
# Poissons Ratio (y) = 0.04098 0.02640
# Poissons Ratio (z) = 0.58897 0.15721
#
# Static dielectric constant tensor:
#      x y z
#    x 1.579050 0.000000 0.000000 
#    y 0.000000 1.597740 0.000000 
#    z 0.000000 0.000000 1.502440 
# 
# From -- ./inp_files/39640.got.cif
#   From: 2010.05.17/outbox.cif.g08.bks.cpg/sg71_20_cif.got.tgz:39640.got - 2010.06.03 16:22:01.
