data_PCOD9517507
_publ_section_title
;
Structure prediction by ZEFSAII (Michael W. Deem and Ramdas Pophale) SiO2 
 PCOD9517507
Probable space group: I M M M
;
_chemical_formula_sum "Si O2"
_cell_formula_units_Z 52
_cell_length_a 8.383984
_cell_length_b 14.981248
_cell_length_c 21.052797
_cell_angle_alpha 90.000000
_cell_angle_beta 90.000000
_cell_angle_gamma 90.000000
_cell_volume 2644.284852
_symmetry_space_group_name_H-M "I M M M"
_symmetry_group_IT_number 71
_symmetry_cell_setting 'orthorhombic'
loop_
_space_group_symop_operation_xyz
x,y,z
-x,-y,z
x,-y,-z
-x,y,-z
-x,-y,-z
x,y,-z
-x,y,z
x,-y,z
1/2+x,1/2+y,1/2+z
1/2-x,1/2-y,1/2+z
1/2+x,1/2-y,1/2-z
1/2-x,1/2+y,1/2-z
1/2-x,1/2-y,1/2-z
1/2+x,1/2+y,1/2-z
1/2-x,1/2+y,1/2+z
1/2+x,1/2-y,1/2+z
loop_
_atom_site_type_symbol
_atom_site_label
_atom_site_fract_x
_atom_site_fract_y
_atom_site_fract_z
Si Si1 0.289857 0.500000 0.500000
Si Si2 0.810247 0.500000 0.276753
Si Si3 0.686931 0.500000 0.136110
Si Si4 0.190055 0.681391 0.925768
Si Si5 0.811383 0.630377 0.610598
O O1 0.281656 0.422532 0.555683
O O2 0.717238 0.500000 0.211429
O O3 0.776054 0.414930 0.321782
O O4 0.000000 0.500000 0.262748
O O5 0.500000 0.500000 0.122249
O O6 0.763275 0.588475 0.106146
O O7 0.272943 0.765789 0.892814
O O8 0.000000 0.693303 0.922005
O O9 0.236705 0.680407 0.000000
O O10 0.000000 0.614397 0.597334
#
# Coordination Sequence:
#
# PCOD9517507 Si02
#       5
#     4   8   8  16  16
#     4  10  17  32  61  94 127 156 191 244 293 348
#     4   9  21  40  62  91 125 164 201 245 302 354
#     4  12  26  43  64  85 114 162 212 256 299 356
#     4  11  24  41  62  91 124 159 197 250 310 359
#     4  10  19  35  63  94 124 159 200 244 296 358
#
# _framework density 19.665051999999999
#
# number of rings (size 3 to 8) (size 9 to 14) (size 15 to 20)
#    0.000    1.538    1.538    5.077    0.000    6.154 
#    0.000    3.077    0.000    0.000    0.000    0.000 
#    0.000    0.000    0.000    0.000    0.000    0.000 
#
# Total GULP energy -144837.393208 kJ/mol
# GULP energy per Si atom -5570.668970 kJ/mol
# Density = 1.962029 g / cm^3
# Si number density = 19.665052 Si / 1000 Ang^3
#
#
#
# Elastic Constant Matrix: (Units=GPa)
#
#
# Indices 1 2 3 4 5 6 
#
# 1 31.6178 11.5020 16.4941 0.0000 0.0000 0.0000
# 2 11.5020 172.5294 43.4148 0.0000 0.0000 0.0000
# 3 16.4941 43.4148 72.6541 0.0000 0.0000 0.0000
# 4 0.0000 0.0000 0.0000 18.2824 0.0000 0.0000
# 5 0.0000 0.0000 0.0000 0.0000 12.7063 0.0000
# 6 0.0000 0.0000 0.0000 0.0000 0.0000 140.3518
#
#
#
# Elastic Compliance Matrix: (Units=1/GPa)
#
#
# Indices 1 2 3 4 5 6 
#
# 1 0.035900 -0.000403 -0.007909 0.000000 0.000000 0.000000
# 2 -0.000403 0.006826 -0.003988 0.000000 0.000000 0.000000
# 3 -0.007909 -0.003988 0.017942 0.000000 0.000000 0.000000
# 4 0.000000 0.000000 0.000000 0.054697 0.000000 0.000000
# 5 0.000000 0.000000 0.000000 0.000000 0.078701 0.000000
# 6 0.000000 0.000000 0.000000 0.000000 0.000000 0.007125
#
#
# Mechanical properties :
#
#
# Convention : Reuss Voigt Hill
#
# Bulk Modulus (GPa) = 27.72464 46.62480 37.17472
# Shear Modulus (GPa) = 21.02467 47.96079 34.49273
#
# Velocity S-wave (km/s) = 3.27332 4.94386 4.19264
# Velocity P-wave (km/s) = 5.33059 7.50666 6.51019
#
# Compressibility (1/GPa) = 0.03606900
#
# Stress axis : x y z
#
# Youngs Moduli (GPa) = 27.85479 146.48944 55.73425
#
# Poissons Ratio (x) = 0.05905 0.44082
# Poissons Ratio (y) = 0.01123 0.22225
# Poissons Ratio (z) = 0.22031 0.58415
#
# Static dielectric constant tensor:
#      x y z
#    x 1.720110 0.000000 0.000000 
#    y 0.000000 1.665620 0.000000 
#    z 0.000000 0.000000 1.650360 
# 
# From -- ./inp_files/49791.got.cif
#   From: 2010.05.17/outbox.cif.g08.bks.cpg/sg71_25_cif.got.tgz:49791.got - 2010.06.03 16:22:01.
