data_PCOD9517417
_publ_section_title
;
Structure prediction by ZEFSAII (Michael W. Deem and Ramdas Pophale) SiO2 
 PCOD9517417
Probable space group: I M M M
;
_chemical_formula_sum "Si O2"
_cell_formula_units_Z 88
_cell_length_a 23.444388
_cell_length_b 25.277337
_cell_length_c 8.445688
_cell_angle_alpha 90.000000
_cell_angle_beta 90.000000
_cell_angle_gamma 90.000000
_cell_volume 5005.013492
_symmetry_space_group_name_H-M "I M M M"
_symmetry_group_IT_number 71
_symmetry_cell_setting 'orthorhombic'
loop_
_space_group_symop_operation_xyz
x,y,z
-x,-y,z
x,-y,-z
-x,y,-z
-x,-y,-z
x,y,-z
-x,y,z
x,-y,z
1/2+x,1/2+y,1/2+z
1/2-x,1/2-y,1/2+z
1/2+x,1/2-y,1/2-z
1/2-x,1/2+y,1/2-z
1/2-x,1/2-y,1/2-z
1/2+x,1/2+y,1/2-z
1/2-x,1/2+y,1/2+z
1/2+x,1/2-y,1/2+z
loop_
_atom_site_type_symbol
_atom_site_label
_atom_site_fract_x
_atom_site_fract_y
_atom_site_fract_z
Si Si1 0.651600 0.939286 0.691236
Si Si2 0.565914 0.264030 0.689252
Si Si3 0.388894 0.372486 0.808626
Si Si4 0.934456 0.351040 0.310773
Si Si5 0.718650 0.560627 0.807030
Si Si6 0.000000 0.938892 0.693235
O O1 0.650532 0.937933 0.500000
O O2 0.606502 0.897591 0.754526
O O3 0.716649 0.926642 0.742160
O O4 0.639269 0.000000 0.739566
O O5 0.566259 0.264624 0.500000
O O6 0.500000 0.271480 0.744325
O O7 0.602323 0.312795 0.752465
O O8 0.584550 0.206310 0.747666
O O9 0.330486 0.399777 0.752882
O O10 0.443383 0.407455 0.756170
O O11 0.388864 0.372936 0.000000
O O12 0.934788 0.349389 0.500000
O O13 0.000000 0.359310 0.255309
O O14 0.705828 0.500000 0.760118
O O15 0.718320 0.561243 0.000000
O O16 0.000000 0.939314 0.500000
O O17 0.000000 0.000000 0.744751
#
# Coordination Sequence:
#
# PCOD9517417 Si02
#       6
#    16  16  16  16  16   8
#     4   9  18  34  55  78 105 136 167 199 243 301
#     4  10  20  34  51  71 100 136 171 208 255 308
#     4  10  17  28  49  75 102 133 173 215 252 291
#     4  10  21  36  55  78 102 127 162 209 256 301
#     4   8  15  29  50  75 103 136 172 209 247 291
#     4   9  16  24  41  73 105 131 166 213 254 289
#
# _framework density 17.582370000000001
#
# number of rings (size 3 to 8) (size 9 to 14) (size 15 to 20)
#    0.000    2.636    0.909    2.727    0.000    4.727 
#    0.000    3.636    0.000    3.818    0.000    0.000 
#    0.000    0.000    0.000    0.000    0.000    0.000 
#
# Total GULP energy -245389.998116 kJ/mol
# GULP energy per Si atom -5577.045412 kJ/mol
# Density = 1.754235 g / cm^3
# Si number density = 17.582370 Si / 1000 Ang^3
#
#
#
# Elastic Constant Matrix: (Units=GPa)
#
#
# Indices 1 2 3 4 5 6 
#
# 1 121.3654 116.9061 22.0189 0.0000 0.0000 0.0000
# 2 116.9061 173.4198 25.4587 0.0000 0.0000 0.0000
# 3 22.0189 25.4587 12.7933 0.0000 0.0000 0.0000
# 4 0.0000 0.0000 0.0000 24.8890 0.0000 0.0000
# 5 0.0000 0.0000 0.0000 0.0000 14.1277 0.0000
# 6 0.0000 0.0000 0.0000 0.0000 0.0000 28.0808
#
#
#
# Elastic Compliance Matrix: (Units=1/GPa)
#
#
# Indices 1 2 3 4 5 6 
#
# 1 0.025030 -0.014903 -0.013424 0.000000 0.000000 0.000000
# 2 -0.014903 0.017019 -0.008219 0.000000 0.000000 0.000000
# 3 -0.013424 -0.008219 0.117625 0.000000 0.000000 0.000000
# 4 0.000000 0.000000 0.000000 0.040178 0.000000 0.000000
# 5 0.000000 0.000000 0.000000 0.000000 0.070783 0.000000
# 6 0.000000 0.000000 0.000000 0.000000 0.000000 0.035612
#
#
# Mechanical properties :
#
#
# Convention : Reuss Voigt Hill
#
# Bulk Modulus (GPa) = 11.54942 70.70509 41.12725
# Shear Modulus (GPa) = 12.24892 22.96581 17.60736
#
# Velocity S-wave (km/s) = 2.64229 3.61804 3.16796
# Velocity P-wave (km/s) = 3.98647 7.59964 6.06822
#
# Compressibility (1/GPa) = 0.08658445
#
# Stress axis : x y z
#
# Youngs Moduli (GPa) = 39.95173 58.75739 8.50157
#
# Poissons Ratio (x) = 0.87565 0.11412
# Poissons Ratio (y) = 0.59539 0.06987
# Poissons Ratio (z) = 0.53631 0.48290
#
# Static dielectric constant tensor:
#      x y z
#    x 1.597830 0.000000 0.000000 
#    y 0.000000 1.571700 0.000000 
#    z 0.000000 0.000000 1.610050 
# 
# From -- ./inp_files/10480.got.cif
#   From: 2010.05.17/outbox.cif.g08.bks.cpg/sg71_6_cif.got.tgz:10480.got - 2010.06.03 16:22:01.
