data_PCOD9517595
_publ_section_title
;
Structure prediction by ZEFSAII (Michael W. Deem and Ramdas Pophale) SiO2 
 PCOD9517595
Probable space group: I M M M
;
_chemical_formula_sum "Si O2"
_cell_formula_units_Z 88
_cell_length_a 21.149207
_cell_length_b 27.933699
_cell_length_c 7.502234
_cell_angle_alpha 90.000000
_cell_angle_beta 90.000000
_cell_angle_gamma 90.000000
_cell_volume 4432.136661
_symmetry_space_group_name_H-M "I M M M"
_symmetry_group_IT_number 71
_symmetry_cell_setting 'orthorhombic'
loop_
_space_group_symop_operation_xyz
x,y,z
-x,-y,z
x,-y,-z
-x,y,-z
-x,-y,-z
x,y,-z
-x,y,z
x,-y,z
1/2+x,1/2+y,1/2+z
1/2-x,1/2-y,1/2+z
1/2+x,1/2-y,1/2-z
1/2-x,1/2+y,1/2-z
1/2-x,1/2-y,1/2-z
1/2+x,1/2+y,1/2-z
1/2-x,1/2+y,1/2+z
1/2+x,1/2-y,1/2+z
loop_
_atom_site_type_symbol
_atom_site_label
_atom_site_fract_x
_atom_site_fract_y
_atom_site_fract_z
Si Si1 0.500000 0.058510 0.294359
Si Si2 0.236342 0.368694 0.795852
Si Si3 0.638770 0.211388 0.789350
Si Si4 0.500000 0.219275 0.290673
Si Si5 0.363068 0.677832 0.780458
Si Si6 0.000000 0.829349 0.701902
Si Si7 0.862151 0.444564 0.218983
O O1 0.500000 0.075242 0.500000
O O2 0.431832 0.071881 0.217511
O O3 0.500000 0.000000 0.297199
O O4 0.190292 0.322790 0.796009
O O5 0.303322 0.352646 0.718300
O O6 0.194214 0.411050 0.716090
O O7 0.249583 0.382763 0.000000
O O8 0.566481 0.195018 0.755302
O O9 0.643866 0.266482 0.726701
O O10 0.650056 0.210728 0.000000
O O11 0.500000 0.228614 0.500000
O O12 0.500000 0.271072 0.195907
O O13 0.431591 0.659107 0.718651
O O14 0.364006 0.678240 0.000000
O O15 0.000000 0.848010 0.500000
O O16 0.853224 0.500000 0.266504
O O17 0.864088 0.442340 0.000000
#
# Coordination Sequence:
#
# PCOD9517595 Si02
#       7
#     8  16  16   8  16   8  16
#     4   7  10  19  34  51  74 104 131 156 197 247
#     4  10  18  27  42  65  86 107 144 184 216 255
#     4  10  19  31  43  58  87 121 146 171 213 259
#     4  10  18  29  45  64  84 111 150 186 210 237
#     4   8  15  27  43  61  82 111 144 177 211 255
#     4   8  14  28  45  59  81 113 144 174 216 260
#     4   8  14  24  38  57  82 109 138 178 222 256
#
# _framework density 19.854984999999999
#
# number of rings (size 3 to 8) (size 9 to 14) (size 15 to 20)
#    0.000    3.182    0.000    4.091    0.000    0.727 
#    0.000    5.455    0.000    0.545    0.000    0.636 
#    0.000    8.727    0.000    0.000    0.000   16.727 
#
# Total GULP energy -245297.121594 kJ/mol
# GULP energy per Si atom -5574.934582 kJ/mol
# Density = 1.980979 g / cm^3
# Si number density = 19.854985 Si / 1000 Ang^3
#
#
#
# Elastic Constant Matrix: (Units=GPa)
#
#
# Indices 1 2 3 4 5 6 
#
# 1 211.2248 75.0013 -6.0368 0.0000 0.0000 0.0000
# 2 75.0013 69.7941 1.6752 0.0000 0.0000 0.0000
# 3 -6.0368 1.6752 60.7808 0.0000 0.0000 0.0000
# 4 0.0000 0.0000 0.0000 1.5028 0.0000 0.0000
# 5 0.0000 0.0000 0.0000 0.0000 -1.8979 0.0000
# 6 0.0000 0.0000 0.0000 0.0000 0.0000 1142.8504
#
#
#
# Elastic Compliance Matrix: (Units=1/GPa)
#
#
# Indices 1 2 3 4 5 6 
#
# 1 0.007715 -0.008315 0.000995 0.000000 0.000000 0.000000
# 2 -0.008315 0.023298 -0.001468 0.000000 0.000000 0.000000
# 3 0.000995 -0.001468 0.016592 0.000000 0.000000 0.000000
# 4 0.000000 0.000000 0.000000 0.665438 0.000000 0.000000
# 5 0.000000 0.000000 0.000000 0.000000 -0.526903 0.000000
# 6 0.000000 0.000000 0.000000 0.000000 0.000000 0.000875
#
#
# Mechanical properties :
#
#
# Convention : Reuss Voigt Hill
#
# Bulk Modulus (GPa) = 33.29914 53.67546 43.48730
# Shear Modulus (GPa) = 23.29926 246.56839 134.93382
#
# Velocity S-wave (km/s) = 3.42931 11.15591 8.25271
# Velocity P-wave (km/s) = 5.69981 13.89357 10.61883
#
# Compressibility (1/GPa) = 0.03003081
#
# Stress axis : x y z
#
# Youngs Moduli (GPa) = 129.61654 42.92212 60.27043
#
# Poissons Ratio (x) = 0.35688 -0.05999
# Poissons Ratio (y) = 1.07771 0.08847
# Poissons Ratio (z) = -0.12902 0.06301
#
# Static dielectric constant tensor:
#      x y z
#    x 1.745140 0.000000 0.000000 
#    y 0.000000 1.674510 0.000000 
#    z 0.000000 0.000000 1.746430 
# 
# From -- ./inp_files/11426.got.cif
#   From: 2010.05.17/outbox.cif.g08.bks.cpg/sg71_6_cif.got.tgz:11426.got - 2010.06.03 16:22:01.
