data_PCOD9517503
_publ_section_title
;
Structure prediction by ZEFSAII (Michael W. Deem and Ramdas Pophale) SiO2 
 PCOD9517503
Probable space group: I M M M
;
_chemical_formula_sum "Si O2"
_cell_formula_units_Z 72
_cell_length_a 18.561979
_cell_length_b 7.884609
_cell_length_c 24.159353
_cell_angle_alpha 90.000000
_cell_angle_beta 90.000000
_cell_angle_gamma 90.000000
_cell_volume 3535.816661
_symmetry_space_group_name_H-M "I M M M"
_symmetry_group_IT_number 71
_symmetry_cell_setting 'orthorhombic'
loop_
_space_group_symop_operation_xyz
x,y,z
-x,-y,z
x,-y,-z
-x,y,-z
-x,-y,-z
x,y,-z
-x,y,z
x,-y,z
1/2+x,1/2+y,1/2+z
1/2-x,1/2-y,1/2+z
1/2+x,1/2-y,1/2-z
1/2-x,1/2+y,1/2-z
1/2-x,1/2-y,1/2-z
1/2+x,1/2+y,1/2-z
1/2-x,1/2+y,1/2+z
1/2+x,1/2-y,1/2+z
loop_
_atom_site_type_symbol
_atom_site_label
_atom_site_fract_x
_atom_site_fract_y
_atom_site_fract_z
Si Si1 0.881170 0.206140 0.500000
Si Si2 0.218314 0.803139 0.000000
Si Si3 0.920241 0.793573 0.374473
Si Si4 0.726889 0.294336 0.187849
Si Si5 0.500000 0.301821 0.437053
Si Si6 0.851204 0.307172 0.888921
O O1 0.803372 0.290437 0.500000
O O2 0.914427 0.251662 0.559946
O O3 0.875224 0.000000 0.500000
O O4 0.188594 0.707322 0.052766
O O5 0.193972 0.000000 0.000000
O O6 0.850222 0.736273 0.338541
O O7 0.000000 0.738593 0.354429
O O8 0.919167 0.000000 0.372598
O O9 0.724748 0.500000 0.182906
O O10 0.750000 0.250000 0.250000
O O11 0.793974 0.224108 0.152151
O O12 0.500000 0.500000 0.445398
O O13 0.500000 0.223503 0.500000
O O14 0.570194 0.260863 0.401544
O O15 0.860595 0.500000 0.870824
#
# Coordination Sequence:
#
# PCOD9517503 Si02
#       6
#     8   8  16  16   8  16
#     4  10  17  32  57  87 117 148 185 227 287 356
#     4  12  22  32  54  87 119 154 192 238 291 347
#     4   9  17  32  58  90 117 143 185 237 283 336
#     4  10  22  40  61  84 113 153 200 244 287 341
#     4  11  23  37  57  93 128 152 188 239 298 355
#     4  11  22  39  61  84 114 157 200 240 292 355
#
# _framework density 20.363047000000002
#
# number of rings (size 3 to 8) (size 9 to 14) (size 15 to 20)
#    0.000    1.667    3.333    2.333    0.000    3.556 
#    2.000    0.000    0.000    2.667    0.000    0.000 
#    0.000    0.000    0.000    0.000    0.000    0.000 
#
# Total GULP energy -200623.322724 kJ/mol
# GULP energy per Si atom -5572.870076 kJ/mol
# Density = 2.031670 g / cm^3
# Si number density = 20.363047 Si / 1000 Ang^3
#
#
#
# Elastic Constant Matrix: (Units=GPa)
#
#
# Indices 1 2 3 4 5 6 
#
# 1 224.4230 18.0010 92.6033 0.0000 0.0000 0.0000
# 2 18.0010 24.4773 -8.9640 0.0000 0.0000 0.0000
# 3 92.6033 -8.9640 142.2572 0.0000 0.0000 0.0000
# 4 0.0000 0.0000 0.0000 29.7225 0.0000 0.0000
# 5 0.0000 0.0000 0.0000 0.0000 -10.4731 0.0000
# 6 0.0000 0.0000 0.0000 0.0000 0.0000 28.7731
#
#
#
# Elastic Compliance Matrix: (Units=1/GPa)
#
#
# Indices 1 2 3 4 5 6 
#
# 1 0.007123 -0.007101 -0.005084 0.000000 0.000000 0.000000
# 2 -0.007101 0.048897 0.007703 0.000000 0.000000 0.000000
# 3 -0.005084 0.007703 0.010825 0.000000 0.000000 0.000000
# 4 0.000000 0.000000 0.000000 0.033645 0.000000 0.000000
# 5 0.000000 0.000000 0.000000 0.000000 -0.095483 0.000000
# 6 0.000000 0.000000 0.000000 0.000000 0.000000 0.034755
#
#
# Mechanical properties :
#
#
# Convention : Reuss Voigt Hill
#
# Bulk Modulus (GPa) = 17.27660 66.04869 41.66265
# Shear Modulus (GPa) = 73.50870 28.90566 51.20718
#
# Velocity S-wave (km/s) = 6.01477 3.77173 5.02013
# Velocity P-wave (km/s) = 7.53255 7.17453 7.35572
#
# Compressibility (1/GPa) = 0.05788176
#
# Stress axis : x y z
#
# Youngs Moduli (GPa) = 140.38207 20.45107 92.38124
#
# Poissons Ratio (x) = 0.14522 0.46971
# Poissons Ratio (y) = 0.99681 -0.71165
# Poissons Ratio (z) = 0.71377 -0.15754
#
# Static dielectric constant tensor:
#      x y z
#    x 1.779650 0.000000 0.000000 
#    y 0.000000 1.739650 0.000000 
#    z 0.000000 0.000000 1.776090 
# 
# From -- ./inp_files/60398.got.cif
#   From: 2010.05.17/outbox.cif.g08.bks.cpg/sg71_31_cif.got.tgz:60398.got - 2010.06.03 16:22:01.
