data_PCOD9517400
_publ_section_title
;
Structure prediction by ZEFSAII (Michael W. Deem and Ramdas Pophale) SiO2 
 PCOD9517400
Probable space group: I M M M
;
_chemical_formula_sum "Si O2"
_cell_formula_units_Z 120
_cell_length_a 18.643263
_cell_length_b 12.654442
_cell_length_c 31.165247
_cell_angle_alpha 90.000000
_cell_angle_beta 90.000000
_cell_angle_gamma 90.000000
_cell_volume 7352.507887
_symmetry_space_group_name_H-M "I M M M"
_symmetry_group_IT_number 71
_symmetry_cell_setting 'orthorhombic'
loop_
_space_group_symop_operation_xyz
x,y,z
-x,-y,z
x,-y,-z
-x,y,-z
-x,-y,-z
x,y,-z
-x,y,z
x,-y,z
1/2+x,1/2+y,1/2+z
1/2-x,1/2-y,1/2+z
1/2+x,1/2-y,1/2-z
1/2-x,1/2+y,1/2-z
1/2-x,1/2-y,1/2-z
1/2+x,1/2+y,1/2-z
1/2-x,1/2+y,1/2+z
1/2+x,1/2-y,1/2+z
loop_
_atom_site_type_symbol
_atom_site_label
_atom_site_fract_x
_atom_site_fract_y
_atom_site_fract_z
Si Si1 0.580289 0.872579 0.000000
Si Si2 0.166276 0.372216 0.586057
Si Si3 0.178254 0.216804 0.798715
Si Si4 0.196170 0.121996 0.293086
Si Si5 0.178345 0.871900 0.049382
Si Si6 0.581854 0.627420 0.374314
Si Si7 0.416396 0.884105 0.250032
Si Si8 0.584341 0.760509 0.163324
O O1 0.622735 0.846154 0.957156
O O2 0.500000 0.829334 0.000000
O O3 0.576042 0.000000 0.000000
O O4 0.161519 0.500000 0.594089
O O5 0.248602 0.345744 0.574913
O O6 0.129829 0.306406 0.623928
O O7 0.194576 0.138396 0.758785
O O8 0.247702 0.288271 0.808894
O O9 0.139064 0.163415 0.838611
O O10 0.123042 0.299813 0.778607
O O11 0.121555 0.157850 0.315220
O O12 0.212926 0.000000 0.302805
O O13 0.111722 0.838822 0.079042
O O14 0.177437 0.000000 0.047043
O O15 0.178405 0.833781 0.000000
O O16 0.500000 0.663925 0.366279
O O17 0.580728 0.500000 0.373698
O O18 0.500000 0.885882 0.261045
O O19 0.411187 0.848203 0.200874
O O20 0.384725 0.000000 0.255758
O O21 0.500000 0.744812 0.153051
#
# Coordination Sequence:
#
# PCOD9517400 Si02
#       8
#     8  16  16  16  16  16  16  16
#     4   9  16  24  38  64  96 130 164 201 252 304
#     4  10  17  28  46  69 100 135 167 205 248 293
#     4  10  19  33  51  72  97 125 164 208 244 287
#     4  10  21  35  51  70  95 129 167 207 252 295
#     4   9  17  30  46  66  96 133 167 195 233 288
#     4  10  20  32  49  74 103 135 166 196 234 285
#     4   9  17  29  45  67  97 131 162 196 241 287
#     4  10  20  31  45  68  97 132 172 206 241 291
#
# _framework density 16.320962000000002
#
# number of rings (size 3 to 8) (size 9 to 14) (size 15 to 20)
#    0.000    2.333    0.667    2.800    0.000    2.400 
#    0.000    5.333    0.000    0.000    0.000    0.467 
#    0.000    3.200    0.000    9.867    0.000    0.667 
#
# Total GULP energy -334271.611351 kJ/mol
# GULP energy per Si atom -5571.193523 kJ/mol
# Density = 1.628381 g / cm^3
# Si number density = 16.320962 Si / 1000 Ang^3
#
#
#
# Elastic Constant Matrix: (Units=GPa)
#
#
# Indices 1 2 3 4 5 6 
#
# 1 87.2292 19.3631 43.2284 0.0000 0.0000 0.0000
# 2 19.3631 43.7064 14.6270 0.0000 0.0000 0.0000
# 3 43.2284 14.6270 80.1948 0.0000 0.0000 0.0000
# 4 0.0000 0.0000 0.0000 8.1907 0.0000 0.0000
# 5 0.0000 0.0000 0.0000 0.0000 24.6902 0.0000
# 6 0.0000 0.0000 0.0000 0.0000 0.0000 14.8176
#
#
#
# Elastic Compliance Matrix: (Units=1/GPa)
#
#
# Indices 1 2 3 4 5 6 
#
# 1 0.016470 -0.004607 -0.008038 0.000000 0.000000 0.000000
# 2 -0.004607 0.025656 -0.002196 0.000000 0.000000 0.000000
# 3 -0.008038 -0.002196 0.017203 0.000000 0.000000 0.000000
# 4 0.000000 0.000000 0.000000 0.122089 0.000000 0.000000
# 5 0.000000 0.000000 0.000000 0.000000 0.040502 0.000000
# 6 0.000000 0.000000 0.000000 0.000000 0.000000 0.067487
#
#
# Mechanical properties :
#
#
# Convention : Reuss Voigt Hill
#
# Bulk Modulus (GPa) = 33.72989 40.61860 37.17424
# Shear Modulus (GPa) = 15.19891 18.46716 16.83304
#
# Velocity S-wave (km/s) = 3.05495 3.36743 3.21499
# Velocity P-wave (km/s) = 5.75805 6.32936 6.05045
#
# Compressibility (1/GPa) = 0.02964729
#
# Stress axis : x y z
#
# Youngs Moduli (GPa) = 60.71674 38.97748 58.12966
#
# Poissons Ratio (x) = 0.17956 0.46723
# Poissons Ratio (y) = 0.27970 0.12767
# Poissons Ratio (z) = 0.48803 0.08560
#
# Static dielectric constant tensor:
#      x y z
#    x 1.599940 0.000000 0.000000 
#    y 0.000000 1.519270 0.000000 
#    z 0.000000 0.000000 1.549560 
# 
# From -- ./inp_files/66621.got.cif
#   From: 2010.05.17/outbox.cif.g08.bks.cpg/sg71_34_cif.got.tgz:66621.got - 2010.06.03 16:22:01.
