data_PCOD9517426
_publ_section_title
;
Structure prediction by ZEFSAII (Michael W. Deem and Ramdas Pophale) SiO2 
 PCOD9517426
Probable space group: I M M M
;
_chemical_formula_sum "Si O2"
_cell_formula_units_Z 82
_cell_length_a 22.777266
_cell_length_b 7.554291
_cell_length_c 24.185174
_cell_angle_alpha 90.000000
_cell_angle_beta 90.000000
_cell_angle_gamma 90.000000
_cell_volume 4161.448460
_symmetry_space_group_name_H-M "I M M M"
_symmetry_group_IT_number 71
_symmetry_cell_setting 'orthorhombic'
loop_
_space_group_symop_operation_xyz
x,y,z
-x,-y,z
x,-y,-z
-x,y,-z
-x,-y,-z
x,y,-z
-x,y,z
x,-y,z
1/2+x,1/2+y,1/2+z
1/2-x,1/2-y,1/2+z
1/2+x,1/2-y,1/2-z
1/2-x,1/2+y,1/2-z
1/2-x,1/2-y,1/2-z
1/2+x,1/2+y,1/2-z
1/2-x,1/2+y,1/2+z
1/2+x,1/2-y,1/2+z
loop_
_atom_site_type_symbol
_atom_site_label
_atom_site_fract_x
_atom_site_fract_y
_atom_site_fract_z
Si Si1 0.569679 0.500000 0.933784
Si Si2 0.000000 0.000000 0.000000
Si Si3 0.254239 0.210581 0.685320
Si Si4 0.730377 0.208207 0.000000
Si Si5 0.849097 0.700921 0.605506
Si Si6 0.627708 0.214700 0.622176
Si Si7 0.500000 0.215269 0.603721
Si Si8 0.858425 0.304309 0.000000
O O1 0.500000 0.500000 0.930884
O O2 0.597569 0.333547 0.902027
O O3 0.585108 0.500000 0.000000
O O4 0.000000 0.841331 0.049304
O O5 0.250000 0.250000 0.750000
O O6 0.195262 0.282039 0.656652
O O7 0.315568 0.276910 0.657104
O O8 0.253401 0.000000 0.677092
O O9 0.692795 0.243806 0.946233
O O10 0.788744 0.318023 0.000000
O O11 0.746348 0.000000 0.000000
O O12 0.869636 0.500000 0.600806
O O13 0.560166 0.250538 0.638074
O O14 0.629150 0.283263 0.558722
O O15 0.633832 0.000000 0.619598
O O16 0.500000 0.000000 0.590591
O O17 0.886321 0.500000 0.000000
#
# Coordination Sequence:
#
# PCOD9517426 Si02
#       8
#     8   2  16   8  16  16   8   8
#     4  11  24  40  66  97 133 175 207 247 314 393
#     4  12  22  36  56  94 124 176 214 228 298 376
#     4  11  22  39  63  93 122 161 214 274 329 378
#     4  10  20  31  50  87 121 157 194 245 311 367
#     4  11  22  39  62  92 127 164 209 261 315 377
#     4   9  19  35  59  82 116 163 203 245 310 366
#     4  10  21  41  57  80 127 171 208 254 292 361
#     4  10  17  28  52  84 111 149 195 237 294 370
#
# _framework density 19.704678000000001
#
# number of rings (size 3 to 8) (size 9 to 14) (size 15 to 20)
#    0.000    1.659    3.902    1.317    1.366    1.951 
#    7.024    0.976    2.146    0.000    0.000    0.000 
#    0.000    0.000    0.000    0.000    0.000    0.000 
#
# Total GULP energy -228341.973786 kJ/mol
# GULP energy per Si atom -5569.316434 kJ/mol
# Density = 1.965983 g / cm^3
# Si number density = 19.704678 Si / 1000 Ang^3
#
#
#
# Elastic Constant Matrix: (Units=GPa)
#
#
# Indices 1 2 3 4 5 6 
#
# 1 143.7343 50.0829 49.8490 0.0000 0.0000 0.0000
# 2 50.0829 46.5912 -4.6847 0.0000 0.0000 0.0000
# 3 49.8490 -4.6847 99.5412 0.0000 0.0000 0.0000
# 4 0.0000 0.0000 0.0000 -18.1106 0.0000 0.0000
# 5 0.0000 0.0000 0.0000 0.0000 5.1460 0.0000
# 6 0.0000 0.0000 0.0000 0.0000 0.0000 -6.1291
#
#
#
# Elastic Compliance Matrix: (Units=1/GPa)
#
#
# Indices 1 2 3 4 5 6 
#
# 1 0.016809 -0.019005 -0.009312 0.000000 0.000000 0.000000
# 2 -0.019005 0.043053 0.011544 0.000000 0.000000 0.000000
# 3 -0.009312 0.011544 0.015253 0.000000 0.000000 0.000000
# 4 0.000000 0.000000 0.000000 -0.055216 0.000000 0.000000
# 5 0.000000 0.000000 0.000000 0.000000 0.194327 0.000000
# 6 0.000000 0.000000 0.000000 0.000000 0.000000 -0.163155
#
#
# Mechanical properties :
#
#
# Convention : Reuss Voigt Hill
#
# Bulk Modulus (GPa) = 24.05695 53.37348 38.71522
# Shear Modulus (GPa) = 50.77493 9.15589 29.96541
#
# Velocity S-wave (km/s) = 5.08172 2.15793 3.90388
# Velocity P-wave (km/s) = 6.83133 5.77532 6.32540
#
# Compressibility (1/GPa) = 0.04156802
#
# Stress axis : x y z
#
# Youngs Moduli (GPa) = 59.49201 23.22705 65.56185
#
# Poissons Ratio (x) = 0.44143 0.61052
# Poissons Ratio (y) = 1.13065 -0.75682
# Poissons Ratio (z) = 0.55400 -0.26813
#
# Static dielectric constant tensor:
#      x y z
#    x 1.719010 0.000000 0.000000 
#    y 0.000000 1.755170 0.000000 
#    z 0.000000 0.000000 1.695970 
# 
# From -- ./inp_files/61084.got.cif
#   From: 2010.05.17/outbox.cif.g08.bks.cpg/sg71_31_cif.got.tgz:61084.got - 2010.06.03 16:22:01.
