data_PCOD9517917
_publ_section_title
;
Structure prediction by ZEFSAII (Michael W. Deem and Ramdas Pophale) SiO2 
 PCOD9517917
Probable space group: I M M M
;
_chemical_formula_sum "Si O2"
_cell_formula_units_Z 72
_cell_length_a 9.739203
_cell_length_b 19.886545
_cell_length_c 20.896228
_cell_angle_alpha 90.000000
_cell_angle_beta 90.000000
_cell_angle_gamma 90.000000
_cell_volume 4047.162606
_symmetry_space_group_name_H-M "I M M M"
_symmetry_group_IT_number 71
_symmetry_cell_setting 'orthorhombic'
loop_
_space_group_symop_operation_xyz
x,y,z
-x,-y,z
x,-y,-z
-x,y,-z
-x,-y,-z
x,y,-z
-x,y,z
x,-y,z
1/2+x,1/2+y,1/2+z
1/2-x,1/2-y,1/2+z
1/2+x,1/2-y,1/2-z
1/2-x,1/2+y,1/2-z
1/2-x,1/2-y,1/2-z
1/2+x,1/2+y,1/2-z
1/2-x,1/2+y,1/2+z
1/2+x,1/2-y,1/2+z
loop_
_atom_site_type_symbol
_atom_site_label
_atom_site_fract_x
_atom_site_fract_y
_atom_site_fract_z
Si Si1 0.843464 0.500000 0.238266
Si Si2 0.662604 0.746352 0.184984
Si Si3 0.843333 0.398980 0.353251
Si Si4 0.164992 0.000000 0.613214
Si Si5 0.666713 0.648226 0.929315
Si Si6 0.655198 0.500000 0.575868
O O1 0.826982 0.435429 0.284405
O O2 0.735057 0.500000 0.182204
O O3 0.000000 0.500000 0.213542
O O4 0.500000 0.734301 0.199176
O O5 0.750000 0.750000 0.250000
O O6 0.673298 0.819795 0.153038
O O7 0.710809 0.691489 0.132484
O O8 0.736589 0.435291 0.398925
O O9 0.000000 0.413512 0.374003
O O10 0.203669 0.930208 0.579108
O O11 0.000000 0.000000 0.618936
O O12 0.500000 0.652328 0.929163
O O13 0.712852 0.671928 0.000000
O O14 0.500000 0.500000 0.601082
O O15 0.652513 0.500000 0.500000
#
# Coordination Sequence:
#
# PCOD9517917 Si02
#       6
#     8  16  16   8  16   8
#     4   9  17  30  47  69  98 127 158 201 251 302
#     4  10  20  34  54  79 106 138 176 218 263 310
#     4   9  19  34  51  73 101 135 173 211 256 312
#     4  10  18  29  50  75  97 127 167 209 252 295
#     4   9  18  32  50  74 102 132 170 213 253 297
#     4  10  21  35  52  76 103 132 169 216 270 322
#
# _framework density 17.790241000000002
#
# number of rings (size 3 to 8) (size 9 to 14) (size 15 to 20)
#    0.000    2.556    0.000    2.667    0.000    5.778 
#    0.000    2.222    0.000    3.333    0.000    0.000 
#    0.000    0.000    0.000    0.000    0.000    0.000 
#
# Total GULP energy -200663.405627 kJ/mol
# GULP energy per Si atom -5573.983490 kJ/mol
# Density = 1.774975 g / cm^3
# Si number density = 17.790241 Si / 1000 Ang^3
#
#
#
# Elastic Constant Matrix: (Units=GPa)
#
#
# Indices 1 2 3 4 5 6 
#
# 1 63.8975 30.8527 49.9850 0.0000 0.0000 0.0000
# 2 30.8527 100.4062 50.3126 0.0000 0.0000 0.0000
# 3 49.9850 50.3126 111.2684 0.0000 0.0000 0.0000
# 4 0.0000 0.0000 0.0000 -2.9323 0.0000 0.0000
# 5 0.0000 0.0000 0.0000 0.0000 21.6832 0.0000
# 6 0.0000 0.0000 0.0000 0.0000 0.0000 1.8703
#
#
#
# Elastic Compliance Matrix: (Units=1/GPa)
#
#
# Indices 1 2 3 4 5 6 
#
# 1 0.024651 -0.002619 -0.009890 0.000000 0.000000 0.000000
# 2 -0.002619 0.013156 -0.004772 0.000000 0.000000 0.000000
# 3 -0.009890 -0.004772 0.015588 0.000000 0.000000 0.000000
# 4 0.000000 0.000000 0.000000 -0.341024 0.000000 0.000000
# 5 0.000000 0.000000 0.000000 0.000000 0.046119 0.000000
# 6 0.000000 0.000000 0.000000 0.000000 0.000000 0.534688
#
#
# Mechanical properties :
#
#
# Convention : Reuss Voigt Hill
#
# Bulk Modulus (GPa) = 53.09887 59.76364 56.43125
# Shear Modulus (GPa) = 14.96934 13.75235 14.36084
#
# Velocity S-wave (km/s) = 2.90390 2.78335 2.84426
# Velocity P-wave (km/s) = 6.41525 6.63294 6.52500
#
# Compressibility (1/GPa) = 0.01883279
#
# Stress axis : x y z
#
# Youngs Moduli (GPa) = 40.56611 76.01358 64.15285
#
# Poissons Ratio (x) = 0.19909 0.63445
# Poissons Ratio (y) = 0.10625 0.30614
# Poissons Ratio (z) = 0.40119 0.36274
#
# Static dielectric constant tensor:
#      x y z
#    x 1.601180 0.000000 0.000000 
#    y 0.000000 1.626080 0.000000 
#    z 0.000000 0.000000 1.600140 
# 
# From -- ./inp_files/10004.got.cif
#   From: 2010.05.17/outbox.cif.g08.bks.cpg/sg71_6_cif.got.tgz:10004.got - 2010.06.03 16:22:01.
