data_PCOD9517004
_publ_section_title
;
Structure prediction by ZEFSAII (Michael W. Deem and Ramdas Pophale) SiO2 
 PCOD9517004
Probable space group: F D D D
;
_chemical_formula_sum "Si O2"
_cell_formula_units_Z 168
_cell_length_a 22.273812
_cell_length_b 10.856732
_cell_length_c 27.033916
_cell_angle_alpha 90.000000
_cell_angle_beta 90.000000
_cell_angle_gamma 90.000000
_cell_volume 6537.363397
_symmetry_space_group_name_H-M "F D D D"
_symmetry_group_IT_number 70
_space_group.IT_coordinate_system_code '2'
_symmetry_cell_setting 'orthorhombic'
loop_
_space_group_symop_operation_xyz
x,y,z
1/4-x,1/4-y,z
x,1/4-y,1/4-z
1/4-x,y,1/4-z
-x,-y,-z
3/4+x,3/4+y,-z
-x,3/4+y,3/4+z
3/4+x,-y,3/4+z
x,1/2+y,1/2+z
1/4-x,3/4-y,1/2+z
x,3/4-y,3/4-z
1/4-x,1/2+y,3/4-z
-x,1/2-y,1/2-z
3/4+x,1/4+y,1/2-z
-x,1/4+y,1/4+z
3/4+x,1/2-y,1/4+z
1/2+x,y,1/2+z
3/4-x,1/4-y,1/2+z
1/2+x,1/4-y,3/4-z
3/4-x,y,3/4-z
1/2-x,-y,1/2-z
1/4+x,3/4+y,1/2-z
1/2-x,3/4+y,1/4+z
1/4+x,-y,1/4+z
1/2+x,1/2+y,z
3/4-x,3/4-y,z
1/2+x,3/4-y,1/4-z
3/4-x,1/2+y,1/4-z
1/2-x,1/2-y,-z
1/4+x,1/4+y,-z
1/2-x,1/4+y,3/4+z
1/4+x,1/2-y,3/4+z
loop_
_atom_site_type_symbol
_atom_site_label
_atom_site_fract_x
_atom_site_fract_y
_atom_site_fract_z
Si Si1 0.053486 0.402837 0.124171
Si Si2 0.029160 0.875000 0.375000
Si Si3 0.945430 0.011216 0.961604
Si Si4 0.489390 0.239178 0.543608
Si Si5 0.500000 0.250000 0.250000
Si Si6 0.865206 0.613069 0.710264
Si Si7 0.375000 0.875000 0.375000
O O1 0.125000 0.431726 0.125000
O O2 0.031559 0.379629 0.180491
O O3 0.014255 0.518907 0.103488
O O4 0.030813 0.295215 0.087050
O O5 0.074500 0.919504 0.332668
O O6 0.911326 0.957272 0.913247
O O7 0.988286 0.896165 0.974665
O O8 0.895334 0.041391 0.001917
O O9 0.491176 0.348465 0.504699
O O10 0.422022 0.211571 0.561672
O O11 0.572104 0.272277 0.259927
#
# Coordination Sequence:
#
# PCOD9517004 Si02
#       7
#    32  16  32  32  16  32   8
#     4  12  25  52  85 121 164 227 292 357 433 532
#     4  12  31  53  82 128 174 232 282 368 454 532
#     4  12  25  49  87 120 167 224 299 357 432 528
#     4  12  27  54  81 125 167 225 285 371 430 530
#     4  12  26  50  80 114 168 220 274 348 444 520
#     4  12  30  53  81 124 174 226 289 363 446 533
#     4  12  20  46  84 122 162 212 288 356 428 506
#
# _framework density 25.698433999999999
#
# number of rings (size 3 to 8) (size 9 to 14) (size 15 to 20)
#    0.000    0.000    4.762    3.714    5.333    0.000 
#   10.286    0.000    0.000    0.000    0.000    0.000 
#    0.000    0.000    0.000    0.000    0.000    0.000 
#
# Total GULP energy -233870.161866 kJ/mol
# GULP energy per Si atom -5568.337187 kJ/mol
# Density = 2.563994 g / cm^3
# Si number density = 25.698434 Si / 1000 Ang^3
#
#
#
# Elastic Constant Matrix: (Units=GPa)
#
#
# Indices 1 2 3 4 5 6 
#
# 1 186.9915 57.5362 42.8860 0.0000 0.0000 0.0000
# 2 57.5362 138.4308 19.0168 0.0000 0.0000 0.0000
# 3 42.8860 19.0168 77.0834 0.0000 0.0000 0.0000
# 4 0.0000 0.0000 0.0000 -14.9327 0.0000 0.0000
# 5 0.0000 0.0000 0.0000 0.0000 39.3283 0.0000
# 6 0.0000 0.0000 0.0000 0.0000 0.0000 44.1973
#
#
#
# Elastic Compliance Matrix: (Units=1/GPa)
#
#
# Indices 1 2 3 4 5 6 
#
# 1 0.006819 -0.002394 -0.003203 0.000000 0.000000 0.000000
# 2 -0.002394 0.008318 -0.000720 0.000000 0.000000 0.000000
# 3 -0.003203 -0.000720 0.014933 0.000000 0.000000 0.000000
# 4 0.000000 0.000000 0.000000 -0.066967 0.000000 0.000000
# 5 0.000000 0.000000 0.000000 0.000000 0.025427 0.000000
# 6 0.000000 0.000000 0.000000 0.000000 0.000000 0.022626
#
#
# Mechanical properties :
#
#
# Convention : Reuss Voigt Hill
#
# Bulk Modulus (GPa) = 57.35645 71.26485 64.31065
# Shear Modulus (GPa) = 168.90711 32.58969 100.74840
#
# Velocity S-wave (km/s) = 8.11599 3.56498 6.26811
# Velocity P-wave (km/s) = 10.49730 6.68856 8.80142
#
# Compressibility (1/GPa) = 0.01743483
#
# Stress axis : x y z
#
# Youngs Moduli (GPa) = 146.64521 120.22335 66.96700
#
# Poissons Ratio (x) = 0.28784 0.21451
# Poissons Ratio (y) = 0.35110 0.04822
# Poissons Ratio (z) = 0.46974 0.08656
#
# Static dielectric constant tensor:
#      x y z
#    x 2.100470 0.000000 0.000000 
#    y 0.000000 2.533570 0.000000 
#    z 0.000000 0.000000 2.706630 
# 
# From -- ./inp_files/67230.got.cif
#   From: 2010.05.17/outbox.cif.g08.bks.cpg/sg70_34_cif.got.tgz:67230.got - 2010.06.03 15:57:51.
