data_PCOD9517687
_publ_section_title
;
Structure prediction by ZEFSAII (Michael W. Deem and Ramdas Pophale) SiO2 
 PCOD9517687
Probable space group: I M M M
;
_chemical_formula_sum "Si O2"
_cell_formula_units_Z 80
_cell_length_a 21.362444
_cell_length_b 25.883149
_cell_length_c 8.008180
_cell_angle_alpha 90.000000
_cell_angle_beta 90.000000
_cell_angle_gamma 90.000000
_cell_volume 4427.941514
_symmetry_space_group_name_H-M "I M M M"
_symmetry_group_IT_number 71
_symmetry_cell_setting 'orthorhombic'
loop_
_space_group_symop_operation_xyz
x,y,z
-x,-y,z
x,-y,-z
-x,y,-z
-x,-y,-z
x,y,-z
-x,y,z
x,-y,z
1/2+x,1/2+y,1/2+z
1/2-x,1/2-y,1/2+z
1/2+x,1/2-y,1/2-z
1/2-x,1/2+y,1/2-z
1/2-x,1/2-y,1/2-z
1/2+x,1/2+y,1/2-z
1/2-x,1/2+y,1/2+z
1/2+x,1/2-y,1/2+z
loop_
_atom_site_type_symbol
_atom_site_label
_atom_site_fract_x
_atom_site_fract_y
_atom_site_fract_z
Si Si1 0.760606 0.000000 0.190267
Si Si2 0.690620 0.784561 0.199208
Si Si3 0.568558 0.275884 0.795700
Si Si4 0.110672 0.111746 0.704223
Si Si5 0.600221 0.500000 0.192061
Si Si6 0.743674 0.107713 0.698447
O O1 0.823400 0.000000 0.303221
O O2 0.724367 0.947186 0.225378
O O3 0.782829 0.000000 0.000000
O O4 0.750000 0.750000 0.250000
O O5 0.626852 0.758304 0.263488
O O6 0.703010 0.842877 0.255625
O O7 0.687585 0.784082 0.000000
O O8 0.500000 0.257247 0.744186
O O9 0.577508 0.335632 0.744026
O O10 0.570370 0.275898 0.000000
O O11 0.108768 0.109797 0.500000
O O12 0.183880 0.116379 0.753209
O O13 0.084133 0.056390 0.764608
O O14 0.578672 0.500000 0.000000
O O15 0.744504 0.102558 0.500000
#
# Coordination Sequence:
#
# PCOD9517687 Si02
#       6
#     8  16  16  16   8  16
#     4  10  18  28  44  73 104 128 157 198 246 300
#     4  11  20  31  49  74  99 129 170 213 253 298
#     4   9  17  29  45  67  97 131 167 208 252 295
#     4   8  13  24  41  63  90 124 162 200 241 282
#     4   8  14  24  41  62  92 129 164 204 244 283
#     4  10  18  31  49  71  99 131 163 204 250 295
#
# _framework density 18.067086
#
# number of rings (size 3 to 8) (size 9 to 14) (size 15 to 20)
#    0.000    2.600    2.000    3.300    0.000    0.000 
#    0.000    0.500    0.000    5.400    0.000    0.700 
#    0.000    9.600    0.000    0.000    0.000    0.000 
#
# Total GULP energy -222980.767304 kJ/mol
# GULP energy per Si atom -5574.519183 kJ/mol
# Density = 1.802596 g / cm^3
# Si number density = 18.067086 Si / 1000 Ang^3
#
#
#
# Elastic Constant Matrix: (Units=GPa)
#
#
# Indices 1 2 3 4 5 6 
#
# 1 99.4691 64.1575 8.5397 0.0000 0.0000 0.0000
# 2 64.1575 145.1119 12.9815 0.0000 0.0000 0.0000
# 3 8.5397 12.9815 32.2453 0.0000 0.0000 0.0000
# 4 0.0000 0.0000 0.0000 21.8346 0.0000 0.0000
# 5 0.0000 0.0000 0.0000 0.0000 8.2052 0.0000
# 6 0.0000 0.0000 0.0000 0.0000 0.0000 11.8296
#
#
#
# Elastic Compliance Matrix: (Units=1/GPa)
#
#
# Indices 1 2 3 4 5 6 
#
# 1 0.014114 -0.006126 -0.001272 0.000000 0.000000 0.000000
# 2 -0.006126 0.009808 -0.002326 0.000000 0.000000 0.000000
# 3 -0.001272 -0.002326 0.032285 0.000000 0.000000 0.000000
# 4 0.000000 0.000000 0.000000 0.045799 0.000000 0.000000
# 5 0.000000 0.000000 0.000000 0.000000 0.121873 0.000000
# 6 0.000000 0.000000 0.000000 0.000000 0.000000 0.084534
#
#
# Mechanical properties :
#
#
# Convention : Reuss Voigt Hill
#
# Bulk Modulus (GPa) = 27.20386 49.79819 38.50103
# Shear Modulus (GPa) = 14.70094 21.11708 17.90901
#
# Velocity S-wave (km/s) = 2.85561 3.42250 3.15183
# Velocity P-wave (km/s) = 5.09534 6.57577 5.88232
#
# Compressibility (1/GPa) = 0.03675949
#
# Stress axis : x y z
#
# Youngs Moduli (GPa) = 70.85129 101.95803 30.97376
#
# Poissons Ratio (x) = 0.62464 0.03938
# Poissons Ratio (y) = 0.43407 0.07205
# Poissons Ratio (z) = 0.09009 0.23716
#
# Static dielectric constant tensor:
#      x y z
#    x 1.611230 0.000000 0.000000 
#    y 0.000000 1.653500 0.000000 
#    z 0.000000 0.000000 1.664660 
# 
# From -- ./inp_files/10734.got.cif
#   From: 2010.05.17/outbox.cif.g08.bks.cpg/sg71_6_cif.got.tgz:10734.got - 2010.06.03 16:22:01.
