data_PCOD9517776
_publ_section_title
;
Structure prediction by ZEFSAII (Michael W. Deem and Ramdas Pophale) SiO2 
 PCOD9517776
Probable space group: I M M M
;
_chemical_formula_sum "Si O2"
_cell_formula_units_Z 104
_cell_length_a 25.053538
_cell_length_b 33.619984
_cell_length_c 9.062842
_cell_angle_alpha 90.000000
_cell_angle_beta 90.000000
_cell_angle_gamma 90.000000
_cell_volume 7633.627708
_symmetry_space_group_name_H-M "I M M M"
_symmetry_group_IT_number 71
_symmetry_cell_setting 'orthorhombic'
loop_
_space_group_symop_operation_xyz
x,y,z
-x,-y,z
x,-y,-z
-x,y,-z
-x,-y,-z
x,y,-z
-x,y,z
x,-y,z
1/2+x,1/2+y,1/2+z
1/2-x,1/2-y,1/2+z
1/2+x,1/2-y,1/2-z
1/2-x,1/2+y,1/2-z
1/2-x,1/2-y,1/2-z
1/2+x,1/2+y,1/2-z
1/2-x,1/2+y,1/2+z
1/2+x,1/2-y,1/2+z
loop_
_atom_site_type_symbol
_atom_site_label
_atom_site_fract_x
_atom_site_fract_y
_atom_site_fract_z
Si Si1 0.000000 0.951723 0.331415
Si Si2 0.111477 0.046518 0.824073
Si Si3 0.560354 0.339834 0.326751
Si Si4 0.158786 0.881830 0.324208
Si Si5 0.940403 0.743992 0.826077
Si Si6 0.831016 0.269213 0.675952
Si Si7 0.766200 0.810588 0.322870
O O1 0.054222 0.941564 0.245755
O O2 0.000000 0.936727 0.500000
O O3 0.000000 0.000000 0.337860
O O4 0.155211 0.075863 0.756008
O O5 0.120796 0.000000 0.789280
O O6 0.108722 0.050642 0.000000
O O7 0.569750 0.349536 0.500000
O O8 0.500000 0.352513 0.288712
O O9 0.605368 0.358845 0.226486
O O10 0.562081 0.292019 0.313128
O O11 0.158943 0.886983 0.500000
O O12 0.207299 0.852569 0.282373
O O13 0.890282 0.726842 0.739291
O O14 0.000000 0.731771 0.776556
O O15 0.935526 0.734815 0.000000
O O16 0.831294 0.272200 0.500000
O O17 0.807221 0.225364 0.715536
O O18 0.789131 0.300146 0.744753
O O19 0.759282 0.809512 0.500000
#
# Coordination Sequence:
#
# PCOD9517776 Si02
#       7
#     8  16  16  16  16  16  16
#     4   9  17  31  49  65  79  99 131 169 211 257
#     4  10  21  35  48  61  79 104 133 167 210 260
#     4   9  18  30  42  57  79 107 137 170 211 256
#     4  11  21  32  46  63  82 103 135 175 214 254
#     4   9  17  29  44  61  83 112 141 170 208 253
#     4  10  18  29  45  63  83 108 139 174 209 244
#     4   9  19  32  43  60  83 109 138 170 210 252
#
# _framework density 13.623929
#
# number of rings (size 3 to 8) (size 9 to 14) (size 15 to 20)
#    0.000    2.385    1.538    2.538    1.077    4.308 
#    0.000    1.538    0.000    0.000    0.000    0.000 
#    0.000    0.000    0.000    0.000    0.000    0.769 
#
# Total GULP energy -290039.835583 kJ/mol
# GULP energy per Si atom -5577.689146 kJ/mol
# Density = 1.359292 g / cm^3
# Si number density = 13.623929 Si / 1000 Ang^3
#
#
#
# Elastic Constant Matrix: (Units=GPa)
#
#
# Indices 1 2 3 4 5 6 
#
# 1 100.9023 45.8764 41.9634 0.0000 0.0000 0.0000
# 2 45.8764 69.0200 34.8121 0.0000 0.0000 0.0000
# 3 41.9634 34.8121 45.6946 0.0000 0.0000 0.0000
# 4 0.0000 0.0000 0.0000 18.0939 0.0000 0.0000
# 5 0.0000 0.0000 0.0000 0.0000 22.7468 0.0000
# 6 0.0000 0.0000 0.0000 0.0000 0.0000 24.7766
#
#
#
# Elastic Compliance Matrix: (Units=1/GPa)
#
#
# Indices 1 2 3 4 5 6 
#
# 1 0.017297 -0.005660 -0.011572 0.000000 0.000000 0.000000
# 2 -0.005660 0.025382 -0.014140 0.000000 0.000000 0.000000
# 3 -0.011572 -0.014140 0.043284 0.000000 0.000000 0.000000
# 4 0.000000 0.000000 0.000000 0.055267 0.000000 0.000000
# 5 0.000000 0.000000 0.000000 0.000000 0.043962 0.000000
# 6 0.000000 0.000000 0.000000 0.000000 0.000000 0.040361
#
#
# Mechanical properties :
#
#
# Convention : Reuss Voigt Hill
#
# Bulk Modulus (GPa) = 43.06767 51.21343 47.14055
# Shear Modulus (GPa) = 16.88981 19.32112 18.10546
#
# Velocity S-wave (km/s) = 3.52478 3.76995 3.64943
# Velocity P-wave (km/s) = 6.94592 7.52479 7.24114
#
# Compressibility (1/GPa) = 0.02321927
#
# Stress axis : x y z
#
# Youngs Moduli (GPa) = 57.81464 39.39751 23.10325
#
# Poissons Ratio (x) = 0.22299 0.26736
# Poissons Ratio (y) = 0.32723 0.32667
# Poissons Ratio (z) = 0.66905 0.55706
#
# Static dielectric constant tensor:
#      x y z
#    x 1.434120 0.000000 0.000000 
#    y 0.000000 1.459340 0.000000 
#    z 0.000000 0.000000 1.453410 
# 
# From -- ./inp_files/13652.got.cif
#   From: 2010.05.17/outbox.cif.g08.bks.cpg/sg71_7_cif.got.tgz:13652.got - 2010.06.03 16:22:01.
