data_PCOD9517449
_publ_section_title
;
Structure prediction by ZEFSAII (Michael W. Deem and Ramdas Pophale) SiO2 
 PCOD9517449
Probable space group: I M M M
;
_chemical_formula_sum "Si O2"
_cell_formula_units_Z 120
_cell_length_a 8.914266
_cell_length_b 25.920635
_cell_length_c 29.928365
_cell_angle_alpha 90.000000
_cell_angle_beta 90.000000
_cell_angle_gamma 90.000000
_cell_volume 6915.350829
_symmetry_space_group_name_H-M "I M M M"
_symmetry_group_IT_number 71
_symmetry_cell_setting 'orthorhombic'
loop_
_space_group_symop_operation_xyz
x,y,z
-x,-y,z
x,-y,-z
-x,y,-z
-x,-y,-z
x,y,-z
-x,y,z
x,-y,z
1/2+x,1/2+y,1/2+z
1/2-x,1/2-y,1/2+z
1/2+x,1/2-y,1/2-z
1/2-x,1/2+y,1/2-z
1/2-x,1/2-y,1/2-z
1/2+x,1/2+y,1/2-z
1/2-x,1/2+y,1/2+z
1/2+x,1/2-y,1/2+z
loop_
_atom_site_type_symbol
_atom_site_label
_atom_site_fract_x
_atom_site_fract_y
_atom_site_fract_z
Si Si1 0.675922 0.156258 0.121017
Si Si2 0.817506 0.742521 0.448467
Si Si3 0.178309 0.058657 0.907566
Si Si4 0.317839 0.342976 0.889550
Si Si5 0.668916 0.694873 0.294502
Si Si6 0.682408 0.558815 0.051497
Si Si7 0.832342 0.437740 0.500000
Si Si8 0.671132 0.180881 0.294085
O O1 0.500000 0.147836 0.114554
O O2 0.731410 0.193012 0.080593
O O3 0.758085 0.101770 0.124443
O O4 0.711838 0.184620 0.166854
O O5 0.766197 0.742138 0.500000
O O6 0.776602 0.794456 0.421462
O O7 0.000000 0.741441 0.449309
O O8 0.243598 0.075092 0.955604
O O9 0.000000 0.058961 0.908883
O O10 0.228469 0.000000 0.898251
O O11 0.500000 0.342513 0.884766
O O12 0.272315 0.395945 0.914641
O O13 0.242738 0.335913 0.841168
O O14 0.500000 0.677215 0.306063
O O15 0.662421 0.756840 0.291683
O O16 0.725125 0.668993 0.248650
O O17 0.500000 0.559014 0.051467
O O18 0.729438 0.500000 0.062809
O O19 0.728385 0.569626 0.000000
O O20 0.843705 0.500000 0.500000
O O21 0.000000 0.415486 0.500000
O O22 0.500000 0.161355 0.289823
#
# Coordination Sequence:
#
# PCOD9517449 Si02
#       8
#    16  16  16  16  16  16   8  16
#     4  11  21  33  53  77 105 135 171 215 258 310
#     4   9  18  30  45  71 105 139 173 207 247 302
#     4  10  21  36  52  71  98 133 172 213 257 304
#     4  10  17  29  51  76 105 140 176 214 260 311
#     4  10  20  35  54  75 102 133 169 212 262 318
#     4   8  14  25  45  76 109 141 182 227 261 293
#     4   9  17  31  51  73  95 123 167 217 258 295
#     4  10  20  33  52  76 104 133 168 213 262 314
#
# _framework density 17.352698
#
# number of rings (size 3 to 8) (size 9 to 14) (size 15 to 20)
#    0.000    2.333    1.333    2.600    0.933    4.267 
#    0.000    0.000    0.000    4.400    0.000    2.800 
#    0.000    0.000    0.000    0.000    0.000    0.000 
#
# Total GULP energy -334323.625945 kJ/mol
# GULP energy per Si atom -5572.060432 kJ/mol
# Density = 1.731320 g / cm^3
# Si number density = 17.352698 Si / 1000 Ang^3
#
#
#
# Elastic Constant Matrix: (Units=GPa)
#
#
# Indices 1 2 3 4 5 6 
#
# 1 34.8203 18.8904 7.8572 0.0000 0.0000 0.0000
# 2 18.8904 76.8100 27.6309 0.0000 0.0000 0.0000
# 3 7.8572 27.6309 86.0797 0.0000 0.0000 0.0000
# 4 0.0000 0.0000 0.0000 20.5586 0.0000 0.0000
# 5 0.0000 0.0000 0.0000 0.0000 25.9456 0.0000
# 6 0.0000 0.0000 0.0000 0.0000 0.0000 16.2450
#
#
#
# Elastic Compliance Matrix: (Units=1/GPa)
#
#
# Indices 1 2 3 4 5 6 
#
# 1 0.033157 -0.007988 -0.000462 0.000000 0.000000 0.000000
# 2 -0.007988 0.016643 -0.004613 0.000000 0.000000 0.000000
# 3 -0.000462 -0.004613 0.013140 0.000000 0.000000 0.000000
# 4 0.000000 0.000000 0.000000 0.048641 0.000000 0.000000
# 5 0.000000 0.000000 0.000000 0.000000 0.038542 0.000000
# 6 0.000000 0.000000 0.000000 0.000000 0.000000 0.061557
#
#
# Mechanical properties :
#
#
# Convention : Reuss Voigt Hill
#
# Bulk Modulus (GPa) = 27.16446 34.05189 30.60817
# Shear Modulus (GPa) = 19.99363 22.10527 21.04945
#
# Velocity S-wave (km/s) = 3.39808 3.57302 3.48665
# Velocity P-wave (km/s) = 5.57532 6.05706 5.82117
#
# Compressibility (1/GPa) = 0.03681281
#
# Stress axis : x y z
#
# Youngs Moduli (GPa) = 30.15963 60.08447 76.10263
#
# Poissons Ratio (x) = 0.47996 0.03519
# Poissons Ratio (y) = 0.24092 0.35108
# Poissons Ratio (z) = 0.01394 0.27718
#
# Static dielectric constant tensor:
#      x y z
#    x 1.598480 0.000000 0.000000 
#    y 0.000000 1.598790 0.000000 
#    z 0.000000 0.000000 1.603550 
# 
# From -- ./inp_files/63815.got.cif
#   From: 2010.05.17/outbox.cif.g08.bks.cpg/sg71_32_cif.got.tgz:63815.got - 2010.06.03 16:22:01.
