data_PCOD9517988
_publ_section_title
;
Structure prediction by ZEFSAII (Michael W. Deem and Ramdas Pophale) SiO2 
 PCOD9517988
Probable space group: I M M M
;
_chemical_formula_sum "Si O2"
_cell_formula_units_Z 104
_cell_length_a 8.561733
_cell_length_b 29.253418
_cell_length_c 25.104480
_cell_angle_alpha 90.000000
_cell_angle_beta 90.000000
_cell_angle_gamma 90.000000
_cell_volume 6287.666912
_symmetry_space_group_name_H-M "I M M M"
_symmetry_group_IT_number 71
_symmetry_cell_setting 'orthorhombic'
loop_
_space_group_symop_operation_xyz
x,y,z
-x,-y,z
x,-y,-z
-x,y,-z
-x,-y,-z
x,y,-z
-x,y,z
x,-y,z
1/2+x,1/2+y,1/2+z
1/2-x,1/2-y,1/2+z
1/2+x,1/2-y,1/2-z
1/2-x,1/2+y,1/2-z
1/2-x,1/2-y,1/2-z
1/2+x,1/2+y,1/2-z
1/2-x,1/2+y,1/2+z
1/2+x,1/2-y,1/2+z
loop_
_atom_site_type_symbol
_atom_site_label
_atom_site_fract_x
_atom_site_fract_y
_atom_site_fract_z
Si Si1 0.688361 0.447650 0.354264
Si Si2 0.691182 0.372282 0.561475
Si Si3 0.688616 0.089784 0.373615
Si Si4 0.814438 0.174725 0.438592
Si Si5 0.187902 0.446453 0.761501
Si Si6 0.179898 0.228371 0.935393
Si Si7 0.690648 0.000000 0.561336
O O1 0.500000 0.448143 0.355745
O O2 0.742789 0.500000 0.363114
O O3 0.742732 0.412420 0.399325
O O4 0.741022 0.433391 0.295239
O O5 0.739376 0.379497 0.500000
O O6 0.500000 0.371278 0.561298
O O7 0.741305 0.321661 0.580615
O O8 0.500000 0.089302 0.373563
O O9 0.744270 0.135884 0.401286
O O10 0.740469 0.082361 0.312648
O O11 0.740788 0.045725 0.407977
O O12 0.756710 0.169099 0.500000
O O13 0.770467 0.225916 0.420392
O O14 0.000000 0.170198 0.439287
O O15 0.226570 0.500000 0.771315
O O16 0.000000 0.443553 0.757880
O O17 0.000000 0.232993 0.918030
O O18 0.180083 0.226586 0.000000
O O19 0.500000 0.000000 0.561665
O O20 0.741553 0.000000 0.500000
#
# Coordination Sequence:
#
# PCOD9517988 Si02
#       7
#    16  16  16  16  16  16   8
#     4   9  17  28  45  71  99 125 152 182 222 272
#     4   8  14  26  46  72  98 122 151 187 223 262
#     4  10  18  30  48  67  86 116 157 195 227 265
#     4  10  20  31  43  65  96 122 145 182 234 283
#     4   9  17  31  48  65  88 119 158 196 226 260
#     4   8  14  27  47  66  85 116 156 190 220 261
#     4   9  16  26  43  67  89 109 142 189 230 264
#
# _framework density 16.540316000000001
#
# number of rings (size 3 to 8) (size 9 to 14) (size 15 to 20)
#    0.000    3.000    0.769    1.846    0.000    2.462 
#    0.000    2.692    0.000    3.692    0.000    2.154 
#    0.000    0.000    0.000    0.000    0.000    0.000 
#
# Total GULP energy -289625.651410 kJ/mol
# GULP energy per Si atom -5569.724066 kJ/mol
# Density = 1.650267 g / cm^3
# Si number density = 16.540316 Si / 1000 Ang^3
#
#
#
# Elastic Constant Matrix: (Units=GPa)
#
#
# Indices 1 2 3 4 5 6 
#
# 1 5.0582 17.7356 15.3968 0.0000 0.0000 0.0000
# 2 17.7356 138.7057 89.6031 0.0000 0.0000 0.0000
# 3 15.3968 89.6031 110.8723 0.0000 0.0000 0.0000
# 4 0.0000 0.0000 0.0000 8.2663 0.0000 0.0000
# 5 0.0000 0.0000 0.0000 0.0000 19.4748 0.0000
# 6 0.0000 0.0000 0.0000 0.0000 0.0000 7.7050
#
#
#
# Elastic Compliance Matrix: (Units=1/GPa)
#
#
# Indices 1 2 3 4 5 6 
#
# 1 0.400388 -0.031965 -0.029768 0.000000 0.000000 0.000000
# 2 -0.031965 0.017637 -0.009814 0.000000 0.000000 0.000000
# 3 -0.029768 -0.009814 0.021085 0.000000 0.000000 0.000000
# 4 0.000000 0.000000 0.000000 0.120974 0.000000 0.000000
# 5 0.000000 0.000000 0.000000 0.000000 0.051348 0.000000
# 6 0.000000 0.000000 0.000000 0.000000 0.000000 0.129787
#
#
# Mechanical properties :
#
#
# Convention : Reuss Voigt Hill
#
# Bulk Modulus (GPa) = 3.37822 55.56748 29.47285
# Shear Modulus (GPa) = 5.08654 15.88259 10.48457
#
# Velocity S-wave (km/s) = 1.75554 3.10213 2.52043
# Velocity P-wave (km/s) = 2.48114 6.81902 5.13104
#
# Compressibility (1/GPa) = 0.29601346
#
# Stress axis : x y z
#
# Youngs Moduli (GPa) = 2.49758 56.69942 47.42704
#
# Poissons Ratio (x) = 1.81242 1.41182
# Poissons Ratio (y) = 0.07984 0.46547
# Poissons Ratio (z) = 0.07435 0.55648
#
# Static dielectric constant tensor:
#      x y z
#    x 1.568080 0.000000 0.000000 
#    y 0.000000 1.559700 0.000000 
#    z 0.000000 0.000000 1.543750 
# 
# From -- ./inp_files/63692.got.cif
#   From: 2010.05.17/outbox.cif.g08.bks.cpg/sg71_32_cif.got.tgz:63692.got - 2010.06.03 16:22:01.
