data_PCOD9517414
_publ_section_title
;
Structure prediction by ZEFSAII (Michael W. Deem and Ramdas Pophale) SiO2 
 PCOD9517414
Probable space group: I M M M
;
_chemical_formula_sum "Si O2"
_cell_formula_units_Z 112
_cell_length_a 19.322367
_cell_length_b 18.297184
_cell_length_c 19.158119
_cell_angle_alpha 90.000000
_cell_angle_beta 90.000000
_cell_angle_gamma 90.000000
_cell_volume 6773.255349
_symmetry_space_group_name_H-M "I M M M"
_symmetry_group_IT_number 71
_symmetry_cell_setting 'orthorhombic'
loop_
_space_group_symop_operation_xyz
x,y,z
-x,-y,z
x,-y,-z
-x,y,-z
-x,-y,-z
x,y,-z
-x,y,z
x,-y,z
1/2+x,1/2+y,1/2+z
1/2-x,1/2-y,1/2+z
1/2+x,1/2-y,1/2-z
1/2-x,1/2+y,1/2-z
1/2-x,1/2-y,1/2-z
1/2+x,1/2+y,1/2-z
1/2-x,1/2+y,1/2+z
1/2+x,1/2-y,1/2+z
loop_
_atom_site_type_symbol
_atom_site_label
_atom_site_fract_x
_atom_site_fract_y
_atom_site_fract_z
Si Si1 0.665997 0.414236 0.205926
Si Si2 0.280517 0.828315 0.781345
Si Si3 0.291515 0.690153 0.580987
Si Si4 0.574367 0.826179 0.712949
Si Si5 0.922130 0.156280 0.826953
Si Si6 0.883401 0.583626 0.079079
Si Si7 0.261928 0.645566 0.078772
O O1 0.660012 0.500000 0.192003
O O2 0.736385 0.392015 0.245609
O O3 0.606963 0.387991 0.260029
O O4 0.677621 0.368869 0.134308
O O5 0.250000 0.750000 0.750000
O O6 0.265895 0.834203 0.863267
O O7 0.359416 0.837401 0.760932
O O8 0.283376 0.670552 0.500000
O O9 0.363988 0.659850 0.612124
O O10 0.280753 0.778254 0.586420
O O11 0.500000 0.847062 0.743507
O O12 0.574103 0.740289 0.696713
O O13 0.584569 0.868425 0.640087
O O14 0.000000 0.132643 0.847040
O O15 0.906293 0.500000 0.084608
O O16 0.799908 0.587299 0.086991
O O17 0.898867 0.610129 0.000000
O O18 0.288874 0.643202 0.000000
#
# Coordination Sequence:
#
# PCOD9517414 Si02
#       7
#    16  16  16  16  16  16  16
#     4  11  20  32  53  76 101 141 182 221 269 318
#     4  11  17  35  53  72 102 133 175 221 260 305
#     4  10  18  31  55  80 102 132 172 218 265 317
#     4  11  20  31  50  72 101 143 181 213 258 307
#     4  10  20  34  51  73 102 135 178 229 268 308
#     4  10  19  30  44  70 113 152 176 203 247 310
#     4  10  17  28  48  77 107 135 173 217 256 308
#
# _framework density 16.535623999999999
#
# number of rings (size 3 to 8) (size 9 to 14) (size 15 to 20)
#    0.000    1.571    7.143    0.429    0.000    2.000 
#    0.000    2.143    0.000    7.714    0.000    9.000 
#    0.000    0.000    0.000    6.429    0.000    2.571 
#
# Total GULP energy -311794.275774 kJ/mol
# GULP energy per Si atom -5567.754925 kJ/mol
# Density = 1.649799 g / cm^3
# Si number density = 16.535624 Si / 1000 Ang^3
#
#
#
# Elastic Constant Matrix: (Units=GPa)
#
#
# Indices 1 2 3 4 5 6 
#
# 1 108.4825 12.5668 61.6284 0.0000 0.0000 0.0000
# 2 12.5668 28.9309 21.7522 0.0000 0.0000 0.0000
# 3 61.6284 21.7522 131.8010 0.0000 0.0000 0.0000
# 4 0.0000 0.0000 0.0000 16.6233 0.0000 0.0000
# 5 0.0000 0.0000 0.0000 0.0000 16.8915 0.0000
# 6 0.0000 0.0000 0.0000 0.0000 0.0000 -41.3479
#
#
#
# Elastic Compliance Matrix: (Units=1/GPa)
#
#
# Indices 1 2 3 4 5 6 
#
# 1 0.012588 -0.001190 -0.005690 0.000000 0.000000 0.000000
# 2 -0.001190 0.039574 -0.005975 0.000000 0.000000 0.000000
# 3 -0.005690 -0.005975 0.011234 0.000000 0.000000 0.000000
# 4 0.000000 0.000000 0.000000 0.060157 0.000000 0.000000
# 5 0.000000 0.000000 0.000000 0.000000 0.059201 0.000000
# 6 0.000000 0.000000 0.000000 0.000000 0.000000 -0.024185
#
#
# Mechanical properties :
#
#
# Convention : Reuss Voigt Hill
#
# Bulk Modulus (GPa) = 26.53434 51.23435 38.88434
# Shear Modulus (GPa) = 25.40127 9.98452 17.69289
#
# Velocity S-wave (km/s) = 3.92363 2.45994 3.27461
# Velocity P-wave (km/s) = 6.05047 6.25459 6.15337
#
# Compressibility (1/GPa) = 0.03768702
#
# Stress axis : x y z
#
# Youngs Moduli (GPa) = 79.43945 25.26897 89.01816
#
# Poissons Ratio (x) = 0.03007 0.50648
# Poissons Ratio (y) = 0.09454 0.53186
# Poissons Ratio (z) = 0.45198 0.15098
#
# Static dielectric constant tensor:
#      x y z
#    x 1.592710 0.000000 0.000000 
#    y 0.000000 1.584930 0.000000 
#    z 0.000000 0.000000 1.582340 
# 
# From -- ./inp_files/47526.got.cif
#   From: 2010.05.17/outbox.cif.g08.bks.cpg/sg71_24_cif.got.tgz:47526.got - 2010.06.03 16:22:01.
