data_PCOD9517970
_publ_section_title
;
Structure prediction by ZEFSAII (Michael W. Deem and Ramdas Pophale) SiO2 
 PCOD9517970
Probable space group: I M M M
;
_chemical_formula_sum "Si O2"
_cell_formula_units_Z 72
_cell_length_a 28.128405
_cell_length_b 19.735039
_cell_length_c 8.847283
_cell_angle_alpha 90.000000
_cell_angle_beta 90.000000
_cell_angle_gamma 90.000000
_cell_volume 4911.261004
_symmetry_space_group_name_H-M "I M M M"
_symmetry_group_IT_number 71
_symmetry_cell_setting 'orthorhombic'
loop_
_space_group_symop_operation_xyz
x,y,z
-x,-y,z
x,-y,-z
-x,y,-z
-x,-y,-z
x,y,-z
-x,y,z
x,-y,z
1/2+x,1/2+y,1/2+z
1/2-x,1/2-y,1/2+z
1/2+x,1/2-y,1/2-z
1/2-x,1/2+y,1/2-z
1/2-x,1/2-y,1/2-z
1/2+x,1/2+y,1/2-z
1/2-x,1/2+y,1/2+z
1/2+x,1/2-y,1/2+z
loop_
_atom_site_type_symbol
_atom_site_label
_atom_site_fract_x
_atom_site_fract_y
_atom_site_fract_z
Si Si1 0.675722 0.777515 0.180655
Si Si2 0.725203 0.350351 0.682624
Si Si3 0.838859 0.500000 0.824135
Si Si4 0.000000 0.579700 0.318699
Si Si5 0.096785 0.367475 0.821147
Si Si6 0.237279 0.000000 0.180464
O O1 0.690333 0.704112 0.243340
O O2 0.720859 0.826190 0.220523
O O3 0.627794 0.806831 0.252021
O O4 0.671998 0.776364 0.000000
O O5 0.720996 0.346976 0.500000
O O6 0.717551 0.427651 0.734922
O O7 0.871001 0.565638 0.798128
O O8 0.792957 0.500000 0.719965
O O9 0.823430 0.500000 0.000000
O O10 0.953253 0.616849 0.256676
O O11 0.000000 0.500000 0.269987
O O12 0.000000 0.580590 0.500000
O O13 0.090089 0.357783 0.000000
O O14 0.231857 0.000000 0.000000
#
# Coordination Sequence:
#
# PCOD9517970 Si02
#       6
#    16  16   8   8  16   8
#     4  10  19  31  47  66  91 123 158 194 234 280
#     4   9  18  30  45  66  92 122 156 194 235 278
#     4  10  20  29  43  66  91 122 157 195 236 277
#     4  11  23  35  49  69  93 122 159 200 237 275
#     4  11  21  34  49  66  92 124 160 199 238 279
#     4  10  18  30  47  67  92 123 160 198 234 277
#
# _framework density 14.660185999999999
#
# number of rings (size 3 to 8) (size 9 to 14) (size 15 to 20)
#    0.000    1.889    3.333    1.667    0.000    3.111 
#    0.000    0.000    0.000    0.000    0.000    0.000 
#    0.000    0.889    0.000    9.556    0.000    4.222 
#
# Total GULP energy -200820.036727 kJ/mol
# GULP energy per Si atom -5578.334354 kJ/mol
# Density = 1.462682 g / cm^3
# Si number density = 14.660186 Si / 1000 Ang^3
#
#
#
# Elastic Constant Matrix: (Units=GPa)
#
#
# Indices 1 2 3 4 5 6 
#
# 1 91.2120 57.5434 40.5785 0.0000 0.0000 0.0000
# 2 57.5434 128.8692 42.5922 0.0000 0.0000 0.0000
# 3 40.5785 42.5922 34.6322 0.0000 0.0000 0.0000
# 4 0.0000 0.0000 0.0000 20.3507 0.0000 0.0000
# 5 0.0000 0.0000 0.0000 0.0000 24.6453 0.0000
# 6 0.0000 0.0000 0.0000 0.0000 0.0000 13.2028
#
#
#
# Elastic Compliance Matrix: (Units=1/GPa)
#
#
# Indices 1 2 3 4 5 6 
#
# 1 0.023308 -0.002328 -0.024448 0.000000 0.000000 0.000000
# 2 -0.002328 0.013306 -0.013638 0.000000 0.000000 0.000000
# 3 -0.024448 -0.013638 0.074292 0.000000 0.000000 0.000000
# 4 0.000000 0.000000 0.000000 0.049138 0.000000 0.000000
# 5 0.000000 0.000000 0.000000 0.000000 0.040576 0.000000
# 6 0.000000 0.000000 0.000000 0.000000 0.000000 0.075742
#
#
# Mechanical properties :
#
#
# Convention : Reuss Voigt Hill
#
# Bulk Modulus (GPa) = 33.24327 59.57127 46.40727
# Shear Modulus (GPa) = 13.61597 19.23970 16.42784
#
# Velocity S-wave (km/s) = 3.05088 3.62661 3.35113
# Velocity P-wave (km/s) = 5.92753 7.63278 6.83355
#
# Compressibility (1/GPa) = 0.03008127
#
# Stress axis : x y z
#
# Youngs Moduli (GPa) = 42.90337 75.15139 13.46033
#
# Poissons Ratio (x) = 0.17492 0.32907
# Poissons Ratio (y) = 0.09986 0.18357
# Poissons Ratio (z) = 1.04889 1.02489
#
# Static dielectric constant tensor:
#      x y z
#    x 1.450920 0.000000 0.000000 
#    y 0.000000 1.496920 0.000000 
#    z 0.000000 0.000000 1.487330 
# 
# From -- ./inp_files/8217.got.cif
#   From: 2010.05.17/outbox.cif.g08.bks.cpg/sg71_5_cif.got.tgz:8217.got - 2010.06.03 16:22:01.
