data_PCOD9517293
_publ_section_title
;
Structure prediction by ZEFSAII (Michael W. Deem and Ramdas Pophale) SiO2 
 PCOD9517293
Probable space group: I M M M
;
_chemical_formula_sum "Si O2"
_cell_formula_units_Z 72
_cell_length_a 14.964967
_cell_length_b 35.150503
_cell_length_c 7.337433
_cell_angle_alpha 90.000000
_cell_angle_beta 90.000000
_cell_angle_gamma 90.000000
_cell_volume 3859.681393
_symmetry_space_group_name_H-M "I M M M"
_symmetry_group_IT_number 71
_symmetry_cell_setting 'orthorhombic'
loop_
_space_group_symop_operation_xyz
x,y,z
-x,-y,z
x,-y,-z
-x,y,-z
-x,-y,-z
x,y,-z
-x,y,z
x,-y,z
1/2+x,1/2+y,1/2+z
1/2-x,1/2-y,1/2+z
1/2+x,1/2-y,1/2-z
1/2-x,1/2+y,1/2-z
1/2-x,1/2-y,1/2-z
1/2+x,1/2+y,1/2-z
1/2-x,1/2+y,1/2+z
1/2+x,1/2-y,1/2+z
loop_
_atom_site_type_symbol
_atom_site_label
_atom_site_fract_x
_atom_site_fract_y
_atom_site_fract_z
Si Si1 0.396737 0.583586 0.223703
Si Si2 0.897883 0.307143 0.777415
Si Si3 0.771136 0.150625 0.709178
Si Si4 0.608395 0.500000 0.209855
Si Si5 0.397135 0.720743 0.719923
O O1 0.500000 0.590586 0.277872
O O2 0.330378 0.616522 0.287335
O O3 0.367621 0.541353 0.285771
O O4 0.397716 0.583273 0.000000
O O5 0.823857 0.336691 0.711391
O O6 0.874615 0.263809 0.722331
O O7 0.000000 0.314882 0.723276
O O8 0.896122 0.307147 0.000000
O O9 0.753696 0.139617 0.500000
O O10 0.831572 0.188533 0.710626
O O11 0.500000 0.500000 0.209136
O O12 0.638945 0.500000 0.000000
O O13 0.393738 0.719775 0.500000
O O14 0.500000 0.713134 0.773620
#
# Coordination Sequence:
#
# PCOD9517293 Si02
#       5
#    16  16  16   8  16
#     4   8  13  20  31  51  76  95 113 142 180 218
#     4   8  15  27  39  51  71 100 129 152 180 221
#     4  10  17  24  39  60  75  90 121 164 191 202
#     4   7  10  18  30  44  70 102 116 127 169 227
#     4   9  17  28  39  51  73 104 127 143 176 228
#
# _framework density 18.654388999999998
#
# number of rings (size 3 to 8) (size 9 to 14) (size 15 to 20)
#    0.000    3.444    0.000    4.000    0.000    1.333 
#    0.000    0.000    0.000    2.000    0.000    1.556 
#    0.000   10.667    0.000    0.000    0.000    2.222 
#
# Total GULP energy -200695.885855 kJ/mol
# GULP energy per Si atom -5574.885718 kJ/mol
# Density = 1.861193 g / cm^3
# Si number density = 18.654389 Si / 1000 Ang^3
#
#
#
# Elastic Constant Matrix: (Units=GPa)
#
#
# Indices 1 2 3 4 5 6 
#
# 1 100.3142 103.4386 0.7516 0.0016 0.0045 0.0012
# 2 103.4386 152.3711 4.3037 -0.0065 0.0007 0.0028
# 3 0.7516 4.3037 69.8494 -0.0224 0.0204 0.0100
# 4 0.0016 -0.0065 -0.0224 -2.7977 0.0052 0.0023
# 5 0.0045 0.0007 0.0204 0.0052 -1.7709 -0.0015
# 6 0.0012 0.0028 0.0100 0.0023 -0.0015 25.8493
#
#
#
# Elastic Compliance Matrix: (Units=1/GPa)
#
#
# Indices 1 2 3 4 5 6 
#
# 1 0.033304 -0.022638 0.001036 0.000064 0.000089 0.000001
# 2 -0.022638 0.021962 -0.001110 -0.000056 -0.000063 -0.000001
# 3 0.001036 -0.001110 0.014374 -0.000112 0.000168 -0.000005
# 4 0.000064 -0.000056 -0.000112 -0.357431 -0.001057 0.000032
# 5 0.000089 -0.000063 0.000168 -0.001057 -0.564671 -0.000033
# 6 0.000001 -0.000001 -0.000005 0.000032 -0.000033 0.038686
#
#
# Mechanical properties :
#
#
# Convention : Reuss Voigt Hill
#
# Bulk Modulus (GPa) = 41.29221 59.94694 50.61957
# Shear Modulus (GPa) = -6.57651 18.52551 5.97450
#
# Velocity S-wave (km/s) = -1.87965 3.15475 1.79156
# Velocity P-wave (km/s) = 4.18003 6.74354 5.61017
#
# Compressibility (1/GPa) = 0.02421764
#
# Stress axis : x y z
#
# Youngs Moduli (GPa) = 30.02645 45.53262 69.57177
#
# Poissons Ratio (x) = 1.03077 -0.07211
# Poissons Ratio (y) = 0.67974 0.07720
# Poissons Ratio (z) = -0.03112 0.05052
#
# Static dielectric constant tensor:
#      x y z
#    x 1.632710 0.000000 0.000000 
#    y 0.000000 1.650100 0.000000 
#    z 0.000000 0.000000 1.761830 
# 
# From -- ./inp_files/22431.got.cif
#   From: 2010.05.17/outbox.cif.g08.bks.cpg/sg71_12_cif.got.tgz:22431.got - 2010.06.03 16:22:01.
