data_PCOD9517306
_publ_section_title
;
Structure prediction by ZEFSAII (Michael W. Deem and Ramdas Pophale) SiO2 
 PCOD9517306
Probable space group: I M M M
;
_chemical_formula_sum "Si O2"
_cell_formula_units_Z 58
_cell_length_a 7.355604
_cell_length_b 15.093906
_cell_length_c 26.712034
_cell_angle_alpha 90.000000
_cell_angle_beta 90.000000
_cell_angle_gamma 90.000000
_cell_volume 2965.698108
_symmetry_space_group_name_H-M "I M M M"
_symmetry_group_IT_number 71
_symmetry_cell_setting 'orthorhombic'
loop_
_space_group_symop_operation_xyz
x,y,z
-x,-y,z
x,-y,-z
-x,y,-z
-x,-y,-z
x,y,-z
-x,y,z
x,-y,z
1/2+x,1/2+y,1/2+z
1/2-x,1/2-y,1/2+z
1/2+x,1/2-y,1/2-z
1/2-x,1/2+y,1/2-z
1/2-x,1/2-y,1/2-z
1/2+x,1/2+y,1/2-z
1/2-x,1/2+y,1/2+z
1/2+x,1/2-y,1/2+z
loop_
_atom_site_type_symbol
_atom_site_label
_atom_site_fract_x
_atom_site_fract_y
_atom_site_fract_z
Si Si1 0.790789 0.500000 0.855895
Si Si2 0.700989 0.185728 0.500000
Si Si3 0.278689 0.500000 0.738503
Si Si4 0.000000 0.500000 0.000000
Si Si5 0.783329 0.810632 0.798661
Si Si6 0.724514 0.191592 0.390371
O O1 0.784653 0.500000 0.795959
O O2 0.714700 0.407144 0.874828
O O3 0.000000 0.500000 0.874466
O O4 0.500000 0.229453 0.500000
O O5 0.655250 0.079993 0.500000
O O6 0.785224 0.209625 0.446849
O O7 0.500000 0.500000 0.739928
O O8 0.216421 0.590338 0.712155
O O9 0.750000 0.750000 0.750000
O O10 0.715958 0.760601 0.848091
O O11 0.000000 0.817446 0.804350
O O12 0.500000 0.190378 0.390383
#
# Coordination Sequence:
#
# PCOD9517306 Si02
#       6
#     8   8   8   2  16  16
#     4  10  17  25  44  69  90 113 147 185 216 259
#     4   8  14  22  36  61  90 115 135 179 227 264
#     4  10  20  31  42  62  95 123 144 176 228 265
#     4   8  12  20  36  60  96 106 138 176 244 258
#     4  10  19  31  45  65  89 119 150 182 219 265
#     4   9  16  25  41  63  90 116 145 180 220 263
#
# _framework density 19.556946
#
# number of rings (size 3 to 8) (size 9 to 14) (size 15 to 20)
#    0.414    2.207    2.759    0.828    1.931    0.000 
#    0.000    0.000    0.000    0.828    0.000   10.621 
#    0.000    0.000    0.000    3.724    0.000    4.138 
#
# Total GULP energy -161459.688986 kJ/mol
# GULP energy per Si atom -5567.575482 kJ/mol
# Density = 1.951243 g / cm^3
# Si number density = 19.556946 Si / 1000 Ang^3
#
#
#
# Elastic Constant Matrix: (Units=GPa)
#
#
# Indices 1 2 3 4 5 6 
#
# 1 67.3439 1.9463 -5.4908 0.0000 0.0000 0.0000
# 2 1.9463 147.3244 91.4592 0.0000 0.0000 0.0000
# 3 -5.4908 91.4592 198.3848 0.0000 0.0000 0.0000
# 4 0.0000 0.0000 0.0000 11.8442 0.0000 0.0000
# 5 0.0000 0.0000 0.0000 0.0000 11.2493 0.0000
# 6 0.0000 0.0000 0.0000 0.0000 0.0000 -1.8488
#
#
#
# Elastic Compliance Matrix: (Units=1/GPa)
#
#
# Indices 1 2 3 4 5 6 
#
# 1 0.014925 -0.000635 0.000706 0.000000 0.000000 0.000000
# 2 -0.000635 0.009536 -0.004414 0.000000 0.000000 0.000000
# 3 0.000706 -0.004414 0.007095 0.000000 0.000000 0.000000
# 4 0.000000 0.000000 0.000000 0.084430 0.000000 0.000000
# 5 0.000000 0.000000 0.000000 0.000000 0.088894 0.000000
# 6 0.000000 0.000000 0.000000 0.000000 0.000000 -0.540879
#
#
# Mechanical properties :
#
#
# Convention : Reuss Voigt Hill
#
# Bulk Modulus (GPa) = 43.72593 65.43139 54.57866
# Shear Modulus (GPa) = -15.64026 25.92483 5.14228
#
# Velocity S-wave (km/s) = -2.83102 3.64484 1.62330
# Velocity P-wave (km/s) = 3.42354 7.15840 5.61085
#
# Compressibility (1/GPa) = 0.02286972
#
# Stress axis : x y z
#
# Youngs Moduli (GPa) = 67.00129 104.86162 140.94021
#
# Poissons Ratio (x) = 0.06664 -0.09951
# Poissons Ratio (y) = 0.04258 0.62212
# Poissons Ratio (z) = -0.04731 0.46286
#
# Static dielectric constant tensor:
#      x y z
#    x 1.798250 0.000000 0.000000 
#    y 0.000000 1.656910 0.000000 
#    z 0.000000 0.000000 1.703500 
# 
# From -- ./inp_files/62782.got.cif
#   From: 2010.05.17/outbox.cif.g08.bks.cpg/sg71_32_cif.got.tgz:62782.got - 2010.06.03 16:22:01.
