data_PCOD9517566
_publ_section_title
;
Structure prediction by ZEFSAII (Michael W. Deem and Ramdas Pophale) SiO2 
 PCOD9517566
Probable space group: I M M M
;
_chemical_formula_sum "Si O2"
_cell_formula_units_Z 120
_cell_length_a 13.560545
_cell_length_b 20.444179
_cell_length_c 27.635743
_cell_angle_alpha 90.000000
_cell_angle_beta 90.000000
_cell_angle_gamma 90.000000
_cell_volume 7661.573360
_symmetry_space_group_name_H-M "I M M M"
_symmetry_group_IT_number 71
_symmetry_cell_setting 'orthorhombic'
loop_
_space_group_symop_operation_xyz
x,y,z
-x,-y,z
x,-y,-z
-x,y,-z
-x,-y,-z
x,y,-z
-x,y,z
x,-y,z
1/2+x,1/2+y,1/2+z
1/2-x,1/2-y,1/2+z
1/2+x,1/2-y,1/2-z
1/2-x,1/2+y,1/2-z
1/2-x,1/2-y,1/2-z
1/2+x,1/2+y,1/2-z
1/2-x,1/2+y,1/2+z
1/2+x,1/2-y,1/2+z
loop_
_atom_site_type_symbol
_atom_site_label
_atom_site_fract_x
_atom_site_fract_y
_atom_site_fract_z
Si Si1 0.112713 0.398183 0.268764
Si Si2 0.884420 0.252345 0.761155
Si Si3 0.380930 0.660515 0.406636
Si Si4 0.299221 0.926485 0.663495
Si Si5 0.385364 0.616298 0.779548
Si Si6 0.119036 0.704650 0.131776
Si Si7 0.309974 0.571152 0.678831
Si Si8 0.619902 0.576093 0.500000
O O1 0.122425 0.319421 0.268150
O O2 0.138127 0.419715 0.213720
O O3 0.196576 0.424880 0.303871
O O4 0.000000 0.415689 0.280104
O O5 0.845006 0.189296 0.733383
O O6 0.850084 0.266618 0.815522
O O7 0.000000 0.236560 0.767142
O O8 0.500000 0.657316 0.403059
O O9 0.355544 0.737798 0.405907
O O10 0.337422 0.626380 0.359113
O O11 0.350099 0.617869 0.452884
O O12 0.187112 0.914970 0.681319
O O13 0.332904 0.866940 0.629336
O O14 0.312180 0.000000 0.644685
O O15 0.500000 0.617064 0.793712
O O16 0.371539 0.579969 0.728295
O O17 0.000000 0.696361 0.132277
O O18 0.331325 0.500000 0.657418
O O19 0.652797 0.500000 0.500000
O O20 0.500000 0.574494 0.500000
#
# Coordination Sequence:
#
# PCOD9517566 Si02
#       8
#    16  16  16  16  16  16  16   8
#     4   9  18  29  41  57  83 116 154 192 221 246
#     4   8  14  25  39  56  75 109 151 183 214 241
#     4  10  19  32  48  67  89 112 138 170 213 264
#     4  10  20  28  40  61  84 118 155 185 219 249
#     4  10  18  27  39  57  86 120 154 184 214 252
#     4   9  17  29  45  62  80 109 147 185 217 249
#     4  11  21  27  40  63  84 114 148 180 218 254
#     4   9  18  32  50  70  94 118 134 161 210 264
#
# _framework density 15.662578999999999
#
# number of rings (size 3 to 8) (size 9 to 14) (size 15 to 20)
#    0.000    2.467    1.333    3.600    1.867    5.867 
#    0.000    0.000    0.000    0.000    0.000    0.933 
#    0.000    4.267    0.000    0.000    0.000    1.533 
#
# Total GULP energy -334337.372735 kJ/mol
# GULP energy per Si atom -5572.289546 kJ/mol
# Density = 1.562693 g / cm^3
# Si number density = 15.662579 Si / 1000 Ang^3
#
#
#
# Elastic Constant Matrix: (Units=GPa)
#
#
# Indices 1 2 3 4 5 6 
#
# 1 62.3103 18.9638 10.1491 0.0000 0.0000 0.0000
# 2 18.9638 141.7979 27.9648 0.0000 0.0000 0.0000
# 3 10.1491 27.9648 34.1026 0.0000 0.0000 0.0000
# 4 0.0000 0.0000 0.0000 15.0282 0.0000 0.0000
# 5 0.0000 0.0000 0.0000 0.0000 8.2978 0.0000
# 6 0.0000 0.0000 0.0000 0.0000 0.0000 8.4007
#
#
#
# Elastic Compliance Matrix: (Units=1/GPa)
#
#
# Indices 1 2 3 4 5 6 
#
# 1 0.017142 -0.001535 -0.003843 0.000000 0.000000 0.000000
# 2 -0.001535 0.008550 -0.006555 0.000000 0.000000 0.000000
# 3 -0.003843 -0.006555 0.035842 0.000000 0.000000 0.000000
# 4 0.000000 0.000000 0.000000 0.066542 0.000000 0.000000
# 5 0.000000 0.000000 0.000000 0.000000 0.120513 0.000000
# 6 0.000000 0.000000 0.000000 0.000000 0.000000 0.119038
#
#
# Mechanical properties :
#
#
# Convention : Reuss Voigt Hill
#
# Bulk Modulus (GPa) = 26.54683 39.15178 32.84931
# Shear Modulus (GPa) = 12.37479 18.42089 15.39784
#
# Velocity S-wave (km/s) = 2.81390 3.43316 3.13884
# Velocity P-wave (km/s) = 5.24818 6.38489 5.84423
#
# Compressibility (1/GPa) = 0.03766928
#
# Stress axis : x y z
#
# Youngs Moduli (GPa) = 58.33724 116.95632 27.90028
#
# Poissons Ratio (x) = 0.17948 0.10722
# Poissons Ratio (y) = 0.08952 0.18288
# Poissons Ratio (z) = 0.22419 0.76661
#
# Static dielectric constant tensor:
#      x y z
#    x 1.543170 0.000000 0.000000 
#    y 0.000000 1.593210 0.000000 
#    z 0.000000 0.000000 1.485900 
# 
# From -- ./inp_files/60198.got.cif
#   From: 2010.05.17/outbox.cif.g08.bks.cpg/sg71_31_cif.got.tgz:60198.got - 2010.06.03 16:22:01.
