data_PCOD9517559
_publ_section_title
;
Structure prediction by ZEFSAII (Michael W. Deem and Ramdas Pophale) SiO2 
 PCOD9517559
Probable space group: I M M M
;
_chemical_formula_sum "Si O2"
_cell_formula_units_Z 80
_cell_length_a 27.834510
_cell_length_b 7.597537
_cell_length_c 24.407212
_cell_angle_alpha 90.000000
_cell_angle_beta 90.000000
_cell_angle_gamma 90.000000
_cell_volume 5161.483907
_symmetry_space_group_name_H-M "I M M M"
_symmetry_group_IT_number 71
_symmetry_cell_setting 'orthorhombic'
loop_
_space_group_symop_operation_xyz
x,y,z
-x,-y,z
x,-y,-z
-x,y,-z
-x,-y,-z
x,y,-z
-x,y,z
x,-y,z
1/2+x,1/2+y,1/2+z
1/2-x,1/2-y,1/2+z
1/2+x,1/2-y,1/2-z
1/2-x,1/2+y,1/2-z
1/2-x,1/2-y,1/2-z
1/2+x,1/2+y,1/2-z
1/2-x,1/2+y,1/2+z
1/2+x,1/2-y,1/2+z
loop_
_atom_site_type_symbol
_atom_site_label
_atom_site_fract_x
_atom_site_fract_y
_atom_site_fract_z
Si Si1 0.401439 0.214985 0.500000
Si Si2 0.202539 0.289208 0.714207
Si Si3 0.554619 0.784255 0.616025
Si Si4 0.640344 0.793981 0.690206
Si Si5 0.791127 0.290503 0.000000
Si Si6 0.266144 0.292080 0.620898
O O1 0.427918 0.269912 0.555504
O O2 0.346191 0.276453 0.500000
O O3 0.400966 0.000000 0.500000
O O4 0.195641 0.500000 0.711145
O O5 0.250000 0.250000 0.750000
O O6 0.159255 0.218078 0.751876
O O7 0.219305 0.225779 0.654296
O O8 0.500000 0.729985 0.626360
O O9 0.593470 0.720262 0.660384
O O10 0.555649 0.000000 0.616243
O O11 0.685193 0.784886 0.647690
O O12 0.630513 0.000000 0.699574
O O13 0.765919 0.237174 0.943681
O O14 0.794058 0.500000 0.000000
O O15 0.269488 0.500000 0.631185
#
# Coordination Sequence:
#
# PCOD9517559 Si02
#       6
#     8  16  16  16   8  16
#     4   9  15  23  34  50  70  94 124 157 189 211
#     4   8  15  25  38  54  73  94 119 151 186 223
#     4   9  15  22  35  55  75  95 126 165 193 212
#     4   9  15  26  41  56  73  96 126 157 187 222
#     4  11  19  28  41  55  72 100 129 158 189 221
#     4  10  18  27  38  55  75  97 123 154 190 225
#
# _framework density 15.499419
#
# number of rings (size 3 to 8) (size 9 to 14) (size 15 to 20)
#    0.000    2.800    2.000    1.200    0.000    2.000 
#    0.000    0.000    0.000    0.600    0.000    1.400 
#    0.000    0.000    0.000    0.900    0.000   24.400 
#
# Total GULP energy -222724.386554 kJ/mol
# GULP energy per Si atom -5568.109664 kJ/mol
# Density = 1.546414 g / cm^3
# Si number density = 15.499419 Si / 1000 Ang^3
#
#
#
# Elastic Constant Matrix: (Units=GPa)
#
#
# Indices 1 2 3 4 5 6 
#
# 1 103.2041 4.8161 86.2668 0.0000 0.0000 0.0000
# 2 4.8161 34.1436 -3.0125 0.0000 0.0000 0.0000
# 3 86.2668 -3.0125 123.1244 0.0000 0.0000 0.0000
# 4 0.0000 0.0000 0.0000 1.9247 0.0000 0.0000
# 5 0.0000 0.0000 0.0000 0.0000 15.0339 0.0000
# 6 0.0000 0.0000 0.0000 0.0000 0.0000 5.6753
#
#
#
# Elastic Compliance Matrix: (Units=1/GPa)
#
#
# Indices 1 2 3 4 5 6 
#
# 1 0.024182 -0.004916 -0.017063 0.000000 0.000000 0.000000
# 2 -0.004916 0.030351 0.004187 0.000000 0.000000 0.000000
# 3 -0.017063 0.004187 0.020180 0.000000 0.000000 0.000000
# 4 0.000000 0.000000 0.000000 0.519569 0.000000 0.000000
# 5 0.000000 0.000000 0.000000 0.000000 0.066516 0.000000
# 6 0.000000 0.000000 0.000000 0.000000 0.000000 0.176202
#
#
# Mechanical properties :
#
#
# Convention : Reuss Voigt Hill
#
# Bulk Modulus (GPa) = 25.55737 48.51256 37.03497
# Shear Modulus (GPa) = 5.64571 16.02022 10.83296
#
# Velocity S-wave (km/s) = 1.91061 3.21845 2.64659
# Velocity P-wave (km/s) = 4.62518 6.72152 5.76936
#
# Compressibility (1/GPa) = 0.03912766
#
# Stress axis : x y z
#
# Youngs Moduli (GPa) = 41.35316 32.94789 49.55479
#
# Poissons Ratio (x) = 0.16199 0.84557
# Poissons Ratio (y) = 0.20331 -0.20750
# Poissons Ratio (z) = 0.70562 -0.13796
#
# Static dielectric constant tensor:
#      x y z
#    x 1.512610 0.000000 0.000000 
#    y 0.000000 1.585770 0.000000 
#    z 0.000000 0.000000 1.564400 
# 
# From -- ./inp_files/11280.got.cif
#   From: 2010.05.17/outbox.cif.g08.bks.cpg/sg71_6_cif.got.tgz:11280.got - 2010.06.03 16:22:01.
