data_PCOD9517267
_publ_section_title
;
Structure prediction by ZEFSAII (Michael W. Deem and Ramdas Pophale) SiO2 
 PCOD9517267
Probable space group: I M M M
;
_chemical_formula_sum "Si O2"
_cell_formula_units_Z 80
_cell_length_a 7.937304
_cell_length_b 29.642465
_cell_length_c 17.144913
_cell_angle_alpha 90.000000
_cell_angle_beta 90.000000
_cell_angle_gamma 90.000000
_cell_volume 4033.876665
_symmetry_space_group_name_H-M "I M M M"
_symmetry_group_IT_number 71
_symmetry_cell_setting 'orthorhombic'
loop_
_space_group_symop_operation_xyz
x,y,z
-x,-y,z
x,-y,-z
-x,y,-z
-x,-y,-z
x,y,-z
-x,y,z
x,-y,z
1/2+x,1/2+y,1/2+z
1/2-x,1/2-y,1/2+z
1/2+x,1/2-y,1/2-z
1/2-x,1/2+y,1/2-z
1/2-x,1/2-y,1/2-z
1/2+x,1/2+y,1/2-z
1/2-x,1/2+y,1/2+z
1/2+x,1/2-y,1/2+z
loop_
_atom_site_type_symbol
_atom_site_label
_atom_site_fract_x
_atom_site_fract_y
_atom_site_fract_z
Si Si1 0.796587 0.450517 0.673326
Si Si2 0.809141 0.565847 0.500000
Si Si3 0.197263 0.218179 0.843771
Si Si4 0.187557 0.160681 0.000000
Si Si5 0.200918 0.139589 0.266063
Si Si6 0.797232 0.311345 0.089667
O O1 0.745609 0.500000 0.704212
O O2 0.732361 0.446886 0.583679
O O3 0.746959 0.407198 0.724141
O O4 0.000000 0.449471 0.669468
O O5 0.813626 0.619841 0.500000
O O6 0.000000 0.548314 0.500000
O O7 0.272929 0.182943 0.781945
O O8 0.271996 0.266923 0.864988
O O9 0.000000 0.225420 0.822310
O O10 0.201518 0.191301 0.924677
O O11 0.000000 0.139907 0.000000
O O12 0.256592 0.146387 0.355209
O O13 0.000000 0.142642 0.262268
O O14 0.000000 0.306303 0.085679
O O15 0.736819 0.313695 0.000000
#
# Coordination Sequence:
#
# PCOD9517267 Si02
#       6
#    16   8  16   8  16  16
#     4  10  21  37  56  78 107 143 181 220 263 315
#     4  10  19  32  52  80 110 142 180 221 261 301
#     4   9  17  31  53  78 107 146 184 216 255 305
#     4  10  16  29  51  75 110 150 181 211 252 305
#     4  11  22  35  54  81 111 141 176 222 271 316
#     4  10  20  36  57  78 104 143 185 221 262 315
#
# _framework density 19.832038000000001
#
# number of rings (size 3 to 8) (size 9 to 14) (size 15 to 20)
#    0.000    2.000    3.000    1.500    0.000    2.000 
#    0.000    2.000    0.000    2.400    0.000    4.200 
#    0.000    0.000    0.000    0.000    0.000    0.000 
#
# Total GULP energy -223055.760188 kJ/mol
# GULP energy per Si atom -5576.394005 kJ/mol
# Density = 1.978690 g / cm^3
# Si number density = 19.832038 Si / 1000 Ang^3
#
#
#
# Elastic Constant Matrix: (Units=GPa)
#
#
# Indices 1 2 3 4 5 6 
#
# 1 28.6781 15.8152 11.5777 0.0000 0.0000 0.0000
# 2 15.8152 131.4089 91.3487 0.0000 0.0000 0.0000
# 3 11.5777 91.3487 127.4783 -0.0001 0.0002 0.0000
# 4 0.0000 0.0000 -0.0001 7.7838 0.0001 0.0000
# 5 0.0000 0.0000 0.0002 0.0001 -109.7056 0.0000
# 6 0.0000 0.0000 0.0000 0.0000 0.0000 15.0397
#
#
#
# Elastic Compliance Matrix: (Units=1/GPa)
#
#
# Indices 1 2 3 4 5 6 
#
# 1 0.037356 -0.004259 -0.000341 0.000000 0.000000 0.000000
# 2 -0.004259 0.015649 -0.010827 0.000000 0.000000 0.000000
# 3 -0.000341 -0.010827 0.015634 0.000000 0.000000 0.000000
# 4 0.000000 0.000000 0.000000 0.128472 0.000000 0.000000
# 5 0.000000 0.000000 0.000000 0.000000 -0.009115 0.000000
# 6 0.000000 0.000000 0.000000 0.000000 0.000000 0.066490
#
#
# Mechanical properties :
#
#
# Convention : Reuss Voigt Hill
#
# Bulk Modulus (GPa) = 26.46522 58.33871 42.40196
# Shear Modulus (GPa) = 16.78229 -6.12150 5.33040
#
# Velocity S-wave (km/s) = 2.91214 -1.75880 1.64122
# Velocity P-wave (km/s) = 4.96801 5.03545 5.00184
#
# Compressibility (1/GPa) = 0.03778544
#
# Stress axis : x y z
#
# Youngs Moduli (GPa) = 26.76937 63.90376 63.96468
#
# Poissons Ratio (x) = 0.27216 0.02180
# Poissons Ratio (y) = 0.11401 0.69252
# Poissons Ratio (z) = 0.00912 0.69186
#
# Static dielectric constant tensor:
#      x y z
#    x 1.727130 0.000000 0.000000 
#    y 0.000000 1.698760 0.000000 
#    z 0.000000 0.000000 1.702510 
# 
# From -- ./inp_files/42259.got.cif
#   From: 2010.05.17/outbox.cif.g08.bks.cpg/sg71_22_cif.got.tgz:42259.got - 2010.06.03 16:22:01.
