data_PCOD9517229
_publ_section_title
;
Structure prediction by ZEFSAII (Michael W. Deem and Ramdas Pophale) SiO2 
 PCOD9517229
Probable space group: I M M M
;
_chemical_formula_sum "Si O2"
_cell_formula_units_Z 104
_cell_length_a 8.534541
_cell_length_b 22.408163
_cell_length_c 38.831467
_cell_angle_alpha 90.000000
_cell_angle_beta 90.000000
_cell_angle_gamma 90.000000
_cell_volume 7426.261227
_symmetry_space_group_name_H-M "I M M M"
_symmetry_group_IT_number 71
_symmetry_cell_setting 'orthorhombic'
loop_
_space_group_symop_operation_xyz
x,y,z
-x,-y,z
x,-y,-z
-x,y,-z
-x,-y,-z
x,y,-z
-x,y,z
x,-y,z
1/2+x,1/2+y,1/2+z
1/2-x,1/2-y,1/2+z
1/2+x,1/2-y,1/2-z
1/2-x,1/2+y,1/2-z
1/2-x,1/2-y,1/2-z
1/2+x,1/2+y,1/2-z
1/2-x,1/2+y,1/2+z
1/2+x,1/2-y,1/2+z
loop_
_atom_site_type_symbol
_atom_site_label
_atom_site_fract_x
_atom_site_fract_y
_atom_site_fract_z
Si Si1 0.823258 0.000000 0.458212
Si Si2 0.811411 0.371690 0.039129
Si Si3 0.185775 0.625248 0.790809
Si Si4 0.812813 0.191310 0.770347
Si Si5 0.314264 0.742376 0.829583
Si Si6 0.186622 0.066934 0.354717
Si Si7 0.313409 0.183409 0.392515
O O1 0.741206 0.062087 0.449427
O O2 0.828103 0.000000 0.500000
O O3 0.000000 0.000000 0.444575
O O4 0.761528 0.324203 0.067910
O O5 0.000000 0.371528 0.038413
O O6 0.754540 0.361247 0.000000
O O7 0.251971 0.636249 0.752560
O O8 0.227379 0.686474 0.811321
O O9 0.266796 0.575811 0.814642
O O10 0.000000 0.617141 0.789986
O O11 0.750000 0.250000 0.750000
O O12 0.745541 0.200007 0.808749
O O13 0.000000 0.192484 0.770649
O O14 0.500000 0.735766 0.824715
O O15 0.270350 0.733486 0.869426
O O16 0.273084 0.119154 0.375409
O O17 0.000000 0.075564 0.358294
O O18 0.227407 0.000000 0.366071
O O19 0.500000 0.192560 0.390866
#
# Coordination Sequence:
#
# PCOD9517229 Si02
#       7
#     8  16  16  16  16  16  16
#     4   9  17  27  39  53  65  77  99 133 169 205
#     4   9  18  31  43  53  66  85 109 138 173 214
#     4  10  17  26  39  54  70  88 112 137 163 198
#     4  10  16  24  38  54  72  90 109 131 159 195
#     4  10  17  26  38  53  72  89 107 132 165 202
#     4  10  20  31  40  51  69  92 115 142 175 210
#     4  10  19  29  41  54  68  87 112 140 174 215
#
# _framework density 14.004356
#
# number of rings (size 3 to 8) (size 9 to 14) (size 15 to 20)
#    0.000    2.231    0.000    9.000    1.077    3.385 
#    0.000    0.000    0.000    0.000    0.000    0.000 
#    0.000    0.000    0.000    0.000    0.000    0.000 
#
# Total GULP energy -289675.174077 kJ/mol
# GULP energy per Si atom -5570.676425 kJ/mol
# Density = 1.397248 g / cm^3
# Si number density = 14.004356 Si / 1000 Ang^3
#
#
#
# Elastic Constant Matrix: (Units=GPa)
#
#
# Indices 1 2 3 4 5 6 
#
# 1 37.6355 -1.8314 8.3951 0.0000 0.0000 0.0000
# 2 -1.8314 5.6303 13.9343 0.0000 0.0000 0.0000
# 3 8.3951 13.9343 86.4251 0.0000 0.0000 0.0000
# 4 0.0000 0.0000 0.0000 23.3468 0.0000 0.0000
# 5 0.0000 0.0000 0.0000 0.0000 14.0145 0.0000
# 6 0.0000 0.0000 0.0000 0.0000 0.0000 11.1447
#
#
#
# Elastic Compliance Matrix: (Units=1/GPa)
#
#
# Indices 1 2 3 4 5 6 
#
# 1 0.029566 0.027830 -0.007359 0.000000 0.000000 0.000000
# 2 0.027830 0.321732 -0.054576 0.000000 0.000000 0.000000
# 3 -0.007359 -0.054576 0.021085 0.000000 0.000000 0.000000
# 4 0.000000 0.000000 0.000000 0.042832 0.000000 0.000000
# 5 0.000000 0.000000 0.000000 0.000000 0.071355 0.000000
# 6 0.000000 0.000000 0.000000 0.000000 0.000000 0.089729
#
#
# Mechanical properties :
#
#
# Convention : Reuss Voigt Hill
#
# Bulk Modulus (GPa) = 3.28760 18.96522 11.12641
# Shear Modulus (GPa) = 6.70331 16.98073 11.84202
#
# Velocity S-wave (km/s) = 2.19020 3.48592 2.91107
# Velocity P-wave (km/s) = 2.95781 5.45655 4.38877
#
# Compressibility (1/GPa) = 0.30417285
#
# Stress axis : x y z
#
# Youngs Moduli (GPa) = 33.82208 3.10818 47.42728
#
# Poissons Ratio (x) = -0.08650 0.34902
# Poissons Ratio (y) = -0.94128 2.58840
# Poissons Ratio (z) = 0.24890 0.16963
#
# Static dielectric constant tensor:
#      x y z
#    x 1.463520 0.000000 0.000000 
#    y 0.000000 1.445990 0.000000 
#    z 0.000000 0.000000 1.551560 
# 
# From -- ./inp_files/63909.got.cif
#   From: 2010.05.17/outbox.cif.g08.bks.cpg/sg71_32_cif.got.tgz:63909.got - 2010.06.03 16:22:01.
