data_PCOD9517379
_publ_section_title
;
Structure prediction by ZEFSAII (Michael W. Deem and Ramdas Pophale) SiO2 
 PCOD9517379
Probable space group: I M M M
;
_chemical_formula_sum "Si O2"
_cell_formula_units_Z 96
_cell_length_a 27.648807
_cell_length_b 29.608695
_cell_length_c 8.546756
_cell_angle_alpha 90.000000
_cell_angle_beta 90.000000
_cell_angle_gamma 90.000000
_cell_volume 6996.759865
_symmetry_space_group_name_H-M "I M M M"
_symmetry_group_IT_number 71
_symmetry_cell_setting 'orthorhombic'
loop_
_space_group_symop_operation_xyz
x,y,z
-x,-y,z
x,-y,-z
-x,y,-z
-x,-y,-z
x,y,-z
-x,y,z
x,-y,z
1/2+x,1/2+y,1/2+z
1/2-x,1/2-y,1/2+z
1/2+x,1/2-y,1/2-z
1/2-x,1/2+y,1/2-z
1/2-x,1/2-y,1/2-z
1/2+x,1/2+y,1/2-z
1/2-x,1/2+y,1/2+z
1/2+x,1/2-y,1/2+z
loop_
_atom_site_type_symbol
_atom_site_label
_atom_site_fract_x
_atom_site_fract_y
_atom_site_fract_z
Si Si1 0.259637 0.143609 0.814667
Si Si2 0.096326 0.450095 0.190240
Si Si3 0.703857 0.278096 0.186213
Si Si4 0.209976 0.448958 0.811589
Si Si5 0.851978 0.300971 0.812108
Si Si6 0.553938 0.144531 0.308858
O O1 0.214251 0.171764 0.748026
O O2 0.260949 0.091460 0.766359
O O3 0.308391 0.166503 0.744623
O O4 0.261011 0.148989 0.000000
O O5 0.080294 0.500000 0.243709
O O6 0.153004 0.444379 0.230401
O O7 0.066812 0.406497 0.243021
O O8 0.094079 0.450531 0.000000
O O9 0.750000 0.250000 0.250000
O O10 0.658869 0.249070 0.248209
O O11 0.704483 0.277729 0.000000
O O12 0.224887 0.500000 0.769589
O O13 0.212846 0.444587 0.000000
O O14 0.902822 0.322332 0.760421
O O15 0.850262 0.300083 0.000000
O O16 0.554444 0.144209 0.500000
O O17 0.500000 0.157216 0.258461
#
# Coordination Sequence:
#
# PCOD9517379 Si02
#       6
#    16  16  16  16  16  16
#     4  11  19  27  41  60  80 100 127 158 196 239
#     4   8  13  22  36  53  72  95 126 165 205 238
#     4  10  18  28  42  59  77  96 123 155 196 240
#     4   9  16  27  42  58  77 104 134 163 198 234
#     4  10  17  28  42  56  78 101 126 162 201 239
#     4   9  16  24  37  57  77  99 129 167 208 243
#
# _framework density 13.720636000000001
#
# number of rings (size 3 to 8) (size 9 to 14) (size 15 to 20)
#    0.000    2.500    1.667    6.500    0.000    0.667 
#    0.000    1.667    0.000    2.000    0.000    0.000 
#    0.000    2.667    0.000    0.000    0.000    0.833 
#
# Total GULP energy -267405.935044 kJ/mol
# GULP energy per Si atom -5570.956980 kJ/mol
# Density = 1.368941 g / cm^3
# Si number density = 13.720636 Si / 1000 Ang^3
#
#
#
# Elastic Constant Matrix: (Units=GPa)
#
#
# Indices 1 2 3 4 5 6 
#
# 1 63.7465 58.8335 18.3936 0.0000 0.0000 0.0000
# 2 58.8335 98.8604 31.2277 0.0000 0.0000 0.0000
# 3 18.3936 31.2277 55.0777 0.0000 0.0000 0.0000
# 4 0.0000 0.0000 0.0000 19.2102 0.0000 0.0000
# 5 0.0000 0.0000 0.0000 0.0000 7.4163 0.0000
# 6 0.0000 0.0000 0.0000 0.0000 0.0000 19.0832
#
#
#
# Elastic Compliance Matrix: (Units=1/GPa)
#
#
# Indices 1 2 3 4 5 6 
#
# 1 0.034803 -0.020758 0.000147 0.000000 0.000000 0.000000
# 2 -0.020758 0.024703 -0.007074 0.000000 0.000000 0.000000
# 3 0.000147 -0.007074 0.022118 0.000000 0.000000 0.000000
# 4 0.000000 0.000000 0.000000 0.052056 0.000000 0.000000
# 5 0.000000 0.000000 0.000000 0.000000 0.134839 0.000000
# 6 0.000000 0.000000 0.000000 0.000000 0.000000 0.052402
#
#
# Mechanical properties :
#
#
# Convention : Reuss Voigt Hill
#
# Bulk Modulus (GPa) = 38.09011 48.28826 43.18919
# Shear Modulus (GPa) = 12.98555 16.42391 14.70473
#
# Velocity S-wave (km/s) = 3.07974 3.46355 3.27727
# Velocity P-wave (km/s) = 6.36143 7.15998 6.77248
#
# Compressibility (1/GPa) = 0.02625354
#
# Stress axis : x y z
#
# Youngs Moduli (GPa) = 28.73291 40.48031 45.21237
#
# Poissons Ratio (x) = 0.84030 -0.00663
# Poissons Ratio (y) = 0.59645 0.31982
# Poissons Ratio (z) = -0.00421 0.28635
#
# Static dielectric constant tensor:
#      x y z
#    x 1.435380 0.000000 0.000000 
#    y 0.000000 1.480230 0.000000 
#    z 0.000000 0.000000 1.469050 
# 
# From -- ./inp_files/15445.got.cif
#   From: 2010.05.17/outbox.cif.g08.bks.cpg/sg71_8_cif.got.tgz:15445.got - 2010.06.03 16:22:01.
