data_PCOD9517487
_publ_section_title
;
Structure prediction by ZEFSAII (Michael W. Deem and Ramdas Pophale) SiO2 
 PCOD9517487
Probable space group: I M M M
;
_chemical_formula_sum "Si O2"
_cell_formula_units_Z 72
_cell_length_a 21.268356
_cell_length_b 21.790782
_cell_length_c 7.567323
_cell_angle_alpha 90.000000
_cell_angle_beta 90.000000
_cell_angle_gamma 90.000000
_cell_volume 3507.106939
_symmetry_space_group_name_H-M "I M M M"
_symmetry_group_IT_number 71
_symmetry_cell_setting 'orthorhombic'
loop_
_space_group_symop_operation_xyz
x,y,z
-x,-y,z
x,-y,-z
-x,y,-z
-x,-y,-z
x,y,-z
-x,y,z
x,-y,z
1/2+x,1/2+y,1/2+z
1/2-x,1/2-y,1/2+z
1/2+x,1/2-y,1/2-z
1/2-x,1/2+y,1/2-z
1/2-x,1/2-y,1/2-z
1/2+x,1/2+y,1/2-z
1/2-x,1/2+y,1/2+z
1/2+x,1/2-y,1/2+z
loop_
_atom_site_type_symbol
_atom_site_label
_atom_site_fract_x
_atom_site_fract_y
_atom_site_fract_z
Si Si1 0.500000 0.842791 0.707128
Si Si2 0.500000 0.296019 0.281657
Si Si3 0.115034 0.568836 0.711660
Si Si4 0.378092 0.368703 0.299281
Si Si5 0.574791 0.500000 0.794249
Si Si6 0.243020 0.071301 0.783707
O O1 0.500000 0.833456 0.500000
O O2 0.500000 0.774091 0.781196
O O3 0.561553 0.882309 0.749774
O O4 0.500000 0.300440 0.500000
O O5 0.435565 0.329399 0.221400
O O6 0.119004 0.564906 0.500000
O O7 0.098785 0.500000 0.776762
O O8 0.185554 0.584631 0.773152
O O9 0.369445 0.346075 0.500000
O O10 0.402504 0.438572 0.298396
O O11 0.308708 0.379761 0.219428
O O12 0.500000 0.500000 0.791782
O O13 0.594920 0.500000 0.000000
O O14 0.229393 0.000000 0.733295
O O15 0.240720 0.072362 0.000000
#
# Coordination Sequence:
#
# PCOD9517487 Si02
#       6
#     8   8  16  16   8  16
#     4  11  22  36  50  71 104 134 167 208 253 298
#     4   9  20  33  49  73  99 134 177 218 241 273
#     4   9  18  34  56  80 101 122 157 206 258 306
#     4  10  17  31  54  74  95 132 179 211 240 287
#     4  11  21  29  41  71 111 138 161 206 259 293
#     4   8  14  26  50  81 102 117 155 213 254 287
#
# _framework density 20.529741000000001
#
# number of rings (size 3 to 8) (size 9 to 14) (size 15 to 20)
#    0.000    2.556    2.222    2.333    0.000    2.222 
#    0.000    4.444    0.000    0.000    0.000    0.000 
#    0.000    0.000    0.000    0.000    0.000    0.000 
#
# Total GULP energy -200659.410129 kJ/mol
# GULP energy per Si atom -5573.872504 kJ/mol
# Density = 2.048301 g / cm^3
# Si number density = 20.529741 Si / 1000 Ang^3
#
#
#
# Elastic Constant Matrix: (Units=GPa)
#
#
# Indices 1 2 3 4 5 6 
#
# 1 196.3433 106.1790 2.9525 0.0000 0.0000 0.0000
# 2 106.1790 131.3442 -3.7950 0.0000 0.0000 0.0000
# 3 2.9525 -3.7950 49.8703 0.0000 0.0000 0.0000
# 4 0.0000 0.0000 0.0000 8.4946 0.0000 0.0000
# 5 0.0000 0.0000 0.0000 0.0000 -9.0991 0.0000
# 6 0.0000 0.0000 0.0000 0.0000 0.0000 -12.2281
#
#
#
# Elastic Compliance Matrix: (Units=1/GPa)
#
#
# Indices 1 2 3 4 5 6 
#
# 1 0.009109 -0.007396 -0.001102 0.000000 0.000000 0.000000
# 2 -0.007396 0.013635 0.001475 0.000000 0.000000 0.000000
# 3 -0.001102 0.001475 0.020230 0.000000 0.000000 0.000000
# 4 0.000000 0.000000 0.000000 0.117721 0.000000 0.000000
# 5 0.000000 0.000000 0.000000 0.000000 -0.109901 0.000000
# 6 0.000000 0.000000 0.000000 0.000000 0.000000 -0.081779
#
#
# Mechanical properties :
#
#
# Convention : Reuss Voigt Hill
#
# Bulk Modulus (GPa) = 34.56751 65.35900 49.96325
# Shear Modulus (GPa) = -685.24313 15.58156 -334.83078
#
# Velocity S-wave (km/s) = -18.28949 2.75794 -12.78474
# Velocity P-wave (km/s) = 20.71552 6.48437 13.91197
#
# Compressibility (1/GPa) = 0.02892890
#
# Stress axis : x y z
#
# Youngs Moduli (GPa) = 109.77950 73.34102 49.43264
#
# Poissons Ratio (x) = 0.54241 0.05448
# Poissons Ratio (y) = 0.81190 -0.07294
# Poissons Ratio (z) = 0.12099 -0.10821
#
# Static dielectric constant tensor:
#      x y z
#    x 1.814090 0.000000 0.000000 
#    y 0.000000 1.712560 0.000000 
#    z 0.000000 0.000000 1.792700 
# 
# From -- ./inp_files/9998.got.cif
#   From: 2010.05.17/outbox.cif.g08.bks.cpg/sg71_5_cif.got.tgz:9998.got - 2010.06.03 16:22:01.
