data_PCOD9517874
_publ_section_title
;
Structure prediction by ZEFSAII (Michael W. Deem and Ramdas Pophale) SiO2 
 PCOD9517874
Probable space group: I M M M
;
_chemical_formula_sum "Si O2"
_cell_formula_units_Z 104
_cell_length_a 12.333796
_cell_length_b 16.361461
_cell_length_c 28.847707
_cell_angle_alpha 90.000000
_cell_angle_beta 90.000000
_cell_angle_gamma 90.000000
_cell_volume 5821.436182
_symmetry_space_group_name_H-M "I M M M"
_symmetry_group_IT_number 71
_symmetry_cell_setting 'orthorhombic'
loop_
_space_group_symop_operation_xyz
x,y,z
-x,-y,z
x,-y,-z
-x,y,-z
-x,-y,-z
x,y,-z
-x,y,z
x,-y,z
1/2+x,1/2+y,1/2+z
1/2-x,1/2-y,1/2+z
1/2+x,1/2-y,1/2-z
1/2-x,1/2+y,1/2-z
1/2-x,1/2-y,1/2-z
1/2+x,1/2+y,1/2-z
1/2-x,1/2+y,1/2+z
1/2+x,1/2-y,1/2+z
loop_
_atom_site_type_symbol
_atom_site_label
_atom_site_fract_x
_atom_site_fract_y
_atom_site_fract_z
Si Si1 0.215982 0.180803 0.362693
Si Si2 0.125909 0.666654 0.304929
Si Si3 0.368646 0.593899 0.500000
Si Si4 0.624049 0.905194 0.705667
Si Si5 0.339689 0.593196 0.673922
Si Si6 0.500000 0.402132 0.860880
Si Si7 0.876501 0.794175 0.913273
Si Si8 0.500000 0.598081 0.247042
O O1 0.173146 0.251088 0.327395
O O2 0.289786 0.119793 0.332687
O O3 0.109842 0.135192 0.381181
O O4 0.291434 0.223310 0.401192
O O5 0.132028 0.655508 0.249489
O O6 0.210474 0.599577 0.323196
O O7 0.000000 0.656240 0.317829
O O8 0.328522 0.500000 0.500000
O O9 0.500000 0.589060 0.500000
O O10 0.339338 0.646455 0.545266
O O11 0.500000 0.898980 0.688223
O O12 0.641237 0.000000 0.720464
O O13 0.372633 0.500000 0.665680
O O14 0.379066 0.650847 0.633055
O O15 0.395466 0.621364 0.722211
O O16 0.500000 0.500000 0.863165
O O17 0.500000 0.375871 0.806021
O O18 0.000000 0.765606 0.922782
O O19 0.500000 0.500000 0.244562
#
# Coordination Sequence:
#
# PCOD9517874 Si02
#       8
#    16  16   8  16  16   8  16   8
#     4  11  21  35  50  74 104 139 183 228 275 321
#     4  10  20  33  45  67  98 139 186 228 265 309
#     4   9  18  34  60  91 119 142 168 211 270 340
#     4  10  20  33  49  69  98 138 184 230 273 317
#     4  10  18  29  48  72 103 142 180 221 263 311
#     4  11  22  36  54  75 105 149 193 233 265 307
#     4  10  20  34  54  82 112 139 172 217 275 331
#     4   9  18  30  46  71 103 137 183 227 263 301
#
# _framework density 17.865008
#
# number of rings (size 3 to 8) (size 9 to 14) (size 15 to 20)
#    0.000    1.923    1.538    3.231    0.000    4.000 
#    0.000    0.000    0.000    0.462    0.000    3.231 
#    0.000    8.615    0.000    0.000    0.000    0.000 
#
# Total GULP energy -290060.931023 kJ/mol
# GULP energy per Si atom -5578.094827 kJ/mol
# Density = 1.782435 g / cm^3
# Si number density = 17.865008 Si / 1000 Ang^3
#
#
#
# Elastic Constant Matrix: (Units=GPa)
#
#
# Indices 1 2 3 4 5 6 
#
# 1 125.7097 46.2559 26.2686 0.0000 0.0000 0.0000
# 2 46.2559 75.7664 17.8556 0.0000 0.0000 0.0000
# 3 26.2686 17.8556 44.6262 0.0000 0.0000 0.0000
# 4 0.0000 0.0000 0.0000 18.7347 0.0000 0.0000
# 5 0.0000 0.0000 0.0000 0.0000 7.1516 0.0000
# 6 0.0000 0.0000 0.0000 0.0000 0.0000 18.8234
#
#
#
# Elastic Compliance Matrix: (Units=1/GPa)
#
#
# Indices 1 2 3 4 5 6 
#
# 1 0.010914 -0.005685 -0.004150 0.000000 0.000000 0.000000
# 2 -0.005685 0.017534 -0.003669 0.000000 0.000000 0.000000
# 3 -0.004150 -0.003669 0.026319 0.000000 0.000000 0.000000
# 4 0.000000 0.000000 0.000000 0.053377 0.000000 0.000000
# 5 0.000000 0.000000 0.000000 0.000000 0.139829 0.000000
# 6 0.000000 0.000000 0.000000 0.000000 0.000000 0.053125
#
#
# Mechanical properties :
#
#
# Convention : Reuss Voigt Hill
#
# Bulk Modulus (GPa) = 36.02407 47.42916 41.72662
# Shear Modulus (GPa) = 14.82103 19.32342 17.07222
#
# Velocity S-wave (km/s) = 2.88342 3.29239 3.09467
# Velocity P-wave (km/s) = 5.59409 6.40776 6.01470
#
# Compressibility (1/GPa) = 0.02775922
#
# Stress axis : x y z
#
# Youngs Moduli (GPa) = 91.62713 57.03237 37.99526
#
# Poissons Ratio (x) = 0.32423 0.15767
# Poissons Ratio (y) = 0.52090 0.13941
# Poissons Ratio (z) = 0.38022 0.20926
#
# Static dielectric constant tensor:
#      x y z
#    x 1.654000 0.000000 0.000000 
#    y 0.000000 1.627740 0.000000 
#    z 0.000000 0.000000 1.586940 
# 
# From -- ./inp_files/64674.got.cif
#   From: 2010.05.17/outbox.cif.g08.bks.cpg/sg71_33_cif.got.tgz:64674.got - 2010.06.03 16:22:01.
