data_PCOD9517439
_publ_section_title
;
Structure prediction by ZEFSAII (Michael W. Deem and Ramdas Pophale) SiO2 
 PCOD9517439
Probable space group: I M M M
;
_chemical_formula_sum "Si O2"
_cell_formula_units_Z 80
_cell_length_a 14.191340
_cell_length_b 28.798672
_cell_length_c 12.180997
_cell_angle_alpha 90.000000
_cell_angle_beta 90.000000
_cell_angle_gamma 90.000000
_cell_volume 4978.272931
_symmetry_space_group_name_H-M "I M M M"
_symmetry_group_IT_number 71
_symmetry_cell_setting 'orthorhombic'
loop_
_space_group_symop_operation_xyz
x,y,z
-x,-y,z
x,-y,-z
-x,y,-z
-x,-y,-z
x,y,-z
-x,y,z
x,-y,z
1/2+x,1/2+y,1/2+z
1/2-x,1/2-y,1/2+z
1/2+x,1/2-y,1/2-z
1/2-x,1/2+y,1/2-z
1/2-x,1/2-y,1/2-z
1/2+x,1/2+y,1/2-z
1/2-x,1/2+y,1/2+z
1/2+x,1/2-y,1/2+z
loop_
_atom_site_type_symbol
_atom_site_label
_atom_site_fract_x
_atom_site_fract_y
_atom_site_fract_z
Si Si1 0.609163 0.314330 0.128814
Si Si2 0.702344 0.861227 0.371151
Si Si3 0.113222 0.283019 0.728748
Si Si4 0.108922 0.432630 0.500000
Si Si5 0.890458 0.321946 0.500000
Si Si6 0.386178 0.051861 0.244566
O O1 0.500000 0.327846 0.142387
O O2 0.685585 0.354367 0.144659
O O3 0.629498 0.271754 0.211864
O O4 0.618972 0.298420 0.000000
O O5 0.682401 0.865727 0.500000
O O6 0.657857 0.813273 0.325014
O O7 0.660685 0.905481 0.308041
O O8 0.150433 0.304532 0.614127
O O9 0.000000 0.289678 0.734750
O O10 0.109875 0.377095 0.500000
O O11 0.147601 0.447680 0.617594
O O12 0.000000 0.448153 0.500000
O O13 0.000000 0.305738 0.500000
O O14 0.500000 0.059315 0.244140
O O15 0.368684 0.000000 0.290039
#
# Coordination Sequence:
#
# PCOD9517439 Si02
#       6
#    16  16  16   8   8  16
#     4   9  18  33  52  70  90 121 163 208 242 266
#     4  11  22  32  45  70 100 130 161 189 228 288
#     4  10  17  29  49  72  98 126 156 190 231 278
#     4   9  15  28  49  74  96 118 154 195 229 263
#     4   9  14  23  46  73  94 121 154 188 227 270
#     4  10  20  33  50  72  98 126 155 192 237 282
#
# _framework density 16.069831000000001
#
# number of rings (size 3 to 8) (size 9 to 14) (size 15 to 20)
#    0.000    2.200    3.000    1.500    0.000    3.200 
#    0.000    1.000    0.000    0.600    0.000    2.800 
#    0.000    1.600    0.000    0.000    0.000    0.000 
#
# Total GULP energy -222748.246122 kJ/mol
# GULP energy per Si atom -5568.706153 kJ/mol
# Density = 1.603326 g / cm^3
# Si number density = 16.069831 Si / 1000 Ang^3
#
#
#
# Elastic Constant Matrix: (Units=GPa)
#
#
# Indices 1 2 3 4 5 6 
#
# 1 58.0123 50.3978 32.1660 0.0000 0.0000 0.0000
# 2 50.3978 80.5390 44.2436 0.0000 0.0000 0.0000
# 3 32.1660 44.2436 87.8659 0.0001 0.0002 0.0000
# 4 0.0000 0.0000 0.0001 -0.4767 0.0000 0.0000
# 5 0.0000 0.0000 0.0002 0.0000 14.6370 0.0000
# 6 0.0000 0.0000 0.0000 0.0000 0.0000 19.5660
#
#
#
# Elastic Compliance Matrix: (Units=1/GPa)
#
#
# Indices 1 2 3 4 5 6 
#
# 1 0.038227 -0.022440 -0.002695 0.000001 0.000000 0.000000
# 2 -0.022440 0.030337 -0.007061 -0.000004 0.000000 0.000000
# 3 -0.002695 -0.007061 0.015923 0.000005 0.000000 0.000000
# 4 0.000001 -0.000004 0.000005 -2.097786 0.000000 0.000000
# 5 0.000000 0.000000 0.000000 0.000000 0.068320 0.000000
# 6 0.000000 0.000000 0.000000 0.000000 0.000000 0.051109
#
#
# Mechanical properties :
#
#
# Convention : Reuss Voigt Hill
#
# Bulk Modulus (GPa) = 49.76312 53.33687 51.55000
# Shear Modulus (GPa) = -2.74306 13.38592 5.32143
#
# Velocity S-wave (km/s) = -1.30793 2.88928 1.82171
# Velocity P-wave (km/s) = 5.36219 6.66283 6.04758
#
# Compressibility (1/GPa) = 0.02009520
#
# Stress axis : x y z
#
# Youngs Moduli (GPa) = 26.15981 32.96258 62.80282
#
# Poissons Ratio (x) = 0.73969 0.16922
# Poissons Ratio (y) = 0.58703 0.44345
# Poissons Ratio (z) = 0.07049 0.23275
#
# Static dielectric constant tensor:
#      x y z
#    x 1.543380 0.000000 0.000000 
#    y 0.000000 1.547950 0.000000 
#    z 0.000000 0.000000 1.562630 
# 
# From -- ./inp_files/22205.got.cif
#   From: 2010.05.17/outbox.cif.g08.bks.cpg/sg71_12_cif.got.tgz:22205.got - 2010.06.03 16:22:01.
