data_PCOD9517325
_publ_section_title
;
Structure prediction by ZEFSAII (Michael W. Deem and Ramdas Pophale) SiO2 
 PCOD9517325
Probable space group: I M M M
;
_chemical_formula_sum "Si O2"
_cell_formula_units_Z 120
_cell_length_a 13.310433
_cell_length_b 31.542565
_cell_length_c 19.699876
_cell_angle_alpha 90.000000
_cell_angle_beta 90.000000
_cell_angle_gamma 90.000000
_cell_volume 8270.898341
_symmetry_space_group_name_H-M "I M M M"
_symmetry_group_IT_number 71
_symmetry_cell_setting 'orthorhombic'
loop_
_space_group_symop_operation_xyz
x,y,z
-x,-y,z
x,-y,-z
-x,y,-z
-x,-y,-z
x,y,-z
-x,y,z
x,-y,z
1/2+x,1/2+y,1/2+z
1/2-x,1/2-y,1/2+z
1/2+x,1/2-y,1/2-z
1/2-x,1/2+y,1/2-z
1/2-x,1/2-y,1/2-z
1/2+x,1/2+y,1/2-z
1/2-x,1/2+y,1/2+z
1/2+x,1/2-y,1/2+z
loop_
_atom_site_type_symbol
_atom_site_label
_atom_site_fract_x
_atom_site_fract_y
_atom_site_fract_z
Si Si1 0.611631 0.000000 0.418191
Si Si2 0.621428 0.672387 0.577076
Si Si3 0.117699 0.785545 0.715802
Si Si4 0.621376 0.373487 0.712580
Si Si5 0.387110 0.157386 0.581210
Si Si6 0.247413 0.921065 0.419037
Si Si7 0.312679 0.243315 0.645301
Si Si8 0.120469 0.048718 0.700242
O O1 0.673186 0.041963 0.401759
O O2 0.500000 0.000000 0.389363
O O3 0.603922 0.000000 0.500000
O O4 0.643520 0.659198 0.500000
O O5 0.500000 0.678073 0.582619
O O6 0.652802 0.639817 0.636563
O O7 0.671715 0.717362 0.594771
O O8 0.145029 0.833745 0.738043
O O9 0.196837 0.768105 0.661331
O O10 0.136274 0.758237 0.784177
O O11 0.000000 0.784045 0.696957
O O12 0.500000 0.375610 0.711033
O O13 0.658167 0.417935 0.742976
O O14 0.383774 0.163544 0.500000
O O15 0.500000 0.141915 0.597814
O O16 0.302016 0.122985 0.597541
O O17 0.365633 0.201631 0.617024
O O18 0.226146 0.922516 0.500000
O O19 0.153571 0.931789 0.371876
O O20 0.000000 0.047779 0.703708
O O21 0.155803 0.000000 0.707461
#
# Coordination Sequence:
#
# PCOD9517325 Si02
#       8
#     8  16  16  16  16  16  16  16
#     4   9  16  28  43  55  73 103 137 172 208 248
#     4   9  16  27  45  66  86 109 141 183 224 263
#     4   9  17  28  42  61  87 119 148 173 206 252
#     4   8  15  28  43  60  83 111 143 173 211 262
#     4  10  19  29  42  61  84 108 138 179 220 252
#     4  10  19  30  42  59  82 111 145 177 210 251
#     4  10  17  26  43  64  87 115 145 178 213 250
#     4  10  19  30  45  63  84 111 142 180 217 253
#
# _framework density 14.508702
#
# number of rings (size 3 to 8) (size 9 to 14) (size 15 to 20)
#    0.000    2.600    0.667    3.600    0.000    2.933 
#    0.000    0.667    0.000    2.800    0.000    2.800 
#    0.000    0.000    0.000    0.000    0.000    0.667 
#
# Total GULP energy -334042.710411 kJ/mol
# GULP energy per Si atom -5567.378507 kJ/mol
# Density = 1.447568 g / cm^3
# Si number density = 14.508702 Si / 1000 Ang^3
#
#
#
# Elastic Constant Matrix: (Units=GPa)
#
#
# Indices 1 2 3 4 5 6 
#
# 1 37.2484 15.2892 18.4649 0.0000 0.0000 0.0000
# 2 15.2892 105.6075 42.6760 0.0000 0.0000 0.0000
# 3 18.4649 42.6760 60.4264 0.0000 0.0000 0.0000
# 4 0.0000 0.0000 0.0000 19.1766 0.0000 0.0000
# 5 0.0000 0.0000 0.0000 0.0000 15.5309 0.0000
# 6 0.0000 0.0000 0.0000 0.0000 0.0000 11.1209
#
#
#
# Elastic Compliance Matrix: (Units=1/GPa)
#
#
# Indices 1 2 3 4 5 6 
#
# 1 0.031707 -0.000945 -0.009022 0.000000 0.000000 0.000000
# 2 -0.000945 0.013279 -0.009090 0.000000 0.000000 0.000000
# 3 -0.009022 -0.009090 0.025725 0.000000 0.000000 0.000000
# 4 0.000000 0.000000 0.000000 0.052147 0.000000 0.000000
# 5 0.000000 0.000000 0.000000 0.000000 0.064388 0.000000
# 6 0.000000 0.000000 0.000000 0.000000 0.000000 0.089921
#
#
# Mechanical properties :
#
#
# Convention : Reuss Voigt Hill
#
# Bulk Modulus (GPa) = 30.67555 39.57141 35.12348
# Shear Modulus (GPa) = 15.33063 17.62250 16.47656
#
# Velocity S-wave (km/s) = 3.25414 3.48891 3.37357
# Velocity P-wave (km/s) = 5.94206 6.60027 6.27979
#
# Compressibility (1/GPa) = 0.03259925
#
# Stress axis : x y z
#
# Youngs Moduli (GPa) = 31.53897 75.30766 38.87220
#
# Poissons Ratio (x) = 0.07114 0.35069
# Poissons Ratio (y) = 0.02979 0.35333
# Poissons Ratio (z) = 0.28454 0.68451
#
# Static dielectric constant tensor:
#      x y z
#    x 1.487270 0.000000 0.000000 
#    y 0.000000 1.488040 0.000000 
#    z 0.000000 0.000000 1.477410 
# 
# From -- ./inp_files/52482.got.cif
#   From: 2010.05.17/outbox.cif.g08.bks.cpg/sg71_27_cif.got.tgz:52482.got - 2010.06.03 16:22:01.
