data_PCOD9517572
_publ_section_title
;
Structure prediction by ZEFSAII (Michael W. Deem and Ramdas Pophale) SiO2 
 PCOD9517572
Probable space group: I M M M
;
_chemical_formula_sum "Si O2"
_cell_formula_units_Z 104
_cell_length_a 15.727617
_cell_length_b 22.368817
_cell_length_c 23.974579
_cell_angle_alpha 90.000000
_cell_angle_beta 90.000000
_cell_angle_gamma 90.000000
_cell_volume 8434.453161
_symmetry_space_group_name_H-M "I M M M"
_symmetry_group_IT_number 71
_symmetry_cell_setting 'orthorhombic'
loop_
_space_group_symop_operation_xyz
x,y,z
-x,-y,z
x,-y,-z
-x,y,-z
-x,-y,-z
x,y,-z
-x,y,z
x,-y,z
1/2+x,1/2+y,1/2+z
1/2-x,1/2-y,1/2+z
1/2+x,1/2-y,1/2-z
1/2-x,1/2+y,1/2-z
1/2-x,1/2-y,1/2-z
1/2+x,1/2+y,1/2-z
1/2-x,1/2+y,1/2+z
1/2+x,1/2-y,1/2+z
loop_
_atom_site_type_symbol
_atom_site_label
_atom_site_fract_x
_atom_site_fract_y
_atom_site_fract_z
Si Si1 0.899482 0.571019 0.247882
Si Si2 0.000000 0.427577 0.063503
Si Si3 0.898673 0.266272 0.434585
Si Si4 0.603232 0.883301 0.866916
Si Si5 0.672592 0.071861 0.627255
Si Si6 0.000000 0.068084 0.432387
Si Si7 0.603672 0.000000 0.064432
Si Si8 0.327555 0.635840 0.933207
O O1 0.893995 0.500000 0.260835
O O2 0.872095 0.607076 0.302661
O O3 0.845292 0.582690 0.192580
O O4 0.000000 0.582615 0.236384
O O5 0.085837 0.410776 0.095308
O O6 0.000000 0.500000 0.062631
O O7 0.000000 0.406002 0.000000
O O8 0.889837 0.282913 0.500000
O O9 0.872071 0.321267 0.395695
O O10 0.846024 0.205975 0.424588
O O11 0.000000 0.254065 0.426132
O O12 0.500000 0.884600 0.867526
O O13 0.631448 0.940313 0.903329
O O14 0.750015 0.108277 0.601046
O O15 0.685746 0.000000 0.619728
O O16 0.914173 0.101874 0.416364
O O17 0.000000 0.067598 0.500000
O O18 0.000000 0.000000 0.412576
O O19 0.500000 0.000000 0.064988
O O20 0.630158 0.000000 0.000000
O O21 0.314105 0.626470 0.000000
#
# Coordination Sequence:
#
# PCOD9517572 Si02
#       8
#    16   8  16  16  16   8   8  16
#     4   9  15  26  40  55  79 104 133 161 196 233
#     4   9  16  26  38  55  76  96 122 164 211 243
#     4   9  16  27  40  55  78 107 133 160 198 239
#     4   9  15  23  38  57  76 105 132 159 193 236
#     4  10  18  27  40  58  77 103 132 170 204 242
#     4   9  16  26  40  55  72  95 127 170 207 234
#     4   9  14  20  32  58  84  98 124 165 194 229
#     4  10  18  28  40  56  78 103 134 168 205 241
#
# _framework density 12.330378
#
# number of rings (size 3 to 8) (size 9 to 14) (size 15 to 20)
#    0.000    2.692    2.308    1.385    0.000    3.385 
#    0.000    0.769    0.000    0.000    0.000    0.000 
#    0.000    0.000    0.000    0.000    0.000    0.385 
#
# Total GULP energy -289483.661749 kJ/mol
# GULP energy per Si atom -5566.993495 kJ/mol
# Density = 1.230231 g / cm^3
# Si number density = 12.330378 Si / 1000 Ang^3
#
#
#
# Elastic Constant Matrix: (Units=GPa)
#
#
# Indices 1 2 3 4 5 6 
#
# 1 66.8569 42.0552 46.1099 0.0000 0.0000 0.0000
# 2 42.0552 81.9866 60.7896 0.0000 0.0000 0.0000
# 3 46.1099 60.7896 96.9128 0.0000 0.0000 0.0000
# 4 0.0000 0.0000 0.0000 17.8242 0.0000 0.0000
# 5 0.0000 0.0000 0.0000 0.0000 11.9513 0.0000
# 6 0.0000 0.0000 0.0000 0.0000 0.0000 11.4743
#
#
#
# Elastic Compliance Matrix: (Units=1/GPa)
#
#
# Indices 1 2 3 4 5 6 
#
# 1 0.024399 -0.007306 -0.007026 0.000000 0.000000 0.000000
# 2 -0.007306 0.024990 -0.012199 0.000000 0.000000 0.000000
# 3 -0.007026 -0.012199 0.021313 0.000000 0.000000 0.000000
# 4 0.000000 0.000000 0.000000 0.056103 0.000000 0.000000
# 5 0.000000 0.000000 0.000000 0.000000 0.083673 0.000000
# 6 0.000000 0.000000 0.000000 0.000000 0.000000 0.087151
#
#
# Mechanical properties :
#
#
# Convention : Reuss Voigt Hill
#
# Bulk Modulus (GPa) = 56.68903 60.40730 58.54817
# Shear Modulus (GPa) = 14.02246 14.70340 14.36293
#
# Velocity S-wave (km/s) = 3.37594 3.45694 3.41668
# Velocity P-wave (km/s) = 7.82757 8.06417 7.94675
#
# Compressibility (1/GPa) = 0.01764010
#
# Stress axis : x y z
#
# Youngs Moduli (GPa) = 40.98604 40.01627 46.91900
#
# Poissons Ratio (x) = 0.29236 0.32964
# Poissons Ratio (y) = 0.29944 0.57237
# Poissons Ratio (z) = 0.28796 0.48816
#
# Static dielectric constant tensor:
#      x y z
#    x 1.378270 0.000000 0.000000 
#    y 0.000000 1.397780 0.000000 
#    z 0.000000 0.000000 1.405210 
# 
# From -- ./inp_files/60182.got.cif
#   From: 2010.05.17/outbox.cif.g08.bks.cpg/sg71_31_cif.got.tgz:60182.got - 2010.06.03 16:22:01.
