data_PCOD9517050
_publ_section_title
;
Structure prediction by ZEFSAII (Michael W. Deem and Ramdas Pophale) SiO2 
 PCOD9517050
Probable space group: F D D D
;
_chemical_formula_sum "Si O2"
_cell_formula_units_Z 136
_cell_length_a 27.192028
_cell_length_b 7.130882
_cell_length_c 26.009384
_cell_angle_alpha 90.000000
_cell_angle_beta 90.000000
_cell_angle_gamma 90.000000
_cell_volume 5043.301305
_symmetry_space_group_name_H-M "F D D D"
_symmetry_group_IT_number 70
_space_group.IT_coordinate_system_code '2'
_symmetry_cell_setting 'orthorhombic'
loop_
_space_group_symop_operation_xyz
x,y,z
1/4-x,1/4-y,z
x,1/4-y,1/4-z
1/4-x,y,1/4-z
-x,-y,-z
3/4+x,3/4+y,-z
-x,3/4+y,3/4+z
3/4+x,-y,3/4+z
x,1/2+y,1/2+z
1/4-x,3/4-y,1/2+z
x,3/4-y,3/4-z
1/4-x,1/2+y,3/4-z
-x,1/2-y,1/2-z
3/4+x,1/4+y,1/2-z
-x,1/4+y,1/4+z
3/4+x,1/2-y,1/4+z
1/2+x,y,1/2+z
3/4-x,1/4-y,1/2+z
1/2+x,1/4-y,3/4-z
3/4-x,y,3/4-z
1/2-x,-y,1/2-z
1/4+x,3/4+y,1/2-z
1/2-x,3/4+y,1/4+z
1/4+x,-y,1/4+z
1/2+x,1/2+y,z
3/4-x,3/4-y,z
1/2+x,3/4-y,1/4-z
3/4-x,1/2+y,1/4-z
1/2-x,1/2-y,-z
1/4+x,1/4+y,-z
1/2-x,1/4+y,3/4+z
1/4+x,1/2-y,3/4+z
loop_
_atom_site_type_symbol
_atom_site_label
_atom_site_fract_x
_atom_site_fract_y
_atom_site_fract_z
Si Si1 0.125000 0.625000 0.125000
Si Si2 0.196623 0.094300 0.921085
Si Si3 0.201077 0.762274 0.204424
Si Si4 0.033857 0.043453 0.814863
Si Si5 0.178210 0.568765 0.533078
O O1 0.158812 0.736489 0.163850
O O2 0.247182 0.982096 0.928306
O O3 0.188320 0.091321 0.859648
O O4 0.203192 0.321956 0.926813
O O5 0.168942 0.020647 0.972561
O O6 0.197255 0.654887 0.258059
O O7 0.203067 0.979223 0.218736
O O8 0.972392 0.049885 0.811316
O O9 0.125000 0.625000 0.556770
#
# Coordination Sequence:
#
# PCOD9517050 Si02
#       5
#     8  32  32  32  32
#     4  12  24  36  46  68 112 148 176 194 232 322
#     4   8  15  32  55  76 100 129 161 214 271 301
#     4   9  20  34  49  72 105 140 167 205 254 302
#     4   8  15  32  55  75 100 131 162 209 276 300
#     4   9  17  30  55  85  98 117 174 231 252 291
#
# _framework density 26.966462
#
# number of rings (size 3 to 8) (size 9 to 14) (size 15 to 20)
#    0.000    3.294    0.000    2.824    3.294    0.000 
#    2.118    1.176    0.000    2.824    0.000    0.000 
#    0.000    0.000    0.000    0.000    0.000    0.000 
#
# Total GULP energy -189275.842131 kJ/mol
# GULP energy per Si atom -5566.936533 kJ/mol
# Density = 2.690509 g / cm^3
# Si number density = 26.966462 Si / 1000 Ang^3
#
#
#
# Elastic Constant Matrix: (Units=GPa)
#
#
# Indices 1 2 3 4 5 6 
#
# 1 92.1149 -5.8655 1.0301 0.0000 -0.0002 -0.0002
# 2 -5.8655 71.8689 20.9583 0.0001 -0.0010 0.0006
# 3 1.0301 20.9583 162.2084 0.0000 0.0000 -0.0001
# 4 0.0000 0.0001 0.0000 23.5455 -0.0002 0.0002
# 5 -0.0002 -0.0010 0.0000 -0.0002 -0.0847 -0.0002
# 6 -0.0002 0.0006 -0.0001 0.0002 -0.0002 11.8610
#
#
#
# Elastic Compliance Matrix: (Units=1/GPa)
#
#
# Indices 1 2 3 4 5 6 
#
# 1 0.010918 0.000947 -0.000192 0.000000 -0.000040 0.000000
# 2 0.000947 0.014541 -0.001885 0.000000 -0.000179 -0.000001
# 3 -0.000192 -0.001885 0.006410 0.000000 0.000022 0.000000
# 4 0.000000 0.000000 0.000000 0.042471 -0.000109 -0.000001
# 5 -0.000040 -0.000179 0.000022 -0.000109-11.811485 -0.000161
# 6 0.000000 -0.000001 0.000000 -0.000001 -0.000161 0.084310
#
#
# Mechanical properties :
#
#
# Convention : Reuss Voigt Hill
#
# Bulk Modulus (GPa) = 33.77211 39.82644 36.79927
# Shear Modulus (GPa) = -0.42953 27.73566 13.65307
#
# Velocity S-wave (km/s) = -0.39953 3.21054 2.25255
# Velocity P-wave (km/s) = 3.51256 5.34269 4.52120
#
# Compressibility (1/GPa) = 0.02961023
#
# Stress axis : x y z
#
# Youngs Moduli (GPa) = 91.58808 68.77036 156.01459
#
# Poissons Ratio (x) = -0.06513 0.02991
# Poissons Ratio (y) = -0.08673 0.29406
# Poissons Ratio (z) = 0.01756 0.12962
#
# Static dielectric constant tensor:
#      x y z
#    x 2.217240 0.000000 0.000000 
#    y 0.000000 2.164050 0.000000 
#    z 0.000000 0.000000 2.164740 
# 
# From -- ./inp_files/19406.got.cif
#   From: 2010.05.17/outbox.cif.g08.bks.cpg/sg70_10_cif.got.tgz:19406.got - 2010.06.03 15:57:51.
