data_PCOD9517081
_publ_section_title
;
Structure prediction by ZEFSAII (Michael W. Deem and Ramdas Pophale) SiO2 
 PCOD9517081
Probable space group: F D D D
;
_chemical_formula_sum "Si O2"
_cell_formula_units_Z 160
_cell_length_a 30.580514
_cell_length_b 8.324421
_cell_length_c 27.926447
_cell_angle_alpha 90.000000
_cell_angle_beta 90.000000
_cell_angle_gamma 90.000000
_cell_volume 7109.098017
_symmetry_space_group_name_H-M "F D D D"
_symmetry_group_IT_number 70
_space_group.IT_coordinate_system_code '2'
_symmetry_cell_setting 'orthorhombic'
loop_
_space_group_symop_operation_xyz
x,y,z
1/4-x,1/4-y,z
x,1/4-y,1/4-z
1/4-x,y,1/4-z
-x,-y,-z
3/4+x,3/4+y,-z
-x,3/4+y,3/4+z
3/4+x,-y,3/4+z
x,1/2+y,1/2+z
1/4-x,3/4-y,1/2+z
x,3/4-y,3/4-z
1/4-x,1/2+y,3/4-z
-x,1/2-y,1/2-z
3/4+x,1/4+y,1/2-z
-x,1/4+y,1/4+z
3/4+x,1/2-y,1/4+z
1/2+x,y,1/2+z
3/4-x,1/4-y,1/2+z
1/2+x,1/4-y,3/4-z
3/4-x,y,3/4-z
1/2-x,-y,1/2-z
1/4+x,3/4+y,1/2-z
1/2-x,3/4+y,1/4+z
1/4+x,-y,1/4+z
1/2+x,1/2+y,z
3/4-x,3/4-y,z
1/2+x,3/4-y,1/4-z
3/4-x,1/2+y,1/4-z
1/2-x,1/2-y,-z
1/4+x,1/4+y,-z
1/2-x,1/4+y,3/4+z
1/4+x,1/2-y,3/4+z
loop_
_atom_site_type_symbol
_atom_site_label
_atom_site_fract_x
_atom_site_fract_y
_atom_site_fract_z
Si Si1 0.875000 0.875000 0.209633
Si Si2 0.375000 0.617649 0.875000
Si Si3 0.995783 0.694409 0.998767
Si Si4 0.044295 0.016282 0.844818
Si Si5 0.393140 0.707131 0.485260
Si Si6 0.473181 0.036684 0.850420
O O1 0.917607 0.870397 0.175687
O O2 0.875613 0.711400 0.241849
O O3 0.384623 0.543521 0.822242
O O4 0.422402 0.696314 0.885647
O O5 0.019508 0.766475 0.044598
O O6 0.944402 0.717987 0.995614
O O7 0.000000 0.500000 0.000000
O O8 0.018367 0.775460 0.953329
O O9 0.005714 0.081546 0.878612
O O10 0.066078 0.875000 0.875000
O O11 0.375000 0.875000 0.505364
O O12 0.489692 0.875000 0.875000
#
# Coordination Sequence:
#
# PCOD9517081 Si02
#       6
#    16  16  32  32  32  32
#     4  12  28  55  76 112 162 208 267 328 406 488
#     4  12  26  44  76 119 159 206 269 337 406 481
#     4  12  24  51  76 113 161 207 265 340 411 487
#     4  12  29  49  76 112 153 204 267 328 399 490
#     4  12  28  46  81 120 160 208 270 339 406 480
#     4  12  25  45  80 109 152 211 261 326 406 477
#
# _framework density 22.506371999999999
#
# number of rings (size 3 to 8) (size 9 to 14) (size 15 to 20)
#    0.000    0.000    6.000    1.800    8.400    3.200 
#    0.000    0.000    0.000    0.000    0.000    0.000 
#    0.000    0.000    0.000    0.000    0.000    0.000 
#
# Total GULP energy -223344.839804 kJ/mol
# GULP energy per Si atom -5583.620995 kJ/mol
# Density = 2.245515 g / cm^3
# Si number density = 22.506372 Si / 1000 Ang^3
#
#
#
# Elastic Constant Matrix: (Units=GPa)
#
#
# Indices 1 2 3 4 5 6 
#
# 1 137.4545 41.4478 22.8756 -0.0119 -0.0001 0.0000
# 2 41.4478 103.0891 67.8104 -0.0189 -0.0001 0.0000
# 3 22.8756 67.8104 143.2401 -0.0024 0.0000 0.0000
# 4 -0.0119 -0.0189 -0.0024 1190.2855 0.0029 0.0137
# 5 -0.0001 -0.0001 0.0000 0.0029 42.3764 0.0001
# 6 0.0000 0.0000 0.0000 0.0137 0.0001 33.2713
#
#
#
# Elastic Compliance Matrix: (Units=1/GPa)
#
#
# Indices 1 2 3 4 5 6 
#
# 1 0.008292 -0.003577 0.000369 0.000000 0.000000 0.000000
# 2 -0.003577 0.015630 -0.006828 0.000000 0.000000 0.000000
# 3 0.000369 -0.006828 0.010155 0.000000 0.000000 0.000000
# 4 0.000000 0.000000 0.000000 0.000840 0.000000 0.000000
# 5 0.000000 0.000000 0.000000 0.000000 0.023598 0.000000
# 6 0.000000 0.000000 0.000000 0.000000 0.000000 0.030056
#
#
# Mechanical properties :
#
#
# Convention : Reuss Voigt Hill
#
# Bulk Modulus (GPa) = 71.40144 72.00569 71.70357
# Shear Modulus (GPa) = 44.12653 269.96331 157.04492
#
# Velocity S-wave (km/s) = 4.43270 10.96404 8.36238
# Velocity P-wave (km/s) = 7.61527 13.86878 11.18784
#
# Compressibility (1/GPa) = 0.01400532
#
# Stress axis : x y z
#
# Youngs Moduli (GPa) = 120.59484 63.98086 98.47613
#
# Poissons Ratio (x) = 0.22884 -0.03633
# Poissons Ratio (y) = 0.43132 0.67239
# Poissons Ratio (z) = -0.04449 0.43686
#
# Static dielectric constant tensor:
#      x y z
#    x 1.747120 0.000000 0.000000 
#    y 0.000000 1.909080 0.000000 
#    z 0.000000 0.000000 1.948880 
# 
# From -- ./inp_files/68838.got.cif
#   From: 2010.05.17/outbox.cif.g08.bks.cpg/sg70_35_cif.got.tgz:68838.got - 2010.06.03 15:57:51.
