data_PCOD9517453
_publ_section_title
;
Structure prediction by ZEFSAII (Michael W. Deem and Ramdas Pophale) SiO2 
 PCOD9517453
Probable space group: I M M M
;
_chemical_formula_sum "Si O2"
_cell_formula_units_Z 116
_cell_length_a 23.823523
_cell_length_b 18.980333
_cell_length_c 14.359645
_cell_angle_alpha 90.000000
_cell_angle_beta 90.000000
_cell_angle_gamma 90.000000
_cell_volume 6493.121297
_symmetry_space_group_name_H-M "I M M M"
_symmetry_group_IT_number 71
_symmetry_cell_setting 'orthorhombic'
loop_
_space_group_symop_operation_xyz
x,y,z
-x,-y,z
x,-y,-z
-x,y,-z
-x,-y,-z
x,y,-z
-x,y,z
x,-y,z
1/2+x,1/2+y,1/2+z
1/2-x,1/2-y,1/2+z
1/2+x,1/2-y,1/2-z
1/2-x,1/2+y,1/2-z
1/2-x,1/2-y,1/2-z
1/2+x,1/2+y,1/2-z
1/2-x,1/2+y,1/2+z
1/2+x,1/2-y,1/2+z
loop_
_atom_site_type_symbol
_atom_site_label
_atom_site_fract_x
_atom_site_fract_y
_atom_site_fract_z
Si Si1 0.230694 0.000000 0.000000
Si Si2 0.851251 0.658453 0.747504
Si Si3 0.858960 0.214393 0.606627
Si Si4 0.567214 0.348364 0.607148
Si Si5 0.755985 0.104075 0.172749
Si Si6 0.867163 0.080250 0.274280
Si Si7 0.727545 0.237258 0.606170
Si Si8 0.566863 0.180647 0.394278
O O1 0.232428 0.059924 0.918402
O O2 0.869932 0.717623 0.672202
O O3 0.809882 0.602053 0.700024
O O4 0.810300 0.693791 0.824022
O O5 0.903539 0.637987 0.811789
O O6 0.877863 0.224586 0.500000
O O7 0.880405 0.141702 0.651605
O O8 0.791177 0.209581 0.605265
O O9 0.581207 0.366525 0.500000
O O10 0.500000 0.357550 0.619067
O O11 0.601381 0.395065 0.679784
O O12 0.579200 0.264723 0.619625
O O13 0.800633 0.082293 0.251099
O O14 0.769066 0.184696 0.147079
O O15 0.882604 0.000000 0.299239
O O16 0.706701 0.237771 0.500000
O O17 0.584336 0.161962 0.500000
O O18 0.500000 0.173754 0.389813
#
# Coordination Sequence:
#
# PCOD9517453 Si02
#       8
#     4  16  16  16  16  16  16  16
#     4  12  24  36  48  76 124 146 174 222 270 334
#     4  11  18  32  54  78 106 137 177 218 270 327
#     4  10  20  33  47  69  97 133 179 227 264 304
#     4   9  19  34  52  77 109 141 174 218 273 322
#     4  11  21  32  47  76 107 144 177 213 270 327
#     4  12  22  33  50  69 101 146 190 222 265 316
#     4  10  17  29  52  76 102 132 175 220 266 319
#     4   9  17  31  55  86 112 133 163 218 282 328
#
# _framework density 17.865058999999999
#
# number of rings (size 3 to 8) (size 9 to 14) (size 15 to 20)
#    0.000    1.655    5.517    2.069    1.931    1.931 
#    0.000    0.690    0.000    1.655    0.000    1.931 
#    0.000    1.103    0.000    0.000    0.000    0.000 
#
# Total GULP energy -322969.934865 kJ/mol
# GULP energy per Si atom -5568.447153 kJ/mol
# Density = 1.782440 g / cm^3
# Si number density = 17.865059 Si / 1000 Ang^3
#
#
#
# Elastic Constant Matrix: (Units=GPa)
#
#
# Indices 1 2 3 4 5 6 
#
# 1 33.6777 -2.7409 11.4521 0.0000 0.0000 0.0000
# 2 -2.7409 7.2023 -7.4733 0.0000 0.0000 0.0000
# 3 11.4521 -7.4733 86.1052 0.0000 0.0000 0.0000
# 4 0.0000 0.0000 0.0000 39.7321 0.0000 0.0000
# 5 0.0000 0.0000 0.0000 0.0000 23.9750 0.0000
# 6 0.0000 0.0000 0.0000 0.0000 0.0000 31.0749
#
#
#
# Elastic Compliance Matrix: (Units=1/GPa)
#
#
# Indices 1 2 3 4 5 6 
#
# 1 0.031557 0.008412 -0.003467 0.000000 0.000000 0.000000
# 2 0.008412 0.154829 0.012319 0.000000 0.000000 0.000000
# 3 -0.003467 0.012319 0.013144 0.000000 0.000000 0.000000
# 4 0.000000 0.000000 0.000000 0.025169 0.000000 0.000000
# 5 0.000000 0.000000 0.000000 0.000000 0.041710 0.000000
# 6 0.000000 0.000000 0.000000 0.000000 0.000000 0.032180
#
#
# Mechanical properties :
#
#
# Convention : Reuss Voigt Hill
#
# Bulk Modulus (GPa) = 4.27244 14.38455 9.32850
# Shear Modulus (GPa) = 14.61645 27.33955 20.97800
#
# Velocity S-wave (km/s) = 2.86345 3.91620 3.43045
# Velocity P-wave (km/s) = 3.65091 5.34023 4.57423
#
# Compressibility (1/GPa) = 0.23405806
#
# Stress axis : x y z
#
# Youngs Moduli (GPa) = 31.68884 6.45874 76.08009
#
# Poissons Ratio (x) = -0.05433 0.26377
# Poissons Ratio (y) = -0.26656 -0.93725
# Poissons Ratio (z) = 0.10987 -0.07957
#
# Static dielectric constant tensor:
#      x y z
#    x 1.668370 0.000000 0.000000 
#    y 0.000000 1.621120 0.000000 
#    z 0.000000 0.000000 1.632400 
# 
# From -- ./inp_files/39528.got.cif
#   From: 2010.05.17/outbox.cif.g08.bks.cpg/sg71_20_cif.got.tgz:39528.got - 2010.06.03 16:22:01.
