data_PCOD9517601
_publ_section_title
;
Structure prediction by ZEFSAII (Michael W. Deem and Ramdas Pophale) SiO2 
 PCOD9517601
Probable space group: I M M M
;
_chemical_formula_sum "Si O2"
_cell_formula_units_Z 80
_cell_length_a 24.913931
_cell_length_b 26.474685
_cell_length_c 8.101717
_cell_angle_alpha 90.000000
_cell_angle_beta 90.000000
_cell_angle_gamma 90.000000
_cell_volume 5343.799164
_symmetry_space_group_name_H-M "I M M M"
_symmetry_group_IT_number 71
_symmetry_cell_setting 'orthorhombic'
loop_
_space_group_symop_operation_xyz
x,y,z
-x,-y,z
x,-y,-z
-x,y,-z
-x,-y,-z
x,y,-z
-x,y,z
x,-y,z
1/2+x,1/2+y,1/2+z
1/2-x,1/2-y,1/2+z
1/2+x,1/2-y,1/2-z
1/2-x,1/2+y,1/2-z
1/2-x,1/2-y,1/2-z
1/2+x,1/2+y,1/2-z
1/2-x,1/2+y,1/2+z
1/2+x,1/2-y,1/2+z
loop_
_atom_site_type_symbol
_atom_site_label
_atom_site_fract_x
_atom_site_fract_y
_atom_site_fract_z
Si Si1 0.318381 0.142001 0.302130
Si Si2 0.396894 0.057846 0.195409
Si Si3 0.500000 0.228855 0.191793
Si Si4 0.781721 0.199498 0.301287
Si Si5 0.500000 0.117967 0.687685
Si Si6 0.382059 0.756584 0.799108
O O1 0.318442 0.137903 0.500000
O O2 0.345158 0.092219 0.229366
O O3 0.257655 0.154781 0.243820
O O4 0.355397 0.190372 0.255684
O O5 0.447498 0.084637 0.280237
O O6 0.390672 0.000000 0.250729
O O7 0.407644 0.057817 0.000000
O O8 0.500000 0.167928 0.201361
O O9 0.443018 0.246644 0.263135
O O10 0.500000 0.244218 0.000000
O O11 0.783000 0.196574 0.500000
O O12 0.750000 0.250000 0.250000
O O13 0.842354 0.211191 0.245457
O O14 0.500000 0.136265 0.500000
O O15 0.382938 0.757717 0.000000
#
# Coordination Sequence:
#
# PCOD9517601 Si02
#       6
#    16  16   8  16   8  16
#     4  10  18  28  43  61  80 102 133 173 210 242
#     4  11  23  36  47  58  76 105 140 175 212 254
#     4  10  18  27  43  62  84 113 141 167 198 238
#     4   8  15  26  40  59  80 103 131 163 200 242
#     4  12  23  33  46  61  80 104 136 179 215 243
#     4   9  16  27  42  59  82 110 137 164 198 243
#
# _framework density 14.970624000000001
#
# number of rings (size 3 to 8) (size 9 to 14) (size 15 to 20)
#    0.000    2.200    2.000    2.400    0.000    3.600 
#    0.000    0.000    0.000    0.000    0.000    0.000 
#    0.000    0.000    0.000    0.900    0.000   22.000 
#
# Total GULP energy -222825.136597 kJ/mol
# GULP energy per Si atom -5570.628415 kJ/mol
# Density = 1.493655 g / cm^3
# Si number density = 14.970624 Si / 1000 Ang^3
#
#
#
# Elastic Constant Matrix: (Units=GPa)
#
#
# Indices 1 2 3 4 5 6 
#
# 1 125.2256 41.7852 -1.6997 0.0000 0.0000 0.0000
# 2 41.7852 37.7141 -5.8116 0.0000 0.0000 0.0000
# 3 -1.6997 -5.8116 17.3322 0.0000 0.0000 0.0000
# 4 0.0000 0.0000 0.0000 10.5549 0.0000 0.0000
# 5 0.0000 0.0000 0.0000 0.0000 13.5821 0.0000
# 6 0.0000 0.0000 0.0000 0.0000 0.0000 10.4282
#
#
#
# Elastic Compliance Matrix: (Units=1/GPa)
#
#
# Indices 1 2 3 4 5 6 
#
# 1 0.012893 -0.014857 -0.003717 0.000000 0.000000 0.000000
# 2 -0.014857 0.045081 0.013659 0.000000 0.000000 0.000000
# 3 -0.003717 0.013659 0.061911 0.000000 0.000000 0.000000
# 4 0.000000 0.000000 0.000000 0.094742 0.000000 0.000000
# 5 0.000000 0.000000 0.000000 0.000000 0.073626 0.000000
# 6 0.000000 0.000000 0.000000 0.000000 0.000000 0.095894
#
#
# Mechanical properties :
#
#
# Convention : Reuss Voigt Hill
#
# Bulk Modulus (GPa) = 9.08647 27.64666 18.36656
# Shear Modulus (GPa) = 11.60999 16.64625 14.12812
#
# Velocity S-wave (km/s) = 2.78783 3.33817 3.07534
# Velocity P-wave (km/s) = 4.05529 5.77627 4.99052
#
# Compressibility (1/GPa) = 0.11005373
#
# Stress axis : x y z
#
# Youngs Moduli (GPa) = 77.56318 22.18220 16.15214
#
# Poissons Ratio (x) = 0.32957 0.06004
# Poissons Ratio (y) = 1.15238 -0.22062
# Poissons Ratio (z) = 0.28833 -0.30299
#
# Static dielectric constant tensor:
#      x y z
#    x 1.550180 0.000000 0.000000 
#    y 0.000000 1.470660 0.000000 
#    z 0.000000 0.000000 1.521870 
# 
# From -- ./inp_files/10768.got.cif
#   From: 2010.05.17/outbox.cif.g08.bks.cpg/sg71_6_cif.got.tgz:10768.got - 2010.06.03 16:22:01.
