data_PCOD9517557
_publ_section_title
;
Structure prediction by ZEFSAII (Michael W. Deem and Ramdas Pophale) SiO2 
 PCOD9517557
Probable space group: I M M M
;
_chemical_formula_sum "Si O2"
_cell_formula_units_Z 72
_cell_length_a 16.015165
_cell_length_b 7.438102
_cell_length_c 30.174657
_cell_angle_alpha 90.000000
_cell_angle_beta 90.000000
_cell_angle_gamma 90.000000
_cell_volume 3594.478491
_symmetry_space_group_name_H-M "I M M M"
_symmetry_group_IT_number 71
_symmetry_cell_setting 'orthorhombic'
loop_
_space_group_symop_operation_xyz
x,y,z
-x,-y,z
x,-y,-z
-x,y,-z
-x,-y,-z
x,y,-z
-x,y,z
x,-y,z
1/2+x,1/2+y,1/2+z
1/2-x,1/2-y,1/2+z
1/2+x,1/2-y,1/2-z
1/2-x,1/2+y,1/2-z
1/2-x,1/2-y,1/2-z
1/2+x,1/2+y,1/2-z
1/2-x,1/2+y,1/2+z
1/2+x,1/2-y,1/2+z
loop_
_atom_site_type_symbol
_atom_site_label
_atom_site_fract_x
_atom_site_fract_y
_atom_site_fract_z
Si Si1 0.092686 0.715375 0.299621
Si Si2 0.500000 0.202871 0.446182
Si Si3 0.249136 0.713676 0.139975
Si Si4 0.816180 0.279561 0.949760
Si Si5 0.594346 0.219541 0.698167
O O1 0.089016 0.500000 0.297254
O O2 0.166104 0.758026 0.333341
O O3 0.109303 0.776845 0.249158
O O4 0.000000 0.779972 0.312676
O O5 0.500000 0.191464 0.500000
O O6 0.590276 0.281576 0.435796
O O7 0.500000 0.000000 0.427307
O O8 0.237233 0.500000 0.137504
O O9 0.245591 0.777670 0.089201
O O10 0.169407 0.783993 0.167382
O O11 0.819438 0.500000 0.951550
O O12 0.798237 0.220553 0.000000
O O13 0.500000 0.273335 0.685114
O O14 0.595069 0.000000 0.697612
#
# Coordination Sequence:
#
# PCOD9517557 Si02
#       5
#    16   8  16  16  16
#     4   9  18  33  48  60  83 120 152 180 221 267
#     4   7  10  18  32  52  83 119 143 159 191 247
#     4  10  18  26  45  72  91 112 145 185 218 250
#     4   8  14  23  36  60  93 120 140 169 213 258
#     4   8  15  27  43  66  94 119 143 173 213 262
#
# _framework density 20.030722000000001
#
# number of rings (size 3 to 8) (size 9 to 14) (size 15 to 20)
#    0.000    3.444    0.000    3.333    1.556    0.444 
#    0.000    0.000    0.000    3.333    0.000    4.667 
#    0.000    2.667    0.000    0.000    0.000    0.000 
#
# Total GULP energy -200671.286742 kJ/mol
# GULP energy per Si atom -5574.202409 kJ/mol
# Density = 1.998513 g / cm^3
# Si number density = 20.030722 Si / 1000 Ang^3
#
#
#
# Elastic Constant Matrix: (Units=GPa)
#
#
# Indices 1 2 3 4 5 6 
#
# 1 126.7296 1.4745 109.2021 0.0000 0.0000 0.0000
# 2 1.4745 57.2559 7.3613 0.0000 0.0000 0.0000
# 3 109.2021 7.3613 145.7721 0.0000 0.0000 0.0000
# 4 0.0000 0.0000 0.0000 4.6752 0.0000 0.0000
# 5 0.0000 0.0000 0.0000 0.0000 27.5270 0.0000
# 6 0.0000 0.0000 0.0000 0.0000 0.0000 3.0023
#
#
#
# Elastic Compliance Matrix: (Units=1/GPa)
#
#
# Indices 1 2 3 4 5 6 
#
# 1 0.022403 0.001591 -0.016863 0.000000 0.000000 0.000000
# 2 0.001591 0.017693 -0.002085 0.000000 0.000000 0.000000
# 3 -0.016863 -0.002085 0.019598 0.000000 0.000000 0.000000
# 4 0.000000 0.000000 0.000000 0.213896 0.000000 0.000000
# 5 0.000000 0.000000 0.000000 0.000000 0.036328 0.000000
# 6 0.000000 0.000000 0.000000 0.000000 0.000000 0.333080
#
#
# Mechanical properties :
#
#
# Convention : Reuss Voigt Hill
#
# Bulk Modulus (GPa) = 40.03392 62.87042 51.45217
# Shear Modulus (GPa) = 7.28821 21.15554 14.22187
#
# Velocity S-wave (km/s) = 1.90956 3.25338 2.66748
# Velocity P-wave (km/s) = 4.98914 6.75039 5.93546
#
# Compressibility (1/GPa) = 0.02497882
#
# Stress axis : x y z
#
# Youngs Moduli (GPa) = 44.63619 56.52084 51.02518
#
# Poissons Ratio (x) = -0.08993 0.86046
# Poissons Ratio (y) = -0.07102 0.10641
# Poissons Ratio (z) = 0.75272 0.11787
#
# Static dielectric constant tensor:
#      x y z
#    x 1.702630 0.000000 0.000000 
#    y 0.000000 1.822620 0.000000 
#    z 0.000000 0.000000 1.722110 
# 
# From -- ./inp_files/6464.got.cif
#   From: 2010.05.17/outbox.cif.g08.bks.cpg/sg71_4_cif.got.tgz:6464.got - 2010.06.03 16:22:01.
