data_PCOD9517408
_publ_section_title
;
Structure prediction by ZEFSAII (Michael W. Deem and Ramdas Pophale) SiO2 
 PCOD9517408
Probable space group: I M M M
;
_chemical_formula_sum "Si O2"
_cell_formula_units_Z 104
_cell_length_a 16.834864
_cell_length_b 25.698226
_cell_length_c 13.740733
_cell_angle_alpha 90.000000
_cell_angle_beta 90.000000
_cell_angle_gamma 90.000000
_cell_volume 5944.600275
_symmetry_space_group_name_H-M "I M M M"
_symmetry_group_IT_number 71
_symmetry_cell_setting 'orthorhombic'
loop_
_space_group_symop_operation_xyz
x,y,z
-x,-y,z
x,-y,-z
-x,y,-z
-x,-y,-z
x,y,-z
-x,y,z
x,-y,z
1/2+x,1/2+y,1/2+z
1/2-x,1/2-y,1/2+z
1/2+x,1/2-y,1/2-z
1/2-x,1/2+y,1/2-z
1/2-x,1/2-y,1/2-z
1/2+x,1/2+y,1/2-z
1/2-x,1/2+y,1/2+z
1/2+x,1/2-y,1/2+z
loop_
_atom_site_type_symbol
_atom_site_label
_atom_site_fract_x
_atom_site_fract_y
_atom_site_fract_z
Si Si1 0.169853 0.626068 0.801194
Si Si2 0.834166 0.885656 0.382375
Si Si3 0.500000 0.439236 0.882451
Si Si4 0.169772 0.743891 0.117540
Si Si5 0.588091 0.281148 0.118133
Si Si6 0.000000 0.749975 0.886143
Si Si7 0.000000 0.376523 0.114157
Si Si8 0.681737 0.181633 0.115086
O O1 0.249105 0.597739 0.839757
O O2 0.177075 0.685717 0.841607
O O3 0.174338 0.632816 0.685219
O O4 0.083613 0.606627 0.837341
O O5 0.828691 0.889065 0.500000
O O6 0.850264 0.825524 0.353360
O O7 0.915557 0.914582 0.351005
O O8 0.500000 0.500000 0.859234
O O9 0.500000 0.432749 0.000000
O O10 0.240196 0.783764 0.137837
O O11 0.085303 0.766700 0.153239
O O12 0.167363 0.737889 0.000000
O O13 0.500000 0.294124 0.151435
O O14 0.611560 0.222252 0.139784
O O15 0.587996 0.283717 0.000000
O O16 0.000000 0.686903 0.880724
O O17 0.000000 0.764830 0.000000
O O18 0.000000 0.390252 0.000000
O O19 0.681136 0.170325 0.000000
#
# Coordination Sequence:
#
# PCOD9517408 Si02
#       8
#    16  16   8  16  16   8   8  16
#     4  11  19  28  42  60  82 117 159 189 233 265
#     4  10  17  28  47  68  90 117 148 186 229 282
#     4   9  18  32  50  76 105 123 137 173 238 306
#     4   9  15  25  37  52  75 105 146 197 231 264
#     4   9  16  26  39  55  80 115 155 194 230 265
#     4   7  12  22  35  46  64  95 129 171 227 256
#     4   9  18  30  42  58  79 104 143 193 220 248
#     4  10  20  29  37  53  83 119 160 202 233 261
#
# _framework density 17.494869000000001
#
# number of rings (size 3 to 8) (size 9 to 14) (size 15 to 20)
#    0.000    2.538    2.308    2.769    1.077    0.000 
#    0.000    0.769    0.000    0.000    0.000    0.538 
#    0.000    4.308    0.000    0.000    0.000    1.538 
#
# Total GULP energy -289719.167496 kJ/mol
# GULP energy per Si atom -5571.522452 kJ/mol
# Density = 1.745505 g / cm^3
# Si number density = 17.494869 Si / 1000 Ang^3
#
#
#
# Elastic Constant Matrix: (Units=GPa)
#
#
# Indices 1 2 3 4 5 6 
#
# 1 147.3398 14.6968 27.4476 0.0000 0.0000 0.0000
# 2 14.6968 13.4647 7.1175 0.0000 0.0000 0.0000
# 3 27.4476 7.1175 62.7739 0.0000 0.0000 0.0000
# 4 0.0000 0.0000 0.0000 4.7178 0.0000 0.0000
# 5 0.0000 0.0000 0.0000 0.0000 20.0422 0.0000
# 6 0.0000 0.0000 0.0000 0.0000 0.0000 7.7124
#
#
#
# Elastic Compliance Matrix: (Units=1/GPa)
#
#
# Indices 1 2 3 4 5 6 
#
# 1 0.008017 -0.007337 -0.002673 0.000000 0.000000 0.000000
# 2 -0.007337 0.085718 -0.006511 0.000000 0.000000 0.000000
# 3 -0.002673 -0.006511 0.017837 0.000000 0.000000 0.000000
# 4 0.000000 0.000000 0.000000 0.211965 0.000000 0.000000
# 5 0.000000 0.000000 0.000000 0.000000 0.049895 0.000000
# 6 0.000000 0.000000 0.000000 0.000000 0.000000 0.129662
#
#
# Mechanical properties :
#
#
# Convention : Reuss Voigt Hill
#
# Bulk Modulus (GPa) = 12.73407 35.78915 24.26161
# Shear Modulus (GPa) = 8.89183 18.11556 13.50369
#
# Velocity S-wave (km/s) = 2.25689 3.22138 2.78126
# Velocity P-wave (km/s) = 3.75313 5.85984 4.92055
#
# Compressibility (1/GPa) = 0.07852950
#
# Stress axis : x y z
#
# Youngs Moduli (GPa) = 124.73577 11.66610 56.06213
#
# Poissons Ratio (x) = 0.08560 0.14988
# Poissons Ratio (y) = 0.91523 0.36501
# Poissons Ratio (z) = 0.33347 0.07596
#
# Static dielectric constant tensor:
#      x y z
#    x 1.684740 0.000000 0.000000 
#    y 0.000000 1.555940 0.000000 
#    z 0.000000 0.000000 1.665500 
# 
# From -- ./inp_files/36968.got.cif
#   From: 2010.05.17/outbox.cif.g08.bks.cpg/sg71_19_cif.got.tgz:36968.got - 2010.06.03 16:22:01.
