data_PCOD9517084
_publ_section_title
;
Structure prediction by ZEFSAII (Michael W. Deem and Ramdas Pophale) SiO2 
 PCOD9517084
Probable space group: F D D D
;
_chemical_formula_sum "Si O2"
_cell_formula_units_Z 136
_cell_length_a 15.800188
_cell_length_b 17.405372
_cell_length_c 22.605791
_cell_angle_alpha 90.000000
_cell_angle_beta 90.000000
_cell_angle_gamma 90.000000
_cell_volume 6216.776758
_symmetry_space_group_name_H-M "F D D D"
_symmetry_group_IT_number 70
_space_group.IT_coordinate_system_code '2'
_symmetry_cell_setting 'orthorhombic'
loop_
_space_group_symop_operation_xyz
x,y,z
1/4-x,1/4-y,z
x,1/4-y,1/4-z
1/4-x,y,1/4-z
-x,-y,-z
3/4+x,3/4+y,-z
-x,3/4+y,3/4+z
3/4+x,-y,3/4+z
x,1/2+y,1/2+z
1/4-x,3/4-y,1/2+z
x,3/4-y,3/4-z
1/4-x,1/2+y,3/4-z
-x,1/2-y,1/2-z
3/4+x,1/4+y,1/2-z
-x,1/4+y,1/4+z
3/4+x,1/2-y,1/4+z
1/2+x,y,1/2+z
3/4-x,1/4-y,1/2+z
1/2+x,1/4-y,3/4-z
3/4-x,y,3/4-z
1/2-x,-y,1/2-z
1/4+x,3/4+y,1/2-z
1/2-x,3/4+y,1/4+z
1/4+x,-y,1/4+z
1/2+x,1/2+y,z
3/4-x,3/4-y,z
1/2+x,3/4-y,1/4-z
3/4-x,1/2+y,1/4-z
1/2-x,1/2-y,-z
1/4+x,1/4+y,-z
1/2-x,1/4+y,3/4+z
1/4+x,1/2-y,3/4+z
loop_
_atom_site_type_symbol
_atom_site_label
_atom_site_fract_x
_atom_site_fract_y
_atom_site_fract_z
Si Si1 0.329917 0.707426 0.627175
Si Si2 0.125000 0.125000 0.625000
Si Si3 0.230990 0.923535 0.783795
Si Si4 0.845937 0.785620 0.009980
Si Si5 0.310511 0.685686 0.326748
O O1 0.281776 0.625000 0.625000
O O2 0.398049 0.688084 0.677014
O O3 0.374729 0.735746 0.567009
O O4 0.271601 0.779708 0.642307
O O5 0.191520 0.088354 0.671167
O O6 0.215425 0.863926 0.730197
O O7 0.250000 0.000000 0.750000
O O8 0.875000 0.875000 0.019466
O O9 0.750000 0.750000 0.000000
O O10 0.891746 0.758550 0.950882
O O11 0.375000 0.648913 0.375000
#
# Coordination Sequence:
#
# PCOD9517084 Si02
#       5
#    32   8  32  32  32
#     4  12  25  49  74 108 155 202 259 330 397 484
#     4  12  24  56  76 108 146 208 258 330 404 476
#     4  12  28  47  78 110 150 201 263 325 401 483
#     4  12  26  46  76 114 153 206 257 324 400 486
#     4  12  27  45  75 114 156 200 262 325 405 478
#
# _framework density 21.876287999999999
#
# number of rings (size 3 to 8) (size 9 to 14) (size 15 to 20)
#    0.000    0.000    5.882    2.824    4.941    0.000 
#    0.000    0.000    0.000    0.000    0.000    0.000 
#    0.000    0.000    0.000    0.000    0.000    0.000 
#
# Total GULP energy -189456.688082 kJ/mol
# GULP energy per Si atom -5572.255532 kJ/mol
# Density = 2.182650 g / cm^3
# Si number density = 21.876288 Si / 1000 Ang^3
#
#
#
# Elastic Constant Matrix: (Units=GPa)
#
#
# Indices 1 2 3 4 5 6 
#
# 1 101.6363 34.5739 44.0217 0.0000 0.0000 0.0000
# 2 34.5739 123.5392 56.3886 0.0000 0.0000 0.0000
# 3 44.0217 56.3886 151.7424 0.0000 0.0000 0.0000
# 4 0.0000 0.0000 0.0000 -6.6802 0.0000 0.0000
# 5 0.0000 0.0000 0.0000 0.0000 30.8176 0.0000
# 6 0.0000 0.0000 0.0000 0.0000 0.0000 48.0836
#
#
#
# Elastic Compliance Matrix: (Units=1/GPa)
#
#
# Indices 1 2 3 4 5 6 
#
# 1 0.011678 -0.002074 -0.002617 0.000000 0.000000 0.000000
# 2 -0.002074 0.010116 -0.003158 0.000000 0.000000 0.000000
# 3 -0.002617 -0.003158 0.008523 0.000000 0.000000 0.000000
# 4 0.000000 0.000000 0.000000 -0.149697 0.000000 0.000000
# 5 0.000000 0.000000 0.000000 0.000000 0.032449 0.000000
# 6 0.000000 0.000000 0.000000 0.000000 0.000000 0.020797
#
#
# Mechanical properties :
#
#
# Convention : Reuss Voigt Hill
#
# Bulk Modulus (GPa) = 68.40001 71.87625 70.13813
# Shear Modulus (GPa) = -109.73779 30.57312 -39.58234
#
# Velocity S-wave (km/s) = -7.09026 3.74243 -4.25829
# Velocity P-wave (km/s) = 5.97448 7.18342 2.82020
#
# Compressibility (1/GPa) = 0.01461988
#
# Stress axis : x y z
#
# Youngs Moduli (GPa) = 85.63097 98.85114 117.33163
#
# Poissons Ratio (x) = 0.20497 0.30710
# Poissons Ratio (y) = 0.17756 0.37050
# Poissons Ratio (z) = 0.22412 0.31214
#
# Static dielectric constant tensor:
#      x y z
#    x 1.786960 0.000000 0.000000 
#    y 0.000000 1.808620 0.000000 
#    z 0.000000 0.000000 1.610010 
# 
# From -- ./inp_files/36051.got.cif
#   From: 2010.05.17/outbox.cif.g08.bks.cpg/sg70_19_cif.got.tgz:36051.got - 2010.06.03 15:57:51.
