data_PCOD9517575
_publ_section_title
;
Structure prediction by ZEFSAII (Michael W. Deem and Ramdas Pophale) SiO2 
 PCOD9517575
Probable space group: I M M M
;
_chemical_formula_sum "Si O2"
_cell_formula_units_Z 48
_cell_length_a 13.054376
_cell_length_b 31.937765
_cell_length_c 5.532693
_cell_angle_alpha 90.000000
_cell_angle_beta 90.000000
_cell_angle_gamma 90.000000
_cell_volume 2306.732375
_symmetry_space_group_name_H-M "I M M M"
_symmetry_group_IT_number 71
_symmetry_cell_setting 'orthorhombic'
loop_
_space_group_symop_operation_xyz
x,y,z
-x,-y,z
x,-y,-z
-x,y,-z
-x,-y,-z
x,y,-z
-x,y,z
x,-y,z
1/2+x,1/2+y,1/2+z
1/2-x,1/2-y,1/2+z
1/2+x,1/2-y,1/2-z
1/2-x,1/2+y,1/2-z
1/2-x,1/2-y,1/2-z
1/2+x,1/2+y,1/2-z
1/2-x,1/2+y,1/2+z
1/2+x,1/2-y,1/2+z
loop_
_atom_site_type_symbol
_atom_site_label
_atom_site_fract_x
_atom_site_fract_y
_atom_site_fract_z
Si Si1 0.876734 0.904148 0.500000
Si Si2 0.191624 0.339818 0.000000
Si Si3 0.663872 0.830097 0.000000
Si Si4 0.106196 0.187364 0.000000
Si Si5 0.876894 0.047513 0.000000
Si Si6 0.654704 0.269774 0.000000
O O1 0.799036 0.865120 0.500000
O O2 0.852606 0.929449 0.746972
O O3 0.000000 0.894099 0.500000
O O4 0.129980 0.347475 0.244258
O O5 0.232047 0.291279 0.000000
O O6 0.787397 0.836954 0.000000
O O7 0.650450 0.780028 0.000000
O O8 0.108478 0.213824 0.247840
O O9 0.000000 0.161959 0.000000
O O10 0.000000 0.044921 0.000000
O O11 0.835924 0.000000 0.000000
#
# Coordination Sequence:
#
# PCOD9517575 Si02
#       6
#     8   8   8   8   8   8
#     4  10  19  28  40  61  83  99 124 171 223 254
#     4  10  18  27  41  58  75  97 128 168 205 240
#     4  10  19  31  44  55  76 111 140 159 204 263
#     4  10  18  27  41  59  74  92 128 174 209 237
#     4   9  17  30  44  55  73 105 136 157 194 261
#     4  10  19  32  43  55  77 110 139 160 205 263
#
# _framework density 20.808654000000001
#
# number of rings (size 3 to 8) (size 9 to 14) (size 15 to 20)
#    0.000    2.167    0.000    7.000    0.000    7.333 
#    0.000    1.667    0.000    0.000    0.000    0.000 
#    0.000    0.000    0.000    0.000    0.000    0.000 
#
# Total GULP energy -133843.828202 kJ/mol
# GULP energy per Si atom -5576.826175 kJ/mol
# Density = 2.076129 g / cm^3
# Si number density = 20.808654 Si / 1000 Ang^3
#
#
#
# Elastic Constant Matrix: (Units=GPa)
#
#
# Indices 1 2 3 4 5 6 
#
# 1 33.1808 0.9056 14.1531 0.0010 0.0236 0.0197
# 2 0.9056 80.6092 56.7454 -0.0149 0.0057 0.0090
# 3 14.1531 56.7454 269.5941 -0.0379 0.0387 0.0937
# 4 0.0010 -0.0149 -0.0379 32.6892 0.0065 -0.0230
# 5 0.0236 0.0057 0.0387 0.0065 -6.9594 -0.0628
# 6 0.0197 0.0090 0.0937 -0.0230 -0.0628 -35.6027
#
#
#
# Elastic Compliance Matrix: (Units=1/GPa)
#
#
# Indices 1 2 3 4 5 6 
#
# 1 0.030888 0.000933 -0.001818 -0.000003 0.000095 0.000012
# 2 0.000933 0.014592 -0.003120 0.000003 -0.000002 -0.000004
# 3 -0.001818 -0.003120 0.004461 0.000004 0.000016 0.000010
# 4 -0.000003 0.000003 0.000004 0.030591 0.000029 -0.000020
# 5 0.000095 -0.000002 0.000016 0.000029 -0.143693 0.000253
# 6 0.000012 -0.000004 0.000010 -0.000020 0.000253 -0.028088
#
#
# Mechanical properties :
#
#
# Convention : Reuss Voigt Hill
#
# Bulk Modulus (GPa) = 23.84930 58.55471 41.20200
# Shear Modulus (GPa) = -72.18973 18.79742 -26.69615
#
# Velocity S-wave (km/s) = -5.89640 3.00883 -3.58569
# Velocity P-wave (km/s) = 5.90513 6.34598 1.64331
#
# Compressibility (1/GPa) = 0.04192996
#
# Stress axis : x y z
#
# Youngs Moduli (GPa) = 32.37525 68.53264 224.14093
#
# Poissons Ratio (x) = -0.06392 0.40746
# Poissons Ratio (y) = -0.03020 0.69938
# Poissons Ratio (z) = 0.05885 0.21384
#
# Static dielectric constant tensor:
#      x y z
#    x 1.755220 0.000000 0.000010 
#    y 0.000000 1.788120 0.000000 
#    z 0.000010 0.000000 1.879810 
# 
# From -- ./inp_files/627.got.cif
#   From: 2010.05.17/outbox.cif.g08.bks.cpg/sg71_1_cif.got.tgz:627.got - 2010.06.03 16:22:01.
