data_PCOD9517038
_publ_section_title
;
Structure prediction by ZEFSAII (Michael W. Deem and Ramdas Pophale) SiO2 
 PCOD9517038
Probable space group: F D D D
;
_chemical_formula_sum "Si O2"
_cell_formula_units_Z 80
_cell_length_a 14.341071
_cell_length_b 10.685788
_cell_length_c 23.134229
_cell_angle_alpha 90.000000
_cell_angle_beta 90.000000
_cell_angle_gamma 90.000000
_cell_volume 3545.219831
_symmetry_space_group_name_H-M "F D D D"
_symmetry_group_IT_number 70
_space_group.IT_coordinate_system_code '2'
_symmetry_cell_setting 'orthorhombic'
loop_
_space_group_symop_operation_xyz
x,y,z
1/4-x,1/4-y,z
x,1/4-y,1/4-z
1/4-x,y,1/4-z
-x,-y,-z
3/4+x,3/4+y,-z
-x,3/4+y,3/4+z
3/4+x,-y,3/4+z
x,1/2+y,1/2+z
1/4-x,3/4-y,1/2+z
x,3/4-y,3/4-z
1/4-x,1/2+y,3/4-z
-x,1/2-y,1/2-z
3/4+x,1/4+y,1/2-z
-x,1/4+y,1/4+z
3/4+x,1/2-y,1/4+z
1/2+x,y,1/2+z
3/4-x,1/4-y,1/2+z
1/2+x,1/4-y,3/4-z
3/4-x,y,3/4-z
1/2-x,-y,1/2-z
1/4+x,3/4+y,1/2-z
1/2-x,3/4+y,1/4+z
1/4+x,-y,1/4+z
1/2+x,1/2+y,z
3/4-x,3/4-y,z
1/2+x,3/4-y,1/4-z
3/4-x,1/2+y,1/4-z
1/2-x,1/2-y,-z
1/4+x,1/4+y,-z
1/2-x,1/4+y,3/4+z
1/4+x,1/2-y,3/4+z
loop_
_atom_site_type_symbol
_atom_site_label
_atom_site_fract_x
_atom_site_fract_y
_atom_site_fract_z
Si Si1 0.182827 0.341474 0.465785
Si Si2 0.375000 0.875000 0.629411
Si Si3 0.053599 0.419353 0.179145
O O1 0.250000 0.250000 0.500000
O O2 0.142825 0.248853 0.417299
O O3 0.106275 0.379237 0.513863
O O4 0.250391 0.450855 0.443785
O O5 0.284428 0.840078 0.592169
O O6 0.125000 0.432535 0.125000
#
# Coordination Sequence:
#
# PCOD9517038 Si02
#       3
#    32  16  32
#     4  12  23  41  68 102 126 175 225 273 321 398
#     4  12  26  38  69 102 129 180 212 274 334 388
#     4  12  25  44  70  98 136 174 224 276 328 397
#
# _framework density 22.565595999999999
#
# number of rings (size 3 to 8) (size 9 to 14) (size 15 to 20)
#    0.000    0.000    8.000    1.200    5.600    1.600 
#    0.000    0.000    0.000    2.400    0.000    0.000 
#    0.000    0.000    0.000    0.000    0.000    0.000 
#
# Total GULP energy -111813.256280 kJ/mol
# GULP energy per Si atom -5590.662814 kJ/mol
# Density = 2.251424 g / cm^3
# Si number density = 22.565596 Si / 1000 Ang^3
#
#
#
# Elastic Constant Matrix: (Units=GPa)
#
#
# Indices 1 2 3 4 5 6 
#
# 1 167.3200 4.9060 71.0602 0.0000 0.0000 0.0000
# 2 4.9060 36.3814 9.8854 0.0000 0.0000 0.0000
# 3 71.0602 9.8854 107.1252 0.0000 0.0000 0.0000
# 4 0.0000 0.0000 0.0000 37.8385 0.0000 0.0000
# 5 0.0000 0.0000 0.0000 0.0000 78.5549 0.0000
# 6 0.0000 0.0000 0.0000 0.0000 0.0000 39.0162
#
#
#
# Elastic Compliance Matrix: (Units=1/GPa)
#
#
# Indices 1 2 3 4 5 6 
#
# 1 0.008326 0.000388 -0.005559 0.000000 0.000000 0.000000
# 2 0.000388 0.028212 -0.002860 0.000000 0.000000 0.000000
# 3 -0.005559 -0.002860 0.013286 0.000000 0.000000 0.000000
# 4 0.000000 0.000000 0.000000 0.026428 0.000000 0.000000
# 5 0.000000 0.000000 0.000000 0.000000 0.012730 0.000000
# 6 0.000000 0.000000 0.000000 0.000000 0.000000 0.025630
#
#
# Mechanical properties :
#
#
# Convention : Reuss Voigt Hill
#
# Bulk Modulus (GPa) = 29.62035 53.61442 41.61738
# Shear Modulus (GPa) = 35.22896 46.08024 40.65460
#
# Velocity S-wave (km/s) = 3.95546 4.52381 4.24915
# Velocity P-wave (km/s) = 5.83230 7.14825 6.52354
#
# Compressibility (1/GPa) = 0.03376057
#
# Stress axis : x y z
#
# Youngs Moduli (GPa) = 120.10623 35.44649 75.26645
#
# Poissons Ratio (x) = -0.01374 0.41838
# Poissons Ratio (y) = -0.04656 0.21530
# Poissons Ratio (z) = 0.66763 0.10139
#
# Static dielectric constant tensor:
#      x y z
#    x 1.853060 0.000000 0.000000 
#    y 0.000000 1.834210 0.000000 
#    z 0.000000 0.000000 -3.859980 
# 
# From -- ./inp_files/14495.got.cif
#   From: 2010.05.17/outbox.cif.g08.bks.cpg/sg70_8_cif.got.tgz:14495.got - 2010.06.03 15:57:51.
