data_PCOD9517024
_publ_section_title
;
Structure prediction by ZEFSAII (Michael W. Deem and Ramdas Pophale) SiO2 
 PCOD9517024
Probable space group: F D D D
;
_chemical_formula_sum "Si O2"
_cell_formula_units_Z 96
_cell_length_a 31.405894
_cell_length_b 19.131339
_cell_length_c 7.280083
_cell_angle_alpha 90.000000
_cell_angle_beta 90.000000
_cell_angle_gamma 90.000000
_cell_volume 4374.141808
_symmetry_space_group_name_H-M "F D D D"
_symmetry_group_IT_number 70
_space_group.IT_coordinate_system_code '2'
_symmetry_cell_setting 'orthorhombic'
loop_
_space_group_symop_operation_xyz
x,y,z
1/4-x,1/4-y,z
x,1/4-y,1/4-z
1/4-x,y,1/4-z
-x,-y,-z
3/4+x,3/4+y,-z
-x,3/4+y,3/4+z
3/4+x,-y,3/4+z
x,1/2+y,1/2+z
1/4-x,3/4-y,1/2+z
x,3/4-y,3/4-z
1/4-x,1/2+y,3/4-z
-x,1/2-y,1/2-z
3/4+x,1/4+y,1/2-z
-x,1/4+y,1/4+z
3/4+x,1/2-y,1/4+z
1/2+x,y,1/2+z
3/4-x,1/4-y,1/2+z
1/2+x,1/4-y,3/4-z
3/4-x,y,3/4-z
1/2-x,-y,1/2-z
1/4+x,3/4+y,1/2-z
1/2-x,3/4+y,1/4+z
1/4+x,-y,1/4+z
1/2+x,1/2+y,z
3/4-x,3/4-y,z
1/2+x,3/4-y,1/4-z
3/4-x,1/2+y,1/4-z
1/2-x,1/2-y,-z
1/4+x,1/4+y,-z
1/2-x,1/4+y,3/4+z
1/4+x,1/2-y,3/4+z
loop_
_atom_site_type_symbol
_atom_site_label
_atom_site_fract_x
_atom_site_fract_y
_atom_site_fract_z
Si Si1 0.165701 0.015594 0.247665
Si Si2 0.625000 0.979289 0.125000
Si Si3 0.951452 0.629852 0.325306
Si Si4 0.765762 0.375000 0.375000
O O1 0.204366 0.068237 0.219625
O O2 0.148325 0.016282 0.455690
O O3 0.182529 0.940436 0.170796
O O4 0.125000 0.035142 0.125000
O O5 0.661609 0.930287 0.208020
O O6 0.985308 0.658417 0.471162
O O7 0.972245 0.625000 0.125000
#
# Coordination Sequence:
#
# PCOD9517024 Si02
#       4
#    32  16  32  16
#     4  12  25  47  73 105 146 189 236 296 359 426
#     4  12  22  44  79  99 132 196 250 282 346 436
#     4  12  23  43  75 104 137 191 245 288 348 429
#     4  12  29  44  68 112 156 174 234 316 357 404
#
# _framework density 21.947163
#
# number of rings (size 3 to 8) (size 9 to 14) (size 15 to 20)
#    0.000    0.000    8.333    1.500    0.000    4.000 
#    0.000    1.667    0.000    0.000    0.000    0.000 
#    0.000    0.000    0.000    0.000    0.000    0.000 
#
# Total GULP energy -134205.886663 kJ/mol
# GULP energy per Si atom -5591.911944 kJ/mol
# Density = 2.189721 g / cm^3
# Si number density = 21.947163 Si / 1000 Ang^3
#
#
#
# Elastic Constant Matrix: (Units=GPa)
#
#
# Indices 1 2 3 4 5 6 
#
# 1 113.9444 33.2486 49.5747 0.0000 0.0000 0.0000
# 2 33.2486 38.5265 21.4419 -0.0001 0.0000 0.0000
# 3 49.5747 21.4419 194.7794 -0.0002 0.0000 -0.0001
# 4 0.0000 -0.0001 -0.0002 15.1730 0.0000 -0.0001
# 5 0.0000 0.0000 0.0000 0.0000 45.4007 0.0000
# 6 0.0000 0.0000 -0.0001 -0.0001 0.0000 -20.0278
#
#
#
# Elastic Compliance Matrix: (Units=1/GPa)
#
#
# Indices 1 2 3 4 5 6 
#
# 1 0.012505 -0.009609 -0.002125 0.000000 0.000000 0.000000
# 2 -0.009609 0.035034 -0.001411 0.000000 0.000000 0.000000
# 3 -0.002125 -0.001411 0.005830 0.000000 0.000000 0.000000
# 4 0.000000 0.000000 0.000000 0.065907 0.000000 0.000000
# 5 0.000000 0.000000 0.000000 0.000000 0.022026 0.000000
# 6 0.000000 0.000000 0.000000 0.000000 0.000000 -0.049931
#
#
# Mechanical properties :
#
#
# Convention : Reuss Voigt Hill
#
# Bulk Modulus (GPa) = 36.92879 61.75340 49.34109
# Shear Modulus (GPa) = 39.46746 24.30819 31.88783
#
# Velocity S-wave (km/s) = 4.24523 3.33164 3.81588
# Velocity P-wave (km/s) = 6.39469 6.55730 6.47650
#
# Compressibility (1/GPa) = 0.02707914
#
# Stress axis : x y z
#
# Youngs Moduli (GPa) = 79.97108 28.54374 171.52221
#
# Poissons Ratio (x) = 0.27427 0.36446
# Poissons Ratio (y) = 0.76843 0.24202
# Poissons Ratio (z) = 0.16993 0.04028
#
# Static dielectric constant tensor:
#      x y z
#    x 1.762410 0.000000 0.000000 
#    y 0.000000 1.840410 0.000000 
#    z 0.000000 0.000000 1.888380 
# 
# From -- ./inp_files/9150.got.cif
#   From: 2010.05.17/outbox.cif.g08.bks.cpg/sg70_5_cif.got.tgz:9150.got - 2010.06.03 15:57:51.
