data_PCOD9517910
_publ_section_title
;
Structure prediction by ZEFSAII (Michael W. Deem and Ramdas Pophale) SiO2 
 PCOD9517910
Probable space group: I M M M
;
_chemical_formula_sum "Si O2"
_cell_formula_units_Z 116
_cell_length_a 31.724454
_cell_length_b 22.727457
_cell_length_c 8.972646
_cell_angle_alpha 90.000000
_cell_angle_beta 90.000000
_cell_angle_gamma 90.000000
_cell_volume 6469.422801
_symmetry_space_group_name_H-M "I M M M"
_symmetry_group_IT_number 71
_symmetry_cell_setting 'orthorhombic'
loop_
_space_group_symop_operation_xyz
x,y,z
-x,-y,z
x,-y,-z
-x,y,-z
-x,-y,-z
x,y,-z
-x,y,z
x,-y,z
1/2+x,1/2+y,1/2+z
1/2-x,1/2-y,1/2+z
1/2+x,1/2-y,1/2-z
1/2-x,1/2+y,1/2-z
1/2-x,1/2-y,1/2-z
1/2+x,1/2+y,1/2-z
1/2-x,1/2+y,1/2+z
1/2+x,1/2-y,1/2+z
loop_
_atom_site_type_symbol
_atom_site_label
_atom_site_fract_x
_atom_site_fract_y
_atom_site_fract_z
Si Si1 0.105340 0.831806 0.823005
Si Si2 0.834779 0.567802 0.322426
Si Si3 0.067016 0.594862 0.677689
Si Si4 0.048893 0.930874 0.678108
Si Si5 0.785906 0.326740 0.176988
Si Si6 0.549002 0.231966 0.822530
Si Si7 0.500000 0.000000 0.723955
Si Si8 0.309897 0.294471 0.822666
O O1 0.080094 0.888323 0.763971
O O2 0.079596 0.774814 0.766007
O O3 0.151812 0.828128 0.753552
O O4 0.107640 0.831849 0.000000
O O5 0.828050 0.575513 0.500000
O O6 0.826183 0.500000 0.284341
O O7 0.884103 0.581139 0.294803
O O8 0.806198 0.613350 0.234077
O O9 0.058419 0.584128 0.500000
O O10 0.057780 0.663248 0.707728
O O11 0.036671 0.551431 0.765773
O O12 0.053569 0.921959 0.500000
O O13 0.000000 0.917583 0.715297
O O14 0.056111 0.000000 0.708506
O O15 0.735922 0.322501 0.209075
O O16 0.807657 0.271830 0.259641
O O17 0.791552 0.319946 0.000000
O O18 0.500000 0.244775 0.789721
O O19 0.555582 0.241156 0.000000
O O20 0.316070 0.292765 0.000000
#
# Coordination Sequence:
#
# PCOD9517910 Si02
#       8
#    16  16  16  16  16  16   4  16
#     4  12  24  36  55  85 118 150 184 229 284 335
#     4  10  20  33  52  81 114 150 191 230 273 326
#     4  10  18  29  49  78 111 147 192 243 280 311
#     4   9  19  38  63  87 113 150 193 232 273 333
#     4  10  21  38  61  86 109 138 179 229 288 344
#     4  10  20  33  51  78 112 153 197 238 282 330
#     4  12  17  28  52  80 113 146 195 252 281 306
#     4  10  21  39  62  84 108 141 181 227 280 343
#
# _framework density 17.930503000000002
#
# number of rings (size 3 to 8) (size 9 to 14) (size 15 to 20)
#    0.000    1.793    1.379    4.345    0.000    5.517 
#    0.000    1.379    0.000    0.828    0.000    1.931 
#    0.000    0.000    0.000    0.000    0.000    0.000 
#
# Total GULP energy -323579.752167 kJ/mol
# GULP energy per Si atom -5578.961244 kJ/mol
# Density = 1.788969 g / cm^3
# Si number density = 17.930503 Si / 1000 Ang^3
#
#
#
# Elastic Constant Matrix: (Units=GPa)
#
#
# Indices 1 2 3 4 5 6 
#
# 1 103.1075 69.9989 63.0986 0.0000 0.0000 0.0000
# 2 69.9989 86.6158 51.7026 0.0000 0.0000 0.0000
# 3 63.0986 51.7026 60.6230 0.0000 0.0000 0.0000
# 4 0.0000 0.0000 0.0000 8.6587 0.0000 0.0000
# 5 0.0000 0.0000 0.0000 0.0000 -4.8307 0.0000
# 6 0.0000 0.0000 0.0000 0.0000 0.0000 -30.2783
#
#
#
# Elastic Compliance Matrix: (Units=1/GPa)
#
#
# Indices 1 2 3 4 5 6 
#
# 1 0.031978 -0.012172 -0.022903 0.000000 0.000000 0.000000
# 2 -0.012172 0.028151 -0.011340 0.000000 0.000000 0.000000
# 3 -0.022903 -0.011340 0.050005 0.000000 0.000000 0.000000
# 4 0.000000 0.000000 0.000000 0.115491 0.000000 0.000000
# 5 0.000000 0.000000 0.000000 0.000000 -0.207009 0.000000
# 6 0.000000 0.000000 0.000000 0.000000 0.000000 -0.033027
#
#
# Mechanical properties :
#
#
# Convention : Reuss Voigt Hill
#
# Bulk Modulus (GPa) = 57.78837 68.88292 63.33565
# Shear Modulus (GPa) = 59.39285 -0.92032 29.23626
#
# Velocity S-wave (km/s) = 5.76158 -0.71721 4.04237
# Velocity P-wave (km/s) = 8.74987 6.14932 7.56222
#
# Compressibility (1/GPa) = 0.01730452
#
# Stress axis : x y z
#
# Youngs Moduli (GPa) = 31.27165 35.52294 19.99817
#
# Poissons Ratio (x) = 0.43238 0.45802
# Poissons Ratio (y) = 0.38063 0.22677
# Poissons Ratio (z) = 0.71621 0.40282
#
# Static dielectric constant tensor:
#      x y z
#    x 1.596650 0.000000 0.000000 
#    y 0.000000 1.588210 0.000000 
#    z 0.000000 0.000000 1.611170 
# 
# From -- ./inp_files/15381.got.cif
#   From: 2010.05.17/outbox.cif.g08.bks.cpg/sg71_8_cif.got.tgz:15381.got - 2010.06.03 16:22:01.
