data_PCOD9517098
_publ_section_title
;
Structure prediction by ZEFSAII (Michael W. Deem and Ramdas Pophale) SiO2 
 PCOD9517098
Probable space group: F D D D
;
_chemical_formula_sum "Si O2"
_cell_formula_units_Z 144
_cell_length_a 12.641526
_cell_length_b 31.413906
_cell_length_c 16.808238
_cell_angle_alpha 90.000000
_cell_angle_beta 90.000000
_cell_angle_gamma 90.000000
_cell_volume 6674.882591
_symmetry_space_group_name_H-M "F D D D"
_symmetry_group_IT_number 70
_space_group.IT_coordinate_system_code '2'
_symmetry_cell_setting 'orthorhombic'
loop_
_space_group_symop_operation_xyz
x,y,z
1/4-x,1/4-y,z
x,1/4-y,1/4-z
1/4-x,y,1/4-z
-x,-y,-z
3/4+x,3/4+y,-z
-x,3/4+y,3/4+z
3/4+x,-y,3/4+z
x,1/2+y,1/2+z
1/4-x,3/4-y,1/2+z
x,3/4-y,3/4-z
1/4-x,1/2+y,3/4-z
-x,1/2-y,1/2-z
3/4+x,1/4+y,1/2-z
-x,1/4+y,1/4+z
3/4+x,1/2-y,1/4+z
1/2+x,y,1/2+z
3/4-x,1/4-y,1/2+z
1/2+x,1/4-y,3/4-z
3/4-x,y,3/4-z
1/2-x,-y,1/2-z
1/4+x,3/4+y,1/2-z
1/2-x,3/4+y,1/4+z
1/4+x,-y,1/4+z
1/2+x,1/2+y,z
3/4-x,3/4-y,z
1/2+x,3/4-y,1/4-z
3/4-x,1/2+y,1/4-z
1/2-x,1/2-y,-z
1/4+x,1/4+y,-z
1/2-x,1/4+y,3/4+z
1/4+x,1/2-y,3/4+z
loop_
_atom_site_type_symbol
_atom_site_label
_atom_site_fract_x
_atom_site_fract_y
_atom_site_fract_z
Si Si1 0.003396 0.551483 0.994864
Si Si2 0.765163 0.261744 0.407449
Si Si3 0.625000 0.897269 0.125000
Si Si4 0.478074 0.826912 0.071646
Si Si5 0.915889 0.079766 0.649335
O O1 0.902068 0.571425 0.948603
O O2 0.104816 0.570886 0.949305
O O3 0.004680 0.569197 0.084135
O O4 0.000000 0.500000 0.000000
O O5 0.875000 0.281103 0.375000
O O6 0.750000 0.250000 0.500000
O O7 0.756910 0.217756 0.360452
O O8 0.669682 0.293150 0.389509
O O9 0.525088 0.864491 0.127308
O O10 0.538589 0.831756 0.987817
O O11 0.869065 0.125000 0.625000
#
# Coordination Sequence:
#
# PCOD9517098 Si02
#       5
#    32  32  16  32  32
#     4  12  28  45  77 112 151 201 263 330 399 478
#     4  12  25  47  80 109 155 209 259 324 399 478
#     4  12  26  46  70 110 150 202 260 318 410 476
#     4  12  25  49  74 111 154 204 257 333 398 477
#     4  12  26  48  77 112 152 195 266 325 400 480
#
# _framework density 21.573412000000001
#
# number of rings (size 3 to 8) (size 9 to 14) (size 15 to 20)
#    0.000    0.000    7.778    1.333    3.111    3.111 
#    0.000    2.222    0.000    0.000    0.000    0.000 
#    0.000    0.000    0.000    0.000    0.000    0.000 
#
# Total GULP energy -201099.277267 kJ/mol
# GULP energy per Si atom -5586.091035 kJ/mol
# Density = 2.152431 g / cm^3
# Si number density = 21.573412 Si / 1000 Ang^3
#
#
#
# Elastic Constant Matrix: (Units=GPa)
#
#
# Indices 1 2 3 4 5 6 
#
# 1 115.7939 37.6975 36.5054 0.0000 0.0000 0.0000
# 2 37.6975 168.1795 37.3548 0.0000 0.0000 0.0000
# 3 36.5054 37.3548 116.8010 0.0000 0.0000 0.0000
# 4 0.0000 0.0000 0.0000 46.5480 0.0000 0.0000
# 5 0.0000 0.0000 0.0000 0.0000 33.4078 0.0000
# 6 0.0000 0.0000 0.0000 0.0000 0.0000 44.4220
#
#
#
# Elastic Compliance Matrix: (Units=1/GPa)
#
#
# Indices 1 2 3 4 5 6 
#
# 1 0.009995 -0.001665 -0.002591 0.000000 0.000000 0.000000
# 2 -0.001665 0.006678 -0.001615 0.000000 0.000000 0.000000
# 3 -0.002591 -0.001615 0.009888 0.000000 0.000000 0.000000
# 4 0.000000 0.000000 0.000000 0.021483 0.000000 0.000000
# 5 0.000000 0.000000 0.000000 0.000000 0.029933 0.000000
# 6 0.000000 0.000000 0.000000 0.000000 0.000000 0.022511
#
#
# Mechanical properties :
#
#
# Convention : Reuss Voigt Hill
#
# Bulk Modulus (GPa) = 67.48618 69.32109 68.40364
# Shear Modulus (GPa) = 42.67254 44.15669 43.41462
#
# Velocity S-wave (km/s) = 4.45231 4.52908 4.49086
# Velocity P-wave (km/s) = 7.60137 7.71702 7.65942
#
# Compressibility (1/GPa) = 0.01481785
#
# Stress axis : x y z
#
# Youngs Moduli (GPa) = 100.04999 149.74563 101.13119
#
# Poissons Ratio (x) = 0.24930 0.26208
# Poissons Ratio (y) = 0.16656 0.16337
# Poissons Ratio (z) = 0.25927 0.24190
#
# Static dielectric constant tensor:
#      x y z
#    x 1.435940 0.000000 0.000000 
#    y 0.000000 1.826890 0.000000 
#    z 0.000000 0.000000 1.645170 
# 
# From -- ./inp_files/26579.got.cif
#   From: 2010.05.17/outbox.cif.g08.bks.cpg/sg70_14_cif.got.tgz:26579.got - 2010.06.03 15:57:51.
