data_PCOD9517105
_publ_section_title
;
Structure prediction by ZEFSAII (Michael W. Deem and Ramdas Pophale) SiO2 
 PCOD9517105
Probable space group: F D D D
;
_chemical_formula_sum "Si O2"
_cell_formula_units_Z 104
_cell_length_a 7.471619
_cell_length_b 16.127027
_cell_length_c 32.034441
_cell_angle_alpha 90.000000
_cell_angle_beta 90.000000
_cell_angle_gamma 90.000000
_cell_volume 3859.990011
_symmetry_space_group_name_H-M "F D D D"
_symmetry_group_IT_number 70
_space_group.IT_coordinate_system_code '2'
_symmetry_cell_setting 'orthorhombic'
loop_
_space_group_symop_operation_xyz
x,y,z
1/4-x,1/4-y,z
x,1/4-y,1/4-z
1/4-x,y,1/4-z
-x,-y,-z
3/4+x,3/4+y,-z
-x,3/4+y,3/4+z
3/4+x,-y,3/4+z
x,1/2+y,1/2+z
1/4-x,3/4-y,1/2+z
x,3/4-y,3/4-z
1/4-x,1/2+y,3/4-z
-x,1/2-y,1/2-z
3/4+x,1/4+y,1/2-z
-x,1/4+y,1/4+z
3/4+x,1/2-y,1/4+z
1/2+x,y,1/2+z
3/4-x,1/4-y,1/2+z
1/2+x,1/4-y,3/4-z
3/4-x,y,3/4-z
1/2-x,-y,1/2-z
1/4+x,3/4+y,1/2-z
1/2-x,3/4+y,1/4+z
1/4+x,-y,1/4+z
1/2+x,1/2+y,z
3/4-x,3/4-y,z
1/2+x,3/4-y,1/4-z
3/4-x,1/2+y,1/4-z
1/2-x,1/2-y,-z
1/4+x,1/4+y,-z
1/2-x,1/4+y,3/4+z
1/4+x,1/2-y,3/4+z
loop_
_atom_site_type_symbol
_atom_site_label
_atom_site_fract_x
_atom_site_fract_y
_atom_site_fract_z
Si Si1 0.336743 0.692826 0.559552
Si Si2 0.125000 0.125000 0.625000
Si Si3 0.168141 0.405520 0.579248
Si Si4 0.182926 0.950068 0.502671
O O1 0.490624 0.677439 0.594811
O O2 0.180830 0.753295 0.577510
O O3 0.422073 0.734636 0.518169
O O4 0.296842 0.602135 0.539612
O O5 0.375000 0.375000 0.572736
O O6 0.071644 0.358926 0.542235
O O7 0.125000 0.373261 0.625000
O O8 0.000000 0.000000 0.500000
#
# Coordination Sequence:
#
# PCOD9517105 Si02
#       4
#    32   8  32  32
#     4  12  28  52  86 124 178 228 296 370 453 540
#     4  12  28  52  90 132 174 232 310 370 452 532
#     4  12  29  51  83 127 173 230 299 369 450 539
#     4  12  25  51  84 124 170 228 290 365 440 542
#
# _framework density 26.943072999999998
#
# number of rings (size 3 to 8) (size 9 to 14) (size 15 to 20)
#    0.000    0.000    3.077    5.538    6.462    4.923 
#    0.000    6.923    0.000    0.000    0.000    0.000 
#    0.000    0.000    0.000    0.000    0.000    0.000 
#
# Total GULP energy -145290.656306 kJ/mol
# GULP energy per Si atom -5588.102166 kJ/mol
# Density = 2.688175 g / cm^3
# Si number density = 26.943073 Si / 1000 Ang^3
#
#
#
# Elastic Constant Matrix: (Units=GPa)
#
#
# Indices 1 2 3 4 5 6 
#
# 1 222.8455 92.4116 51.8891 0.0000 0.0000 0.0000
# 2 92.4116 138.1330 71.6578 0.0000 0.0000 0.0000
# 3 51.8891 71.6578 153.5609 0.0000 0.0000 0.0000
# 4 0.0000 0.0000 0.0000 12.8451 0.0000 0.0000
# 5 0.0000 0.0000 0.0000 0.0000 50.0850 0.0000
# 6 0.0000 0.0000 0.0000 0.0000 0.0000 -14.6856
#
#
#
# Elastic Compliance Matrix: (Units=1/GPa)
#
#
# Indices 1 2 3 4 5 6 
#
# 1 0.006216 -0.004049 -0.000211 0.000000 0.000000 0.000000
# 2 -0.004049 0.012189 -0.004320 0.000000 0.000000 0.000000
# 3 -0.000211 -0.004320 0.008599 0.000000 0.000000 0.000000
# 4 0.000000 0.000000 0.000000 0.077851 0.000000 0.000000
# 5 0.000000 0.000000 0.000000 0.000000 0.019966 0.000000
# 6 0.000000 0.000000 0.000000 0.000000 0.000000 -0.068094
#
#
# Mechanical properties :
#
#
# Convention : Reuss Voigt Hill
#
# Bulk Modulus (GPa) = 101.57793 105.16179 103.36986
# Shear Modulus (GPa) = 64.79470 29.55430 47.17450
#
# Velocity S-wave (km/s) = 4.90927 3.31557 4.18891
# Velocity P-wave (km/s) = 8.36166 7.33302 7.86418
#
# Compressibility (1/GPa) = 0.00984466
#
# Stress axis : x y z
#
# Youngs Moduli (GPa) = 160.88770 82.04136 116.29093
#
# Poissons Ratio (x) = 0.33217 0.02453
# Poissons Ratio (y) = 0.65140 0.50235
# Poissons Ratio (z) = 0.03394 0.35440
#
# Static dielectric constant tensor:
#      x y z
#    x 2.072040 0.000000 0.000000 
#    y 0.000000 1.786500 0.000000 
#    z 0.000000 0.000000 2.006160 
# 
# From -- ./inp_files/57069.got.cif
#   From: 2010.05.17/outbox.cif.g08.bks.cpg/sg70_29_cif.got.tgz:57069.got - 2010.06.03 15:57:51.
