data_PCOD9517737
_publ_section_title
;
Structure prediction by ZEFSAII (Michael W. Deem and Ramdas Pophale) SiO2 
 PCOD9517737
Probable space group: I M M M
;
_chemical_formula_sum "Si O2"
_cell_formula_units_Z 96
_cell_length_a 20.717727
_cell_length_b 8.688990
_cell_length_c 27.916210
_cell_angle_alpha 90.000000
_cell_angle_beta 90.000000
_cell_angle_gamma 90.000000
_cell_volume 5025.367885
_symmetry_space_group_name_H-M "I M M M"
_symmetry_group_IT_number 71
_symmetry_cell_setting 'orthorhombic'
loop_
_space_group_symop_operation_xyz
x,y,z
-x,-y,z
x,-y,-z
-x,y,-z
-x,-y,-z
x,y,-z
-x,y,z
x,-y,z
1/2+x,1/2+y,1/2+z
1/2-x,1/2-y,1/2+z
1/2+x,1/2-y,1/2-z
1/2-x,1/2+y,1/2-z
1/2-x,1/2-y,1/2-z
1/2+x,1/2+y,1/2-z
1/2-x,1/2+y,1/2+z
1/2+x,1/2-y,1/2+z
loop_
_atom_site_type_symbol
_atom_site_label
_atom_site_fract_x
_atom_site_fract_y
_atom_site_fract_z
Si Si1 0.924293 0.182284 0.359657
Si Si2 0.136724 0.182238 0.835569
Si Si3 0.656561 0.816874 0.053384
Si Si4 0.575559 0.816470 0.243170
Si Si5 0.791471 0.317291 0.080586
Si Si6 0.569071 0.185262 0.420750
O O1 0.883009 0.236649 0.404606
O O2 0.905980 0.267543 0.310517
O O3 0.000000 0.215141 0.368492
O O4 0.916814 0.000000 0.352540
O O5 0.120741 0.238484 0.782678
O O6 0.194787 0.267356 0.864110
O O7 0.076542 0.234239 0.869139
O O8 0.145917 0.000000 0.837550
O O9 0.731376 0.771768 0.059678
O O10 0.649328 0.000000 0.057420
O O11 0.635396 0.768999 0.000000
O O12 0.500000 0.769671 0.250009
O O13 0.578969 0.000000 0.248469
O O14 0.780509 0.500000 0.077202
O O15 0.861173 0.278963 0.056496
O O16 0.500000 0.226652 0.442751
O O17 0.569576 0.000000 0.414490
#
# Coordination Sequence:
#
# PCOD9517737 Si02
#       6
#    16  16  16  16  16  16
#     4  10  22  40  62  89 118 147 185 234 285 340
#     4  10  18  28  47  79 116 153 194 233 273 324
#     4  11  24  42  64  87 112 145 186 234 292 355
#     4  10  19  32  52  80 118 160 196 231 277 334
#     4   9  19  35  55  81 113 151 194 238 284 336
#     4   8  15  28  47  74 109 148 190 234 276 322
#
# _framework density 19.103079000000001
#
# number of rings (size 3 to 8) (size 9 to 14) (size 15 to 20)
#    1.000    1.333    0.000    3.500    0.000    6.000 
#    0.000    2.500    0.000    0.500    0.000    3.500 
#    0.000    0.000    0.000    0.000    0.000    0.000 
#
# Total GULP energy -267366.058432 kJ/mol
# GULP energy per Si atom -5570.126217 kJ/mol
# Density = 1.905960 g / cm^3
# Si number density = 19.103079 Si / 1000 Ang^3
#
#
#
# Elastic Constant Matrix: (Units=GPa)
#
#
# Indices 1 2 3 4 5 6 
#
# 1 28.6079 9.8307 15.5430 0.0000 0.0000 0.0000
# 2 9.8307 22.4398 12.0945 0.0000 0.0000 0.0000
# 3 15.5430 12.0945 94.2104 0.0000 0.0000 0.0000
# 4 0.0000 0.0000 0.0000 15.3284 0.0000 0.0000
# 5 0.0000 0.0000 0.0000 0.0000 39.9427 0.0000
# 6 0.0000 0.0000 0.0000 0.0000 0.0000 20.5307
#
#
#
# Elastic Compliance Matrix: (Units=1/GPa)
#
#
# Indices 1 2 3 4 5 6 
#
# 1 0.043282 -0.016236 -0.005056 0.000000 0.000000 0.000000
# 2 -0.016236 0.053967 -0.004249 0.000000 0.000000 0.000000
# 3 -0.005056 -0.004249 0.011994 0.000000 0.000000 0.000000
# 4 0.000000 0.000000 0.000000 0.065238 0.000000 0.000000
# 5 0.000000 0.000000 0.000000 0.000000 0.025036 0.000000
# 6 0.000000 0.000000 0.000000 0.000000 0.000000 0.048708
#
#
# Mechanical properties :
#
#
# Convention : Reuss Voigt Hill
#
# Bulk Modulus (GPa) = 17.19424 24.46607 20.83015
# Shear Modulus (GPa) = 15.68895 22.34635 19.01765
#
# Velocity S-wave (km/s) = 2.86891 3.42391 3.15862
# Velocity P-wave (km/s) = 4.47152 5.33536 4.92243
#
# Compressibility (1/GPa) = 0.05815900
#
# Stress axis : x y z
#
# Youngs Moduli (GPa) = 23.10435 18.52984 83.37308
#
# Poissons Ratio (x) = 0.30086 0.42156
# Poissons Ratio (y) = 0.37513 0.35429
# Poissons Ratio (z) = 0.11682 0.07874
#
# Static dielectric constant tensor:
#      x y z
#    x 1.685990 0.000000 0.000000 
#    y 0.000000 1.629140 0.000000 
#    z 0.000000 0.000000 1.681960 
# 
# From -- ./inp_files/56136.got.cif
#   From: 2010.05.17/outbox.cif.g08.bks.cpg/sg71_29_cif.got.tgz:56136.got - 2010.06.03 16:22:01.
