data_PCOD9517479
_publ_section_title
;
Structure prediction by ZEFSAII (Michael W. Deem and Ramdas Pophale) SiO2 
 PCOD9517479
Probable space group: I M M M
;
_chemical_formula_sum "Si O2"
_cell_formula_units_Z 104
_cell_length_a 28.721903
_cell_length_b 7.642485
_cell_length_c 22.506397
_cell_angle_alpha 90.000000
_cell_angle_beta 90.000000
_cell_angle_gamma 90.000000
_cell_volume 4940.305224
_symmetry_space_group_name_H-M "I M M M"
_symmetry_group_IT_number 71
_symmetry_cell_setting 'orthorhombic'
loop_
_space_group_symop_operation_xyz
x,y,z
-x,-y,z
x,-y,-z
-x,y,-z
-x,-y,-z
x,y,-z
-x,y,z
x,-y,z
1/2+x,1/2+y,1/2+z
1/2-x,1/2-y,1/2+z
1/2+x,1/2-y,1/2-z
1/2-x,1/2+y,1/2-z
1/2-x,1/2-y,1/2-z
1/2+x,1/2+y,1/2-z
1/2-x,1/2+y,1/2+z
1/2+x,1/2-y,1/2+z
loop_
_atom_site_type_symbol
_atom_site_label
_atom_site_fract_x
_atom_site_fract_y
_atom_site_fract_z
Si Si1 0.363152 0.292822 0.208770
Si Si2 0.225811 0.287449 0.628363
Si Si3 0.000000 0.791254 0.067868
Si Si4 0.174087 0.794835 0.168232
Si Si5 0.447653 0.714619 0.128819
Si Si6 0.193425 0.288440 0.500000
Si Si7 0.415731 0.293145 0.000000
Si Si8 0.897892 0.293693 0.068042
O O1 0.372097 0.500000 0.215964
O O2 0.317874 0.269549 0.167676
O O3 0.350887 0.218347 0.273560
O O4 0.408014 0.222044 0.173987
O O5 0.226452 0.500000 0.628052
O O6 0.274790 0.221901 0.654234
O O7 0.217879 0.228950 0.560539
O O8 0.049848 0.735894 0.093009
O O9 0.000000 0.000000 0.066226
O O10 0.000000 0.720588 0.000000
O O11 0.140834 0.781924 0.111316
O O12 0.181614 0.000000 0.181044
O O13 0.500000 0.764259 0.145413
O O14 0.445684 0.500000 0.127773
O O15 0.436051 0.776075 0.061872
O O16 0.193837 0.500000 0.500000
O O17 0.139759 0.231318 0.500000
O O18 0.426076 0.500000 0.000000
O O19 0.890065 0.500000 0.065026
O O20 0.896157 0.223225 0.000000
#
# Coordination Sequence:
#
# PCOD9517479 Si02
#       8
#    16  16   8  16  16   8   8  16
#     4  10  20  36  56  80 108 141 186 230 271 328
#     4  10  21  36  55  77 107 146 184 226 279 335
#     4   9  17  33  59  85 109 143 181 220 271 330
#     4  10  22  37  55  82 111 145 187 226 273 336
#     4   9  17  30  51  79 109 139 174 222 275 323
#     4  10  20  33  51  77 106 141 181 224 279 334
#     4  10  17  30  54  80 104 138 181 225 273 328
#     4  10  21  37  57  83 113 144 181 229 281 331
#
# _framework density 21.05133
#
# number of rings (size 3 to 8) (size 9 to 14) (size 15 to 20)
#    0.000    2.231    1.538    1.385    1.077    4.000 
#    1.385    0.000    0.000    2.308    0.000    0.000 
#    0.000    0.000    0.000    0.000    0.000    0.000 
#
# Total GULP energy -290332.155545 kJ/mol
# GULP energy per Si atom -5583.310684 kJ/mol
# Density = 2.100342 g / cm^3
# Si number density = 21.051330 Si / 1000 Ang^3
#
#
#
# Elastic Constant Matrix: (Units=GPa)
#
#
# Indices 1 2 3 4 5 6 
#
# 1 181.9349 -14.8659 81.9317 0.0000 0.0000 0.0000
# 2 -14.8659 33.1948 -7.9405 0.0000 0.0000 0.0000
# 3 81.9317 -7.9405 131.4539 0.0000 0.0000 0.0000
# 4 0.0000 0.0000 0.0000 4.7925 0.0000 0.0000
# 5 0.0000 0.0000 0.0000 0.0000 347.9987 0.0000
# 6 0.0000 0.0000 0.0000 0.0000 0.0000 24.5147
#
#
#
# Elastic Compliance Matrix: (Units=1/GPa)
#
#
# Indices 1 2 3 4 5 6 
#
# 1 0.007821 0.002371 -0.004731 0.000000 0.000000 0.000000
# 2 0.002371 0.031285 0.000412 0.000000 0.000000 0.000000
# 3 -0.004731 0.000412 0.010581 0.000000 0.000000 0.000000
# 4 0.000000 0.000000 0.000000 0.208658 0.000000 0.000000
# 5 0.000000 0.000000 0.000000 0.000000 0.002874 0.000000
# 6 0.000000 0.000000 0.000000 0.000000 0.000000 0.040792
#
#
# Mechanical properties :
#
#
# Convention : Reuss Voigt Hill
#
# Bulk Modulus (GPa) = 21.83856 51.64823 36.74339
# Shear Modulus (GPa) = 15.56801 94.62507 55.09654
#
# Velocity S-wave (km/s) = 2.72237 6.71173 5.12145
# Velocity P-wave (km/s) = 4.50314 9.20058 7.24324
#
# Compressibility (1/GPa) = 0.04579057
#
# Stress axis : x y z
#
# Youngs Moduli (GPa) = 127.86299 31.96371 94.50857
#
# Poissons Ratio (x) = -0.07578 0.44715
# Poissons Ratio (y) = -0.30312 -0.03896
# Poissons Ratio (z) = 0.60496 -0.01318
#
# Static dielectric constant tensor:
#      x y z
#    x 1.728600 0.000000 0.000000 
#    y 0.000000 1.767900 0.000000 
#    z 0.000000 0.000000 1.757240 
# 
# From -- ./inp_files/56324.got.cif
#   From: 2010.05.17/outbox.cif.g08.bks.cpg/sg71_29_cif.got.tgz:56324.got - 2010.06.03 16:22:01.
