data_PCOD9517567
_publ_section_title
;
Structure prediction by ZEFSAII (Michael W. Deem and Ramdas Pophale) SiO2 
 PCOD9517567
Probable space group: I M M M
;
_chemical_formula_sum "Si O2"
_cell_formula_units_Z 112
_cell_length_a 32.818528
_cell_length_b 9.187906
_cell_length_c 33.125420
_cell_angle_alpha 90.000000
_cell_angle_beta 90.000000
_cell_angle_gamma 90.000000
_cell_volume 9988.425499
_symmetry_space_group_name_H-M "I M M M"
_symmetry_group_IT_number 71
_symmetry_cell_setting 'orthorhombic'
loop_
_space_group_symop_operation_xyz
x,y,z
-x,-y,z
x,-y,-z
-x,y,-z
-x,-y,-z
x,y,-z
-x,y,z
x,-y,z
1/2+x,1/2+y,1/2+z
1/2-x,1/2-y,1/2+z
1/2+x,1/2-y,1/2-z
1/2-x,1/2+y,1/2-z
1/2-x,1/2-y,1/2-z
1/2+x,1/2+y,1/2-z
1/2-x,1/2+y,1/2+z
1/2+x,1/2-y,1/2+z
loop_
_atom_site_type_symbol
_atom_site_label
_atom_site_fract_x
_atom_site_fract_y
_atom_site_fract_z
Si Si1 0.650354 0.667658 0.742336
Si Si2 0.419380 0.174212 0.453170
Si Si3 0.208754 0.831324 0.837233
Si Si4 0.500000 0.326585 0.676574
Si Si5 0.000000 0.826436 0.919600
Si Si6 0.916957 0.327829 0.803269
Si Si7 0.227555 0.825262 0.287924
Si Si8 0.139696 0.327025 0.881653
O O1 0.636883 0.500000 0.746064
O O2 0.680084 0.674234 0.703004
O O3 0.612723 0.770312 0.731959
O O4 0.679756 0.704805 0.779954
O O5 0.410728 0.204278 0.500000
O O6 0.459953 0.256407 0.439205
O O7 0.382532 0.213349 0.423182
O O8 0.426155 0.000000 0.448699
O O9 0.249474 0.742152 0.826295
O O10 0.180669 0.759494 0.871379
O O11 0.217751 0.000000 0.845093
O O12 0.500000 0.500000 0.681968
O O13 0.500000 0.296048 0.628384
O O14 0.459364 0.256400 0.694835
O O15 0.000000 0.000000 0.925329
O O16 0.923520 0.500000 0.800136
O O17 0.892647 0.299861 0.845360
O O18 0.250000 0.750000 0.250000
O O19 0.233072 0.000000 0.286281
O O20 0.148187 0.500000 0.881440
#
# Coordination Sequence:
#
# PCOD9517567 Si02
#       8
#    16  16  16   8   8  16  16  16
#     4   8  15  25  35  49  69  88 104 124 152 185
#     4  10  20  33  46  56  67  84 105 133 171 213
#     4   9  16  24  36  52  69  88 106 126 151 183
#     4  11  21  30  40  51  66  86 106 134 170 206
#     4  11  22  32  43  56  68  82 102 134 172 212
#     4  10  18  27  40  53  64  82 107 135 162 194
#     4   9  15  23  35  51  70  90 108 126 147 178
#     4   9  17  28  40  53  67  83 104 130 160 199
#
# _framework density 11.212978
#
# number of rings (size 3 to 8) (size 9 to 14) (size 15 to 20)
#    0.000    2.571    1.429    2.786    0.000    6.857 
#    0.000    0.000    0.000    0.000    0.000    0.000 
#    0.000    0.000    0.000    0.000    0.000    0.000 
#
# Total GULP energy -311853.074586 kJ/mol
# GULP energy per Si atom -5568.804903 kJ/mol
# Density = 1.118746 g / cm^3
# Si number density = 11.212978 Si / 1000 Ang^3
#
#
#
# Elastic Constant Matrix: (Units=GPa)
#
#
# Indices 1 2 3 4 5 6 
#
# 1 75.2645 50.8675 46.3138 0.0000 0.0000 0.0000
# 2 50.8675 53.7422 30.1232 0.0000 0.0000 0.0000
# 3 46.3138 30.1232 41.0791 0.0000 0.0000 0.0000
# 4 0.0000 0.0000 0.0000 10.9849 0.0000 0.0000
# 5 0.0000 0.0000 0.0000 0.0000 7.2378 0.0000
# 6 0.0000 0.0000 0.0000 0.0000 0.0000 19.2661
#
#
#
# Elastic Compliance Matrix: (Units=1/GPa)
#
#
# Indices 1 2 3 4 5 6 
#
# 1 0.071328 -0.038096 -0.052482 0.000000 0.000000 0.000000
# 2 -0.038096 0.051940 0.004863 0.000000 0.000000 0.000000
# 3 -0.052482 0.004863 0.079947 0.000000 0.000000 0.000000
# 4 0.000000 0.000000 0.000000 0.091034 0.000000 0.000000
# 5 0.000000 0.000000 0.000000 0.000000 0.138164 0.000000
# 6 0.000000 0.000000 0.000000 0.000000 0.000000 0.051905
#
#
# Mechanical properties :
#
#
# Convention : Reuss Voigt Hill
#
# Bulk Modulus (GPa) = 31.46089 47.18831 39.32460
# Shear Modulus (GPa) = 7.50364 10.34983 8.92674
#
# Velocity S-wave (km/s) = 2.58968 3.04142 2.82460
# Velocity P-wave (km/s) = 6.08773 7.38300 6.76643
#
# Compressibility (1/GPa) = 0.03178549
#
# Stress axis : x y z
#
# Youngs Moduli (GPa) = 14.01965 19.25305 12.50833
#
# Poissons Ratio (x) = 0.73347 0.65646
# Poissons Ratio (y) = 0.53410 -0.06083
# Poissons Ratio (z) = 0.73578 -0.09364
#
# Static dielectric constant tensor:
#      x y z
#    x 1.358440 0.000000 0.000000 
#    y 0.000000 1.373650 0.000000 
#    z 0.000000 0.000000 1.347670 
# 
# From -- ./inp_files/71268.got.cif
#   From: 2010.05.17/outbox.cif.g08.bks.cpg/sg71_36_cif.got.tgz:71268.got - 2010.06.03 16:22:01.
