data_PCOD9517187
_publ_section_title
;
Structure prediction by ZEFSAII (Michael W. Deem and Ramdas Pophale) SiO2 
 PCOD9517187
Probable space group: F D D D
;
_chemical_formula_sum "Si O2"
_cell_formula_units_Z 60
_cell_length_a 21.000000
_cell_length_b 27.000000
_cell_length_c 21.000000
_cell_angle_alpha 90.000000
_cell_angle_beta 90.000000
_cell_angle_gamma 90.000000
_cell_volume 11907.000000
_symmetry_space_group_name_H-M "F D D D"
_symmetry_group_IT_number 70
_space_group.IT_coordinate_system_code '2'
_symmetry_cell_setting 'orthorhombic'
loop_
_space_group_symop_operation_xyz
x,y,z
1/4-x,1/4-y,z
x,1/4-y,1/4-z
1/4-x,y,1/4-z
-x,-y,-z
3/4+x,3/4+y,-z
-x,3/4+y,3/4+z
3/4+x,-y,3/4+z
x,1/2+y,1/2+z
1/4-x,3/4-y,1/2+z
x,3/4-y,3/4-z
1/4-x,1/2+y,3/4-z
-x,1/2-y,1/2-z
3/4+x,1/4+y,1/2-z
-x,1/4+y,1/4+z
3/4+x,1/2-y,1/4+z
1/2+x,y,1/2+z
3/4-x,1/4-y,1/2+z
1/2+x,1/4-y,3/4-z
3/4-x,y,3/4-z
1/2-x,-y,1/2-z
1/4+x,3/4+y,1/2-z
1/2-x,3/4+y,1/4+z
1/4+x,-y,1/4+z
1/2+x,1/2+y,z
3/4-x,3/4-y,z
1/2+x,3/4-y,1/4-z
3/4-x,1/2+y,1/4-z
1/2-x,1/2-y,-z
1/4+x,1/4+y,-z
1/2-x,1/4+y,3/4+z
1/4+x,1/2-y,3/4+z
loop_
_atom_site_type_symbol
_atom_site_label
_atom_site_fract_x
_atom_site_fract_y
_atom_site_fract_z
Si Si1 0.227508 0.964763 0.129414
Si Si2 0.511915 0.189475 0.009121
Si Si3 0.972220 0.080707 0.469171
Si Si4 0.900091 0.985652 0.532488
Si Si5 0.917020 0.423324 0.536783
Si Si6 0.236673 0.826246 0.420444
Si Si7 0.125000 0.359438 0.125000
Si Si8 0.857723 0.728456 0.675902
O O1 0.226842 0.959607 0.054051
O O2 0.289744 0.935354 0.152566
O O3 0.170781 0.931527 0.159300
O O4 0.235370 0.022757 0.145819
O O5 0.498195 0.129821 0.007711
O O6 0.586350 0.209700 0.001326
O O7 0.465474 0.211290 0.064135
O O8 0.924688 0.106186 0.415617
O O9 0.040133 0.052370 0.456742
O O10 0.928441 0.035555 0.497904
O O11 0.882518 0.004870 0.602745
O O12 0.875000 0.375000 0.545237
O O13 0.875093 0.473481 0.530778
O O14 0.966912 0.414434 0.479959
O O15 0.239102 0.875000 0.375000
O O16 0.162757 0.813110 0.436756
#
# Coordination Sequence:
#
# PCOD9517187 Si02
#       8
#    32  32  32  32  32  32  16  32
#     4  10  23  42  62  97 135 179 230 283 332 421
#     4  11  24  42  73  98 137 188 226 296 357 421
#     4  10  26  42  70 104 135 183 238 296 356 424
#     4  11  24  48  69 103 142 179 241 299 355 427
#     4  11  26  41  65  99 137 182 229 283 345 428
#     4  11  26  44  65  99 148 183 227 290 349 427
#     4  10  24  38  73  96 135 180 236 280 350 416
#     4  11  26  43  71  97 139 183 238 281 360 426
#
# _framework density 5.039053
#
# number of rings (size 3 to 8) (size 9 to 14) (size 15 to 20)
#    0.000    1.333    2.667    2.000   16.800    0.267 
#    0.000    0.000    0.000    1.600    0.000    0.000 
#    0.000    0.000    0.000    0.000    0.000    0.000 
#
# Total GULP energy -334018.344465 kJ/mol
# GULP energy per Si atom -5566.972408 kJ/mol
# Density = 0.502758 g / cm^3
# Si number density = 5.039053 Si / 1000 Ang^3
#
#
#
# Elastic Constant Matrix: (Units=GPa)
#
#
# Indices 1 2 3 4 5 6 
#
# 1 159.7043 70.0405 25.6840 0.0000 0.0000 0.0000
# 2 70.0405 147.3573 30.4459 0.0000 0.0000 0.0000
# 3 25.6840 30.4459 43.1272 0.0000 0.0000 0.0000
# 4 0.0000 0.0000 0.0000 25.5466 0.0000 0.0000
# 5 0.0000 0.0000 0.0000 0.0000 36.6759 0.0000
# 6 0.0000 0.0000 0.0000 0.0000 0.0000 44.3633
#
#
#
# Elastic Compliance Matrix: (Units=1/GPa)
#
#
# Indices 1 2 3 4 5 6 
#
# 1 0.008130 -0.003353 -0.002475 0.000000 0.000000 0.000000
# 2 -0.003353 0.009328 -0.004588 0.000000 0.000000 0.000000
# 3 -0.002475 -0.004588 0.027900 0.000000 0.000000 0.000000
# 4 0.000000 0.000000 0.000000 0.039144 0.000000 0.000000
# 5 0.000000 0.000000 0.000000 0.000000 0.027266 0.000000
# 6 0.000000 0.000000 0.000000 0.000000 0.000000 0.022541
#
#
# Mechanical properties :
#
#
# Convention : Reuss Voigt Hill
#
# Bulk Modulus (GPa) = 40.77278 66.94773 53.86025
# Shear Modulus (GPa) = 30.61536 36.25171 33.43353
#
# Velocity S-wave (km/s) = 3.90154 4.24552 4.07716
# Velocity P-wave (km/s) = 6.36933 7.57094 6.99598
#
# Compressibility (1/GPa) = 0.02452617
#
# Stress axis : x y z
#
# Youngs Moduli (GPa) = 123.00021 107.20482 35.84212
#
# Poissons Ratio (x) = 0.35946 0.08870
# Poissons Ratio (y) = 0.41242 0.16445
# Poissons Ratio (z) = 0.30439 0.49188
#
# Static dielectric constant tensor:
#      x y z
#    x 1.775670 0.000000 0.000000 
#    y 0.000000 1.720700 0.000000 
#    z 0.000000 0.000000 1.766670 
# 
# From -- ./inp_files/45216.got.cif
#   From: 2010.05.17/outbox.ucp.g08.bks.cvg/sg70_23_cif.got.tgz:45216.got - 2010.06.11 16:26:41.
