data_PCOD9517537
_publ_section_title
;
Structure prediction by ZEFSAII (Michael W. Deem and Ramdas Pophale) SiO2 
 PCOD9517537
Probable space group: I M M M
;
_chemical_formula_sum "Si O2"
_cell_formula_units_Z 104
_cell_length_a 8.742126
_cell_length_b 25.244716
_cell_length_c 34.387313
_cell_angle_alpha 90.000000
_cell_angle_beta 90.000000
_cell_angle_gamma 90.000000
_cell_volume 7589.021665
_symmetry_space_group_name_H-M "I M M M"
_symmetry_group_IT_number 71
_symmetry_cell_setting 'orthorhombic'
loop_
_space_group_symop_operation_xyz
x,y,z
-x,-y,z
x,-y,-z
-x,y,-z
-x,-y,-z
x,y,-z
-x,y,z
x,-y,z
1/2+x,1/2+y,1/2+z
1/2-x,1/2-y,1/2+z
1/2+x,1/2-y,1/2-z
1/2-x,1/2+y,1/2-z
1/2-x,1/2-y,1/2-z
1/2+x,1/2+y,1/2-z
1/2-x,1/2+y,1/2+z
1/2+x,1/2-y,1/2+z
loop_
_atom_site_type_symbol
_atom_site_label
_atom_site_fract_x
_atom_site_fract_y
_atom_site_fract_z
Si Si1 0.312624 0.383224 0.044329
Si Si2 0.826383 0.000000 0.547287
Si Si3 0.182626 0.441394 0.253932
Si Si4 0.316014 0.334948 0.878086
Si Si5 0.816776 0.941771 0.332698
Si Si6 0.182576 0.167886 0.765092
Si Si7 0.682653 0.773168 0.309201
O O1 0.500000 0.386293 0.044416
O O2 0.257874 0.442507 0.056192
O O3 0.268964 0.340916 0.076978
O O4 0.265817 0.372031 0.000000
O O5 0.837732 0.000000 0.500000
O O6 0.000000 0.000000 0.563613
O O7 0.230003 0.500000 0.268401
O O8 0.236231 0.438571 0.209020
O O9 0.253509 0.390058 0.274135
O O10 0.000000 0.438149 0.255484
O O11 0.500000 0.329298 0.876363
O O12 0.275771 0.391588 0.858567
O O13 0.241767 0.290438 0.851249
O O14 0.000000 0.939465 0.326443
O O15 0.781969 0.000000 0.349963
O O16 0.246520 0.188109 0.723553
O O17 0.225027 0.213721 0.795832
O O18 0.000000 0.165501 0.762209
O O19 0.500000 0.778020 0.307448
#
# Coordination Sequence:
#
# PCOD9517537 Si02
#       7
#    16   8  16  16  16  16  16
#     4   8  14  23  35  53  76  99 125 161 201 240
#     4   7  10  18  32  50  73  97 121 155 199 239
#     4  10  19  29  42  60  81 104 128 156 194 236
#     4  10  18  26  40  59  77  99 131 165 203 245
#     4   9  17  26  35  51  76 102 130 165 200 235
#     4  10  19  31  45  59  76 101 132 162 196 234
#     4  10  20  31  43  58  77 101 129 165 203 237
#
# _framework density 13.704007000000001
#
# number of rings (size 3 to 8) (size 9 to 14) (size 15 to 20)
#    0.000    2.692    1.538    2.308    1.077    2.769 
#    0.000    0.000    0.000    0.462    0.000    0.000 
#    0.000    1.846    0.000    0.000    0.000    0.769 
#
# Total GULP energy -289668.194760 kJ/mol
# GULP energy per Si atom -5570.542207 kJ/mol
# Density = 1.367282 g / cm^3
# Si number density = 13.704007 Si / 1000 Ang^3
#
#
#
# Elastic Constant Matrix: (Units=GPa)
#
#
# Indices 1 2 3 4 5 6 
#
# 1 14.3267 27.7155 16.3566 0.0000 0.0000 0.0000
# 2 27.7155 98.8402 43.5341 0.0000 0.0000 0.0000
# 3 16.3566 43.5341 71.1404 0.0000 0.0000 0.0000
# 4 0.0000 0.0000 0.0000 22.5414 0.0000 0.0000
# 5 0.0000 0.0000 0.0000 0.0000 8.0040 0.0000
# 6 0.0000 0.0000 0.0000 0.0000 0.0000 17.5308
#
#
#
# Elastic Compliance Matrix: (Units=1/GPa)
#
#
# Indices 1 2 3 4 5 6 
#
# 1 0.160675 -0.039404 -0.012829 0.000000 0.000000 0.000000
# 2 -0.039404 0.023514 -0.005329 0.000000 0.000000 0.000000
# 3 -0.012829 -0.005329 0.020268 0.000000 0.000000 0.000000
# 4 0.000000 0.000000 0.000000 0.044363 0.000000 0.000000
# 5 0.000000 0.000000 0.000000 0.000000 0.124937 0.000000
# 6 0.000000 0.000000 0.000000 0.000000 0.000000 0.057042
#
#
# Mechanical properties :
#
#
# Convention : Reuss Voigt Hill
#
# Bulk Modulus (GPa) = 11.19429 39.94663 25.57046
# Shear Modulus (GPa) = 8.68506 16.06199 12.37353
#
# Velocity S-wave (km/s) = 2.52019 3.42726 3.00811
# Velocity P-wave (km/s) = 4.08104 6.69883 5.54658
#
# Compressibility (1/GPa) = 0.08933124
#
# Stress axis : x y z
#
# Youngs Moduli (GPa) = 6.22375 42.52825 49.33935
#
# Poissons Ratio (x) = 1.67577 0.63300
# Poissons Ratio (y) = 0.24524 0.26295
# Poissons Ratio (z) = 0.07985 0.22665
#
# Static dielectric constant tensor:
#      x y z
#    x 1.464470 0.000000 0.000000 
#    y 0.000000 1.474350 0.000000 
#    z 0.000000 0.000000 1.451320 
# 
# From -- ./inp_files/68558.got.cif
#   From: 2010.05.17/outbox.cif.g08.bks.cpg/sg71_35_cif.got.tgz:68558.got - 2010.06.03 16:22:01.
