data_PCOD9517246
_publ_section_title
;
Structure prediction by ZEFSAII (Michael W. Deem and Ramdas Pophale) SiO2 
 PCOD9517246
Probable space group: I M M M
;
_chemical_formula_sum "Si O2"
_cell_formula_units_Z 80
_cell_length_a 27.038726
_cell_length_b 24.744489
_cell_length_c 8.263148
_cell_angle_alpha 90.000000
_cell_angle_beta 90.000000
_cell_angle_gamma 90.000000
_cell_volume 5528.537323
_symmetry_space_group_name_H-M "I M M M"
_symmetry_group_IT_number 71
_symmetry_cell_setting 'orthorhombic'
loop_
_space_group_symop_operation_xyz
x,y,z
-x,-y,z
x,-y,-z
-x,y,-z
-x,-y,-z
x,y,-z
-x,y,z
x,-y,z
1/2+x,1/2+y,1/2+z
1/2-x,1/2-y,1/2+z
1/2+x,1/2-y,1/2-z
1/2-x,1/2+y,1/2-z
1/2-x,1/2-y,1/2-z
1/2+x,1/2+y,1/2-z
1/2-x,1/2+y,1/2+z
1/2+x,1/2-y,1/2+z
loop_
_atom_site_type_symbol
_atom_site_label
_atom_site_fract_x
_atom_site_fract_y
_atom_site_fract_z
Si Si1 0.299357 0.281331 0.806406
Si Si2 0.893486 0.500000 0.696292
Si Si3 0.220130 0.500000 0.804842
Si Si4 0.644524 0.183310 0.307469
Si Si5 0.757155 0.381927 0.197684
Si Si6 0.444003 0.888304 0.194872
O O1 0.250000 0.250000 0.750000
O O2 0.343824 0.245022 0.740530
O O3 0.288047 0.342807 0.753249
O O4 0.301774 0.280418 0.000000
O O5 0.892371 0.500000 0.500000
O O6 0.837578 0.500000 0.758810
O O7 0.921551 0.445774 0.750580
O O8 0.243588 0.443699 0.746227
O O9 0.223377 0.500000 0.000000
O O10 0.644351 0.179707 0.500000
O O11 0.691115 0.146288 0.249326
O O12 0.594035 0.158415 0.242777
O O13 0.757922 0.381985 0.000000
O O14 0.500000 0.880713 0.254433
O O15 0.445669 0.890527 0.000000
#
# Coordination Sequence:
#
# PCOD9517246 Si02
#       6
#    16   8   8  16  16  16
#     4   9  16  27  41  60  81 104 133 167 205 248
#     4  10  19  30  42  58  78 106 142 177 213 251
#     4  10  16  27  43  59  82 110 135 169 206 241
#     4  10  18  29  43  60  78 103 138 175 212 248
#     4   8  15  25  40  59  79 103 133 164 200 243
#     4  10  20  32  44  58  79 108 140 177 218 255
#
# _framework density 14.470373
#
# number of rings (size 3 to 8) (size 9 to 14) (size 15 to 20)
#    0.000    2.600    2.000    2.700    0.000    1.600 
#    0.000    1.000    0.000    1.800    0.000    0.000 
#    0.000    0.000    0.000    0.900    0.000   20.600 
#
# Total GULP energy -222762.554061 kJ/mol
# GULP energy per Si atom -5569.063852 kJ/mol
# Density = 1.443744 g / cm^3
# Si number density = 14.470373 Si / 1000 Ang^3
#
#
#
# Elastic Constant Matrix: (Units=GPa)
#
#
# Indices 1 2 3 4 5 6 
#
# 1 68.2106 68.5184 6.0316 0.0000 0.0000 0.0000
# 2 68.5184 134.5926 8.9812 0.0000 0.0000 0.0000
# 3 6.0316 8.9812 8.9267 0.0000 0.0000 0.0000
# 4 0.0000 0.0000 0.0000 12.4728 0.0000 0.0000
# 5 0.0000 0.0000 0.0000 0.0000 16.6503 0.0000
# 6 0.0000 0.0000 0.0000 0.0000 0.0000 12.4587
#
#
#
# Elastic Compliance Matrix: (Units=1/GPa)
#
#
# Indices 1 2 3 4 5 6 
#
# 1 0.030236 -0.015039 -0.005299 0.000000 0.000000 0.000000
# 2 -0.015039 0.015445 -0.005378 0.000000 0.000000 0.000000
# 3 -0.005299 -0.005378 0.121014 0.000000 0.000000 0.000000
# 4 0.000000 0.000000 0.000000 0.080174 0.000000 0.000000
# 5 0.000000 0.000000 0.000000 0.000000 0.060059 0.000000
# 6 0.000000 0.000000 0.000000 0.000000 0.000000 0.080265
#
#
# Mechanical properties :
#
#
# Convention : Reuss Voigt Hill
#
# Bulk Modulus (GPa) = 8.67576 42.08806 25.38191
# Shear Modulus (GPa) = 10.48120 16.86294 13.67207
#
# Velocity S-wave (km/s) = 2.69424 3.41741 3.07715
# Velocity P-wave (km/s) = 3.96070 6.68734 5.49580
#
# Compressibility (1/GPa) = 0.11526362
#
# Stress axis : x y z
#
# Youngs Moduli (GPa) = 33.07350 64.74752 8.26351
#
# Poissons Ratio (x) = 0.97372 0.04379
# Poissons Ratio (y) = 0.49739 0.04444
# Poissons Ratio (z) = 0.17526 0.34818
#
# Static dielectric constant tensor:
#      x y z
#    x 1.454790 0.000000 0.000000 
#    y 0.000000 1.513250 0.000000 
#    z 0.000000 0.000000 1.499810 
# 
# From -- ./inp_files/12753.got.cif
#   From: 2010.05.17/outbox.cif.g08.bks.cpg/sg71_7_cif.got.tgz:12753.got - 2010.06.03 16:22:01.
