data_PCOD9517221
_publ_section_title
;
Structure prediction by ZEFSAII (Michael W. Deem and Ramdas Pophale) SiO2 
 PCOD9517221
Probable space group: I M M M
;
_chemical_formula_sum "Si O2"
_cell_formula_units_Z 88
_cell_length_a 26.732193
_cell_length_b 8.679770
_cell_length_c 28.711389
_cell_angle_alpha 90.000000
_cell_angle_beta 90.000000
_cell_angle_gamma 90.000000
_cell_volume 6661.883114
_symmetry_space_group_name_H-M "I M M M"
_symmetry_group_IT_number 71
_symmetry_cell_setting 'orthorhombic'
loop_
_space_group_symop_operation_xyz
x,y,z
-x,-y,z
x,-y,-z
-x,y,-z
-x,-y,-z
x,y,-z
-x,y,z
x,-y,z
1/2+x,1/2+y,1/2+z
1/2-x,1/2-y,1/2+z
1/2+x,1/2-y,1/2-z
1/2-x,1/2+y,1/2-z
1/2-x,1/2-y,1/2-z
1/2+x,1/2+y,1/2-z
1/2-x,1/2+y,1/2+z
1/2+x,1/2-y,1/2+z
loop_
_atom_site_type_symbol
_atom_site_label
_atom_site_fract_x
_atom_site_fract_y
_atom_site_fract_z
Si Si1 0.098735 0.814712 0.600973
Si Si2 0.749083 0.316398 0.640911
Si Si3 0.204545 0.185552 0.445788
Si Si4 0.000000 0.315854 0.553596
Si Si5 0.151959 0.184512 0.308320
Si Si6 0.799740 0.316236 0.775753
O O1 0.148896 0.769570 0.572335
O O2 0.108108 0.774889 0.655376
O O3 0.049610 0.742343 0.579305
O O4 0.095153 0.000000 0.598037
O O5 0.751028 0.500000 0.645162
O O6 0.754595 0.263980 0.587623
O O7 0.798462 0.241426 0.664458
O O8 0.703766 0.251241 0.672193
O O9 0.209893 0.223869 0.500000
O O10 0.208165 0.000000 0.440373
O O11 0.000000 0.500000 0.553278
O O12 0.000000 0.260217 0.500000
O O13 0.155287 0.260482 0.257523
O O14 0.154165 0.000000 0.303625
O O15 0.797057 0.500000 0.776614
O O16 0.750000 0.250000 0.750000
#
# Coordination Sequence:
#
# PCOD9517221 Si02
#       6
#    16  16  16   8  16  16
#     4   9  18  31  45  56  67  88 117 148 185 230
#     4  10  17  24  35  52  73  94 115 140 171 208
#     4   9  17  29  42  54  69  91 120 153 186 219
#     4  11  23  33  41  55  73  91 115 153 194 227
#     4   9  16  27  40  54  70  87 110 140 176 216
#     4  10  16  23  36  53  72  92 112 135 168 208
#
# _framework density 13.209479
#
# number of rings (size 3 to 8) (size 9 to 14) (size 15 to 20)
#    0.000    2.455    0.000    7.909    0.000    5.455 
#    0.000    0.000    0.000    0.000    0.000    0.000 
#    0.000    0.000    0.000    0.000    0.000    0.000 
#
# Total GULP energy -244967.373641 kJ/mol
# GULP energy per Si atom -5567.440310 kJ/mol
# Density = 1.317941 g / cm^3
# Si number density = 13.209479 Si / 1000 Ang^3
#
#
#
# Elastic Constant Matrix: (Units=GPa)
#
#
# Indices 1 2 3 4 5 6 
#
# 1 34.4284 18.6222 48.6985 0.0000 0.0000 0.0000
# 2 18.6222 46.8222 38.7038 0.0000 0.0000 0.0000
# 3 48.6985 38.7038 116.5686 0.0000 0.0000 0.0000
# 4 0.0000 0.0000 0.0000 22.4975 0.0000 0.0000
# 5 0.0000 0.0000 0.0000 0.0000 20.9077 0.0000
# 6 0.0000 0.0000 0.0000 0.0000 0.0000 12.8580
#
#
#
# Elastic Compliance Matrix: (Units=1/GPa)
#
#
# Indices 1 2 3 4 5 6 
#
# 1 0.071908 -0.005192 -0.028317 0.000000 0.000000 0.000000
# 2 -0.005192 0.029811 -0.007729 0.000000 0.000000 0.000000
# 3 -0.028317 -0.007729 0.022975 0.000000 0.000000 0.000000
# 4 0.000000 0.000000 0.000000 0.044449 0.000000 0.000000
# 5 0.000000 0.000000 0.000000 0.000000 0.047829 0.000000
# 6 0.000000 0.000000 0.000000 0.000000 0.000000 0.077773
#
#
# Mechanical properties :
#
#
# Convention : Reuss Voigt Hill
#
# Bulk Modulus (GPa) = 23.68665 45.54090 34.61378
# Shear Modulus (GPa) = 12.77811 17.37228 15.07520
#
# Velocity S-wave (km/s) = 3.11359 3.63042 3.38189
# Velocity P-wave (km/s) = 5.55845 7.21970 6.44284
#
# Compressibility (1/GPa) = 0.04221787
#
# Stress axis : x y z
#
# Youngs Moduli (GPa) = 13.90667 33.54427 43.52623
#
# Poissons Ratio (x) = 0.17417 1.23252
# Poissons Ratio (y) = 0.07221 0.33641
# Poissons Ratio (z) = 0.39379 0.25926
#
# Static dielectric constant tensor:
#      x y z
#    x 1.414190 0.000000 0.000000 
#    y 0.000000 1.439040 0.000000 
#    z 0.000000 0.000000 1.491170 
# 
# From -- ./inp_files/15690.got.cif
#   From: 2010.05.17/outbox.cif.g08.bks.cpg/sg71_8_cif.got.tgz:15690.got - 2010.06.03 16:22:01.
