data_PCOD9517845
_publ_section_title
;
Structure prediction by ZEFSAII (Michael W. Deem and Ramdas Pophale) SiO2 
 PCOD9517845
Probable space group: I M M M
;
_chemical_formula_sum "Si O2"
_cell_formula_units_Z 88
_cell_length_a 13.897133
_cell_length_b 25.167817
_cell_length_c 15.369741
_cell_angle_alpha 90.000000
_cell_angle_beta 90.000000
_cell_angle_gamma 90.000000
_cell_volume 5375.728300
_symmetry_space_group_name_H-M "I M M M"
_symmetry_group_IT_number 71
_symmetry_cell_setting 'orthorhombic'
loop_
_space_group_symop_operation_xyz
x,y,z
-x,-y,z
x,-y,-z
-x,y,-z
-x,-y,-z
x,y,-z
-x,y,z
x,-y,z
1/2+x,1/2+y,1/2+z
1/2-x,1/2-y,1/2+z
1/2+x,1/2-y,1/2-z
1/2-x,1/2+y,1/2-z
1/2-x,1/2-y,1/2-z
1/2+x,1/2+y,1/2-z
1/2-x,1/2+y,1/2+z
1/2+x,1/2-y,1/2+z
loop_
_atom_site_type_symbol
_atom_site_label
_atom_site_fract_x
_atom_site_fract_y
_atom_site_fract_z
Si Si1 0.257699 0.401018 0.599546
Si Si2 0.613847 0.149901 0.774353
Si Si3 0.390469 0.698265 0.367086
Si Si4 0.804813 0.687327 0.095443
Si Si5 0.390819 0.728243 0.833669
Si Si6 0.889882 0.000000 0.105436
O O1 0.226571 0.411697 0.500000
O O2 0.169831 0.391164 0.664745
O O3 0.319465 0.346855 0.600658
O O4 0.328898 0.447950 0.629367
O O5 0.500000 0.140372 0.769342
O O6 0.658584 0.153746 0.677786
O O7 0.626950 0.208965 0.816706
O O8 0.500000 0.686156 0.391651
O O9 0.361564 0.756629 0.399351
O O10 0.384724 0.702100 0.262162
O O11 0.693401 0.703217 0.109715
O O12 0.819599 0.663537 0.000000
O O13 0.500000 0.721928 0.866598
O O14 0.000000 0.000000 0.137964
O O15 0.895339 0.000000 0.000000
#
# Coordination Sequence:
#
# PCOD9517845 Si02
#       6
#    16  16  16  16  16   8
#     4  11  20  33  52  73  99 130 164 202 247 298
#     4  10  20  34  49  69 100 133 170 209 245 291
#     4  10  18  29  47  69  97 133 169 201 237 287
#     4  11  19  30  47  71 104 136 169 205 242 284
#     4   9  17  30  46  67 100 135 168 207 243 282
#     4   9  20  36  53  77 104 125 155 207 259 299
#
# _framework density 16.369875
#
# number of rings (size 3 to 8) (size 9 to 14) (size 15 to 20)
#    0.000    1.909    3.636    3.818    0.000    4.000 
#    0.000    2.273    0.000    1.636    0.000    0.636 
#    0.000    2.182    0.000    0.000    0.000    0.000 
#
# Total GULP energy -245471.666101 kJ/mol
# GULP energy per Si atom -5578.901502 kJ/mol
# Density = 1.633262 g / cm^3
# Si number density = 16.369875 Si / 1000 Ang^3
#
#
#
# Elastic Constant Matrix: (Units=GPa)
#
#
# Indices 1 2 3 4 5 6 
#
# 1 120.7715 23.7105 55.9287 0.0000 0.0000 0.0000
# 2 23.7105 38.6847 25.9783 -0.0001 0.0000 0.0000
# 3 55.9287 25.9783 83.4819 -0.0002 0.0000 0.0000
# 4 0.0000 -0.0001 -0.0002 8.6596 0.0000 0.0000
# 5 0.0000 0.0000 0.0000 0.0000 7.5219 0.0000
# 6 0.0000 0.0000 0.0000 0.0000 0.0000 18.4238
#
#
#
# Elastic Compliance Matrix: (Units=1/GPa)
#
#
# Indices 1 2 3 4 5 6 
#
# 1 0.012195 -0.002513 -0.007388 0.000000 0.000000 0.000000
# 2 -0.002513 0.033197 -0.008647 0.000000 0.000000 0.000000
# 3 -0.007388 -0.008647 0.019619 0.000000 0.000000 0.000000
# 4 0.000000 0.000000 0.000000 0.115478 0.000000 0.000000
# 5 0.000000 0.000000 0.000000 0.000000 0.132945 0.000000
# 6 0.000000 0.000000 0.000000 0.000000 0.000000 0.054278
#
#
# Mechanical properties :
#
#
# Convention : Reuss Voigt Hill
#
# Bulk Modulus (GPa) = 35.82278 50.46366 43.14322
# Shear Modulus (GPa) = 12.07403 16.07578 14.07491
#
# Velocity S-wave (km/s) = 2.71878 3.13714 2.93542
# Velocity P-wave (km/s) = 5.63796 6.63448 6.15641
#
# Compressibility (1/GPa) = 0.02791520
#
# Stress axis : x y z
#
# Youngs Moduli (GPa) = 82.00251 30.12328 50.97149
#
# Poissons Ratio (x) = 0.07570 0.37657
# Poissons Ratio (y) = 0.20608 0.44073
# Poissons Ratio (z) = 0.60582 0.26047
#
# Static dielectric constant tensor:
#      x y z
#    x 1.572520 0.000000 0.000000 
#    y 0.000000 1.518390 0.000000 
#    z 0.000000 0.000000 1.571890 
# 
# From -- ./inp_files/34396.got.cif
#   From: 2010.05.17/outbox.cif.g08.bks.cpg/sg71_18_cif.got.tgz:34396.got - 2010.06.03 16:22:01.
