data_PCOD9517386
_publ_section_title
;
Structure prediction by ZEFSAII (Michael W. Deem and Ramdas Pophale) SiO2 
 PCOD9517386
Probable space group: I M M M
;
_chemical_formula_sum "Si O2"
_cell_formula_units_Z 112
_cell_length_a 13.493638
_cell_length_b 20.463274
_cell_length_c 20.391964
_cell_angle_alpha 90.000000
_cell_angle_beta 90.000000
_cell_angle_gamma 90.000000
_cell_volume 5630.710905
_symmetry_space_group_name_H-M "I M M M"
_symmetry_group_IT_number 71
_symmetry_cell_setting 'orthorhombic'
loop_
_space_group_symop_operation_xyz
x,y,z
-x,-y,z
x,-y,-z
-x,y,-z
-x,-y,-z
x,y,-z
-x,y,z
x,-y,z
1/2+x,1/2+y,1/2+z
1/2-x,1/2-y,1/2+z
1/2+x,1/2-y,1/2-z
1/2-x,1/2+y,1/2-z
1/2-x,1/2-y,1/2-z
1/2+x,1/2+y,1/2-z
1/2-x,1/2+y,1/2+z
1/2+x,1/2-y,1/2+z
loop_
_atom_site_type_symbol
_atom_site_label
_atom_site_fract_x
_atom_site_fract_y
_atom_site_fract_z
Si Si1 0.385131 0.212817 0.759533
Si Si2 0.117361 0.393170 0.570454
Si Si3 0.392725 0.604568 0.076549
Si Si4 0.172870 0.571964 0.079747
Si Si5 0.120773 0.430707 0.286337
Si Si6 0.392395 0.214231 0.390107
Si Si7 0.322959 0.747212 0.103474
O O1 0.500000 0.210781 0.782946
O O2 0.346953 0.138021 0.756399
O O3 0.388672 0.237223 0.685569
O O4 0.328493 0.250622 0.816791
O O5 0.159283 0.413877 0.500000
O O6 0.152639 0.425970 0.637407
O O7 0.133467 0.315493 0.579233
O O8 0.000000 0.405802 0.568890
O O9 0.500000 0.585789 0.105512
O O10 0.288097 0.577300 0.102060
O O11 0.380745 0.683022 0.080997
O O12 0.395030 0.585831 0.000000
O O13 0.133354 0.500000 0.096563
O O14 0.116405 0.635185 0.106549
O O15 0.171201 0.577528 0.000000
O O16 0.154933 0.500000 0.258133
O O17 0.000000 0.430797 0.283439
O O18 0.500000 0.232626 0.417601
O O19 0.290444 0.240057 0.420059
#
# Coordination Sequence:
#
# PCOD9517386 Si02
#       7
#    16  16  16  16  16  16  16
#     4   9  17  29  45  65  87 111 139 171 209 252
#     4   9  16  25  40  63  89 116 142 167 199 243
#     4   9  16  26  44  69  92 114 140 171 210 256
#     4   9  19  34  48  63  84 110 142 180 220 259
#     4   8  14  24  38  59  88 117 139 160 190 232
#     4  10  21  33  45  62  82 108 144 181 214 250
#     4  10  17  28  44  62  88 115 141 172 209 251
#
# _framework density 19.890916000000001
#
# number of rings (size 3 to 8) (size 9 to 14) (size 15 to 20)
#    0.000    2.857    0.000    3.000    0.000    3.429 
#    0.000    5.000    0.000    0.000    0.000    0.000 
#    0.000    9.143    0.000    5.143    0.000    0.571 
#
# Total GULP energy -311965.213898 kJ/mol
# GULP energy per Si atom -5570.807391 kJ/mol
# Density = 1.984564 g / cm^3
# Si number density = 19.890916 Si / 1000 Ang^3
#
#
#
# Elastic Constant Matrix: (Units=GPa)
#
#
# Indices 1 2 3 4 5 6 
#
# 1 80.1132 -7.9684 -1.2167 0.0000 0.0000 0.0000
# 2 -7.9684 43.4465 -8.7339 0.0000 0.0000 0.0000
# 3 -1.2167 -8.7339 61.3584 0.0000 0.0000 0.0000
# 4 0.0000 0.0000 0.0000 -13.1202 0.0000 0.0000
# 5 0.0000 0.0000 0.0000 0.0000 9.3800 0.0000
# 6 0.0000 0.0000 0.0000 0.0000 0.0000 4.2198
#
#
#
# Elastic Compliance Matrix: (Units=1/GPa)
#
#
# Indices 1 2 3 4 5 6 
#
# 1 0.012736 0.002457 0.000602 0.000000 0.000000 0.000000
# 2 0.002457 0.024169 0.003489 0.000000 0.000000 0.000000
# 3 0.000602 0.003489 0.016806 0.000000 0.000000 0.000000
# 4 0.000000 0.000000 0.000000 -0.076218 0.000000 0.000000
# 5 0.000000 0.000000 0.000000 0.000000 0.106610 0.000000
# 6 0.000000 0.000000 0.000000 0.000000 0.000000 0.236977
#
#
# Mechanical properties :
#
#
# Convention : Reuss Voigt Hill
#
# Bulk Modulus (GPa) = 14.96843 16.56445 15.76644
# Shear Modulus (GPa) = 15.13992 13.61839 14.37916
#
# Velocity S-wave (km/s) = 2.76188 2.61943 2.69160
# Velocity P-wave (km/s) = 4.20859 4.18261 4.19562
#
# Compressibility (1/GPa) = 0.06680725
#
# Stress axis : x y z
#
# Youngs Moduli (GPa) = 78.51846 41.37564 59.50166
#
# Poissons Ratio (x) = -0.10166 -0.03584
# Poissons Ratio (y) = -0.19291 -0.20760
# Poissons Ratio (z) = -0.04729 -0.14436
#
# Static dielectric constant tensor:
#      x y z
#    x 1.726780 0.000000 0.000000 
#    y 0.000000 1.711570 0.000000 
#    z 0.000000 0.000000 1.767510 
# 
# From -- ./inp_files/59050.got.cif
#   From: 2010.05.17/outbox.cif.g08.bks.cpg/sg71_30_cif.got.tgz:59050.got - 2010.06.03 16:22:01.
