data_PCOD9517300
_publ_section_title
;
Structure prediction by ZEFSAII (Michael W. Deem and Ramdas Pophale) SiO2 
 PCOD9517300
Probable space group: I M M M
;
_chemical_formula_sum "Si O2"
_cell_formula_units_Z 96
_cell_length_a 29.941175
_cell_length_b 8.287378
_cell_length_c 27.615762
_cell_angle_alpha 90.000000
_cell_angle_beta 90.000000
_cell_angle_gamma 90.000000
_cell_volume 6852.404931
_symmetry_space_group_name_H-M "I M M M"
_symmetry_group_IT_number 71
_symmetry_cell_setting 'orthorhombic'
loop_
_space_group_symop_operation_xyz
x,y,z
-x,-y,z
x,-y,-z
-x,y,-z
-x,-y,-z
x,y,-z
-x,y,z
x,-y,z
1/2+x,1/2+y,1/2+z
1/2-x,1/2-y,1/2+z
1/2+x,1/2-y,1/2-z
1/2-x,1/2+y,1/2-z
1/2-x,1/2-y,1/2-z
1/2+x,1/2+y,1/2-z
1/2-x,1/2+y,1/2+z
1/2+x,1/2-y,1/2+z
loop_
_atom_site_type_symbol
_atom_site_label
_atom_site_fract_x
_atom_site_fract_y
_atom_site_fract_z
Si Si1 0.777135 0.305448 0.202563
Si Si2 0.139787 0.306768 0.257339
Si Si3 0.358312 0.693289 0.053591
Si Si4 0.050202 0.308669 0.596116
Si Si5 0.306020 0.304046 0.147466
Si Si6 0.449853 0.308478 0.794541
O O1 0.778148 0.500000 0.201484
O O2 0.750000 0.250000 0.250000
O O3 0.827685 0.250814 0.213558
O O4 0.745160 0.252870 0.158525
O O5 0.137857 0.500000 0.256761
O O6 0.163726 0.253504 0.307480
O O7 0.089916 0.239833 0.259084
O O8 0.352832 0.500000 0.052561
O O9 0.409555 0.729302 0.067170
O O10 0.327209 0.754977 0.097301
O O11 0.348041 0.757230 0.000000
O O12 0.051674 0.500000 0.587985
O O13 0.057028 0.274761 0.653267
O O14 0.000000 0.250178 0.583928
O O15 0.307522 0.500000 0.147729
O O16 0.500000 0.266952 0.777774
O O17 0.447828 0.500000 0.802953
#
# Coordination Sequence:
#
# PCOD9517300 Si02
#       6
#    16  16  16  16  16  16
#     4   8  15  25  38  57  76  95 118 146 181 219
#     4  10  17  25  40  60  78  94 119 153 186 220
#     4  10  20  31  43  58  74  96 126 158 192 229
#     4  10  20  32  44  56  70  91 122 162 203 235
#     4   9  16  28  42  54  74 100 123 150 185 224
#     4  10  19  29  41  56  75 100 126 151 185 229
#
# _framework density 14.009679999999999
#
# number of rings (size 3 to 8) (size 9 to 14) (size 15 to 20)
#    0.000    2.500    1.667    1.500    0.000    3.333 
#    0.000    1.667    0.000    0.000    0.000    0.000 
#    0.000    0.000    0.000    0.000    0.000    0.833 
#
# Total GULP energy -267277.406423 kJ/mol
# GULP energy per Si atom -5568.279300 kJ/mol
# Density = 1.397779 g / cm^3
# Si number density = 14.009680 Si / 1000 Ang^3
#
#
#
# Elastic Constant Matrix: (Units=GPa)
#
#
# Indices 1 2 3 4 5 6 
#
# 1 92.0134 4.3519 49.0212 0.0000 0.0000 0.0000
# 2 4.3519 7.2526 3.8297 0.0000 0.0000 0.0000
# 3 49.0212 3.8297 54.1891 0.0000 0.0000 0.0000
# 4 0.0000 0.0000 0.0000 8.5727 0.0000 0.0000
# 5 0.0000 0.0000 0.0000 0.0000 15.6587 0.0000
# 6 0.0000 0.0000 0.0000 0.0000 0.0000 17.3077
#
#
#
# Elastic Compliance Matrix: (Units=1/GPa)
#
#
# Indices 1 2 3 4 5 6 
#
# 1 0.021029 -0.002673 -0.018834 0.000000 0.000000 0.000000
# 2 -0.002673 0.143567 -0.007728 0.000000 0.000000 0.000000
# 3 -0.018834 -0.007728 0.036038 0.000000 0.000000 0.000000
# 4 0.000000 0.000000 0.000000 0.116650 0.000000 0.000000
# 5 0.000000 0.000000 0.000000 0.000000 0.063862 0.000000
# 6 0.000000 0.000000 0.000000 0.000000 0.000000 0.057778
#
#
# Mechanical properties :
#
#
# Convention : Reuss Voigt Hill
#
# Bulk Modulus (GPa) = 7.03421 29.76232 18.39826
# Shear Modulus (GPa) = 9.17799 14.72462 11.95130
#
# Velocity S-wave (km/s) = 2.56230 3.24548 2.92391
# Velocity P-wave (km/s) = 3.71291 5.94428 4.95581
#
# Compressibility (1/GPa) = 0.14216244
#
# Stress axis : x y z
#
# Youngs Moduli (GPa) = 47.55437 6.96540 27.74838
#
# Poissons Ratio (x) = 0.01862 0.52262
# Poissons Ratio (y) = 0.12711 0.21445
# Poissons Ratio (z) = 0.89565 0.05383
#
# Static dielectric constant tensor:
#      x y z
#    x 1.501810 0.000000 0.000000 
#    y 0.000000 1.487150 0.000000 
#    z 0.000000 0.000000 1.451790 
# 
# From -- ./inp_files/15462.got.cif
#   From: 2010.05.17/outbox.cif.g08.bks.cpg/sg71_8_cif.got.tgz:15462.got - 2010.06.03 16:22:01.
