data_PCOD9517516
_publ_section_title
;
Structure prediction by ZEFSAII (Michael W. Deem and Ramdas Pophale) SiO2 
 PCOD9517516
Probable space group: I M M M
;
_chemical_formula_sum "Si O2"
_cell_formula_units_Z 96
_cell_length_a 14.234242
_cell_length_b 20.208661
_cell_length_c 13.387158
_cell_angle_alpha 90.000000
_cell_angle_beta 90.000000
_cell_angle_gamma 90.000000
_cell_volume 3850.882549
_symmetry_space_group_name_H-M "I M M M"
_symmetry_group_IT_number 71
_symmetry_cell_setting 'orthorhombic'
loop_
_space_group_symop_operation_xyz
x,y,z
-x,-y,z
x,-y,-z
-x,y,-z
-x,-y,-z
x,y,-z
-x,y,z
x,-y,z
1/2+x,1/2+y,1/2+z
1/2-x,1/2-y,1/2+z
1/2+x,1/2-y,1/2-z
1/2-x,1/2+y,1/2-z
1/2-x,1/2-y,1/2-z
1/2+x,1/2+y,1/2-z
1/2-x,1/2+y,1/2+z
1/2+x,1/2-y,1/2+z
loop_
_atom_site_type_symbol
_atom_site_label
_atom_site_fract_x
_atom_site_fract_y
_atom_site_fract_z
Si Si1 0.630525 0.208633 0.884182
Si Si2 0.678848 0.868252 0.381142
Si Si3 0.856140 0.781773 0.882736
Si Si4 0.137366 0.430116 0.690497
Si Si5 0.645298 0.572562 0.620794
Si Si6 0.600643 0.353280 0.878188
O O1 0.743383 0.210635 0.876238
O O2 0.597567 0.138189 0.848494
O O3 0.597567 0.277643 0.838880
O O4 0.607243 0.212922 0.000000
O O5 0.667405 0.875225 0.500000
O O6 0.636271 0.795664 0.350494
O O7 0.633967 0.922417 0.309948
O O8 0.791501 0.873979 0.357271
O O9 0.891556 0.854479 0.845334
O O10 0.883725 0.779831 0.000000
O O11 0.098823 0.500000 0.656853
O O12 0.245565 0.429466 0.652331
O O13 0.638875 0.573705 0.500000
O O14 0.606655 0.500000 0.653476
O O15 0.500000 0.386402 0.851311
O O16 0.600702 0.352644 0.000000
#
# Coordination Sequence:
#
# PCOD9517516 Si02
#       6
#    16  16  16  16  16  16
#     4   8  14  24  39  61  86 106 128 164 206 252
#     4   9  17  27  38  55  81 110 141 177 208 239
#     4   7  11  20  32  47  68  95 124 151 185 226
#     4  10  18  25  36  55  81 114 143 167 207 255
#     4   8  13  21  33  51  76 101 124 152 187 237
#     4   8  14  26  44  63  82 107 139 172 209 254
#
# _framework density 24.929352000000002
#
# number of rings (size 3 to 8) (size 9 to 14) (size 15 to 20)
#    0.000    3.667    0.000    3.500    0.000    7.333 
#    0.000    0.000    0.000    1.000    0.000    4.667 
#    0.000    6.000    0.000   11.000    0.000    0.000 
#
# Total GULP energy -267229.334458 kJ/mol
# GULP energy per Si atom -5567.277801 kJ/mol
# Density = 2.487261 g / cm^3
# Si number density = 24.929352 Si / 1000 Ang^3
#
#
#
# Elastic Constant Matrix: (Units=GPa)
#
#
# Indices 1 2 3 4 5 6 
#
# 1 72.5276 2.0958 -3.4207 0.0000 0.0000 0.0000
# 2 2.0958 126.3213 12.7017 0.0000 0.0000 0.0000
# 3 -3.4207 12.7017 37.2629 0.0002 -0.0001 0.0000
# 4 0.0000 0.0000 0.0002 24.8875 0.0000 0.0000
# 5 0.0000 0.0000 -0.0001 0.0000 -30.8993 0.0000
# 6 0.0000 0.0000 0.0000 0.0000 0.0000 -12.9674
#
#
#
# Elastic Compliance Matrix: (Units=1/GPa)
#
#
# Indices 1 2 3 4 5 6 
#
# 1 0.013865 -0.000371 0.001399 0.000000 0.000000 0.000000
# 2 -0.000371 0.008207 -0.002832 0.000000 0.000000 0.000000
# 3 0.001399 -0.002832 0.027930 0.000000 0.000000 0.000000
# 4 0.000000 0.000000 0.000000 0.040181 0.000000 0.000000
# 5 0.000000 0.000000 0.000000 0.000000 -0.032363 0.000000
# 6 0.000000 0.000000 0.000000 0.000000 0.000000 -0.077116
#
#
# Mechanical properties :
#
#
# Convention : Reuss Voigt Hill
#
# Bulk Modulus (GPa) = 21.55389 28.76282 25.15836
# Shear Modulus (GPa) = -22171.10873 11.18648 -11079.96113
#
# Velocity S-wave (km/s) = -94.40807 2.12062 -66.73974
# Velocity P-wave (km/s) = 108.97330 4.19032 76.99877
#
# Compressibility (1/GPa) = 0.04639533
#
# Stress axis : x y z
#
# Youngs Moduli (GPa) = 72.12635 121.84432 35.80381
#
# Poissons Ratio (x) = 0.04517 -0.05009
# Poissons Ratio (y) = 0.02674 0.10138
# Poissons Ratio (z) = -0.10091 0.34501
#
# Static dielectric constant tensor:
#      x y z
#    x 1.922020 0.000000 0.000000 
#    y 0.000000 1.977320 0.000000 
#    z 0.000000 0.000000 1.999990 
# 
# From -- ./inp_files/38213.got.cif
#   From: 2010.05.17/outbox.cif.g08.bks.cpg/sg71_20_cif.got.tgz:38213.got - 2010.06.03 16:22:01.
