data_PCOD9517694
_publ_section_title
;
Structure prediction by ZEFSAII (Michael W. Deem and Ramdas Pophale) SiO2 
 PCOD9517694
Probable space group: I M M M
;
_chemical_formula_sum "Si O2"
_cell_formula_units_Z 104
_cell_length_a 7.799860
_cell_length_b 29.696699
_cell_length_c 24.822489
_cell_angle_alpha 90.000000
_cell_angle_beta 90.000000
_cell_angle_gamma 90.000000
_cell_volume 5749.635477
_symmetry_space_group_name_H-M "I M M M"
_symmetry_group_IT_number 71
_symmetry_cell_setting 'orthorhombic'
loop_
_space_group_symop_operation_xyz
x,y,z
-x,-y,z
x,-y,-z
-x,y,-z
-x,-y,-z
x,y,-z
-x,y,z
x,-y,z
1/2+x,1/2+y,1/2+z
1/2-x,1/2-y,1/2+z
1/2+x,1/2-y,1/2-z
1/2-x,1/2+y,1/2-z
1/2-x,1/2-y,1/2-z
1/2+x,1/2+y,1/2-z
1/2-x,1/2+y,1/2+z
1/2+x,1/2-y,1/2+z
loop_
_atom_site_type_symbol
_atom_site_label
_atom_site_fract_x
_atom_site_fract_y
_atom_site_fract_z
Si Si1 0.709688 0.448411 0.356121
Si Si2 0.704642 0.373212 0.561531
Si Si3 0.704885 0.089849 0.376798
Si Si4 0.705851 0.177770 0.438073
Si Si5 0.293498 0.448765 0.765872
Si Si6 0.295973 0.224560 0.938488
Si Si7 0.709933 0.000000 0.562562
O O1 0.500000 0.447750 0.356572
O O2 0.760539 0.500000 0.367931
O O3 0.771433 0.412327 0.399597
O O4 0.763177 0.437423 0.294810
O O5 0.773455 0.375338 0.500000
O O6 0.500000 0.379005 0.558042
O O7 0.736434 0.323129 0.584528
O O8 0.500000 0.090005 0.384346
O O9 0.771493 0.135835 0.403276
O O10 0.738830 0.083714 0.313683
O O11 0.770239 0.045148 0.407371
O O12 0.771267 0.175316 0.500000
O O13 0.500000 0.174440 0.440719
O O14 0.746125 0.227192 0.414748
O O15 0.500000 0.449772 0.765281
O O16 0.233418 0.500000 0.777946
O O17 0.500000 0.223083 0.940767
O O18 0.225166 0.225312 0.000000
O O19 0.500000 0.000000 0.564173
O O20 0.759504 0.000000 0.500000
#
# Coordination Sequence:
#
# PCOD9517694 Si02
#       7
#    16  16  16  16  16  16   8
#     4   8  15  28  46  69  95 122 151 182 218 263
#     4   9  16  27  47  73  96 118 146 182 222 263
#     4  10  18  28  45  67  89 115 150 192 228 265
#     4   9  17  29  45  66  90 116 149 188 229 270
#     4   9  17  30  46  62  86 122 158 186 217 262
#     4   9  17  29  45  65  91 122 151 180 219 270
#     4   9  16  26  41  63  91 119 144 177 228 278
#
# _framework density 18.088104000000001
#
# number of rings (size 3 to 8) (size 9 to 14) (size 15 to 20)
#    0.000    3.000    0.769    1.846    0.000    4.615 
#    0.000    2.308    0.000    4.154    0.000    2.154 
#    0.000    0.000    0.000    0.000    0.000    0.000 
#
# Total GULP energy -289701.831418 kJ/mol
# GULP energy per Si atom -5571.189066 kJ/mol
# Density = 1.804693 g / cm^3
# Si number density = 18.088104 Si / 1000 Ang^3
#
#
#
# Elastic Constant Matrix: (Units=GPa)
#
#
# Indices 1 2 3 4 5 6 
#
# 1 21.6773 5.4218 3.9776 0.0000 0.0000 0.0000
# 2 5.4218 177.1384 95.4028 0.0000 0.0000 0.0000
# 3 3.9776 95.4028 96.3326 0.0000 0.0000 0.0000
# 4 0.0000 0.0000 0.0000 11.6056 0.0000 0.0000
# 5 0.0000 0.0000 0.0000 0.0000 9.8856 0.0000
# 6 0.0000 0.0000 0.0000 0.0000 0.0000 3.2678
#
#
#
# Elastic Compliance Matrix: (Units=1/GPa)
#
#
# Indices 1 2 3 4 5 6 
#
# 1 0.046541 -0.000835 -0.001095 0.000000 0.000000 0.000000
# 2 -0.000835 0.012113 -0.011962 0.000000 0.000000 0.000000
# 3 -0.001095 -0.011962 0.022272 0.000000 0.000000 0.000000
# 4 0.000000 0.000000 0.000000 0.086165 0.000000 0.000000
# 5 0.000000 0.000000 0.000000 0.000000 0.101157 0.000000
# 6 0.000000 0.000000 0.000000 0.000000 0.000000 0.306012
#
#
# Mechanical properties :
#
#
# Convention : Reuss Voigt Hill
#
# Bulk Modulus (GPa) = 18.81707 56.08363 37.45035
# Shear Modulus (GPa) = 8.06765 17.64156 12.85461
#
# Velocity S-wave (km/s) = 2.11421 3.12639 2.66872
# Velocity P-wave (km/s) = 4.04789 6.64120 5.49959
#
# Compressibility (1/GPa) = 0.05314323
#
# Stress axis : x y z
#
# Youngs Moduli (GPa) = 21.48651 82.55428 44.89879
#
# Poissons Ratio (x) = 0.06892 0.04916
# Poissons Ratio (y) = 0.01794 0.53707
# Poissons Ratio (z) = 0.02353 0.98750
#
# Static dielectric constant tensor:
#      x y z
#    x 1.663930 0.000000 0.000000 
#    y 0.000000 1.636030 0.000000 
#    z 0.000000 0.000000 1.614420 
# 
# From -- ./inp_files/13598.got.cif
#   From: 2010.05.17/outbox.cif.g08.bks.cpg/sg71_7_cif.got.tgz:13598.got - 2010.06.03 16:22:01.
