data_PCOD9517736
_publ_section_title
;
Structure prediction by ZEFSAII (Michael W. Deem and Ramdas Pophale) SiO2 
 PCOD9517736
Probable space group: I M M M
;
_chemical_formula_sum "Si O2"
_cell_formula_units_Z 88
_cell_length_a 8.414632
_cell_length_b 27.741691
_cell_length_c 20.124145
_cell_angle_alpha 90.000000
_cell_angle_beta 90.000000
_cell_angle_gamma 90.000000
_cell_volume 4697.702344
_symmetry_space_group_name_H-M "I M M M"
_symmetry_group_IT_number 71
_symmetry_cell_setting 'orthorhombic'
loop_
_space_group_symop_operation_xyz
x,y,z
-x,-y,z
x,-y,-z
-x,y,-z
-x,-y,-z
x,y,-z
-x,y,z
x,-y,z
1/2+x,1/2+y,1/2+z
1/2-x,1/2-y,1/2+z
1/2+x,1/2-y,1/2-z
1/2-x,1/2+y,1/2-z
1/2-x,1/2-y,1/2-z
1/2+x,1/2+y,1/2-z
1/2-x,1/2+y,1/2+z
1/2+x,1/2-y,1/2+z
loop_
_atom_site_type_symbol
_atom_site_label
_atom_site_fract_x
_atom_site_fract_y
_atom_site_fract_z
Si Si1 0.807879 0.394872 0.390344
Si Si2 0.312094 0.322876 0.500000
Si Si3 0.808182 0.135601 0.606606
Si Si4 0.688875 0.098541 0.263170
Si Si5 0.691566 0.285703 0.000000
Si Si6 0.683268 0.500000 0.744590
Si Si7 0.693598 0.555697 0.000000
Si Si8 0.184791 0.500000 0.600177
O O1 0.750972 0.351864 0.436062
O O2 0.761749 0.389583 0.312729
O O3 0.748479 0.447303 0.417332
O O4 0.000000 0.396708 0.392474
O O5 0.500000 0.324839 0.500000
O O6 0.256936 0.267830 0.500000
O O7 0.736061 0.135455 0.679797
O O8 0.761281 0.182222 0.563662
O O9 0.759224 0.088159 0.563859
O O10 0.000000 0.134748 0.610883
O O11 0.500000 0.091146 0.262844
O O12 0.777150 0.048848 0.282097
O O13 0.500000 0.283249 0.000000
O O14 0.500000 0.500000 0.723102
O O15 0.797881 0.500000 0.680318
O O16 0.748304 0.500000 0.000000
O O17 0.500000 0.554662 0.000000
O O18 0.000000 0.500000 0.580582
#
# Coordination Sequence:
#
# PCOD9517736 Si02
#       8
#    16   8  16  16   8   8   8   8
#     4   9  19  37  58  80 111 150 182 213 268 337
#     4  12  25  38  58  84 106 133 182 241 284 322
#     4   9  18  33  56  82 107 144 186 225 270 324
#     4  10  20  34  53  80 114 148 183 223 270 329
#     4   9  20  41  61  78 106 145 187 225 277 343
#     4  10  18  28  47  74 109 152 186 216 258 308
#     4   8  15  28  47  77 114 145 180 216 257 320
#     4   8  16  33  55  80 110 143 177 210 257 325
#
# _framework density 18.732561
#
# number of rings (size 3 to 8) (size 9 to 14) (size 15 to 20)
#    0.000    2.636    0.000    4.364    1.273    4.727 
#    0.000    4.091    0.000    0.545    0.000    0.000 
#    0.000    0.000    0.000    0.000    0.000    0.000 
#
# Total GULP energy -245279.720851 kJ/mol
# GULP energy per Si atom -5574.539110 kJ/mol
# Density = 1.868992 g / cm^3
# Si number density = 18.732561 Si / 1000 Ang^3
#
#
#
# Elastic Constant Matrix: (Units=GPa)
#
#
# Indices 1 2 3 4 5 6 
#
# 1 28.6624 27.6297 31.5185 0.0000 0.0000 0.0000
# 2 27.6297 159.7917 77.5773 0.0000 0.0000 0.0000
# 3 31.5185 77.5773 130.6311 0.0000 0.0000 0.0000
# 4 0.0000 0.0000 0.0000 19.1617 0.0000 0.0000
# 5 0.0000 0.0000 0.0000 0.0000 19.3215 0.0000
# 6 0.0000 0.0000 0.0000 0.0000 0.0000 16.7117
#
#
#
# Elastic Compliance Matrix: (Units=1/GPa)
#
#
# Indices 1 2 3 4 5 6 
#
# 1 0.049118 -0.003849 -0.009565 0.000000 0.000000 0.000000
# 2 -0.003849 0.009095 -0.004473 0.000000 0.000000 0.000000
# 3 -0.009565 -0.004473 0.012619 0.000000 0.000000 0.000000
# 4 0.000000 0.000000 0.000000 0.052187 0.000000 0.000000
# 5 0.000000 0.000000 0.000000 0.000000 0.051756 0.000000
# 6 0.000000 0.000000 0.000000 0.000000 0.000000 0.059838
#
#
# Mechanical properties :
#
#
# Convention : Reuss Voigt Hill
#
# Bulk Modulus (GPa) = 28.52408 65.83738 47.18073
# Shear Modulus (GPa) = 17.72591 23.19630 20.46111
#
# Velocity S-wave (km/s) = 3.07947 3.52275 3.30854
# Velocity P-wave (km/s) = 5.28245 7.19504 6.31161
#
# Compressibility (1/GPa) = 0.03505810
#
# Stress axis : x y z
#
# Youngs Moduli (GPa) = 20.35928 109.94948 79.24502
#
# Poissons Ratio (x) = 0.42322 0.75799
# Poissons Ratio (y) = 0.07837 0.35443
# Poissons Ratio (z) = 0.19474 0.49175
#
# Static dielectric constant tensor:
#      x y z
#    x 1.645840 0.000000 0.000000 
#    y 0.000000 1.657020 0.000000 
#    z 0.000000 0.000000 1.662460 
# 
# From -- ./inp_files/50633.got.cif
#   From: 2010.05.17/outbox.cif.g08.bks.cpg/sg71_26_cif.got.tgz:50633.got - 2010.06.03 16:22:01.
