data_PCOD9517026
_publ_section_title
;
Structure prediction by ZEFSAII (Michael W. Deem and Ramdas Pophale) SiO2 
 PCOD9517026
Probable space group: F D D D
;
_chemical_formula_sum "Si O2"
_cell_formula_units_Z 96
_cell_length_a 18.663648
_cell_length_b 7.962718
_cell_length_c 25.735728
_cell_angle_alpha 90.000000
_cell_angle_beta 90.000000
_cell_angle_gamma 90.000000
_cell_volume 3824.673161
_symmetry_space_group_name_H-M "F D D D"
_symmetry_group_IT_number 70
_space_group.IT_coordinate_system_code '2'
_symmetry_cell_setting 'orthorhombic'
loop_
_space_group_symop_operation_xyz
x,y,z
1/4-x,1/4-y,z
x,1/4-y,1/4-z
1/4-x,y,1/4-z
-x,-y,-z
3/4+x,3/4+y,-z
-x,3/4+y,3/4+z
3/4+x,-y,3/4+z
x,1/2+y,1/2+z
1/4-x,3/4-y,1/2+z
x,3/4-y,3/4-z
1/4-x,1/2+y,3/4-z
-x,1/2-y,1/2-z
3/4+x,1/4+y,1/2-z
-x,1/4+y,1/4+z
3/4+x,1/2-y,1/4+z
1/2+x,y,1/2+z
3/4-x,1/4-y,1/2+z
1/2+x,1/4-y,3/4-z
3/4-x,y,3/4-z
1/2-x,-y,1/2-z
1/4+x,3/4+y,1/2-z
1/2-x,3/4+y,1/4+z
1/4+x,-y,1/4+z
1/2+x,1/2+y,z
3/4-x,3/4-y,z
1/2+x,3/4-y,1/4-z
3/4-x,1/2+y,1/4-z
1/2-x,1/2-y,-z
1/4+x,1/4+y,-z
1/2-x,1/4+y,3/4+z
1/4+x,1/2-y,3/4+z
loop_
_atom_site_type_symbol
_atom_site_label
_atom_site_fract_x
_atom_site_fract_y
_atom_site_fract_z
Si Si1 0.493169 0.453644 0.137871
Si Si2 0.933444 0.712206 0.712921
Si Si3 0.676389 0.783653 0.529581
O O1 0.536043 0.625000 0.125000
O O2 0.440898 0.533269 0.182004
O O3 0.448753 0.412164 0.086066
O O4 0.546767 0.325355 0.162654
O O5 0.864681 0.685647 0.749539
O O6 0.000000 0.750000 0.750000
O O7 0.625000 0.625000 0.530302
O O8 0.750000 0.750000 0.500000
#
# Coordination Sequence:
#
# PCOD9517026 Si02
#       3
#    32  32  32
#     4   8  21  45  71 104 151 200 259 300 395 474
#     4   9  21  44  71 103 149 205 248 320 379 466
#     4  12  22  45  81 115 156 202 261 332 396 468
#
# _framework density 25.100183999999999
#
# number of rings (size 3 to 8) (size 9 to 14) (size 15 to 20)
#    2.000    0.000    3.333    0.000    0.000    2.667 
#    6.000   16.667   14.667    0.000    0.000    0.000 
#    0.000    0.000    0.000    0.000    0.000    0.000 
#
# Total GULP energy -133729.312400 kJ/mol
# GULP energy per Si atom -5572.054683 kJ/mol
# Density = 2.504305 g / cm^3
# Si number density = 25.100184 Si / 1000 Ang^3
#
#
#
# Elastic Constant Matrix: (Units=GPa)
#
#
# Indices 1 2 3 4 5 6 
#
# 1 184.7909 55.0554 77.9419 0.0000 0.0000 0.0000
# 2 55.0554 68.7186 40.6154 0.0000 0.0000 0.0001
# 3 77.9419 40.6154 162.7239 0.0000 0.0000 0.0000
# 4 0.0000 0.0000 0.0000 47.0500 0.0000 0.0000
# 5 0.0000 0.0000 0.0000 0.0000 21.2281 0.0000
# 6 0.0000 0.0001 0.0000 0.0000 0.0000 51.9895
#
#
#
# Elastic Compliance Matrix: (Units=1/GPa)
#
#
# Indices 1 2 3 4 5 6 
#
# 1 0.007948 -0.004830 -0.002601 0.000000 0.000000 0.000000
# 2 -0.004830 0.020006 -0.002680 0.000000 0.000000 0.000000
# 3 -0.002601 -0.002680 0.008060 0.000000 0.000000 0.000000
# 4 0.000000 0.000000 0.000000 0.021254 0.000000 0.000000
# 5 0.000000 0.000000 0.000000 0.000000 0.047107 0.000000
# 6 0.000000 0.000000 0.000000 0.000000 0.000000 0.019235
#
#
# Mechanical properties :
#
#
# Convention : Reuss Voigt Hill
#
# Bulk Modulus (GPa) = 63.32592 84.82878 74.07735
# Shear Modulus (GPa) = 33.53549 40.22823 36.88186
#
# Velocity S-wave (km/s) = 3.65919 4.00772 3.83742
# Velocity P-wave (km/s) = 6.56787 7.43541 7.01506
#
# Compressibility (1/GPa) = 0.01579132
#
# Stress axis : x y z
#
# Youngs Moduli (GPa) = 125.82217 49.98578 124.06613
#
# Poissons Ratio (x) = 0.24143 0.32273
# Poissons Ratio (y) = 0.60773 0.33248
# Poissons Ratio (z) = 0.32730 0.13395
#
# Static dielectric constant tensor:
#      x y z
#    x 1.988430 0.000000 0.000000 
#    y 0.000000 2.252400 0.000000 
#    z 0.000000 0.000000 1.971920 
# 
# From -- ./inp_files/60098.got.cif
#   From: 2010.05.17/outbox.cif.g08.bks.cpg/sg70_31_cif.got.tgz:60098.got - 2010.06.03 15:57:51.
