data_PCOD9517168
_publ_section_title
;
Structure prediction by ZEFSAII (Michael W. Deem and Ramdas Pophale) SiO2 
 PCOD9517168
Probable space group: F D D D
;
_chemical_formula_sum "Si O2"
_cell_formula_units_Z 44
_cell_length_a 12.000000
_cell_length_b 27.000000
_cell_length_c 30.000000
_cell_angle_alpha 90.000000
_cell_angle_beta 90.000000
_cell_angle_gamma 90.000000
_cell_volume 9720.000000
_symmetry_space_group_name_H-M "F D D D"
_symmetry_group_IT_number 70
_space_group.IT_coordinate_system_code '2'
_symmetry_cell_setting 'orthorhombic'
loop_
_space_group_symop_operation_xyz
x,y,z
1/4-x,1/4-y,z
x,1/4-y,1/4-z
1/4-x,y,1/4-z
-x,-y,-z
3/4+x,3/4+y,-z
-x,3/4+y,3/4+z
3/4+x,-y,3/4+z
x,1/2+y,1/2+z
1/4-x,3/4-y,1/2+z
x,3/4-y,3/4-z
1/4-x,1/2+y,3/4-z
-x,1/2-y,1/2-z
3/4+x,1/4+y,1/2-z
-x,1/4+y,1/4+z
3/4+x,1/2-y,1/4+z
1/2+x,y,1/2+z
3/4-x,1/4-y,1/2+z
1/2+x,1/4-y,3/4-z
3/4-x,y,3/4-z
1/2-x,-y,1/2-z
1/4+x,3/4+y,1/2-z
1/2-x,3/4+y,1/4+z
1/4+x,-y,1/4+z
1/2+x,1/2+y,z
3/4-x,3/4-y,z
1/2+x,3/4-y,1/4-z
3/4-x,1/2+y,1/4-z
1/2-x,1/2-y,-z
1/4+x,1/4+y,-z
1/2-x,1/4+y,3/4+z
1/4+x,1/2-y,3/4+z
loop_
_atom_site_type_symbol
_atom_site_label
_atom_site_fract_x
_atom_site_fract_y
_atom_site_fract_z
Si Si1 0.996958 0.894585 0.756708
Si Si2 0.437953 0.686648 0.489301
Si Si3 0.206848 0.523365 0.581440
Si Si4 0.047670 0.022094 0.400822
Si Si5 0.685000 0.262246 0.195717
Si Si6 0.375000 0.875000 0.687974
O O1 0.875000 0.875000 0.742000
O O2 0.972704 0.925646 0.802803
O O3 0.083841 0.847594 0.756300
O O4 0.044813 0.936943 0.723396
O O5 0.410355 0.729338 0.451766
O O6 0.505912 0.717852 0.526764
O O7 0.526769 0.649147 0.467238
O O8 0.125000 0.527787 0.625000
O O9 0.333910 0.506159 0.593556
O O10 0.074106 0.079853 0.409710
O O11 0.997409 0.015597 0.351677
O O12 0.947614 0.006148 0.434963
#
# Coordination Sequence:
#
# PCOD9517168 Si02
#       6
#    32  32  32  32  32  16
#     4  11  25  40  64  93 127 172 214 265 324 399
#     4  10  23  40  67  94 122 170 214 266 323 385
#     4  10  25  42  63  92 133 170 211 267 325 387
#     4  10  22  41  65  95 127 167 209 276 324 378
#     4  10  23  41  65  94 129 161 217 271 326 380
#     4  10  20  38  68  93 120 158 215 262 322 378
#
# _framework density 4.5267489999999997
#
# number of rings (size 3 to 8) (size 9 to 14) (size 15 to 20)
#    0.000    1.818    1.818    0.000    8.909    5.455 
#    0.000    0.000    0.000    0.000    0.000    0.000 
#    0.000    0.000    0.000    0.000    0.000    0.000 
#
# Total GULP energy -245484.785549 kJ/mol
# GULP energy per Si atom -5579.199672 kJ/mol
# Density = 0.451645 g / cm^3
# Si number density = 4.526749 Si / 1000 Ang^3
#
#
#
# Elastic Constant Matrix: (Units=GPa)
#
#
# Indices 1 2 3 4 5 6 
#
# 1 142.7606 47.8101 50.0121 0.0000 0.0000 0.0000
# 2 47.8101 94.2650 37.5836 0.0000 0.0000 0.0000
# 3 50.0121 37.5836 109.7424 0.0000 0.0000 0.0000
# 4 0.0000 0.0000 0.0000 27.8198 0.0000 0.0000
# 5 0.0000 0.0000 0.0000 0.0000 36.5655 0.0000
# 6 0.0000 0.0000 0.0000 0.0000 0.0000 42.1100
#
#
#
# Elastic Compliance Matrix: (Units=1/GPa)
#
#
# Indices 1 2 3 4 5 6 
#
# 1 0.009225 -0.003477 -0.003013 0.000000 0.000000 0.000000
# 2 -0.003477 0.013597 -0.003072 0.000000 0.000000 0.000000
# 3 -0.003013 -0.003072 0.011537 0.000000 0.000000 0.000000
# 4 0.000000 0.000000 0.000000 0.035946 0.000000 0.000000
# 5 0.000000 0.000000 0.000000 0.000000 0.027348 0.000000
# 6 0.000000 0.000000 0.000000 0.000000 0.000000 0.023747
#
#
# Mechanical properties :
#
#
# Convention : Reuss Voigt Hill
#
# Bulk Modulus (GPa) = 65.64041 68.61996 67.13018
# Shear Modulus (GPa) = 34.34001 35.38989 34.86495
#
# Velocity S-wave (km/s) = 4.35961 4.42575 4.39281
# Velocity P-wave (km/s) = 7.85314 8.00597 7.92992
#
# Compressibility (1/GPa) = 0.01523452
#
# Stress axis : x y z
#
# Youngs Moduli (GPa) = 108.40282 73.54666 86.67495
#
# Poissons Ratio (x) = 0.25575 0.26116
# Poissons Ratio (y) = 0.37696 0.26625
# Poissons Ratio (z) = 0.32662 0.22592
#
# Static dielectric constant tensor:
#      x y z
#    x 1.623320 0.000000 0.000000 
#    y 0.000000 1.613270 0.000000 
#    z 0.000000 0.000000 1.642100 
# 
# From -- ./inp_files/19617.got.cif
#   From: 2010.05.17/outbox.ucp.g08.bks.cvg/sg70_10_cif.got.tgz:19617.got - 2010.06.11 16:26:41.
