data_PCOD9517905
_publ_section_title
;
Structure prediction by ZEFSAII (Michael W. Deem and Ramdas Pophale) SiO2 
 PCOD9517905
Probable space group: I M M M
;
_chemical_formula_sum "Si O2"
_cell_formula_units_Z 120
_cell_length_a 13.558947
_cell_length_b 22.862631
_cell_length_c 24.787436
_cell_angle_alpha 90.000000
_cell_angle_beta 90.000000
_cell_angle_gamma 90.000000
_cell_volume 7683.936655
_symmetry_space_group_name_H-M "I M M M"
_symmetry_group_IT_number 71
_symmetry_cell_setting 'orthorhombic'
loop_
_space_group_symop_operation_xyz
x,y,z
-x,-y,z
x,-y,-z
-x,y,-z
-x,-y,-z
x,y,-z
-x,y,z
x,-y,z
1/2+x,1/2+y,1/2+z
1/2-x,1/2-y,1/2+z
1/2+x,1/2-y,1/2-z
1/2-x,1/2+y,1/2-z
1/2-x,1/2-y,1/2-z
1/2+x,1/2+y,1/2-z
1/2-x,1/2+y,1/2+z
1/2+x,1/2-y,1/2+z
loop_
_atom_site_type_symbol
_atom_site_label
_atom_site_fract_x
_atom_site_fract_y
_atom_site_fract_z
Si Si1 0.881761 0.750830 0.255842
Si Si2 0.881137 0.729776 0.938008
Si Si3 0.619061 0.841262 0.336020
Si Si4 0.309043 0.932625 0.744107
Si Si5 0.884388 0.120815 0.218897
Si Si6 0.806645 0.144087 0.099619
Si Si7 0.384619 0.152622 0.162917
Si Si8 0.117544 0.069475 0.000000
O O1 0.852882 0.712237 0.204041
O O2 0.854509 0.817951 0.247812
O O3 0.853900 0.714197 0.308779
O O4 0.000000 0.750660 0.255847
O O5 0.853637 0.679048 0.895892
O O6 0.834214 0.790986 0.919848
O O7 0.000000 0.737039 0.934327
O O8 0.856055 0.717092 0.000000
O O9 0.500000 0.847768 0.333104
O O10 0.667418 0.899004 0.311367
O O11 0.193700 0.925815 0.759289
O O12 0.366566 0.895954 0.790491
O O13 0.338128 0.000000 0.743112
O O14 0.864807 0.130260 0.155191
O O15 0.000000 0.108889 0.227987
O O16 0.691502 0.140537 0.115229
O O17 0.837134 0.099520 0.052929
O O18 0.500000 0.154158 0.148808
O O19 0.000000 0.080732 0.000000
O O20 0.133485 0.000000 0.000000
#
# Coordination Sequence:
#
# PCOD9517905 Si02
#       8
#    16  16  16  16  16  16  16   8
#     4   8  14  27  46  72  99 126 153 187 242 296
#     4  10  18  29  49  76 103 123 154 200 249 297
#     4   9  17  29  48  72  97 126 160 198 239 286
#     4  10  21  32  47  70  97 135 171 193 230 289
#     4  10  19  30  49  74 104 129 154 197 247 296
#     4  11  20  31  53  73  96 130 164 200 249 288
#     4   9  20  34  50  73 101 129 164 203 240 285
#     4  11  24  40  53  69  97 131 171 211 245 290
#
# _framework density 15.616994999999999
#
# number of rings (size 3 to 8) (size 9 to 14) (size 15 to 20)
#    0.000    2.333    2.000    2.400    1.867    5.067 
#    0.000    0.333    0.000    0.800    0.000    1.867 
#    0.000    0.000    0.000    1.200    0.000    0.000 
#
# Total GULP energy -334569.902922 kJ/mol
# GULP energy per Si atom -5576.165049 kJ/mol
# Density = 1.558145 g / cm^3
# Si number density = 15.616995 Si / 1000 Ang^3
#
#
#
# Elastic Constant Matrix: (Units=GPa)
#
#
# Indices 1 2 3 4 5 6 
#
# 1 81.6030 11.0503 36.1247 0.0000 0.0000 0.0000
# 2 11.0503 74.4987 44.1888 0.0000 0.0000 0.0000
# 3 36.1247 44.1888 100.5565 0.0000 0.0000 0.0000
# 4 0.0000 0.0000 0.0000 14.0040 0.0000 0.0000
# 5 0.0000 0.0000 0.0000 0.0000 22.5736 0.0000
# 6 0.0000 0.0000 0.0000 0.0000 0.0000 18.2622
#
#
#
# Elastic Compliance Matrix: (Units=1/GPa)
#
#
# Indices 1 2 3 4 5 6 
#
# 1 0.014662 0.001284 -0.005832 0.000000 0.000000 0.000000
# 2 0.001284 0.018268 -0.008489 0.000000 0.000000 0.000000
# 3 -0.005832 -0.008489 0.015770 0.000000 0.000000 0.000000
# 4 0.000000 0.000000 0.000000 0.071408 0.000000 0.000000
# 5 0.000000 0.000000 0.000000 0.000000 0.044300 0.000000
# 6 0.000000 0.000000 0.000000 0.000000 0.000000 0.054758
#
#
# Mechanical properties :
#
#
# Convention : Reuss Voigt Hill
#
# Bulk Modulus (GPa) = 44.19467 48.82062 46.50764
# Shear Modulus (GPa) = 19.77998 21.98759 20.88378
#
# Velocity S-wave (km/s) = 3.56275 3.75631 3.66081
# Velocity P-wave (km/s) = 6.72939 7.08112 6.90749
#
# Compressibility (1/GPa) = 0.02262716
#
# Stress axis : x y z
#
# Youngs Moduli (GPa) = 68.20270 54.74109 63.41106
#
# Poissons Ratio (x) = -0.07030 0.36979
# Poissons Ratio (y) = -0.08759 0.53830
# Poissons Ratio (z) = 0.39774 0.46470
#
# Static dielectric constant tensor:
#      x y z
#    x 1.548500 0.000000 0.000000 
#    y 0.000000 1.513230 0.000000 
#    z 0.000000 0.000000 1.511630 
# 
# From -- ./inp_files/38532.got.cif
#   From: 2010.05.17/outbox.cif.g08.bks.cpg/sg71_20_cif.got.tgz:38532.got - 2010.06.03 16:22:01.
