data_PCOD9517585
_publ_section_title
;
Structure prediction by ZEFSAII (Michael W. Deem and Ramdas Pophale) SiO2 
 PCOD9517585
Probable space group: I M M M
;
_chemical_formula_sum "Si O2"
_cell_formula_units_Z 104
_cell_length_a 27.370295
_cell_length_b 25.190337
_cell_length_c 7.351214
_cell_angle_alpha 90.000000
_cell_angle_beta 90.000000
_cell_angle_gamma 90.000000
_cell_volume 5068.419131
_symmetry_space_group_name_H-M "I M M M"
_symmetry_group_IT_number 71
_symmetry_cell_setting 'orthorhombic'
loop_
_space_group_symop_operation_xyz
x,y,z
-x,-y,z
x,-y,-z
-x,y,-z
-x,-y,-z
x,y,-z
-x,y,z
x,-y,z
1/2+x,1/2+y,1/2+z
1/2-x,1/2-y,1/2+z
1/2+x,1/2-y,1/2-z
1/2-x,1/2+y,1/2-z
1/2-x,1/2-y,1/2-z
1/2+x,1/2+y,1/2-z
1/2-x,1/2+y,1/2+z
1/2+x,1/2-y,1/2+z
loop_
_atom_site_type_symbol
_atom_site_label
_atom_site_fract_x
_atom_site_fract_y
_atom_site_fract_z
Si Si1 0.632217 0.939175 0.278252
Si Si2 0.393726 0.560582 0.723264
Si Si3 0.137733 0.267488 0.777962
Si Si4 0.212671 0.357897 0.218365
Si Si5 0.500000 0.435456 0.291701
Si Si6 0.056118 0.348292 0.778432
Si Si7 0.826804 0.153878 0.785935
O O1 0.631858 0.939938 0.500000
O O2 0.682599 0.910060 0.221323
O O3 0.587847 0.900034 0.223741
O O4 0.628063 0.000000 0.217434
O O5 0.395098 0.559400 0.500000
O O6 0.385079 0.500000 0.780238
O O7 0.447539 0.579026 0.786180
O O8 0.353276 0.601597 0.786021
O O9 0.181034 0.307291 0.721542
O O10 0.087303 0.296264 0.723480
O O11 0.150759 0.208709 0.712778
O O12 0.137551 0.266715 0.000000
O O13 0.268768 0.351457 0.268733
O O14 0.211038 0.358592 0.000000
O O15 0.500000 0.500000 0.295128
O O16 0.500000 0.416252 0.500000
O O17 0.000000 0.348921 0.717595
O O18 0.055554 0.348600 0.000000
O O19 0.837768 0.155050 0.000000
#
# Coordination Sequence:
#
# PCOD9517585 Si02
#       7
#    16  16  16  16   8  16  16
#     4   8  14  24  38  57  80 108 141 170 199 242
#     4   8  14  24  37  55  80 105 127 158 200 238
#     4   8  15  27  39  55  80 108 135 164 201 242
#     4   9  17  29  43  56  79 113 139 162 198 240
#     4   7  10  20  36  50  71 103 127 143 180 238
#     4   8  13  22  36  55  83 113 134 162 208 251
#     4  10  18  27  41  62  83 103 134 172 203 234
#
# _framework density 20.519219
#
# number of rings (size 3 to 8) (size 9 to 14) (size 15 to 20)
#    0.000    3.615    0.000    3.231    0.000    0.923 
#    1.385    1.538    0.000    0.000    0.000    0.538 
#    0.000   16.615    0.000    5.538    0.000    6.154 
#
# Total GULP energy -289829.535962 kJ/mol
# GULP energy per Si atom -5573.644922 kJ/mol
# Density = 2.047252 g / cm^3
# Si number density = 20.519219 Si / 1000 Ang^3
#
#
#
# Elastic Constant Matrix: (Units=GPa)
#
#
# Indices 1 2 3 4 5 6 
#
# 1 134.2750 131.4120 -1.8196 0.0000 0.0000 0.0000
# 2 131.4120 172.7146 7.0983 0.0000 0.0000 0.0000
# 3 -1.8196 7.0983 73.5007 0.0000 0.0000 0.0000
# 4 0.0000 0.0000 0.0000 -12.7893 0.0000 0.0000
# 5 0.0000 0.0000 0.0000 0.0000 13.9998 0.0000
# 6 0.0000 0.0000 0.0000 0.0000 0.0000 11.6494
#
#
#
# Elastic Compliance Matrix: (Units=1/GPa)
#
#
# Indices 1 2 3 4 5 6 
#
# 1 0.029783 -0.022781 0.002937 0.000000 0.000000 0.000000
# 2 -0.022781 0.023239 -0.002808 0.000000 0.000000 0.000000
# 3 0.002937 -0.002808 0.013949 0.000000 0.000000 0.000000
# 4 0.000000 0.000000 0.000000 -0.078190 0.000000 0.000000
# 5 0.000000 0.000000 0.000000 0.000000 0.071429 0.000000
# 6 0.000000 0.000000 0.000000 0.000000 0.000000 0.085842
#
#
# Mechanical properties :
#
#
# Convention : Reuss Voigt Hill
#
# Bulk Modulus (GPa) = 46.15431 72.65239 59.40335
# Shear Modulus (GPa) = 25.17902 18.82528 22.00215
#
# Velocity S-wave (km/s) = 3.50679 3.03222 3.27811
# Velocity P-wave (km/s) = 6.24010 6.90963 6.58338
#
# Compressibility (1/GPa) = 0.02166645
#
# Stress axis : x y z
#
# Youngs Moduli (GPa) = 33.57650 43.03165 71.68851
#
# Poissons Ratio (x) = 0.98032 -0.21058
# Poissons Ratio (y) = 0.76492 0.20132
# Poissons Ratio (z) = -0.09863 0.12084
#
# Static dielectric constant tensor:
#      x y z
#    x 1.709200 0.000000 0.000000 
#    y 0.000000 1.710940 0.000000 
#    z 0.000000 0.000000 1.847800 
# 
# From -- ./inp_files/15267.got.cif
#   From: 2010.05.17/outbox.cif.g08.bks.cpg/sg71_8_cif.got.tgz:15267.got - 2010.06.03 16:22:01.
