data_PCOD9517896
_publ_section_title
;
Structure prediction by ZEFSAII (Michael W. Deem and Ramdas Pophale) SiO2 
 PCOD9517896
Probable space group: I M M M
;
_chemical_formula_sum "Si O2"
_cell_formula_units_Z 72
_cell_length_a 20.347103
_cell_length_b 7.481610
_cell_length_c 21.690352
_cell_angle_alpha 90.000000
_cell_angle_beta 90.000000
_cell_angle_gamma 90.000000
_cell_volume 3301.902531
_symmetry_space_group_name_H-M "I M M M"
_symmetry_group_IT_number 71
_symmetry_cell_setting 'orthorhombic'
loop_
_space_group_symop_operation_xyz
x,y,z
-x,-y,z
x,-y,-z
-x,y,-z
-x,-y,-z
x,y,-z
-x,y,z
x,-y,z
1/2+x,1/2+y,1/2+z
1/2-x,1/2-y,1/2+z
1/2+x,1/2-y,1/2-z
1/2-x,1/2+y,1/2-z
1/2-x,1/2-y,1/2-z
1/2+x,1/2+y,1/2-z
1/2-x,1/2+y,1/2+z
1/2+x,1/2-y,1/2+z
loop_
_atom_site_type_symbol
_atom_site_label
_atom_site_fract_x
_atom_site_fract_y
_atom_site_fract_z
Si Si1 0.353442 0.781788 0.431112
Si Si2 0.253694 0.214877 0.676421
Si Si3 0.500000 0.280508 0.930983
Si Si4 0.390270 0.287888 0.158772
Si Si5 0.500000 0.781599 0.397475
Si Si6 0.000000 0.712576 0.242954
O O1 0.329017 0.729842 0.500000
O O2 0.310537 0.721883 0.371248
O O3 0.429971 0.726354 0.425397
O O4 0.352744 0.000000 0.429644
O O5 0.250000 0.250000 0.750000
O O6 0.182476 0.285889 0.656276
O O7 0.256525 0.000000 0.671590
O O8 0.500000 0.500000 0.928888
O O9 0.563478 0.217439 0.894697
O O10 0.500000 0.222744 0.000000
O O11 0.383376 0.500000 0.150582
O O12 0.433957 0.264981 0.220392
O O13 0.500000 0.721685 0.326437
O O14 0.500000 0.000000 0.399776
O O15 0.000000 0.500000 0.240774
#
# Coordination Sequence:
#
# PCOD9517896 Si02
#       6
#    16  16   8  16   8   8
#     4   9  17  29  46  70  99 129 163 204 249 294
#     4  10  20  33  50  73 101 133 168 207 249 293
#     4   8  14  26  45  66  87 115 152 193 240 295
#     4   9  18  31  46  68  98 126 156 198 245 289
#     4   9  16  26  43  68  97 126 156 197 247 291
#     4  10  18  29  49  74  98 125 158 195 236 290
#
# _framework density 21.805610999999999
#
# number of rings (size 3 to 8) (size 9 to 14) (size 15 to 20)
#    0.000    2.778    0.000    2.667    0.000    4.889 
#    0.000    4.444    0.000    6.000    0.000    6.222 
#    0.000    8.889    0.000    0.000    0.000    0.000 
#
# Total GULP energy -200655.039633 kJ/mol
# GULP energy per Si atom -5573.751101 kJ/mol
# Density = 2.175598 g / cm^3
# Si number density = 21.805611 Si / 1000 Ang^3
#
#
#
# Elastic Constant Matrix: (Units=GPa)
#
#
# Indices 1 2 3 4 5 6 
#
# 1 179.7569 7.9835 93.4232 0.0000 0.0000 0.0000
# 2 7.9835 62.0136 0.1573 0.0000 0.0000 0.0000
# 3 93.4232 0.1573 182.4481 0.0000 0.0000 0.0000
# 4 0.0000 0.0000 0.0000 16.2201 0.0000 0.0000
# 5 0.0000 0.0000 0.0000 0.0000 -4.5811 0.0000
# 6 0.0000 0.0000 0.0000 0.0000 0.0000 -5.3433
#
#
#
# Elastic Compliance Matrix: (Units=1/GPa)
#
#
# Indices 1 2 3 4 5 6 
#
# 1 0.007639 -0.000973 -0.003911 0.000000 0.000000 0.000000
# 2 -0.000973 0.016250 0.000484 0.000000 0.000000 0.000000
# 3 -0.003911 0.000484 0.007483 0.000000 0.000000 0.000000
# 4 0.000000 0.000000 0.000000 0.061652 0.000000 0.000000
# 5 0.000000 0.000000 0.000000 0.000000 -0.218289 0.000000
# 6 0.000000 0.000000 0.000000 0.000000 0.000000 -0.187149
#
#
# Mechanical properties :
#
#
# Convention : Reuss Voigt Hill
#
# Bulk Modulus (GPa) = 44.30246 69.70519 57.00383
# Shear Modulus (GPa) = -16.88664 22.76946 2.94141
#
# Velocity S-wave (km/s) = -2.78585 3.23492 1.16269
# Velocity P-wave (km/s) = 3.16435 6.78151 5.29160
#
# Compressibility (1/GPa) = 0.02257211
#
# Stress axis : x y z
#
# Youngs Moduli (GPa) = 130.91214 61.54006 133.63584
#
# Poissons Ratio (x) = 0.05991 0.52259
# Poissons Ratio (y) = 0.12744 -0.06474
# Poissons Ratio (z) = 0.51194 -0.02981
#
# Static dielectric constant tensor:
#      x y z
#    x 1.772660 0.000000 0.000000 
#    y 0.000000 1.840030 0.000000 
#    z 0.000000 0.000000 1.810140 
# 
# From -- ./inp_files/54694.got.cif
#   From: 2010.05.17/outbox.cif.g08.bks.cpg/sg71_28_cif.got.tgz:54694.got - 2010.06.03 16:22:01.
