data_PCOD9517249
_publ_section_title
;
Structure prediction by ZEFSAII (Michael W. Deem and Ramdas Pophale) SiO2 
 PCOD9517249
Probable space group: I M M M
;
_chemical_formula_sum "Si O2"
_cell_formula_units_Z 120
_cell_length_a 26.393520
_cell_length_b 14.767709
_cell_length_c 21.004217
_cell_angle_alpha 90.000000
_cell_angle_beta 90.000000
_cell_angle_gamma 90.000000
_cell_volume 8186.851948
_symmetry_space_group_name_H-M "I M M M"
_symmetry_group_IT_number 71
_symmetry_cell_setting 'orthorhombic'
loop_
_space_group_symop_operation_xyz
x,y,z
-x,-y,z
x,-y,-z
-x,y,-z
-x,-y,-z
x,y,-z
-x,y,z
x,-y,z
1/2+x,1/2+y,1/2+z
1/2-x,1/2-y,1/2+z
1/2+x,1/2-y,1/2-z
1/2-x,1/2+y,1/2-z
1/2-x,1/2-y,1/2-z
1/2+x,1/2+y,1/2-z
1/2-x,1/2+y,1/2+z
1/2+x,1/2-y,1/2+z
loop_
_atom_site_type_symbol
_atom_site_label
_atom_site_fract_x
_atom_site_fract_y
_atom_site_fract_z
Si Si1 0.558001 0.787750 0.126394
Si Si2 0.337917 0.262703 0.148261
Si Si3 0.805336 0.898049 0.173792
Si Si4 0.846366 0.286759 0.795689
Si Si5 0.285136 0.897787 0.075739
Si Si6 0.939314 0.600057 0.500000
Si Si7 0.058094 0.607192 0.239799
Si Si8 0.745594 0.394795 0.813056
O O1 0.500000 0.754067 0.121078
O O2 0.603224 0.716027 0.134843
O O3 0.571262 0.845125 0.063788
O O4 0.559910 0.852994 0.188238
O O5 0.336214 0.224959 0.220227
O O6 0.319705 0.182061 0.102750
O O7 0.298565 0.344922 0.147583
O O8 0.844009 0.814457 0.175906
O O9 0.767706 0.889897 0.114055
O O10 0.771657 0.889144 0.238528
O O11 0.827141 0.000000 0.174482
O O12 0.899392 0.339392 0.799975
O O13 0.798510 0.342915 0.821504
O O14 0.304627 0.000000 0.089898
O O15 0.279001 0.889980 0.000000
O O16 0.915880 0.500000 0.500000
O O17 0.000000 0.590085 0.500000
O O18 0.068932 0.500000 0.240964
O O19 0.000000 0.620179 0.217511
O O20 0.750376 0.500000 0.828920
#
# Coordination Sequence:
#
# PCOD9517249 Si02
#       8
#    16  16  16  16  16   8  16  16
#     4   9  18  28  38  52  77 113 146 177 212 249
#     4  10  18  29  41  60  86 110 145 179 211 253
#     4   9  16  28  43  63  88 109 139 176 210 252
#     4  10  16  27  45  63  84 114 143 173 211 248
#     4  10  19  28  40  61  89 118 141 167 209 257
#     4   9  16  26  38  54  77 107 147 183 209 244
#     4   9  17  27  39  59  87 114 138 169 209 250
#     4  10  17  27  45  65  82 104 138 181 219 250
#
# _framework density 14.657648999999999
#
# number of rings (size 3 to 8) (size 9 to 14) (size 15 to 20)
#    0.000    2.467    2.667    1.600    0.933    4.267 
#    0.000    0.000    0.000    1.200    0.000    5.600 
#    0.000    2.133    0.000    4.933    0.000    3.467 
#
# Total GULP energy -334009.108277 kJ/mol
# GULP energy per Si atom -5566.818471 kJ/mol
# Density = 1.462429 g / cm^3
# Si number density = 14.657649 Si / 1000 Ang^3
#
#
#
# Elastic Constant Matrix: (Units=GPa)
#
#
# Indices 1 2 3 4 5 6 
#
# 1 104.3393 60.2345 20.7226 0.0000 0.0000 0.0000
# 2 60.2345 85.5579 20.3531 0.0000 0.0000 0.0000
# 3 20.7226 20.3531 34.4233 0.0000 0.0000 0.0000
# 4 0.0000 0.0000 0.0000 11.4872 0.0000 0.0000
# 5 0.0000 0.0000 0.0000 0.0000 12.9513 0.0000
# 6 0.0000 0.0000 0.0000 0.0000 0.0000 19.7580
#
#
#
# Elastic Compliance Matrix: (Units=1/GPa)
#
#
# Indices 1 2 3 4 5 6 
#
# 1 0.016515 -0.010778 -0.003569 0.000000 0.000000 0.000000
# 2 -0.010778 0.020635 -0.005712 0.000000 0.000000 0.000000
# 3 -0.003569 -0.005712 0.034576 0.000000 0.000000 0.000000
# 4 0.000000 0.000000 0.000000 0.087054 0.000000 0.000000
# 5 0.000000 0.000000 0.000000 0.000000 0.077213 0.000000
# 6 0.000000 0.000000 0.000000 0.000000 0.000000 0.050612
#
#
# Mechanical properties :
#
#
# Convention : Reuss Voigt Hill
#
# Bulk Modulus (GPa) = 31.63862 47.43787 39.53824
# Shear Modulus (GPa) = 14.82540 17.03998 15.93269
#
# Velocity S-wave (km/s) = 3.18377 3.41329 3.30053
# Velocity P-wave (km/s) = 5.92850 6.92591 6.44652
#
# Compressibility (1/GPa) = 0.03160695
#
# Stress axis : x y z
#
# Youngs Moduli (GPa) = 60.55115 48.46227 28.92151
#
# Poissons Ratio (x) = 0.52231 0.10323
# Poissons Ratio (y) = 0.65260 0.16521
# Poissons Ratio (z) = 0.21614 0.27683
#
# Static dielectric constant tensor:
#      x y z
#    x 1.512270 0.000000 0.000000 
#    y 0.000000 1.488960 0.000000 
#    z 0.000000 0.000000 1.467470 
# 
# From -- ./inp_files/55919.got.cif
#   From: 2010.05.17/outbox.cif.g08.bks.cpg/sg71_28_cif.got.tgz:55919.got - 2010.06.03 16:22:01.
