data_PCOD9517033
_publ_section_title
;
Structure prediction by ZEFSAII (Michael W. Deem and Ramdas Pophale) SiO2 
 PCOD9517033
Probable space group: F D D D
;
_chemical_formula_sum "Si O2"
_cell_formula_units_Z 88
_cell_length_a 7.249108
_cell_length_b 18.403016
_cell_length_c 31.280522
_cell_angle_alpha 90.000000
_cell_angle_beta 90.000000
_cell_angle_gamma 90.000000
_cell_volume 4172.992130
_symmetry_space_group_name_H-M "F D D D"
_symmetry_group_IT_number 70
_space_group.IT_coordinate_system_code '2'
_symmetry_cell_setting 'orthorhombic'
loop_
_space_group_symop_operation_xyz
x,y,z
1/4-x,1/4-y,z
x,1/4-y,1/4-z
1/4-x,y,1/4-z
-x,-y,-z
3/4+x,3/4+y,-z
-x,3/4+y,3/4+z
3/4+x,-y,3/4+z
x,1/2+y,1/2+z
1/4-x,3/4-y,1/2+z
x,3/4-y,3/4-z
1/4-x,1/2+y,3/4-z
-x,1/2-y,1/2-z
3/4+x,1/4+y,1/2-z
-x,1/4+y,1/4+z
3/4+x,1/2-y,1/4+z
1/2+x,y,1/2+z
3/4-x,1/4-y,1/2+z
1/2+x,1/4-y,3/4-z
3/4-x,y,3/4-z
1/2-x,-y,1/2-z
1/4+x,3/4+y,1/2-z
1/2-x,3/4+y,1/4+z
1/4+x,-y,1/4+z
1/2+x,1/2+y,z
3/4-x,3/4-y,z
1/2+x,3/4-y,1/4-z
3/4-x,1/2+y,1/4-z
1/2-x,1/2-y,-z
1/4+x,1/4+y,-z
1/2-x,1/4+y,3/4+z
1/4+x,1/2-y,3/4+z
loop_
_atom_site_type_symbol
_atom_site_label
_atom_site_fract_x
_atom_site_fract_y
_atom_site_fract_z
Si Si1 0.669543 0.263544 0.376198
Si Si2 0.000517 0.445262 0.039105
Si Si3 0.375000 0.875000 0.182340
Si Si4 0.125000 0.125000 0.625000
O O1 0.578819 0.237166 0.331260
O O2 0.695443 0.190433 0.403077
O O3 0.522012 0.319866 0.396743
O O4 0.875000 0.295294 0.375000
O O5 0.875000 0.375000 0.031781
O O6 0.204719 0.411812 0.043913
O O7 0.000000 0.500000 0.000000
#
# Coordination Sequence:
#
# PCOD9517033 Si02
#       4
#    32  32  16   8
#     4  12  23  47  77 107 142 202 257 303 370 464
#     4  12  27  46  73 113 151 193 253 318 387 444
#     4  12  22  50  83 100 145 212 255 296 374 485
#     4  12  26  40  70 118 140 170 266 328 336 424
#
# _framework density 21.087986000000001
#
# number of rings (size 3 to 8) (size 9 to 14) (size 15 to 20)
#    0.000    0.000    9.091    0.545    2.545    1.455 
#    6.545    0.000    0.000    0.000    0.000    0.000 
#    0.000    0.000    0.000    0.000    0.000    0.000 
#
# Total GULP energy -122767.324867 kJ/mol
# GULP energy per Si atom -5580.332948 kJ/mol
# Density = 2.103999 g / cm^3
# Si number density = 21.087986 Si / 1000 Ang^3
#
#
#
# Elastic Constant Matrix: (Units=GPa)
#
#
# Indices 1 2 3 4 5 6 
#
# 1 230.5744 74.3849 57.7263 0.0000 0.0000 0.0000
# 2 74.3849 150.1309 56.1999 0.0000 0.0000 0.0000
# 3 57.7263 56.1999 101.2739 0.0000 0.0000 0.0000
# 4 0.0000 0.0000 0.0000 132.7844 0.0000 0.0000
# 5 0.0000 0.0000 0.0000 0.0000 16.6029 0.0000
# 6 0.0000 0.0000 0.0000 0.0000 0.0000 59.5880
#
#
#
# Elastic Compliance Matrix: (Units=1/GPa)
#
#
# Indices 1 2 3 4 5 6 
#
# 1 0.005477 -0.001950 -0.002040 0.000000 0.000000 0.000000
# 2 -0.001950 0.009102 -0.003939 0.000000 0.000000 0.000000
# 3 -0.002040 -0.003939 0.013223 0.000000 0.000000 0.000000
# 4 0.000000 0.000000 0.000000 0.007531 0.000000 0.000000
# 5 0.000000 0.000000 0.000000 0.000000 0.060231 0.000000
# 6 0.000000 0.000000 0.000000 0.000000 0.000000 0.016782
#
#
# Mechanical properties :
#
#
# Convention : Reuss Voigt Hill
#
# Bulk Modulus (GPa) = 83.72838 95.40015 89.56426
# Shear Modulus (GPa) = 37.82619 61.37293 49.59956
#
# Velocity S-wave (km/s) = 4.23984 5.40060 4.85503
# Velocity P-wave (km/s) = 7.98491 9.17747 8.60188
#
# Compressibility (1/GPa) = 0.01194338
#
# Stress axis : x y z
#
# Youngs Moduli (GPa) = 182.59101 109.87028 75.62697
#
# Poissons Ratio (x) = 0.21425 0.15425
# Poissons Ratio (y) = 0.35606 0.29791
# Poissons Ratio (z) = 0.37241 0.43281
#
# Static dielectric constant tensor:
#      x y z
#    x 1.760490 0.000000 0.000000 
#    y 0.000000 1.742520 0.000000 
#    z 0.000000 0.000000 1.778560 
# 
# From -- ./inp_files/8376.got.cif
#   From: 2010.05.17/outbox.cif.g08.bks.cpg/sg70_5_cif.got.tgz:8376.got - 2010.06.03 15:57:51.
