data_PCOD9517976
_publ_section_title
;
Structure prediction by ZEFSAII (Michael W. Deem and Ramdas Pophale) SiO2 
 PCOD9517976
Probable space group: I M M M
;
_chemical_formula_sum "Si O2"
_cell_formula_units_Z 120
_cell_length_a 8.453961
_cell_length_b 29.544662
_cell_length_c 28.070119
_cell_angle_alpha 90.000000
_cell_angle_beta 90.000000
_cell_angle_gamma 90.000000
_cell_volume 7011.057351
_symmetry_space_group_name_H-M "I M M M"
_symmetry_group_IT_number 71
_symmetry_cell_setting 'orthorhombic'
loop_
_space_group_symop_operation_xyz
x,y,z
-x,-y,z
x,-y,-z
-x,y,-z
-x,-y,-z
x,y,-z
-x,y,z
x,-y,z
1/2+x,1/2+y,1/2+z
1/2-x,1/2-y,1/2+z
1/2+x,1/2-y,1/2-z
1/2-x,1/2+y,1/2-z
1/2-x,1/2-y,1/2-z
1/2+x,1/2+y,1/2-z
1/2-x,1/2+y,1/2+z
1/2+x,1/2-y,1/2+z
loop_
_atom_site_type_symbol
_atom_site_label
_atom_site_fract_x
_atom_site_fract_y
_atom_site_fract_z
Si Si1 0.812335 0.867454 0.734250
Si Si2 0.687107 0.911553 0.101811
Si Si3 0.190985 0.802740 0.655116
Si Si4 0.189482 0.724209 0.052294
Si Si5 0.819843 0.000000 0.943709
Si Si6 0.684992 0.207093 0.806327
Si Si7 0.309742 0.947577 0.204738
Si Si8 0.314931 0.680726 0.405872
O O1 0.758281 0.847657 0.683207
O O2 0.773420 0.826620 0.770948
O O3 0.737824 0.914031 0.752716
O O4 0.000000 0.873662 0.732955
O O5 0.500000 0.902560 0.102705
O O6 0.726116 0.956540 0.073626
O O7 0.742869 0.922720 0.155912
O O8 0.777476 0.869670 0.078167
O O9 0.245413 0.798313 0.600572
O O10 0.245533 0.758567 0.685840
O O11 0.000000 0.800565 0.655468
O O12 0.220771 0.777966 0.058985
O O13 0.000000 0.718306 0.052763
O O14 0.248745 0.709439 0.000000
O O15 0.000000 0.000000 0.924261
O O16 0.829152 0.000000 0.000000
O O17 0.500000 0.207994 0.793316
O O18 0.708096 0.187121 0.859136
O O19 0.500000 0.949522 0.202512
O O20 0.253267 0.000000 0.207431
O O21 0.500000 0.684765 0.392656
#
# Coordination Sequence:
#
# PCOD9517976 Si02
#       8
#    16  16  16  16   8  16  16  16
#     4  11  21  32  49  75 104 132 166 206 251 302
#     4  11  21  36  55  73  96 125 163 211 260 313
#     4   9  20  34  48  72 104 135 168 206 246 297
#     4   9  19  35  53  73  99 132 170 210 249 291
#     4  11  25  41  55  71  91 119 161 215 270 317
#     4  10  18  30  47  69 100 135 169 202 241 293
#     4  10  21  37  54  73  99 131 167 208 255 309
#     4  10  19  31  49  73  99 128 164 208 252 295
#
# _framework density 17.115821
#
# number of rings (size 3 to 8) (size 9 to 14) (size 15 to 20)
#    0.000    1.933    2.000    2.200    0.000    4.267 
#    0.000    1.333    0.000    0.000    0.000    0.000 
#    0.000    0.533    0.000    5.867    0.000    4.267 
#
# Total GULP energy -334613.083535 kJ/mol
# GULP energy per Si atom -5576.884726 kJ/mol
# Density = 1.707686 g / cm^3
# Si number density = 17.115821 Si / 1000 Ang^3
#
#
#
# Elastic Constant Matrix: (Units=GPa)
#
#
# Indices 1 2 3 4 5 6 
#
# 1 17.0493 10.7865 8.3191 0.0000 0.0000 0.0000
# 2 10.7865 46.9972 30.4692 0.0000 0.0000 0.0000
# 3 8.3191 30.4692 76.1332 0.0000 0.0000 0.0000
# 4 0.0000 0.0000 0.0000 7.3996 0.0000 0.0000
# 5 0.0000 0.0000 0.0000 0.0000 19.6423 0.0000
# 6 0.0000 0.0000 0.0000 0.0000 0.0000 23.3506
#
#
#
# Elastic Compliance Matrix: (Units=1/GPa)
#
#
# Indices 1 2 3 4 5 6 
#
# 1 0.068764 -0.014734 -0.001617 0.000000 0.000000 0.000000
# 2 -0.014734 0.031890 -0.011153 0.000000 0.000000 0.000000
# 3 -0.001617 -0.011153 0.017775 0.000000 0.000000 0.000000
# 4 0.000000 0.000000 0.000000 0.135142 0.000000 0.000000
# 5 0.000000 0.000000 0.000000 0.000000 0.050911 0.000000
# 6 0.000000 0.000000 0.000000 0.000000 0.000000 0.042825
#
#
# Mechanical properties :
#
#
# Convention : Reuss Voigt Hill
#
# Bulk Modulus (GPa) = 15.76750 26.59211 21.17980
# Shear Modulus (GPa) = 11.80763 16.11883 13.96323
#
# Velocity S-wave (km/s) = 2.62938 3.07212 2.85933
# Velocity P-wave (km/s) = 4.29540 5.30606 4.82725
#
# Compressibility (1/GPa) = 0.06342161
#
# Stress axis : x y z
#
# Youngs Moduli (GPa) = 14.54248 31.35783 56.25879
#
# Poissons Ratio (x) = 0.46202 0.09099
# Poissons Ratio (y) = 0.21427 0.62744
# Poissons Ratio (z) = 0.02352 0.34972
#
# Static dielectric constant tensor:
#      x y z
#    x 1.596650 0.000000 0.000000 
#    y 0.000000 1.599450 0.000000 
#    z 0.000000 0.000000 1.594050 
# 
# From -- ./inp_files/63797.got.cif
#   From: 2010.05.17/outbox.cif.g08.bks.cpg/sg71_32_cif.got.tgz:63797.got - 2010.06.03 16:22:01.
