data_PCOD9517184
_publ_section_title
;
Structure prediction by ZEFSAII (Michael W. Deem and Ramdas Pophale) SiO2 
 PCOD9517184
Probable space group: F D D D
;
_chemical_formula_sum "Si O2"
_cell_formula_units_Z 54
_cell_length_a 21.000000
_cell_length_b 21.000000
_cell_length_c 27.000000
_cell_angle_alpha 90.000000
_cell_angle_beta 90.000000
_cell_angle_gamma 90.000000
_cell_volume 11907.000000
_symmetry_space_group_name_H-M "F D D D"
_symmetry_group_IT_number 70
_space_group.IT_coordinate_system_code '2'
_symmetry_cell_setting 'orthorhombic'
loop_
_space_group_symop_operation_xyz
x,y,z
1/4-x,1/4-y,z
x,1/4-y,1/4-z
1/4-x,y,1/4-z
-x,-y,-z
3/4+x,3/4+y,-z
-x,3/4+y,3/4+z
3/4+x,-y,3/4+z
x,1/2+y,1/2+z
1/4-x,3/4-y,1/2+z
x,3/4-y,3/4-z
1/4-x,1/2+y,3/4-z
-x,1/2-y,1/2-z
3/4+x,1/4+y,1/2-z
-x,1/4+y,1/4+z
3/4+x,1/2-y,1/4+z
1/2+x,y,1/2+z
3/4-x,1/4-y,1/2+z
1/2+x,1/4-y,3/4-z
3/4-x,y,3/4-z
1/2-x,-y,1/2-z
1/4+x,3/4+y,1/2-z
1/2-x,3/4+y,1/4+z
1/4+x,-y,1/4+z
1/2+x,1/2+y,z
3/4-x,3/4-y,z
1/2+x,3/4-y,1/4-z
3/4-x,1/2+y,1/4-z
1/2-x,1/2-y,-z
1/4+x,1/4+y,-z
1/2-x,1/4+y,3/4+z
1/4+x,1/2-y,3/4+z
loop_
_atom_site_type_symbol
_atom_site_label
_atom_site_fract_x
_atom_site_fract_y
_atom_site_fract_z
Si Si1 0.276737 0.955256 0.445946
Si Si2 0.625000 0.125000 0.869168
Si Si3 0.930737 0.990910 0.693579
Si Si4 0.048877 0.260975 0.634131
Si Si5 0.489224 0.185144 0.219936
Si Si6 0.500729 0.643578 0.434124
Si Si7 0.625000 0.125000 0.625000
Si Si8 0.109464 0.871632 0.934121
O O1 0.327875 0.918540 0.410043
O O2 0.209975 0.912358 0.446572
O O3 0.302025 0.963136 0.502269
O O4 0.269818 0.031249 0.430307
O O5 0.641564 0.186733 0.836113
O O6 0.566515 0.140409 0.904915
O O7 0.887009 0.056125 0.698285
O O8 0.997640 0.997115 0.661650
O O9 0.125000 0.256900 0.625000
O O10 0.037559 0.332636 0.658821
O O11 0.029105 0.202588 0.670798
O O12 0.500000 0.250000 0.250000
O O13 0.506604 0.127797 0.257913
O O14 0.415798 0.173709 0.204543
O O15 0.110073 0.875000 0.875000
#
# Coordination Sequence:
#
# PCOD9517184 Si02
#       8
#    32  16  32  32  32  32   8  32
#     4  12  27  46  74  98 138 184 237 302 361 416
#     4  10  23  44  66  97 135 176 238 275 348 420
#     4  11  24  44  69 100 135 181 235 286 350 427
#     4  10  23  40  65 104 146 177 222 287 345 420
#     4  10  22  41  65 102 140 174 228 274 332 430
#     4  10  23  41  69  99 135 187 224 284 338 432
#     4  12  30  52  64 108 136 176 258 312 348 420
#     4  12  23  46  71  99 138 186 225 288 359 418
#
# _framework density 4.5351470000000003
#
# number of rings (size 3 to 8) (size 9 to 14) (size 15 to 20)
#    0.000    1.185    3.704    1.333    9.333    0.000 
#    2.667    2.222    0.000    0.000    0.000    0.000 
#    0.000    0.000    0.000    0.000    0.000    0.000 
#
# Total GULP energy -300603.937476 kJ/mol
# GULP energy per Si atom -5566.739583 kJ/mol
# Density = 0.452483 g / cm^3
# Si number density = 4.535147 Si / 1000 Ang^3
#
#
#
# Elastic Constant Matrix: (Units=GPa)
#
#
# Indices 1 2 3 4 5 6 
#
# 1 166.5262 74.1619 70.1963 0.0000 0.0000 0.0000
# 2 74.1619 144.4875 51.3836 0.0000 0.0000 0.0000
# 3 70.1963 51.3836 137.5273 0.0000 0.0000 0.0000
# 4 0.0000 0.0000 0.0000 37.3507 0.0000 0.0000
# 5 0.0000 0.0000 0.0000 0.0000 33.9240 0.0000
# 6 0.0000 0.0000 0.0000 0.0000 0.0000 38.8006
#
#
#
# Elastic Compliance Matrix: (Units=1/GPa)
#
#
# Indices 1 2 3 4 5 6 
#
# 1 0.008900 -0.003405 -0.003271 0.000000 0.000000 0.000000
# 2 -0.003405 0.009284 -0.001731 0.000000 0.000000 0.000000
# 3 -0.003271 -0.001731 0.009587 0.000000 0.000000 0.000000
# 4 0.000000 0.000000 0.000000 0.026773 0.000000 0.000000
# 5 0.000000 0.000000 0.000000 0.000000 0.029478 0.000000
# 6 0.000000 0.000000 0.000000 0.000000 0.000000 0.025773
#
#
# Mechanical properties :
#
#
# Convention : Reuss Voigt Hill
#
# Bulk Modulus (GPa) = 91.25105 93.33607 92.29356
# Shear Modulus (GPa) = 38.38433 38.86833 38.62633
#
# Velocity S-wave (km/s) = 4.60492 4.63386 4.61941
# Velocity P-wave (km/s) = 8.87046 8.95508 8.91287
#
# Compressibility (1/GPa) = 0.01095878
#
# Stress axis : x y z
#
# Youngs Moduli (GPa) = 112.35726 107.70858 104.30462
#
# Poissons Ratio (x) = 0.36676 0.34113
# Poissons Ratio (y) = 0.38259 0.18053
# Poissons Ratio (z) = 0.36747 0.18642
#
# Static dielectric constant tensor:
#      x y z
#    x 1.621100 0.000000 0.000000 
#    y 0.000000 1.654580 0.000000 
#    z 0.000000 0.000000 1.658580 
# 
# From -- ./inp_files/60518.got.cif
#   From: 2010.05.17/outbox.ucp.g08.bks.cvg/sg70_31_cif.got.tgz:60518.got - 2010.06.11 16:26:41.
