data_PCOD9517415
_publ_section_title
;
Structure prediction by ZEFSAII (Michael W. Deem and Ramdas Pophale) SiO2 
 PCOD9517415
Probable space group: I M M M
;
_chemical_formula_sum "Si O2"
_cell_formula_units_Z 104
_cell_length_a 29.554681
_cell_length_b 25.238343
_cell_length_c 7.538565
_cell_angle_alpha 90.000000
_cell_angle_beta 90.000000
_cell_angle_gamma 90.000000
_cell_volume 5623.099887
_symmetry_space_group_name_H-M "I M M M"
_symmetry_group_IT_number 71
_symmetry_cell_setting 'orthorhombic'
loop_
_space_group_symop_operation_xyz
x,y,z
-x,-y,z
x,-y,-z
-x,y,-z
-x,-y,-z
x,y,-z
-x,y,z
x,-y,z
1/2+x,1/2+y,1/2+z
1/2-x,1/2-y,1/2+z
1/2+x,1/2-y,1/2-z
1/2-x,1/2+y,1/2-z
1/2-x,1/2-y,1/2-z
1/2+x,1/2+y,1/2-z
1/2-x,1/2+y,1/2+z
1/2+x,1/2-y,1/2+z
loop_
_atom_site_type_symbol
_atom_site_label
_atom_site_fract_x
_atom_site_fract_y
_atom_site_fract_z
Si Si1 0.274558 0.064443 0.705307
Si Si2 0.824280 0.938617 0.282126
Si Si3 0.552640 0.736292 0.783738
Si Si4 0.409826 0.372799 0.789446
Si Si5 0.000000 0.939368 0.212040
Si Si6 0.051295 0.645574 0.712920
Si Si7 0.372571 0.060008 0.712541
O O1 0.274225 0.082136 0.500000
O O2 0.225581 0.079570 0.780311
O O3 0.323461 0.079118 0.783159
O O4 0.274586 0.000000 0.705561
O O5 0.823398 0.938244 0.500000
O O6 0.865834 0.903045 0.219436
O O7 0.831197 0.000000 0.231038
O O8 0.500000 0.728130 0.735919
O O9 0.580911 0.686158 0.718330
O O10 0.565462 0.795518 0.724845
O O11 0.554372 0.735731 0.000000
O O12 0.454989 0.407844 0.766741
O O13 0.402637 0.367410 0.000000
O O14 0.000000 0.000000 0.279571
O O15 0.000000 0.941385 0.000000
O O16 0.048749 0.648478 0.500000
O O17 0.087013 0.600284 0.754785
O O18 0.000000 0.634776 0.777353
O O19 0.367337 0.056284 0.500000
O O20 0.381736 0.000000 0.777554
#
# Coordination Sequence:
#
# PCOD9517415 Si02
#       7
#    16  16  16  16   8  16  16
#     4   7  11  22  39  60  88 115 136 168 217 263
#     4   8  13  21  38  67  92 106 134 183 228 260
#     4   8  14  27  45  63  83 109 144 185 222 253
#     4  10  17  28  49  69  83 108 151 197 224 248
#     4  11  23  33  39  57  95 131 148 171 224 281
#     4   9  18  31  46  63  87 118 146 175 214 261
#     4   9  17  29  46  67  90 116 143 173 213 259
#
# _framework density 18.495135999999999
#
# number of rings (size 3 to 8) (size 9 to 14) (size 15 to 20)
#    0.000    3.308    0.769    3.462    0.000    2.154 
#    0.000    2.308    0.000    1.846    0.000    2.154 
#    0.000    0.000    0.000    0.000    0.000    0.000 
#
# Total GULP energy -289609.384326 kJ/mol
# GULP energy per Si atom -5569.411237 kJ/mol
# Density = 1.845304 g / cm^3
# Si number density = 18.495136 Si / 1000 Ang^3
#
#
#
# Elastic Constant Matrix: (Units=GPa)
#
#
# Indices 1 2 3 4 5 6 
#
# 1 179.5484 112.6154 3.2747 0.0000 0.0000 0.0000
# 2 112.6154 134.1335 4.1503 0.0000 0.0000 0.0000
# 3 3.2747 4.1503 44.2684 0.0000 0.0000 0.0000
# 4 0.0000 0.0000 0.0000 -73.3623 0.0000 0.0000
# 5 0.0000 0.0000 0.0000 0.0000 -19.8812 0.0000
# 6 0.0000 0.0000 0.0000 0.0000 0.0000 11.7064
#
#
#
# Elastic Compliance Matrix: (Units=1/GPa)
#
#
# Indices 1 2 3 4 5 6 
#
# 1 0.011765 -0.009879 0.000056 0.000000 0.000000 0.000000
# 2 -0.009879 0.015773 -0.000748 0.000000 0.000000 0.000000
# 3 0.000056 -0.000748 0.022655 0.000000 0.000000 0.000000
# 4 0.000000 0.000000 0.000000 -0.013631 0.000000 0.000000
# 5 0.000000 0.000000 0.000000 0.000000 -0.050299 0.000000
# 6 0.000000 0.000000 0.000000 0.000000 0.000000 0.085423
#
#
# Mechanical properties :
#
#
# Convention : Reuss Voigt Hill
#
# Bulk Modulus (GPa) = 34.42270 66.44790 50.43530
# Shear Modulus (GPa) = 48.77426 -0.44677 24.16375
#
# Velocity S-wave (km/s) = 5.14088 -0.49202 3.61846
# Velocity P-wave (km/s) = 7.34101 5.97348 6.69226
#
# Compressibility (1/GPa) = 0.02905060
#
# Stress axis : x y z
#
# Youngs Moduli (GPa) = 84.99808 63.40003 44.13942
#
# Poissons Ratio (x) = 0.62635 -0.00247
# Poissons Ratio (y) = 0.83972 0.03301
# Poissons Ratio (z) = -0.00475 0.04742
#
# Static dielectric constant tensor:
#      x y z
#    x 1.667210 0.000000 0.000000 
#    y 0.000000 1.627590 0.000000 
#    z 0.000000 0.000000 1.738200 
# 
# From -- ./inp_files/15528.got.cif
#   From: 2010.05.17/outbox.cif.g08.bks.cpg/sg71_8_cif.got.tgz:15528.got - 2010.06.03 16:22:01.
