data_PCOD9517928
_publ_section_title
;
Structure prediction by ZEFSAII (Michael W. Deem and Ramdas Pophale) SiO2 
 PCOD9517928
Probable space group: I M M M
;
_chemical_formula_sum "Si O2"
_cell_formula_units_Z 66
_cell_length_a 7.304111
_cell_length_b 15.927253
_cell_length_c 26.407573
_cell_angle_alpha 90.000000
_cell_angle_beta 90.000000
_cell_angle_gamma 90.000000
_cell_volume 3072.109790
_symmetry_space_group_name_H-M "I M M M"
_symmetry_group_IT_number 71
_symmetry_cell_setting 'orthorhombic'
loop_
_space_group_symop_operation_xyz
x,y,z
-x,-y,z
x,-y,-z
-x,y,-z
-x,-y,-z
x,y,-z
-x,y,z
x,-y,z
1/2+x,1/2+y,1/2+z
1/2-x,1/2-y,1/2+z
1/2+x,1/2-y,1/2-z
1/2-x,1/2+y,1/2-z
1/2-x,1/2-y,1/2-z
1/2+x,1/2+y,1/2-z
1/2-x,1/2+y,1/2+z
1/2+x,1/2-y,1/2+z
loop_
_atom_site_type_symbol
_atom_site_label
_atom_site_fract_x
_atom_site_fract_y
_atom_site_fract_z
Si Si1 0.220215 0.594019 0.252954
Si Si2 0.223904 0.354127 0.634395
Si Si3 0.223211 0.500000 0.441609
Si Si4 0.287616 0.330021 0.149476
Si Si5 0.724903 0.500000 0.905004
Si Si6 0.000000 0.500000 0.000000
O O1 0.283667 0.500000 0.238943
O O2 0.279860 0.614154 0.309904
O O3 0.275538 0.659840 0.210066
O O4 0.000000 0.593351 0.253391
O O5 0.280291 0.418049 0.590441
O O6 0.288897 0.258212 0.630153
O O7 0.000000 0.354529 0.634356
O O8 0.282612 0.500000 0.500000
O O9 0.000000 0.500000 0.442026
O O10 0.500000 0.327198 0.135816
O O11 0.218700 0.416150 0.125510
O O12 0.500000 0.500000 0.910759
O O13 0.838340 0.500000 0.956195
#
# Coordination Sequence:
#
# PCOD9517928 Si02
#       6
#    16  16   8  16   8   2
#     4  10  18  29  52  79 113 150 189 236 288 354
#     4   9  17  31  49  77 112 147 188 240 297 348
#     4   9  16  29  50  75 102 138 190 241 286 345
#     4  10  20  34  54  81 117 150 183 238 297 357
#     4  10  23  42  62  91 122 153 201 256 298 359
#     4  12  26  44  72  82 116 170 202 248 318 358
#
# _framework density 21.483606999999999
#
# number of rings (size 3 to 8) (size 9 to 14) (size 15 to 20)
#    0.000    2.303    2.424    0.909    1.697    0.000 
#    2.182    0.000    0.000    0.000    0.000    0.000 
#    0.000    2.909    0.000    0.121    0.000    0.000 
#
# Total GULP energy -184005.042293 kJ/mol
# GULP energy per Si atom -5575.910373 kJ/mol
# Density = 2.143471 g / cm^3
# Si number density = 21.483607 Si / 1000 Ang^3
#
#
#
# Elastic Constant Matrix: (Units=GPa)
#
#
# Indices 1 2 3 4 5 6 
#
# 1 92.1134 10.2396 2.6467 0.0000 0.0000 0.0000
# 2 10.2396 206.3062 102.7655 0.0000 0.0000 0.0000
# 3 2.6467 102.7655 178.7455 0.0000 0.0000 0.0000
# 4 0.0000 0.0000 0.0000 13.0238 0.0000 0.0000
# 5 0.0000 0.0000 0.0000 0.0000 13.6486 0.0000
# 6 0.0000 0.0000 0.0000 0.0000 0.0000 -6.4847
#
#
#
# Elastic Compliance Matrix: (Units=1/GPa)
#
#
# Indices 1 2 3 4 5 6 
#
# 1 0.010922 -0.000647 0.000210 0.000000 0.000000 0.000000
# 2 -0.000647 0.006831 -0.003918 0.000000 0.000000 0.000000
# 3 0.000210 -0.003918 0.007844 0.000000 0.000000 0.000000
# 4 0.000000 0.000000 0.000000 0.076782 0.000000 0.000000
# 5 0.000000 0.000000 0.000000 0.000000 0.073268 0.000000
# 6 0.000000 0.000000 0.000000 0.000000 0.000000 -0.154209
#
#
# Mechanical properties :
#
#
# Convention : Reuss Voigt Hill
#
# Bulk Modulus (GPa) = 59.21342 78.71875 68.96609
# Shear Modulus (GPa) = 139.75957 28.13842 83.94899
#
# Velocity S-wave (km/s) = 8.07436 3.62299 6.25785
# Velocity P-wave (km/s) = 10.70276 7.36358 9.18617
#
# Compressibility (1/GPa) = 0.01688806
#
# Stress axis : x y z
#
# Youngs Moduli (GPa) = 91.55794 146.39813 127.49005
#
# Poissons Ratio (x) = 0.09468 -0.02679
# Poissons Ratio (y) = 0.05922 0.49945
# Poissons Ratio (z) = -0.01924 0.57352
#
# Static dielectric constant tensor:
#      x y z
#    x 1.862970 0.000000 0.000000 
#    y 0.000000 1.797960 0.000000 
#    z 0.000000 0.000000 1.720800 
# 
# From -- ./inp_files/14251.got.cif
#   From: 2010.05.17/outbox.cif.g08.bks.cpg/sg71_8_cif.got.tgz:14251.got - 2010.06.03 16:22:01.
