data_PCOD9517025
_publ_section_title
;
Structure prediction by ZEFSAII (Michael W. Deem and Ramdas Pophale) SiO2 
 PCOD9517025
Probable space group: F D D D
;
_chemical_formula_sum "Si O2"
_cell_formula_units_Z 88
_cell_length_a 17.002560
_cell_length_b 6.332812
_cell_length_c 28.716381
_cell_angle_alpha 90.000000
_cell_angle_beta 90.000000
_cell_angle_gamma 90.000000
_cell_volume 3092.008067
_symmetry_space_group_name_H-M "F D D D"
_symmetry_group_IT_number 70
_space_group.IT_coordinate_system_code '2'
_symmetry_cell_setting 'orthorhombic'
loop_
_space_group_symop_operation_xyz
x,y,z
1/4-x,1/4-y,z
x,1/4-y,1/4-z
1/4-x,y,1/4-z
-x,-y,-z
3/4+x,3/4+y,-z
-x,3/4+y,3/4+z
3/4+x,-y,3/4+z
x,1/2+y,1/2+z
1/4-x,3/4-y,1/2+z
x,3/4-y,3/4-z
1/4-x,1/2+y,3/4-z
-x,1/2-y,1/2-z
3/4+x,1/4+y,1/2-z
-x,1/4+y,1/4+z
3/4+x,1/2-y,1/4+z
1/2+x,y,1/2+z
3/4-x,1/4-y,1/2+z
1/2+x,1/4-y,3/4-z
3/4-x,y,3/4-z
1/2-x,-y,1/2-z
1/4+x,3/4+y,1/2-z
1/2-x,3/4+y,1/4+z
1/4+x,-y,1/4+z
1/2+x,1/2+y,z
3/4-x,3/4-y,z
1/2+x,3/4-y,1/4-z
3/4-x,1/2+y,1/4-z
1/2-x,1/2-y,-z
1/4+x,1/4+y,-z
1/2-x,1/4+y,3/4+z
1/4+x,1/2-y,3/4+z
loop_
_atom_site_type_symbol
_atom_site_label
_atom_site_fract_x
_atom_site_fract_y
_atom_site_fract_z
Si Si1 0.875000 0.375000 0.788808
Si Si2 0.244715 0.676379 0.896813
Si Si3 0.821704 0.068002 0.715686
Si Si4 0.625000 0.125000 0.625000
O O1 0.948915 0.311064 0.819505
O O2 0.874967 0.179713 0.753888
O O3 0.203214 0.495733 0.927838
O O4 0.306812 0.550673 0.862756
O O5 0.197945 0.875000 0.875000
O O6 0.750000 0.000000 0.750000
O O7 0.875000 0.875000 0.697307
#
# Coordination Sequence:
#
# PCOD9517025 Si02
#       4
#    16  32  32   8
#     4  12  23  48  80 116 159 224 294 355 430 522
#     4  12  25  43  77 123 165 223 292 364 442 535
#     4  12  27  46  81 121 166 221 295 365 438 531
#     4  12  22  44  80 106 162 208 298 340 438 516
#
# _framework density 28.460467999999999
#
# number of rings (size 3 to 8) (size 9 to 14) (size 15 to 20)
#    0.000    0.000    7.273    3.273    0.000    0.000 
#    0.000    0.000    8.000    4.364    0.000    0.000 
#    0.000    0.000    0.000    0.000    0.000    0.000 
#
# Total GULP energy -122530.013492 kJ/mol
# GULP energy per Si atom -5569.546068 kJ/mol
# Density = 2.839569 g / cm^3
# Si number density = 28.460468 Si / 1000 Ang^3
#
#
#
# Elastic Constant Matrix: (Units=GPa)
#
#
# Indices 1 2 3 4 5 6 
#
# 1 104.9297 94.1544 41.3658 0.0000 0.0000 0.0000
# 2 94.1544 286.7524 90.6135 0.0000 0.0000 0.0000
# 3 41.3658 90.6135 97.8363 0.0000 0.0000 0.0000
# 4 0.0000 0.0000 0.0000 74.5277 0.0000 0.0000
# 5 0.0000 0.0000 0.0000 0.0000 41.8035 0.0000
# 6 0.0000 0.0000 0.0000 0.0000 0.0000 91.7177
#
#
#
# Elastic Compliance Matrix: (Units=1/GPa)
#
#
# Indices 1 2 3 4 5 6 
#
# 1 0.013876 -0.003820 -0.002329 0.000000 0.000000 0.000000
# 2 -0.003820 0.005982 -0.003925 0.000000 0.000000 0.000000
# 3 -0.002329 -0.003925 0.014841 0.000000 0.000000 0.000000
# 4 0.000000 0.000000 0.000000 0.013418 0.000000 0.000000
# 5 0.000000 0.000000 0.000000 0.000000 0.023921 0.000000
# 6 0.000000 0.000000 0.000000 0.000000 0.000000 0.010903
#
#
# Mechanical properties :
#
#
# Convention : Reuss Voigt Hill
#
# Bulk Modulus (GPa) = 68.72337 104.64286 86.68311
# Shear Modulus (GPa) = 46.32182 59.16876 52.74529
#
# Velocity S-wave (km/s) = 4.03871 4.56453 4.30965
# Velocity P-wave (km/s) = 6.77847 8.03912 7.43556
#
# Compressibility (1/GPa) = 0.01455109
#
# Stress axis : x y z
#
# Youngs Moduli (GPa) = 72.06555 167.16541 67.38040
#
# Poissons Ratio (x) = 0.63864 0.15690
# Poissons Ratio (y) = 0.27532 0.26448
# Poissons Ratio (z) = 0.16781 0.65615
#
# Static dielectric constant tensor:
#      x y z
#    x 2.064400 0.000000 0.000000 
#    y 0.000000 2.157860 0.000000 
#    z 0.000000 0.000000 2.231550 
# 
# From -- ./inp_files/67513.got.cif
#   From: 2010.05.17/outbox.cif.g08.bks.cpg/sg70_34_cif.got.tgz:67513.got - 2010.06.03 15:57:51.
