data_PCOD9517353
_publ_section_title
;
Structure prediction by ZEFSAII (Michael W. Deem and Ramdas Pophale) SiO2 
 PCOD9517353
Probable space group: I M M M
;
_chemical_formula_sum "Si O2"
_cell_formula_units_Z 104
_cell_length_a 30.522636
_cell_length_b 7.879120
_cell_length_c 20.103985
_cell_angle_alpha 90.000000
_cell_angle_beta 90.000000
_cell_angle_gamma 90.000000
_cell_volume 4834.837745
_symmetry_space_group_name_H-M "I M M M"
_symmetry_group_IT_number 71
_symmetry_cell_setting 'orthorhombic'
loop_
_space_group_symop_operation_xyz
x,y,z
-x,-y,z
x,-y,-z
-x,y,-z
-x,-y,-z
x,y,-z
-x,y,z
x,-y,z
1/2+x,1/2+y,1/2+z
1/2-x,1/2-y,1/2+z
1/2+x,1/2-y,1/2-z
1/2-x,1/2+y,1/2-z
1/2-x,1/2-y,1/2-z
1/2+x,1/2+y,1/2-z
1/2-x,1/2+y,1/2+z
1/2+x,1/2-y,1/2+z
loop_
_atom_site_type_symbol
_atom_site_label
_atom_site_fract_x
_atom_site_fract_y
_atom_site_fract_z
Si Si1 0.881736 0.207705 0.886918
Si Si2 0.373335 0.704164 0.763861
Si Si3 0.284509 0.293631 0.574554
Si Si4 0.449350 0.707664 0.500000
Si Si5 0.546768 0.693689 0.847163
Si Si6 0.347089 0.809316 0.000000
Si Si7 0.697002 0.204529 0.135385
Si Si8 0.949776 0.261345 0.500000
O O1 0.883397 0.264027 0.810448
O O2 0.834043 0.262854 0.913148
O O3 0.882225 0.000000 0.888004
O O4 0.921136 0.261213 0.935301
O O5 0.374822 0.500000 0.761822
O O6 0.410819 0.772568 0.813670
O O7 0.327043 0.745264 0.797158
O O8 0.270632 0.245796 0.500000
O O9 0.285639 0.500000 0.577133
O O10 0.246969 0.237140 0.625319
O O11 0.449968 0.500000 0.500000
O O12 0.500000 0.763650 0.500000
O O13 0.500000 0.777236 0.831515
O O14 0.544817 0.500000 0.822472
O O15 0.550343 0.681940 0.926672
O O16 0.330176 0.732498 0.069794
O O17 0.399618 0.827198 0.000000
O O18 0.328029 0.000000 0.000000
O O19 0.696421 0.000000 0.134283
O O20 0.000000 0.335057 0.500000
#
# Coordination Sequence:
#
# PCOD9517353 Si02
#       8
#    16  16  16   8  16   8  16   8
#     4   9  17  29  46  71 101 129 162 201 245 301
#     4  10  20  32  47  71 103 133 158 197 254 303
#     4   9  15  27  49  70  91 125 167 205 240 287
#     4   9  16  27  47  76 105 132 166 213 260 297
#     4   9  17  28  42  61  88 124 162 192 228 288
#     4  10  18  29  45  65  88 116 161 208 234 267
#     4  10  19  32  50  72  95 127 171 209 238 280
#     4  10  17  27  43  60  81 116 158 195 233 273
#
# _framework density 21.510546999999999
#
# number of rings (size 3 to 8) (size 9 to 14) (size 15 to 20)
#    0.000    2.538    3.077    0.231    0.000    2.308 
#    0.000    3.462    0.000    0.462    0.000    0.538 
#    0.000    0.615    0.000    0.000    0.000    0.000 
#
# Total GULP energy -289475.431382 kJ/mol
# GULP energy per Si atom -5566.835219 kJ/mol
# Density = 2.146159 g / cm^3
# Si number density = 21.510547 Si / 1000 Ang^3
#
#
#
# Elastic Constant Matrix: (Units=GPa)
#
#
# Indices 1 2 3 4 5 6 
#
# 1 188.3625 8.2045 86.9456 0.0000 0.0000 0.0000
# 2 8.2045 14.4792 5.4068 0.0000 0.0000 0.0000
# 3 86.9456 5.4068 142.9030 0.0000 0.0000 0.0000
# 4 0.0000 0.0000 0.0000 3.5806 0.0000 0.0000
# 5 0.0000 0.0000 0.0000 0.0000 10.7342 0.0000
# 6 0.0000 0.0000 0.0000 0.0000 0.0000 9.4565
#
#
#
# Elastic Compliance Matrix: (Units=1/GPa)
#
#
# Indices 1 2 3 4 5 6 
#
# 1 0.007475 -0.002574 -0.004451 0.000000 0.000000 0.000000
# 2 -0.002574 0.070940 -0.001118 0.000000 0.000000 0.000000
# 3 -0.004451 -0.001118 0.009748 0.000000 0.000000 0.000000
# 4 0.000000 0.000000 0.000000 0.279286 0.000000 0.000000
# 5 0.000000 0.000000 0.000000 0.000000 0.093160 0.000000
# 6 0.000000 0.000000 0.000000 0.000000 0.000000 0.105747
#
#
# Mechanical properties :
#
#
# Convention : Reuss Voigt Hill
#
# Bulk Modulus (GPa) = 13.91241 60.76207 37.33724
# Shear Modulus (GPa) = 8.24263 21.10011 14.67137
#
# Velocity S-wave (km/s) = 1.95965 3.13536 2.61445
# Velocity P-wave (km/s) = 3.40618 6.43554 5.14870
#
# Compressibility (1/GPa) = 0.07187825
#
# Stress axis : x y z
#
# Youngs Moduli (GPa) = 133.77046 14.09635 102.58432
#
# Poissons Ratio (x) = 0.03628 0.45659
# Poissons Ratio (y) = 0.34431 0.11470
# Poissons Ratio (z) = 0.59540 0.01576
#
# Static dielectric constant tensor:
#      x y z
#    x 1.804380 0.000000 0.000000 
#    y 0.000000 8.280770 0.000000 
#    z 0.000000 0.000000 1.771710 
# 
# From -- ./inp_files/49426.got.cif
#   From: 2010.05.17/outbox.cif.g08.bks.cpg/sg71_25_cif.got.tgz:49426.got - 2010.06.03 16:22:01.
