data_PCOD9517876
_publ_section_title
;
Structure prediction by ZEFSAII (Michael W. Deem and Ramdas Pophale) SiO2 
 PCOD9517876
Probable space group: I M M M
;
_chemical_formula_sum "Si O2"
_cell_formula_units_Z 88
_cell_length_a 15.383522
_cell_length_b 29.348888
_cell_length_c 11.724233
_cell_angle_alpha 90.000000
_cell_angle_beta 90.000000
_cell_angle_gamma 90.000000
_cell_volume 5293.365331
_symmetry_space_group_name_H-M "I M M M"
_symmetry_group_IT_number 71
_symmetry_cell_setting 'orthorhombic'
loop_
_space_group_symop_operation_xyz
x,y,z
-x,-y,z
x,-y,-z
-x,y,-z
-x,-y,-z
x,y,-z
-x,y,z
x,-y,z
1/2+x,1/2+y,1/2+z
1/2-x,1/2-y,1/2+z
1/2+x,1/2-y,1/2-z
1/2-x,1/2+y,1/2-z
1/2-x,1/2-y,1/2-z
1/2+x,1/2+y,1/2-z
1/2-x,1/2+y,1/2+z
1/2+x,1/2-y,1/2+z
loop_
_atom_site_type_symbol
_atom_site_label
_atom_site_fract_x
_atom_site_fract_y
_atom_site_fract_z
Si Si1 0.103250 0.690043 0.236270
Si Si2 0.313943 0.947718 0.243074
Si Si3 0.000000 0.554901 0.631813
Si Si4 0.100843 0.788498 0.865234
Si Si5 0.749705 0.359248 0.365561
Si Si6 0.140972 0.549650 0.000000
Si Si7 0.095803 0.349666 0.000000
O O1 0.113698 0.743623 0.211443
O O2 0.164378 0.669584 0.332637
O O3 0.135166 0.665972 0.118871
O O4 0.000000 0.680467 0.253856
O O5 0.412094 0.934032 0.201274
O O6 0.253675 0.908369 0.193908
O O7 0.309133 0.948544 0.380031
O O8 0.298888 0.000000 0.202995
O O9 0.000000 0.500000 0.624667
O O10 0.000000 0.572171 0.500000
O O11 0.167127 0.828306 0.833659
O O12 0.000000 0.802259 0.855274
O O13 0.115525 0.776693 0.000000
O O14 0.747837 0.366822 0.500000
O O15 0.095988 0.500000 0.000000
O O16 0.088676 0.596236 0.000000
O O17 0.000000 0.327481 0.000000
#
# Coordination Sequence:
#
# PCOD9517876 Si02
#       7
#    16  16   8  16  16   8   8
#     4  10  19  33  52  74 103 135 166 204 246 296
#     4  10  21  34  48  70  99 134 172 209 249 298
#     4   9  18  31  45  63  97 142 169 187 237 305
#     4   9  18  35  56  76  99 128 168 215 258 301
#     4  11  22  32  50  78 103 136 170 202 251 307
#     4  10  20  31  46  68  96 129 170 217 249 274
#     4  10  18  29  48  72  96 134 171 198 243 284
#
# _framework density 16.624583999999999
#
# number of rings (size 3 to 8) (size 9 to 14) (size 15 to 20)
#    0.000    2.091    2.727    1.091    2.545    1.636 
#    0.000    0.000    0.000    0.545    0.000    2.545 
#    0.000    2.182    0.000    0.000    0.000    0.000 
#
# Total GULP energy -245146.527869 kJ/mol
# GULP energy per Si atom -5571.511997 kJ/mol
# Density = 1.658675 g / cm^3
# Si number density = 16.624584 Si / 1000 Ang^3
#
#
#
# Elastic Constant Matrix: (Units=GPa)
#
#
# Indices 1 2 3 4 5 6 
#
# 1 49.8698 54.4054 17.8784 0.0000 0.0000 0.0000
# 2 54.4054 124.2131 33.7260 -0.0001 0.0000 0.0000
# 3 17.8784 33.7260 62.8585 -0.0007 0.0002 -0.0001
# 4 0.0000 -0.0001 -0.0007 27.8732 0.0001 -0.0001
# 5 0.0000 0.0000 0.0002 0.0001 7.2894 0.0000
# 6 0.0000 0.0000 -0.0001 -0.0001 0.0000 18.4204
#
#
#
# Elastic Compliance Matrix: (Units=1/GPa)
#
#
# Indices 1 2 3 4 5 6 
#
# 1 0.038669 -0.016330 -0.002237 0.000000 0.000000 0.000000
# 2 -0.016330 0.016319 -0.004111 0.000000 0.000000 0.000000
# 3 -0.002237 -0.004111 0.018751 0.000000 -0.000001 0.000000
# 4 0.000000 0.000000 0.000000 0.035877 0.000000 0.000000
# 5 0.000000 0.000000 -0.000001 0.000000 0.137185 0.000000
# 6 0.000000 0.000000 0.000000 0.000000 0.000000 0.054288
#
#
# Mechanical properties :
#
#
# Convention : Reuss Voigt Hill
#
# Bulk Modulus (GPa) = 35.23195 49.88457 42.55826
# Shear Modulus (GPa) = 14.04865 19.44537 16.74701
#
# Velocity S-wave (km/s) = 2.91013 3.42376 3.17734
# Velocity P-wave (km/s) = 5.70355 6.76026 6.25427
#
# Compressibility (1/GPa) = 0.02838333
#
# Stress axis : x y z
#
# Youngs Moduli (GPa) = 25.86052 61.27672 53.33069
#
# Poissons Ratio (x) = 1.00063 0.11929
# Poissons Ratio (y) = 0.42229 0.21927
# Poissons Ratio (z) = 0.05785 0.25194
#
# Static dielectric constant tensor:
#      x y z
#    x 1.541960 0.000000 0.000000 
#    y 0.000000 1.585000 0.000000 
#    z 0.000000 0.000000 1.594250 
# 
# From -- ./inp_files/22374.got.cif
#   From: 2010.05.17/outbox.cif.g08.bks.cpg/sg71_12_cif.got.tgz:22374.got - 2010.06.03 16:22:01.
