data_PCOD9517714
_publ_section_title
;
Structure prediction by ZEFSAII (Michael W. Deem and Ramdas Pophale) SiO2 
 PCOD9517714
Probable space group: I M M M
;
_chemical_formula_sum "Si O2"
_cell_formula_units_Z 112
_cell_length_a 26.180999
_cell_length_b 14.945721
_cell_length_c 15.389178
_cell_angle_alpha 90.000000
_cell_angle_beta 90.000000
_cell_angle_gamma 90.000000
_cell_volume 6021.691578
_symmetry_space_group_name_H-M "I M M M"
_symmetry_group_IT_number 71
_symmetry_cell_setting 'orthorhombic'
loop_
_space_group_symop_operation_xyz
x,y,z
-x,-y,z
x,-y,-z
-x,y,-z
-x,-y,-z
x,y,-z
-x,y,z
x,-y,z
1/2+x,1/2+y,1/2+z
1/2-x,1/2-y,1/2+z
1/2+x,1/2-y,1/2-z
1/2-x,1/2+y,1/2-z
1/2-x,1/2-y,1/2-z
1/2+x,1/2+y,1/2-z
1/2-x,1/2+y,1/2+z
1/2+x,1/2-y,1/2+z
loop_
_atom_site_type_symbol
_atom_site_label
_atom_site_fract_x
_atom_site_fract_y
_atom_site_fract_z
Si Si1 0.442057 0.896896 0.605726
Si Si2 0.811433 0.596983 0.601023
Si Si3 0.799942 0.100211 0.160827
Si Si4 0.942193 0.897830 0.393884
Si Si5 0.756355 0.103557 0.644028
Si Si6 0.148422 0.220960 0.399505
Si Si7 0.844796 0.717445 0.105132
O O1 0.441873 0.896333 0.500000
O O2 0.500000 0.873471 0.633224
O O3 0.397181 0.830471 0.633453
O O4 0.431725 0.000000 0.632005
O O5 0.826673 0.592330 0.500000
O O6 0.822098 0.500000 0.642371
O O7 0.750514 0.610492 0.601807
O O8 0.837455 0.683869 0.641990
O O9 0.775164 0.104174 0.256417
O O10 0.836334 0.183637 0.143707
O O11 0.821540 0.000000 0.147868
O O12 0.940478 0.898136 0.500000
O O13 0.898779 0.832321 0.359645
O O14 0.000000 0.873768 0.369273
O O15 0.931750 0.000000 0.366906
O O16 0.801703 0.158629 0.599007
O O17 0.703467 0.155584 0.631396
O O18 0.752566 0.000000 0.615410
O O19 0.134600 0.237894 0.500000
O O20 0.844593 0.724123 0.000000
#
# Coordination Sequence:
#
# PCOD9517714 Si02
#       7
#    16  16  16  16  16  16  16
#     4   8  15  29  49  74 103 131 159 197 249 304
#     4   9  17  30  47  66  89 121 162 197 226 269
#     4  10  21  35  48  66  97 135 169 197 233 288
#     4   8  14  25  41  62  89 120 153 188 229 282
#     4  11  22  32  45  71 104 132 155 191 247 301
#     4  10  18  28  46  70  94 121 151 193 240 281
#     4  11  20  31  51  76 100 129 167 210 249 292
#
# _framework density 18.599425
#
# number of rings (size 3 to 8) (size 9 to 14) (size 15 to 20)
#    0.000    2.429    1.429    3.000    0.000    3.143 
#    0.000    0.000    0.000    1.714    0.000    7.000 
#    0.000    0.000    0.000    0.000    0.000    0.000 
#
# Total GULP energy -312163.586622 kJ/mol
# GULP energy per Si atom -5574.349761 kJ/mol
# Density = 1.855709 g / cm^3
# Si number density = 18.599425 Si / 1000 Ang^3
#
#
#
# Elastic Constant Matrix: (Units=GPa)
#
#
# Indices 1 2 3 4 5 6 
#
# 1 131.5017 109.1366 4.1193 0.0000 0.0000 0.0000
# 2 109.1366 185.6755 12.9471 0.0000 0.0000 0.0000
# 3 4.1193 12.9471 28.0277 0.0000 0.0000 0.0000
# 4 0.0000 0.0000 0.0000 13.5969 0.0000 0.0000
# 5 0.0000 0.0000 0.0000 0.0000 -1.1064 0.0000
# 6 0.0000 0.0000 0.0000 0.0000 0.0000 30.0151
#
#
#
# Elastic Compliance Matrix: (Units=1/GPa)
#
#
# Indices 1 2 3 4 5 6 
#
# 1 0.014947 -0.008920 0.001924 0.000000 0.000000 0.000000
# 2 -0.008920 0.010888 -0.003719 0.000000 0.000000 0.000000
# 3 0.001924 -0.003719 0.037114 0.000000 0.000000 0.000000
# 4 0.000000 0.000000 0.000000 0.073546 0.000000 0.000000
# 5 0.000000 0.000000 0.000000 0.000000 -0.903819 0.000000
# 6 0.000000 0.000000 0.000000 0.000000 0.000000 0.033317
#
#
# Mechanical properties :
#
#
# Convention : Reuss Voigt Hill
#
# Bulk Modulus (GPa) = 24.08508 66.40121 45.24314
# Shear Modulus (GPa) = -7.15575 23.10123 7.97274
#
# Velocity S-wave (km/s) = -1.96358 3.52808 2.07265
# Velocity P-wave (km/s) = 2.79940 7.23703 5.48686
#
# Compressibility (1/GPa) = 0.04151948
#
# Stress axis : x y z
#
# Youngs Moduli (GPa) = 66.90393 91.84591 26.94394
#
# Poissons Ratio (x) = 0.81923 -0.05183
# Poissons Ratio (y) = 0.59676 0.10019
# Poissons Ratio (z) = -0.12869 0.34154
#
# Static dielectric constant tensor:
#      x y z
#    x 1.624240 0.000000 0.000000 
#    y 0.000000 1.685790 0.000000 
#    z 0.000000 0.000000 1.604200 
# 
# From -- ./inp_files/39263.got.cif
#   From: 2010.05.17/outbox.cif.g08.bks.cpg/sg71_20_cif.got.tgz:39263.got - 2010.06.03 16:22:01.
