data_PCOD9517577
_publ_section_title
;
Structure prediction by ZEFSAII (Michael W. Deem and Ramdas Pophale) SiO2 
 PCOD9517577
Probable space group: I M M M
;
_chemical_formula_sum "Si O2"
_cell_formula_units_Z 112
_cell_length_a 30.812609
_cell_length_b 7.401108
_cell_length_c 24.600445
_cell_angle_alpha 90.000000
_cell_angle_beta 90.000000
_cell_angle_gamma 90.000000
_cell_volume 5610.068677
_symmetry_space_group_name_H-M "I M M M"
_symmetry_group_IT_number 71
_symmetry_cell_setting 'orthorhombic'
loop_
_space_group_symop_operation_xyz
x,y,z
-x,-y,z
x,-y,-z
-x,y,-z
-x,-y,-z
x,y,-z
-x,y,z
x,-y,z
1/2+x,1/2+y,1/2+z
1/2-x,1/2-y,1/2+z
1/2+x,1/2-y,1/2-z
1/2-x,1/2+y,1/2-z
1/2-x,1/2-y,1/2-z
1/2+x,1/2+y,1/2-z
1/2-x,1/2+y,1/2+z
1/2+x,1/2-y,1/2+z
loop_
_atom_site_type_symbol
_atom_site_label
_atom_site_fract_x
_atom_site_fract_y
_atom_site_fract_z
Si Si1 0.048182 0.219861 0.361737
Si Si2 0.615906 0.298072 0.649736
Si Si3 0.818894 0.208532 0.937962
Si Si4 0.048882 0.779480 0.764617
Si Si5 0.221295 0.206877 0.565664
Si Si6 0.872971 0.778626 0.562947
Si Si7 0.050507 0.717623 0.059729
O O1 0.053118 0.270972 0.298584
O O2 0.087412 0.280729 0.399592
O O3 0.000000 0.276542 0.380050
O O4 0.048631 0.000000 0.362812
O O5 0.630890 0.500000 0.666000
O O6 0.653395 0.211082 0.611969
O O7 0.590328 0.214495 0.700853
O O8 0.576895 0.307851 0.606695
O O9 0.767977 0.209214 0.923133
O O10 0.833094 0.000000 0.941519
O O11 0.823400 0.284951 0.000000
O O12 0.000000 0.723411 0.783295
O O13 0.049283 0.000000 0.767924
O O14 0.217781 0.207300 0.500000
O O15 0.174675 0.282062 0.583485
O O16 0.224290 0.000000 0.584267
O O17 0.879059 0.725120 0.500000
O O18 0.871644 0.000000 0.563321
O O19 0.054147 0.500000 0.064744
O O20 0.000000 0.762980 0.062293
O O21 0.067304 0.767536 0.000000
#
# Coordination Sequence:
#
# PCOD9517577 Si02
#       7
#    16  16  16  16  16  16  16
#     4   8  13  21  34  55  84 112 133 158 196 237
#     4  10  18  27  41  59  77 100 135 177 211 237
#     4   9  17  27  38  55  78 100 127 168 212 247
#     4   8  14  24  37  54  76 102 133 166 199 239
#     4   8  14  25  40  57  78 105 134 161 193 237
#     4   8  13  21  35  57  83 109 136 162 189 231
#     4   9  18  30  40  53  77 105 130 161 206 257
#
# _framework density 19.964103999999999
#
# number of rings (size 3 to 8) (size 9 to 14) (size 15 to 20)
#    0.000    3.429    0.000    3.000    0.000    2.571 
#    0.000    3.571    0.000    0.857    0.000    1.000 
#    0.000    1.714    0.000    5.571    0.000    5.714 
#
# Total GULP energy -311831.162373 kJ/mol
# GULP energy per Si atom -5568.413614 kJ/mol
# Density = 1.991866 g / cm^3
# Si number density = 19.964104 Si / 1000 Ang^3
#
#
#
# Elastic Constant Matrix: (Units=GPa)
#
#
# Indices 1 2 3 4 5 6 
#
# 1 164.9052 7.6581 74.1172 0.0000 0.0000 0.0000
# 2 7.6581 61.7874 2.7889 0.0000 0.0000 0.0000
# 3 74.1172 2.7889 70.9026 0.0000 0.0000 0.0000
# 4 0.0000 0.0000 0.0000 -34.9297 0.0000 0.0000
# 5 0.0000 0.0000 0.0000 0.0000 55.2624 0.0000
# 6 0.0000 0.0000 0.0000 0.0000 0.0000 8.9395
#
#
#
# Elastic Compliance Matrix: (Units=1/GPa)
#
#
# Indices 1 2 3 4 5 6 
#
# 1 0.011486 -0.000883 -0.011972 0.000000 0.000000 0.000000
# 2 -0.000883 0.016281 0.000283 0.000000 0.000000 0.000000
# 3 -0.011972 0.000283 0.026607 0.000000 0.000000 0.000000
# 4 0.000000 0.000000 0.000000 -0.028629 0.000000 0.000000
# 5 0.000000 0.000000 0.000000 0.000000 0.018095 0.000000
# 6 0.000000 0.000000 0.000000 0.000000 0.000000 0.111863
#
#
# Mechanical properties :
#
#
# Convention : Reuss Voigt Hill
#
# Bulk Modulus (GPa) = 34.21143 51.85818 43.03480
# Shear Modulus (GPa) = 26.23404 20.05650 23.14527
#
# Velocity S-wave (km/s) = 3.62893 3.17303 3.40861
# Velocity P-wave (km/s) = 5.89343 6.28142 6.09051
#
# Compressibility (1/GPa) = 0.02923000
#
# Stress axis : x y z
#
# Youngs Moduli (GPa) = 87.06292 61.42039 37.58340
#
# Poissons Ratio (x) = 0.05425 0.44995
# Poissons Ratio (y) = 0.07689 -0.01063
# Poissons Ratio (z) = 1.04231 -0.01737
#
# Static dielectric constant tensor:
#      x y z
#    x 1.729370 0.000000 0.000000 
#    y 0.000000 1.835530 0.000000 
#    z 0.000000 0.000000 1.693730 
# 
# From -- ./inp_files/27967.got.cif
#   From: 2010.05.17/outbox.cif.g08.bks.cpg/sg71_14_cif.got.tgz:27967.got - 2010.06.03 16:22:01.
