data_PCOD9517416
_publ_section_title
;
Structure prediction by ZEFSAII (Michael W. Deem and Ramdas Pophale) SiO2 
 PCOD9517416
Probable space group: I M M M
;
_chemical_formula_sum "Si O2"
_cell_formula_units_Z 128
_cell_length_a 18.033987
_cell_length_b 23.104502
_cell_length_c 20.477467
_cell_angle_alpha 90.000000
_cell_angle_beta 90.000000
_cell_angle_gamma 90.000000
_cell_volume 8532.270177
_symmetry_space_group_name_H-M "I M M M"
_symmetry_group_IT_number 71
_symmetry_cell_setting 'orthorhombic'
loop_
_space_group_symop_operation_xyz
x,y,z
-x,-y,z
x,-y,-z
-x,y,-z
-x,-y,-z
x,y,-z
-x,y,z
x,-y,z
1/2+x,1/2+y,1/2+z
1/2-x,1/2-y,1/2+z
1/2+x,1/2-y,1/2-z
1/2-x,1/2+y,1/2-z
1/2-x,1/2-y,1/2-z
1/2+x,1/2+y,1/2-z
1/2-x,1/2+y,1/2+z
1/2+x,1/2-y,1/2+z
loop_
_atom_site_type_symbol
_atom_site_label
_atom_site_fract_x
_atom_site_fract_y
_atom_site_fract_z
Si Si1 0.910577 0.851788 0.216059
Si Si2 0.660493 0.246927 0.200492
Si Si3 0.412304 0.326600 0.428870
Si Si4 0.702816 0.830961 0.688095
Si Si5 0.683104 0.565377 0.803127
Si Si6 0.413316 0.187051 0.425344
Si Si7 0.587685 0.267676 0.929245
Si Si8 0.413220 0.593474 0.924771
O O1 0.882024 0.794888 0.255076
O O2 0.884234 0.849512 0.140659
O O3 0.875059 0.906218 0.252645
O O4 0.000000 0.852488 0.218565
O O5 0.667565 0.189585 0.243581
O O6 0.737647 0.278247 0.179954
O O7 0.619745 0.236396 0.132963
O O8 0.380961 0.344683 0.500000
O O9 0.500000 0.340916 0.430086
O O10 0.407773 0.256948 0.425267
O O11 0.748615 0.890046 0.693369
O O12 0.643712 0.833788 0.629667
O O13 0.703531 0.500000 0.786108
O O14 0.641264 0.566168 0.872773
O O15 0.396351 0.167896 0.500000
O O16 0.500000 0.172844 0.411654
O O17 0.500000 0.258831 0.931138
O O18 0.598115 0.336959 0.920311
O O19 0.619747 0.251743 0.000000
O O20 0.500000 0.581838 0.909924
O O21 0.400174 0.576588 0.000000
#
# Coordination Sequence:
#
# PCOD9517416 Si02
#       8
#    16  16  16  16  16  16  16  16
#     4  10  17  28  49  73  98 123 152 190 230 275
#     4  10  18  28  44  69  98 125 154 188 227 282
#     4   8  14  25  43  69  98 121 143 179 230 283
#     4  10  20  31  45  65  93 123 157 193 238 274
#     4  11  23  35  46  62  92 131 169 200 226 264
#     4   9  17  29  47  72  95 115 145 187 238 292
#     4   9  16  27  45  70 101 130 149 175 223 279
#     4   9  17  30  47  67  94 128 163 196 225 258
#
# _framework density 15.001868999999999
#
# number of rings (size 3 to 8) (size 9 to 14) (size 15 to 20)
#    0.000    2.500    3.750    2.250    0.000    2.750 
#    0.000    0.625    0.000    0.750    0.000    2.625 
#    0.000    0.000    0.000    1.375    0.000    0.000 
#
# Total GULP energy -356336.796653 kJ/mol
# GULP energy per Si atom -5567.762448 kJ/mol
# Density = 1.496772 g / cm^3
# Si number density = 15.001869 Si / 1000 Ang^3
#
#
#
# Elastic Constant Matrix: (Units=GPa)
#
#
# Indices 1 2 3 4 5 6 
#
# 1 57.9996 30.1740 52.7587 0.0000 0.0000 0.0000
# 2 30.1740 59.1312 40.8305 0.0000 0.0000 0.0000
# 3 52.7587 40.8305 131.8463 -0.0001 0.0000 0.0000
# 4 0.0000 0.0000 -0.0001 -75.0327 0.0000 0.0000
# 5 0.0000 0.0000 0.0000 0.0000 14.7852 0.0000
# 6 0.0000 0.0000 0.0000 0.0000 0.0000 4.6402
#
#
#
# Elastic Compliance Matrix: (Units=1/GPa)
#
#
# Indices 1 2 3 4 5 6 
#
# 1 0.030516 -0.009082 -0.009398 0.000000 0.000000 0.000000
# 2 -0.009082 0.024215 -0.003865 0.000000 0.000000 0.000000
# 3 -0.009398 -0.003865 0.012542 0.000000 0.000000 0.000000
# 4 0.000000 0.000000 0.000000 -0.013328 0.000000 0.000000
# 5 0.000000 0.000000 0.000000 0.000000 0.067635 0.000000
# 6 0.000000 0.000000 0.000000 0.000000 0.000000 0.215506
#
#
# Mechanical properties :
#
#
# Convention : Reuss Voigt Hill
#
# Bulk Modulus (GPa) = 44.28270 55.16705 49.72488
# Shear Modulus (GPa) = 12.84345 -2.77385 5.03480
#
# Velocity S-wave (km/s) = 2.92913 -1.36126 1.83396
# Velocity P-wave (km/s) = 6.40484 5.86367 6.14022
#
# Compressibility (1/GPa) = 0.02258218
#
# Stress axis : x y z
#
# Youngs Moduli (GPa) = 32.77021 41.29737 79.73121
#
# Poissons Ratio (x) = 0.37507 0.74934
# Poissons Ratio (y) = 0.29762 0.30813
# Poissons Ratio (z) = 0.30798 0.15960
#
# Static dielectric constant tensor:
#      x y z
#    x 1.517770 0.000000 0.000000 
#    y 0.000000 1.474470 0.000000 
#    z 0.000000 0.000000 1.545090 
# 
# From -- ./inp_files/54490.got.cif
#   From: 2010.05.17/outbox.cif.g08.bks.cpg/sg71_28_cif.got.tgz:54490.got - 2010.06.03 16:22:01.
