data_PCOD9517726
_publ_section_title
;
Structure prediction by ZEFSAII (Michael W. Deem and Ramdas Pophale) SiO2 
 PCOD9517726
Probable space group: I M M M
;
_chemical_formula_sum "Si O2"
_cell_formula_units_Z 104
_cell_length_a 10.036686
_cell_length_b 22.460384
_cell_length_c 28.212179
_cell_angle_alpha 90.000000
_cell_angle_beta 90.000000
_cell_angle_gamma 90.000000
_cell_volume 6359.810056
_symmetry_space_group_name_H-M "I M M M"
_symmetry_group_IT_number 71
_symmetry_cell_setting 'orthorhombic'
loop_
_space_group_symop_operation_xyz
x,y,z
-x,-y,z
x,-y,-z
-x,y,-z
-x,-y,-z
x,y,-z
-x,y,z
x,-y,z
1/2+x,1/2+y,1/2+z
1/2-x,1/2-y,1/2+z
1/2+x,1/2-y,1/2-z
1/2-x,1/2+y,1/2-z
1/2-x,1/2-y,1/2-z
1/2+x,1/2+y,1/2-z
1/2-x,1/2+y,1/2+z
1/2+x,1/2-y,1/2+z
loop_
_atom_site_type_symbol
_atom_site_label
_atom_site_fract_x
_atom_site_fract_y
_atom_site_fract_z
Si Si1 0.339235 0.620396 0.606491
Si Si2 0.000000 0.571606 0.056368
Si Si3 0.341612 0.693895 0.807703
Si Si4 0.157257 0.189729 0.802589
Si Si5 0.752333 0.136796 0.400065
Si Si6 0.163108 0.000000 0.055529
Si Si7 0.842171 0.757860 0.943682
Si Si8 0.500000 0.568767 0.943332
O O1 0.500000 0.617464 0.603221
O O2 0.308655 0.636727 0.661014
O O3 0.290666 0.559242 0.583229
O O4 0.298168 0.678631 0.576783
O O5 0.874902 0.599481 0.083406
O O6 0.000000 0.500000 0.058163
O O7 0.000000 0.588748 0.000000
O O8 0.500000 0.703395 0.817611
O O9 0.254328 0.754353 0.812135
O O10 0.330172 0.674410 0.752820
O O11 0.281284 0.646779 0.844611
O O12 0.000000 0.205936 0.810834
O O13 0.734968 0.203019 0.421048
O O14 0.873871 0.102942 0.423577
O O15 0.000000 0.000000 0.055844
O O16 0.201854 0.000000 0.000000
O O17 0.000000 0.750451 0.932393
O O18 0.828568 0.757048 0.000000
O O19 0.500000 0.500000 0.928183
O O20 0.500000 0.570092 0.000000
#
# Coordination Sequence:
#
# PCOD9517726 Si02
#       8
#    16   8  16  16  16   8  16   8
#     4   9  16  27  46  71 104 139 175 212 259 314
#     4  11  24  40  58  79 104 139 187 230 269 332
#     4  10  20  34  52  81 110 139 178 222 278 333
#     4   9  18  33  55  78 106 142 181 224 270 323
#     4  12  21  35  56  78 107 138 176 229 276 324
#     4   9  16  26  42  70 111 149 173 203 260 325
#     4  10  18  28  46  75 104 130 168 223 275 315
#     4  11  24  40  56  73 104 147 181 212 271 346
#
# _framework density 16.352689999999999
#
# number of rings (size 3 to 8) (size 9 to 14) (size 15 to 20)
#    0.000    1.923    3.077    2.308    1.077    3.077 
#    0.000    0.000    3.385    0.000    0.000    0.538 
#    0.000    0.615    0.000    0.000    0.000    0.000 
#
# Total GULP energy -289842.797828 kJ/mol
# GULP energy per Si atom -5573.899958 kJ/mol
# Density = 1.631547 g / cm^3
# Si number density = 16.352690 Si / 1000 Ang^3
#
#
#
# Elastic Constant Matrix: (Units=GPa)
#
#
# Indices 1 2 3 4 5 6 
#
# 1 86.3353 41.1447 47.5291 0.0000 0.0000 0.0000
# 2 41.1447 128.3236 72.7856 0.0000 0.0000 0.0000
# 3 47.5291 72.7856 126.6829 0.0000 0.0000 0.0000
# 4 0.0000 0.0000 0.0000 27.4060 0.0000 0.0000
# 5 0.0000 0.0000 0.0000 0.0000 19.5849 0.0000
# 6 0.0000 0.0000 0.0000 0.0000 0.0000 -19.1205
#
#
#
# Elastic Compliance Matrix: (Units=1/GPa)
#
#
# Indices 1 2 3 4 5 6 
#
# 1 0.015085 -0.002413 -0.004273 0.000000 0.000000 0.000000
# 2 -0.002413 0.011946 -0.005958 0.000000 0.000000 0.000000
# 3 -0.004273 -0.005958 0.012920 0.000000 0.000000 0.000000
# 4 0.000000 0.000000 0.000000 0.036488 0.000000 0.000000
# 5 0.000000 0.000000 0.000000 0.000000 0.051060 0.000000
# 6 0.000000 0.000000 0.000000 0.000000 0.000000 -0.052300
#
#
# Mechanical properties :
#
#
# Convention : Reuss Voigt Hill
#
# Bulk Modulus (GPa) = 68.20154 73.80675 71.00414
# Shear Modulus (GPa) = 47.44892 17.56624 32.50758
#
# Velocity S-wave (km/s) = 5.39249 3.28107 4.46343
# Velocity P-wave (km/s) = 8.97603 7.71921 8.37124
#
# Compressibility (1/GPa) = 0.01466243
#
# Stress axis : x y z
#
# Youngs Moduli (GPa) = 66.28996 83.70980 77.39738
#
# Poissons Ratio (x) = 0.20199 0.33075
# Poissons Ratio (y) = 0.15996 0.46116
# Poissons Ratio (z) = 0.28328 0.49877
#
# Static dielectric constant tensor:
#      x y z
#    x 1.532090 0.000000 0.000000 
#    y 0.000000 1.532800 0.000000 
#    z 0.000000 0.000000 1.567530 
# 
# From -- ./inp_files/63602.got.cif
#   From: 2010.05.17/outbox.cif.g08.bks.cpg/sg71_32_cif.got.tgz:63602.got - 2010.06.03 16:22:01.
