data_PCOD9517907
_publ_section_title
;
Structure prediction by ZEFSAII (Michael W. Deem and Ramdas Pophale) SiO2 
 PCOD9517907
Probable space group: I M M M
;
_chemical_formula_sum "Si O2"
_cell_formula_units_Z 104
_cell_length_a 29.234167
_cell_length_b 8.043578
_cell_length_c 23.867904
_cell_angle_alpha 90.000000
_cell_angle_beta 90.000000
_cell_angle_gamma 90.000000
_cell_volume 5612.473243
_symmetry_space_group_name_H-M "I M M M"
_symmetry_group_IT_number 71
_symmetry_cell_setting 'orthorhombic'
loop_
_space_group_symop_operation_xyz
x,y,z
-x,-y,z
x,-y,-z
-x,y,-z
-x,-y,-z
x,y,-z
-x,y,z
x,-y,z
1/2+x,1/2+y,1/2+z
1/2-x,1/2-y,1/2+z
1/2+x,1/2-y,1/2-z
1/2-x,1/2+y,1/2-z
1/2-x,1/2-y,1/2-z
1/2+x,1/2+y,1/2-z
1/2-x,1/2+y,1/2+z
1/2+x,1/2-y,1/2+z
loop_
_atom_site_type_symbol
_atom_site_label
_atom_site_fract_x
_atom_site_fract_y
_atom_site_fract_z
Si Si1 0.802023 0.195461 0.673398
Si Si2 0.702689 0.803725 0.699836
Si Si3 0.551829 0.699649 0.774963
Si Si4 0.605335 0.197424 0.885450
Si Si5 0.608315 0.297965 0.667251
Si Si6 0.552695 0.702684 0.439523
Si Si7 0.445491 0.796609 0.000000
O O1 0.749554 0.260673 0.671490
O O2 0.810165 0.222530 0.740102
O O3 0.842140 0.264554 0.633592
O O4 0.801650 0.000000 0.661943
O O5 0.659077 0.770119 0.662611
O O6 0.709010 0.000000 0.710521
O O7 0.500000 0.763983 0.771432
O O8 0.549865 0.500000 0.769445
O O9 0.574533 0.738845 0.834195
O O10 0.583394 0.760445 0.724050
O O11 0.601712 0.000000 0.887475
O O12 0.583052 0.258125 0.944354
O O13 0.609952 0.500000 0.668518
O O14 0.579740 0.240912 0.614126
O O15 0.571190 0.755309 0.500000
O O16 0.500000 0.753484 0.435763
O O17 0.553060 0.500000 0.438587
O O18 0.500000 0.746684 0.000000
O O19 0.446027 0.000000 0.000000
#
# Coordination Sequence:
#
# PCOD9517907 Si02
#       7
#    16  16  16  16  16  16   8
#     4  10  20  35  54  77 105 135 169 213 262 314
#     4  10  20  33  52  78 106 136 170 208 258 318
#     4  10  20  32  47  73 109 141 170 210 262 315
#     4  11  21  35  57  80 104 138 179 221 268 318
#     4  10  18  29  49  76 106 138 169 212 262 303
#     4   8  14  26  46  72 101 135 175 211 244 290
#     4   9  20  38  57  79 109 143 179 223 274 325
#
# _framework density 18.530155000000001
#
# number of rings (size 3 to 8) (size 9 to 14) (size 15 to 20)
#    0.000    2.231    1.538    2.769    0.000    4.615 
#    0.000    1.538    1.692    4.615    0.000    1.077 
#    0.000    0.000    0.000    0.000    0.000    0.000 
#
# Total GULP energy -289743.965368 kJ/mol
# GULP energy per Si atom -5571.999334 kJ/mol
# Density = 1.848798 g / cm^3
# Si number density = 18.530155 Si / 1000 Ang^3
#
#
#
# Elastic Constant Matrix: (Units=GPa)
#
#
# Indices 1 2 3 4 5 6 
#
# 1 147.1288 1.4175 75.9849 0.0000 0.0000 0.0000
# 2 1.4175 8.8552 -1.5871 0.0000 0.0000 0.0000
# 3 75.9849 -1.5871 111.0042 0.0000 0.0000 0.0000
# 4 0.0000 0.0000 0.0000 11.5014 0.0000 0.0000
# 5 0.0000 0.0000 0.0000 0.0000 -9.1587 0.0000
# 6 0.0000 0.0000 0.0000 0.0000 0.0000 20.4017
#
#
#
# Elastic Compliance Matrix: (Units=1/GPa)
#
#
# Indices 1 2 3 4 5 6 
#
# 1 0.010593 -0.003003 -0.007294 0.000000 0.000000 0.000000
# 2 -0.003003 0.114070 0.003686 0.000000 0.000000 0.000000
# 3 -0.007294 0.003686 0.014054 0.000000 0.000000 0.000000
# 4 0.000000 0.000000 0.000000 0.086946 0.000000 0.000000
# 5 0.000000 0.000000 0.000000 0.000000 -0.109186 0.000000
# 6 0.000000 0.000000 0.000000 0.000000 0.000000 0.049016
#
#
# Mechanical properties :
#
#
# Convention : Reuss Voigt Hill
#
# Bulk Modulus (GPa) = 7.96836 46.51318 27.24077
# Shear Modulus (GPa) = 22.67118 17.29375 19.98246
#
# Velocity S-wave (km/s) = 3.50162 3.05827 3.28743
# Velocity P-wave (km/s) = 4.54510 6.13405 5.39836
#
# Compressibility (1/GPa) = 0.12549630
#
# Stress axis : x y z
#
# Youngs Moduli (GPa) = 94.40556 8.76655 71.15334
#
# Poissons Ratio (x) = 0.02632 0.51898
# Poissons Ratio (y) = 0.28349 -0.26230
# Poissons Ratio (z) = 0.68858 -0.03232
#
# Static dielectric constant tensor:
#      x y z
#    x 1.676360 0.000000 0.000000 
#    y 0.000000 1.676570 0.000000 
#    z 0.000000 0.000000 1.633130 
# 
# From -- ./inp_files/56695.got.cif
#   From: 2010.05.17/outbox.cif.g08.bks.cpg/sg71_29_cif.got.tgz:56695.got - 2010.06.03 16:22:01.
