data_PCOD9517952
_publ_section_title
;
Structure prediction by ZEFSAII (Michael W. Deem and Ramdas Pophale) SiO2 
 PCOD9517952
Probable space group: I M M M
;
_chemical_formula_sum "Si O2"
_cell_formula_units_Z 96
_cell_length_a 15.561899
_cell_length_b 16.169702
_cell_length_c 23.126241
_cell_angle_alpha 90.000000
_cell_angle_beta 90.000000
_cell_angle_gamma 90.000000
_cell_volume 5819.285379
_symmetry_space_group_name_H-M "I M M M"
_symmetry_group_IT_number 71
_symmetry_cell_setting 'orthorhombic'
loop_
_space_group_symop_operation_xyz
x,y,z
-x,-y,z
x,-y,-z
-x,y,-z
-x,-y,-z
x,y,-z
-x,y,z
x,-y,z
1/2+x,1/2+y,1/2+z
1/2-x,1/2-y,1/2+z
1/2+x,1/2-y,1/2-z
1/2-x,1/2+y,1/2-z
1/2-x,1/2-y,1/2-z
1/2+x,1/2+y,1/2-z
1/2-x,1/2+y,1/2+z
1/2+x,1/2-y,1/2+z
loop_
_atom_site_type_symbol
_atom_site_label
_atom_site_fract_x
_atom_site_fract_y
_atom_site_fract_z
Si Si1 0.000000 0.098724 0.068892
Si Si2 0.657088 0.905516 0.122219
Si Si3 0.399939 0.599250 0.773577
Si Si4 0.740209 0.193559 0.692802
Si Si5 0.158697 0.151662 0.855601
Si Si6 0.904841 0.400649 0.745647
Si Si7 0.602646 0.903720 0.000000
O O1 0.916018 0.137885 0.098446
O O2 0.000000 0.000000 0.081456
O O3 0.000000 0.109494 0.000000
O O4 0.758993 0.904896 0.131118
O O5 0.617018 0.868827 0.180835
O O6 0.634218 0.866236 0.060608
O O7 0.623992 0.000000 0.119679
O O8 0.500000 0.617708 0.785734
O O9 0.387619 0.500000 0.776992
O O10 0.331103 0.647337 0.813630
O O11 0.378572 0.627529 0.707610
O O12 0.750000 0.250000 0.750000
O O13 0.700571 0.256615 0.646465
O O14 0.667512 0.128339 0.710547
O O15 0.903843 0.500000 0.743271
O O16 0.000000 0.371957 0.762091
O O17 0.500000 0.904040 0.000000
O O18 0.633792 0.000000 0.000000
#
# Coordination Sequence:
#
# PCOD9517952 Si02
#       7
#     8  16  16  16  16  16   8
#     4  11  24  38  56  78 101 139 191 224 244 291
#     4  10  18  30  46  63  91 126 166 209 246 292
#     4  10  18  31  51  72 101 138 174 211 254 313
#     4  10  20  31  45  70 100 133 167 208 255 314
#     4  11  21  33  47  72 100 135 170 213 264 299
#     4  10  19  30  47  68  95 130 167 204 244 299
#     4   9  18  30  44  63  85 119 166 208 249 291
#
# _framework density 16.496870999999999
#
# number of rings (size 3 to 8) (size 9 to 14) (size 15 to 20)
#    0.000    1.833    4.167    2.500    2.333    2.667 
#    0.000    0.000    0.000    0.000    0.000    0.000 
#    0.000    5.333    0.000    1.833    0.000    0.000 
#
# Total GULP energy -267432.323836 kJ/mol
# GULP energy per Si atom -5571.506747 kJ/mol
# Density = 1.645932 g / cm^3
# Si number density = 16.496871 Si / 1000 Ang^3
#
#
#
# Elastic Constant Matrix: (Units=GPa)
#
#
# Indices 1 2 3 4 5 6 
#
# 1 128.4965 44.7915 27.3464 0.0000 0.0000 0.0000
# 2 44.7915 59.5110 25.5053 0.0000 0.0000 0.0000
# 3 27.3464 25.5053 48.9773 0.0000 0.0000 0.0000
# 4 0.0000 0.0000 0.0000 14.9762 0.0000 0.0000
# 5 0.0000 0.0000 0.0000 0.0000 14.9549 0.0000
# 6 0.0000 0.0000 0.0000 0.0000 0.0000 21.0583
#
#
#
# Elastic Compliance Matrix: (Units=1/GPa)
#
#
# Indices 1 2 3 4 5 6 
#
# 1 0.010748 -0.007103 -0.002302 0.000000 0.000000 0.000000
# 2 -0.007103 0.026326 -0.009743 0.000000 0.000000 0.000000
# 3 -0.002302 -0.009743 0.026777 0.000000 0.000000 0.000000
# 4 0.000000 0.000000 0.000000 0.066772 0.000000 0.000000
# 5 0.000000 0.000000 0.000000 0.000000 0.066868 0.000000
# 6 0.000000 0.000000 0.000000 0.000000 0.000000 0.047487
#
#
# Mechanical properties :
#
#
# Convention : Reuss Voigt Hill
#
# Bulk Modulus (GPa) = 39.13345 48.03013 43.58179
# Shear Modulus (GPa) = 17.13543 19.48734 18.31139
#
# Velocity S-wave (km/s) = 3.22640 3.44070 3.33527
# Velocity P-wave (km/s) = 6.13618 6.70540 6.42710
#
# Compressibility (1/GPa) = 0.02555359
#
# Stress axis : x y z
#
# Youngs Moduli (GPa) = 93.03809 37.98589 37.34550
#
# Poissons Ratio (x) = 0.26982 0.08598
# Poissons Ratio (y) = 0.66086 0.36387
# Poissons Ratio (z) = 0.21420 0.37011
#
# Static dielectric constant tensor:
#      x y z
#    x 1.581690 0.000000 0.000000 
#    y 0.000000 1.599990 0.000000 
#    z 0.000000 0.000000 1.558370 
# 
# From -- ./inp_files/65487.got.cif
#   From: 2010.05.17/outbox.cif.g08.bks.cpg/sg71_33_cif.got.tgz:65487.got - 2010.06.03 16:22:01.
