data_PCOD9517443
_publ_section_title
;
Structure prediction by ZEFSAII (Michael W. Deem and Ramdas Pophale) SiO2 
 PCOD9517443
Probable space group: I M M M
;
_chemical_formula_sum "Si O2"
_cell_formula_units_Z 128
_cell_length_a 22.880605
_cell_length_b 20.680259
_cell_length_c 15.840823
_cell_angle_alpha 90.000000
_cell_angle_beta 90.000000
_cell_angle_gamma 90.000000
_cell_volume 7495.510530
_symmetry_space_group_name_H-M "I M M M"
_symmetry_group_IT_number 71
_symmetry_cell_setting 'orthorhombic'
loop_
_space_group_symop_operation_xyz
x,y,z
-x,-y,z
x,-y,-z
-x,y,-z
-x,-y,-z
x,y,-z
-x,y,z
x,-y,z
1/2+x,1/2+y,1/2+z
1/2-x,1/2-y,1/2+z
1/2+x,1/2-y,1/2-z
1/2-x,1/2+y,1/2-z
1/2-x,1/2-y,1/2-z
1/2+x,1/2+y,1/2-z
1/2-x,1/2+y,1/2+z
1/2+x,1/2-y,1/2+z
loop_
_atom_site_type_symbol
_atom_site_label
_atom_site_fract_x
_atom_site_fract_y
_atom_site_fract_z
Si Si1 0.400717 0.570712 0.731790
Si Si2 0.436083 0.717543 0.272861
Si Si3 0.336854 0.405030 0.903646
Si Si4 0.699601 0.928301 0.600683
Si Si5 0.296583 0.572233 0.403899
Si Si6 0.222577 0.304523 0.362396
Si Si7 0.678826 0.208451 0.670779
Si Si8 0.111365 0.236881 0.590911
O O1 0.429033 0.500000 0.716266
O O2 0.433057 0.639266 0.722882
O O3 0.375818 0.569194 0.827315
O O4 0.347420 0.576271 0.665494
O O5 0.500000 0.738709 0.303156
O O6 0.380642 0.750054 0.319527
O O7 0.427779 0.736910 0.174227
O O8 0.269331 0.419651 0.884560
O O9 0.350349 0.328821 0.902691
O O10 0.349329 0.427026 0.000000
O O11 0.691652 0.928555 0.500000
O O12 0.669859 0.863625 0.635770
O O13 0.682412 0.000000 0.633027
O O14 0.319246 0.580170 0.500000
O O15 0.271247 0.500000 0.397661
O O16 0.250152 0.627415 0.385554
O O17 0.272496 0.250195 0.379618
O O18 0.206725 0.300711 0.263500
O O19 0.160976 0.291271 0.406019
O O20 0.080830 0.236703 0.500000
#
# Coordination Sequence:
#
# PCOD9517443 Si02
#       8
#    16  16  16  16  16  16  16  16
#     4  10  19  32  49  69  98 134 172 216 253 283
#     4  10  21  36  51  69  95 131 177 217 248 291
#     4   9  16  27  45  74 108 137 163 193 242 309
#     4  10  19  29  46  75 106 131 155 190 245 313
#     4  10  20  31  46  72 103 135 168 202 249 303
#     4  10  17  29  50  74 101 132 164 203 249 301
#     4  10  19  32  49  73 100 128 166 207 250 299
#     4   9  17  29  49  75 102 132 164 201 248 301
#
# _framework density 17.076889000000001
#
# number of rings (size 3 to 8) (size 9 to 14) (size 15 to 20)
#    0.000    2.250    2.500    1.500    0.000    3.250 
#    0.000    0.000    0.000    1.875    0.000    6.125 
#    0.000    0.000    0.000   13.250    0.000    0.000 
#
# Total GULP energy -356428.893238 kJ/mol
# GULP energy per Si atom -5569.201457 kJ/mol
# Density = 1.703802 g / cm^3
# Si number density = 17.076889 Si / 1000 Ang^3
#
#
#
# Elastic Constant Matrix: (Units=GPa)
#
#
# Indices 1 2 3 4 5 6 
#
# 1 57.4019 36.9722 11.8235 0.0000 0.0000 0.0000
# 2 36.9722 102.0500 15.8511 0.0000 0.0000 0.0000
# 3 11.8235 15.8511 23.6226 0.0000 0.0000 0.0000
# 4 0.0000 0.0000 0.0000 20.7402 0.0000 0.0000
# 5 0.0000 0.0000 0.0000 0.0000 -4.9525 0.0000
# 6 0.0000 0.0000 0.0000 0.0000 0.0000 -2.5260
#
#
#
# Elastic Compliance Matrix: (Units=1/GPa)
#
#
# Indices 1 2 3 4 5 6 
#
# 1 0.023663 -0.007517 -0.006800 0.000000 0.000000 0.000000
# 2 -0.007517 0.013327 -0.005180 0.000000 0.000000 0.000000
# 3 -0.006800 -0.005180 0.049212 0.000000 0.000000 0.000000
# 4 0.000000 0.000000 0.000000 0.048215 0.000000 0.000000
# 5 0.000000 0.000000 0.000000 0.000000 -0.201917 0.000000
# 6 0.000000 0.000000 0.000000 0.000000 0.000000 -0.395881
#
#
# Mechanical properties :
#
#
# Convention : Reuss Voigt Hill
#
# Bulk Modulus (GPa) = 21.18290 34.70759 27.94524
# Shear Modulus (GPa) = -12.23540 10.54752 -0.84394
#
# Velocity S-wave (km/s) = -2.67963 2.48795 -0.70376
# Velocity P-wave (km/s) = 1.69039 5.34992 3.96731
#
# Compressibility (1/GPa) = 0.04720789
#
# Stress axis : x y z
#
# Youngs Moduli (GPa) = 42.25967 75.03517 20.32033
#
# Poissons Ratio (x) = 0.56403 0.13818
# Poissons Ratio (y) = 0.31766 0.10527
# Poissons Ratio (z) = 0.28736 0.38871
#
# Static dielectric constant tensor:
#      x y z
#    x 1.545870 0.000000 0.000000 
#    y 0.000000 1.612500 0.000000 
#    z 0.000000 0.000000 1.619210 
# 
# From -- ./inp_files/48434.got.cif
#   From: 2010.05.17/outbox.cif.g08.bks.cpg/sg71_25_cif.got.tgz:48434.got - 2010.06.03 16:22:01.
