data_PCOD9517371
_publ_section_title
;
Structure prediction by ZEFSAII (Michael W. Deem and Ramdas Pophale) SiO2 
 PCOD9517371
Probable space group: I M M M
;
_chemical_formula_sum "Si O2"
_cell_formula_units_Z 120
_cell_length_a 8.230917
_cell_length_b 30.069371
_cell_length_c 28.335363
_cell_angle_alpha 90.000000
_cell_angle_beta 90.000000
_cell_angle_gamma 90.000000
_cell_volume 7012.959753
_symmetry_space_group_name_H-M "I M M M"
_symmetry_group_IT_number 71
_symmetry_cell_setting 'orthorhombic'
loop_
_space_group_symop_operation_xyz
x,y,z
-x,-y,z
x,-y,-z
-x,y,-z
-x,-y,-z
x,y,-z
-x,y,z
x,-y,z
1/2+x,1/2+y,1/2+z
1/2-x,1/2-y,1/2+z
1/2+x,1/2-y,1/2-z
1/2-x,1/2+y,1/2-z
1/2-x,1/2-y,1/2-z
1/2+x,1/2+y,1/2-z
1/2-x,1/2+y,1/2+z
1/2+x,1/2-y,1/2+z
loop_
_atom_site_type_symbol
_atom_site_label
_atom_site_fract_x
_atom_site_fract_y
_atom_site_fract_z
Si Si1 0.000000 0.948385 0.442489
Si Si2 0.307448 0.196054 0.595728
Si Si3 0.301778 0.551399 0.554113
Si Si4 0.808555 0.313290 0.294664
Si Si5 0.804642 0.131114 0.120777
Si Si6 0.819544 0.399459 0.944131
Si Si7 0.698523 0.289373 0.553307
Si Si8 0.691051 0.712227 0.804294
O O1 0.165592 0.925910 0.424751
O O2 0.000000 0.943954 0.500000
O O3 0.000000 0.000000 0.431269
O O4 0.500000 0.201582 0.604864
O O5 0.289118 0.152691 0.563964
O O6 0.248418 0.240942 0.570796
O O7 0.221403 0.190105 0.645609
O O8 0.254153 0.564086 0.500000
O O9 0.500000 0.551944 0.554320
O O10 0.252058 0.500000 0.562102
O O11 0.246989 0.585919 0.594681
O O12 0.739449 0.353204 0.326377
O O13 0.772725 0.313699 0.238899
O O14 0.744757 0.263467 0.308358
O O15 0.000000 0.313315 0.302861
O O16 0.746726 0.172136 0.088299
O O17 0.000000 0.129580 0.118877
O O18 0.000000 0.410101 0.924628
O O19 0.826480 0.408190 0.000000
O O20 0.751253 0.297774 0.500000
O O21 0.500000 0.289535 0.553381
O O22 0.500000 0.714954 0.793782
#
# Coordination Sequence:
#
# PCOD9517371 Si02
#       8
#     8  16  16  16  16  16  16  16
#     4   9  18  32  50  72  96 126 166 210 249 283
#     4  10  18  29  46  68  97 131 162 194 236 291
#     4   8  14  25  43  70 101 129 162 208 254 292
#     4  10  20  33  47  65  93 123 156 201 247 288
#     4  10  17  27  46  69  93 124 164 204 245 289
#     4   9  18  31  47  70 101 135 167 202 245 295
#     4   9  16  25  40  64  93 127 165 198 227 273
#     4  10  20  32  48  67  91 124 162 198 239 288
#
# _framework density 17.111177999999999
#
# number of rings (size 3 to 8) (size 9 to 14) (size 15 to 20)
#    0.000    2.600    1.333    2.000    0.933    4.533 
#    0.000    1.333    0.000    2.800    0.000    1.867 
#    0.000    2.133    0.000    0.000    0.000    0.000 
#
# Total GULP energy -334188.848870 kJ/mol
# GULP energy per Si atom -5569.814148 kJ/mol
# Density = 1.707223 g / cm^3
# Si number density = 17.111178 Si / 1000 Ang^3
#
#
#
# Elastic Constant Matrix: (Units=GPa)
#
#
# Indices 1 2 3 4 5 6 
#
# 1 33.1694 31.8211 2.6692 0.0000 0.0000 0.0000
# 2 31.8211 72.1888 8.9052 0.0000 0.0000 0.0000
# 3 2.6692 8.9052 42.1790 0.0000 0.0000 0.0000
# 4 0.0000 0.0000 0.0000 21.5173 0.0000 0.0000
# 5 0.0000 0.0000 0.0000 0.0000 11.9217 0.0000
# 6 0.0000 0.0000 0.0000 0.0000 0.0000 14.9002
#
#
#
# Elastic Compliance Matrix: (Units=1/GPa)
#
#
# Indices 1 2 3 4 5 6 
#
# 1 0.052345 -0.023271 0.001601 0.000000 0.000000 0.000000
# 2 -0.023271 0.024569 -0.003715 0.000000 0.000000 0.000000
# 3 0.001601 -0.003715 0.024391 0.000000 0.000000 0.000000
# 4 0.000000 0.000000 0.000000 0.046474 0.000000 0.000000
# 5 0.000000 0.000000 0.000000 0.000000 0.083880 0.000000
# 6 0.000000 0.000000 0.000000 0.000000 0.000000 0.067113
#
#
# Mechanical properties :
#
#
# Convention : Reuss Voigt Hill
#
# Bulk Modulus (GPa) = 19.78829 26.03648 22.91239
# Shear Modulus (GPa) = 13.64671 16.61060 15.12866
#
# Velocity S-wave (km/s) = 2.82712 3.11906 2.97667
# Velocity P-wave (km/s) = 4.71662 5.31229 5.02329
#
# Compressibility (1/GPa) = 0.05053493
#
# Stress axis : x y z
#
# Youngs Moduli (GPa) = 19.10406 40.70190 40.99795
#
# Poissons Ratio (x) = 0.94719 -0.06563
# Poissons Ratio (y) = 0.44458 0.15229
# Poissons Ratio (z) = -0.03058 0.15119
#
# Static dielectric constant tensor:
#      x y z
#    x 1.618090 0.000000 0.000000 
#    y 0.000000 1.576100 0.000000 
#    z 0.000000 0.000000 1.580840 
# 
# From -- ./inp_files/63825.got.cif
#   From: 2010.05.17/outbox.cif.g08.bks.cpg/sg71_32_cif.got.tgz:63825.got - 2010.06.03 16:22:01.
