data_PCOD9517431
_publ_section_title
;
Structure prediction by ZEFSAII (Michael W. Deem and Ramdas Pophale) SiO2 
 PCOD9517431
Probable space group: I M M M
;
_chemical_formula_sum "Si O2"
_cell_formula_units_Z 72
_cell_length_a 19.672865
_cell_length_b 28.745072
_cell_length_c 8.506527
_cell_angle_alpha 90.000000
_cell_angle_beta 90.000000
_cell_angle_gamma 90.000000
_cell_volume 4810.423332
_symmetry_space_group_name_H-M "I M M M"
_symmetry_group_IT_number 71
_symmetry_cell_setting 'orthorhombic'
loop_
_space_group_symop_operation_xyz
x,y,z
-x,-y,z
x,-y,-z
-x,y,-z
-x,-y,-z
x,y,-z
-x,y,z
x,-y,z
1/2+x,1/2+y,1/2+z
1/2-x,1/2-y,1/2+z
1/2+x,1/2-y,1/2-z
1/2-x,1/2+y,1/2-z
1/2-x,1/2-y,1/2-z
1/2+x,1/2+y,1/2-z
1/2-x,1/2+y,1/2+z
1/2+x,1/2-y,1/2+z
loop_
_atom_site_type_symbol
_atom_site_label
_atom_site_fract_x
_atom_site_fract_y
_atom_site_fract_z
Si Si1 0.145676 0.771843 0.187982
Si Si2 0.366850 0.900367 0.809976
Si Si3 0.222928 0.678571 0.811936
Si Si4 0.579759 0.000000 0.191925
Si Si5 0.000000 0.656230 0.691088
Si Si6 0.500000 0.737259 0.188150
O O1 0.171307 0.720179 0.241487
O O2 0.203766 0.806861 0.246520
O O3 0.071097 0.783083 0.252220
O O4 0.144014 0.771721 0.000000
O O5 0.303709 0.871120 0.745925
O O6 0.380978 0.953266 0.759253
O O7 0.433266 0.871289 0.759149
O O8 0.363730 0.900012 0.000000
O O9 0.224688 0.679464 0.000000
O O10 0.500000 0.000000 0.241383
O O11 0.577753 0.000000 0.000000
O O12 0.000000 0.709081 0.745968
O O13 0.000000 0.656688 0.500000
O O14 0.500000 0.736816 0.000000
#
# Coordination Sequence:
#
# PCOD9517431 Si02
#       6
#    16  16  16   8   8   8
#     4  10  20  32  46  65  89 118 153 191 229 274
#     4  10  17  29  46  65  89 121 159 197 232 269
#     4  10  20  32  45  63  88 120 155 192 233 275
#     4   9  16  26  45  69  91 118 159 200 229 265
#     4   9  16  24  41  64  87 119 156 190 225 264
#     4  11  19  29  46  69  93 119 153 190 229 274
#
# _framework density 14.967498000000001
#
# number of rings (size 3 to 8) (size 9 to 14) (size 15 to 20)
#    0.000    2.111    3.333    1.667    0.000    1.778 
#    0.000    1.111    0.000    0.667    0.000    0.000 
#    0.000    0.889    0.000    9.556    0.000    4.222 
#
# Total GULP energy -200738.191023 kJ/mol
# GULP energy per Si atom -5576.060862 kJ/mol
# Density = 1.493343 g / cm^3
# Si number density = 14.967498 Si / 1000 Ang^3
#
#
#
# Elastic Constant Matrix: (Units=GPa)
#
#
# Indices 1 2 3 4 5 6 
#
# 1 127.2544 58.7370 29.1940 0.0000 0.0000 0.0000
# 2 58.7370 94.9211 19.5270 0.0000 0.0000 0.0000
# 3 29.1940 19.5270 28.9630 0.0000 0.0000 0.0000
# 4 0.0000 0.0000 0.0000 15.2340 0.0000 0.0000
# 5 0.0000 0.0000 0.0000 0.0000 20.0214 0.0000
# 6 0.0000 0.0000 0.0000 0.0000 0.0000 22.9503
#
#
#
# Elastic Compliance Matrix: (Units=1/GPa)
#
#
# Indices 1 2 3 4 5 6 
#
# 1 0.012631 -0.006034 -0.008664 0.000000 0.000000 0.000000
# 2 -0.006034 0.015114 -0.004108 0.000000 0.000000 0.000000
# 3 -0.008664 -0.004108 0.046029 0.000000 0.000000 0.000000
# 4 0.000000 0.000000 0.000000 0.065643 0.000000 0.000000
# 5 0.000000 0.000000 0.000000 0.000000 0.049947 0.000000
# 6 0.000000 0.000000 0.000000 0.000000 0.000000 0.043572
#
#
# Mechanical properties :
#
#
# Convention : Reuss Voigt Hill
#
# Bulk Modulus (GPa) = 27.65244 51.78385 39.71814
# Shear Modulus (GPa) = 17.69283 21.21984 19.45633
#
# Velocity S-wave (km/s) = 3.44187 3.76936 3.60933
# Velocity P-wave (km/s) = 5.85751 7.32234 6.63050
#
# Compressibility (1/GPa) = 0.03616318
#
# Stress axis : x y z
#
# Youngs Moduli (GPa) = 79.17165 66.16487 21.72535
#
# Poissons Ratio (x) = 0.39921 0.18822
# Poissons Ratio (y) = 0.47769 0.08925
# Poissons Ratio (z) = 0.68591 0.27181
#
# Static dielectric constant tensor:
#      x y z
#    x 1.492930 0.000000 0.000000 
#    y 0.000000 1.493460 0.000000 
#    z 0.000000 0.000000 1.506080 
# 
# From -- ./inp_files/8203.got.cif
#   From: 2010.05.17/outbox.cif.g08.bks.cpg/sg71_5_cif.got.tgz:8203.got - 2010.06.03 16:22:01.
