data_PCOD9517742
_publ_section_title
;
Structure prediction by ZEFSAII (Michael W. Deem and Ramdas Pophale) SiO2 
 PCOD9517742
Probable space group: I M M M
;
_chemical_formula_sum "Si O2"
_cell_formula_units_Z 96
_cell_length_a 13.896104
_cell_length_b 18.566730
_cell_length_c 20.094413
_cell_angle_alpha 90.000000
_cell_angle_beta 90.000000
_cell_angle_gamma 90.000000
_cell_volume 5184.463266
_symmetry_space_group_name_H-M "I M M M"
_symmetry_group_IT_number 71
_symmetry_cell_setting 'orthorhombic'
loop_
_space_group_symop_operation_xyz
x,y,z
-x,-y,z
x,-y,-z
-x,y,-z
-x,-y,-z
x,y,-z
-x,y,z
x,-y,z
1/2+x,1/2+y,1/2+z
1/2-x,1/2-y,1/2+z
1/2+x,1/2-y,1/2-z
1/2-x,1/2+y,1/2-z
1/2-x,1/2-y,1/2-z
1/2+x,1/2+y,1/2-z
1/2-x,1/2+y,1/2+z
1/2+x,1/2-y,1/2+z
loop_
_atom_site_type_symbol
_atom_site_label
_atom_site_fract_x
_atom_site_fract_y
_atom_site_fract_z
Si Si1 0.388670 0.782147 0.713585
Si Si2 0.605467 0.262360 0.923454
Si Si3 0.684380 0.271055 0.576321
Si Si4 0.292248 0.631673 0.750291
Si Si5 0.888384 0.078076 0.379934
Si Si6 0.886679 0.920593 0.119585
O O1 0.500000 0.795252 0.726238
O O2 0.370702 0.772829 0.633810
O O3 0.355255 0.705552 0.744878
O O4 0.316987 0.842071 0.742276
O O5 0.500000 0.247426 0.892337
O O6 0.704468 0.228287 0.898114
O O7 0.621025 0.348740 0.921546
O O8 0.599804 0.239266 0.000000
O O9 0.681135 0.243275 0.500000
O O10 0.642534 0.351594 0.576747
O O11 0.323094 0.589286 0.815740
O O12 0.322238 0.587406 0.685594
O O13 0.000000 0.077300 0.358191
O O14 0.869300 0.000000 0.411967
O O15 0.000000 0.913732 0.137170
O O16 0.873166 0.000000 0.089703
#
# Coordination Sequence:
#
# PCOD9517742 Si02
#       6
#    16  16  16  16  16  16
#     4  10  20  32  49  75 103 133 171 216 257 300
#     4   9  18  32  49  73 104 135 171 213 256 301
#     4  10  19  34  54  77 106 141 177 214 259 308
#     4  10  18  32  49  72 102 133 164 207 258 313
#     4  10  18  28  48  75  99 127 163 204 254 309
#     4  10  21  36  54  79 109 136 168 216 268 315
#
# _framework density 18.516862
#
# number of rings (size 3 to 8) (size 9 to 14) (size 15 to 20)
#    0.000    2.167    1.667    3.500    0.000    3.333 
#    0.000    2.500    0.000    3.500    0.000    2.333 
#    0.000    2.667    0.000    0.000    0.000    0.000 
#
# Total GULP energy -267481.581947 kJ/mol
# GULP energy per Si atom -5572.532957 kJ/mol
# Density = 1.847472 g / cm^3
# Si number density = 18.516862 Si / 1000 Ang^3
#
#
#
# Elastic Constant Matrix: (Units=GPa)
#
#
# Indices 1 2 3 4 5 6 
#
# 1 134.0893 41.0422 23.8889 0.0000 0.0000 0.0000
# 2 41.0422 61.7607 1.6292 0.0000 0.0000 0.0000
# 3 23.8889 1.6292 56.7221 0.0000 0.0000 0.0000
# 4 0.0000 0.0000 0.0000 -4.1999 0.0000 0.0000
# 5 0.0000 0.0000 0.0000 0.0000 17.5389 0.0000
# 6 0.0000 0.0000 0.0000 0.0000 0.0000 25.6530
#
#
#
# Elastic Compliance Matrix: (Units=1/GPa)
#
#
# Indices 1 2 3 4 5 6 
#
# 1 0.010242 -0.006697 -0.004121 0.000000 0.000000 0.000000
# 2 -0.006697 0.020583 0.002229 0.000000 0.000000 0.000000
# 3 -0.004121 0.002229 0.019301 0.000000 0.000000 0.000000
# 4 0.000000 0.000000 0.000000 -0.238101 0.000000 0.000000
# 5 0.000000 0.000000 0.000000 0.000000 0.057016 0.000000
# 6 0.000000 0.000000 0.000000 0.000000 0.000000 0.038982
#
#
# Mechanical properties :
#
#
# Convention : Reuss Voigt Hill
#
# Bulk Modulus (GPa) = 30.35029 42.85475 36.60252
# Shear Modulus (GPa) = -78.35026 20.19920 -29.07553
#
# Velocity S-wave (km/s) = -6.51190 3.30639 -3.96690
# Velocity P-wave (km/s) = 6.33352 6.14574 1.08243
#
# Compressibility (1/GPa) = 0.03294862
#
# Stress axis : x y z
#
# Youngs Moduli (GPa) = 97.63866 48.58298 51.80974
#
# Poissons Ratio (x) = 0.32538 0.21351
# Poissons Ratio (y) = 0.65392 -0.11551
# Poissons Ratio (z) = 0.40238 -0.10831
#
# Static dielectric constant tensor:
#      x y z
#    x 1.654310 0.000000 0.000000 
#    y 0.000000 1.640340 0.000000 
#    z 0.000000 0.000000 1.677340 
# 
# From -- ./inp_files/27571.got.cif
#   From: 2010.05.17/outbox.cif.g08.bks.cpg/sg71_14_cif.got.tgz:27571.got - 2010.06.03 16:22:01.
