data_PCOD9517678
_publ_section_title
;
Structure prediction by ZEFSAII (Michael W. Deem and Ramdas Pophale) SiO2 
 PCOD9517678
Probable space group: I M M M
;
_chemical_formula_sum "Si O2"
_cell_formula_units_Z 104
_cell_length_a 23.556548
_cell_length_b 9.850730
_cell_length_c 23.995603
_cell_angle_alpha 90.000000
_cell_angle_beta 90.000000
_cell_angle_gamma 90.000000
_cell_volume 5568.160338
_symmetry_space_group_name_H-M "I M M M"
_symmetry_group_IT_number 71
_symmetry_cell_setting 'orthorhombic'
loop_
_space_group_symop_operation_xyz
x,y,z
-x,-y,z
x,-y,-z
-x,y,-z
-x,-y,-z
x,y,-z
-x,y,z
x,-y,z
1/2+x,1/2+y,1/2+z
1/2-x,1/2-y,1/2+z
1/2+x,1/2-y,1/2-z
1/2-x,1/2+y,1/2-z
1/2-x,1/2-y,1/2-z
1/2+x,1/2+y,1/2-z
1/2-x,1/2+y,1/2+z
1/2+x,1/2-y,1/2+z
loop_
_atom_site_type_symbol
_atom_site_label
_atom_site_fract_x
_atom_site_fract_y
_atom_site_fract_z
Si Si1 0.800734 0.347793 0.234887
Si Si2 0.209013 0.163683 0.437410
Si Si3 0.092846 0.156497 0.617877
Si Si4 0.899390 0.152222 0.256500
Si Si5 0.000000 0.346331 0.566195
Si Si6 0.564041 0.659311 0.369713
Si Si7 0.829583 0.344059 0.895687
O O1 0.792020 0.500000 0.255497
O O2 0.750000 0.250000 0.250000
O O3 0.856095 0.275593 0.258147
O O4 0.809629 0.351601 0.168563
O O5 0.190776 0.202942 0.500000
O O6 0.159215 0.194285 0.393059
O O7 0.273291 0.212779 0.426148
O O8 0.214494 0.000000 0.435675
O O9 0.073536 0.155837 0.682485
O O10 0.054286 0.261622 0.585744
O O11 0.086407 0.000000 0.597713
O O12 0.932556 0.167578 0.198304
O O13 0.872250 0.000000 0.253128
O O14 0.000000 0.500000 0.588722
O O15 0.000000 0.352816 0.500000
O O16 0.500000 0.698668 0.386541
O O17 0.572730 0.500000 0.383362
O O18 0.614137 0.751194 0.395351
O O19 0.841750 0.500000 0.914111
#
# Coordination Sequence:
#
# PCOD9517678 Si02
#       7
#    16  16  16  16   8  16  16
#     4  10  18  28  44  67 100 135 168 204 249 305
#     4   9  17  31  53  79 103 128 167 221 270 308
#     4  10  20  35  58  81 102 133 177 223 264 314
#     4   9  18  31  49  74 102 130 165 208 255 307
#     4  11  25  41  53  71 105 143 179 223 270 311
#     4   9  18  32  51  75 106 140 171 204 250 311
#     4   9  18  32  50  74 101 131 168 211 258 306
#
# _framework density 18.677622
#
# number of rings (size 3 to 8) (size 9 to 14) (size 15 to 20)
#    0.000    2.538    0.000    2.077    1.077    5.231 
#    0.000    0.769    0.000    1.846    0.000    3.231 
#    0.000    0.000    0.000    0.000    0.000    0.000 
#
# Total GULP energy -289525.636787 kJ/mol
# GULP energy per Si atom -5567.800707 kJ/mol
# Density = 1.863511 g / cm^3
# Si number density = 18.677622 Si / 1000 Ang^3
#
#
#
# Elastic Constant Matrix: (Units=GPa)
#
#
# Indices 1 2 3 4 5 6 
#
# 1 112.4815 49.6131 -1.6990 0.0000 0.0000 0.0000
# 2 49.6131 95.7575 -2.6353 0.0000 0.0000 0.0000
# 3 -1.6990 -2.6353 23.6838 0.0000 0.0000 0.0000
# 4 0.0000 0.0000 0.0000 16.1877 0.0000 0.0000
# 5 0.0000 0.0000 0.0000 0.0000 4.2282 0.0000
# 6 0.0000 0.0000 0.0000 0.0000 0.0000 20.3605
#
#
#
# Elastic Compliance Matrix: (Units=1/GPa)
#
#
# Indices 1 2 3 4 5 6 
#
# 1 0.011525 -0.005967 0.000163 0.000000 0.000000 0.000000
# 2 -0.005967 0.013564 0.001081 0.000000 0.000000 0.000000
# 3 0.000163 0.001081 0.042355 0.000000 0.000000 0.000000
# 4 0.000000 0.000000 0.000000 0.061775 0.000000 0.000000
# 5 0.000000 0.000000 0.000000 0.000000 0.236505 0.000000
# 6 0.000000 0.000000 0.000000 0.000000 0.000000 0.049115
#
#
# Mechanical properties :
#
#
# Convention : Reuss Voigt Hill
#
# Bulk Modulus (GPa) = 17.24173 35.83117 26.53645
# Shear Modulus (GPa) = 11.27100 20.59822 15.93461
#
# Velocity S-wave (km/s) = 2.45919 3.32449 2.92402
# Velocity P-wave (km/s) = 4.16110 5.82769 5.06343
#
# Compressibility (1/GPa) = 0.05799880
#
# Stress axis : x y z
#
# Youngs Moduli (GPa) = 86.77163 73.72390 23.60997
#
# Poissons Ratio (x) = 0.43987 -0.00384
# Poissons Ratio (y) = 0.51772 -0.02553
# Poissons Ratio (z) = -0.01413 -0.07972
#
# Static dielectric constant tensor:
#      x y z
#    x 1.668330 0.000000 0.000000 
#    y 0.000000 1.634980 0.000000 
#    z 0.000000 0.000000 1.678600 
# 
# From -- ./inp_files/66848.got.cif
#   From: 2010.05.17/outbox.cif.g08.bks.cpg/sg71_34_cif.got.tgz:66848.got - 2010.06.03 16:22:01.
