data_PCOD9517864
_publ_section_title
;
Structure prediction by ZEFSAII (Michael W. Deem and Ramdas Pophale) SiO2 
 PCOD9517864
Probable space group: I M M M
;
_chemical_formula_sum "Si O2"
_cell_formula_units_Z 72
_cell_length_a 24.893804
_cell_length_b 10.148638
_cell_length_c 15.163857
_cell_angle_alpha 90.000000
_cell_angle_beta 90.000000
_cell_angle_gamma 90.000000
_cell_volume 3830.969617
_symmetry_space_group_name_H-M "I M M M"
_symmetry_group_IT_number 71
_symmetry_cell_setting 'orthorhombic'
loop_
_space_group_symop_operation_xyz
x,y,z
-x,-y,z
x,-y,-z
-x,y,-z
-x,-y,-z
x,y,-z
-x,y,z
x,-y,z
1/2+x,1/2+y,1/2+z
1/2-x,1/2-y,1/2+z
1/2+x,1/2-y,1/2-z
1/2-x,1/2+y,1/2-z
1/2-x,1/2-y,1/2-z
1/2+x,1/2+y,1/2-z
1/2-x,1/2+y,1/2+z
1/2+x,1/2-y,1/2+z
loop_
_atom_site_type_symbol
_atom_site_label
_atom_site_fract_x
_atom_site_fract_y
_atom_site_fract_z
Si Si1 0.859579 0.842190 0.500000
Si Si2 0.760934 0.241167 0.000000
Si Si3 0.558934 0.659937 0.851907
Si Si4 0.381958 0.156846 0.500000
Si Si5 0.403164 0.653234 0.662224
Si Si6 0.777442 0.141256 0.808232
O O1 0.796708 0.811028 0.500000
O O2 0.892469 0.793310 0.413995
O O3 0.863887 0.000000 0.500000
O O4 0.763568 0.157878 0.089288
O O5 0.816388 0.326314 0.000000
O O6 0.500000 0.699983 0.885317
O O7 0.560777 0.500000 0.853695
O O8 0.564421 0.694179 0.749016
O O9 0.404033 0.240289 0.416120
O O10 0.394334 0.000000 0.500000
O O11 0.416626 0.500000 0.635825
O O12 0.341558 0.648817 0.695241
O O13 0.750000 0.250000 0.750000
O O14 0.759476 0.000000 0.774283
#
# Coordination Sequence:
#
# PCOD9517864 Si02
#       6
#     8   8  16   8  16  16
#     4  10  18  29  47  75 109 138 166 209 257 295
#     4  10  20  33  49  72 106 142 171 199 248 309
#     4   9  17  30  50  75 101 132 172 214 255 300
#     4  10  20  33  52  78 103 132 172 212 249 301
#     4   9  18  33  51  72 102 137 167 204 257 307
#     4  10  20  33  50  73 103 137 172 208 250 301
#
# _framework density 18.794197
#
# number of rings (size 3 to 8) (size 9 to 14) (size 15 to 20)
#    0.000    2.444    0.000    2.667    0.000   10.222 
#    0.000    0.556    0.000    4.000    0.000    0.000 
#    0.000    7.111    0.000    0.000    0.000    0.000 
#
# Total GULP energy -200586.734502 kJ/mol
# GULP energy per Si atom -5571.853736 kJ/mol
# Density = 1.875142 g / cm^3
# Si number density = 18.794197 Si / 1000 Ang^3
#
#
#
# Elastic Constant Matrix: (Units=GPa)
#
#
# Indices 1 2 3 4 5 6 
#
# 1 53.6998 -2.1810 36.3958 0.0000 0.0000 0.0000
# 2 -2.1810 91.5328 35.6404 0.0000 0.0000 0.0000
# 3 36.3958 35.6404 79.6168 0.0000 0.0000 0.0000
# 4 0.0000 0.0000 0.0000 16.9572 0.0000 0.0000
# 5 0.0000 0.0000 0.0000 0.0000 31.8457 0.0000
# 6 0.0000 0.0000 0.0000 0.0000 0.0000 -249.5261
#
#
#
# Elastic Compliance Matrix: (Units=1/GPa)
#
#
# Indices 1 2 3 4 5 6 
#
# 1 0.030725 0.007510 -0.017408 0.000000 0.000000 0.000000
# 2 0.007510 0.015067 -0.010178 0.000000 0.000000 0.000000
# 3 -0.017408 -0.010178 0.025074 0.000000 0.000000 0.000000
# 4 0.000000 0.000000 0.000000 0.058972 0.000000 0.000000
# 5 0.000000 0.000000 0.000000 0.000000 0.031401 0.000000
# 6 0.000000 0.000000 0.000000 0.000000 0.000000 -0.004008
#
#
# Mechanical properties :
#
#
# Convention : Reuss Voigt Hill
#
# Bulk Modulus (GPa) = 32.55679 40.50664 36.53171
# Shear Modulus (GPa) = 24.08232 -29.81170 -2.86469
#
# Velocity S-wave (km/s) = 3.58351 -3.98706 -1.23594
# Velocity P-wave (km/s) = 5.87217 0.63564 4.17651
#
# Compressibility (1/GPa) = 0.03071556
#
# Stress axis : x y z
#
# Youngs Moduli (GPa) = 32.54652 66.37031 39.88212
#
# Poissons Ratio (x) = -0.49845 0.69425
# Poissons Ratio (y) = -0.24443 0.40591
# Poissons Ratio (z) = 0.56655 0.67551
#
# Static dielectric constant tensor:
#      x y z
#    x 1.673130 0.000000 0.000000 
#    y 0.000000 1.638770 0.000000 
#    z 0.000000 0.000000 1.663860 
# 
# From -- ./inp_files/39977.got.cif
#   From: 2010.05.17/outbox.cif.g08.bks.cpg/sg71_20_cif.got.tgz:39977.got - 2010.06.03 16:22:01.
