data_PCOD9517176
_publ_section_title
;
Structure prediction by ZEFSAII (Michael W. Deem and Ramdas Pophale) SiO2 
 PCOD9517176
Probable space group: F D D D
;
_chemical_formula_sum "Si O2"
_cell_formula_units_Z 50
_cell_length_a 21.000000
_cell_length_b 18.000000
_cell_length_c 27.000000
_cell_angle_alpha 90.000000
_cell_angle_beta 90.000000
_cell_angle_gamma 90.000000
_cell_volume 10206.000000
_symmetry_space_group_name_H-M "F D D D"
_symmetry_group_IT_number 70
_space_group.IT_coordinate_system_code '2'
_symmetry_cell_setting 'orthorhombic'
loop_
_space_group_symop_operation_xyz
x,y,z
1/4-x,1/4-y,z
x,1/4-y,1/4-z
1/4-x,y,1/4-z
-x,-y,-z
3/4+x,3/4+y,-z
-x,3/4+y,3/4+z
3/4+x,-y,3/4+z
x,1/2+y,1/2+z
1/4-x,3/4-y,1/2+z
x,3/4-y,3/4-z
1/4-x,1/2+y,3/4-z
-x,1/2-y,1/2-z
3/4+x,1/4+y,1/2-z
-x,1/4+y,1/4+z
3/4+x,1/2-y,1/4+z
1/2+x,y,1/2+z
3/4-x,1/4-y,1/2+z
1/2+x,1/4-y,3/4-z
3/4-x,y,3/4-z
1/2-x,-y,1/2-z
1/4+x,3/4+y,1/2-z
1/2-x,3/4+y,1/4+z
1/4+x,-y,1/4+z
1/2+x,1/2+y,z
3/4-x,3/4-y,z
1/2+x,3/4-y,1/4-z
3/4-x,1/2+y,1/4-z
1/2-x,1/2-y,-z
1/4+x,1/4+y,-z
1/2-x,1/4+y,3/4+z
1/4+x,1/2-y,3/4+z
loop_
_atom_site_type_symbol
_atom_site_label
_atom_site_fract_x
_atom_site_fract_y
_atom_site_fract_z
Si Si1 0.625000 0.125000 0.125000
Si Si2 0.781659 0.559939 0.084821
Si Si3 0.419759 0.201805 0.921795
Si Si4 0.384730 0.093910 0.220896
Si Si5 0.370917 0.789078 0.144041
Si Si6 0.008748 0.184748 0.818844
Si Si7 0.222199 0.095401 0.709197
O O1 0.679528 0.140090 0.169208
O O2 0.768418 0.625000 0.125000
O O3 0.716945 0.520952 0.066956
O O4 0.828565 0.599782 0.045348
O O5 0.821303 0.493525 0.111085
O O6 0.375000 0.217901 0.875000
O O7 0.463329 0.129533 0.910756
O O8 0.382791 0.178291 0.971613
O O9 0.453507 0.130456 0.208300
O O10 0.382377 0.018977 0.188664
O O11 0.375000 0.875000 0.159878
O O12 0.309617 0.788509 0.108618
O O13 0.042093 0.153087 0.768403
O O14 0.968262 0.258085 0.804807
#
# Coordination Sequence:
#
# PCOD9517176 Si02
#       7
#     8  32  32  32  32  32  32
#     4  12  24  32  60 100 132 180 220 272 334 412
#     4  10  22  43  68  93 126 181 219 274 339 395
#     4  11  25  44  65 101 135 176 223 286 348 399
#     4  10  23  44  68  93 134 180 230 275 342 413
#     4  11  20  38  68  93 122 173 232 272 325 405
#     4  10  21  38  61  90 136 174 219 273 329 401
#     4  10  22  38  56  95 138 179 217 274 338 405
#
# _framework density 4.8990790000000004
#
# number of rings (size 3 to 8) (size 9 to 14) (size 15 to 20)
#    0.000    1.600    3.200    0.960    3.360    1.600 
#    2.880    1.600    0.000    0.000    0.000    0.000 
#    0.000    0.000    0.000    0.000    0.000    0.000 
#
# Total GULP energy -278644.486687 kJ/mol
# GULP energy per Si atom -5572.889734 kJ/mol
# Density = 0.488793 g / cm^3
# Si number density = 4.899079 Si / 1000 Ang^3
#
#
#
# Elastic Constant Matrix: (Units=GPa)
#
#
# Indices 1 2 3 4 5 6 
#
# 1 75.8048 31.9798 48.7942 0.0000 0.0000 0.0000
# 2 31.9798 110.8332 23.4449 0.0000 0.0000 0.0000
# 3 48.7942 23.4449 104.4059 0.0000 0.0000 0.0000
# 4 0.0000 0.0000 0.0000 21.7213 0.0000 0.0000
# 5 0.0000 0.0000 0.0000 0.0000 24.1449 0.0000
# 6 0.0000 0.0000 0.0000 0.0000 0.0000 24.0873
#
#
#
# Elastic Compliance Matrix: (Units=1/GPa)
#
#
# Indices 1 2 3 4 5 6 
#
# 1 0.020486 -0.004080 -0.008658 0.000000 0.000000 0.000000
# 2 -0.004080 0.010285 -0.000403 0.000000 0.000000 0.000000
# 3 -0.008658 -0.000403 0.013715 0.000000 0.000000 0.000000
# 4 0.000000 0.000000 0.000000 0.046038 0.000000 0.000000
# 5 0.000000 0.000000 0.000000 0.000000 0.041417 0.000000
# 6 0.000000 0.000000 0.000000 0.000000 0.000000 0.041516
#
#
# Mechanical properties :
#
#
# Convention : Reuss Voigt Hill
#
# Bulk Modulus (GPa) = 54.93120 55.49796 55.21458
# Shear Modulus (GPa) = 24.29487 26.44569 25.37028
#
# Velocity S-wave (km/s) = 3.52485 3.67757 3.60202
# Velocity P-wave (km/s) = 6.68269 6.81284 6.74808
#
# Compressibility (1/GPa) = 0.01820459
#
# Stress axis : x y z
#
# Youngs Moduli (GPa) = 48.81429 97.22983 72.91393
#
# Poissons Ratio (x) = 0.39665 0.63129
# Poissons Ratio (y) = 0.19914 0.02938
# Poissons Ratio (z) = 0.42263 0.03918
#
# Static dielectric constant tensor:
#      x y z
#    x 1.716400 0.000000 0.000000 
#    y 0.000000 1.693740 0.000000 
#    z 0.000000 0.000000 1.702610 
# 
# From -- ./inp_files/60445.got.cif
#   From: 2010.05.17/outbox.ucp.g08.bks.cvg/sg70_31_cif.got.tgz:60445.got - 2010.06.11 16:26:41.
