data_PCOD9517509
_publ_section_title
;
Structure prediction by ZEFSAII (Michael W. Deem and Ramdas Pophale) SiO2 
 PCOD9517509
Probable space group: I M M M
;
_chemical_formula_sum "Si O2"
_cell_formula_units_Z 104
_cell_length_a 20.552520
_cell_length_b 17.144664
_cell_length_c 14.341093
_cell_angle_alpha 90.000000
_cell_angle_beta 90.000000
_cell_angle_gamma 90.000000
_cell_volume 5053.314290
_symmetry_space_group_name_H-M "I M M M"
_symmetry_group_IT_number 71
_symmetry_cell_setting 'orthorhombic'
loop_
_space_group_symop_operation_xyz
x,y,z
-x,-y,z
x,-y,-z
-x,y,-z
-x,-y,-z
x,y,-z
-x,y,z
x,-y,z
1/2+x,1/2+y,1/2+z
1/2-x,1/2-y,1/2+z
1/2+x,1/2-y,1/2-z
1/2-x,1/2+y,1/2-z
1/2-x,1/2-y,1/2-z
1/2+x,1/2+y,1/2-z
1/2-x,1/2+y,1/2+z
1/2+x,1/2-y,1/2+z
loop_
_atom_site_type_symbol
_atom_site_label
_atom_site_fract_x
_atom_site_fract_y
_atom_site_fract_z
Si Si1 0.706512 0.089171 0.840874
Si Si2 0.601264 0.216384 0.604986
Si Si3 0.251200 0.255386 0.863286
Si Si4 0.928774 0.592015 0.758591
Si Si5 0.574716 0.366405 0.700859
Si Si6 0.190765 0.087149 0.330816
Si Si7 0.925570 0.908456 0.000000
O O1 0.728124 0.168216 0.893823
O O2 0.633372 0.108082 0.806225
O O3 0.754117 0.084647 0.750555
O O4 0.708116 0.000000 0.881381
O O5 0.577730 0.232851 0.500000
O O6 0.678457 0.226736 0.605287
O O7 0.582505 0.132240 0.641974
O O8 0.575012 0.273559 0.686372
O O9 0.250000 0.250000 0.750000
O O10 0.293468 0.332702 0.885925
O O11 0.928737 0.500000 0.770876
O O12 0.000000 0.615376 0.721315
O O13 0.500000 0.394374 0.708106
O O14 0.621745 0.398386 0.779475
O O15 0.604495 0.388170 0.599163
O O16 0.191173 0.000000 0.374635
O O17 0.000000 0.877892 0.000000
O O18 0.930022 0.000000 0.000000
#
# Coordination Sequence:
#
# PCOD9517509 Si02
#       7
#    16  16  16  16  16  16   8
#     4   9  16  30  53  72  89 123 165 206 252 291
#     4  12  22  33  48  70 100 136 175 207 239 287
#     4  10  17  33  52  69  90 125 169 210 247 288
#     4  10  20  33  49  72 100 131 169 209 247 294
#     4  11  20  30  45  69  99 133 167 196 233 286
#     4  10  18  30  51  69  88 125 167 207 248 285
#     4   9  18  30  40  56  93 135 160 182 217 266
#
# _framework density 20.580553999999999
#
# number of rings (size 3 to 8) (size 9 to 14) (size 15 to 20)
#    0.000    1.769    6.923    0.923    0.000    2.154 
#    0.000    0.769    0.000    0.000    0.000    0.000 
#    0.000    2.462    0.000    5.231    3.692    0.000 
#
# Total GULP energy -289596.321802 kJ/mol
# GULP energy per Si atom -5569.160035 kJ/mol
# Density = 2.053371 g / cm^3
# Si number density = 20.580554 Si / 1000 Ang^3
#
#
#
# Elastic Constant Matrix: (Units=GPa)
#
#
# Indices 1 2 3 4 5 6 
#
# 1 130.7197 26.7054 11.4687 0.0000 0.0000 0.0000
# 2 26.7054 96.0403 7.2456 0.0000 0.0000 0.0000
# 3 11.4687 7.2456 34.7799 0.0000 0.0000 0.0000
# 4 0.0000 0.0000 0.0000 0.0923 0.0000 0.0000
# 5 0.0000 0.0000 0.0000 0.0000 28.0164 0.0000
# 6 0.0000 0.0000 0.0000 0.0000 0.0000 25.5135
#
#
#
# Elastic Compliance Matrix: (Units=1/GPa)
#
#
# Indices 1 2 3 4 5 6 
#
# 1 0.008286 -0.002131 -0.002288 0.000000 0.000000 0.000000
# 2 -0.002131 0.011127 -0.001615 0.000000 0.000000 0.000000
# 3 -0.002288 -0.001615 0.029843 0.000000 0.000000 0.000000
# 4 0.000000 0.000000 0.000000 10.828408 0.000000 0.000000
# 5 0.000000 0.000000 0.000000 0.000000 0.035693 0.000000
# 6 0.000000 0.000000 0.000000 0.000000 0.000000 0.039195
#
#
# Mechanical properties :
#
#
# Convention : Reuss Voigt Hill
#
# Bulk Modulus (GPa) = 26.89154 39.15324 33.02239
# Shear Modulus (GPa) = 0.45550 25.13244 12.79397
#
# Velocity S-wave (km/s) = 0.47096 3.49832 2.49600
# Velocity P-wave (km/s) = 3.65931 5.94839 4.93832
#
# Compressibility (1/GPa) = 0.03718642
#
# Stress axis : x y z
#
# Youngs Moduli (GPa) = 120.68299 89.87287 33.50835
#
# Poissons Ratio (x) = 0.19156 0.07668
# Poissons Ratio (y) = 0.25723 0.05412
# Poissons Ratio (z) = 0.27616 0.14516
#
# Static dielectric constant tensor:
#      x y z
#    x 1.769300 0.000000 0.000000 
#    y 0.000000 1.867810 0.000000 
#    z 0.000000 0.000000 1.733050 
# 
# From -- ./inp_files/46126.got.cif
#   From: 2010.05.17/outbox.cif.g08.bks.cpg/sg71_24_cif.got.tgz:46126.got - 2010.06.03 16:22:01.
