data_PCOD9517180
_publ_section_title
;
Structure prediction by ZEFSAII (Michael W. Deem and Ramdas Pophale) SiO2 
 PCOD9517180
Probable space group: F D D D
;
_chemical_formula_sum "Si O2"
_cell_formula_units_Z 44
_cell_length_a 12.000000
_cell_length_b 27.000000
_cell_length_c 27.000000
_cell_angle_alpha 90.000000
_cell_angle_beta 90.000000
_cell_angle_gamma 90.000000
_cell_volume 8748.000000
_symmetry_space_group_name_H-M "F D D D"
_symmetry_group_IT_number 70
_space_group.IT_coordinate_system_code '2'
_symmetry_cell_setting 'orthorhombic'
loop_
_space_group_symop_operation_xyz
x,y,z
1/4-x,1/4-y,z
x,1/4-y,1/4-z
1/4-x,y,1/4-z
-x,-y,-z
3/4+x,3/4+y,-z
-x,3/4+y,3/4+z
3/4+x,-y,3/4+z
x,1/2+y,1/2+z
1/4-x,3/4-y,1/2+z
x,3/4-y,3/4-z
1/4-x,1/2+y,3/4-z
-x,1/2-y,1/2-z
3/4+x,1/4+y,1/2-z
-x,1/4+y,1/4+z
3/4+x,1/2-y,1/4+z
1/2+x,y,1/2+z
3/4-x,1/4-y,1/2+z
1/2+x,1/4-y,3/4-z
3/4-x,y,3/4-z
1/2-x,-y,1/2-z
1/4+x,3/4+y,1/2-z
1/2-x,3/4+y,1/4+z
1/4+x,-y,1/4+z
1/2+x,1/2+y,z
3/4-x,3/4-y,z
1/2+x,3/4-y,1/4-z
3/4-x,1/2+y,1/4-z
1/2-x,1/2-y,-z
1/4+x,1/4+y,-z
1/2-x,1/4+y,3/4+z
1/4+x,1/2-y,3/4+z
loop_
_atom_site_type_symbol
_atom_site_label
_atom_site_fract_x
_atom_site_fract_y
_atom_site_fract_z
Si Si1 0.125000 0.125000 0.423925
Si Si2 0.536495 0.986964 0.230422
Si Si3 0.116409 0.023168 0.887841
Si Si4 0.214905 0.552519 0.169655
Si Si5 0.330219 0.636076 0.999399
Si Si6 0.582232 0.280125 0.714539
O O1 0.119779 0.174510 0.390694
O O2 0.232349 0.131672 0.458901
O O3 0.450242 0.978880 0.184965
O O4 0.593090 0.934383 0.241778
O O5 0.637146 0.023025 0.210638
O O6 0.458186 0.007667 0.275725
O O7 0.988654 0.023235 0.912366
O O8 0.180582 0.981514 0.852111
O O9 0.125000 0.561933 0.125000
O O10 0.268546 0.600591 0.197821
O O11 0.401776 0.585993 0.987518
O O12 0.500000 0.250000 0.750000
#
# Coordination Sequence:
#
# PCOD9517180 Si02
#       6
#    16  32  32  32  32  32
#     4  12  24  38  69 108 134 178 241 300 368 422
#     4  10  21  42  68  99 144 181 228 286 363 431
#     4  10  22  41  66 103 143 179 237 295 350 432
#     4  10  22  43  69 101 140 183 234 294 359 435
#     4  12  24  40  68 102 139 181 233 295 361 427
#     4  10  24  44  65  99 139 187 234 288 354 426
#
# _framework density 5.0297210000000003
#
# number of rings (size 3 to 8) (size 9 to 14) (size 15 to 20)
#    0.000    1.455    1.818    2.727    2.545    4.364 
#    0.000   18.636    0.000    0.000    9.455    0.000 
#    0.000    0.000    0.000    0.000    0.000    0.000 
#
# Total GULP energy -245296.363455 kJ/mol
# GULP energy per Si atom -5574.917351 kJ/mol
# Density = 0.501827 g / cm^3
# Si number density = 5.029721 Si / 1000 Ang^3
#
#
#
# Elastic Constant Matrix: (Units=GPa)
#
#
# Indices 1 2 3 4 5 6 
#
# 1 135.0406 48.2880 47.0115 0.0000 0.0000 0.0000
# 2 48.2880 110.9349 32.0848 0.0000 0.0000 0.0000
# 3 47.0115 32.0848 89.5193 0.0000 0.0000 0.0000
# 4 0.0000 0.0000 0.0000 35.5806 0.0000 0.0000
# 5 0.0000 0.0000 0.0000 0.0000 52.9576 0.0000
# 6 0.0000 0.0000 0.0000 0.0000 0.0000 53.8508
#
#
#
# Elastic Compliance Matrix: (Units=1/GPa)
#
#
# Indices 1 2 3 4 5 6 
#
# 1 0.009959 -0.003149 -0.004101 0.000000 0.000000 0.000000
# 2 -0.003149 0.011052 -0.002308 0.000000 0.000000 0.000000
# 3 -0.004101 -0.002308 0.014152 0.000000 0.000000 0.000000
# 4 0.000000 0.000000 0.000000 0.028105 0.000000 0.000000
# 5 0.000000 0.000000 0.000000 0.000000 0.018883 0.000000
# 6 0.000000 0.000000 0.000000 0.000000 0.000000 0.018570
#
#
# Mechanical properties :
#
#
# Convention : Reuss Voigt Hill
#
# Bulk Modulus (GPa) = 62.31590 65.58482 63.95036
# Shear Modulus (GPa) = 39.94059 42.35184 41.14622
#
# Velocity S-wave (km/s) = 4.46042 4.59309 4.52724
# Velocity P-wave (km/s) = 7.58737 7.79731 7.69306
#
# Compressibility (1/GPa) = 0.01604727
#
# Stress axis : x y z
#
# Youngs Moduli (GPa) = 100.41229 90.47871 70.66251
#
# Poissons Ratio (x) = 0.28489 0.28982
# Poissons Ratio (y) = 0.31617 0.16307
# Poissons Ratio (z) = 0.41184 0.20880
#
# Static dielectric constant tensor:
#      x y z
#    x 1.742240 0.000000 0.000000 
#    y 0.000000 1.722530 0.000000 
#    z 0.000000 0.000000 1.771920 
# 
# From -- ./inp_files/20981.got.cif
#   From: 2010.05.17/outbox.ucp.g08.bks.cvg/sg70_11_cif.got.tgz:20981.got - 2010.06.11 16:26:41.
