data_PCOD9517040
_publ_section_title
;
Structure prediction by ZEFSAII (Michael W. Deem and Ramdas Pophale) SiO2 
 PCOD9517040
Probable space group: F D D D
;
_chemical_formula_sum "Si O2"
_cell_formula_units_Z 144
_cell_length_a 22.452379
_cell_length_b 25.170591
_cell_length_c 12.110353
_cell_angle_alpha 90.000000
_cell_angle_beta 90.000000
_cell_angle_gamma 90.000000
_cell_volume 6844.040641
_symmetry_space_group_name_H-M "F D D D"
_symmetry_group_IT_number 70
_space_group.IT_coordinate_system_code '2'
_symmetry_cell_setting 'orthorhombic'
loop_
_space_group_symop_operation_xyz
x,y,z
1/4-x,1/4-y,z
x,1/4-y,1/4-z
1/4-x,y,1/4-z
-x,-y,-z
3/4+x,3/4+y,-z
-x,3/4+y,3/4+z
3/4+x,-y,3/4+z
x,1/2+y,1/2+z
1/4-x,3/4-y,1/2+z
x,3/4-y,3/4-z
1/4-x,1/2+y,3/4-z
-x,1/2-y,1/2-z
3/4+x,1/4+y,1/2-z
-x,1/4+y,1/4+z
3/4+x,1/2-y,1/4+z
1/2+x,y,1/2+z
3/4-x,1/4-y,1/2+z
1/2+x,1/4-y,3/4-z
3/4-x,y,3/4-z
1/2-x,-y,1/2-z
1/4+x,3/4+y,1/2-z
1/2-x,3/4+y,1/4+z
1/4+x,-y,1/4+z
1/2+x,1/2+y,z
3/4-x,3/4-y,z
1/2+x,3/4-y,1/4-z
3/4-x,1/2+y,1/4-z
1/2-x,1/2-y,-z
1/4+x,1/4+y,-z
1/2-x,1/4+y,3/4+z
1/4+x,1/2-y,3/4+z
loop_
_atom_site_type_symbol
_atom_site_label
_atom_site_fract_x
_atom_site_fract_y
_atom_site_fract_z
Si Si1 0.121121 0.564020 0.301115
Si Si2 0.625000 0.979489 0.125000
Si Si3 0.426448 0.450424 0.789597
Si Si4 0.490613 0.539429 0.894116
Si Si5 0.549964 0.355078 0.986519
O O1 0.125000 0.625000 0.261784
O O2 0.148419 0.521178 0.216863
O O3 0.154735 0.560445 0.417252
O O4 0.052818 0.548672 0.330800
O O5 0.668255 0.940113 0.058238
O O6 0.375000 0.434869 0.875000
O O7 0.443347 0.511173 0.814504
O O8 0.488077 0.419990 0.805421
O O9 0.465417 0.594511 0.938837
O O10 0.500000 0.500000 0.000000
O O11 0.582887 0.375000 0.875000
#
# Coordination Sequence:
#
# PCOD9517040 Si02
#       5
#    32  16  32  32  32
#     4  12  25  47  72 102 146 198 241 299 364 450
#     4  12  29  48  68 106 158 193 240 292 380 458
#     4  12  25  42  79 106 138 183 253 312 366 414
#     4  12  23  42  69 110 141 179 250 310 362 419
#     4  12  25  45  73 104 145 192 246 307 364 432
#
# _framework density 21.040202000000001
#
# number of rings (size 3 to 8) (size 9 to 14) (size 15 to 20)
#    0.000    0.000    8.889    0.333    1.556    0.889 
#    0.000    0.000    0.000    0.000    0.000    0.000 
#    0.000    0.000    0.000    0.000    0.000    0.000 
#
# Total GULP energy -201321.413550 kJ/mol
# GULP energy per Si atom -5592.261487 kJ/mol
# Density = 2.099231 g / cm^3
# Si number density = 21.040202 Si / 1000 Ang^3
#
#
#
# Elastic Constant Matrix: (Units=GPa)
#
#
# Indices 1 2 3 4 5 6 
#
# 1 69.5104 41.0579 25.1410 0.0000 0.0000 0.0000
# 2 41.0579 179.1541 58.8837 0.0000 0.0000 0.0000
# 3 25.1410 58.8837 116.0464 0.0000 0.0000 0.0000
# 4 0.0000 0.0000 0.0000 808.0706 0.0000 0.0000
# 5 0.0000 0.0000 0.0000 0.0000 7.7173 0.0000
# 6 0.0000 0.0000 0.0000 0.0000 0.0000 30.9476
#
#
#
# Elastic Compliance Matrix: (Units=1/GPa)
#
#
# Indices 1 2 3 4 5 6 
#
# 1 0.017036 -0.003230 -0.002052 0.000000 0.000000 0.000000
# 2 -0.003230 0.007311 -0.003010 0.000000 0.000000 0.000000
# 3 -0.002052 -0.003010 0.010589 0.000000 0.000000 0.000000
# 4 0.000000 0.000000 0.000000 0.001238 0.000000 0.000000
# 5 0.000000 0.000000 0.000000 0.000000 0.129579 0.000000
# 6 0.000000 0.000000 0.000000 0.000000 0.000000 0.032313
#
#
# Mechanical properties :
#
#
# Convention : Reuss Voigt Hill
#
# Bulk Modulus (GPa) = 54.48738 68.31956 61.40347
# Shear Modulus (GPa) = 22.64826 185.32233 103.98530
#
# Velocity S-wave (km/s) = 3.28446 9.39528 7.03772
# Velocity P-wave (km/s) = 6.35111 12.25710 9.76148
#
# Compressibility (1/GPa) = 0.01835287
#
# Stress axis : x y z
#
# Youngs Moduli (GPa) = 58.69809 136.77328 94.43592
#
# Poissons Ratio (x) = 0.44176 0.19378
# Poissons Ratio (y) = 0.18959 0.28427
# Poissons Ratio (z) = 0.12045 0.41171
#
# Static dielectric constant tensor:
#      x y z
#    x 1.803550 0.000000 0.000000 
#    y 0.000000 1.792400 0.000000 
#    z 0.000000 0.000000 1.775630 
# 
# From -- ./inp_files/19213.got.cif
#   From: 2010.05.17/outbox.cif.g08.bks.cpg/sg70_10_cif.got.tgz:19213.got - 2010.06.03 15:57:51.
