data_PCOD9517029
_publ_section_title
;
Structure prediction by ZEFSAII (Michael W. Deem and Ramdas Pophale) SiO2 
 PCOD9517029
Probable space group: F D D D
;
_chemical_formula_sum "Si O2"
_cell_formula_units_Z 104
_cell_length_a 7.266782
_cell_length_b 29.952052
_cell_length_c 18.070284
_cell_angle_alpha 90.000000
_cell_angle_beta 90.000000
_cell_angle_gamma 90.000000
_cell_volume 3933.088248
_symmetry_space_group_name_H-M "F D D D"
_symmetry_group_IT_number 70
_space_group.IT_coordinate_system_code '2'
_symmetry_cell_setting 'orthorhombic'
loop_
_space_group_symop_operation_xyz
x,y,z
1/4-x,1/4-y,z
x,1/4-y,1/4-z
1/4-x,y,1/4-z
-x,-y,-z
3/4+x,3/4+y,-z
-x,3/4+y,3/4+z
3/4+x,-y,3/4+z
x,1/2+y,1/2+z
1/4-x,3/4-y,1/2+z
x,3/4-y,3/4-z
1/4-x,1/2+y,3/4-z
-x,1/2-y,1/2-z
3/4+x,1/4+y,1/2-z
-x,1/4+y,1/4+z
3/4+x,1/2-y,1/4+z
1/2+x,y,1/2+z
3/4-x,1/4-y,1/2+z
1/2+x,1/4-y,3/4-z
3/4-x,y,3/4-z
1/2-x,-y,1/2-z
1/4+x,3/4+y,1/2-z
1/2-x,3/4+y,1/4+z
1/4+x,-y,1/4+z
1/2+x,1/2+y,z
3/4-x,3/4-y,z
1/2+x,3/4-y,1/4-z
3/4-x,1/2+y,1/4-z
1/2-x,1/2-y,-z
1/4+x,1/4+y,-z
1/2-x,1/4+y,3/4+z
1/4+x,1/2-y,3/4+z
loop_
_atom_site_type_symbol
_atom_site_label
_atom_site_fract_x
_atom_site_fract_y
_atom_site_fract_z
Si Si1 0.125000 0.625000 0.754829
Si Si2 0.359607 0.482563 0.562704
Si Si3 0.875000 0.875000 0.375000
Si Si4 0.375000 0.591131 0.375000
Si Si5 0.349078 0.053532 0.194220
O O1 0.300974 0.630863 0.806830
O O2 0.161151 0.580231 0.709440
O O3 0.500000 0.500000 0.500000
O O4 0.456446 0.439594 0.598762
O O5 0.344747 0.518663 0.627431
O O6 0.175295 0.470138 0.518431
O O7 0.745513 0.842110 0.328039
#
# Coordination Sequence:
#
# PCOD9517029 Si02
#       5
#    16  32   8  16  32
#     4  12  30  52  78 125 161 218 278 346 409 485
#     4  12  23  52  80 116 158 216 264 341 411 504
#     4  12  22  48  80 118 164 210 264 362 396 488
#     4  12  25  52  78 111 172 208 276 341 416 480
#     4  12  27  49  84 117 166 212 279 337 419 490
#
# _framework density 26.442326000000001
#
# number of rings (size 3 to 8) (size 9 to 14) (size 15 to 20)
#    0.000    0.000    6.154    3.692    0.000    1.846 
#    5.538    0.000    0.000    0.000    0.000    0.000 
#    0.000    0.000    0.000    0.000    0.000    0.000 
#
# Total GULP energy -146240.148283 kJ/mol
# GULP energy per Si atom -5624.621088 kJ/mol
# Density = 2.638214 g / cm^3
# Si number density = 26.442326 Si / 1000 Ang^3
#
#
#
# Elastic Constant Matrix: (Units=GPa)
#
#
# Indices 1 2 3 4 5 6 
#
# 1 96.9584 46.1118 59.7479 0.0000 0.0000 0.0000
# 2 46.1118 147.5900 101.9367 0.0000 0.0000 0.0000
# 3 59.7479 101.9367 190.9677 0.0000 0.0000 0.0000
# 4 0.0000 0.0000 0.0000 67.3271 0.0000 0.0000
# 5 0.0000 0.0000 0.0000 0.0000 59.0713 0.0000
# 6 0.0000 0.0000 0.0000 0.0000 0.0000 69.4539
#
#
#
# Elastic Compliance Matrix: (Units=1/GPa)
#
#
# Indices 1 2 3 4 5 6 
#
# 1 0.013141 -0.002005 -0.003041 0.000000 0.000000 0.000000
# 2 -0.002005 0.011038 -0.005265 0.000000 0.000000 0.000000
# 3 -0.003041 -0.005265 0.008998 0.000000 0.000000 0.000000
# 4 0.000000 0.000000 0.000000 0.014853 0.000000 0.000000
# 5 0.000000 0.000000 0.000000 0.000000 0.016929 0.000000
# 6 0.000000 0.000000 0.000000 0.000000 0.000000 0.014398
#
#
# Mechanical properties :
#
#
# Convention : Reuss Voigt Hill
#
# Bulk Modulus (GPa) = 79.64615 94.56764 87.10690
# Shear Modulus (GPa) = 48.00077 54.35176 51.17626
#
# Velocity S-wave (km/s) = 4.26526 4.53866 4.40408
# Velocity P-wave (km/s) = 7.37853 7.95659 7.67300
#
# Compressibility (1/GPa) = 0.01255553
#
# Stress axis : x y z
#
# Youngs Moduli (GPa) = 76.09525 90.59398 111.13346
#
# Poissons Ratio (x) = 0.18168 0.33797
# Poissons Ratio (y) = 0.15260 0.58508
# Poissons Ratio (z) = 0.23141 0.47695
#
# Static dielectric constant tensor:
#      x y z
#    x 2.097050 0.000000 0.000000 
#    y 0.000000 2.034610 0.000000 
#    z 0.000000 0.000000 2.097880 
# 
# From -- ./inp_files/8446.got.cif
#   From: 2010.05.17/outbox.cif.g08.bks.cpg/sg70_5_cif.got.tgz:8446.got - 2010.06.03 15:57:51.
