data_PCOD9517167
_publ_section_title
;
Structure prediction by ZEFSAII (Michael W. Deem and Ramdas Pophale) SiO2 
 PCOD9517167
Probable space group: F D D D
;
_chemical_formula_sum "Si O2"
_cell_formula_units_Z 44
_cell_length_a 12.000000
_cell_length_b 27.000000
_cell_length_c 27.000000
_cell_angle_alpha 90.000000
_cell_angle_beta 90.000000
_cell_angle_gamma 90.000000
_cell_volume 8748.000000
_symmetry_space_group_name_H-M "F D D D"
_symmetry_group_IT_number 70
_space_group.IT_coordinate_system_code '2'
_symmetry_cell_setting 'orthorhombic'
loop_
_space_group_symop_operation_xyz
x,y,z
1/4-x,1/4-y,z
x,1/4-y,1/4-z
1/4-x,y,1/4-z
-x,-y,-z
3/4+x,3/4+y,-z
-x,3/4+y,3/4+z
3/4+x,-y,3/4+z
x,1/2+y,1/2+z
1/4-x,3/4-y,1/2+z
x,3/4-y,3/4-z
1/4-x,1/2+y,3/4-z
-x,1/2-y,1/2-z
3/4+x,1/4+y,1/2-z
-x,1/4+y,1/4+z
3/4+x,1/2-y,1/4+z
1/2+x,y,1/2+z
3/4-x,1/4-y,1/2+z
1/2+x,1/4-y,3/4-z
3/4-x,y,3/4-z
1/2-x,-y,1/2-z
1/4+x,3/4+y,1/2-z
1/2-x,3/4+y,1/4+z
1/4+x,-y,1/4+z
1/2+x,1/2+y,z
3/4-x,3/4-y,z
1/2+x,3/4-y,1/4-z
3/4-x,1/2+y,1/4-z
1/2-x,1/2-y,-z
1/4+x,1/4+y,-z
1/2-x,1/4+y,3/4+z
1/4+x,1/2-y,3/4+z
loop_
_atom_site_type_symbol
_atom_site_label
_atom_site_fract_x
_atom_site_fract_y
_atom_site_fract_z
Si Si1 0.630705 0.281333 0.427078
Si Si2 0.320901 0.517527 0.486334
Si Si3 0.625000 0.625000 0.862735
Si Si4 0.987114 0.619348 0.517990
Si Si5 0.290419 0.194163 0.921152
Si Si6 0.959571 0.773474 0.172789
O O1 0.539084 0.260452 0.466284
O O2 0.674520 0.338142 0.437093
O O3 0.741529 0.247975 0.432915
O O4 0.576803 0.261631 0.374103
O O5 0.299119 0.574226 0.504332
O O6 0.373800 0.489887 0.533403
O O7 0.415137 0.515381 0.443055
O O8 0.697010 0.659763 0.897161
O O9 0.697360 0.583015 0.835287
O O10 0.941962 0.585255 0.472219
O O11 0.125000 0.625000 0.522563
O O12 0.375000 0.198601 0.875000
#
# Coordination Sequence:
#
# PCOD9517167 Si02
#       6
#    32  32  16  32  32  32
#     4  11  25  42  69 100 143 177 234 302 358 431
#     4  11  24  44  69  95 141 185 242 287 361 433
#     4  10  20  38  66  92 125 167 242 292 346 392
#     4  12  24  42  68 103 143 187 229 294 376 436
#     4  11  22  38  66  99 130 178 233 291 345 418
#     4  10  24  43  66 102 131 186 241 297 350 435
#
# _framework density 5.0297210000000003
#
# number of rings (size 3 to 8) (size 9 to 14) (size 15 to 20)
#    0.000    1.091    2.727    3.273    7.636    0.727 
#    0.000    0.909    0.000    2.182    0.000    0.000 
#    0.000    0.000    0.000    0.000    0.000    0.000 
#
# Total GULP energy -245143.239436 kJ/mol
# GULP energy per Si atom -5571.437260 kJ/mol
# Density = 0.501827 g / cm^3
# Si number density = 5.029721 Si / 1000 Ang^3
#
#
#
# Elastic Constant Matrix: (Units=GPa)
#
#
# Indices 1 2 3 4 5 6 
#
# 1 69.1011 16.0585 16.4527 0.0000 0.0000 0.0000
# 2 16.0585 87.0029 18.2561 0.0000 0.0000 0.0000
# 3 16.4527 18.2561 62.9531 0.0000 0.0000 0.0000
# 4 0.0000 0.0000 0.0000 31.8688 0.0000 0.0000
# 5 0.0000 0.0000 0.0000 0.0000 60.7940 0.0000
# 6 0.0000 0.0000 0.0000 0.0000 0.0000 30.8275
#
#
#
# Elastic Compliance Matrix: (Units=1/GPa)
#
#
# Indices 1 2 3 4 5 6 
#
# 1 0.015812 -0.002184 -0.003499 0.000000 0.000000 0.000000
# 2 -0.002184 0.012540 -0.003066 0.000000 0.000000 0.000000
# 3 -0.003499 -0.003066 0.017688 0.000000 0.000000 0.000000
# 4 0.000000 0.000000 0.000000 0.031379 0.000000 0.000000
# 5 0.000000 0.000000 0.000000 0.000000 0.016449 0.000000
# 6 0.000000 0.000000 0.000000 0.000000 0.000000 0.032439
#
#
# Mechanical properties :
#
#
# Convention : Reuss Voigt Hill
#
# Bulk Modulus (GPa) = 35.03526 35.62130 35.32828
# Shear Modulus (GPa) = 32.61157 35.91737 34.26447
#
# Velocity S-wave (km/s) = 4.03046 4.22981 4.13134
# Velocity P-wave (km/s) = 6.25391 6.44972 6.35257
#
# Compressibility (1/GPa) = 0.02854268
#
# Stress axis : x y z
#
# Youngs Moduli (GPa) = 63.24197 79.74263 56.53428
#
# Poissons Ratio (x) = 0.17418 0.19782
# Poissons Ratio (y) = 0.13814 0.17332
# Poissons Ratio (z) = 0.22129 0.24447
#
# Static dielectric constant tensor:
#      x y z
#    x 1.762280 0.000000 0.000000 
#    y 0.000000 1.730950 0.000000 
#    z 0.000000 0.000000 1.804270 
# 
# From -- ./inp_files/22290.got.cif
#   From: 2010.05.17/outbox.ucp.g08.bks.cvg/sg70_12_cif.got.tgz:22290.got - 2010.06.11 16:26:41.
