data_PCOD9517499
_publ_section_title
;
Structure prediction by ZEFSAII (Michael W. Deem and Ramdas Pophale) SiO2 
 PCOD9517499
Probable space group: I M M M
;
_chemical_formula_sum "Si O2"
_cell_formula_units_Z 104
_cell_length_a 7.559071
_cell_length_b 24.634420
_cell_length_c 25.626673
_cell_angle_alpha 90.000000
_cell_angle_beta 90.000000
_cell_angle_gamma 90.000000
_cell_volume 4772.028112
_symmetry_space_group_name_H-M "I M M M"
_symmetry_group_IT_number 71
_symmetry_cell_setting 'orthorhombic'
loop_
_space_group_symop_operation_xyz
x,y,z
-x,-y,z
x,-y,-z
-x,y,-z
-x,-y,-z
x,y,-z
-x,y,z
x,-y,z
1/2+x,1/2+y,1/2+z
1/2-x,1/2-y,1/2+z
1/2+x,1/2-y,1/2-z
1/2-x,1/2+y,1/2-z
1/2-x,1/2-y,1/2-z
1/2+x,1/2+y,1/2-z
1/2-x,1/2+y,1/2+z
1/2+x,1/2-y,1/2+z
loop_
_atom_site_type_symbol
_atom_site_label
_atom_site_fract_x
_atom_site_fract_y
_atom_site_fract_z
Si Si1 0.794182 0.121510 0.758076
Si Si2 0.704211 0.000000 0.738167
Si Si3 0.784001 0.888755 0.559445
Si Si4 0.714471 0.500000 0.115413
Si Si5 0.295246 0.000000 0.936336
Si Si6 0.216219 0.182637 0.344796
Si Si7 0.295925 0.803656 0.147505
Si Si8 0.217672 0.618100 0.560234
O O1 0.779137 0.056666 0.759205
O O2 0.724869 0.144319 0.702771
O O3 0.707442 0.154179 0.805044
O O4 0.000000 0.135812 0.761440
O O5 0.726119 0.000000 0.675349
O O6 0.500000 0.000000 0.751900
O O7 0.723710 0.882502 0.500000
O O8 0.729033 0.842107 0.599739
O O9 0.000000 0.888963 0.558371
O O10 0.729682 0.946160 0.584630
O O11 0.500000 0.500000 0.117204
O O12 0.219847 0.941617 0.921102
O O13 0.500000 0.000000 0.919232
O O14 0.294845 0.000000 0.000000
O O15 0.277493 0.244598 0.338210
O O16 0.000000 0.180615 0.343612
O O17 0.500000 0.792834 0.133654
O O18 0.217580 0.834654 0.097847
O O19 0.267301 0.625814 0.500000
O O20 0.000000 0.616528 0.561578
#
# Coordination Sequence:
#
# PCOD9517499 Si02
#       8
#    16   8  16   8   8  16  16  16
#     4  11  22  39  58  77 107 146 184 223 279 341
#     4  12  24  38  60  87 110 139 180 232 290 343
#     4   9  16  27  50  84 114 145 191 240 281 329
#     4  10  17  32  55  81 115 150 187 230 286 345
#     4   7  10  19  36  59  89 126 159 185 234 306
#     4   9  18  32  51  76 109 147 186 231 276 321
#     4  10  20  33  52  81 111 141 187 237 275 318
#     4   8  14  25  43  69 103 139 173 218 275 322
#
# _framework density 21.793669999999999
#
# number of rings (size 3 to 8) (size 9 to 14) (size 15 to 20)
#    0.000    2.538    1.538    2.769    0.000    2.154 
#    0.000    5.385    0.000    1.385    0.000    0.000 
#    0.000    3.077    0.000    0.000    0.000    0.000 
#
# Total GULP energy -290284.861925 kJ/mol
# GULP energy per Si atom -5582.401191 kJ/mol
# Density = 2.174407 g / cm^3
# Si number density = 21.793670 Si / 1000 Ang^3
#
#
#
# Elastic Constant Matrix: (Units=GPa)
#
#
# Indices 1 2 3 4 5 6 
#
# 1 49.7175 -7.4138 -10.2819 0.0000 0.0000 0.0000
# 2 -7.4138 164.2594 54.0364 0.0000 0.0000 0.0000
# 3 -10.2819 54.0364 75.2995 0.0000 0.0000 0.0000
# 4 0.0000 0.0000 0.0000 16.5653 0.0000 0.0000
# 5 0.0000 0.0000 0.0000 0.0000 6.2640 0.0000
# 6 0.0000 0.0000 0.0000 0.0000 0.0000 -2.0455
#
#
#
# Elastic Compliance Matrix: (Units=1/GPa)
#
#
# Indices 1 2 3 4 5 6 
#
# 1 0.020698 0.000006 0.002822 0.000000 0.000000 0.000000
# 2 0.000006 0.007969 -0.005718 0.000000 0.000000 0.000000
# 3 0.002822 -0.005718 0.017769 0.000000 0.000000 0.000000
# 4 0.000000 0.000000 0.000000 0.060367 0.000000 0.000000
# 5 0.000000 0.000000 0.000000 0.000000 0.159641 0.000000
# 6 0.000000 0.000000 0.000000 0.000000 0.000000 -0.488885
#
#
# Mechanical properties :
#
#
# Convention : Reuss Voigt Hill
#
# Bulk Modulus (GPa) = 24.59658 40.21755 32.40706
# Shear Modulus (GPa) = -24.61754 21.01915 -1.79919
#
# Velocity S-wave (km/s) = -3.36456 3.10895 -0.90959
# Velocity P-wave (km/s) = 1.94501 5.60190 3.71471
#
# Compressibility (1/GPa) = 0.04065606
#
# Stress axis : x y z
#
# Youngs Moduli (GPa) = 48.31352 125.48179 56.27756
#
# Poissons Ratio (x) = -0.00073 -0.15882
# Poissons Ratio (y) = -0.00028 0.32180
# Poissons Ratio (z) = -0.13634 0.71752
#
# Static dielectric constant tensor:
#      x y z
#    x 1.869030 0.000000 0.000000 
#    y 0.000000 1.811890 0.000000 
#    z 0.000000 0.000000 1.761690 
# 
# From -- ./inp_files/63391.got.cif
#   From: 2010.05.17/outbox.cif.g08.bks.cpg/sg71_32_cif.got.tgz:63391.got - 2010.06.03 16:22:01.
