data_PCOD9517366
_publ_section_title
;
Structure prediction by ZEFSAII (Michael W. Deem and Ramdas Pophale) SiO2 
 PCOD9517366
Probable space group: I M M M
;
_chemical_formula_sum "Si O2"
_cell_formula_units_Z 104
_cell_length_a 14.425907
_cell_length_b 15.213208
_cell_length_c 20.305749
_cell_angle_alpha 90.000000
_cell_angle_beta 90.000000
_cell_angle_gamma 90.000000
_cell_volume 4456.387473
_symmetry_space_group_name_H-M "I M M M"
_symmetry_group_IT_number 71
_symmetry_cell_setting 'orthorhombic'
loop_
_space_group_symop_operation_xyz
x,y,z
-x,-y,z
x,-y,-z
-x,y,-z
-x,-y,-z
x,y,-z
-x,y,z
x,-y,z
1/2+x,1/2+y,1/2+z
1/2-x,1/2-y,1/2+z
1/2+x,1/2-y,1/2-z
1/2-x,1/2+y,1/2-z
1/2-x,1/2-y,1/2-z
1/2+x,1/2+y,1/2-z
1/2-x,1/2+y,1/2+z
1/2+x,1/2-y,1/2+z
loop_
_atom_site_type_symbol
_atom_site_label
_atom_site_fract_x
_atom_site_fract_y
_atom_site_fract_z
Si Si1 0.887164 0.100057 0.365645
Si Si2 0.150998 0.903818 0.078533
Si Si3 0.144896 0.595804 0.357728
Si Si4 0.109503 0.242220 0.263750
Si Si5 0.895640 0.284015 0.877413
Si Si6 0.361905 0.101480 0.000000
Si Si7 0.612594 0.704565 0.000000
Si Si8 0.886216 0.397574 0.000000
O O1 0.855233 0.156568 0.302584
O O2 0.866734 0.149904 0.433971
O O3 0.000000 0.097377 0.362744
O O4 0.852999 0.000000 0.365424
O O5 0.248185 0.899346 0.117707
O O6 0.098913 0.815211 0.095638
O O7 0.109460 0.000000 0.094049
O O8 0.165717 0.901583 0.000000
O O9 0.128505 0.500000 0.327206
O O10 0.119007 0.675744 0.312246
O O11 0.094185 0.601102 0.427856
O O12 0.151303 0.270553 0.193642
O O13 0.000000 0.225076 0.251607
O O14 0.854462 0.346079 0.934152
O O15 0.000000 0.318937 0.865953
O O16 0.330287 0.204646 0.000000
O O17 0.321886 0.000000 0.000000
O O18 0.500000 0.722638 0.000000
O O19 0.860072 0.500000 0.000000
O O20 0.000000 0.392535 0.000000
#
# Coordination Sequence:
#
# PCOD9517366 Si02
#       8
#    16  16  16  16  16   8   8   8
#     4   9  17  29  45  67  98 139 184 228 275 325
#     4  10  20  36  60  86 112 147 188 234 289 343
#     4  10  20  35  55  81 114 151 189 227 278 343
#     4  10  21  35  53  81 116 151 188 235 285 337
#     4  10  21  37  59  88 114 143 188 235 289 351
#     4  10  18  29  48  73 101 140 187 229 268 318
#     4  10  17  27  45  69  95 134 188 235 273 321
#     4   9  18  35  59  84 111 143 181 228 282 342
#
# _framework density 23.337288000000001
#
# number of rings (size 3 to 8) (size 9 to 14) (size 15 to 20)
#    0.000    2.231    3.077    0.231    0.000    3.538 
#    0.000    5.385    0.000    0.923    0.000    0.000 
#    0.000    0.000    0.000    0.000    0.000    0.000 
#
# Total GULP energy -290035.032422 kJ/mol
# GULP energy per Si atom -5577.596777 kJ/mol
# Density = 2.328417 g / cm^3
# Si number density = 23.337288 Si / 1000 Ang^3
#
#
#
# Elastic Constant Matrix: (Units=GPa)
#
#
# Indices 1 2 3 4 5 6 
#
# 1 68.5129 7.7787 -2.3352 0.0000 0.0000 0.0000
# 2 7.7787 198.4074 92.3253 0.0000 0.0000 0.0000
# 3 -2.3352 92.3253 177.2845 0.0000 0.0000 0.0000
# 4 0.0000 0.0000 0.0000 5.8550 0.0000 0.0000
# 5 0.0000 0.0000 0.0000 0.0000 0.2357 0.0000
# 6 0.0000 0.0000 0.0000 0.0000 0.0000 24.3429
#
#
#
# Elastic Compliance Matrix: (Units=1/GPa)
#
#
# Indices 1 2 3 4 5 6 
#
# 1 0.014718 -0.000881 0.000652 0.000000 0.000000 0.000000
# 2 -0.000881 0.006705 -0.003503 0.000000 0.000000 0.000000
# 3 0.000652 -0.003503 0.007474 0.000000 0.000000 0.000000
# 4 0.000000 0.000000 0.000000 0.170794 0.000001 0.000000
# 5 0.000000 0.000000 0.000000 0.000001 4.242561 0.000000
# 6 0.000000 0.000000 0.000000 0.000000 0.000000 0.041080
#
#
# Mechanical properties :
#
#
# Convention : Reuss Voigt Hill
#
# Bulk Modulus (GPa) = 46.65572 71.08248 58.86910
# Shear Modulus (GPa) = 1.11162 29.18246 15.14704
#
# Velocity S-wave (km/s) = 0.69091 3.54003 2.55041
# Velocity P-wave (km/s) = 4.54663 6.87270 5.82691
#
# Compressibility (1/GPa) = 0.02143360
#
# Stress axis : x y z
#
# Youngs Moduli (GPa) = 67.94392 149.14532 133.80272
#
# Poissons Ratio (x) = 0.13134 -0.08730
# Poissons Ratio (y) = 0.05983 0.46875
# Poissons Ratio (z) = -0.04433 0.52250
#
# Static dielectric constant tensor:
#      x y z
#    x 2.006190 0.000000 0.000000 
#    y 0.000000 1.845940 0.000000 
#    z 0.000000 0.000000 1.864510 
# 
# From -- ./inp_files/47355.got.cif
#   From: 2010.05.17/outbox.cif.g08.bks.cpg/sg71_24_cif.got.tgz:47355.got - 2010.06.03 16:22:01.
