data_PCOD9517317
_publ_section_title
;
Structure prediction by ZEFSAII (Michael W. Deem and Ramdas Pophale) SiO2 
 PCOD9517317
Probable space group: I M M M
;
_chemical_formula_sum "Si O2"
_cell_formula_units_Z 112
_cell_length_a 34.414953
_cell_length_b 9.107803
_cell_length_c 27.399627
_cell_angle_alpha 90.000000
_cell_angle_beta 90.000000
_cell_angle_gamma 90.000000
_cell_volume 8588.265459
_symmetry_space_group_name_H-M "I M M M"
_symmetry_group_IT_number 71
_symmetry_cell_setting 'orthorhombic'
loop_
_space_group_symop_operation_xyz
x,y,z
-x,-y,z
x,-y,-z
-x,y,-z
-x,-y,-z
x,y,-z
-x,y,z
x,-y,z
1/2+x,1/2+y,1/2+z
1/2-x,1/2-y,1/2+z
1/2+x,1/2-y,1/2-z
1/2-x,1/2+y,1/2-z
1/2-x,1/2-y,1/2-z
1/2+x,1/2+y,1/2-z
1/2-x,1/2+y,1/2+z
1/2+x,1/2-y,1/2+z
loop_
_atom_site_type_symbol
_atom_site_label
_atom_site_fract_x
_atom_site_fract_y
_atom_site_fract_z
Si Si1 0.000000 0.331663 0.583132
Si Si2 0.835624 0.823153 0.445355
Si Si3 0.079128 0.826160 0.586630
Si Si4 0.157039 0.324777 0.261165
Si Si5 0.420376 0.325952 0.795955
Si Si6 0.000000 0.329905 0.702069
Si Si7 0.723220 0.676641 0.291659
Si Si8 0.208874 0.673652 0.641622
O O1 0.959886 0.253143 0.568705
O O2 0.000000 0.500000 0.567414
O O3 0.000000 0.327374 0.642643
O O4 0.823722 0.781590 0.500000
O O5 0.880295 0.774842 0.436331
O O6 0.807770 0.759720 0.404099
O O7 0.835820 0.000000 0.441584
O O8 0.083266 0.805592 0.645224
O O9 0.074731 0.000000 0.577549
O O10 0.155301 0.500000 0.254072
O O11 0.115126 0.254354 0.269640
O O12 0.181345 0.247327 0.217978
O O13 0.181135 0.297626 0.311482
O O14 0.419818 0.500000 0.786760
O O15 0.461300 0.253858 0.781780
O O16 0.000000 0.500000 0.716928
O O17 0.722156 0.500000 0.285441
O O18 0.750000 0.750000 0.250000
O O19 0.747186 0.708595 0.341090
O O20 0.206842 0.500000 0.631949
#
# Coordination Sequence:
#
# PCOD9517317 Si02
#       8
#     8  16  16  16  16   8  16  16
#     4   9  17  27  42  58  69  88 116 151 193 238
#     4  10  20  32  45  60  75  95 126 159 193 236
#     4   9  17  29  42  56  72  93 119 152 194 237
#     4  10  18  27  41  62  82 102 125 153 190 232
#     4  10  17  26  41  58  76 102 130 159 193 234
#     4   9  17  27  37  54  78 101 126 161 193 229
#     4   9  17  28  41  60  81 101 123 149 183 230
#     4   9  18  30  43  58  78 100 122 151 191 232
#
# _framework density 13.04105
#
# number of rings (size 3 to 8) (size 9 to 14) (size 15 to 20)
#    0.000    2.571    1.429    2.571    0.000    6.000 
#    0.000    0.357    0.000    2.143    0.000    0.000 
#    0.000    0.000    0.000    0.000    0.000    0.000 
#
# Total GULP energy -312019.146275 kJ/mol
# GULP energy per Si atom -5571.770469 kJ/mol
# Density = 1.301137 g / cm^3
# Si number density = 13.041050 Si / 1000 Ang^3
#
#
#
# Elastic Constant Matrix: (Units=GPa)
#
#
# Indices 1 2 3 4 5 6 
#
# 1 94.2368 54.2473 46.2664 0.0000 0.0000 0.0000
# 2 54.2473 57.7465 34.8379 0.0000 0.0000 0.0000
# 3 46.2664 34.8379 47.6825 0.0000 0.0000 0.0000
# 4 0.0000 0.0000 0.0000 12.5570 0.0000 0.0000
# 5 0.0000 0.0000 0.0000 0.0000 8.2250 0.0000
# 6 0.0000 0.0000 0.0000 0.0000 0.0000 25.3724
#
#
#
# Elastic Compliance Matrix: (Units=1/GPa)
#
#
# Indices 1 2 3 4 5 6 
#
# 1 0.027471 -0.017391 -0.013949 0.000000 0.000000 0.000000
# 2 -0.017391 0.041976 -0.013794 0.000000 0.000000 0.000000
# 3 -0.013949 -0.013794 0.044585 0.000000 0.000000 0.000000
# 4 0.000000 0.000000 0.000000 0.079637 0.000000 0.000000
# 5 0.000000 0.000000 0.000000 0.000000 0.121581 0.000000
# 6 0.000000 0.000000 0.000000 0.000000 0.000000 0.039413
#
#
# Mechanical properties :
#
#
# Convention : Reuss Voigt Hill
#
# Bulk Modulus (GPa) = 42.08046 52.26324 47.17185
# Shear Modulus (GPa) = 11.04112 13.51849 12.27980
#
# Velocity S-wave (km/s) = 2.91287 3.22314 3.07192
# Velocity P-wave (km/s) = 6.60688 7.34945 6.98803
#
# Compressibility (1/GPa) = 0.02376400
#
# Stress axis : x y z
#
# Youngs Moduli (GPa) = 36.40179 23.82289 22.42919
#
# Poissons Ratio (x) = 0.41431 0.31286
# Poissons Ratio (y) = 0.63308 0.30939
# Poissons Ratio (z) = 0.50776 0.32861
#
# Static dielectric constant tensor:
#      x y z
#    x 1.434910 0.000000 0.000000 
#    y 0.000000 1.433400 0.000000 
#    z 0.000000 0.000000 1.404600 
# 
# From -- ./inp_files/17610.got.cif
#   From: 2010.05.17/outbox.cif.g08.bks.cpg/sg71_9_cif.got.tgz:17610.got - 2010.06.03 16:22:01.
