data_PCOD9517658
_publ_section_title
;
Structure prediction by ZEFSAII (Michael W. Deem and Ramdas Pophale) SiO2 
 PCOD9517658
Probable space group: I M M M
;
_chemical_formula_sum "Si O2"
_cell_formula_units_Z 96
_cell_length_a 23.983268
_cell_length_b 29.557869
_cell_length_c 9.257588
_cell_angle_alpha 90.000000
_cell_angle_beta 90.000000
_cell_angle_gamma 90.000000
_cell_volume 6562.651307
_symmetry_space_group_name_H-M "I M M M"
_symmetry_group_IT_number 71
_symmetry_cell_setting 'orthorhombic'
loop_
_space_group_symop_operation_xyz
x,y,z
-x,-y,z
x,-y,-z
-x,y,-z
-x,-y,-z
x,y,-z
-x,y,z
x,-y,z
1/2+x,1/2+y,1/2+z
1/2-x,1/2-y,1/2+z
1/2+x,1/2-y,1/2-z
1/2-x,1/2+y,1/2-z
1/2-x,1/2-y,1/2-z
1/2+x,1/2+y,1/2-z
1/2-x,1/2+y,1/2+z
1/2+x,1/2-y,1/2+z
loop_
_atom_site_type_symbol
_atom_site_label
_atom_site_fract_x
_atom_site_fract_y
_atom_site_fract_z
Si Si1 0.730404 0.408931 0.169512
Si Si2 0.269927 0.179775 0.831059
Si Si3 0.936478 0.182688 0.829376
Si Si4 0.907292 0.000000 0.166555
Si Si5 0.271469 0.500000 0.666400
Si Si6 0.595443 0.408572 0.169383
Si Si7 0.163607 0.753431 0.830607
O O1 0.758490 0.365989 0.244554
O O2 0.746565 0.455020 0.250241
O O3 0.662932 0.405204 0.182256
O O4 0.743503 0.410861 0.000000
O O5 0.213841 0.210221 0.818756
O O6 0.318548 0.210279 0.762274
O O7 0.279437 0.170879 0.000000
O O8 0.928303 0.136352 0.742659
O O9 0.892135 0.220593 0.783545
O O10 0.000000 0.198250 0.814062
O O11 0.925747 0.173448 0.000000
O O12 0.839375 0.000000 0.166694
O O13 0.923669 0.045853 0.249232
O O14 0.925817 0.000000 0.000000
O O15 0.253572 0.500000 0.500000
O O16 0.581610 0.411091 0.000000
O O17 0.158848 0.741067 0.000000
#
# Coordination Sequence:
#
# PCOD9517658 Si02
#       7
#    16  16  16   8   8  16  16
#     4  10  18  28  43  64  90 118 146 179 219 263
#     4  10  18  28  46  67  88 114 144 180 220 261
#     4  10  20  34  50  65  84 113 147 182 223 270
#     4   9  17  29  46  62  81 109 143 183 225 267
#     4   9  17  27  41  62  88 117 148 178 214 261
#     4  10  19  30  45  64  86 110 142 183 227 268
#     4   9  18  31  45  64  88 112 142 181 222 264
#
# _framework density 14.628235
#
# number of rings (size 3 to 8) (size 9 to 14) (size 15 to 20)
#    0.000    2.333    1.667    2.000    0.000    5.000 
#    0.000    0.417    0.000    2.500    0.000    0.000 
#    0.000    0.000    0.000    0.750    0.000   15.500 
#
# Total GULP energy -267769.507818 kJ/mol
# GULP energy per Si atom -5578.531413 kJ/mol
# Density = 1.459494 g / cm^3
# Si number density = 14.628235 Si / 1000 Ang^3
#
#
#
# Elastic Constant Matrix: (Units=GPa)
#
#
# Indices 1 2 3 4 5 6 
#
# 1 48.8644 36.5124 37.1913 0.0000 0.0000 0.0000
# 2 36.5124 91.2772 67.6070 0.0000 0.0000 0.0000
# 3 37.1913 67.6070 106.0074 0.0000 0.0000 0.0000
# 4 0.0000 0.0000 0.0000 30.4540 0.0000 0.0000
# 5 0.0000 0.0000 0.0000 0.0000 11.5483 0.0000
# 6 0.0000 0.0000 0.0000 0.0000 0.0000 4.9205
#
#
#
# Elastic Compliance Matrix: (Units=1/GPa)
#
#
# Indices 1 2 3 4 5 6 
#
# 1 0.030847 -0.008194 -0.005596 0.000000 0.000000 0.000000
# 2 -0.008194 0.022941 -0.011756 0.000000 0.000000 0.000000
# 3 -0.005596 -0.011756 0.018894 0.000000 0.000000 0.000000
# 4 0.000000 0.000000 0.000000 0.032836 0.000000 0.000000
# 5 0.000000 0.000000 0.000000 0.000000 0.086593 0.000000
# 6 0.000000 0.000000 0.000000 0.000000 0.000000 0.203230
#
#
# Mechanical properties :
#
#
# Convention : Reuss Voigt Hill
#
# Bulk Modulus (GPa) = 46.31960 58.75228 52.53594
# Shear Modulus (GPa) = 11.02220 16.37379 13.69799
#
# Velocity S-wave (km/s) = 2.74795 3.34927 3.06340
# Velocity P-wave (km/s) = 6.46541 7.43018 6.96452
#
# Compressibility (1/GPa) = 0.02158913
#
# Stress axis : x y z
#
# Youngs Moduli (GPa) = 32.41783 43.59058 52.92673
#
# Poissons Ratio (x) = 0.35719 0.29620
# Poissons Ratio (y) = 0.26564 0.62219
# Poissons Ratio (z) = 0.18142 0.51244
#
# Static dielectric constant tensor:
#      x y z
#    x 1.467740 0.000000 0.000000 
#    y 0.000000 1.458570 0.000000 
#    z 0.000000 0.000000 1.489160 
# 
# From -- ./inp_files/13202.got.cif
#   From: 2010.05.17/outbox.cif.g08.bks.cpg/sg71_7_cif.got.tgz:13202.got - 2010.06.03 16:22:01.
