data_PCOD9517603
_publ_section_title
;
Structure prediction by ZEFSAII (Michael W. Deem and Ramdas Pophale) SiO2 
 PCOD9517603
Probable space group: I M M M
;
_chemical_formula_sum "Si O2"
_cell_formula_units_Z 88
_cell_length_a 28.044694
_cell_length_b 21.150670
_cell_length_c 7.569466
_cell_angle_alpha 90.000000
_cell_angle_beta 90.000000
_cell_angle_gamma 90.000000
_cell_volume 4489.935245
_symmetry_space_group_name_H-M "I M M M"
_symmetry_group_IT_number 71
_symmetry_cell_setting 'orthorhombic'
loop_
_space_group_symop_operation_xyz
x,y,z
-x,-y,z
x,-y,-z
-x,y,-z
-x,-y,-z
x,y,-z
-x,y,z
x,-y,z
1/2+x,1/2+y,1/2+z
1/2-x,1/2-y,1/2+z
1/2+x,1/2-y,1/2-z
1/2-x,1/2+y,1/2-z
1/2-x,1/2-y,1/2-z
1/2+x,1/2+y,1/2-z
1/2-x,1/2+y,1/2+z
1/2+x,1/2-y,1/2+z
loop_
_atom_site_type_symbol
_atom_site_label
_atom_site_fract_x
_atom_site_fract_y
_atom_site_fract_z
Si Si1 0.445204 0.137761 0.716849
Si Si2 0.558213 0.000000 0.703707
Si Si3 0.637262 0.229157 0.712405
Si Si4 0.780137 0.361474 0.210840
Si Si5 0.328210 0.635006 0.211686
Si Si6 0.162891 0.000000 0.700738
Si Si7 0.772820 0.500000 0.707934
O O1 0.445092 0.135403 0.500000
O O2 0.500000 0.147616 0.770193
O O3 0.428386 0.068144 0.779697
O O4 0.409730 0.192617 0.774450
O O5 0.500000 0.000000 0.701991
O O6 0.574622 0.000000 0.500000
O O7 0.637547 0.224059 0.500000
O O8 0.683404 0.190634 0.780541
O O9 0.641731 0.302567 0.755343
O O10 0.726015 0.355376 0.280337
O O11 0.796932 0.433568 0.244226
O O12 0.777794 0.353247 0.000000
O O13 0.348498 0.568319 0.282138
O O14 0.324304 0.626918 0.000000
O O15 0.221044 0.000000 0.698362
O O16 0.144284 0.000000 0.500000
O O17 0.763962 0.500000 0.500000
#
# Coordination Sequence:
#
# PCOD9517603 Si02
#       7
#    16   8  16  16  16   8   8
#     4   8  14  25  41  63  89 113 141 182 225 256
#     4   7  10  19  36  56  80 111 143 172 205 246
#     4  10  19  28  43  67  90 115 147 180 217 263
#     4   9  18  31  43  59  89 124 151 178 216 259
#     4   9  17  30  46  62  86 117 144 175 216 262
#     4   8  16  32  49  63  83 115 148 177 218 264
#     4  10  18  27  43  65  86 115 154 190 218 247
#
# _framework density 19.599392000000002
#
# number of rings (size 3 to 8) (size 9 to 14) (size 15 to 20)
#    0.000    3.182    0.000    3.545    0.000    4.364 
#    0.000    2.727    0.000    0.545    0.000    0.636 
#    0.000    8.000    0.000    0.000    0.000    0.000 
#
# Total GULP energy -245232.029551 kJ/mol
# GULP energy per Si atom -5573.455217 kJ/mol
# Density = 1.955478 g / cm^3
# Si number density = 19.599392 Si / 1000 Ang^3
#
#
#
# Elastic Constant Matrix: (Units=GPa)
#
#
# Indices 1 2 3 4 5 6 
#
# 1 62.1372 74.7211 4.1059 0.0000 0.0000 0.0000
# 2 74.7211 216.7656 -5.0776 0.0000 0.0000 0.0000
# 3 4.1059 -5.0776 46.1358 0.0000 0.0000 0.0000
# 4 0.0000 0.0000 0.0000 18.1445 0.0000 0.0000
# 5 0.0000 0.0000 0.0000 0.0000 0.3842 0.0000
# 6 0.0000 0.0000 0.0000 0.0000 0.0000 -226.9872
#
#
#
# Elastic Compliance Matrix: (Units=1/GPa)
#
#
# Indices 1 2 3 4 5 6 
#
# 1 0.028062 -0.009757 -0.003571 0.000000 0.000000 0.000000
# 2 -0.009757 0.008018 0.001751 0.000000 0.000000 0.000000
# 3 -0.003571 0.001751 0.022186 0.000000 0.000000 0.000000
# 4 0.000000 0.000000 0.000000 0.055113 0.000000 0.000000
# 5 0.000000 0.000000 0.000000 0.000000 2.603042 0.000000
# 6 0.000000 0.000000 0.000000 0.000000 0.000000 -0.004406
#
#
# Mechanical properties :
#
#
# Convention : Reuss Voigt Hill
#
# Bulk Modulus (GPa) = 28.48147 52.50415 40.49281
# Shear Modulus (GPa) = 1.82025 -24.93908 -11.55942
#
# Velocity S-wave (km/s) = 0.96475 -3.57100 -2.43118
# Velocity P-wave (km/s) = 3.97547 3.13753 3.58109
#
# Compressibility (1/GPa) = 0.03511055
#
# Stress axis : x y z
#
# Youngs Moduli (GPa) = 35.63494 124.72535 45.07417
#
# Poissons Ratio (x) = 1.21695 0.16097
# Poissons Ratio (y) = 0.34769 -0.07891
# Poissons Ratio (z) = 0.12726 -0.21836
#
# Static dielectric constant tensor:
#      x y z
#    x 1.662410 0.000000 0.000000 
#    y 0.000000 1.736030 0.000000 
#    z 0.000000 0.000000 1.762640 
# 
# From -- ./inp_files/16920.got.cif
#   From: 2010.05.17/outbox.cif.g08.bks.cpg/sg71_9_cif.got.tgz:16920.got - 2010.06.03 16:22:01.
