data_PCOD9517496
_publ_section_title
;
Structure prediction by ZEFSAII (Michael W. Deem and Ramdas Pophale) SiO2 
 PCOD9517496
Probable space group: I M M M
;
_chemical_formula_sum "Si O2"
_cell_formula_units_Z 80
_cell_length_a 17.004297
_cell_length_b 7.377281
_cell_length_c 29.952835
_cell_angle_alpha 90.000000
_cell_angle_beta 90.000000
_cell_angle_gamma 90.000000
_cell_volume 3757.447679
_symmetry_space_group_name_H-M "I M M M"
_symmetry_group_IT_number 71
_symmetry_cell_setting 'orthorhombic'
loop_
_space_group_symop_operation_xyz
x,y,z
-x,-y,z
x,-y,-z
-x,y,-z
-x,-y,-z
x,y,-z
-x,y,z
x,-y,z
1/2+x,1/2+y,1/2+z
1/2-x,1/2-y,1/2+z
1/2+x,1/2-y,1/2-z
1/2-x,1/2+y,1/2-z
1/2-x,1/2-y,1/2-z
1/2+x,1/2+y,1/2-z
1/2-x,1/2+y,1/2+z
1/2+x,1/2-y,1/2+z
loop_
_atom_site_type_symbol
_atom_site_label
_atom_site_fract_x
_atom_site_fract_y
_atom_site_fract_z
Si Si1 0.658979 0.793501 0.719185
Si Si2 0.409875 0.782855 0.810666
Si Si3 0.500000 0.789810 0.434116
Si Si4 0.000000 0.782295 0.170034
Si Si5 0.737794 0.284085 0.861318
Si Si6 0.324326 0.778463 0.451139
O O1 0.636832 0.710250 0.767054
O O2 0.576356 0.793607 0.693825
O O3 0.717717 0.709151 0.682780
O O4 0.685890 0.000000 0.727640
O O5 0.500000 0.716582 0.812869
O O6 0.354479 0.746302 0.853067
O O7 0.414595 0.000000 0.805074
O O8 0.500000 0.775779 0.380932
O O9 0.415328 0.715734 0.448610
O O10 0.500000 0.000000 0.447992
O O11 0.000000 0.000000 0.173073
O O12 0.752074 0.500000 0.861034
O O13 0.775623 0.217147 0.907640
O O14 0.292337 0.727651 0.500000
O O15 0.325681 0.000000 0.449413
#
# Coordination Sequence:
#
# PCOD9517496 Si02
#       6
#    16  16   8   8  16  16
#     4  10  19  36  55  73 103 143 179 208 255 308
#     4  10  21  36  55  75 102 138 174 213 257 312
#     4  10  17  32  54  74 106 144 178 213 249 303
#     4  12  22  29  47  79 112 144 177 215 252 297
#     4  10  20  33  54  80 106 134 168 217 262 306
#     4   9  17  30  53  82 105 133 175 217 257 304
#
# _framework density 21.291048
#
# number of rings (size 3 to 8) (size 9 to 14) (size 15 to 20)
#    0.000    2.000    3.000    1.800    0.000    3.200 
#    0.000    0.000    0.000    3.600    0.000    4.200 
#    0.000    0.000    0.000    0.000    0.000    0.000 
#
# Total GULP energy -223303.106306 kJ/mol
# GULP energy per Si atom -5582.577658 kJ/mol
# Density = 2.124259 g / cm^3
# Si number density = 21.291048 Si / 1000 Ang^3
#
#
#
# Elastic Constant Matrix: (Units=GPa)
#
#
# Indices 1 2 3 4 5 6 
#
# 1 137.5619 4.4807 99.8312 0.0000 0.0000 0.0000
# 2 4.4807 89.0928 5.7242 0.0000 0.0000 0.0000
# 3 99.8312 5.7242 163.7667 0.0000 0.0000 0.0000
# 4 0.0000 0.0000 0.0000 -11.1217 0.0000 0.0000
# 5 0.0000 0.0000 0.0000 0.0000 23.2550 0.0000
# 6 0.0000 0.0000 0.0000 0.0000 0.0000 9.3405
#
#
#
# Elastic Compliance Matrix: (Units=1/GPa)
#
#
# Indices 1 2 3 4 5 6 
#
# 1 0.013039 -0.000145 -0.007943 0.000000 0.000000 0.000000
# 2 -0.000145 0.011251 -0.000305 0.000000 0.000000 0.000000
# 3 -0.007943 -0.000305 0.010959 0.000000 0.000000 0.000000
# 4 0.000000 0.000000 0.000000 -0.089914 0.000000 0.000000
# 5 0.000000 0.000000 0.000000 0.000000 0.043002 0.000000
# 6 0.000000 0.000000 0.000000 0.000000 0.000000 0.107061
#
#
# Mechanical properties :
#
#
# Convention : Reuss Voigt Hill
#
# Bulk Modulus (GPa) = 54.16422 67.83262 60.99842
# Shear Modulus (GPa) = 42.25190 22.98710 32.61950
#
# Velocity S-wave (km/s) = 4.45960 3.28938 3.91842
# Velocity P-wave (km/s) = 7.21197 6.80849 7.01313
#
# Compressibility (1/GPa) = 0.01846237
#
# Stress axis : x y z
#
# Youngs Moduli (GPa) = 76.69437 88.87987 91.24865
#
# Poissons Ratio (x) = 0.01292 0.72481
# Poissons Ratio (y) = 0.01115 0.02780
# Poissons Ratio (z) = 0.60920 0.02708
#
# Static dielectric constant tensor:
#      x y z
#    x 1.753910 0.000000 0.000000 
#    y 0.000000 1.837710 0.000000 
#    z 0.000000 0.000000 1.766630 
# 
# From -- ./inp_files/8682.got.cif
#   From: 2010.05.17/outbox.cif.g08.bks.cpg/sg71_5_cif.got.tgz:8682.got - 2010.06.03 16:22:01.
