data_PCOD9517462
_publ_section_title
;
Structure prediction by ZEFSAII (Michael W. Deem and Ramdas Pophale) SiO2 
 PCOD9517462
Probable space group: I M M M
;
_chemical_formula_sum "Si O2"
_cell_formula_units_Z 80
_cell_length_a 27.282553
_cell_length_b 24.301063
_cell_length_c 8.797820
_cell_angle_alpha 90.000000
_cell_angle_beta 90.000000
_cell_angle_gamma 90.000000
_cell_volume 5832.911016
_symmetry_space_group_name_H-M "I M M M"
_symmetry_group_IT_number 71
_symmetry_cell_setting 'orthorhombic'
loop_
_space_group_symop_operation_xyz
x,y,z
-x,-y,z
x,-y,-z
-x,y,-z
-x,-y,-z
x,y,-z
-x,y,z
x,-y,z
1/2+x,1/2+y,1/2+z
1/2-x,1/2-y,1/2+z
1/2+x,1/2-y,1/2-z
1/2-x,1/2+y,1/2-z
1/2-x,1/2-y,1/2-z
1/2+x,1/2+y,1/2-z
1/2-x,1/2+y,1/2+z
1/2+x,1/2-y,1/2+z
loop_
_atom_site_type_symbol
_atom_site_label
_atom_site_fract_x
_atom_site_fract_y
_atom_site_fract_z
Si Si1 0.740436 0.113866 0.182372
Si Si2 0.555629 0.884814 0.814727
Si Si3 0.203289 0.782032 0.181834
Si Si4 0.645553 0.810990 0.817010
Si Si5 0.604760 0.000000 0.183990
Si Si6 0.786026 0.500000 0.819739
O O1 0.785617 0.154449 0.221070
O O2 0.690176 0.146989 0.222093
O O3 0.740026 0.055367 0.262179
O O4 0.739550 0.106146 0.000000
O O5 0.500000 0.876291 0.762711
O O6 0.594892 0.838887 0.767141
O O7 0.575991 0.944848 0.770446
O O8 0.555246 0.884331 0.000000
O O9 0.250000 0.750000 0.250000
O O10 0.157508 0.748363 0.246606
O O11 0.204215 0.777667 0.000000
O O12 0.645938 0.806109 0.000000
O O13 0.659254 0.000000 0.249812
O O14 0.608638 0.000000 0.000000
O O15 0.789239 0.500000 0.000000
#
# Coordination Sequence:
#
# PCOD9517462 Si02
#       6
#    16  16  16  16   8   8
#     4   9  17  30  43  56  76 105 136 165 200 243
#     4   9  16  26  43  63  78 102 144 183 209 237
#     4   9  17  28  43  60  77 100 130 164 202 246
#     4   9  16  27  43  61  80 102 131 171 210 242
#     4  10  17  30  44  54  76 108 144 181 211 241
#     4  12  22  27  39  61  82 106 135 171 210 245
#
# _framework density 13.715278
#
# number of rings (size 3 to 8) (size 9 to 14) (size 15 to 20)
#    0.000    2.600    2.000    3.000    0.000    5.200 
#    0.000    0.000    0.000    3.000    0.000    0.000 
#    0.000    0.000    0.000    0.900    0.000   18.200 
#
# Total GULP energy -222779.649459 kJ/mol
# GULP energy per Si atom -5569.491236 kJ/mol
# Density = 1.368406 g / cm^3
# Si number density = 13.715278 Si / 1000 Ang^3
#
#
#
# Elastic Constant Matrix: (Units=GPa)
#
#
# Indices 1 2 3 4 5 6 
#
# 1 77.3660 69.9718 20.4636 0.0000 0.0000 0.0000
# 2 69.9718 118.8581 36.1742 0.0000 0.0000 0.0000
# 3 20.4636 36.1742 21.1482 0.0000 0.0000 0.0000
# 4 0.0000 0.0000 0.0000 19.9824 0.0000 0.0000
# 5 0.0000 0.0000 0.0000 0.0000 11.9408 0.0000
# 6 0.0000 0.0000 0.0000 0.0000 0.0000 13.9568
#
#
#
# Elastic Compliance Matrix: (Units=1/GPa)
#
#
# Indices 1 2 3 4 5 6 
#
# 1 0.027697 -0.016997 0.002273 0.000000 0.000000 0.000000
# 2 -0.016997 0.027980 -0.031413 0.000000 0.000000 0.000000
# 3 0.002273 -0.031413 0.098818 0.000000 0.000000 0.000000
# 4 0.000000 0.000000 0.000000 0.050044 0.000000 0.000000
# 5 0.000000 0.000000 0.000000 0.000000 0.083747 0.000000
# 6 0.000000 0.000000 0.000000 0.000000 0.000000 0.071649
#
#
# Mechanical properties :
#
#
# Convention : Reuss Voigt Hill
#
# Bulk Modulus (GPa) = 16.07173 52.28793 34.17983
# Shear Modulus (GPa) = 10.57195 15.22686 12.89940
#
# Velocity S-wave (km/s) = 2.77937 3.33560 3.07011
# Velocity P-wave (km/s) = 4.69504 7.28296 6.12719
#
# Compressibility (1/GPa) = 0.06222105
#
# Stress axis : x y z
#
# Youngs Moduli (GPa) = 36.10535 35.73973 10.11957
#
# Poissons Ratio (x) = 0.60746 -0.02300
# Poissons Ratio (y) = 0.61368 0.31789
# Poissons Ratio (z) = -0.08207 1.12271
#
# Static dielectric constant tensor:
#      x y z
#    x 1.446090 0.000000 0.000000 
#    y 0.000000 1.462350 0.000000 
#    z 0.000000 0.000000 1.461950 
# 
# From -- ./inp_files/11278.got.cif
#   From: 2010.05.17/outbox.cif.g08.bks.cpg/sg71_6_cif.got.tgz:11278.got - 2010.06.03 16:22:01.
