data_PCOD9517144
_publ_section_title
;
Structure prediction by ZEFSAII (Michael W. Deem and Ramdas Pophale) SiO2 
 PCOD9517144
Probable space group: F D D D
;
_chemical_formula_sum "Si O2"
_cell_formula_units_Z 112
_cell_length_a 13.035863
_cell_length_b 8.078943
_cell_length_c 42.465180
_cell_angle_alpha 90.000000
_cell_angle_beta 90.000000
_cell_angle_gamma 90.000000
_cell_volume 4472.262648
_symmetry_space_group_name_H-M "F D D D"
_symmetry_group_IT_number 70
_space_group.IT_coordinate_system_code '2'
_symmetry_cell_setting 'orthorhombic'
loop_
_space_group_symop_operation_xyz
x,y,z
1/4-x,1/4-y,z
x,1/4-y,1/4-z
1/4-x,y,1/4-z
-x,-y,-z
3/4+x,3/4+y,-z
-x,3/4+y,3/4+z
3/4+x,-y,3/4+z
x,1/2+y,1/2+z
1/4-x,3/4-y,1/2+z
x,3/4-y,3/4-z
1/4-x,1/2+y,3/4-z
-x,1/2-y,1/2-z
3/4+x,1/4+y,1/2-z
-x,1/4+y,1/4+z
3/4+x,1/2-y,1/4+z
1/2+x,y,1/2+z
3/4-x,1/4-y,1/2+z
1/2+x,1/4-y,3/4-z
3/4-x,y,3/4-z
1/2-x,-y,1/2-z
1/4+x,3/4+y,1/2-z
1/2-x,3/4+y,1/4+z
1/4+x,-y,1/4+z
1/2+x,1/2+y,z
3/4-x,3/4-y,z
1/2+x,3/4-y,1/4-z
3/4-x,1/2+y,1/4-z
1/2-x,1/2-y,-z
1/4+x,1/4+y,-z
1/2-x,1/4+y,3/4+z
1/4+x,1/2-y,3/4+z
loop_
_atom_site_type_symbol
_atom_site_label
_atom_site_fract_x
_atom_site_fract_y
_atom_site_fract_z
Si Si1 0.248045 0.149971 0.822791
Si Si2 0.472576 0.540179 0.681229
Si Si3 0.429297 0.125000 0.625000
Si Si4 0.735509 0.461906 0.286176
O O1 0.125000 0.125000 0.818776
O O2 0.249587 0.243597 0.856405
O O3 0.279487 0.284669 0.796972
O O4 0.284848 0.961856 0.820784
O O5 0.399867 0.545919 0.650219
O O6 0.387491 0.554601 0.708790
O O7 0.519182 0.360950 0.689844
O O8 0.750000 0.500000 0.250000
#
# Coordination Sequence:
#
# PCOD9517144 Si02
#       4
#    32  32  16  32
#     4   8  16  24  38  60  83 112 131 169 211 252
#     4   9  18  26  41  62  84 120 131 180 220 245
#     4   8  14  24  42  62  86 107 139 160 226 276
#     4   9  17  27  38  57  86 119 143 162 200 267
#
# _framework density 25.043251000000001
#
# number of rings (size 3 to 8) (size 9 to 14) (size 15 to 20)
#    0.000    4.000    0.000    0.000   24.000    1.143 
#    0.000    0.000    0.000    0.000    0.000    0.000 
#    0.000   73.143   32.000    0.000    0.000    0.000 
#
# Total GULP energy -156090.893703 kJ/mol
# GULP energy per Si atom -5574.674775 kJ/mol
# Density = 2.498625 g / cm^3
# Si number density = 25.043251 Si / 1000 Ang^3
#
#
#
# Elastic Constant Matrix: (Units=GPa)
#
#
# Indices 1 2 3 4 5 6 
#
# 1 52.7382 40.8578 15.7733 0.0000 0.0000 0.0000
# 2 40.8578 288.2522 85.0760 0.0000 0.0000 0.0000
# 3 15.7733 85.0760 194.0694 0.0000 0.0000 0.0000
# 4 0.0000 0.0000 0.0000 29.1889 0.0000 0.0000
# 5 0.0000 0.0000 0.0000 0.0000 4.4958 0.0000
# 6 0.0000 0.0000 0.0000 0.0000 0.0000 48.6251
#
#
#
# Elastic Compliance Matrix: (Units=1/GPa)
#
#
# Indices 1 2 3 4 5 6 
#
# 1 0.021338 -0.002886 -0.000469 0.000000 0.000000 0.000000
# 2 -0.002886 0.004375 -0.001683 0.000000 0.000000 0.000000
# 3 -0.000469 -0.001683 0.005929 0.000000 0.000000 0.000000
# 4 0.000000 0.000000 0.000000 0.034260 0.000000 0.000000
# 5 0.000000 0.000000 0.000000 0.000000 0.222432 0.000000
# 6 0.000000 0.000000 0.000000 0.000000 0.000000 0.020566
#
#
# Mechanical properties :
#
#
# Convention : Reuss Voigt Hill
#
# Bulk Modulus (GPa) = 46.37194 90.94154 68.65674
# Shear Modulus (GPa) = 15.32972 42.68547 29.00759
#
# Velocity S-wave (km/s) = 2.47681 4.13300 3.40707
# Velocity P-wave (km/s) = 5.17072 7.69209 6.55380
#
# Compressibility (1/GPa) = 0.02156476
#
# Stress axis : x y z
#
# Youngs Moduli (GPa) = 46.86519 228.56611 168.66586
#
# Poissons Ratio (x) = 0.65965 0.07912
# Poissons Ratio (y) = 0.13525 0.28393
# Poissons Ratio (z) = 0.02198 0.38476
#
# Static dielectric constant tensor:
#      x y z
#    x 2.071170 0.000000 0.000000 
#    y 0.000000 2.147450 0.000000 
#    z 0.000000 0.000000 1.938720 
# 
# From -- ./inp_files/68696.got.cif
#   From: 2010.05.17/outbox.cif.g08.bks.cpg/sg70_35_cif.got.tgz:68696.got - 2010.06.03 15:57:51.
