data_PCOD9517766
_publ_section_title
;
Structure prediction by ZEFSAII (Michael W. Deem and Ramdas Pophale) SiO2 
 PCOD9517766
Probable space group: I M M M
;
_chemical_formula_sum "Si O2"
_cell_formula_units_Z 104
_cell_length_a 14.596316
_cell_length_b 13.561990
_cell_length_c 30.545602
_cell_angle_alpha 90.000000
_cell_angle_beta 90.000000
_cell_angle_gamma 90.000000
_cell_volume 6046.657443
_symmetry_space_group_name_H-M "I M M M"
_symmetry_group_IT_number 71
_symmetry_cell_setting 'orthorhombic'
loop_
_space_group_symop_operation_xyz
x,y,z
-x,-y,z
x,-y,-z
-x,y,-z
-x,-y,-z
x,y,-z
-x,y,z
x,-y,z
1/2+x,1/2+y,1/2+z
1/2-x,1/2-y,1/2+z
1/2+x,1/2-y,1/2-z
1/2-x,1/2+y,1/2-z
1/2-x,1/2-y,1/2-z
1/2+x,1/2+y,1/2-z
1/2-x,1/2+y,1/2+z
1/2+x,1/2-y,1/2+z
loop_
_atom_site_type_symbol
_atom_site_label
_atom_site_fract_x
_atom_site_fract_y
_atom_site_fract_z
Si Si1 0.107859 0.613964 0.876344
Si Si2 0.740111 0.882602 0.786123
Si Si3 0.843640 0.614990 0.547914
Si Si4 0.109273 0.719305 0.783070
Si Si5 0.902501 0.618326 0.643997
Si Si6 0.000000 0.111277 0.946885
Si Si7 0.166037 0.250535 0.949884
O O1 0.131215 0.500000 0.868307
O O2 0.118304 0.676012 0.831997
O O3 0.164693 0.660614 0.915972
O O4 0.000000 0.618277 0.888748
O O5 0.833483 0.821295 0.780059
O O6 0.665059 0.853672 0.749231
O O7 0.688188 0.848567 0.830742
O O8 0.755976 0.000000 0.786627
O O9 0.889059 0.625254 0.500000
O O10 0.812884 0.500000 0.550562
O O11 0.898183 0.634829 0.592119
O O12 0.758778 0.688741 0.548941
O O13 0.000000 0.726751 0.773459
O O14 0.903624 0.500000 0.650463
O O15 0.000000 0.657739 0.661177
O O16 0.911509 0.173565 0.934341
O O17 0.000000 0.000000 0.929803
O O18 0.000000 0.105419 0.000000
O O19 0.144506 0.281409 0.000000
#
# Coordination Sequence:
#
# PCOD9517766 Si02
#       7
#    16  16  16  16  16   8  16
#     4  10  20  33  48  66  93 128 168 212 256 306
#     4  10  20  35  56  80 105 135 173 216 258 306
#     4   9  17  28  43  65  96 131 161 198 253 309
#     4  10  21  36  55  78 106 138 173 211 260 318
#     4   9  17  29  47  70  96 128 167 208 248 299
#     4   9  16  26  41  61  87 123 166 206 245 299
#     4  10  18  29  44  64  92 127 170 214 253 301
#
# _framework density 17.199586
#
# number of rings (size 3 to 8) (size 9 to 14) (size 15 to 20)
#    0.000    2.385    0.769    2.308    0.000    4.308 
#    0.000    3.077    0.000    0.000    0.000    0.000 
#    0.000    5.538    0.000   13.538    0.000    0.615 
#
# Total GULP energy -289624.658512 kJ/mol
# GULP energy per Si atom -5569.704971 kJ/mol
# Density = 1.716044 g / cm^3
# Si number density = 17.199586 Si / 1000 Ang^3
#
#
#
# Elastic Constant Matrix: (Units=GPa)
#
#
# Indices 1 2 3 4 5 6 
#
# 1 82.3817 38.1543 22.3268 0.0000 0.0000 0.0000
# 2 38.1543 76.8535 24.9191 0.0000 0.0000 0.0000
# 3 22.3268 24.9191 76.5766 0.0000 0.0000 0.0000
# 4 0.0000 0.0000 0.0000 23.2045 0.0000 0.0000
# 5 0.0000 0.0000 0.0000 0.0000 -128.0569 0.0000
# 6 0.0000 0.0000 0.0000 0.0000 0.0000 8.3750
#
#
#
# Elastic Compliance Matrix: (Units=1/GPa)
#
#
# Indices 1 2 3 4 5 6 
#
# 1 0.016131 -0.007248 -0.002345 0.000000 0.000000 0.000000
# 2 -0.007248 0.017803 -0.003680 0.000000 0.000000 0.000000
# 3 -0.002345 -0.003680 0.014940 0.000000 0.000000 0.000000
# 4 0.000000 0.000000 0.000000 0.043095 0.000000 0.000000
# 5 0.000000 0.000000 0.000000 0.000000 -0.007809 0.000000
# 6 0.000000 0.000000 0.000000 0.000000 0.000000 0.119402
#
#
# Mechanical properties :
#
#
# Convention : Reuss Voigt Hill
#
# Bulk Modulus (GPa) = 44.78549 45.17912 44.98231
# Shear Modulus (GPa) = 21.04810 -9.26802 5.89004
#
# Velocity S-wave (km/s) = 3.50202 -2.32384 1.85255
# Velocity P-wave (km/s) = 6.51517 4.37313 5.54850
#
# Compressibility (1/GPa) = 0.02232866
#
# Stress axis : x y z
#
# Youngs Moduli (GPa) = 61.99286 56.16913 66.93447
#
# Poissons Ratio (x) = 0.40712 0.15693
# Poissons Ratio (y) = 0.44933 0.24633
# Poissons Ratio (z) = 0.14534 0.20671
#
# Static dielectric constant tensor:
#      x y z
#    x 1.592370 0.000000 0.000000 
#    y 0.000000 1.559310 0.000000 
#    z 0.000000 0.000000 1.620440 
# 
# From -- ./inp_files/69959.got.cif
#   From: 2010.05.17/outbox.cif.g08.bks.cpg/sg71_35_cif.got.tgz:69959.got - 2010.06.03 16:22:01.
