data_PCOD9517302
_publ_section_title
;
Structure prediction by ZEFSAII (Michael W. Deem and Ramdas Pophale) SiO2 
 PCOD9517302
Probable space group: I M M M
;
_chemical_formula_sum "Si O2"
_cell_formula_units_Z 112
_cell_length_a 7.389632
_cell_length_b 24.544970
_cell_length_c 31.010675
_cell_angle_alpha 90.000000
_cell_angle_beta 90.000000
_cell_angle_gamma 90.000000
_cell_volume 5624.663382
_symmetry_space_group_name_H-M "I M M M"
_symmetry_group_IT_number 71
_symmetry_cell_setting 'orthorhombic'
loop_
_space_group_symop_operation_xyz
x,y,z
-x,-y,z
x,-y,-z
-x,y,-z
-x,-y,-z
x,y,-z
-x,y,z
x,-y,z
1/2+x,1/2+y,1/2+z
1/2-x,1/2-y,1/2+z
1/2+x,1/2-y,1/2-z
1/2-x,1/2+y,1/2-z
1/2-x,1/2-y,1/2-z
1/2+x,1/2+y,1/2-z
1/2-x,1/2+y,1/2+z
1/2+x,1/2-y,1/2+z
loop_
_atom_site_type_symbol
_atom_site_label
_atom_site_fract_x
_atom_site_fract_y
_atom_site_fract_z
Si Si1 0.283223 0.437799 0.718524
Si Si2 0.201700 0.149106 0.615223
Si Si3 0.782276 0.440387 0.050233
Si Si4 0.285659 0.062123 0.124371
Si Si5 0.779488 0.638634 0.452018
Si Si6 0.720905 0.734851 0.048640
Si Si7 0.721124 0.563859 0.185439
O O1 0.500000 0.439064 0.720366
O O2 0.215545 0.500000 0.715593
O O3 0.237091 0.412814 0.672296
O O4 0.225087 0.418983 0.765886
O O5 0.190361 0.106572 0.576141
O O6 0.286092 0.200364 0.589951
O O7 0.284890 0.110464 0.652319
O O8 0.000000 0.165311 0.630310
O O9 0.730971 0.500000 0.067183
O O10 0.000000 0.435285 0.054051
O O11 0.738107 0.438145 0.000000
O O12 0.500000 0.057730 0.117451
O O13 0.214048 0.100215 0.086377
O O14 0.211856 0.000000 0.123649
O O15 0.724951 0.620213 0.500000
O O16 0.727563 0.701891 0.447148
O O17 0.000000 0.638389 0.451221
O O18 0.500000 0.731555 0.049117
O O19 0.776564 0.716093 0.000000
O O20 0.500000 0.562970 0.182639
O O21 0.776503 0.500000 0.178062
#
# Coordination Sequence:
#
# PCOD9517302 Si02
#       7
#    16  16  16  16  16  16  16
#     4   8  14  26  42  57  78 110 137 154 188 245
#     4  10  17  25  42  64  79  95 132 183 214 228
#     4   9  18  30  39  50  76 111 137 159 201 261
#     4   9  16  25  41  66  87 102 130 169 198 226
#     4   8  14  25  40  59  86 114 132 154 197 246
#     4   8  14  24  38  58  82 106 133 164 201 246
#     4   8  14  24  38  58  82 104 128 163 206 245
#
# _framework density 19.912303000000001
#
# number of rings (size 3 to 8) (size 9 to 14) (size 15 to 20)
#    0.000    3.429    0.000    3.000    0.000    2.000 
#    0.000    2.857    0.000    4.714    0.000    4.000 
#    0.000    0.000    0.000    0.000    0.000    0.000 
#
# Total GULP energy -311763.416873 kJ/mol
# GULP energy per Si atom -5567.203873 kJ/mol
# Density = 1.986698 g / cm^3
# Si number density = 19.912303 Si / 1000 Ang^3
#
#
#
# Elastic Constant Matrix: (Units=GPa)
#
#
# Indices 1 2 3 4 5 6 
#
# 1 64.1210 3.8050 5.2176 0.0000 0.0000 0.0000
# 2 3.8050 71.6577 79.7699 0.0000 0.0000 0.0000
# 3 5.2176 79.7699 174.0123 0.0000 0.0000 0.0000
# 4 0.0000 0.0000 0.0000 41.9339 0.0000 0.0000
# 5 0.0000 0.0000 0.0000 0.0000 10.1393 0.0000
# 6 0.0000 0.0000 0.0000 0.0000 0.0000 7.4307
#
#
#
# Elastic Compliance Matrix: (Units=1/GPa)
#
#
# Indices 1 2 3 4 5 6 
#
# 1 0.015648 -0.000630 -0.000180 0.000000 0.000000 0.000000
# 2 -0.000630 0.028524 -0.013057 0.000000 0.000000 0.000000
# 3 -0.000180 -0.013057 0.011738 0.000000 0.000000 0.000000
# 4 0.000000 0.000000 0.000000 0.023847 0.000000 0.000000
# 5 0.000000 0.000000 0.000000 0.000000 0.098626 0.000000
# 6 0.000000 0.000000 0.000000 0.000000 0.000000 0.134577
#
#
# Mechanical properties :
#
#
# Convention : Reuss Voigt Hill
#
# Bulk Modulus (GPa) = 35.49339 54.15288 44.82314
# Shear Modulus (GPa) = 14.28228 26.63402 20.45815
#
# Velocity S-wave (km/s) = 2.68107 3.66124 3.20880
# Velocity P-wave (km/s) = 5.23906 6.71771 6.02393
#
# Compressibility (1/GPa) = 0.02817426
#
# Stress axis : x y z
#
# Youngs Moduli (GPa) = 63.90767 35.05872 85.19669
#
# Poissons Ratio (x) = 0.02209 0.01536
# Poissons Ratio (y) = 0.04027 1.11239
# Poissons Ratio (z) = 0.01152 0.45775
#
# Static dielectric constant tensor:
#      x y z
#    x 1.802890 0.000000 0.000000 
#    y 0.000000 1.694820 0.000000 
#    z 0.000000 0.000000 1.739160 
# 
# From -- ./inp_files/59148.got.cif
#   From: 2010.05.17/outbox.cif.g08.bks.cpg/sg71_30_cif.got.tgz:59148.got - 2010.06.03 16:22:01.
