data_PCOD9517287
_publ_section_title
;
Structure prediction by ZEFSAII (Michael W. Deem and Ramdas Pophale) SiO2 
 PCOD9517287
Probable space group: I M M M
;
_chemical_formula_sum "Si O2"
_cell_formula_units_Z 76
_cell_length_a 18.957787
_cell_length_b 29.073927
_cell_length_c 9.033124
_cell_angle_alpha 90.000000
_cell_angle_beta 90.000000
_cell_angle_gamma 90.000000
_cell_volume 4978.853035
_symmetry_space_group_name_H-M "I M M M"
_symmetry_group_IT_number 71
_symmetry_cell_setting 'orthorhombic'
loop_
_space_group_symop_operation_xyz
x,y,z
-x,-y,z
x,-y,-z
-x,y,-z
-x,-y,-z
x,y,-z
-x,y,z
x,-y,z
1/2+x,1/2+y,1/2+z
1/2-x,1/2-y,1/2+z
1/2+x,1/2-y,1/2-z
1/2-x,1/2+y,1/2-z
1/2-x,1/2-y,1/2-z
1/2+x,1/2+y,1/2-z
1/2-x,1/2+y,1/2+z
1/2+x,1/2-y,1/2+z
loop_
_atom_site_type_symbol
_atom_site_label
_atom_site_fract_x
_atom_site_fract_y
_atom_site_fract_z
Si Si1 0.500000 0.500000 0.000000
Si Si2 0.000000 0.865711 0.319968
Si Si3 0.000000 0.235947 0.177791
Si Si4 0.736659 0.323095 0.174182
Si Si5 0.618723 0.500000 0.251086
Si Si6 0.359434 0.231360 0.826009
Si Si7 0.500000 0.500000 0.500000
Si Si8 0.854775 0.901911 0.821314
O O1 0.563670 0.500000 0.120231
O O2 0.069385 0.889381 0.251794
O O3 0.000000 0.868558 0.500000
O O4 0.000000 0.813180 0.262874
O O5 0.069455 0.262338 0.233107
O O6 0.000000 0.229128 0.000000
O O7 0.682539 0.279930 0.182578
O O8 0.807805 0.306138 0.253571
O O9 0.700472 0.365074 0.259326
O O10 0.747363 0.333033 0.000000
O O11 0.562322 0.500000 0.379775
O O12 0.662583 0.546787 0.266932
O O13 0.373062 0.222319 0.000000
O O14 0.860093 0.899620 0.000000
#
# Coordination Sequence:
#
# PCOD9517287 Si02
#       8
#     2   8   8  16   8  16   2  16
#     4  10  24  34  52  70  96 138 172 224 268 290
#     4  12  24  33  46  71 100 132 177 218 255 300
#     4  12  22  34  53  77 103 134 171 212 254 304
#     4  10  21  35  53  73 101 131 170 212 256 306
#     4  11  24  36  50  68 100 135 176 218 260 301
#     4  10  20  36  53  73 102 133 166 210 256 304
#     4  10  16  42  48  66  96 138 172 224 252 290
#     4  12  23  36  52  71  97 136 177 217 261 303
#
# _framework density 15.264559999999999
#
# number of rings (size 3 to 8) (size 9 to 14) (size 15 to 20)
#    0.000    1.053    3.158    5.053    4.421    1.684 
#    0.000    0.000    0.000    0.000    0.000    0.000 
#    0.000    0.842    0.000    7.263    0.000    3.053 
#
# Total GULP energy -211570.439118 kJ/mol
# GULP energy per Si atom -5567.643135 kJ/mol
# Density = 1.522982 g / cm^3
# Si number density = 15.264560 Si / 1000 Ang^3
#
#
#
# Elastic Constant Matrix: (Units=GPa)
#
#
# Indices 1 2 3 4 5 6 
#
# 1 72.9060 46.8755 39.9204 0.0000 0.0000 0.0000
# 2 46.8755 109.2829 49.7204 0.0000 0.0000 0.0000
# 3 39.9204 49.7204 166.8861 0.0001 0.0000 0.0003
# 4 0.0000 0.0000 0.0001 30.4602 0.0000 0.0000
# 5 0.0000 0.0000 0.0000 0.0000 26.3232 0.0000
# 6 0.0000 0.0000 0.0003 0.0000 0.0000 -164.3817
#
#
#
# Elastic Compliance Matrix: (Units=1/GPa)
#
#
# Indices 1 2 3 4 5 6 
#
# 1 0.019840 -0.007347 -0.002557 0.000000 0.000000 0.000000
# 2 -0.007347 0.013306 -0.002207 0.000000 0.000000 0.000000
# 3 -0.002557 -0.002207 0.007261 0.000000 0.000000 0.000000
# 4 0.000000 0.000000 0.000000 0.032830 0.000000 0.000000
# 5 0.000000 0.000000 0.000000 0.000000 0.037989 0.000000
# 6 0.000000 0.000000 0.000000 0.000000 0.000000 -0.006083
#
#
# Mechanical properties :
#
#
# Convention : Reuss Voigt Hill
#
# Bulk Modulus (GPa) = 61.78207 69.12306 65.45257
# Shear Modulus (GPa) = 37.10313 -7.34908 14.87703
#
# Velocity S-wave (km/s) = 4.93553 -2.19657 3.12526
# Velocity P-wave (km/s) = 8.54642 6.24087 7.48297
#
# Compressibility (1/GPa) = 0.01618593
#
# Stress axis : x y z
#
# Youngs Moduli (GPa) = 50.40297 75.15463 137.71713
#
# Poissons Ratio (x) = 0.55214 0.35215
# Poissons Ratio (y) = 0.37030 0.30392
# Poissons Ratio (z) = 0.12888 0.16585
#
# Static dielectric constant tensor:
#      x y z
#    x 1.475210 0.000000 0.000000 
#    y 0.000000 1.516160 0.000000 
#    z 0.000000 0.000000 1.513180 
# 
# From -- ./inp_files/8489.got.cif
#   From: 2010.05.17/outbox.cif.g08.bks.cpg/sg71_5_cif.got.tgz:8489.got - 2010.06.03 16:22:01.
