data_PCOD9517080
_publ_section_title
;
Structure prediction by ZEFSAII (Michael W. Deem and Ramdas Pophale) SiO2 
 PCOD9517080
Probable space group: F D D D
;
_chemical_formula_sum "Si O2"
_cell_formula_units_Z 88
_cell_length_a 28.567637
_cell_length_b 23.999625
_cell_length_c 4.820868
_cell_angle_alpha 90.000000
_cell_angle_beta 90.000000
_cell_angle_gamma 90.000000
_cell_volume 3305.247724
_symmetry_space_group_name_H-M "F D D D"
_symmetry_group_IT_number 70
_space_group.IT_coordinate_system_code '2'
_symmetry_cell_setting 'orthorhombic'
loop_
_space_group_symop_operation_xyz
x,y,z
1/4-x,1/4-y,z
x,1/4-y,1/4-z
1/4-x,y,1/4-z
-x,-y,-z
3/4+x,3/4+y,-z
-x,3/4+y,3/4+z
3/4+x,-y,3/4+z
x,1/2+y,1/2+z
1/4-x,3/4-y,1/2+z
x,3/4-y,3/4-z
1/4-x,1/2+y,3/4-z
-x,1/2-y,1/2-z
3/4+x,1/4+y,1/2-z
-x,1/4+y,1/4+z
3/4+x,1/2-y,1/4+z
1/2+x,y,1/2+z
3/4-x,1/4-y,1/2+z
1/2+x,1/4-y,3/4-z
3/4-x,y,3/4-z
1/2-x,-y,1/2-z
1/4+x,3/4+y,1/2-z
1/2-x,3/4+y,1/4+z
1/4+x,-y,1/4+z
1/2+x,1/2+y,z
3/4-x,3/4-y,z
1/2+x,3/4-y,1/4-z
3/4-x,1/2+y,1/4-z
1/2-x,1/2-y,-z
1/4+x,1/4+y,-z
1/2-x,1/4+y,3/4+z
1/4+x,1/2-y,3/4+z
loop_
_atom_site_type_symbol
_atom_site_label
_atom_site_fract_x
_atom_site_fract_y
_atom_site_fract_z
Si Si1 0.223516 0.875000 0.375000
Si Si2 0.320102 0.011120 0.309506
Si Si3 0.290268 0.305977 0.476432
Si Si4 0.375000 0.875000 0.875000
O O1 0.192245 0.926835 0.282418
O O2 0.254495 0.901072 0.625821
O O3 0.375000 0.007888 0.375000
O O4 0.290991 0.999569 0.588302
O O5 0.300640 0.965745 0.086836
O O6 0.339739 0.336730 0.545334
#
# Coordination Sequence:
#
# PCOD9517080 Si02
#       4
#    16  32  32   8
#     4  12  30  49  87 124 172 216 273 353 418 480
#     4  12  27  53  79 120 168 217 272 335 414 498
#     4  12  27  49  82 120 162 213 285 330 405 494
#     4  12  24  50  82 114 156 222 266 338 408 472
#
# _framework density 26.624326
#
# number of rings (size 3 to 8) (size 9 to 14) (size 15 to 20)
#    0.000    0.000    3.636    4.364    0.000   11.636 
#    0.000    0.000    0.000    0.000    0.000    0.000 
#    0.000    0.000    0.000    0.000    0.000    0.000 
#
# Total GULP energy -123172.842709 kJ/mol
# GULP energy per Si atom -5598.765578 kJ/mol
# Density = 2.656373 g / cm^3
# Si number density = 26.624326 Si / 1000 Ang^3
#
#
#
# Elastic Constant Matrix: (Units=GPa)
#
#
# Indices 1 2 3 4 5 6 
#
# 1 161.0924 32.4975 57.4701 -0.0392 -0.0022 0.0215
# 2 32.4975 179.8740 56.7845 -0.1053 0.0903 0.1134
# 3 57.4701 56.7845 187.3725 -0.2313 0.1262 0.1254
# 4 -0.0392 -0.1053 -0.2313 52.8750 0.0888 0.1211
# 5 -0.0022 0.0903 0.1262 0.0888 47.0738 -0.0379
# 6 0.0215 0.1134 0.1254 0.1211 -0.0379 13.5706
#
#
#
# Elastic Compliance Matrix: (Units=1/GPa)
#
#
# Indices 1 2 3 4 5 6 
#
# 1 0.007039 -0.000653 -0.001961 -0.000005 0.000007 0.000013
# 2 -0.000653 0.006208 -0.001681 0.000005 -0.000007 -0.000035
# 3 -0.001961 -0.001681 0.006448 0.000024 -0.000014 -0.000043
# 4 -0.000005 0.000005 0.000024 0.018913 -0.000036 -0.000169
# 5 0.000007 -0.000007 -0.000014 -0.000036 0.021243 0.000060
# 6 0.000013 -0.000035 -0.000043 -0.000169 0.000060 0.073691
#
#
# Mechanical properties :
#
#
# Convention : Reuss Voigt Hill
#
# Bulk Modulus (GPa) = 90.04873 91.31590 90.68232
# Shear Modulus (GPa) = 34.28549 48.14299 41.21424
#
# Velocity S-wave (km/s) = 3.59242 4.25695 3.93872
# Velocity P-wave (km/s) = 7.14861 7.65078 7.40396
#
# Compressibility (1/GPa) = 0.01110510
#
# Stress axis : x y z
#
# Youngs Moduli (GPa) = 142.06716 161.07927 155.08530
#
# Poissons Ratio (x) = 0.10512 0.30415
# Poissons Ratio (y) = 0.09271 0.26073
# Poissons Ratio (z) = 0.27862 0.27081
#
# Static dielectric constant tensor:
#      x y z
#    x 2.092520 0.000010 0.000000 
#    y 0.000010 2.146500 -0.000140 
#    z 0.000000 -0.000140 2.154040 
# 
# From -- ./inp_files/2549.got.cif
#   From: 2010.05.17/outbox.cif.g08.bks.cpg/sg70_2_cif.got.tgz:2549.got - 2010.06.03 15:57:51.
