data_PCOD9517880
_publ_section_title
;
Structure prediction by ZEFSAII (Michael W. Deem and Ramdas Pophale) SiO2 
 PCOD9517880
Probable space group: I M M M
;
_chemical_formula_sum "Si O2"
_cell_formula_units_Z 120
_cell_length_a 28.164016
_cell_length_b 9.308890
_cell_length_c 28.565017
_cell_angle_alpha 90.000000
_cell_angle_beta 90.000000
_cell_angle_gamma 90.000000
_cell_volume 7489.054096
_symmetry_space_group_name_H-M "I M M M"
_symmetry_group_IT_number 71
_symmetry_cell_setting 'orthorhombic'
loop_
_space_group_symop_operation_xyz
x,y,z
-x,-y,z
x,-y,-z
-x,y,-z
-x,-y,-z
x,y,-z
-x,y,z
x,-y,z
1/2+x,1/2+y,1/2+z
1/2-x,1/2-y,1/2+z
1/2+x,1/2-y,1/2-z
1/2-x,1/2+y,1/2-z
1/2-x,1/2-y,1/2-z
1/2+x,1/2+y,1/2-z
1/2-x,1/2+y,1/2+z
1/2+x,1/2-y,1/2+z
loop_
_atom_site_type_symbol
_atom_site_label
_atom_site_fract_x
_atom_site_fract_y
_atom_site_fract_z
Si Si1 0.445790 0.174738 0.054012
Si Si2 0.055195 0.667633 0.726018
Si Si3 0.698725 0.332798 0.706230
Si Si4 0.442075 0.334855 0.500000
Si Si5 0.376871 0.828071 0.862710
Si Si6 0.290921 0.671300 0.184026
Si Si7 0.410389 0.667773 0.682871
Si Si8 0.057171 0.336264 0.091753
O O1 0.500000 0.219616 0.066363
O O2 0.405827 0.220239 0.091088
O O3 0.446021 0.000000 0.055291
O O4 0.436611 0.216988 0.000000
O O5 0.061888 0.500000 0.739657
O O6 0.088107 0.695696 0.681383
O O7 0.068743 0.766806 0.769473
O O8 0.000000 0.686535 0.713562
O O9 0.713880 0.500000 0.703661
O O10 0.695135 0.296176 0.761614
O O11 0.737986 0.235388 0.681372
O O12 0.646521 0.319228 0.685332
O O13 0.426664 0.500000 0.500000
O O14 0.500000 0.334992 0.500000
O O15 0.426305 0.251607 0.546392
O O16 0.328342 0.746506 0.850388
O O17 0.368186 0.000000 0.866135
O O18 0.291574 0.500000 0.177929
O O19 0.422913 0.500000 0.678944
O O20 0.429066 0.755550 0.638870
O O21 0.074641 0.500000 0.091293
O O22 0.000000 0.341014 0.089477
#
# Coordination Sequence:
#
# PCOD9517880 Si02
#       8
#    16  16  16   8  16  16  16  16
#     4   8  14  26  46  73 102 131 168 212 251 290
#     4  10  20  31  43  64  97 134 167 196 231 283
#     4   9  19  34  49  68  95 125 160 201 242 288
#     4   9  17  31  51  73  95 123 163 205 241 275
#     4  10  18  29  48  72  98 129 164 204 249 293
#     4  10  19  32  50  71  95 123 159 200 244 292
#     4  11  21  33  48  69  97 128 162 199 242 291
#     4  10  20  33  49  71 100 132 165 200 238 284
#
# _framework density 16.023385000000001
#
# number of rings (size 3 to 8) (size 9 to 14) (size 15 to 20)
#    0.000    2.333    1.333    2.600    0.000    6.667 
#    0.000    0.000    0.000    1.600    1.733    0.933 
#    0.000    0.000    0.000    0.000    0.000    0.000 
#
# Total GULP energy -334557.790572 kJ/mol
# GULP energy per Si atom -5575.963176 kJ/mol
# Density = 1.598691 g / cm^3
# Si number density = 16.023385 Si / 1000 Ang^3
#
#
#
# Elastic Constant Matrix: (Units=GPa)
#
#
# Indices 1 2 3 4 5 6 
#
# 1 40.8634 20.4703 13.1349 0.0000 0.0000 0.0000
# 2 20.4703 64.6995 33.6609 0.0000 0.0000 0.0000
# 3 13.1349 33.6609 68.3459 0.0000 0.0000 0.0000
# 4 0.0000 0.0000 0.0000 10.8445 0.0000 0.0000
# 5 0.0000 0.0000 0.0000 0.0000 10.6482 0.0000
# 6 0.0000 0.0000 0.0000 0.0000 0.0000 21.8909
#
#
#
# Elastic Compliance Matrix: (Units=1/GPa)
#
#
# Indices 1 2 3 4 5 6 
#
# 1 0.029184 -0.008491 -0.001427 0.000000 0.000000 0.000000
# 2 -0.008491 0.023251 -0.009820 0.000000 0.000000 0.000000
# 3 -0.001427 -0.009820 0.019742 0.000000 0.000000 0.000000
# 4 0.000000 0.000000 0.000000 0.092212 0.000000 0.000000
# 5 0.000000 0.000000 0.000000 0.000000 0.093912 0.000000
# 6 0.000000 0.000000 0.000000 0.000000 0.000000 0.045681
#
#
# Mechanical properties :
#
#
# Convention : Reuss Voigt Hill
#
# Bulk Modulus (GPa) = 30.57901 34.27123 32.42512
# Shear Modulus (GPa) = 14.10999 15.78625 14.94812
#
# Velocity S-wave (km/s) = 2.97069 3.14220 3.05765
# Velocity P-wave (km/s) = 5.55806 5.88211 5.72238
#
# Compressibility (1/GPa) = 0.03270218
#
# Stress axis : x y z
#
# Youngs Moduli (GPa) = 34.26533 43.00803 50.65369
#
# Poissons Ratio (x) = 0.36520 0.07226
# Poissons Ratio (y) = 0.29096 0.49740
# Poissons Ratio (z) = 0.04888 0.42232
#
# Static dielectric constant tensor:
#      x y z
#    x 1.527970 0.000000 0.000000 
#    y 0.000000 1.538770 0.000000 
#    z 0.000000 0.000000 1.519050 
# 
# From -- ./inp_files/67157.got.cif
#   From: 2010.05.17/outbox.cif.g08.bks.cpg/sg71_34_cif.got.tgz:67157.got - 2010.06.03 16:22:01.
