data_PCOD9517887
_publ_section_title
;
Structure prediction by ZEFSAII (Michael W. Deem and Ramdas Pophale) SiO2 
 PCOD9517887
Probable space group: I M M M
;
_chemical_formula_sum "Si O2"
_cell_formula_units_Z 88
_cell_length_a 32.372882
_cell_length_b 16.342630
_cell_length_c 8.028842
_cell_angle_alpha 90.000000
_cell_angle_beta 90.000000
_cell_angle_gamma 90.000000
_cell_volume 4247.723352
_symmetry_space_group_name_H-M "I M M M"
_symmetry_group_IT_number 71
_symmetry_cell_setting 'orthorhombic'
loop_
_space_group_symop_operation_xyz
x,y,z
-x,-y,z
x,-y,-z
-x,y,-z
-x,-y,-z
x,y,-z
-x,y,z
x,-y,z
1/2+x,1/2+y,1/2+z
1/2-x,1/2-y,1/2+z
1/2+x,1/2-y,1/2-z
1/2-x,1/2+y,1/2-z
1/2-x,1/2-y,1/2-z
1/2+x,1/2+y,1/2-z
1/2-x,1/2+y,1/2+z
1/2+x,1/2-y,1/2+z
loop_
_atom_site_type_symbol
_atom_site_label
_atom_site_fract_x
_atom_site_fract_y
_atom_site_fract_z
Si Si1 0.953435 0.808145 0.315880
Si Si2 0.186612 0.403505 0.699694
Si Si3 0.222734 0.900030 0.315147
Si Si4 0.669326 0.600112 0.500000
Si Si5 0.425793 0.596872 0.500000
Si Si6 0.452493 0.000000 0.297220
Si Si7 0.599047 0.159983 0.698618
O O1 0.948880 0.845077 0.500000
O O2 0.947148 0.870392 0.165812
O O3 0.920311 0.737100 0.290133
O O4 0.000000 0.773510 0.303309
O O5 0.190021 0.397934 0.500000
O O6 0.180787 0.500000 0.742423
O O7 0.229999 0.376227 0.778105
O O8 0.146840 0.355445 0.762543
O O9 0.210050 0.873263 0.500000
O O10 0.222160 0.000000 0.312521
O O11 0.193214 0.872407 0.165881
O O12 0.670195 0.500000 0.500000
O O13 0.621910 0.626027 0.500000
O O14 0.425800 0.500000 0.500000
O O15 0.426996 0.919879 0.246974
O O16 0.500000 0.000000 0.239729
O O17 0.453300 0.000000 0.500000
O O18 0.593325 0.170401 0.500000
#
# Coordination Sequence:
#
# PCOD9517887 Si02
#       7
#    16  16  16   8   8   8  16
#     4  11  25  45  68  96 129 167 208 255 320 392
#     4  10  18  29  48  81 128 172 222 270 303 341
#     4   9  16  28  50  82 122 164 204 251 302 359
#     4   9  18  35  58  91 123 152 196 254 317 381
#     4  11  25  46  75 101 124 154 200 263 332 406
#     4   9  18  30  49  81 123 170 221 271 308 351
#     4  11  20  34  57  87 126 173 221 265 309 361
#
# _framework density 20.716981000000001
#
# number of rings (size 3 to 8) (size 9 to 14) (size 15 to 20)
#    0.000    1.909    2.727    1.909    0.000    3.273 
#    0.000    2.727    0.000    3.273    0.000    0.000 
#    0.000    0.000    0.000    0.000    0.000    0.000 
#
# Total GULP energy -245942.344248 kJ/mol
# GULP energy per Si atom -5589.598733 kJ/mol
# Density = 2.066983 g / cm^3
# Si number density = 20.716981 Si / 1000 Ang^3
#
#
#
# Elastic Constant Matrix: (Units=GPa)
#
#
# Indices 1 2 3 4 5 6 
#
# 1 83.8806 4.4375 48.1821 0.0000 0.0000 0.0000
# 2 4.4375 34.8230 22.4318 0.0000 0.0000 0.0000
# 3 48.1821 22.4318 141.7070 0.0000 0.0000 0.0000
# 4 0.0000 0.0000 0.0000 -5.3819 0.0000 0.0000
# 5 0.0000 0.0000 0.0000 0.0000 27.2186 0.0000
# 6 0.0000 0.0000 0.0000 0.0000 0.0000 35.7714
#
#
#
# Elastic Compliance Matrix: (Units=1/GPa)
#
#
# Indices 1 2 3 4 5 6 
#
# 1 0.014887 0.001518 -0.005302 0.000000 0.000000 0.000000
# 2 0.001518 0.032132 -0.005603 0.000000 0.000000 0.000000
# 3 -0.005302 -0.005603 0.009746 0.000000 0.000000 0.000000
# 4 0.000000 0.000000 0.000000 -0.185809 0.000000 0.000000
# 5 0.000000 0.000000 0.000000 0.000000 0.036740 0.000000
# 6 0.000000 0.000000 0.000000 0.000000 0.000000 0.027955
#
#
# Mechanical properties :
#
#
# Convention : Reuss Voigt Hill
#
# Bulk Modulus (GPa) = 26.32076 45.61263 35.96669
# Shear Modulus (GPa) = -151.92355 23.87890 -64.02232
#
# Velocity S-wave (km/s) = -8.57275 3.39872 -5.56511
# Velocity P-wave (km/s) = 9.23347 6.12099 4.88827
#
# Compressibility (1/GPa) = 0.03799283
#
# Stress axis : x y z
#
# Youngs Moduli (GPa) = 67.17281 31.12139 102.60107
#
# Poissons Ratio (x) = -0.04725 0.54400
# Poissons Ratio (y) = -0.10199 0.57484
# Poissons Ratio (z) = 0.35616 0.17436
#
# Static dielectric constant tensor:
#      x y z
#    x 1.705750 0.000000 0.000000 
#    y 0.000000 1.720760 0.000000 
#    z 0.000000 0.000000 1.813340 
# 
# From -- ./inp_files/16739.got.cif
#   From: 2010.05.17/outbox.cif.g08.bks.cpg/sg71_9_cif.got.tgz:16739.got - 2010.06.03 16:22:01.
