data_PCOD9517195
_publ_section_title
;
Structure prediction by ZEFSAII (Michael W. Deem and Ramdas Pophale) SiO2 
 PCOD9517195
Probable space group: F D D D
;
_chemical_formula_sum "Si O2"
_cell_formula_units_Z 42
_cell_length_a 24.000000
_cell_length_b 12.000000
_cell_length_c 30.000000
_cell_angle_alpha 90.000000
_cell_angle_beta 90.000000
_cell_angle_gamma 90.000000
_cell_volume 8640.000000
_symmetry_space_group_name_H-M "F D D D"
_symmetry_group_IT_number 70
_space_group.IT_coordinate_system_code '2'
_symmetry_cell_setting 'orthorhombic'
loop_
_space_group_symop_operation_xyz
x,y,z
1/4-x,1/4-y,z
x,1/4-y,1/4-z
1/4-x,y,1/4-z
-x,-y,-z
3/4+x,3/4+y,-z
-x,3/4+y,3/4+z
3/4+x,-y,3/4+z
x,1/2+y,1/2+z
1/4-x,3/4-y,1/2+z
x,3/4-y,3/4-z
1/4-x,1/2+y,3/4-z
-x,1/2-y,1/2-z
3/4+x,1/4+y,1/2-z
-x,1/4+y,1/4+z
3/4+x,1/2-y,1/4+z
1/2+x,y,1/2+z
3/4-x,1/4-y,1/2+z
1/2+x,1/4-y,3/4-z
3/4-x,y,3/4-z
1/2-x,-y,1/2-z
1/4+x,3/4+y,1/2-z
1/2-x,3/4+y,1/4+z
1/4+x,-y,1/4+z
1/2+x,1/2+y,z
3/4-x,3/4-y,z
1/2+x,3/4-y,1/4-z
3/4-x,1/2+y,1/4-z
1/2-x,1/2-y,-z
1/4+x,1/4+y,-z
1/2-x,1/4+y,3/4+z
1/4+x,1/2-y,3/4+z
loop_
_atom_site_type_symbol
_atom_site_label
_atom_site_fract_x
_atom_site_fract_y
_atom_site_fract_z
Si Si1 0.458750 0.577619 0.073752
Si Si2 0.125000 0.625000 0.625000
Si Si3 0.543623 0.749146 0.057807
Si Si4 0.588521 0.853739 0.973959
Si Si5 0.438668 0.921151 0.062482
Si Si6 0.061375 0.082601 0.336715
O O1 0.454931 0.625000 0.125000
O O2 0.508552 0.637091 0.047466
O O3 0.399787 0.602307 0.049136
O O4 0.471142 0.446781 0.078857
O O5 0.082994 0.706566 0.597885
O O6 0.490767 0.835787 0.060201
O O7 0.586140 0.802185 0.022719
O O8 0.550738 0.767048 0.946380
O O9 0.561440 0.975000 0.970626
O O10 0.375000 0.875000 0.058184
O O11 0.442171 0.962239 0.113408
O O12 0.125000 0.125000 0.330215
#
# Coordination Sequence:
#
# PCOD9517195 Si02
#       6
#    32   8  32  32  32  32
#     4  11  19  42  66  94 128 174 223 271 339 399
#     4  12  28  48  64  96 142 184 224 278 366 404
#     4  12  25  43  65  95 131 182 217 279 342 409
#     4  11  23  36  65 102 128 158 228 282 328 396
#     4  11  19  41  67  93 131 172 217 265 336 405
#     4   9  18  32  62  96 122 160 210 275 323 384
#
# _framework density 4.8611110000000002
#
# number of rings (size 3 to 8) (size 9 to 14) (size 15 to 20)
#    0.000    1.143    4.762    3.429    4.000    0.762 
#    3.429    0.000    0.000    0.000    0.000    0.000 
#    0.000    0.000    0.000    0.000    0.000    0.000 
#
# Total GULP energy -233864.728936 kJ/mol
# GULP energy per Si atom -5568.207832 kJ/mol
# Density = 0.485005 g / cm^3
# Si number density = 4.861111 Si / 1000 Ang^3
#
#
#
# Elastic Constant Matrix: (Units=GPa)
#
#
# Indices 1 2 3 4 5 6 
#
# 1 84.8336 25.1136 22.6501 0.0000 0.0000 0.0000
# 2 25.1136 74.5411 43.9063 0.0000 0.0000 0.0000
# 3 22.6501 43.9063 73.4229 0.0000 0.0000 0.0000
# 4 0.0000 0.0000 0.0000 28.2311 0.0000 0.0000
# 5 0.0000 0.0000 0.0000 0.0000 9.0878 0.0000
# 6 0.0000 0.0000 0.0000 0.0000 0.0000 13.6700
#
#
#
# Elastic Compliance Matrix: (Units=1/GPa)
#
#
# Indices 1 2 3 4 5 6 
#
# 1 0.013320 -0.003191 -0.002201 0.000000 0.000000 0.000000
# 2 -0.003191 0.021475 -0.011857 0.000000 0.000000 0.000000
# 3 -0.002201 -0.011857 0.021389 0.000000 0.000000 0.000000
# 4 0.000000 0.000000 0.000000 0.035422 0.000000 0.000000
# 5 0.000000 0.000000 0.000000 0.000000 0.110038 0.000000
# 6 0.000000 0.000000 0.000000 0.000000 0.000000 0.073153
#
#
# Mechanical properties :
#
#
# Convention : Reuss Voigt Hill
#
# Bulk Modulus (GPa) = 46.11395 46.23750 46.17572
# Shear Modulus (GPa) = 15.79660 19.60628 17.70144
#
# Velocity S-wave (km/s) = 2.85335 3.17885 3.02049
# Velocity P-wave (km/s) = 5.88411 6.10773 5.99696
#
# Compressibility (1/GPa) = 0.02168541
#
# Stress axis : x y z
#
# Youngs Moduli (GPa) = 75.07439 46.56616 46.75268
#
# Poissons Ratio (x) = 0.14861 0.10289
# Poissons Ratio (y) = 0.23960 0.55436
# Poissons Ratio (z) = 0.16521 0.55215
#
# Static dielectric constant tensor:
#      x y z
#    x 1.685090 0.000000 0.000000 
#    y 0.000000 1.738120 0.000000 
#    z 0.000000 0.000000 1.723590 
# 
# From -- ./inp_files/67769.got.cif
#   From: 2010.05.17/outbox.ucp.g08.bks.cvg/sg70_34_cif.got.tgz:67769.got - 2010.06.11 16:26:41.
