data_PCOD9517460
_publ_section_title
;
Structure prediction by ZEFSAII (Michael W. Deem and Ramdas Pophale) SiO2 
 PCOD9517460
Probable space group: I M M M
;
_chemical_formula_sum "Si O2"
_cell_formula_units_Z 76
_cell_length_a 10.697438
_cell_length_b 15.713631
_cell_length_c 23.537271
_cell_angle_alpha 90.000000
_cell_angle_beta 90.000000
_cell_angle_gamma 90.000000
_cell_volume 3956.511535
_symmetry_space_group_name_H-M "I M M M"
_symmetry_group_IT_number 71
_symmetry_cell_setting 'orthorhombic'
loop_
_space_group_symop_operation_xyz
x,y,z
-x,-y,z
x,-y,-z
-x,y,-z
-x,-y,-z
x,y,-z
-x,y,z
x,-y,z
1/2+x,1/2+y,1/2+z
1/2-x,1/2-y,1/2+z
1/2+x,1/2-y,1/2-z
1/2-x,1/2+y,1/2-z
1/2-x,1/2-y,1/2-z
1/2+x,1/2+y,1/2-z
1/2-x,1/2+y,1/2+z
1/2+x,1/2-y,1/2+z
loop_
_atom_site_type_symbol
_atom_site_label
_atom_site_fract_x
_atom_site_fract_y
_atom_site_fract_z
Si Si1 0.144259 0.865550 0.000000
Si Si2 0.651486 0.407872 0.623403
Si Si3 0.220048 0.324984 0.000000
Si Si4 0.000000 0.905206 0.625788
Si Si5 0.643026 0.249314 0.297197
Si Si6 0.720435 0.897804 0.625014
Si Si7 0.500000 0.352525 0.000000
O O1 0.200216 0.896913 0.940806
O O2 0.147889 0.763415 0.000000
O O3 0.000000 0.894104 0.000000
O O4 0.500000 0.408134 0.620471
O O5 0.690963 0.500000 0.646605
O O6 0.680454 0.326109 0.660554
O O7 0.195219 0.375650 0.941423
O O8 0.368935 0.303528 0.000000
O O9 0.135860 0.869343 0.639112
O O10 0.000000 0.907394 0.557045
O O11 0.000000 0.000000 0.649917
O O12 0.500000 0.264612 0.276426
O O13 0.750000 0.250000 0.250000
O O14 0.642580 0.161810 0.333302
O O15 0.708668 0.000000 0.632535
#
# Coordination Sequence:
#
# PCOD9517460 Si02
#       7
#     8  16   8   8  16  16   4
#     4  10  17  29  55  88 116 139 176 228 294 350
#     4   9  18  35  59  86 113 143 185 237 289 343
#     4  10  17  31  54  88 122 158 185 227 284 362
#     4   8  15  28  50  80 112 150 194 229 267 332
#     4  11  25  42  60  85 115 154 202 249 294 346
#     4  10  20  35  58  88 123 157 191 235 291 357
#     4   8  15  24  42  76 115 154 192 216 263 320
#
# _framework density 19.208841
#
# number of rings (size 3 to 8) (size 9 to 14) (size 15 to 20)
#    0.000    2.316    2.105    0.789    1.474    5.053 
#    0.000    0.000    0.000    1.895    0.000    0.737 
#    0.000    0.000    0.000    0.000    0.000    0.000 
#
# Total GULP energy -211583.967821 kJ/mol
# GULP energy per Si atom -5567.999153 kJ/mol
# Density = 1.916512 g / cm^3
# Si number density = 19.208841 Si / 1000 Ang^3
#
#
#
# Elastic Constant Matrix: (Units=GPa)
#
#
# Indices 1 2 3 4 5 6 
#
# 1 64.4596 16.7489 38.6167 0.0000 0.0000 0.0000
# 2 16.7489 124.5014 49.5757 0.0000 0.0000 0.0000
# 3 38.6167 49.5757 93.3993 0.0000 0.0000 0.0000
# 4 0.0000 0.0000 0.0000 -2.7242 0.0000 0.0000
# 5 0.0000 0.0000 0.0000 0.0000 27.4524 0.0000
# 6 0.0000 0.0000 0.0000 0.0000 0.0000 13.2074
#
#
#
# Elastic Compliance Matrix: (Units=1/GPa)
#
#
# Indices 1 2 3 4 5 6 
#
# 1 0.020682 0.000790 -0.008970 0.000000 0.000000 0.000000
# 2 0.000790 0.010215 -0.005748 0.000000 0.000000 0.000000
# 3 -0.008970 -0.005748 0.017467 0.000000 0.000000 0.000000
# 4 0.000000 0.000000 0.000000 -0.367083 0.000000 0.000000
# 5 0.000000 0.000000 0.000000 0.000000 0.036427 0.000000
# 6 0.000000 0.000000 0.000000 0.000000 0.000000 0.075715
#
#
# Mechanical properties :
#
#
# Convention : Reuss Voigt Hill
#
# Bulk Modulus (GPa) = 48.76717 54.69366 51.73042
# Shear Modulus (GPa) = -29.08947 19.41505 -4.83721
#
# Velocity S-wave (km/s) = -3.89572 3.18265 -1.58861
# Velocity P-wave (km/s) = 2.28198 6.48388 4.86046
#
# Compressibility (1/GPa) = 0.02050560
#
# Stress axis : x y z
#
# Youngs Moduli (GPa) = 48.35006 97.89715 57.25126
#
# Poissons Ratio (x) = -0.07730 0.51357
# Poissons Ratio (y) = -0.03818 0.32910
# Poissons Ratio (z) = 0.43372 0.56275
#
# Static dielectric constant tensor:
#      x y z
#    x 1.717400 0.000000 0.000000 
#    y 0.000000 1.682410 0.000000 
#    z 0.000000 0.000000 1.694590 
# 
# From -- ./inp_files/58716.got.cif
#   From: 2010.05.17/outbox.cif.g08.bks.cpg/sg71_30_cif.got.tgz:58716.got - 2010.06.03 16:22:01.
