data_PCOD9517072
_publ_section_title
;
Structure prediction by ZEFSAII (Michael W. Deem and Ramdas Pophale) SiO2 
 PCOD9517072
Probable space group: F D D D
;
_chemical_formula_sum "Si O2"
_cell_formula_units_Z 136
_cell_length_a 11.924437
_cell_length_b 19.187505
_cell_length_c 22.826175
_cell_angle_alpha 90.000000
_cell_angle_beta 90.000000
_cell_angle_gamma 90.000000
_cell_volume 5222.633281
_symmetry_space_group_name_H-M "F D D D"
_symmetry_group_IT_number 70
_space_group.IT_coordinate_system_code '2'
_symmetry_cell_setting 'orthorhombic'
loop_
_space_group_symop_operation_xyz
x,y,z
1/4-x,1/4-y,z
x,1/4-y,1/4-z
1/4-x,y,1/4-z
-x,-y,-z
3/4+x,3/4+y,-z
-x,3/4+y,3/4+z
3/4+x,-y,3/4+z
x,1/2+y,1/2+z
1/4-x,3/4-y,1/2+z
x,3/4-y,3/4-z
1/4-x,1/2+y,3/4-z
-x,1/2-y,1/2-z
3/4+x,1/4+y,1/2-z
-x,1/4+y,1/4+z
3/4+x,1/2-y,1/4+z
1/2+x,y,1/2+z
3/4-x,1/4-y,1/2+z
1/2+x,1/4-y,3/4-z
3/4-x,y,3/4-z
1/2-x,-y,1/2-z
1/4+x,3/4+y,1/2-z
1/2-x,3/4+y,1/4+z
1/4+x,-y,1/4+z
1/2+x,1/2+y,z
3/4-x,3/4-y,z
1/2+x,3/4-y,1/4-z
3/4-x,1/2+y,1/4-z
1/2-x,1/2-y,-z
1/4+x,1/4+y,-z
1/2-x,1/4+y,3/4+z
1/4+x,1/2-y,3/4+z
loop_
_atom_site_type_symbol
_atom_site_label
_atom_site_fract_x
_atom_site_fract_y
_atom_site_fract_z
Si Si1 0.875000 0.375000 0.375000
Si Si2 0.014833 0.491905 0.070644
Si Si3 0.409162 0.539616 0.089895
Si Si4 0.206364 0.558310 0.020159
Si Si5 0.748066 0.667867 0.858333
O O1 0.780802 0.325933 0.406170
O O2 0.150047 0.505209 0.066807
O O3 0.988763 0.412934 0.090525
O O4 0.931534 0.544332 0.105531
O O5 0.000000 0.500000 0.000000
O O6 0.335129 0.567918 0.037398
O O7 0.433033 0.456638 0.089317
O O8 0.125000 0.625000 0.027310
O O9 0.215879 0.541052 0.951528
O O10 0.875000 0.677557 0.875000
#
# Coordination Sequence:
#
# PCOD9517072 Si02
#       5
#     8  32  32  32  32
#     4  12  28  48  70 104 172 204 254 330 388 484
#     4  12  24  47  81 116 153 204 264 337 386 463
#     4  12  26  48  75 112 160 211 262 325 396 470
#     4  12  25  47  82 116 149 208 275 325 392 471
#     4  12  26  50  77 116 166 202 261 330 401 473
#
# _framework density 26.040505
#
# number of rings (size 3 to 8) (size 9 to 14) (size 15 to 20)
#    0.000    0.000    5.882    4.235    0.000    1.882 
#    0.000    0.000    2.588    0.000    0.000    0.000 
#    0.000    0.000    0.000    0.000    0.000    0.000 
#
# Total GULP energy -189454.769499 kJ/mol
# GULP energy per Si atom -5572.199103 kJ/mol
# Density = 2.598124 g / cm^3
# Si number density = 26.040505 Si / 1000 Ang^3
#
#
#
# Elastic Constant Matrix: (Units=GPa)
#
#
# Indices 1 2 3 4 5 6 
#
# 1 206.5746 21.3549 37.8331 0.0000 0.0000 0.0000
# 2 21.3549 109.1691 4.5114 0.0000 0.0000 0.0000
# 3 37.8331 4.5114 56.1111 0.0000 0.0000 0.0000
# 4 0.0000 0.0000 0.0000 -8.6625 0.0000 0.0000
# 5 0.0000 0.0000 0.0000 0.0000 48.1347 0.0000
# 6 0.0000 0.0000 0.0000 0.0000 0.0000 28.1618
#
#
#
# Elastic Compliance Matrix: (Units=1/GPa)
#
#
# Indices 1 2 3 4 5 6 
#
# 1 0.005619 -0.000946 -0.003712 0.000000 0.000000 0.000000
# 2 -0.000946 0.009350 -0.000114 0.000000 0.000000 0.000000
# 3 -0.003712 -0.000114 0.020334 0.000000 0.000000 0.000000
# 4 0.000000 0.000000 0.000000 -0.115440 0.000000 0.000000
# 5 0.000000 0.000000 0.000000 0.000000 0.020775 0.000000
# 6 0.000000 0.000000 0.000000 0.000000 0.000000 0.035509
#
#
# Mechanical properties :
#
#
# Convention : Reuss Voigt Hill
#
# Bulk Modulus (GPa) = 38.82259 55.47260 47.14760
# Shear Modulus (GPa) = -873.65922 34.07049 -419.79436
#
# Velocity S-wave (km/s) = -18.33653 3.62106 -12.71055
# Velocity P-wave (km/s) = 20.81739 6.23149 14.04515
#
# Compressibility (1/GPa) = 0.02575820
#
# Stress axis : x y z
#
# Youngs Moduli (GPa) = 177.98324 106.95418 49.17882
#
# Poissons Ratio (x) = 0.10114 0.18256
# Poissons Ratio (y) = 0.16831 0.00561
# Poissons Ratio (z) = 0.66072 0.01221
#
# Static dielectric constant tensor:
#      x y z
#    x 2.349340 0.000000 0.000000 
#    y 0.000000 2.155770 0.000000 
#    z 0.000000 0.000000 2.088670 
# 
# From -- ./inp_files/57275.got.cif
#   From: 2010.05.17/outbox.cif.g08.bks.cpg/sg70_29_cif.got.tgz:57275.got - 2010.06.03 15:57:51.
