data_PCOD9517262
_publ_section_title
;
Structure prediction by ZEFSAII (Michael W. Deem and Ramdas Pophale) SiO2 
 PCOD9517262
Probable space group: I M M M
;
_chemical_formula_sum "Si O2"
_cell_formula_units_Z 68
_cell_length_a 24.452102
_cell_length_b 24.402398
_cell_length_c 7.639765
_cell_angle_alpha 90.000000
_cell_angle_beta 90.000000
_cell_angle_gamma 90.000000
_cell_volume 4558.570804
_symmetry_space_group_name_H-M "I M M M"
_symmetry_group_IT_number 71
_symmetry_cell_setting 'orthorhombic'
loop_
_space_group_symop_operation_xyz
x,y,z
-x,-y,z
x,-y,-z
-x,y,-z
-x,-y,-z
x,y,-z
-x,y,z
x,-y,z
1/2+x,1/2+y,1/2+z
1/2-x,1/2-y,1/2+z
1/2+x,1/2-y,1/2-z
1/2-x,1/2+y,1/2-z
1/2-x,1/2-y,1/2-z
1/2+x,1/2+y,1/2-z
1/2-x,1/2+y,1/2+z
1/2+x,1/2-y,1/2+z
loop_
_atom_site_type_symbol
_atom_site_label
_atom_site_fract_x
_atom_site_fract_y
_atom_site_fract_z
Si Si1 0.000000 0.373306 0.000000
Si Si2 0.617395 0.752121 0.288367
Si Si3 0.384737 0.934812 0.500000
Si Si4 0.720250 0.307456 0.709077
Si Si5 0.000000 0.282990 0.696737
Si Si6 0.324686 0.132346 0.794633
O O1 0.000000 0.332774 0.166327
O O2 0.054481 0.409401 0.000000
O O3 0.618133 0.754374 0.500000
O O4 0.658455 0.703687 0.229049
O O5 0.555263 0.748844 0.227090
O O6 0.642067 0.810184 0.223562
O O7 0.353503 0.911024 0.330237
O O8 0.386221 0.000000 0.500000
O O9 0.718030 0.313715 0.500000
O O10 0.750000 0.250000 0.750000
O O11 0.762747 0.353669 0.769413
O O12 0.000000 0.304664 0.500000
O O13 0.324232 0.117296 0.000000
#
# Coordination Sequence:
#
# PCOD9517262 Si02
#       6
#     4  16   8  16   8  16
#     4  12  23  40  48  60  92 124 166 216 243 260
#     4  10  16  29  46  68  94 124 153 183 228 285
#     4  12  25  38  52  66  84 123 172 213 249 272
#     4   8  16  25  44  69  91 114 143 181 232 288
#     4  12  20  29  47  67  92 130 160 193 231 273
#     4  10  18  33  50  68  90 114 149 200 244 284
#
# _framework density 14.916957
#
# number of rings (size 3 to 8) (size 9 to 14) (size 15 to 20)
#    0.000    1.882    4.706    0.882    1.647    1.412 
#    0.000    0.000    0.000    2.118    0.000    0.000 
#    0.000    0.000    0.000    2.118    0.000   17.882 
#
# Total GULP energy -189421.196179 kJ/mol
# GULP energy per Si atom -5571.211652 kJ/mol
# Density = 1.488301 g / cm^3
# Si number density = 14.916957 Si / 1000 Ang^3
#
#
#
# Elastic Constant Matrix: (Units=GPa)
#
#
# Indices 1 2 3 4 5 6 
#
# 1 156.6441 57.4436 36.7814 0.0000 0.0000 0.0000
# 2 57.4436 46.9936 30.2020 0.0000 0.0000 0.0000
# 3 36.7814 30.2020 90.9964 0.0000 0.0000 0.0000
# 4 0.0000 0.0000 0.0000 7.5498 0.0000 0.0000
# 5 0.0000 0.0000 0.0000 0.0000 9.2684 0.0000
# 6 0.0000 0.0000 0.0000 0.0000 0.0000 5.6295
#
#
#
# Elastic Compliance Matrix: (Units=1/GPa)
#
#
# Indices 1 2 3 4 5 6 
#
# 1 0.011571 -0.014158 0.000022 0.000000 0.000000 0.000000
# 2 -0.014158 0.044373 -0.009005 0.000000 0.000000 0.000000
# 3 0.000022 -0.009005 0.013969 0.000000 0.000000 0.000000
# 4 0.000000 0.000000 0.000000 0.132453 0.000000 0.000000
# 5 0.000000 0.000000 0.000000 0.000000 0.107894 0.000000
# 6 0.000000 0.000000 0.000000 0.000000 0.000000 0.177635
#
#
# Mechanical properties :
#
#
# Convention : Reuss Voigt Hill
#
# Bulk Modulus (GPa) = 42.31615 60.38759 51.35187
# Shear Modulus (GPa) = 9.22420 15.83668 12.53044
#
# Velocity S-wave (km/s) = 2.48940 3.26184 2.90144
# Velocity P-wave (km/s) = 6.05741 7.39977 6.76198
#
# Compressibility (1/GPa) = 0.02363164
#
# Stress axis : x y z
#
# Youngs Moduli (GPa) = 86.42649 22.53641 71.58584
#
# Poissons Ratio (x) = 0.31906 -0.00158
# Poissons Ratio (y) = 1.22360 0.64462
# Poissons Ratio (z) = -0.00191 0.20294
#
# Static dielectric constant tensor:
#      x y z
#    x 1.553120 0.000000 0.000000 
#    y 0.000000 1.444560 0.000000 
#    z 0.000000 0.000000 1.526340 
# 
# From -- ./inp_files/12233.got.cif
#   From: 2010.05.17/outbox.cif.g08.bks.cpg/sg71_7_cif.got.tgz:12233.got - 2010.06.03 16:22:01.
