data_PCOD9517031
_publ_section_title
;
Structure prediction by ZEFSAII (Michael W. Deem and Ramdas Pophale) SiO2 
 PCOD9517031
Probable space group: F D D D
;
_chemical_formula_sum "Si O2"
_cell_formula_units_Z 192
_cell_length_a 16.434209
_cell_length_b 14.900946
_cell_length_c 33.507709
_cell_angle_alpha 90.000000
_cell_angle_beta 90.000000
_cell_angle_gamma 90.000000
_cell_volume 8205.544059
_symmetry_space_group_name_H-M "F D D D"
_symmetry_group_IT_number 70
_space_group.IT_coordinate_system_code '2'
_symmetry_cell_setting 'orthorhombic'
loop_
_space_group_symop_operation_xyz
x,y,z
1/4-x,1/4-y,z
x,1/4-y,1/4-z
1/4-x,y,1/4-z
-x,-y,-z
3/4+x,3/4+y,-z
-x,3/4+y,3/4+z
3/4+x,-y,3/4+z
x,1/2+y,1/2+z
1/4-x,3/4-y,1/2+z
x,3/4-y,3/4-z
1/4-x,1/2+y,3/4-z
-x,1/2-y,1/2-z
3/4+x,1/4+y,1/2-z
-x,1/4+y,1/4+z
3/4+x,1/2-y,1/4+z
1/2+x,y,1/2+z
3/4-x,1/4-y,1/2+z
1/2+x,1/4-y,3/4-z
3/4-x,y,3/4-z
1/2-x,-y,1/2-z
1/4+x,3/4+y,1/2-z
1/2-x,3/4+y,1/4+z
1/4+x,-y,1/4+z
1/2+x,1/2+y,z
3/4-x,3/4-y,z
1/2+x,3/4-y,1/4-z
3/4-x,1/2+y,1/4-z
1/2-x,1/2-y,-z
1/4+x,1/4+y,-z
1/2-x,1/4+y,3/4+z
1/4+x,1/2-y,3/4+z
loop_
_atom_site_type_symbol
_atom_site_label
_atom_site_fract_x
_atom_site_fract_y
_atom_site_fract_z
Si Si1 0.353505 0.025598 0.453104
Si Si2 0.625000 0.625000 0.474734
Si Si3 0.625000 0.125000 0.483075
Si Si4 0.828018 0.727591 0.473234
Si Si5 0.308117 0.985204 0.086749
Si Si6 0.510193 0.279639 0.354338
Si Si7 0.247344 0.641760 0.411823
O O1 0.343656 0.122943 0.474285
O O2 0.276500 0.977586 0.430565
O O3 0.419616 0.055536 0.420326
O O4 0.381187 0.959415 0.487739
O O5 0.641255 0.541563 0.503949
O O6 0.692659 0.605465 0.440771
O O7 0.701891 0.122931 0.453221
O O8 0.750000 0.750000 0.500000
O O9 0.807312 0.762569 0.429438
O O10 0.302411 0.957429 0.132594
O O11 0.397698 0.029331 0.084189
O O12 0.500166 0.375000 0.375000
O O13 0.498327 0.200500 0.386859
#
# Coordination Sequence:
#
# PCOD9517031 Si02
#       7
#    32  16  16  32  32  32  32
#     4  12  29  46  76 110 152 198 253 320 378 445
#     4  12  23  44  69 112 148 188 246 302 393 458
#     4  12  29  50  79 110 150 206 262 308 393 446
#     4  12  25  43  74 110 153 192 247 315 386 456
#     4  12  22  49  74 101 150 198 243 312 377 454
#     4  12  27  45  78 113 148 206 253 307 398 461
#     4  12  25  52  74 106 155 194 254 317 376 452
#
# _framework density 23.398813000000001
#
# number of rings (size 3 to 8) (size 9 to 14) (size 15 to 20)
#    0.000    0.000    8.333    1.000    7.000    1.333 
#    0.000    0.833    0.000    0.000    0.000    0.000 
#    0.000    0.000    0.000    0.000    0.000    0.000 
#
# Total GULP energy -267662.874061 kJ/mol
# GULP energy per Si atom -5576.309876 kJ/mol
# Density = 2.334556 g / cm^3
# Si number density = 23.398813 Si / 1000 Ang^3
#
#
#
# Elastic Constant Matrix: (Units=GPa)
#
#
# Indices 1 2 3 4 5 6 
#
# 1 49.5953 5.4365 38.1476 0.0000 0.0000 0.0000
# 2 5.4365 96.2897 67.5394 0.0000 0.0000 0.0000
# 3 38.1476 67.5394 145.2678 0.0000 0.0000 0.0000
# 4 0.0000 0.0000 0.0000 32.2860 0.0000 0.0000
# 5 0.0000 0.0000 0.0000 0.0000 43.8416 0.0000
# 6 0.0000 0.0000 0.0000 0.0000 0.0000 18.5523
#
#
#
# Elastic Compliance Matrix: (Units=1/GPa)
#
#
# Indices 1 2 3 4 5 6 
#
# 1 0.026848 0.005089 -0.009416 0.000000 0.000000 0.000000
# 2 0.005089 0.016376 -0.008950 0.000000 0.000000 0.000000
# 3 -0.009416 -0.008950 0.013518 0.000000 0.000000 0.000000
# 4 0.000000 0.000000 0.000000 0.030973 0.000000 0.000000
# 5 0.000000 0.000000 0.000000 0.000000 0.022809 0.000000
# 6 0.000000 0.000000 0.000000 0.000000 0.000000 0.053902
#
#
# Mechanical properties :
#
#
# Convention : Reuss Voigt Hill
#
# Bulk Modulus (GPa) = 33.12688 57.04440 45.08564
# Shear Modulus (GPa) = 24.87031 30.93794 27.90413
#
# Velocity S-wave (km/s) = 3.26373 3.64015 3.45707
# Velocity P-wave (km/s) = 5.32831 6.48843 5.93677
#
# Compressibility (1/GPa) = 0.03018697
#
# Stress axis : x y z
#
# Youngs Moduli (GPa) = 37.24633 61.06626 73.97704
#
# Poissons Ratio (x) = -0.31077 0.69660
# Poissons Ratio (y) = -0.18955 0.66209
# Poissons Ratio (z) = 0.35073 0.54654
#
# Static dielectric constant tensor:
#      x y z
#    x 2.805970 0.000000 0.000000 
#    y 0.000000 0.382000 0.000000 
#    z 0.000000 0.000000 2.576060 
# 
# From -- ./inp_files/66717.got.cif
#   From: 2010.05.17/outbox.cif.g08.bks.cpg/sg70_34_cif.got.tgz:66717.got - 2010.06.03 15:57:51.
