data_PCOD9517650
_publ_section_title
;
Structure prediction by ZEFSAII (Michael W. Deem and Ramdas Pophale) SiO2 
 PCOD9517650
Probable space group: I M M M
;
_chemical_formula_sum "Si O2"
_cell_formula_units_Z 104
_cell_length_a 8.247579
_cell_length_b 32.191299
_cell_length_c 24.582187
_cell_angle_alpha 90.000000
_cell_angle_beta 90.000000
_cell_angle_gamma 90.000000
_cell_volume 6526.577571
_symmetry_space_group_name_H-M "I M M M"
_symmetry_group_IT_number 71
_symmetry_cell_setting 'orthorhombic'
loop_
_space_group_symop_operation_xyz
x,y,z
-x,-y,z
x,-y,-z
-x,y,-z
-x,-y,-z
x,y,-z
-x,y,z
x,-y,z
1/2+x,1/2+y,1/2+z
1/2-x,1/2-y,1/2+z
1/2+x,1/2-y,1/2-z
1/2-x,1/2+y,1/2-z
1/2-x,1/2-y,1/2-z
1/2+x,1/2+y,1/2-z
1/2-x,1/2+y,1/2+z
1/2+x,1/2-y,1/2+z
loop_
_atom_site_type_symbol
_atom_site_label
_atom_site_fract_x
_atom_site_fract_y
_atom_site_fract_z
Si Si1 0.500000 0.048486 0.217831
Si Si2 0.500000 0.923619 0.092423
Si Si3 0.187402 0.774829 0.063007
Si Si4 0.000000 0.667046 0.436200
Si Si5 0.809235 0.681254 0.267185
Si Si6 0.672989 0.450975 0.593428
Si Si7 0.308210 0.762556 0.672366
Si Si8 0.322298 0.592463 0.711157
O O1 0.500000 0.054574 0.151827
O O2 0.665767 0.070217 0.237165
O O3 0.500000 0.000000 0.229896
O O4 0.500000 0.874252 0.099417
O O5 0.335345 0.937348 0.063898
O O6 0.333979 0.807264 0.072615
O O7 0.211123 0.738815 0.107612
O O8 0.000000 0.790725 0.070794
O O9 0.199835 0.761846 0.000000
O O10 0.000000 0.654714 0.500000
O O11 0.779453 0.721755 0.304230
O O12 0.758338 0.697311 0.206984
O O13 0.710542 0.641545 0.286864
O O14 0.000000 0.670854 0.267718
O O15 0.500000 0.443745 0.565808
O O16 0.683015 0.500000 0.606329
O O17 0.672239 0.424645 0.649320
O O18 0.500000 0.757298 0.684203
O O19 0.500000 0.583111 0.734962
#
# Coordination Sequence:
#
# PCOD9517650 Si02
#       8
#     8   8  16   8  16  16  16  16
#     4  10  20  32  46  67  86 114 153 189 227 271
#     4  10  18  28  46  63  82 108 130 179 227 275
#     4   9  19  35  51  65  85 116 155 197 233 268
#     4  10  22  34  46  69  90 108 146 189 235 284
#     4  10  19  30  42  65  97 124 152 181 230 275
#     4   9  18  30  44  64  84 107 143 182 216 263
#     4   9  19  31  45  64  91 123 153 190 224 279
#     4  10  18  28  43  61  87 116 145 183 217 265
#
# _framework density 15.934844999999999
#
# number of rings (size 3 to 8) (size 9 to 14) (size 15 to 20)
#    0.000    2.462    0.769    2.538    5.385    2.154 
#    0.000    0.000    0.000    2.077    0.000    1.077 
#    0.000    0.000    0.000    0.000    0.000    3.846 
#
# Total GULP energy -289609.548522 kJ/mol
# GULP energy per Si atom -5569.414395 kJ/mol
# Density = 1.589858 g / cm^3
# Si number density = 15.934845 Si / 1000 Ang^3
#
#
#
# Elastic Constant Matrix: (Units=GPa)
#
#
# Indices 1 2 3 4 5 6 
#
# 1 124.4714 26.6600 22.3989 0.0000 0.0000 0.0000
# 2 26.6600 55.5805 30.0446 0.0000 0.0000 0.0000
# 3 22.3989 30.0446 54.0889 0.0000 0.0000 0.0000
# 4 0.0000 0.0000 0.0000 -3.9134 0.0000 0.0000
# 5 0.0000 0.0000 0.0000 0.0000 1.9979 0.0000
# 6 0.0000 0.0000 0.0000 0.0000 0.0000 19.6772
#
#
#
# Elastic Compliance Matrix: (Units=1/GPa)
#
#
# Indices 1 2 3 4 5 6 
#
# 1 0.009091 -0.003324 -0.001919 0.000000 0.000000 0.000000
# 2 -0.003324 0.026927 -0.013581 0.000000 0.000000 0.000000
# 3 -0.001919 -0.013581 0.026826 0.000000 0.000000 0.000000
# 4 0.000000 0.000000 0.000000 -0.255531 0.000000 0.000000
# 5 0.000000 0.000000 0.000000 0.000000 0.500524 0.000000
# 6 0.000000 0.000000 0.000000 0.000000 0.000000 0.050820
#
#
# Mechanical properties :
#
#
# Convention : Reuss Voigt Hill
#
# Bulk Modulus (GPa) = 39.68470 43.59421 41.63946
# Shear Modulus (GPa) = 12.35473 13.88816 13.12144
#
# Velocity S-wave (km/s) = 2.78749 2.95542 2.87268
# Velocity P-wave (km/s) = 5.94294 6.25006 6.09843
#
# Compressibility (1/GPa) = 0.02519863
#
# Stress axis : x y z
#
# Youngs Moduli (GPa) = 109.99774 37.13680 37.27675
#
# Poissons Ratio (x) = 0.12343 0.07152
# Poissons Ratio (y) = 0.36558 0.50625
# Poissons Ratio (z) = 0.21104 0.50435
#
# Static dielectric constant tensor:
#      x y z
#    x 1.628830 0.000000 0.000000 
#    y 0.000000 1.515320 0.000000 
#    z 0.000000 0.000000 1.550230 
# 
# From -- ./inp_files/58248.got.cif
#   From: 2010.05.17/outbox.cif.g08.bks.cpg/sg71_30_cif.got.tgz:58248.got - 2010.06.03 16:22:01.
