data_PCOD9517125
_publ_section_title
;
Structure prediction by ZEFSAII (Michael W. Deem and Ramdas Pophale) SiO2 
 PCOD9517125
Probable space group: F D D D
;
_chemical_formula_sum "Si O2"
_cell_formula_units_Z 88
_cell_length_a 12.189790
_cell_length_b 26.627662
_cell_length_c 8.535858
_cell_angle_alpha 90.000000
_cell_angle_beta 90.000000
_cell_angle_gamma 90.000000
_cell_volume 2770.616658
_symmetry_space_group_name_H-M "F D D D"
_symmetry_group_IT_number 70
_space_group.IT_coordinate_system_code '2'
_symmetry_cell_setting 'orthorhombic'
loop_
_space_group_symop_operation_xyz
x,y,z
1/4-x,1/4-y,z
x,1/4-y,1/4-z
1/4-x,y,1/4-z
-x,-y,-z
3/4+x,3/4+y,-z
-x,3/4+y,3/4+z
3/4+x,-y,3/4+z
x,1/2+y,1/2+z
1/4-x,3/4-y,1/2+z
x,3/4-y,3/4-z
1/4-x,1/2+y,3/4-z
-x,1/2-y,1/2-z
3/4+x,1/4+y,1/2-z
-x,1/4+y,1/4+z
3/4+x,1/2-y,1/4+z
1/2+x,y,1/2+z
3/4-x,1/4-y,1/2+z
1/2+x,1/4-y,3/4-z
3/4-x,y,3/4-z
1/2-x,-y,1/2-z
1/4+x,3/4+y,1/2-z
1/2-x,3/4+y,1/4+z
1/4+x,-y,1/4+z
1/2+x,1/2+y,z
3/4-x,3/4-y,z
1/2+x,3/4-y,1/4-z
3/4-x,1/2+y,1/4-z
1/2-x,1/2-y,-z
1/4+x,1/4+y,-z
1/2-x,1/4+y,3/4+z
1/4+x,1/2-y,3/4+z
loop_
_atom_site_type_symbol
_atom_site_label
_atom_site_fract_x
_atom_site_fract_y
_atom_site_fract_z
Si Si1 0.303804 0.053584 0.254802
Si Si2 0.625000 0.283938 0.125000
Si Si3 0.997583 0.935324 0.392509
Si Si4 0.125000 0.625000 0.625000
O O1 0.443219 0.056665 0.288556
O O2 0.209191 0.093975 0.229967
O O3 0.250000 0.000000 0.250000
O O4 0.361477 0.054902 0.065192
O O5 0.752070 0.296860 0.080211
O O6 0.982649 0.875000 0.375000
O O7 0.875000 0.968233 0.375000
#
# Coordination Sequence:
#
# PCOD9517125 Si02
#       4
#    32  16  32   8
#     4  12  26  50  82 113 166 220 270 354 423 498
#     4   8  16  28  60 106 138 174 263 314 370 491
#     4   9  18  34  62 103 136 195 257 311 395 471
#     4  12  32  52  74 132 164 216 298 334 434 514
#
# _framework density 31.761882
#
# number of rings (size 3 to 8) (size 9 to 14) (size 15 to 20)
#    1.091    0.727    1.818    2.182    0.000    0.000 
#    9.818    1.818    0.000    0.000    0.000    0.000 
#    0.000    0.000    0.000    0.000    0.000    0.000 
#
# Total GULP energy -122765.124402 kJ/mol
# GULP energy per Si atom -5580.232927 kJ/mol
# Density = 3.168959 g / cm^3
# Si number density = 31.761882 Si / 1000 Ang^3
#
#
#
# Elastic Constant Matrix: (Units=GPa)
#
#
# Indices 1 2 3 4 5 6 
#
# 1 331.7171 171.0124 193.7211 0.0000 0.0000 0.0000
# 2 171.0124 311.4702 87.2375 0.0000 0.0000 0.0000
# 3 193.7211 87.2375 365.9694 0.0000 0.0000 0.0000
# 4 0.0000 0.0000 0.0000 65.9935 0.0000 0.0000
# 5 0.0000 0.0000 0.0000 0.0000 92.6436 0.0000
# 6 0.0000 0.0000 0.0000 0.0000 0.0000 79.3031
#
#
#
# Elastic Compliance Matrix: (Units=1/GPa)
#
#
# Indices 1 2 3 4 5 6 
#
# 1 0.005696 -0.002446 -0.002432 0.000000 0.000000 0.000000
# 2 -0.002446 0.004491 0.000224 0.000000 0.000000 0.000000
# 3 -0.002432 0.000224 0.003966 0.000000 0.000000 0.000000
# 4 0.000000 0.000000 0.000000 0.015153 0.000000 0.000000
# 5 0.000000 0.000000 0.000000 0.000000 0.010794 0.000000
# 6 0.000000 0.000000 0.000000 0.000000 0.000000 0.012610
#
#
# Mechanical properties :
#
#
# Convention : Reuss Voigt Hill
#
# Bulk Modulus (GPa) = 206.37738 212.56653 209.47195
# Shear Modulus (GPa) = 78.57568 84.73374 81.65471
#
# Velocity S-wave (km/s) = 4.97923 5.17066 5.07585
# Velocity P-wave (km/s) = 9.90830 10.13499 10.02228
#
# Compressibility (1/GPa) = 0.00484549
#
# Stress axis : x y z
#
# Youngs Moduli (GPa) = 175.56166 222.67584 252.12268
#
# Poissons Ratio (x) = 0.54472 0.61316
# Poissons Ratio (y) = 0.42946 -0.05657
# Poissons Ratio (z) = 0.42696 -0.04996
#
# Static dielectric constant tensor:
#      x y z
#    x 2.406210 0.000000 0.000000 
#    y 0.000000 2.841890 0.000000 
#    z 0.000000 0.000000 2.835530 
# 
# From -- ./inp_files/14847.got.cif
#   From: 2010.05.17/outbox.cif.g08.bks.cpg/sg70_8_cif.got.tgz:14847.got - 2010.06.03 15:57:51.
