data_PCOD9517065
_publ_section_title
;
Structure prediction by ZEFSAII (Michael W. Deem and Ramdas Pophale) SiO2 
 PCOD9517065
Probable space group: F D D D
;
_chemical_formula_sum "Si O2"
_cell_formula_units_Z 88
_cell_length_a 12.381995
_cell_length_b 27.408756
_cell_length_c 9.483638
_cell_angle_alpha 90.000000
_cell_angle_beta 90.000000
_cell_angle_gamma 90.000000
_cell_volume 3218.510403
_symmetry_space_group_name_H-M "F D D D"
_symmetry_group_IT_number 70
_space_group.IT_coordinate_system_code '2'
_symmetry_cell_setting 'orthorhombic'
loop_
_space_group_symop_operation_xyz
x,y,z
1/4-x,1/4-y,z
x,1/4-y,1/4-z
1/4-x,y,1/4-z
-x,-y,-z
3/4+x,3/4+y,-z
-x,3/4+y,3/4+z
3/4+x,-y,3/4+z
x,1/2+y,1/2+z
1/4-x,3/4-y,1/2+z
x,3/4-y,3/4-z
1/4-x,1/2+y,3/4-z
-x,1/2-y,1/2-z
3/4+x,1/4+y,1/2-z
-x,1/4+y,1/4+z
3/4+x,1/2-y,1/4+z
1/2+x,y,1/2+z
3/4-x,1/4-y,1/2+z
1/2+x,1/4-y,3/4-z
3/4-x,y,3/4-z
1/2-x,-y,1/2-z
1/4+x,3/4+y,1/2-z
1/2-x,3/4+y,1/4+z
1/4+x,-y,1/4+z
1/2+x,1/2+y,z
3/4-x,3/4-y,z
1/2+x,3/4-y,1/4-z
3/4-x,1/2+y,1/4-z
1/2-x,1/2-y,-z
1/4+x,1/4+y,-z
1/2-x,1/4+y,3/4+z
1/4+x,1/2-y,3/4+z
loop_
_atom_site_type_symbol
_atom_site_label
_atom_site_fract_x
_atom_site_fract_y
_atom_site_fract_z
Si Si1 0.559916 0.686981 0.870526
Si Si2 0.875000 0.875000 0.875000
Si Si3 0.556826 0.375000 0.375000
Si Si4 0.207113 0.968404 0.014498
O O1 0.509749 0.655101 0.744869
O O2 0.683831 0.698380 0.832123
O O3 0.555168 0.656697 0.015339
O O4 0.510791 0.739931 0.903898
O O5 0.606555 0.328632 0.454384
O O6 0.125000 0.991911 0.125000
#
# Coordination Sequence:
#
# PCOD9517065 Si02
#       4
#    32   8  16  32
#     4  12  26  48  74 103 146 191 237 294 356 424
#     4  12  24  44  82  92 148 190 234 292 356 410
#     4  12  27  51  73 106 147 192 235 296 358 421
#     4  12  26  43  73 108 142 186 240 291 355 422
#
# _framework density 27.341842
#
# number of rings (size 3 to 8) (size 9 to 14) (size 15 to 20)
#    0.000    0.000    5.455    4.364    0.000    4.364 
#    0.000    0.000    0.000    0.000    0.000    0.000 
#    0.000    0.000    0.000    0.000    0.000    0.000 
#
# Total GULP energy -123317.526992 kJ/mol
# GULP energy per Si atom -5605.342136 kJ/mol
# Density = 2.727961 g / cm^3
# Si number density = 27.341842 Si / 1000 Ang^3
#
#
#
# Elastic Constant Matrix: (Units=GPa)
#
#
# Indices 1 2 3 4 5 6 
#
# 1 45.1495 3.6059 29.8304 0.0000 0.0000 0.0000
# 2 3.6059 209.1426 72.0058 0.0000 0.0000 0.0000
# 3 29.8304 72.0058 194.1493 0.0000 0.0000 0.0000
# 4 0.0000 0.0000 0.0000 65.9183 0.0000 0.0000
# 5 0.0000 0.0000 0.0000 0.0000 41.6387 0.0000
# 6 0.0000 0.0000 0.0000 0.0000 0.0000 23.2981
#
#
#
# Elastic Compliance Matrix: (Units=1/GPa)
#
#
# Indices 1 2 3 4 5 6 
#
# 1 0.024838 0.001015 -0.004193 0.000000 0.000000 0.000000
# 2 0.001015 0.005523 -0.002204 0.000000 0.000000 0.000000
# 3 -0.004193 -0.002204 0.006612 0.000000 0.000000 0.000000
# 4 0.000000 0.000000 0.000000 0.015170 0.000000 0.000000
# 5 0.000000 0.000000 0.000000 0.000000 0.024016 0.000000
# 6 0.000000 0.000000 0.000000 0.000000 0.000000 0.042922
#
#
# Mechanical properties :
#
#
# Convention : Reuss Voigt Hill
#
# Bulk Modulus (GPa) = 38.15419 73.25838 55.70629
# Shear Modulus (GPa) = 36.07986 49.03763 42.55875
#
# Velocity S-wave (km/s) = 3.63655 4.23957 3.94958
# Velocity P-wave (km/s) = 5.62294 7.12860 6.42006
#
# Compressibility (1/GPa) = 0.02620944
#
# Stress axis : x y z
#
# Youngs Moduli (GPa) = 40.26127 181.06619 151.23074
#
# Poissons Ratio (x) = -0.18384 0.63408
# Poissons Ratio (y) = -0.04088 0.33336
# Poissons Ratio (z) = 0.16881 0.39912
#
# Static dielectric constant tensor:
#      x y z
#    x 2.150420 0.000000 0.000000 
#    y 0.000000 2.091910 0.000000 
#    z 0.000000 0.000000 2.244580 
# 
# From -- ./inp_files/7122.got.cif
#   From: 2010.05.17/outbox.cif.g08.bks.cpg/sg70_4_cif.got.tgz:7122.got - 2010.06.03 15:57:51.
