data_PCOD9517307
_publ_section_title
;
Structure prediction by ZEFSAII (Michael W. Deem and Ramdas Pophale) SiO2 
 PCOD9517307
Probable space group: I M M M
;
_chemical_formula_sum "Si O2"
_cell_formula_units_Z 88
_cell_length_a 24.612719
_cell_length_b 7.520289
_cell_length_c 20.993925
_cell_angle_alpha 90.000000
_cell_angle_beta 90.000000
_cell_angle_gamma 90.000000
_cell_volume 3885.865508
_symmetry_space_group_name_H-M "I M M M"
_symmetry_group_IT_number 71
_symmetry_cell_setting 'orthorhombic'
loop_
_space_group_symop_operation_xyz
x,y,z
-x,-y,z
x,-y,-z
-x,y,-z
-x,-y,-z
x,y,-z
-x,y,z
x,-y,z
1/2+x,1/2+y,1/2+z
1/2-x,1/2-y,1/2+z
1/2+x,1/2-y,1/2-z
1/2-x,1/2+y,1/2-z
1/2-x,1/2-y,1/2-z
1/2+x,1/2+y,1/2-z
1/2-x,1/2+y,1/2+z
1/2+x,1/2-y,1/2+z
loop_
_atom_site_type_symbol
_atom_site_label
_atom_site_fract_x
_atom_site_fract_y
_atom_site_fract_z
Si Si1 0.256214 0.215932 0.000000
Si Si2 0.229980 0.797281 0.359193
Si Si3 0.614114 0.713242 0.136606
Si Si4 0.561780 0.210088 0.000000
Si Si5 0.558944 0.714561 0.261126
Si Si6 0.370730 0.203304 0.500000
Si Si7 0.648246 0.210691 0.635344
O O1 0.279996 0.291366 0.064625
O O2 0.194743 0.285612 0.000000
O O3 0.258257 0.000000 0.000000
O O4 0.172793 0.714253 0.338634
O O5 0.290537 0.716882 0.351401
O O6 0.233158 0.000000 0.334910
O O7 0.619392 0.500000 0.140948
O O8 0.570402 0.772021 0.188770
O O9 0.594267 0.748009 0.064953
O O10 0.500000 0.286696 0.000000
O O11 0.556565 0.000000 0.000000
O O12 0.500000 0.778973 0.283145
O O13 0.558032 0.500000 0.261623
O O14 0.607980 0.768153 0.306543
O O15 0.380318 0.282998 0.429620
O O16 0.391613 0.000000 0.500000
O O17 0.656554 0.000000 0.622813
#
# Coordination Sequence:
#
# PCOD9517307 Si02
#       7
#     8  16  16   8  16   8  16
#     4  10  17  25  44  76 111 143 172 206 256 316
#     4   9  18  33  52  77 109 142 178 221 269 322
#     4  10  21  38  60  81 106 147 191 226 268 327
#     4  11  24  39  56  84 119 149 185 237 281 310
#     4  10  22  39  56  77 107 142 183 230 275 322
#     4   8  16  33  54  77 107 140 174 213 257 312
#     4   9  18  34  57  82 109 142 177 217 271 331
#
# _framework density 22.646179
#
# number of rings (size 3 to 8) (size 9 to 14) (size 15 to 20)
#    0.000    2.455    0.000    3.273    0.000    9.091 
#    0.000    0.455    0.000    2.727    0.000    0.000 
#    0.000    0.000    0.000    0.000    0.000    0.000 
#
# Total GULP energy -245128.927743 kJ/mol
# GULP energy per Si atom -5571.111994 kJ/mol
# Density = 2.259463 g / cm^3
# Si number density = 22.646179 Si / 1000 Ang^3
#
#
#
# Elastic Constant Matrix: (Units=GPa)
#
#
# Indices 1 2 3 4 5 6 
#
# 1 157.3881 3.8907 63.0234 0.0000 0.0000 0.0000
# 2 3.8907 74.6073 -3.2387 0.0000 0.0000 0.0000
# 3 63.0234 -3.2387 98.5082 0.0000 0.0000 0.0000
# 4 0.0000 0.0000 0.0000 20.2778 0.0000 0.0000
# 5 0.0000 0.0000 0.0000 0.0000 42.0331 0.0000
# 6 0.0000 0.0000 0.0000 0.0000 0.0000 7.7684
#
#
#
# Elastic Compliance Matrix: (Units=1/GPa)
#
#
# Indices 1 2 3 4 5 6 
#
# 1 0.008577 -0.000686 -0.005510 0.000000 0.000000 0.000000
# 2 -0.000686 0.013478 0.000882 0.000000 0.000000 0.000000
# 3 -0.005510 0.000882 0.013706 0.000000 0.000000 0.000000
# 4 0.000000 0.000000 0.000000 0.049315 0.000000 0.000000
# 5 0.000000 0.000000 0.000000 0.000000 0.023791 0.000000
# 6 0.000000 0.000000 0.000000 0.000000 0.000000 0.128727
#
#
# Mechanical properties :
#
#
# Convention : Reuss Voigt Hill
#
# Bulk Modulus (GPa) = 39.78994 50.87271 45.33133
# Shear Modulus (GPa) = 19.48567 31.80440 25.64504
#
# Velocity S-wave (km/s) = 2.93651 3.75160 3.36880
# Velocity P-wave (km/s) = 5.39498 6.42487 5.93232
#
# Compressibility (1/GPa) = 0.02513198
#
# Stress axis : x y z
#
# Youngs Moduli (GPa) = 116.58994 74.19707 72.96280
#
# Poissons Ratio (x) = 0.05093 0.40202
# Poissons Ratio (y) = 0.08004 -0.06437
# Poissons Ratio (z) = 0.64241 -0.06546
#
# Static dielectric constant tensor:
#      x y z
#    x 1.856260 0.000000 0.000000 
#    y 0.000000 1.919070 0.000000 
#    z 0.000000 0.000000 1.893760 
# 
# From -- ./inp_files/50544.got.cif
#   From: 2010.05.17/outbox.cif.g08.bks.cpg/sg71_26_cif.got.tgz:50544.got - 2010.06.03 16:22:01.
