data_PCOD9517319
_publ_section_title
;
Structure prediction by ZEFSAII (Michael W. Deem and Ramdas Pophale) SiO2 
 PCOD9517319
Probable space group: I M M M
;
_chemical_formula_sum "Si O2"
_cell_formula_units_Z 112
_cell_length_a 34.840193
_cell_length_b 8.819341
_cell_length_c 27.657734
_cell_angle_alpha 90.000000
_cell_angle_beta 90.000000
_cell_angle_gamma 90.000000
_cell_volume 8498.323959
_symmetry_space_group_name_H-M "I M M M"
_symmetry_group_IT_number 71
_symmetry_cell_setting 'orthorhombic'
loop_
_space_group_symop_operation_xyz
x,y,z
-x,-y,z
x,-y,-z
-x,y,-z
-x,-y,-z
x,y,-z
-x,y,z
x,-y,z
1/2+x,1/2+y,1/2+z
1/2-x,1/2-y,1/2+z
1/2+x,1/2-y,1/2-z
1/2-x,1/2+y,1/2-z
1/2-x,1/2-y,1/2-z
1/2+x,1/2+y,1/2-z
1/2-x,1/2+y,1/2+z
1/2+x,1/2-y,1/2+z
loop_
_atom_site_type_symbol
_atom_site_label
_atom_site_fract_x
_atom_site_fract_y
_atom_site_fract_z
Si Si1 0.500000 0.174976 0.586796
Si Si2 0.207263 0.683639 0.854663
Si Si3 0.080524 0.819110 0.090359
Si Si4 0.657620 0.181674 0.260062
Si Si5 0.419674 0.319313 0.705224
Si Si6 0.275728 0.317480 0.793525
Si Si7 0.840625 0.316737 0.945924
Si Si8 0.500000 0.824524 0.295553
O O1 0.539708 0.254840 0.572283
O O2 0.500000 0.180667 0.645635
O O3 0.500000 0.000000 0.571713
O O4 0.206784 0.500000 0.855852
O O5 0.179808 0.727961 0.809766
O O6 0.250872 0.726412 0.840820
O O7 0.188547 0.738029 0.904356
O O8 0.084492 0.782531 0.147805
O O9 0.117101 0.747328 0.064444
O O10 0.080619 0.000000 0.085264
O O11 0.614820 0.242834 0.265725
O O12 0.682302 0.250556 0.216101
O O13 0.658191 0.000000 0.257354
O O14 0.417991 0.500000 0.709920
O O15 0.461200 0.257641 0.720438
O O16 0.276794 0.500000 0.790109
O O17 0.250000 0.250000 0.750000
O O18 0.842669 0.500000 0.943047
O O19 0.828387 0.275076 0.000000
O O20 0.500000 0.000000 0.281261
#
# Coordination Sequence:
#
# PCOD9517319 Si02
#       8
#     8  16  16  16  16  16  16   8
#     4   9  17  29  46  60  71  91 119 150 188 237
#     4   8  15  27  41  56  75  97 119 150 187 222
#     4  10  19  30  43  59  77  94 116 152 195 234
#     4  10  17  26  41  59  79 100 123 152 186 227
#     4  10  18  27  40  58  78 101 126 155 189 229
#     4   9  16  26  39  57  79  99 121 148 182 226
#     4  10  19  31  46  60  74  96 126 154 185 232
#     4   9  17  27  39  56  76 101 127 155 187 223
#
# _framework density 13.179069
#
# number of rings (size 3 to 8) (size 9 to 14) (size 15 to 20)
#    0.000    2.571    1.429    3.000    0.000    3.143 
#    0.000    1.071    0.000    2.143    0.000    0.000 
#    0.000    0.000    0.000    0.000    0.000    0.000 
#
# Total GULP energy -311953.585504 kJ/mol
# GULP energy per Si atom -5570.599741 kJ/mol
# Density = 1.314907 g / cm^3
# Si number density = 13.179069 Si / 1000 Ang^3
#
#
#
# Elastic Constant Matrix: (Units=GPa)
#
#
# Indices 1 2 3 4 5 6 
#
# 1 97.7228 31.5165 50.1608 0.0000 0.0000 0.0000
# 2 31.5165 34.2214 17.3859 0.0000 0.0000 0.0000
# 3 50.1608 17.3859 48.7060 0.0000 0.0000 0.0000
# 4 0.0000 0.0000 0.0000 8.9912 0.0000 0.0000
# 5 0.0000 0.0000 0.0000 0.0000 11.1473 0.0000
# 6 0.0000 0.0000 0.0000 0.0000 0.0000 22.8186
#
#
#
# Elastic Compliance Matrix: (Units=1/GPa)
#
#
# Indices 1 2 3 4 5 6 
#
# 1 0.025348 -0.012315 -0.021709 0.000000 0.000000 0.000000
# 2 -0.012315 0.041678 -0.002194 0.000000 0.000000 0.000000
# 3 -0.021709 -0.002194 0.043672 0.000000 0.000000 0.000000
# 4 0.000000 0.000000 0.000000 0.111220 0.000000 0.000000
# 5 0.000000 0.000000 0.000000 0.000000 0.089708 0.000000
# 6 0.000000 0.000000 0.000000 0.000000 0.000000 0.043824
#
#
# Mechanical properties :
#
#
# Convention : Reuss Voigt Hill
#
# Bulk Modulus (GPa) = 26.13616 42.08629 34.11123
# Shear Modulus (GPa) = 11.34711 14.03054 12.68882
#
# Velocity S-wave (km/s) = 2.93745 3.26637 3.10627
# Velocity P-wave (km/s) = 5.60174 6.79920 6.22931
#
# Compressibility (1/GPa) = 0.03826117
#
# Stress axis : x y z
#
# Youngs Moduli (GPa) = 39.45068 23.99346 22.89791
#
# Poissons Ratio (x) = 0.29549 0.49709
# Poissons Ratio (y) = 0.48585 0.05024
# Poissons Ratio (z) = 0.85644 0.05264
#
# Static dielectric constant tensor:
#      x y z
#    x 1.440890 0.000000 0.000000 
#    y 0.000000 1.437060 0.000000 
#    z 0.000000 0.000000 1.423160 
# 
# From -- ./inp_files/17609.got.cif
#   From: 2010.05.17/outbox.cif.g08.bks.cpg/sg71_9_cif.got.tgz:17609.got - 2010.06.03 16:22:01.
