data_PCOD9517070
_publ_section_title
;
Structure prediction by ZEFSAII (Michael W. Deem and Ramdas Pophale) SiO2 
 PCOD9517070
Probable space group: F D D D
;
_chemical_formula_sum "Si O2"
_cell_formula_units_Z 80
_cell_length_a 12.143647
_cell_length_b 28.550730
_cell_length_c 9.392687
_cell_angle_alpha 90.000000
_cell_angle_beta 90.000000
_cell_angle_gamma 90.000000
_cell_volume 3256.538385
_symmetry_space_group_name_H-M "F D D D"
_symmetry_group_IT_number 70
_space_group.IT_coordinate_system_code '2'
_symmetry_cell_setting 'orthorhombic'
loop_
_space_group_symop_operation_xyz
x,y,z
1/4-x,1/4-y,z
x,1/4-y,1/4-z
1/4-x,y,1/4-z
-x,-y,-z
3/4+x,3/4+y,-z
-x,3/4+y,3/4+z
3/4+x,-y,3/4+z
x,1/2+y,1/2+z
1/4-x,3/4-y,1/2+z
x,3/4-y,3/4-z
1/4-x,1/2+y,3/4-z
-x,1/2-y,1/2-z
3/4+x,1/4+y,1/2-z
-x,1/4+y,1/4+z
3/4+x,1/2-y,1/4+z
1/2+x,y,1/2+z
3/4-x,1/4-y,1/2+z
1/2+x,1/4-y,3/4-z
3/4-x,y,3/4-z
1/2-x,-y,1/2-z
1/4+x,3/4+y,1/2-z
1/2-x,3/4+y,1/4+z
1/4+x,-y,1/4+z
1/2+x,1/2+y,z
3/4-x,3/4-y,z
1/2+x,3/4-y,1/4-z
3/4-x,1/2+y,1/4-z
1/2-x,1/2-y,-z
1/4+x,1/4+y,-z
1/2-x,1/4+y,3/4+z
1/4+x,1/2-y,3/4+z
loop_
_atom_site_type_symbol
_atom_site_label
_atom_site_fract_x
_atom_site_fract_y
_atom_site_fract_z
Si Si1 0.455171 0.165319 0.743517
Si Si2 0.625000 0.125000 0.935209
Si Si3 0.555375 0.799943 0.766323
O O1 0.461836 0.125000 0.625000
O O2 0.570006 0.163391 0.827358
O O3 0.389615 0.203343 0.650060
O O4 0.375000 0.156614 0.875000
O O5 0.535578 0.092138 0.018398
O O6 0.625000 0.808104 0.625000
O O7 0.500000 0.750000 0.750000
#
# Coordination Sequence:
#
# PCOD9517070 Si02
#       3
#    32  16  32
#     4  12  24  47  79 113 149 206 260 317 401 468
#     4  12  25  51  84 102 166 200 260 326 396 468
#     4  12  30  50  75 120 154 205 270 324 401 480
#
# _framework density 24.565963
#
# number of rings (size 3 to 8) (size 9 to 14) (size 15 to 20)
#    0.000    0.000    8.000    0.600    5.600    3.200 
#    0.000    0.000    0.000    0.000    0.000    0.000 
#    0.000    0.000    0.000    0.000    0.000    0.000 
#
# Total GULP energy -111466.143619 kJ/mol
# GULP energy per Si atom -5573.307181 kJ/mol
# Density = 2.451005 g / cm^3
# Si number density = 24.565963 Si / 1000 Ang^3
#
#
#
# Elastic Constant Matrix: (Units=GPa)
#
#
# Indices 1 2 3 4 5 6 
#
# 1 119.9565 45.0253 39.7245 0.0000 0.0000 0.0000
# 2 45.0253 134.0412 25.2533 0.0000 0.0000 0.0000
# 3 39.7245 25.2533 119.5223 0.0000 0.0000 0.0000
# 4 0.0000 0.0000 0.0000 13.6390 0.0000 0.0000
# 5 0.0000 0.0000 0.0000 0.0000 53.3350 0.0000
# 6 0.0000 0.0000 0.0000 0.0000 0.0000 32.6421
#
#
#
# Elastic Compliance Matrix: (Units=1/GPa)
#
#
# Indices 1 2 3 4 5 6 
#
# 1 0.010381 -0.002955 -0.002826 0.000000 0.000000 0.000000
# 2 -0.002955 0.008611 -0.000837 0.000000 0.000000 0.000000
# 3 -0.002826 -0.000837 0.009483 0.000000 0.000000 0.000000
# 4 0.000000 0.000000 0.000000 0.073319 0.000000 0.000000
# 5 0.000000 0.000000 0.000000 0.000000 0.018749 0.000000
# 6 0.000000 0.000000 0.000000 0.000000 0.000000 0.030635
#
#
# Mechanical properties :
#
#
# Convention : Reuss Voigt Hill
#
# Bulk Modulus (GPa) = 65.62252 65.94736 65.78494
# Shear Modulus (GPa) = 29.49955 37.49100 33.49527
#
# Velocity S-wave (km/s) = 3.46906 3.91082 3.69654
# Velocity P-wave (km/s) = 6.54344 6.87720 6.71240
#
# Compressibility (1/GPa) = 0.01523867
#
# Stress axis : x y z
#
# Youngs Moduli (GPa) = 96.32739 116.13534 105.45398
#
# Poissons Ratio (x) = 0.34315 0.29802
# Poissons Ratio (y) = 0.28462 0.08829
# Poissons Ratio (z) = 0.27222 0.09724
#
# Static dielectric constant tensor:
#      x y z
#    x 2.192340 0.000000 0.000000 
#    y 0.000000 2.087530 0.000000 
#    z 0.000000 0.000000 2.087270 
# 
# From -- ./inp_files/13824.got.cif
#   From: 2010.05.17/outbox.cif.g08.bks.cpg/sg70_7_cif.got.tgz:13824.got - 2010.06.03 15:57:51.
