data_PCOD9517571
_publ_section_title
;
Structure prediction by ZEFSAII (Michael W. Deem and Ramdas Pophale) SiO2 
 PCOD9517571
Probable space group: I M M M
;
_chemical_formula_sum "Si O2"
_cell_formula_units_Z 80
_cell_length_a 29.224149
_cell_length_b 23.247771
_cell_length_c 9.302236
_cell_angle_alpha 90.000000
_cell_angle_beta 90.000000
_cell_angle_gamma 90.000000
_cell_volume 6319.904940
_symmetry_space_group_name_H-M "I M M M"
_symmetry_group_IT_number 71
_symmetry_cell_setting 'orthorhombic'
loop_
_space_group_symop_operation_xyz
x,y,z
-x,-y,z
x,-y,-z
-x,y,-z
-x,-y,-z
x,y,-z
-x,y,z
x,-y,z
1/2+x,1/2+y,1/2+z
1/2-x,1/2-y,1/2+z
1/2+x,1/2-y,1/2-z
1/2-x,1/2+y,1/2-z
1/2-x,1/2-y,1/2-z
1/2+x,1/2+y,1/2-z
1/2-x,1/2+y,1/2+z
1/2+x,1/2-y,1/2+z
loop_
_atom_site_type_symbol
_atom_site_label
_atom_site_fract_x
_atom_site_fract_y
_atom_site_fract_z
Si Si1 0.868041 0.364054 0.828957
Si Si2 0.725840 0.067127 0.328972
Si Si3 0.053625 0.432369 0.329196
Si Si4 0.774758 0.165315 0.165483
Si Si5 0.678965 0.236715 0.834159
O O1 0.824650 0.406457 0.802307
O O2 0.912629 0.393201 0.761932
O O3 0.855639 0.304182 0.751758
O O4 0.872024 0.356358 0.000000
O O5 0.734334 0.073040 0.500000
O O6 0.761679 0.105819 0.241995
O O7 0.727098 0.000000 0.291013
O O8 0.061535 0.423895 0.500000
O O9 0.061936 0.500000 0.298288
O O10 0.000000 0.420959 0.300954
O O11 0.727328 0.202024 0.165864
O O12 0.810669 0.203608 0.253968
O O13 0.788483 0.157776 0.000000
O O14 0.665545 0.244819 0.000000
#
# Coordination Sequence:
#
# PCOD9517571 Si02
#       5
#    16  16  16  16  16
#     4  10  18  27  40  57  74  92 120 158 193 223
#     4   9  17  27  37  51  73  99 124 151 185 223
#     4   9  18  31  43  54  71  96 124 154 190 231
#     4   9  16  25  37  53  71  91 118 151 183 215
#     4   9  16  26  39  53  70  93 118 146 183 223
#
# _framework density 12.658417999999999
#
# number of rings (size 3 to 8) (size 9 to 14) (size 15 to 20)
#    0.000    2.800    0.000    3.000    0.000    7.600 
#    0.000    1.000    0.000    0.000    0.000    0.000 
#    0.000    0.000    0.000    0.000    0.000    1.000 
#
# Total GULP energy -222848.553431 kJ/mol
# GULP energy per Si atom -5571.213836 kJ/mol
# Density = 1.262961 g / cm^3
# Si number density = 12.658418 Si / 1000 Ang^3
#
#
#
# Elastic Constant Matrix: (Units=GPa)
#
#
# Indices 1 2 3 4 5 6 
#
# 1 52.4869 41.2660 50.1595 0.0000 0.0000 0.0000
# 2 41.2660 80.2748 61.0867 0.0000 0.0000 0.0000
# 3 50.1595 61.0867 90.4934 0.0000 0.0000 0.0000
# 4 0.0000 0.0000 0.0000 22.1643 0.0000 0.0000
# 5 0.0000 0.0000 0.0000 0.0000 18.9340 0.0000
# 6 0.0000 0.0000 0.0000 0.0000 0.0000 24.3282
#
#
#
# Elastic Compliance Matrix: (Units=1/GPa)
#
#
# Indices 1 2 3 4 5 6 
#
# 1 0.042957 -0.008150 -0.018309 0.000000 0.000000 0.000000
# 2 -0.008150 0.027162 -0.013818 0.000000 0.000000 0.000000
# 3 -0.018309 -0.013818 0.030527 0.000000 0.000000 0.000000
# 4 0.000000 0.000000 0.000000 0.045118 0.000000 0.000000
# 5 0.000000 0.000000 0.000000 0.000000 0.052815 0.000000
# 6 0.000000 0.000000 0.000000 0.000000 0.000000 0.041105
#
#
# Mechanical properties :
#
#
# Convention : Reuss Voigt Hill
#
# Bulk Modulus (GPa) = 49.77156 58.69774 54.23465
# Shear Modulus (GPa) = 15.29360 17.80149 16.54754
#
# Velocity S-wave (km/s) = 3.47965 3.75413 3.61949
# Velocity P-wave (km/s) = 7.45307 8.07852 7.77209
#
# Compressibility (1/GPa) = 0.02009179
#
# Stress axis : x y z
#
# Youngs Moduli (GPa) = 23.27897 36.81658 32.75807
#
# Poissons Ratio (x) = 0.30005 0.59978
# Poissons Ratio (y) = 0.18972 0.45265
# Poissons Ratio (z) = 0.42622 0.50873
#
# Static dielectric constant tensor:
#      x y z
#    x 1.382850 0.000000 0.000000 
#    y 0.000000 1.399360 0.000000 
#    z 0.000000 0.000000 1.422160 
# 
# From -- ./inp_files/8615.got.cif
#   From: 2010.05.17/outbox.cif.g08.bks.cpg/sg71_5_cif.got.tgz:8615.got - 2010.06.03 16:22:01.
