data_PCOD9517659
_publ_section_title
;
Structure prediction by ZEFSAII (Michael W. Deem and Ramdas Pophale) SiO2 
 PCOD9517659
Probable space group: I M M M
;
_chemical_formula_sum "Si O2"
_cell_formula_units_Z 104
_cell_length_a 14.261683
_cell_length_b 16.860420
_cell_length_c 27.626075
_cell_angle_alpha 90.000000
_cell_angle_beta 90.000000
_cell_angle_gamma 90.000000
_cell_volume 6642.909783
_symmetry_space_group_name_H-M "I M M M"
_symmetry_group_IT_number 71
_symmetry_cell_setting 'orthorhombic'
loop_
_space_group_symop_operation_xyz
x,y,z
-x,-y,z
x,-y,-z
-x,y,-z
-x,-y,-z
x,y,-z
-x,y,z
x,-y,z
1/2+x,1/2+y,1/2+z
1/2-x,1/2-y,1/2+z
1/2+x,1/2-y,1/2-z
1/2-x,1/2+y,1/2-z
1/2-x,1/2-y,1/2-z
1/2+x,1/2+y,1/2-z
1/2-x,1/2+y,1/2+z
1/2+x,1/2-y,1/2+z
loop_
_atom_site_type_symbol
_atom_site_label
_atom_site_fract_x
_atom_site_fract_y
_atom_site_fract_z
Si Si1 0.287971 0.595305 0.368733
Si Si2 0.605710 0.403488 0.728656
Si Si3 0.890569 0.806531 0.056456
Si Si4 0.605074 0.096237 0.184991
Si Si5 0.610866 0.851017 0.379718
Si Si6 0.613559 0.000000 0.554760
Si Si7 0.709933 0.903802 0.284803
O O1 0.288328 0.500000 0.369471
O O2 0.357051 0.620321 0.324574
O O3 0.324947 0.628701 0.418858
O O4 0.184159 0.622577 0.353008
O O5 0.500000 0.375110 0.737406
O O6 0.604310 0.500000 0.728596
O O7 0.685039 0.381539 0.767703
O O8 0.879214 0.728595 0.089407
O O9 0.000000 0.830857 0.059739
O O10 0.870468 0.791268 0.000000
O O11 0.500000 0.126179 0.177368
O O12 0.643823 0.113708 0.238632
O O13 0.602575 0.000000 0.182196
O O14 0.500000 0.860667 0.367346
O O15 0.639413 0.922725 0.415035
O O16 0.671760 0.858640 0.331420
O O17 0.500000 0.000000 0.551941
O O18 0.649593 0.000000 0.500000
O O19 0.706390 0.000000 0.292927
#
# Coordination Sequence:
#
# PCOD9517659 Si02
#       7
#    16  16  16  16  16   8  16
#     4   9  17  30  49  69  88 118 154 183 217 266
#     4   8  14  25  42  65  94 123 150 182 218 257
#     4  10  21  34  46  63  89 118 148 188 235 269
#     4   8  14  25  44  70  98 121 143 176 218 264
#     4  10  18  28  43  64  92 121 147 181 224 267
#     4   9  16  26  42  62  85 117 153 183 215 264
#     4   9  15  24  42  69  94 119 151 179 212 262
#
# _framework density 15.655789
#
# number of rings (size 3 to 8) (size 9 to 14) (size 15 to 20)
#    0.000    3.000    0.769    3.231    0.000    3.692 
#    0.000    3.846    0.000    3.231    0.000    2.154 
#    0.000    2.462    0.000    0.000    0.000    0.000 
#
# Total GULP energy -289631.978289 kJ/mol
# GULP energy per Si atom -5569.845736 kJ/mol
# Density = 1.562016 g / cm^3
# Si number density = 15.655789 Si / 1000 Ang^3
#
#
#
# Elastic Constant Matrix: (Units=GPa)
#
#
# Indices 1 2 3 4 5 6 
#
# 1 117.6891 26.5317 59.3726 0.0000 0.0000 0.0000
# 2 26.5317 14.6785 23.1193 0.0000 0.0000 0.0000
# 3 59.3726 23.1193 91.3786 0.0000 0.0000 0.0000
# 4 0.0000 0.0000 0.0000 18.5037 0.0000 0.0000
# 5 0.0000 0.0000 0.0000 0.0000 23.1388 0.0000
# 6 0.0000 0.0000 0.0000 0.0000 0.0000 10.2922
#
#
#
# Elastic Compliance Matrix: (Units=1/GPa)
#
#
# Indices 1 2 3 4 5 6 
#
# 1 0.015599 -0.020335 -0.004990 0.000000 0.000000 0.000000
# 2 -0.020335 0.139770 -0.022150 0.000000 0.000000 0.000000
# 3 -0.004990 -0.022150 0.019790 0.000000 0.000000 0.000000
# 4 0.000000 0.000000 0.000000 0.054043 0.000000 0.000000
# 5 0.000000 0.000000 0.000000 0.000000 0.043217 0.000000
# 6 0.000000 0.000000 0.000000 0.000000 0.000000 0.097161
#
#
# Mechanical properties :
#
#
# Convention : Reuss Voigt Hill
#
# Bulk Modulus (GPa) = 12.46761 49.08817 30.77789
# Shear Modulus (GPa) = 10.17775 18.03511 14.10643
#
# Velocity S-wave (km/s) = 2.55246 3.39776 3.00498
# Velocity P-wave (km/s) = 4.08260 6.84220 5.63398
#
# Compressibility (1/GPa) = 0.08020783
#
# Stress axis : x y z
#
# Youngs Moduli (GPa) = 64.10726 7.15461 50.53056
#
# Poissons Ratio (x) = 0.14549 0.25216
# Poissons Ratio (y) = 1.30363 1.11925
# Poissons Ratio (z) = 0.31992 0.15847
#
# Static dielectric constant tensor:
#      x y z
#    x 1.527530 0.000000 0.000000 
#    y 0.000000 1.544680 0.000000 
#    z 0.000000 0.000000 1.503510 
# 
# From -- ./inp_files/40472.got.cif
#   From: 2010.05.17/outbox.cif.g08.bks.cpg/sg71_21_cif.got.tgz:40472.got - 2010.06.03 16:22:01.
