data_PCOD9517500
_publ_section_title
;
Structure prediction by ZEFSAII (Michael W. Deem and Ramdas Pophale) SiO2 
 PCOD9517500
Probable space group: I M M M
;
_chemical_formula_sum "Si O2"
_cell_formula_units_Z 74
_cell_length_a 15.418083
_cell_length_b 9.002757
_cell_length_c 26.530773
_cell_angle_alpha 90.000000
_cell_angle_beta 90.000000
_cell_angle_gamma 90.000000
_cell_volume 3682.610702
_symmetry_space_group_name_H-M "I M M M"
_symmetry_group_IT_number 71
_symmetry_cell_setting 'orthorhombic'
loop_
_space_group_symop_operation_xyz
x,y,z
-x,-y,z
x,-y,-z
-x,y,-z
-x,-y,-z
x,y,-z
-x,y,z
x,-y,z
1/2+x,1/2+y,1/2+z
1/2-x,1/2-y,1/2+z
1/2+x,1/2-y,1/2-z
1/2-x,1/2+y,1/2-z
1/2-x,1/2-y,1/2-z
1/2+x,1/2+y,1/2-z
1/2-x,1/2+y,1/2+z
1/2+x,1/2-y,1/2+z
loop_
_atom_site_type_symbol
_atom_site_label
_atom_site_fract_x
_atom_site_fract_y
_atom_site_fract_z
Si Si1 0.000000 0.677173 0.207617
Si Si2 0.689798 0.676934 0.441782
Si Si3 0.340122 0.324692 0.765225
Si Si4 0.000000 0.000000 0.500000
Si Si5 0.500000 0.323375 0.598775
Si Si6 0.155073 0.821959 0.385227
Si Si7 0.000000 0.294629 0.443170
O O1 0.916474 0.744502 0.235301
O O2 0.000000 0.500000 0.210454
O O3 0.000000 0.731359 0.150054
O O4 0.711893 0.710540 0.500000
O O5 0.703449 0.500000 0.433769
O O6 0.588421 0.706791 0.431524
O O7 0.751252 0.771338 0.405506
O O8 0.339500 0.500000 0.753046
O O9 0.250000 0.250000 0.750000
O O10 0.353152 0.309477 0.825240
O O11 0.000000 0.124837 0.457523
O O12 0.500000 0.500000 0.610796
O O13 0.087797 0.702891 0.410667
O O14 0.144603 0.000000 0.397068
O O15 0.000000 0.361090 0.500000
#
# Coordination Sequence:
#
# PCOD9517500 Si02
#       7
#     8  16  16   2   8  16   8
#     4  12  25  41  63  90 122 158 202 252 309 367
#     4  10  22  38  59  87 119 154 194 239 295 358
#     4  11  24  41  62  88 121 158 203 252 301 358
#     4   8  16  28  56  80 114 138 184 216 270 332
#     4  10  21  41  64  83 113 158 201 244 296 356
#     4  11  21  37  60  86 113 151 194 239 288 345
#     4  10  17  32  55  83 113 143 180 221 272 338
#
# _framework density 20.094439000000001
#
# number of rings (size 3 to 8) (size 9 to 14) (size 15 to 20)
#    0.324    1.081    1.081    4.541    0.000   10.378 
#    0.000    0.541    0.000    3.892    0.000    0.000 
#    0.000    0.000    0.000    0.000    0.000    0.000 
#
# Total GULP energy -206122.245091 kJ/mol
# GULP energy per Si atom -5570.871489 kJ/mol
# Density = 2.004870 g / cm^3
# Si number density = 20.094439 Si / 1000 Ang^3
#
#
#
# Elastic Constant Matrix: (Units=GPa)
#
#
# Indices 1 2 3 4 5 6 
#
# 1 80.7055 14.8972 -2.5037 0.0000 0.0000 0.0000
# 2 14.8972 86.2229 31.4286 0.0000 0.0000 0.0000
# 3 -2.5037 31.4286 57.7019 0.0000 0.0000 0.0000
# 4 0.0000 0.0000 0.0000 5.4088 0.0000 0.0000
# 5 0.0000 0.0000 0.0000 0.0000 40.4688 0.0000
# 6 0.0000 0.0000 0.0000 0.0000 0.0000 79.3947
#
#
#
# Elastic Compliance Matrix: (Units=1/GPa)
#
#
# Indices 1 2 3 4 5 6 
#
# 1 0.013026 -0.003065 0.002235 0.000000 0.000000 0.000000
# 2 -0.003065 0.015192 -0.008408 0.000000 0.000000 0.000000
# 3 0.002235 -0.008408 0.022007 0.000000 0.000000 0.000000
# 4 0.000000 0.000000 0.000000 0.184885 0.000000 0.000000
# 5 0.000000 0.000000 0.000000 0.000000 0.024710 0.000000
# 6 0.000000 0.000000 0.000000 0.000000 0.000000 0.012595
#
#
# Mechanical properties :
#
#
# Convention : Reuss Voigt Hill
#
# Bulk Modulus (GPa) = 31.49754 34.69718 33.09736
# Shear Modulus (GPa) = 16.58512 37.10834 26.84673
#
# Velocity S-wave (km/s) = 2.87602 4.30198 3.65914
# Velocity P-wave (km/s) = 5.17083 6.47925 5.86166
#
# Compressibility (1/GPa) = 0.03174851
#
# Stress axis : x y z
#
# Youngs Moduli (GPa) = 76.77048 65.82386 45.44039
#
# Poissons Ratio (x) = 0.20176 -0.10154
# Poissons Ratio (y) = 0.23531 0.38205
# Poissons Ratio (z) = -0.17156 0.55343
#
# Static dielectric constant tensor:
#      x y z
#    x 1.693780 0.000000 0.000000 
#    y 0.000000 1.688890 0.000000 
#    z 0.000000 0.000000 1.688000 
# 
# From -- ./inp_files/65215.got.cif
#   From: 2010.05.17/outbox.cif.g08.bks.cpg/sg71_33_cif.got.tgz:65215.got - 2010.06.03 16:22:01.
