data_PCOD9517012
_publ_section_title
;
Structure prediction by ZEFSAII (Michael W. Deem and Ramdas Pophale) SiO2 
 PCOD9517012
Probable space group: F D D D
;
_chemical_formula_sum "Si O2"
_cell_formula_units_Z 72
_cell_length_a 29.465145
_cell_length_b 14.868324
_cell_length_c 6.946557
_cell_angle_alpha 90.000000
_cell_angle_beta 90.000000
_cell_angle_gamma 90.000000
_cell_volume 3043.268023
_symmetry_space_group_name_H-M "F D D D"
_symmetry_group_IT_number 70
_space_group.IT_coordinate_system_code '2'
_symmetry_cell_setting 'orthorhombic'
loop_
_space_group_symop_operation_xyz
x,y,z
1/4-x,1/4-y,z
x,1/4-y,1/4-z
1/4-x,y,1/4-z
-x,-y,-z
3/4+x,3/4+y,-z
-x,3/4+y,3/4+z
3/4+x,-y,3/4+z
x,1/2+y,1/2+z
1/4-x,3/4-y,1/2+z
x,3/4-y,3/4-z
1/4-x,1/2+y,3/4-z
-x,1/2-y,1/2-z
3/4+x,1/4+y,1/2-z
-x,1/4+y,1/4+z
3/4+x,1/2-y,1/4+z
1/2+x,y,1/2+z
3/4-x,1/4-y,1/2+z
1/2+x,1/4-y,3/4-z
3/4-x,y,3/4-z
1/2-x,-y,1/2-z
1/4+x,3/4+y,1/2-z
1/2-x,3/4+y,1/4+z
1/4+x,-y,1/4+z
1/2+x,1/2+y,z
3/4-x,3/4-y,z
1/2+x,3/4-y,1/4-z
3/4-x,1/2+y,1/4-z
1/2-x,1/2-y,-z
1/4+x,1/4+y,-z
1/2-x,1/4+y,3/4+z
1/4+x,1/2-y,3/4+z
loop_
_atom_site_type_symbol
_atom_site_label
_atom_site_fract_x
_atom_site_fract_y
_atom_site_fract_z
Si Si1 0.690023 0.192394 0.806438
Si Si2 0.625000 0.625000 0.625000
Si Si3 0.720982 0.912082 0.682691
O O1 0.678662 0.125000 0.625000
O O2 0.740418 0.159684 0.872638
O O3 0.690469 0.293448 0.727833
O O4 0.656675 0.181295 0.983019
O O5 0.750000 0.000000 0.750000
O O6 0.697343 0.875000 0.875000
#
# Coordination Sequence:
#
# PCOD9517012 Si02
#       3
#    32   8  32
#     4   9  18  33  53  85 113 161 207 257 295 372
#     4  12  22  28  48  86 136 160 198 246 316 374
#     4   7  13  30  56  81 105 150 214 255 294 351
#
# _framework density 23.658777000000001
#
# number of rings (size 3 to 8) (size 9 to 14) (size 15 to 20)
#    0.000    4.444    0.000    0.667    0.000    1.778 
#    0.000    0.000    0.000    0.000  312.000    0.000 
#    0.000    0.000    0.000    0.889    0.000   16.667 
#
# Total GULP energy -100419.474550 kJ/mol
# GULP energy per Si atom -5578.859697 kJ/mol
# Density = 2.360493 g / cm^3
# Si number density = 23.658777 Si / 1000 Ang^3
#
#
#
# Elastic Constant Matrix: (Units=GPa)
#
#
# Indices 1 2 3 4 5 6 
#
# 1 75.8742 32.3012 89.6786 0.0000 0.0000 0.0000
# 2 32.3012 113.0167 90.2660 0.0000 0.0000 0.0000
# 3 89.6786 90.2660 196.6242 0.0000 0.0000 0.0000
# 4 0.0000 0.0000 0.0000 47.7652 0.0000 0.0000
# 5 0.0000 0.0000 0.0000 0.0000 42.1230 0.0000
# 6 0.0000 0.0000 0.0000 0.0000 0.0000 -17.4928
#
#
#
# Elastic Compliance Matrix: (Units=1/GPa)
#
#
# Indices 1 2 3 4 5 6 
#
# 1 0.029521 0.003658 -0.015144 0.000000 0.000000 0.000000
# 2 0.003658 0.014424 -0.008290 0.000000 0.000000 0.000000
# 3 -0.015144 -0.008290 0.015798 0.000000 0.000000 0.000000
# 4 0.000000 0.000000 0.000000 0.020936 0.000000 0.000000
# 5 0.000000 0.000000 0.000000 0.000000 0.023740 0.000000
# 6 0.000000 0.000000 0.000000 0.000000 0.000000 -0.057166
#
#
# Mechanical properties :
#
#
# Convention : Reuss Voigt Hill
#
# Bulk Modulus (GPa) = 49.52458 90.00072 69.76265
# Shear Modulus (GPa) = 53.45560 26.03039 39.74299
#
# Velocity S-wave (km/s) = 4.75851 3.32059 4.10303
# Velocity P-wave (km/s) = 7.15329 7.26811 7.21093
#
# Compressibility (1/GPa) = 0.02019199
#
# Stress axis : x y z
#
# Youngs Moduli (GPa) = 33.87384 69.32865 63.29738
#
# Poissons Ratio (x) = -0.25358 0.95855
# Poissons Ratio (y) = -0.12390 0.52473
# Poissons Ratio (z) = 0.51297 0.57473
#
# Static dielectric constant tensor:
#      x y z
#    x 1.962250 0.000000 0.000000 
#    y 0.000000 1.956090 0.000000 
#    z 0.000000 0.000000 2.018290 
# 
# From -- ./inp_files/7645.got.cif
#   From: 2010.05.17/outbox.cif.g08.bks.cpg/sg70_4_cif.got.tgz:7645.got - 2010.06.03 15:57:51.
