data_PCOD9517290
_publ_section_title
;
Structure prediction by ZEFSAII (Michael W. Deem and Ramdas Pophale) SiO2 
 PCOD9517290
Probable space group: I M M M
;
_chemical_formula_sum "Si O2"
_cell_formula_units_Z 72
_cell_length_a 20.194840
_cell_length_b 24.983509
_cell_length_c 10.090132
_cell_angle_alpha 90.000000
_cell_angle_beta 90.000000
_cell_angle_gamma 90.000000
_cell_volume 5090.854685
_symmetry_space_group_name_H-M "I M M M"
_symmetry_group_IT_number 71
_symmetry_cell_setting 'orthorhombic'
loop_
_space_group_symop_operation_xyz
x,y,z
-x,-y,z
x,-y,-z
-x,y,-z
-x,-y,-z
x,y,-z
-x,y,z
x,-y,z
1/2+x,1/2+y,1/2+z
1/2-x,1/2-y,1/2+z
1/2+x,1/2-y,1/2-z
1/2-x,1/2+y,1/2-z
1/2-x,1/2-y,1/2-z
1/2+x,1/2+y,1/2-z
1/2-x,1/2+y,1/2+z
1/2+x,1/2-y,1/2+z
loop_
_atom_site_type_symbol
_atom_site_label
_atom_site_fract_x
_atom_site_fract_y
_atom_site_fract_z
Si Si1 0.380092 0.768168 0.000000
Si Si2 0.254619 0.321829 0.500000
Si Si3 0.351583 0.636862 0.289096
Si Si4 0.308822 0.651587 0.000000
Si Si5 0.078799 0.063162 0.000000
Si Si6 0.424376 0.752037 0.287982
Si Si7 0.172712 0.293320 0.000000
O O1 0.420411 0.769194 0.135216
O O2 0.323255 0.813097 0.000000
O O3 0.342318 0.710703 0.000000
O O4 0.284471 0.350283 0.629416
O O5 0.287073 0.262708 0.500000
O O6 0.389717 0.591639 0.371154
O O7 0.395374 0.691468 0.297196
O O8 0.333853 0.625474 0.136663
O O9 0.229561 0.661805 0.000000
O O10 0.000000 0.071621 0.000000
O O11 0.092147 0.000000 0.000000
O O12 0.500000 0.753115 0.334846
O O13 0.375417 0.789250 0.373493
#
# Coordination Sequence:
#
# PCOD9517290 Si02
#       7
#     8   8  16   8   8  16   8
#     4   9  16  24  35  53  79 106 137 173 198 221
#     4   8  14  25  39  55  73 102 139 171 198 224
#     4   9  17  28  44  59  76 101 136 174 203 233
#     4   9  16  27  41  60  77  96 130 174 210 228
#     4  10  20  34  48  60  76 100 130 163 204 251
#     4  10  17  24  35  54  81 112 142 167 192 224
#     4   9  16  24  37  54  77 104 135 170 195 225
#
# _framework density 14.143007000000001
#
# number of rings (size 3 to 8) (size 9 to 14) (size 15 to 20)
#    0.000    2.778    0.000    3.333    0.000    5.333 
#    0.000    2.222    0.000    1.333    0.000    0.000 
#    0.000    0.000    0.000    0.000    0.000  262.222 
#
# Total GULP energy -200436.876268 kJ/mol
# GULP energy per Si atom -5567.691007 kJ/mol
# Density = 1.411082 g / cm^3
# Si number density = 14.143007 Si / 1000 Ang^3
#
#
#
# Elastic Constant Matrix: (Units=GPa)
#
#
# Indices 1 2 3 4 5 6 
#
# 1 88.0045 30.6639 42.1590 0.0000 0.0000 0.0000
# 2 30.6639 43.6311 35.0793 0.0000 0.0000 0.0000
# 3 42.1590 35.0793 130.5776 0.0000 0.0000 0.0000
# 4 0.0000 0.0000 0.0000 8.2137 0.0000 0.0000
# 5 0.0000 0.0000 0.0000 0.0000 4.4396 0.0000
# 6 0.0000 0.0000 0.0000 0.0000 0.0000 15.7549
#
#
#
# Elastic Compliance Matrix: (Units=1/GPa)
#
#
# Indices 1 2 3 4 5 6 
#
# 1 0.015758 -0.008908 -0.002694 0.000000 0.000000 0.000000
# 2 -0.008908 0.034270 -0.006330 0.000000 0.000000 0.000000
# 3 -0.002694 -0.006330 0.010229 0.000000 0.000000 0.000000
# 4 0.000000 0.000000 0.000000 0.121747 0.000000 0.000000
# 5 0.000000 0.000000 0.000000 0.000000 0.225246 0.000000
# 6 0.000000 0.000000 0.000000 0.000000 0.000000 0.063472
#
#
# Mechanical properties :
#
#
# Convention : Reuss Voigt Hill
#
# Bulk Modulus (GPa) = 40.99987 53.11308 47.05648
# Shear Modulus (GPa) = 9.71405 15.96904 12.84155
#
# Velocity S-wave (km/s) = 2.62362 3.36387 3.01654
# Velocity P-wave (km/s) = 6.18306 7.26108 6.74365
#
# Compressibility (1/GPa) = 0.02439032
#
# Stress axis : x y z
#
# Youngs Moduli (GPa) = 63.46069 29.18040 97.76273
#
# Poissons Ratio (x) = 0.25994 0.26342
# Poissons Ratio (y) = 0.56532 0.61887
# Poissons Ratio (z) = 0.17099 0.18472
#
# Static dielectric constant tensor:
#      x y z
#    x 1.467140 0.000000 0.000000 
#    y 0.000000 1.424080 0.000000 
#    z 0.000000 0.000000 1.497550 
# 
# From -- ./inp_files/10200.got.cif
#   From: 2010.05.17/outbox.cif.g08.bks.cpg/sg71_6_cif.got.tgz:10200.got - 2010.06.03 16:22:01.
