data_PCOD9517478
_publ_section_title
;
Structure prediction by ZEFSAII (Michael W. Deem and Ramdas Pophale) SiO2 
 PCOD9517478
Probable space group: I M M M
;
_chemical_formula_sum "Si O2"
_cell_formula_units_Z 88
_cell_length_a 28.271623
_cell_length_b 7.867812
_cell_length_c 20.303396
_cell_angle_alpha 90.000000
_cell_angle_beta 90.000000
_cell_angle_gamma 90.000000
_cell_volume 4516.202430
_symmetry_space_group_name_H-M "I M M M"
_symmetry_group_IT_number 71
_symmetry_cell_setting 'orthorhombic'
loop_
_space_group_symop_operation_xyz
x,y,z
-x,-y,z
x,-y,-z
-x,y,-z
-x,-y,-z
x,y,-z
-x,y,z
x,-y,z
1/2+x,1/2+y,1/2+z
1/2-x,1/2-y,1/2+z
1/2+x,1/2-y,1/2-z
1/2-x,1/2+y,1/2-z
1/2-x,1/2-y,1/2-z
1/2+x,1/2+y,1/2-z
1/2-x,1/2+y,1/2+z
1/2+x,1/2-y,1/2+z
loop_
_atom_site_type_symbol
_atom_site_label
_atom_site_fract_x
_atom_site_fract_y
_atom_site_fract_z
Si Si1 0.945724 0.792032 0.313969
Si Si2 0.207260 0.300297 0.339254
Si Si3 0.124328 0.200563 0.573342
Si Si4 0.585553 0.295271 0.668727
Si Si5 0.500000 0.708250 0.424216
Si Si6 0.189692 0.297606 0.190985
O O1 0.911682 0.729164 0.371916
O O2 0.928868 0.734362 0.241869
O O3 0.000000 0.743653 0.324734
O O4 0.943856 0.000000 0.312958
O O5 0.197312 0.500000 0.340609
O O6 0.176518 0.219147 0.396576
O O7 0.191149 0.232319 0.267041
O O8 0.263328 0.272332 0.343411
O O9 0.120308 0.273606 0.500000
O O10 0.113967 0.000000 0.568792
O O11 0.583109 0.500000 0.669413
O O12 0.546826 0.236681 0.615716
O O13 0.639943 0.246260 0.658103
O O14 0.500000 0.500000 0.424092
O O15 0.500000 0.763395 0.500000
O O16 0.194729 0.500000 0.193917
#
# Coordination Sequence:
#
# PCOD9517478 Si02
#       6
#    16  16  16  16   8  16
#     4   9  16  28  49  77 105 136 179 220 256 306
#     4  10  20  34  53  77 104 137 176 220 268 318
#     4  10  20  33  51  76 109 145 177 218 267 311
#     4  10  17  30  54  79 105 140 177 216 261 311
#     4   9  18  32  53  83 112 138 173 216 263 314
#     4  10  20  33  53  80 106 132 172 226 272 313
#
# _framework density 19.485398
#
# number of rings (size 3 to 8) (size 9 to 14) (size 15 to 20)
#    0.000    2.273    2.727    1.091    0.000    2.182 
#    0.000    3.182    0.000    6.000    0.000    1.273 
#    0.000    0.000    0.000    0.000    0.000    0.000 
#
# Total GULP energy -245552.015989 kJ/mol
# GULP energy per Si atom -5580.727636 kJ/mol
# Density = 1.944105 g / cm^3
# Si number density = 19.485398 Si / 1000 Ang^3
#
#
#
# Elastic Constant Matrix: (Units=GPa)
#
#
# Indices 1 2 3 4 5 6 
#
# 1 134.9356 -10.1086 64.0382 0.0000 0.0000 0.0000
# 2 -10.1086 21.2781 3.8744 0.0000 0.0000 0.0000
# 3 64.0382 3.8744 125.0107 0.0000 0.0000 0.0000
# 4 0.0000 0.0000 0.0000 5.4461 0.0000 0.0000
# 5 0.0000 0.0000 0.0000 0.0000 22.7955 0.0000
# 6 0.0000 0.0000 0.0000 0.0000 0.0000 18.0944
#
#
#
# Elastic Compliance Matrix: (Units=1/GPa)
#
#
# Indices 1 2 3 4 5 6 
#
# 1 0.010502 0.006003 -0.005566 0.000000 0.000000 0.000000
# 2 0.006003 0.050694 -0.004646 0.000000 0.000000 0.000000
# 3 -0.005566 -0.004646 0.010994 0.000000 0.000000 0.000000
# 4 0.000000 0.000000 0.000000 0.183616 0.000000 0.000000
# 5 0.000000 0.000000 0.000000 0.000000 0.043868 0.000000
# 6 0.000000 0.000000 0.000000 0.000000 0.000000 0.055266
#
#
# Mechanical properties :
#
#
# Convention : Reuss Voigt Hill
#
# Bulk Modulus (GPa) = 15.68077 44.09249 29.88663
# Shear Modulus (GPa) = 12.99994 24.16189 18.58091
#
# Velocity S-wave (km/s) = 2.58575 3.52518 3.09136
# Velocity P-wave (km/s) = 4.12065 6.26473 5.30220
#
# Compressibility (1/GPa) = 0.06377238
#
# Stress axis : x y z
#
# Youngs Moduli (GPa) = 95.21905 19.72607 90.95462
#
# Poissons Ratio (x) = -0.11841 0.50624
# Poissons Ratio (y) = -0.57157 0.42259
# Poissons Ratio (z) = 0.52998 0.09165
#
# Static dielectric constant tensor:
#      x y z
#    x 1.669960 0.000000 0.000000 
#    y 0.000000 1.712520 0.000000 
#    z 0.000000 0.000000 1.679120 
# 
# From -- ./inp_files/10467.got.cif
#   From: 2010.05.17/outbox.cif.g08.bks.cpg/sg71_6_cif.got.tgz:10467.got - 2010.06.03 16:22:01.
