data_PCOD9517739
_publ_section_title
;
Structure prediction by ZEFSAII (Michael W. Deem and Ramdas Pophale) SiO2 
 PCOD9517739
Probable space group: I M M M
;
_chemical_formula_sum "Si O2"
_cell_formula_units_Z 88
_cell_length_a 21.345906
_cell_length_b 16.405915
_cell_length_c 14.098072
_cell_angle_alpha 90.000000
_cell_angle_beta 90.000000
_cell_angle_gamma 90.000000
_cell_volume 4937.132400
_symmetry_space_group_name_H-M "I M M M"
_symmetry_group_IT_number 71
_symmetry_cell_setting 'orthorhombic'
loop_
_space_group_symop_operation_xyz
x,y,z
-x,-y,z
x,-y,-z
-x,y,-z
-x,-y,-z
x,y,-z
-x,y,z
x,-y,z
1/2+x,1/2+y,1/2+z
1/2-x,1/2-y,1/2+z
1/2+x,1/2-y,1/2-z
1/2-x,1/2+y,1/2-z
1/2-x,1/2-y,1/2-z
1/2+x,1/2+y,1/2-z
1/2-x,1/2+y,1/2+z
1/2+x,1/2-y,1/2+z
loop_
_atom_site_type_symbol
_atom_site_label
_atom_site_fract_x
_atom_site_fract_y
_atom_site_fract_z
Si Si1 0.210149 0.368787 0.110310
Si Si2 0.824215 0.908938 0.261804
Si Si3 0.928011 0.900342 0.395155
Si Si4 0.752014 0.319267 0.608547
Si Si5 0.631534 0.098492 0.211787
Si Si6 0.500000 0.901363 0.888932
O O1 0.267452 0.413752 0.162628
O O2 0.235621 0.275989 0.113459
O O3 0.149792 0.382577 0.178206
O O4 0.200857 0.391325 0.000000
O O5 0.882307 0.868780 0.315231
O O6 0.800359 0.861535 0.171894
O O7 0.841586 0.000000 0.233018
O O8 0.907070 0.874311 0.500000
O O9 0.000000 0.877342 0.382169
O O10 0.925305 0.000000 0.394348
O O11 0.750656 0.345289 0.500000
O O12 0.817326 0.349044 0.653638
O O13 0.562966 0.119928 0.170235
O O14 0.640722 0.000000 0.198173
O O15 0.500000 0.000000 0.894568
O O16 0.500000 0.872024 0.000000
#
# Coordination Sequence:
#
# PCOD9517739 Si02
#       6
#    16  16  16  16  16   8
#     4  10  20  33  50  70  99 134 166 202 248 296
#     4  10  18  28  48  74  96 121 158 204 247 285
#     4   8  14  25  42  66  95 122 146 179 232 290
#     4  10  20  33  50  69  97 134 166 200 246 294
#     4  10  19  32  53  79 103 130 166 208 253 298
#     4   9  18  32  51  77 107 133 159 200 254 304
#
# _framework density 17.824112
#
# number of rings (size 3 to 8) (size 9 to 14) (size 15 to 20)
#    0.000    2.455    0.000    6.000    0.000    4.364 
#    0.000    0.455    8.000    2.182    0.000    2.545 
#    0.000    0.000    0.000    0.000    0.000    0.000 
#
# Total GULP energy -245168.118326 kJ/mol
# GULP energy per Si atom -5572.002689 kJ/mol
# Density = 1.778354 g / cm^3
# Si number density = 17.824112 Si / 1000 Ang^3
#
#
#
# Elastic Constant Matrix: (Units=GPa)
#
#
# Indices 1 2 3 4 5 6 
#
# 1 58.7392 14.6329 32.0185 0.0000 0.0000 0.0000
# 2 14.6329 42.4114 29.5068 0.0000 0.0000 0.0000
# 3 32.0185 29.5068 123.5717 0.0000 0.0000 0.0000
# 4 0.0000 0.0000 0.0000 8.3834 0.0000 0.0000
# 5 0.0000 0.0000 0.0000 0.0000 21.9777 0.0000
# 6 0.0000 0.0000 0.0000 0.0000 0.0000 -11.6016
#
#
#
# Elastic Compliance Matrix: (Units=1/GPa)
#
#
# Indices 1 2 3 4 5 6 
#
# 1 0.020382 -0.004027 -0.004320 0.000000 0.000000 0.000000
# 2 -0.004027 0.029072 -0.005898 0.000000 0.000000 0.000000
# 3 -0.004320 -0.005898 0.010620 0.000000 0.000000 0.000000
# 4 0.000000 0.000000 0.000000 0.119283 0.000000 0.000000
# 5 0.000000 0.000000 0.000000 0.000000 0.045501 0.000000
# 6 0.000000 0.000000 0.000000 0.000000 0.000000 -0.086195
#
#
# Mechanical properties :
#
#
# Convention : Reuss Voigt Hill
#
# Bulk Modulus (GPa) = 31.66168 41.89319 36.77743
# Shear Modulus (GPa) = 28.14038 13.65617 20.89828
#
# Velocity S-wave (km/s) = 3.97770 2.77097 3.42785
# Velocity P-wave (km/s) = 6.23683 5.81312 6.02870
#
# Compressibility (1/GPa) = 0.03158393
#
# Stress axis : x y z
#
# Youngs Moduli (GPa) = 49.06237 34.39778 94.16060
#
# Poissons Ratio (x) = 0.13852 0.40674
# Poissons Ratio (y) = 0.19758 0.55539
# Poissons Ratio (z) = 0.21193 0.20289
#
# Static dielectric constant tensor:
#      x y z
#    x 1.602640 0.000000 0.000000 
#    y 0.000000 1.638540 0.000000 
#    z 0.000000 0.000000 1.610440 
# 
# From -- ./inp_files/34373.got.cif
#   From: 2010.05.17/outbox.cif.g08.bks.cpg/sg71_18_cif.got.tgz:34373.got - 2010.06.03 16:22:01.
