data_PCOD9517185
_publ_section_title
;
Structure prediction by ZEFSAII (Michael W. Deem and Ramdas Pophale) SiO2 
 PCOD9517185
Probable space group: F D D D
;
_chemical_formula_sum "Si O2"
_cell_formula_units_Z 28
_cell_length_a 15.000000
_cell_length_b 12.000000
_cell_length_c 30.000000
_cell_angle_alpha 90.000000
_cell_angle_beta 90.000000
_cell_angle_gamma 90.000000
_cell_volume 5400.000000
_symmetry_space_group_name_H-M "F D D D"
_symmetry_group_IT_number 70
_space_group.IT_coordinate_system_code '2'
_symmetry_cell_setting 'orthorhombic'
loop_
_space_group_symop_operation_xyz
x,y,z
1/4-x,1/4-y,z
x,1/4-y,1/4-z
1/4-x,y,1/4-z
-x,-y,-z
3/4+x,3/4+y,-z
-x,3/4+y,3/4+z
3/4+x,-y,3/4+z
x,1/2+y,1/2+z
1/4-x,3/4-y,1/2+z
x,3/4-y,3/4-z
1/4-x,1/2+y,3/4-z
-x,1/2-y,1/2-z
3/4+x,1/4+y,1/2-z
-x,1/4+y,1/4+z
3/4+x,1/2-y,1/4+z
1/2+x,y,1/2+z
3/4-x,1/4-y,1/2+z
1/2+x,1/4-y,3/4-z
3/4-x,y,3/4-z
1/2-x,-y,1/2-z
1/4+x,3/4+y,1/2-z
1/2-x,3/4+y,1/4+z
1/4+x,-y,1/4+z
1/2+x,1/2+y,z
3/4-x,3/4-y,z
1/2+x,3/4-y,1/4-z
3/4-x,1/2+y,1/4-z
1/2-x,1/2-y,-z
1/4+x,1/4+y,-z
1/2-x,1/4+y,3/4+z
1/4+x,1/2-y,3/4+z
loop_
_atom_site_type_symbol
_atom_site_label
_atom_site_fract_x
_atom_site_fract_y
_atom_site_fract_z
Si Si1 0.424276 0.076584 0.692660
Si Si2 0.296510 0.027342 0.338334
Si Si3 0.912728 0.999552 0.752552
Si Si4 0.375000 0.375000 0.129334
O O1 0.495495 0.160026 0.669354
O O2 0.352727 0.161208 0.713765
O O3 0.487375 0.013543 0.728690
O O4 0.380850 0.985386 0.660293
O O5 0.375000 0.024391 0.375000
O O6 0.217558 0.113340 0.351567
O O7 0.348304 0.045019 0.292072
O O8 0.875000 0.875000 0.741986
#
# Coordination Sequence:
#
# PCOD9517185 Si02
#       4
#    32  32  32  16
#     4  11  25  42  68  99 134 173 217 269 336 395
#     4  11  23  44  68  98 128 172 228 276 318 379
#     4  10  22  42  71  98 126 172 223 275 317 393
#     4  12  26  38  68 102 135 174 209 278 338 384
#
# _framework density 5.1851849999999997
#
# number of rings (size 3 to 8) (size 9 to 14) (size 15 to 20)
#    0.000    1.143    2.857    4.286   14.000    1.143 
#    0.000    0.000    0.000    3.429    0.000    0.000 
#    0.000    0.000    0.000    0.000    0.000    0.000 
#
# Total GULP energy -156528.966683 kJ/mol
# GULP energy per Si atom -5590.320239 kJ/mol
# Density = 0.517338 g / cm^3
# Si number density = 5.185185 Si / 1000 Ang^3
#
#
#
# Elastic Constant Matrix: (Units=GPa)
#
#
# Indices 1 2 3 4 5 6 
#
# 1 108.4807 43.4964 23.9272 0.0000 0.0000 0.0000
# 2 43.4964 92.4917 36.6309 0.0000 0.0000 0.0000
# 3 23.9272 36.6309 72.1055 0.0000 0.0000 0.0000
# 4 0.0000 0.0000 0.0000 34.7952 0.0000 0.0000
# 5 0.0000 0.0000 0.0000 0.0000 40.4630 0.0000
# 6 0.0000 0.0000 0.0000 0.0000 0.0000 44.2246
#
#
#
# Elastic Compliance Matrix: (Units=1/GPa)
#
#
# Indices 1 2 3 4 5 6 
#
# 1 0.011462 -0.004862 -0.001333 0.000000 0.000000 0.000000
# 2 -0.004862 0.015598 -0.006310 0.000000 0.000000 0.000000
# 3 -0.001333 -0.006310 0.017517 0.000000 0.000000 0.000000
# 4 0.000000 0.000000 0.000000 0.028740 0.000000 0.000000
# 5 0.000000 0.000000 0.000000 0.000000 0.024714 0.000000
# 6 0.000000 0.000000 0.000000 0.000000 0.000000 0.022612
#
#
# Mechanical properties :
#
#
# Convention : Reuss Voigt Hill
#
# Bulk Modulus (GPa) = 51.11337 53.46521 52.28929
# Shear Modulus (GPa) = 32.85692 35.16478 34.01085
#
# Velocity S-wave (km/s) = 3.98449 4.12204 4.05385
# Velocity P-wave (km/s) = 6.77242 6.96339 6.86857
#
# Compressibility (1/GPa) = 0.01956435
#
# Stress axis : x y z
#
# Youngs Moduli (GPa) = 87.24589 64.11273 57.08791
#
# Poissons Ratio (x) = 0.31172 0.07612
# Poissons Ratio (y) = 0.42420 0.36025
# Poissons Ratio (z) = 0.11633 0.40458
#
# Static dielectric constant tensor:
#      x y z
#    x 1.723430 0.000000 0.000000 
#    y 0.000000 1.720840 0.000000 
#    z 0.000000 0.000000 1.883110 
# 
# From -- ./inp_files/21738.got.cif
#   From: 2010.05.17/outbox.ucp.g08.bks.cvg/sg70_11_cif.got.tgz:21738.got - 2010.06.11 16:26:41.
