data_PCOD9517481
_publ_section_title
;
Structure prediction by ZEFSAII (Michael W. Deem and Ramdas Pophale) SiO2 
 PCOD9517481
Probable space group: I M M M
;
_chemical_formula_sum "Si O2"
_cell_formula_units_Z 64
_cell_length_a 14.878177
_cell_length_b 9.106529
_cell_length_c 24.581185
_cell_angle_alpha 90.000000
_cell_angle_beta 90.000000
_cell_angle_gamma 90.000000
_cell_volume 3330.469121
_symmetry_space_group_name_H-M "I M M M"
_symmetry_group_IT_number 71
_symmetry_cell_setting 'orthorhombic'
loop_
_space_group_symop_operation_xyz
x,y,z
-x,-y,z
x,-y,-z
-x,y,-z
-x,-y,-z
x,y,-z
-x,y,z
x,-y,z
1/2+x,1/2+y,1/2+z
1/2-x,1/2-y,1/2+z
1/2+x,1/2-y,1/2-z
1/2-x,1/2+y,1/2-z
1/2-x,1/2-y,1/2-z
1/2+x,1/2+y,1/2-z
1/2-x,1/2+y,1/2+z
1/2+x,1/2-y,1/2+z
loop_
_atom_site_type_symbol
_atom_site_label
_atom_site_fract_x
_atom_site_fract_y
_atom_site_fract_z
Si Si1 0.266028 0.822361 0.308329
Si Si2 0.596555 0.670853 0.122303
Si Si3 0.194442 0.834530 0.000000
Si Si4 0.393337 0.325013 0.389313
Si Si5 0.100835 0.734740 0.500000
O O1 0.250000 0.750000 0.250000
O O2 0.183241 0.770435 0.347030
O O3 0.354530 0.761326 0.337853
O O4 0.268136 0.000000 0.305064
O O5 0.500000 0.739874 0.137406
O O6 0.593022 0.500000 0.137093
O O7 0.603758 0.680068 0.057088
O O8 0.156977 0.768577 0.056008
O O9 0.302406 0.843373 0.000000
O O10 0.156737 0.000000 0.000000
O O11 0.500000 0.307790 0.395490
O O12 0.374213 0.500000 0.382612
O O13 0.000000 0.663796 0.500000
#
# Coordination Sequence:
#
# PCOD9517481 Si02
#       5
#    16  16   8  16   8
#     4  11  23  39  60  85 116 152 197 247 295 346
#     4   9  18  33  55  82 111 145 183 225 281 350
#     4  10  19  34  57  85 119 154 193 236 291 362
#     4  10  21  39  62  86 116 158 202 243 292 353
#     4  10  17  30  55  86 116 143 179 230 291 354
#
# _framework density 19.216512999999999
#
# number of rings (size 3 to 8) (size 9 to 14) (size 15 to 20)
#    0.000    2.000    2.500    1.500    0.000    4.750 
#    0.000    3.125    0.000    3.750    0.000    0.000 
#    0.000    0.000    0.000    0.000    0.000    0.000 
#
# Total GULP energy -178193.247219 kJ/mol
# GULP energy per Si atom -5568.538976 kJ/mol
# Density = 1.917278 g / cm^3
# Si number density = 19.216513 Si / 1000 Ang^3
#
#
#
# Elastic Constant Matrix: (Units=GPa)
#
#
# Indices 1 2 3 4 5 6 
#
# 1 119.9958 32.0826 53.1165 0.0000 0.0000 0.0000
# 2 32.0826 47.5059 29.5385 0.0000 0.0000 0.0000
# 3 53.1165 29.5385 121.4902 0.0000 0.0000 0.0000
# 4 0.0000 0.0000 0.0000 10.5714 0.0000 0.0000
# 5 0.0000 0.0000 0.0000 0.0000 19.6208 0.0000
# 6 0.0000 0.0000 0.0000 0.0000 0.0000 21.4048
#
#
#
# Elastic Compliance Matrix: (Units=1/GPa)
#
#
# Indices 1 2 3 4 5 6 
#
# 1 0.011408 -0.005423 -0.003669 0.000000 0.000000 0.000000
# 2 -0.005423 0.027377 -0.004285 0.000000 0.000000 0.000000
# 3 -0.003669 -0.004285 0.010877 0.000000 0.000000 0.000000
# 4 0.000000 0.000000 0.000000 0.094595 0.000000 0.000000
# 5 0.000000 0.000000 0.000000 0.000000 0.050966 0.000000
# 6 0.000000 0.000000 0.000000 0.000000 0.000000 0.046718
#
#
# Mechanical properties :
#
#
# Convention : Reuss Voigt Hill
#
# Bulk Modulus (GPa) = 43.65420 57.60744 50.63082
# Shear Modulus (GPa) = 18.09425 21.93636 20.01530
#
# Velocity S-wave (km/s) = 3.07188 3.38233 3.23083
# Velocity P-wave (km/s) = 5.94544 6.73028 6.35000
#
# Compressibility (1/GPa) = 0.02290730
#
# Stress axis : x y z
#
# Youngs Moduli (GPa) = 87.66124 36.52738 91.93546
#
# Poissons Ratio (x) = 0.19807 0.33732
# Poissons Ratio (y) = 0.47535 0.39398
# Poissons Ratio (z) = 0.32163 0.15654
#
# Static dielectric constant tensor:
#      x y z
#    x 1.708550 0.000000 0.000000 
#    y 0.000000 1.664430 0.000000 
#    z 0.000000 0.000000 1.666440 
# 
# From -- ./inp_files/5530.got.cif
#   From: 2010.05.17/outbox.cif.g08.bks.cpg/sg71_3_cif.got.tgz:5530.got - 2010.06.03 16:22:01.
