data_PCOD9517049
_publ_section_title
;
Structure prediction by ZEFSAII (Michael W. Deem and Ramdas Pophale) SiO2 
 PCOD9517049
Probable space group: F D D D
;
_chemical_formula_sum "Si O2"
_cell_formula_units_Z 208
_cell_length_a 21.009111
_cell_length_b 18.949029
_cell_length_c 25.892259
_cell_angle_alpha 90.000000
_cell_angle_beta 90.000000
_cell_angle_gamma 90.000000
_cell_volume 10307.766659
_symmetry_space_group_name_H-M "F D D D"
_symmetry_group_IT_number 70
_space_group.IT_coordinate_system_code '2'
_symmetry_cell_setting 'orthorhombic'
loop_
_space_group_symop_operation_xyz
x,y,z
1/4-x,1/4-y,z
x,1/4-y,1/4-z
1/4-x,y,1/4-z
-x,-y,-z
3/4+x,3/4+y,-z
-x,3/4+y,3/4+z
3/4+x,-y,3/4+z
x,1/2+y,1/2+z
1/4-x,3/4-y,1/2+z
x,3/4-y,3/4-z
1/4-x,1/2+y,3/4-z
-x,1/2-y,1/2-z
3/4+x,1/4+y,1/2-z
-x,1/4+y,1/4+z
3/4+x,1/2-y,1/4+z
1/2+x,y,1/2+z
3/4-x,1/4-y,1/2+z
1/2+x,1/4-y,3/4-z
3/4-x,y,3/4-z
1/2-x,-y,1/2-z
1/4+x,3/4+y,1/2-z
1/2-x,3/4+y,1/4+z
1/4+x,-y,1/4+z
1/2+x,1/2+y,z
3/4-x,3/4-y,z
1/2+x,3/4-y,1/4-z
3/4-x,1/2+y,1/4-z
1/2-x,1/2-y,-z
1/4+x,1/4+y,-z
1/2-x,1/4+y,3/4+z
1/4+x,1/2-y,3/4+z
loop_
_atom_site_type_symbol
_atom_site_label
_atom_site_fract_x
_atom_site_fract_y
_atom_site_fract_z
Si Si1 0.625000 0.625000 0.197229
Si Si2 0.184108 0.073052 0.881109
Si Si3 0.455527 0.247135 0.842954
Si Si4 0.099004 0.798161 0.851592
Si Si5 0.485757 0.957785 0.243036
Si Si6 0.848064 0.644994 0.993503
Si Si7 0.279384 0.592544 0.941069
O O1 0.580799 0.680018 0.166542
O O2 0.575891 0.578592 0.230837
O O3 0.125000 0.125000 0.894869
O O4 0.226538 0.109455 0.836761
O O5 0.148354 0.000276 0.867636
O O6 0.226222 0.055134 0.931740
O O7 0.530373 0.262289 0.847598
O O8 0.439611 0.196855 0.795077
O O9 0.441066 0.206924 0.895970
O O10 0.092901 0.875000 0.875000
O O11 0.120200 0.809416 0.792494
O O12 0.548142 0.914167 0.259852
O O13 0.493758 0.036611 0.265691
O O14 0.910806 0.616441 0.965219
#
# Coordination Sequence:
#
# PCOD9517049 Si02
#       7
#    16  32  32  32  32  32  32
#     4  12  24  33  58 100 140 190 210 266 341 446
#     4  12  24  44  68  94 137 185 235 288 355 417
#     4  12  24  37  61 100 145 178 219 275 351 444
#     4  12  25  44  68  95 136 187 233 284 354 422
#     4  12  24  39  64  96 141 181 227 275 341 430
#     4  12  24  41  63  99 137 179 226 281 348 420
#     4  12  26  41  65 100 133 184 232 283 343 422
#
# _framework density 20.178958999999999
#
# number of rings (size 3 to 8) (size 9 to 14) (size 15 to 20)
#    0.000    0.000    8.462    1.846    0.000    0.615 
#    0.000    0.769    0.000    0.000    0.000    1.077 
#    0.000    0.000    0.000    0.000    0.000    0.000 
#
# Total GULP energy -290840.404631 kJ/mol
# GULP energy per Si atom -5593.084704 kJ/mol
# Density = 2.013303 g / cm^3
# Si number density = 20.178959 Si / 1000 Ang^3
#
#
#
# Elastic Constant Matrix: (Units=GPa)
#
#
# Indices 1 2 3 4 5 6 
#
# 1 129.3263 60.0145 41.4337 0.0000 0.0000 0.0000
# 2 60.0145 64.2563 34.3525 0.0000 0.0000 0.0000
# 3 41.4337 34.3525 66.9088 0.0000 0.0000 0.0000
# 4 0.0000 0.0000 0.0000 25.0334 0.0000 0.0000
# 5 0.0000 0.0000 0.0000 0.0000 24.8368 0.0000
# 6 0.0000 0.0000 0.0000 0.0000 0.0000 43.7872
#
#
#
# Elastic Compliance Matrix: (Units=1/GPa)
#
#
# Indices 1 2 3 4 5 6 
#
# 1 0.013991 -0.011627 -0.002695 0.000000 0.000000 0.000000
# 2 -0.011627 0.031113 -0.008774 0.000000 0.000000 0.000000
# 3 -0.002695 -0.008774 0.021119 0.000000 0.000000 0.000000
# 4 0.000000 0.000000 0.000000 0.039947 0.000000 0.000000
# 5 0.000000 0.000000 0.000000 0.000000 0.040263 0.000000
# 6 0.000000 0.000000 0.000000 0.000000 0.000000 0.022838
#
#
# Mechanical properties :
#
#
# Convention : Reuss Voigt Hill
#
# Bulk Modulus (GPa) = 49.91988 59.12140 54.52064
# Shear Modulus (GPa) = 22.50843 27.04419 24.77631
#
# Velocity S-wave (km/s) = 3.34344 3.66487 3.50784
# Velocity P-wave (km/s) = 6.30056 6.87535 6.59423
#
# Compressibility (1/GPa) = 0.02003210
#
# Stress axis : x y z
#
# Youngs Moduli (GPa) = 71.47304 32.14099 47.35054
#
# Poissons Ratio (x) = 0.37371 0.12759
# Poissons Ratio (y) = 0.83103 0.41545
# Poissons Ratio (z) = 0.19259 0.28200
#
# Static dielectric constant tensor:
#      x y z
#    x 1.745310 0.000000 0.000000 
#    y 0.000000 1.726690 0.000000 
#    z 0.000000 0.000000 1.770160 
# 
# From -- ./inp_files/60433.got.cif
#   From: 2010.05.17/outbox.cif.g08.bks.cpg/sg70_31_cif.got.tgz:60433.got - 2010.06.03 15:57:51.
