data_PCOD9517581
_publ_section_title
;
Structure prediction by ZEFSAII (Michael W. Deem and Ramdas Pophale) SiO2 
 PCOD9517581
Probable space group: I M M M
;
_chemical_formula_sum "Si O2"
_cell_formula_units_Z 88
_cell_length_a 19.571459
_cell_length_b 29.470763
_cell_length_c 7.589181
_cell_angle_alpha 90.000000
_cell_angle_beta 90.000000
_cell_angle_gamma 90.000000
_cell_volume 4377.332060
_symmetry_space_group_name_H-M "I M M M"
_symmetry_group_IT_number 71
_symmetry_cell_setting 'orthorhombic'
loop_
_space_group_symop_operation_xyz
x,y,z
-x,-y,z
x,-y,-z
-x,y,-z
-x,-y,-z
x,y,-z
-x,y,z
x,-y,z
1/2+x,1/2+y,1/2+z
1/2-x,1/2-y,1/2+z
1/2+x,1/2-y,1/2-z
1/2-x,1/2+y,1/2-z
1/2-x,1/2-y,1/2-z
1/2+x,1/2+y,1/2-z
1/2-x,1/2+y,1/2+z
1/2+x,1/2-y,1/2+z
loop_
_atom_site_type_symbol
_atom_site_label
_atom_site_fract_x
_atom_site_fract_y
_atom_site_fract_z
Si Si1 0.000000 0.650214 0.284482
Si Si2 0.417691 0.500000 0.801071
Si Si3 0.500000 0.743150 0.210524
Si Si4 0.147036 0.647933 0.701598
Si Si5 0.852177 0.248406 0.204239
Si Si6 0.793719 0.843052 0.782536
Si Si7 0.922752 0.101190 0.205425
O O1 0.073879 0.632800 0.221008
O O2 0.000000 0.647656 0.500000
O O3 0.000000 0.703557 0.239422
O O4 0.500000 0.500000 0.805526
O O5 0.401493 0.548203 0.715575
O O6 0.391276 0.500000 0.000000
O O7 0.571971 0.725933 0.281557
O O8 0.500000 0.738896 0.000000
O O9 0.147316 0.631850 0.500000
O O10 0.146079 0.703342 0.699660
O O11 0.221199 0.637083 0.778982
O O12 0.801593 0.209587 0.270720
O O13 0.839173 0.258042 0.000000
O O14 0.860263 0.869939 0.719483
O O15 0.793002 0.843306 0.000000
O O16 0.000000 0.106697 0.281224
O O17 0.927813 0.113291 0.000000
#
# Coordination Sequence:
#
# PCOD9517581 Si02
#       7
#     8   8   8  16  16  16  16
#     4   7  12  23  41  55  69 100 141 178 206 247
#     4   9  17  31  49  67  89 112 137 172 218 267
#     4   9  17  29  41  55  75 106 145 184 221 263
#     4   9  16  29  43  58  83 116 152 183 221 263
#     4  10  18  27  41  60  82 113 149 188 226 258
#     4   9  18  28  42  63  87 114 145 185 220 257
#     4   9  17  30  48  66  85 114 150 180 213 261
#
# _framework density 20.103570999999999
#
# number of rings (size 3 to 8) (size 9 to 14) (size 15 to 20)
#    0.000    3.000    0.000    2.727    1.273    1.091 
#    0.000    3.636    0.000    0.000    0.000    0.000 
#    0.000    0.727    0.000    9.273    0.000    0.909 
#
# Total GULP energy -245087.186417 kJ/mol
# GULP energy per Si atom -5570.163328 kJ/mol
# Density = 2.005781 g / cm^3
# Si number density = 20.103571 Si / 1000 Ang^3
#
#
#
# Elastic Constant Matrix: (Units=GPa)
#
#
# Indices 1 2 3 4 5 6 
#
# 1 157.6326 25.3213 1.8509 0.0000 0.0000 0.0000
# 2 25.3213 39.6475 -4.9234 0.0000 0.0000 0.0000
# 3 1.8509 -4.9234 54.6763 0.0000 0.0000 0.0000
# 4 0.0000 0.0000 0.0000 5.5952 0.0000 0.0000
# 5 0.0000 0.0000 0.0000 0.0000 6.2988 0.0000
# 6 0.0000 0.0000 0.0000 0.0000 0.0000 14.2158
#
#
#
# Elastic Compliance Matrix: (Units=1/GPa)
#
#
# Indices 1 2 3 4 5 6 
#
# 1 0.007092 -0.004611 -0.000655 0.000000 0.000000 0.000000
# 2 -0.004611 0.028505 0.002723 0.000000 0.000000 0.000000
# 3 -0.000655 0.002723 0.018557 0.000000 0.000000 0.000000
# 4 0.000000 0.000000 0.000000 0.178724 0.000000 0.000000
# 5 0.000000 0.000000 0.000000 0.000000 0.158761 0.000000
# 6 0.000000 0.000000 0.000000 0.000000 0.000000 0.070344
#
#
# Mechanical properties :
#
#
# Convention : Reuss Voigt Hill
#
# Bulk Modulus (GPa) = 20.38004 32.93936 26.65970
# Shear Modulus (GPa) = 10.34284 20.53579 15.43932
#
# Velocity S-wave (km/s) = 2.27067 3.19956 2.77427
# Velocity P-wave (km/s) = 4.12724 5.48361 4.85305
#
# Compressibility (1/GPa) = 0.04906761
#
# Stress axis : x y z
#
# Youngs Moduli (GPa) = 140.99931 35.08133 53.88854
#
# Poissons Ratio (x) = 0.16176 0.03531
# Poissons Ratio (y) = 0.65013 -0.14673
# Poissons Ratio (z) = 0.09239 -0.09552
#
# Static dielectric constant tensor:
#      x y z
#    x 1.833540 0.000000 0.000000 
#    y 0.000000 1.678190 0.000000 
#    z 0.000000 0.000000 1.746390 
# 
# From -- ./inp_files/8907.got.cif
#   From: 2010.05.17/outbox.cif.g08.bks.cpg/sg71_5_cif.got.tgz:8907.got - 2010.06.03 16:22:01.
