data_PCOD9517005
_publ_section_title
;
Structure prediction by ZEFSAII (Michael W. Deem and Ramdas Pophale) SiO2 
 PCOD9517005
Probable space group: F D D D
;
_chemical_formula_sum "Si O2"
_cell_formula_units_Z 192
_cell_length_a 28.336353
_cell_length_b 12.199780
_cell_length_c 26.125515
_cell_angle_alpha 90.000000
_cell_angle_beta 90.000000
_cell_angle_gamma 90.000000
_cell_volume 9031.519281
_symmetry_space_group_name_H-M "F D D D"
_symmetry_group_IT_number 70
_space_group.IT_coordinate_system_code '2'
_symmetry_cell_setting 'orthorhombic'
loop_
_space_group_symop_operation_xyz
x,y,z
1/4-x,1/4-y,z
x,1/4-y,1/4-z
1/4-x,y,1/4-z
-x,-y,-z
3/4+x,3/4+y,-z
-x,3/4+y,3/4+z
3/4+x,-y,3/4+z
x,1/2+y,1/2+z
1/4-x,3/4-y,1/2+z
x,3/4-y,3/4-z
1/4-x,1/2+y,3/4-z
-x,1/2-y,1/2-z
3/4+x,1/4+y,1/2-z
-x,1/4+y,1/4+z
3/4+x,1/2-y,1/4+z
1/2+x,y,1/2+z
3/4-x,1/4-y,1/2+z
1/2+x,1/4-y,3/4-z
3/4-x,y,3/4-z
1/2-x,-y,1/2-z
1/4+x,3/4+y,1/2-z
1/2-x,3/4+y,1/4+z
1/4+x,-y,1/4+z
1/2+x,1/2+y,z
3/4-x,3/4-y,z
1/2+x,3/4-y,1/4-z
3/4-x,1/2+y,1/4-z
1/2-x,1/2-y,-z
1/4+x,1/4+y,-z
1/2-x,1/4+y,3/4+z
1/4+x,1/2-y,3/4+z
loop_
_atom_site_type_symbol
_atom_site_label
_atom_site_fract_x
_atom_site_fract_y
_atom_site_fract_z
Si Si1 0.947854 0.484411 0.475414
Si Si2 0.971071 0.282675 0.912038
Si Si3 0.125000 0.125000 0.540777
Si Si4 0.041603 0.998696 0.247057
Si Si5 0.569585 0.375000 0.875000
Si Si6 0.125961 0.844826 0.270728
Si Si7 0.515819 0.787788 0.121188
O O1 0.933899 0.367681 0.498380
O O2 0.914209 0.584685 0.488667
O O3 0.951874 0.479576 0.414081
O O4 0.000000 0.500000 0.500000
O O5 0.993274 0.375000 0.875000
O O6 0.919363 0.331036 0.926168
O O7 0.976377 0.166243 0.883328
O O8 0.996922 0.261620 0.965916
O O9 0.134748 0.227958 0.504105
O O10 0.078005 0.910982 0.267271
O O11 0.027307 0.980885 0.188078
O O12 0.601770 0.404205 0.826827
O O13 0.534921 0.269652 0.867790
#
# Coordination Sequence:
#
# PCOD9517005 Si02
#       7
#    32  32  16  32  16  32  32
#     4  12  20  47  75 105 139 190 252 321 382 442
#     4  12  27  46  72 103 149 201 248 301 374 460
#     4  12  25  50  70 100 148 196 246 303 380 462
#     4  12  26  45  71 114 146 189 252 318 378 463
#     4  12  24  48  78 113 144 207 260 324 384 450
#     4  12  27  44  73 108 153 191 247 316 391 458
#     4  12  23  45  82 101 141 198 258 310 378 449
#
# _framework density 21.258880999999999
#
# number of rings (size 3 to 8) (size 9 to 14) (size 15 to 20)
#    0.000    0.000    6.667    2.750    1.167    4.667 
#    3.000    1.667    0.000    0.000    0.000    0.000 
#    0.000    0.000    0.000    0.000    0.000    0.000 
#
# Total GULP energy -268223.082814 kJ/mol
# GULP energy per Si atom -5587.980892 kJ/mol
# Density = 2.121049 g / cm^3
# Si number density = 21.258881 Si / 1000 Ang^3
#
#
#
# Elastic Constant Matrix: (Units=GPa)
#
#
# Indices 1 2 3 4 5 6 
#
# 1 62.6825 43.5129 17.2728 0.0000 0.0000 0.0000
# 2 43.5129 193.0743 34.7351 0.0000 0.0000 0.0000
# 3 17.2728 34.7351 119.0188 0.0000 0.0000 0.0000
# 4 0.0000 0.0000 0.0000 32.4782 0.0000 0.0000
# 5 0.0000 0.0000 0.0000 0.0000 22.3243 0.0000
# 6 0.0000 0.0000 0.0000 0.0000 0.0000 128.3235
#
#
#
# Elastic Compliance Matrix: (Units=1/GPa)
#
#
# Indices 1 2 3 4 5 6 
#
# 1 0.019199 -0.004038 -0.001608 0.000000 0.000000 0.000000
# 2 -0.004038 0.006315 -0.001257 0.000000 0.000000 0.000000
# 3 -0.001608 -0.001257 0.009002 0.000000 0.000000 0.000000
# 4 0.000000 0.000000 0.000000 0.030790 0.000000 0.000000
# 5 0.000000 0.000000 0.000000 0.000000 0.044794 0.000000
# 6 0.000000 0.000000 0.000000 0.000000 0.000000 0.007793
#
#
# Mechanical properties :
#
#
# Convention : Reuss Voigt Hill
#
# Bulk Modulus (GPa) = 48.28225 62.86858 55.57542
# Shear Modulus (GPa) = 36.07411 55.24219 45.65815
#
# Velocity S-wave (km/s) = 4.12381 5.10312 4.63938
# Velocity P-wave (km/s) = 6.74057 8.02244 7.40928
#
# Compressibility (1/GPa) = 0.02071154
#
# Stress axis : x y z
#
# Youngs Moduli (GPa) = 52.08506 158.34096 111.08280
#
# Poissons Ratio (x) = 0.63933 0.17862
# Poissons Ratio (y) = 0.21030 0.13965
# Poissons Ratio (z) = 0.08375 0.19906
#
# Static dielectric constant tensor:
#      x y z
#    x 1.715560 0.000000 0.000000 
#    y 0.000000 1.780870 0.000000 
#    z 0.000000 0.000000 1.776080 
# 
# From -- ./inp_files/62229.got.cif
#   From: 2010.05.17/outbox.cif.g08.bks.cpg/sg70_32_cif.got.tgz:62229.got - 2010.06.03 15:57:51.
