data_PCOD9517334
_publ_section_title
;
Structure prediction by ZEFSAII (Michael W. Deem and Ramdas Pophale) SiO2 
 PCOD9517334
Probable space group: I M M M
;
_chemical_formula_sum "Si O2"
_cell_formula_units_Z 120
_cell_length_a 20.525530
_cell_length_b 25.882562
_cell_length_c 14.604979
_cell_angle_alpha 90.000000
_cell_angle_beta 90.000000
_cell_angle_gamma 90.000000
_cell_volume 7758.943331
_symmetry_space_group_name_H-M "I M M M"
_symmetry_group_IT_number 71
_symmetry_cell_setting 'orthorhombic'
loop_
_space_group_symop_operation_xyz
x,y,z
-x,-y,z
x,-y,-z
-x,y,-z
-x,-y,-z
x,y,-z
-x,y,z
x,-y,z
1/2+x,1/2+y,1/2+z
1/2-x,1/2-y,1/2+z
1/2+x,1/2-y,1/2-z
1/2-x,1/2+y,1/2-z
1/2-x,1/2-y,1/2-z
1/2+x,1/2+y,1/2-z
1/2-x,1/2+y,1/2+z
1/2+x,1/2-y,1/2+z
loop_
_atom_site_type_symbol
_atom_site_label
_atom_site_fract_x
_atom_site_fract_y
_atom_site_fract_z
Si Si1 0.318596 0.250223 0.104942
Si Si2 0.925776 0.437074 0.000000
Si Si3 0.343428 0.059794 0.677269
Si Si4 0.831911 0.281394 0.100237
Si Si5 0.814197 0.653277 0.279119
Si Si6 0.422754 0.682438 0.396604
Si Si7 0.693859 0.440907 0.108214
Si Si8 0.837530 0.848158 0.733519
O O1 0.239670 0.255336 0.106419
O O2 0.334979 0.193252 0.142483
O O3 0.342603 0.295407 0.173422
O O4 0.339580 0.258269 0.000000
O O5 0.889780 0.422513 0.094083
O O6 0.924837 0.500000 0.000000
O O7 0.000000 0.418919 0.000000
O O8 0.343334 0.096276 0.766506
O O9 0.270033 0.062207 0.636311
O O10 0.357889 0.000000 0.698489
O O11 0.834503 0.319933 0.183757
O O12 0.886870 0.237926 0.106885
O O13 0.835696 0.306605 0.000000
O O14 0.735393 0.650824 0.276445
O O15 0.410754 0.661966 0.500000
O O16 0.500000 0.687199 0.384212
O O17 0.389262 0.651058 0.315053
O O18 0.672545 0.500000 0.126322
O O19 0.658135 0.397087 0.166365
O O20 0.688442 0.430999 0.000000
#
# Coordination Sequence:
#
# PCOD9517334 Si02
#       8
#    16   8  16  16  16  16  16  16
#     4  10  17  27  45  69  91 115 148 189 231 270
#     4   9  16  28  44  62  92 132 161 179 212 270
#     4   9  17  27  41  63  94 126 157 190 226 270
#     4   9  16  27  42  65  93 115 146 185 222 273
#     4  10  17  26  45  66  91 120 150 192 234 268
#     4  10  19  31  47  66  94 127 152 181 225 280
#     4   9  16  27  46  72  97 119 147 192 241 275
#     4  10  17  29  46  70  92 119 154 185 227 281
#
# _framework density 15.466023
#
# number of rings (size 3 to 8) (size 9 to 14) (size 15 to 20)
#    0.000    2.467    3.333    1.200    0.933    1.600 
#    0.000    0.667    0.000    2.800    0.000    5.600 
#    0.000    0.000    0.000    3.333    0.000    3.333 
#
# Total GULP energy -334102.565101 kJ/mol
# GULP energy per Si atom -5568.376085 kJ/mol
# Density = 1.543082 g / cm^3
# Si number density = 15.466023 Si / 1000 Ang^3
#
#
#
# Elastic Constant Matrix: (Units=GPa)
#
#
# Indices 1 2 3 4 5 6 
#
# 1 42.6283 24.3543 37.7286 0.0000 0.0000 0.0000
# 2 24.3543 70.6072 38.9576 0.0000 0.0000 0.0000
# 3 37.7286 38.9576 74.2931 0.0000 0.0000 0.0000
# 4 0.0000 0.0000 0.0000 27.7002 0.0000 0.0000
# 5 0.0000 0.0000 0.0000 0.0000 19.8228 0.0000
# 6 0.0000 0.0000 0.0000 0.0000 0.0000 8.0146
#
#
#
# Elastic Compliance Matrix: (Units=1/GPa)
#
#
# Indices 1 2 3 4 5 6 
#
# 1 0.043380 -0.003951 -0.019958 0.000000 0.000000 0.000000
# 2 -0.003951 0.020289 -0.008632 0.000000 0.000000 0.000000
# 3 -0.019958 -0.008632 0.028122 0.000000 0.000000 0.000000
# 4 0.000000 0.000000 0.000000 0.036101 0.000000 0.000000
# 5 0.000000 0.000000 0.000000 0.000000 0.050447 0.000000
# 6 0.000000 0.000000 0.000000 0.000000 0.000000 0.124772
#
#
# Mechanical properties :
#
#
# Convention : Reuss Voigt Hill
#
# Bulk Modulus (GPa) = 37.44219 43.28997 40.36608
# Shear Modulus (GPa) = 13.25921 16.87340 15.06630
#
# Velocity S-wave (km/s) = 2.93117 3.30661 3.12453
# Velocity P-wave (km/s) = 5.97641 6.52912 6.25887
#
# Compressibility (1/GPa) = 0.02670784
#
# Stress axis : x y z
#
# Youngs Moduli (GPa) = 23.05215 49.28875 35.55911
#
# Poissons Ratio (x) = 0.19474 0.70969
# Poissons Ratio (y) = 0.09108 0.30696
# Poissons Ratio (z) = 0.46007 0.42548
#
# Static dielectric constant tensor:
#      x y z
#    x 1.496880 0.000000 0.000000 
#    y 0.000000 1.557460 0.000000 
#    z 0.000000 0.000000 1.523360 
# 
# From -- ./inp_files/38569.got.cif
#   From: 2010.05.17/outbox.cif.g08.bks.cpg/sg71_20_cif.got.tgz:38569.got - 2010.06.03 16:22:01.
