data_PCOD9517347
_publ_section_title
;
Structure prediction by ZEFSAII (Michael W. Deem and Ramdas Pophale) SiO2 
 PCOD9517347
Probable space group: I M M M
;
_chemical_formula_sum "Si O2"
_cell_formula_units_Z 88
_cell_length_a 17.455953
_cell_length_b 19.004956
_cell_length_c 13.949395
_cell_angle_alpha 90.000000
_cell_angle_beta 90.000000
_cell_angle_gamma 90.000000
_cell_volume 4627.706472
_symmetry_space_group_name_H-M "I M M M"
_symmetry_group_IT_number 71
_symmetry_cell_setting 'orthorhombic'
loop_
_space_group_symop_operation_xyz
x,y,z
-x,-y,z
x,-y,-z
-x,y,-z
-x,-y,-z
x,y,-z
-x,y,z
x,-y,z
1/2+x,1/2+y,1/2+z
1/2-x,1/2-y,1/2+z
1/2+x,1/2-y,1/2-z
1/2-x,1/2+y,1/2-z
1/2-x,1/2-y,1/2-z
1/2+x,1/2+y,1/2-z
1/2-x,1/2+y,1/2+z
1/2+x,1/2-y,1/2+z
loop_
_atom_site_type_symbol
_atom_site_label
_atom_site_fract_x
_atom_site_fract_y
_atom_site_fract_z
Si Si1 0.500000 0.416836 0.607492
Si Si2 0.242951 0.718331 0.608688
Si Si3 0.864552 0.137396 0.760995
Si Si4 0.747528 0.610225 0.108880
Si Si5 0.082642 0.280412 0.302777
Si Si6 0.584933 0.131140 0.610850
O O1 0.500000 0.500000 0.598388
O O2 0.500000 0.384887 0.500000
O O3 0.424600 0.396586 0.667174
O O4 0.258210 0.697623 0.500000
O O5 0.302472 0.681562 0.678382
O O6 0.248832 0.803502 0.613734
O O7 0.157646 0.696178 0.640495
O O8 0.814929 0.089940 0.688104
O O9 0.910734 0.196222 0.701380
O O10 0.836095 0.588627 0.126150
O O11 0.726732 0.590706 0.000000
O O12 0.085506 0.309984 0.193799
O O13 0.000000 0.301767 0.343002
O O14 0.590428 0.157744 0.500000
O O15 0.500000 0.096771 0.617914
#
# Coordination Sequence:
#
# PCOD9517347 Si02
#       6
#     8  16  16  16  16  16
#     4  11  26  42  55  71  89 117 172 236 268 283
#     4  10  18  27  41  65  95 128 161 194 234 294
#     4  11  18  33  49  66  90 127 167 204 254 294
#     4   9  16  27  44  70 101 127 158 192 229 293
#     4  10  17  27  41  66  97 128 158 188 227 294
#     4   9  15  22  36  62  99 131 155 181 216 267
#
# _framework density 19.015899000000001
#
# number of rings (size 3 to 8) (size 9 to 14) (size 15 to 20)
#    0.000    2.091    4.545    1.636    0.000    1.091 
#    0.000    0.455    0.000    1.091    0.000    0.000 
#    0.000    2.909    0.000   14.545    0.000    0.000 
#
# Total GULP energy -245073.650243 kJ/mol
# GULP energy per Si atom -5569.855687 kJ/mol
# Density = 1.897262 g / cm^3
# Si number density = 19.015899 Si / 1000 Ang^3
#
#
#
# Elastic Constant Matrix: (Units=GPa)
#
#
# Indices 1 2 3 4 5 6 
#
# 1 154.9416 7.6920 46.8731 0.0000 0.0000 0.0000
# 2 7.6920 24.7242 5.0341 0.0000 0.0000 0.0000
# 3 46.8731 5.0341 84.2218 0.0000 0.0000 0.0000
# 4 0.0000 0.0000 0.0000 2.0358 0.0000 0.0000
# 5 0.0000 0.0000 0.0000 0.0000 22.5713 0.0000
# 6 0.0000 0.0000 0.0000 0.0000 0.0000 -7.8810
#
#
#
# Elastic Compliance Matrix: (Units=1/GPa)
#
#
# Indices 1 2 3 4 5 6 
#
# 1 0.007820 -0.001566 -0.004259 0.000000 0.000000 0.000000
# 2 -0.001566 0.041258 -0.001595 0.000000 0.000000 0.000000
# 3 -0.004259 -0.001595 0.014339 0.000000 0.000000 0.000000
# 4 0.000000 0.000000 0.000000 0.491196 0.000000 0.000000
# 5 0.000000 0.000000 0.000000 0.000000 0.044304 0.000000
# 6 0.000000 0.000000 0.000000 0.000000 0.000000 -0.126887
#
#
# Mechanical properties :
#
#
# Convention : Reuss Voigt Hill
#
# Bulk Modulus (GPa) = 20.58508 42.56511 31.57510
# Shear Modulus (GPa) = 9.93915 16.96444 13.45179
#
# Velocity S-wave (km/s) = 2.28869 2.99008 2.66258
# Velocity P-wave (km/s) = 4.22289 5.86117 5.10814
#
# Compressibility (1/GPa) = 0.04857886
#
# Stress axis : x y z
#
# Youngs Moduli (GPa) = 127.87548 24.23765 69.74067
#
# Poissons Ratio (x) = 0.03795 0.29700
# Poissons Ratio (y) = 0.20023 0.11121
# Poissons Ratio (z) = 0.54457 0.03865
#
# Static dielectric constant tensor:
#      x y z
#    x 1.718940 0.000000 0.000000 
#    y 0.000000 1.649430 0.000000 
#    z 0.000000 0.000000 1.683760 
# 
# From -- ./inp_files/34715.got.cif
#   From: 2010.05.17/outbox.cif.g08.bks.cpg/sg71_18_cif.got.tgz:34715.got - 2010.06.03 16:22:01.
