data_PCOD9517995
_publ_section_title
;
Structure prediction by ZEFSAII (Michael W. Deem and Ramdas Pophale) SiO2 
 PCOD9517995
Probable space group: I M M M
;
_chemical_formula_sum "Si O2"
_cell_formula_units_Z 104
_cell_length_a 23.779503
_cell_length_b 17.607446
_cell_length_c 14.844866
_cell_angle_alpha 90.000000
_cell_angle_beta 90.000000
_cell_angle_gamma 90.000000
_cell_volume 6215.490691
_symmetry_space_group_name_H-M "I M M M"
_symmetry_group_IT_number 71
_symmetry_cell_setting 'orthorhombic'
loop_
_space_group_symop_operation_xyz
x,y,z
-x,-y,z
x,-y,-z
-x,y,-z
-x,-y,-z
x,y,-z
-x,y,z
x,-y,z
1/2+x,1/2+y,1/2+z
1/2-x,1/2-y,1/2+z
1/2+x,1/2-y,1/2-z
1/2-x,1/2+y,1/2-z
1/2-x,1/2-y,1/2-z
1/2+x,1/2+y,1/2-z
1/2-x,1/2+y,1/2+z
1/2+x,1/2-y,1/2+z
loop_
_atom_site_type_symbol
_atom_site_label
_atom_site_fract_x
_atom_site_fract_y
_atom_site_fract_z
Si Si1 0.068341 0.085492 0.500000
Si Si2 0.820410 0.139854 0.100134
Si Si3 0.275677 0.088153 0.229114
Si Si4 0.341822 0.197352 0.106384
Si Si5 0.434827 0.307918 0.836788
Si Si6 0.437241 0.411458 0.660255
Si Si7 0.270351 0.799448 0.396731
O O1 0.085133 0.133061 0.413180
O O2 0.000000 0.081460 0.500000
O O3 0.090073 0.000000 0.500000
O O4 0.783635 0.100251 0.177092
O O5 0.883532 0.109546 0.101552
O O6 0.814920 0.230450 0.115784
O O7 0.795510 0.126312 0.000000
O O8 0.320963 0.123751 0.160056
O O9 0.276084 0.137788 0.320120
O O10 0.284784 0.000000 0.246872
O O11 0.394950 0.235885 0.154168
O O12 0.289662 0.256739 0.113291
O O13 0.352276 0.184563 0.000000
O O14 0.500000 0.288108 0.854875
O O15 0.433072 0.354408 0.744435
O O16 0.500000 0.402428 0.620087
O O17 0.433069 0.500000 0.688693
O O18 0.274731 0.827327 0.500000
#
# Coordination Sequence:
#
# PCOD9517995 Si02
#       7
#     8  16  16  16  16  16  16
#     4   9  16  26  42  66  95 127 165 201 231 274
#     4  10  20  35  54  72  95 133 172 202 240 295
#     4  11  21  33  53  76  98 126 162 209 254 295
#     4  10  19  32  50  72 100 131 168 205 242 288
#     4  10  18  30  48  69  97 135 172 203 239 289
#     4  10  20  31  45  69 103 137 166 202 244 285
#     4   9  19  35  54  73  97 128 160 202 251 298
#
# _framework density 16.732386999999999
#
# number of rings (size 3 to 8) (size 9 to 14) (size 15 to 20)
#    0.000    2.077    0.769    6.000    0.000    4.615 
#    0.000    1.538    0.000    0.462    0.000    1.077 
#    0.000    0.000    0.000   13.231    0.000    0.000 
#
# Total GULP energy -290030.113230 kJ/mol
# GULP energy per Si atom -5577.502178 kJ/mol
# Density = 1.669430 g / cm^3
# Si number density = 16.732387 Si / 1000 Ang^3
#
#
#
# Elastic Constant Matrix: (Units=GPa)
#
#
# Indices 1 2 3 4 5 6 
#
# 1 75.2422 31.8717 16.5596 0.0000 0.0000 0.0000
# 2 31.8717 81.9213 37.0119 0.0000 0.0000 0.0000
# 3 16.5596 37.0119 68.4785 0.0000 0.0000 0.0000
# 4 0.0000 0.0000 0.0000 -33.1785 0.0000 0.0000
# 5 0.0000 0.0000 0.0000 0.0000 14.0814 0.0000
# 6 0.0000 0.0000 0.0000 0.0000 0.0000 15.5531
#
#
#
# Elastic Compliance Matrix: (Units=1/GPa)
#
#
# Indices 1 2 3 4 5 6 
#
# 1 0.015936 -0.005899 -0.000665 0.000000 0.000000 0.000000
# 2 -0.005899 0.018335 -0.008483 0.000000 0.000000 0.000000
# 3 -0.000665 -0.008483 0.019349 0.000000 0.000000 0.000000
# 4 0.000000 0.000000 0.000000 -0.030140 0.000000 0.000000
# 5 0.000000 0.000000 0.000000 0.000000 0.071016 0.000000
# 6 0.000000 0.000000 0.000000 0.000000 0.000000 0.064296
#
#
# Mechanical properties :
#
#
# Convention : Reuss Voigt Hill
#
# Bulk Modulus (GPa) = 42.50924 44.05871 43.28398
# Shear Modulus (GPa) = 25.41590 8.63779 17.02685
#
# Velocity S-wave (km/s) = 3.90162 2.27454 3.19344
# Velocity P-wave (km/s) = 6.76442 5.76945 6.28665
#
# Compressibility (1/GPa) = 0.02352430
#
# Stress axis : x y z
#
# Youngs Moduli (GPa) = 62.75229 54.54164 51.68234
#
# Poissons Ratio (x) = 0.32176 0.03437
# Poissons Ratio (y) = 0.37020 0.43843
# Poissons Ratio (z) = 0.04174 0.46268
#
# Static dielectric constant tensor:
#      x y z
#    x 1.578610 0.000000 0.000000 
#    y 0.000000 1.543940 0.000000 
#    z 0.000000 0.000000 1.647380 
# 
# From -- ./inp_files/39479.got.cif
#   From: 2010.05.17/outbox.cif.g08.bks.cpg/sg71_20_cif.got.tgz:39479.got - 2010.06.03 16:22:01.
