data_PCOD9517604
_publ_section_title
;
Structure prediction by ZEFSAII (Michael W. Deem and Ramdas Pophale) SiO2 
 PCOD9517604
Probable space group: I M M M
;
_chemical_formula_sum "Si O2"
_cell_formula_units_Z 88
_cell_length_a 20.850958
_cell_length_b 27.223241
_cell_length_c 9.227918
_cell_angle_alpha 90.000000
_cell_angle_beta 90.000000
_cell_angle_gamma 90.000000
_cell_volume 5238.049136
_symmetry_space_group_name_H-M "I M M M"
_symmetry_group_IT_number 71
_symmetry_cell_setting 'orthorhombic'
loop_
_space_group_symop_operation_xyz
x,y,z
-x,-y,z
x,-y,-z
-x,y,-z
-x,-y,-z
x,y,-z
-x,y,z
x,-y,z
1/2+x,1/2+y,1/2+z
1/2-x,1/2-y,1/2+z
1/2+x,1/2-y,1/2-z
1/2-x,1/2+y,1/2-z
1/2-x,1/2-y,1/2-z
1/2+x,1/2+y,1/2-z
1/2-x,1/2+y,1/2+z
1/2+x,1/2-y,1/2+z
loop_
_atom_site_type_symbol
_atom_site_label
_atom_site_fract_x
_atom_site_fract_y
_atom_site_fract_z
Si Si1 0.500000 0.059907 0.334747
Si Si2 0.233964 0.363684 0.673364
Si Si3 0.628926 0.216430 0.826707
Si Si4 0.500000 0.218602 0.327054
Si Si5 0.359126 0.667524 0.828832
Si Si6 0.000000 0.823974 0.673214
Si Si7 0.870437 0.442103 0.327146
O O1 0.500000 0.077418 0.500000
O O2 0.435148 0.074324 0.252854
O O3 0.500000 0.000000 0.335626
O O4 0.241291 0.364858 0.500000
O O5 0.190476 0.316189 0.710108
O O6 0.303046 0.359377 0.744724
O O7 0.190892 0.410290 0.717288
O O8 0.565829 0.198577 0.741703
O O9 0.641316 0.273918 0.794301
O O10 0.617116 0.212336 0.000000
O O11 0.500000 0.215448 0.500000
O O12 0.500000 0.275057 0.270017
O O13 0.432136 0.650147 0.799248
O O14 0.347596 0.662986 0.000000
O O15 0.000000 0.810025 0.500000
O O16 0.879609 0.435571 0.500000
O O17 0.860782 0.500000 0.299602
#
# Coordination Sequence:
#
# PCOD9517604 Si02
#       7
#     8  16  16   8  16   8  16
#     4   9  17  30  49  70  90 116 153 196 233 262
#     4  10  20  31  46  68  91 118 152 187 224 268
#     4   9  18  32  45  60  90 127 154 180 222 271
#     4  10  18  27  43  66  88 117 158 196 222 249
#     4   9  17  30  48  67  90 119 147 179 220 268
#     4   8  16  32  49  65  89 122 152 177 218 272
#     4   9  18  33  50  67  90 121 154 187 226 271
#
# _framework density 16.800148
#
# number of rings (size 3 to 8) (size 9 to 14) (size 15 to 20)
#    0.000    2.818    0.000    2.727    0.000    6.182 
#    0.000    3.636    0.000    0.000    0.000    0.636 
#    0.000    5.091    0.000    0.000    0.000    0.000 
#
# Total GULP energy -245270.048469 kJ/mol
# GULP energy per Si atom -5574.319283 kJ/mol
# Density = 1.676191 g / cm^3
# Si number density = 16.800148 Si / 1000 Ang^3
#
#
#
# Elastic Constant Matrix: (Units=GPa)
#
#
# Indices 1 2 3 4 5 6 
#
# 1 181.5428 52.5468 60.6225 0.0000 0.0000 0.0000
# 2 52.5468 45.3925 26.9926 0.0000 0.0000 0.0000
# 3 60.6225 26.9926 37.3729 0.0000 0.0000 0.0000
# 4 0.0000 0.0000 0.0000 10.2742 0.0000 0.0000
# 5 0.0000 0.0000 0.0000 0.0000 34.8333 0.0000
# 6 0.0000 0.0000 0.0000 0.0000 0.0000 -11.7064
#
#
#
# Elastic Compliance Matrix: (Units=1/GPa)
#
#
# Indices 1 2 3 4 5 6 
#
# 1 0.012462 -0.004217 -0.017169 0.000000 0.000000 0.000000
# 2 -0.004217 0.040041 -0.022080 0.000000 0.000000 0.000000
# 3 -0.017169 -0.022080 0.070555 0.000000 0.000000 0.000000
# 4 0.000000 0.000000 0.000000 0.097331 0.000000 0.000000
# 5 0.000000 0.000000 0.000000 0.000000 0.028708 0.000000
# 6 0.000000 0.000000 0.000000 0.000000 0.000000 -0.085424
#
#
# Mechanical properties :
#
#
# Convention : Reuss Voigt Hill
#
# Bulk Modulus (GPa) = 27.68061 60.51466 44.09763
# Shear Modulus (GPa) = 19.03689 14.95666 16.99677
#
# Velocity S-wave (km/s) = 3.36986 2.98698 3.18418
# Velocity P-wave (km/s) = 5.62614 6.92781 6.31063
#
# Compressibility (1/GPa) = 0.03612638
#
# Stress axis : x y z
#
# Youngs Moduli (GPa) = 80.24260 24.97438 14.17331
#
# Poissons Ratio (x) = 0.10531 0.24335
# Poissons Ratio (y) = 0.33835 0.31295
# Poissons Ratio (z) = 1.37772 0.55143
#
# Static dielectric constant tensor:
#      x y z
#    x 1.573100 0.000000 0.000000 
#    y 0.000000 1.571270 0.000000 
#    z 0.000000 0.000000 1.559510 
# 
# From -- ./inp_files/11425.got.cif
#   From: 2010.05.17/outbox.cif.g08.bks.cpg/sg71_6_cif.got.tgz:11425.got - 2010.06.03 16:22:01.
