data_PCOD9517730
_publ_section_title
;
Structure prediction by ZEFSAII (Michael W. Deem and Ramdas Pophale) SiO2 
 PCOD9517730
Probable space group: I M M M
;
_chemical_formula_sum "Si O2"
_cell_formula_units_Z 96
_cell_length_a 13.436469
_cell_length_b 26.902544
_cell_length_c 14.880388
_cell_angle_alpha 90.000000
_cell_angle_beta 90.000000
_cell_angle_gamma 90.000000
_cell_volume 5378.891206
_symmetry_space_group_name_H-M "I M M M"
_symmetry_group_IT_number 71
_symmetry_cell_setting 'orthorhombic'
loop_
_space_group_symop_operation_xyz
x,y,z
-x,-y,z
x,-y,-z
-x,y,-z
-x,-y,-z
x,y,-z
-x,y,z
x,-y,z
1/2+x,1/2+y,1/2+z
1/2-x,1/2-y,1/2+z
1/2+x,1/2-y,1/2-z
1/2-x,1/2+y,1/2-z
1/2-x,1/2-y,1/2-z
1/2+x,1/2+y,1/2-z
1/2-x,1/2+y,1/2+z
1/2+x,1/2-y,1/2+z
loop_
_atom_site_type_symbol
_atom_site_label
_atom_site_fract_x
_atom_site_fract_y
_atom_site_fract_z
Si Si1 0.192004 0.443866 0.207643
Si Si2 0.612625 0.199979 0.159378
Si Si3 0.608573 0.843652 0.640252
Si Si4 0.683304 0.301177 0.099382
Si Si5 0.379390 0.907480 0.898847
Si Si6 0.614144 0.591111 0.108164
O O1 0.160083 0.500000 0.190083
O O2 0.129133 0.402032 0.155291
O O3 0.175747 0.432685 0.314201
O O4 0.304110 0.436244 0.169338
O O5 0.500000 0.211917 0.130344
O O6 0.609455 0.180215 0.260647
O O7 0.673483 0.250471 0.153235
O O8 0.646694 0.151343 0.104941
O O9 0.500000 0.835385 0.600821
O O10 0.703205 0.819329 0.594543
O O11 0.625086 0.350162 0.131899
O O12 0.645311 0.289464 0.000000
O O13 0.500000 0.911092 0.883917
O O14 0.358882 0.926468 0.000000
O O15 0.500000 0.575104 0.121481
O O16 0.636450 0.586523 0.000000
#
# Coordination Sequence:
#
# PCOD9517730 Si02
#       6
#    16  16  16  16  16  16
#     4  10  20  33  51  74  98 127 165 206 249 294
#     4   9  16  28  48  71  95 124 157 192 232 280
#     4   9  19  33  46  65  95 127 158 195 238 284
#     4  10  18  28  47  72  96 124 156 191 234 286
#     4   9  18  32  51  77 106 133 163 201 243 288
#     4   9  19  35  53  75 101 126 159 206 253 296
#
# _framework density 17.847545
#
# number of rings (size 3 to 8) (size 9 to 14) (size 15 to 20)
#    0.000    2.667    0.000    3.000    0.000    4.333 
#    0.000    1.667    0.000    2.000    0.000    9.333 
#    0.000    0.000    0.000    0.000    0.000    0.000 
#
# Total GULP energy -267306.426421 kJ/mol
# GULP energy per Si atom -5568.883884 kJ/mol
# Density = 1.780692 g / cm^3
# Si number density = 17.847545 Si / 1000 Ang^3
#
#
#
# Elastic Constant Matrix: (Units=GPa)
#
#
# Indices 1 2 3 4 5 6 
#
# 1 76.7849 22.9364 26.3837 0.0000 0.0000 0.0000
# 2 22.9364 109.5708 21.9829 -0.0001 0.0000 0.0000
# 3 26.3837 21.9829 67.8884 0.0000 0.0001 0.0000
# 4 0.0000 -0.0001 0.0000 4.2101 0.0000 0.0000
# 5 0.0000 0.0000 0.0001 0.0000 26.4203 0.0000
# 6 0.0000 0.0000 0.0000 0.0000 0.0000 1.0103
#
#
#
# Elastic Compliance Matrix: (Units=1/GPa)
#
#
# Indices 1 2 3 4 5 6 
#
# 1 0.015502 -0.002178 -0.005319 0.000000 0.000000 0.000000
# 2 -0.002178 0.010067 -0.002413 0.000000 0.000000 0.000000
# 3 -0.005319 -0.002413 0.017579 0.000000 0.000000 0.000000
# 4 0.000000 0.000000 0.000000 0.237522 0.000000 -0.000005
# 5 0.000000 0.000000 0.000000 0.000000 0.037850 0.000001
# 6 0.000000 0.000000 0.000000 -0.000005 0.000001 0.989838
#
#
# Mechanical properties :
#
#
# Convention : Reuss Voigt Hill
#
# Bulk Modulus (GPa) = 42.87008 44.09446 43.48227
# Shear Modulus (GPa) = 3.74265 18.52421 11.13343
#
# Velocity S-wave (km/s) = 1.44968 3.22516 2.50032
# Velocity P-wave (km/s) = 5.18405 6.21520 5.72290
#
# Compressibility (1/GPa) = 0.02332629
#
# Stress axis : x y z
#
# Youngs Moduli (GPa) = 64.50927 99.33877 56.88680
#
# Poissons Ratio (x) = 0.21634 0.30260
# Poissons Ratio (y) = 0.14049 0.13728
# Poissons Ratio (z) = 0.34314 0.23973
#
# Static dielectric constant tensor:
#      x y z
#    x 1.618820 0.000000 0.000000 
#    y 0.000000 1.616870 0.000000 
#    z 0.000000 0.000000 1.628400 
# 
# From -- ./inp_files/43728.got.cif
#   From: 2010.05.17/outbox.cif.g08.bks.cpg/sg71_22_cif.got.tgz:43728.got - 2010.06.03 16:22:01.
