data_PCOD9517518
_publ_section_title
;
Structure prediction by ZEFSAII (Michael W. Deem and Ramdas Pophale) SiO2 
 PCOD9517518
Probable space group: I M M M
;
_chemical_formula_sum "Si O2"
_cell_formula_units_Z 104
_cell_length_a 13.636298
_cell_length_b 18.603145
_cell_length_c 29.223734
_cell_angle_alpha 90.000000
_cell_angle_beta 90.000000
_cell_angle_gamma 90.000000
_cell_volume 7413.419240
_symmetry_space_group_name_H-M "I M M M"
_symmetry_group_IT_number 71
_symmetry_cell_setting 'orthorhombic'
loop_
_space_group_symop_operation_xyz
x,y,z
-x,-y,z
x,-y,-z
-x,y,-z
-x,-y,-z
x,y,-z
-x,y,z
x,-y,z
1/2+x,1/2+y,1/2+z
1/2-x,1/2-y,1/2+z
1/2+x,1/2-y,1/2-z
1/2-x,1/2+y,1/2-z
1/2-x,1/2-y,1/2-z
1/2+x,1/2+y,1/2-z
1/2-x,1/2+y,1/2+z
1/2+x,1/2-y,1/2+z
loop_
_atom_site_type_symbol
_atom_site_label
_atom_site_fract_x
_atom_site_fract_y
_atom_site_fract_z
Si Si1 0.298248 0.219975 0.359268
Si Si2 0.114966 0.811054 0.776153
Si Si3 0.381323 0.839036 0.446660
Si Si4 0.792077 0.417859 0.718398
Si Si5 0.888329 0.500000 0.055445
Si Si6 0.885238 0.580718 0.817961
Si Si7 0.885585 0.280231 0.316986
O O1 0.356990 0.270939 0.323515
O O2 0.336443 0.217365 0.411046
O O3 0.319640 0.140314 0.341105
O O4 0.185490 0.240698 0.352413
O O5 0.187986 0.878738 0.772004
O O6 0.132250 0.756972 0.733113
O O7 0.000000 0.829679 0.775874
O O8 0.358464 0.825507 0.500000
O O9 0.500000 0.838955 0.442245
O O10 0.346979 0.920797 0.434321
O O11 0.780485 0.500000 0.702381
O O12 0.855051 0.419903 0.764949
O O13 0.850411 0.362665 0.686148
O O14 0.000000 0.500000 0.073304
O O15 0.894443 0.500000 0.000000
O O16 0.870786 0.500000 0.836060
O O17 0.000000 0.599684 0.822769
O O18 0.000000 0.274405 0.326844
#
# Coordination Sequence:
#
# PCOD9517518 Si02
#       7
#    16  16  16  16   8  16  16
#     4  11  18  29  44  62  83 116 153 181 216 258
#     4  10  18  30  44  61  87 118 147 176 213 258
#     4   9  17  27  40  62  90 116 143 177 219 263
#     4  10  18  29  43  62  87 115 146 180 215 253
#     4   7  12  24  38  56  85 115 139 169 214 256
#     4  10  18  25  37  61  88 112 144 182 212 244
#     4  10  19  32  46  61  85 115 147 183 220 257
#
# _framework density 14.028613999999999
#
# number of rings (size 3 to 8) (size 9 to 14) (size 15 to 20)
#    0.000    2.231    3.077    3.692    1.077    1.231 
#    0.000    0.000    0.000    0.923    0.000    0.000 
#    0.000   11.692    0.000   39.385    0.000    0.000 
#
# Total GULP energy -289620.715972 kJ/mol
# GULP energy per Si atom -5569.629153 kJ/mol
# Density = 1.399668 g / cm^3
# Si number density = 14.028614 Si / 1000 Ang^3
#
#
#
# Elastic Constant Matrix: (Units=GPa)
#
#
# Indices 1 2 3 4 5 6 
#
# 1 80.8493 40.3207 19.7044 0.0000 0.0000 0.0000
# 2 40.3207 88.5671 27.2843 0.0000 0.0000 0.0000
# 3 19.7044 27.2843 65.9947 0.0000 0.0000 0.0000
# 4 0.0000 0.0000 0.0000 19.8185 0.0000 0.0000
# 5 0.0000 0.0000 0.0000 0.0000 15.1550 0.0000
# 6 0.0000 0.0000 0.0000 0.0000 0.0000 15.6323
#
#
#
# Elastic Compliance Matrix: (Units=1/GPa)
#
#
# Indices 1 2 3 4 5 6 
#
# 1 0.016241 -0.006761 -0.002054 0.000000 0.000000 0.000000
# 2 -0.006761 0.015753 -0.004494 0.000000 0.000000 0.000000
# 3 -0.002054 -0.004494 0.017624 0.000000 0.000000 0.000000
# 4 0.000000 0.000000 0.000000 0.050458 0.000000 0.000000
# 5 0.000000 0.000000 0.000000 0.000000 0.065985 0.000000
# 6 0.000000 0.000000 0.000000 0.000000 0.000000 0.063970
#
#
# Mechanical properties :
#
#
# Convention : Reuss Voigt Hill
#
# Bulk Modulus (GPa) = 43.47831 45.55888 44.51859
# Shear Modulus (GPa) = 18.91667 19.99459 19.45563
#
# Velocity S-wave (km/s) = 3.67609 3.77937 3.72809
# Velocity P-wave (km/s) = 7.00557 7.18269 7.09468
#
# Compressibility (1/GPa) = 0.02299997
#
# Stress axis : x y z
#
# Youngs Moduli (GPa) = 61.57196 63.47813 56.74059
#
# Poissons Ratio (x) = 0.42918 0.11654
# Poissons Ratio (y) = 0.41630 0.25501
# Poissons Ratio (z) = 0.12646 0.28529
#
# Static dielectric constant tensor:
#      x y z
#    x 1.457840 0.000000 0.000000 
#    y 0.000000 1.481820 0.000000 
#    z 0.000000 0.000000 1.489490 
# 
# From -- ./inp_files/65641.got.cif
#   From: 2010.05.17/outbox.cif.g08.bks.cpg/sg71_33_cif.got.tgz:65641.got - 2010.06.03 16:22:01.
