data_PCOD9517216
_publ_section_title
;
Structure prediction by ZEFSAII (Michael W. Deem and Ramdas Pophale) SiO2 
 PCOD9517216
Probable space group: I M M M
;
_chemical_formula_sum "Si O2"
_cell_formula_units_Z 104
_cell_length_a 26.038827
_cell_length_b 12.572518
_cell_length_c 20.110520
_cell_angle_alpha 90.000000
_cell_angle_beta 90.000000
_cell_angle_gamma 90.000000
_cell_volume 6583.653756
_symmetry_space_group_name_H-M "I M M M"
_symmetry_group_IT_number 71
_symmetry_cell_setting 'orthorhombic'
loop_
_space_group_symop_operation_xyz
x,y,z
-x,-y,z
x,-y,-z
-x,y,-z
-x,-y,-z
x,y,-z
-x,y,z
x,-y,z
1/2+x,1/2+y,1/2+z
1/2-x,1/2-y,1/2+z
1/2+x,1/2-y,1/2-z
1/2-x,1/2+y,1/2-z
1/2-x,1/2-y,1/2-z
1/2+x,1/2+y,1/2-z
1/2-x,1/2+y,1/2+z
1/2+x,1/2-y,1/2+z
loop_
_atom_site_type_symbol
_atom_site_label
_atom_site_fract_x
_atom_site_fract_y
_atom_site_fract_z
Si Si1 0.786927 0.802860 0.000000
Si Si2 0.559824 0.875804 0.919843
Si Si3 0.701344 0.626544 0.000000
Si Si4 0.347099 0.372265 0.271328
Si Si5 0.556371 0.371571 0.356065
Si Si6 0.750320 0.876283 0.857154
Si Si7 0.399862 0.372886 0.500000
Si Si8 0.151767 0.230926 0.629822
O O1 0.770544 0.862801 0.067359
O O2 0.848342 0.803310 0.000000
O O3 0.755191 0.692181 0.000000
O O4 0.500000 0.853437 0.903579
O O5 0.600310 0.796609 0.886689
O O6 0.570256 0.000000 0.903096
O O7 0.565110 0.866775 0.000000
O O8 0.670082 0.664813 0.934799
O O9 0.708559 0.500000 0.000000
O O10 0.346260 0.500000 0.277354
O O11 0.396339 0.331428 0.312275
O O12 0.294556 0.335217 0.307099
O O13 0.352847 0.340723 0.195058
O O14 0.500000 0.330687 0.337591
O O15 0.555387 0.500000 0.348351
O O16 0.568425 0.352377 0.433355
O O17 0.697719 0.812514 0.853908
O O18 0.741405 0.000000 0.843388
O O19 0.385657 0.500000 0.500000
#
# Coordination Sequence:
#
# PCOD9517216 Si02
#       8
#     8  16   8  16  16  16   8  16
#     4  10  18  29  52  75  96 128 161 197 247 303
#     4   9  18  34  55  79 102 120 150 204 260 299
#     4  10  22  36  48  68  99 130 168 209 241 283
#     4  10  20  32  46  66 101 138 167 201 242 288
#     4   9  17  28  44  69 100 133 163 195 239 289
#     4  10  19  31  48  75 103 125 156 205 255 299
#     4  10  15  26  48  74 103 127 156 199 248 294
#     4  11  20  33  52  73  93 133 170 201 242 297
#
# _framework density 15.7967
#
# number of rings (size 3 to 8) (size 9 to 14) (size 15 to 20)
#    0.000    2.154    2.308    2.769    0.000    1.538 
#    0.000    0.000    0.000    2.769    0.000    0.000 
#    0.000    1.231    0.000    0.000    0.000    0.154 
#
# Total GULP energy -289802.715468 kJ/mol
# GULP energy per Si atom -5573.129144 kJ/mol
# Density = 1.576075 g / cm^3
# Si number density = 15.796700 Si / 1000 Ang^3
#
#
#
# Elastic Constant Matrix: (Units=GPa)
#
#
# Indices 1 2 3 4 5 6 
#
# 1 104.1874 32.6134 32.3328 0.0000 0.0000 0.0000
# 2 32.6134 46.8328 14.7636 0.0000 0.0000 0.0000
# 3 32.3328 14.7636 84.5223 0.0000 0.0000 0.0000
# 4 0.0000 0.0000 0.0000 23.0705 0.0000 0.0000
# 5 0.0000 0.0000 0.0000 0.0000 8.4188 0.0000
# 6 0.0000 0.0000 0.0000 0.0000 0.0000 12.7801
#
#
#
# Elastic Compliance Matrix: (Units=1/GPa)
#
#
# Indices 1 2 3 4 5 6 
#
# 1 0.013265 -0.008083 -0.003662 0.000000 0.000000 0.000000
# 2 -0.008083 0.027522 -0.001715 0.000000 0.000000 0.000000
# 3 -0.003662 -0.001715 0.013532 0.000000 0.000000 0.000000
# 4 0.000000 0.000000 0.000000 0.043345 0.000000 0.000000
# 5 0.000000 0.000000 0.000000 0.000000 0.118781 0.000000
# 6 0.000000 0.000000 0.000000 0.000000 0.000000 0.078246
#
#
# Mechanical properties :
#
#
# Convention : Reuss Voigt Hill
#
# Bulk Modulus (GPa) = 36.49966 43.88467 40.19217
# Shear Modulus (GPa) = 15.11737 19.24273 17.18005
#
# Velocity S-wave (km/s) = 3.09689 3.49399 3.30141
# Velocity P-wave (km/s) = 5.99530 6.64217 6.32701
#
# Compressibility (1/GPa) = 0.02739751
#
# Stress axis : x y z
#
# Youngs Moduli (GPa) = 75.38749 36.33452 73.89985
#
# Poissons Ratio (x) = 0.29368 0.27065
# Poissons Ratio (y) = 0.60934 0.12676
# Poissons Ratio (z) = 0.27610 0.06233
#
# Static dielectric constant tensor:
#      x y z
#    x 1.539420 0.000000 0.000000 
#    y 0.000000 1.501620 0.000000 
#    z 0.000000 0.000000 1.526320 
# 
# From -- ./inp_files/48865.got.cif
#   From: 2010.05.17/outbox.cif.g08.bks.cpg/sg71_25_cif.got.tgz:48865.got - 2010.06.03 16:22:01.
