data_PCOD9517712
_publ_section_title
;
Structure prediction by ZEFSAII (Michael W. Deem and Ramdas Pophale) SiO2 
 PCOD9517712
Probable space group: I M M M
;
_chemical_formula_sum "Si O2"
_cell_formula_units_Z 128
_cell_length_a 23.153264
_cell_length_b 17.726549
_cell_length_c 19.171283
_cell_angle_alpha 90.000000
_cell_angle_beta 90.000000
_cell_angle_gamma 90.000000
_cell_volume 7868.421155
_symmetry_space_group_name_H-M "I M M M"
_symmetry_group_IT_number 71
_symmetry_cell_setting 'orthorhombic'
loop_
_space_group_symop_operation_xyz
x,y,z
-x,-y,z
x,-y,-z
-x,y,-z
-x,-y,-z
x,y,-z
-x,y,z
x,-y,z
1/2+x,1/2+y,1/2+z
1/2-x,1/2-y,1/2+z
1/2+x,1/2-y,1/2-z
1/2-x,1/2+y,1/2-z
1/2-x,1/2-y,1/2-z
1/2+x,1/2+y,1/2-z
1/2-x,1/2+y,1/2+z
1/2+x,1/2-y,1/2+z
loop_
_atom_site_type_symbol
_atom_site_label
_atom_site_fract_x
_atom_site_fract_y
_atom_site_fract_z
Si Si1 0.065831 0.909915 0.343023
Si Si2 0.741680 0.412014 0.788261
Si Si3 0.744145 0.726090 0.418865
Si Si4 0.676918 0.645238 0.918262
Si Si5 0.174096 0.087993 0.081794
Si Si6 0.653730 0.815192 0.677524
Si Si7 0.931561 0.589828 0.918766
Si Si8 0.628419 0.344833 0.284947
O O1 0.112633 0.872063 0.393376
O O2 0.082027 0.883116 0.265206
O O3 0.000000 0.891724 0.360346
O O4 0.073680 0.000000 0.346810
O O5 0.744623 0.500000 0.770652
O O6 0.719710 0.402841 0.868633
O O7 0.802636 0.369573 0.780613
O O8 0.690957 0.370887 0.745273
O O9 0.732256 0.740240 0.500000
O O10 0.804356 0.767701 0.404266
O O11 0.732326 0.637802 0.407893
O O12 0.696677 0.770140 0.374353
O O13 0.684026 0.628739 0.000000
O O14 0.128560 0.123712 0.136076
O O15 0.182188 0.000000 0.096852
O O16 0.157626 0.095636 0.000000
O O17 0.608081 0.863176 0.633492
O O18 0.624782 0.745649 0.718246
O O19 0.921849 0.500000 0.909722
O O20 0.000000 0.603800 0.907968
O O21 0.918380 0.608016 0.000000
#
# Coordination Sequence:
#
# PCOD9517712 Si02
#       8
#    16  16  16  16  16  16  16  16
#     4  10  21  35  49  65  87 119 157 192 229 274
#     4  10  19  30  45  68  96 124 151 181 226 278
#     4   8  15  26  41  66  96 118 139 177 225 265
#     4   9  17  30  47  68  95 122 149 185 227 270
#     4   9  16  27  46  69  91 118 150 181 218 268
#     4  10  18  28  46  67  88 118 157 189 215 263
#     4   9  18  32  48  67  94 125 154 189 233 273
#     4  10  19  32  47  64  93 121 148 188 234 274
#
# _framework density 16.267558999999999
#
# number of rings (size 3 to 8) (size 9 to 14) (size 15 to 20)
#    0.000    2.625    0.000    3.750    0.000    3.750 
#    0.000    0.625    0.000    0.375    0.000    1.750 
#    0.000    1.500    0.000    4.875    0.000    0.000 
#
# Total GULP energy -356369.768316 kJ/mol
# GULP energy per Si atom -5568.277630 kJ/mol
# Density = 1.623053 g / cm^3
# Si number density = 16.267559 Si / 1000 Ang^3
#
#
#
# Elastic Constant Matrix: (Units=GPa)
#
#
# Indices 1 2 3 4 5 6 
#
# 1 32.8164 5.9216 -1.8032 0.0000 0.0000 0.0000
# 2 5.9216 55.6015 5.0676 0.0000 0.0000 0.0000
# 3 -1.8032 5.0676 43.4436 0.0000 0.0000 0.0000
# 4 0.0000 0.0000 0.0000 23.6432 0.0000 0.0000
# 5 0.0000 0.0000 0.0000 0.0000 8.9407 0.0000
# 6 0.0000 0.0000 0.0000 0.0000 0.0000 21.5302
#
#
#
# Elastic Compliance Matrix: (Units=1/GPa)
#
#
# Indices 1 2 3 4 5 6 
#
# 1 0.031193 -0.003477 0.001700 0.000000 0.000000 0.000000
# 2 -0.003477 0.018566 -0.002310 0.000000 0.000000 0.000000
# 3 0.001700 -0.002310 0.023358 0.000000 0.000000 0.000000
# 4 0.000000 0.000000 0.000000 0.042295 0.000000 0.000000
# 5 0.000000 0.000000 0.000000 0.000000 0.111848 0.000000
# 6 0.000000 0.000000 0.000000 0.000000 0.000000 0.046446
#
#
# Mechanical properties :
#
#
# Convention : Reuss Voigt Hill
#
# Bulk Modulus (GPa) = 15.39781 16.69260 16.04521
# Shear Modulus (GPa) = 16.47286 19.00118 17.73702
#
# Velocity S-wave (km/s) = 3.18562 3.42137 3.30560
# Velocity P-wave (km/s) = 4.79758 5.08834 4.94510
#
# Compressibility (1/GPa) = 0.06494431
#
# Stress axis : x y z
#
# Youngs Moduli (GPa) = 32.05800 53.86191 42.81120
#
# Poissons Ratio (x) = 0.18728 -0.07279
# Poissons Ratio (y) = 0.11147 0.09889
# Poissons Ratio (z) = -0.05451 0.12442
#
# Static dielectric constant tensor:
#      x y z
#    x 1.531560 0.000000 0.000000 
#    y 0.000000 1.570520 0.000000 
#    z 0.000000 0.000000 1.586180 
# 
# From -- ./inp_files/55943.got.cif
#   From: 2010.05.17/outbox.cif.g08.bks.cpg/sg71_28_cif.got.tgz:55943.got - 2010.06.03 16:22:01.
