data_PCOD9517396
_publ_section_title
;
Structure prediction by ZEFSAII (Michael W. Deem and Ramdas Pophale) SiO2 
 PCOD9517396
Probable space group: I M M M
;
_chemical_formula_sum "Si O2"
_cell_formula_units_Z 104
_cell_length_a 14.439298
_cell_length_b 19.036738
_cell_length_c 25.213675
_cell_angle_alpha 90.000000
_cell_angle_beta 90.000000
_cell_angle_gamma 90.000000
_cell_volume 6930.662695
_symmetry_space_group_name_H-M "I M M M"
_symmetry_group_IT_number 71
_symmetry_cell_setting 'orthorhombic'
loop_
_space_group_symop_operation_xyz
x,y,z
-x,-y,z
x,-y,-z
-x,y,-z
-x,-y,-z
x,y,-z
-x,y,z
x,-y,z
1/2+x,1/2+y,1/2+z
1/2-x,1/2-y,1/2+z
1/2+x,1/2-y,1/2-z
1/2-x,1/2+y,1/2-z
1/2-x,1/2-y,1/2-z
1/2+x,1/2+y,1/2-z
1/2-x,1/2+y,1/2+z
1/2+x,1/2-y,1/2+z
loop_
_atom_site_type_symbol
_atom_site_label
_atom_site_fract_x
_atom_site_fract_y
_atom_site_fract_z
Si Si1 0.388692 0.582673 0.939583
Si Si2 0.603580 0.229992 0.339838
Si Si3 0.607834 0.608528 0.646507
Si Si4 0.244696 0.581077 0.263038
Si Si5 0.791972 0.162101 0.656477
Si Si6 0.112068 0.000000 0.940881
Si Si7 0.608546 0.791482 0.214757
O O1 0.500000 0.588906 0.936311
O O2 0.366050 0.500000 0.932717
O O3 0.343703 0.627680 0.892903
O O4 0.361584 0.602887 0.000000
O O5 0.500000 0.203271 0.350968
O O6 0.613417 0.308360 0.361417
O O7 0.687335 0.182658 0.359043
O O8 0.612851 0.235544 0.275758
O O9 0.500000 0.591457 0.657772
O O10 0.672046 0.586401 0.695002
O O11 0.637646 0.567141 0.594138
O O12 0.213780 0.500000 0.259100
O O13 0.281629 0.609617 0.206556
O O14 0.165530 0.635511 0.283087
O O15 0.842629 0.232731 0.678256
O O16 0.000000 0.000000 0.944415
O O17 0.149968 0.000000 0.000000
O O18 0.500000 0.800238 0.201153
#
# Coordination Sequence:
#
# PCOD9517396 Si02
#       7
#    16  16  16  16  16   8  16
#     4   9  19  35  52  72 100 130 159 201 256 302
#     4   9  17  30  47  69 100 129 154 192 246 290
#     4  10  17  28  46  67  93 123 153 196 241 282
#     4  11  20  30  46  73 103 128 160 197 245 298
#     4  11  18  31  51  76  96 126 166 207 242 292
#     4   9  18  30  44  64  93 129 158 184 231 288
#     4  10  19  31  47  69 101 135 162 198 243 294
#
# _framework density 15.00578
#
# number of rings (size 3 to 8) (size 9 to 14) (size 15 to 20)
#    0.000    2.077    3.846    2.308    0.000    0.923 
#    0.000    0.769    0.000    2.769    0.000    1.077 
#    0.000    0.615    0.000    0.000    0.000    0.000 
#
# Total GULP energy -289737.891103 kJ/mol
# GULP energy per Si atom -5571.882521 kJ/mol
# Density = 1.497163 g / cm^3
# Si number density = 15.005780 Si / 1000 Ang^3
#
#
#
# Elastic Constant Matrix: (Units=GPa)
#
#
# Indices 1 2 3 4 5 6 
#
# 1 81.4670 48.0757 52.4631 0.0000 0.0000 0.0000
# 2 48.0757 103.8707 62.8687 0.0000 0.0000 0.0000
# 3 52.4631 62.8687 92.1352 0.0000 0.0000 0.0000
# 4 0.0000 0.0000 0.0000 16.1346 0.0000 0.0000
# 5 0.0000 0.0000 0.0000 0.0000 16.1271 0.0000
# 6 0.0000 0.0000 0.0000 0.0000 0.0000 22.3871
#
#
#
# Elastic Compliance Matrix: (Units=1/GPa)
#
#
# Indices 1 2 3 4 5 6 
#
# 1 0.020358 -0.004099 -0.008795 0.000000 0.000000 0.000000
# 2 -0.004099 0.017226 -0.009420 0.000000 0.000000 0.000000
# 3 -0.008795 -0.009420 0.022289 0.000000 0.000000 0.000000
# 4 0.000000 0.000000 0.000000 0.061979 0.000000 0.000000
# 5 0.000000 0.000000 0.000000 0.000000 0.062007 0.000000
# 6 0.000000 0.000000 0.000000 0.000000 0.000000 0.044669
#
#
# Mechanical properties :
#
#
# Convention : Reuss Voigt Hill
#
# Bulk Modulus (GPa) = 65.59614 67.14312 66.36963
# Shear Modulus (GPa) = 17.97020 18.53412 18.25216
#
# Velocity S-wave (km/s) = 3.46432 3.51826 3.49139
# Velocity P-wave (km/s) = 7.73375 7.83238 7.78322
#
# Compressibility (1/GPa) = 0.01524480
#
# Stress axis : x y z
#
# Youngs Moduli (GPa) = 49.12156 58.05054 44.86418
#
# Poissons Ratio (x) = 0.23796 0.39457
# Poissons Ratio (y) = 0.20136 0.42263
# Poissons Ratio (z) = 0.43202 0.54685
#
# Static dielectric constant tensor:
#      x y z
#    x 1.506310 0.000000 0.000000 
#    y 0.000000 1.507030 0.000000 
#    z 0.000000 0.000000 1.475970 
# 
# From -- ./inp_files/36903.got.cif
#   From: 2010.05.17/outbox.cif.g08.bks.cpg/sg71_19_cif.got.tgz:36903.got - 2010.06.03 16:22:01.
