data_PCOD9517289
_publ_section_title
;
Structure prediction by ZEFSAII (Michael W. Deem and Ramdas Pophale) SiO2 
 PCOD9517289
Probable space group: I M M M
;
_chemical_formula_sum "Si O2"
_cell_formula_units_Z 116
_cell_length_a 24.007738
_cell_length_b 16.656020
_cell_length_c 16.656065
_cell_angle_alpha 90.000000
_cell_angle_beta 90.000000
_cell_angle_gamma 90.000000
_cell_volume 6660.316747
_symmetry_space_group_name_H-M "I M M M"
_symmetry_group_IT_number 71
_symmetry_cell_setting 'orthorhombic'
loop_
_space_group_symop_operation_xyz
x,y,z
-x,-y,z
x,-y,-z
-x,y,-z
-x,-y,-z
x,y,-z
-x,y,z
x,-y,z
1/2+x,1/2+y,1/2+z
1/2-x,1/2-y,1/2+z
1/2+x,1/2-y,1/2-z
1/2-x,1/2+y,1/2-z
1/2-x,1/2-y,1/2-z
1/2+x,1/2+y,1/2-z
1/2-x,1/2+y,1/2+z
1/2+x,1/2-y,1/2+z
loop_
_atom_site_type_symbol
_atom_site_label
_atom_site_fract_x
_atom_site_fract_y
_atom_site_fract_z
Si Si1 0.065246 0.373680 0.873681
Si Si2 0.764271 0.722896 0.091591
Si Si3 0.434724 0.683623 0.592996
Si Si4 0.934723 0.407003 0.316376
Si Si5 0.235729 0.408409 0.777104
Si Si6 0.159280 0.835502 0.203283
Si Si7 0.840720 0.296716 0.335501
Si Si8 0.392375 0.000000 0.500000
O O1 0.073418 0.279391 0.891051
O O2 0.073418 0.391050 0.779392
O O3 0.000000 0.392809 0.892809
O O4 0.102037 0.429722 0.929722
O O5 0.764848 0.639107 0.139108
O O6 0.804690 0.781903 0.140816
O O7 0.702377 0.760383 0.100836
O O8 0.780868 0.715452 0.000000
O O9 0.421347 0.667398 0.500000
O O10 0.500000 0.667111 0.605904
O O11 0.394557 0.637852 0.654263
O O12 0.921346 0.500000 0.332601
O O13 0.894558 0.345736 0.362148
O O14 0.000000 0.394097 0.332888
O O15 0.219132 0.500000 0.784548
O O16 0.297623 0.399164 0.739617
O O17 0.195310 0.359184 0.718097
O O18 0.143156 0.775964 0.275963
#
# Coordination Sequence:
#
# PCOD9517289 Si02
#       8
#    16  16  16  16  16  16  16   4
#     4  10  17  22  32  51  83 127 163 187 207 245
#     4   9  18  32  51  72  92 119 153 192 239 278
#     4  10  18  26  40  63  92 127 160 190 222 259
#     4  10  18  26  40  63  92 127 160 190 222 259
#     4   9  18  32  51  72  92 119 153 192 239 278
#     4   9  17  30  48  67  93 127 158 190 220 266
#     4   9  17  30  48  67  93 127 158 190 220 266
#     4  12  17  24  32  48  92 140 172 188 212 252
#
# _framework density 17.416588999999998
#
# number of rings (size 3 to 8) (size 9 to 14) (size 15 to 20)
#    0.000    2.483    2.759    3.103    0.000    0.276 
#    0.000    0.000    0.000   14.897    0.000    1.931 
#    0.000    0.000    0.000    6.069    0.000    0.000 
#
# Total GULP energy -323069.779690 kJ/mol
# GULP energy per Si atom -5570.168615 kJ/mol
# Density = 1.737695 g / cm^3
# Si number density = 17.416589 Si / 1000 Ang^3
#
#
#
# Elastic Constant Matrix: (Units=GPa)
#
#
# Indices 1 2 3 4 5 6 
#
# 1 49.9083 -3.6204 -3.6196 0.0000 0.0000 0.0000
# 2 -3.6204 32.0871 1.0522 0.0000 0.0000 0.0000
# 3 -3.6196 1.0522 32.0882 0.0000 0.0000 0.0000
# 4 0.0000 0.0000 0.0000 5.6287 0.0000 0.0000
# 5 0.0000 0.0000 0.0000 0.0000 16.1986 0.0000
# 6 0.0000 0.0000 0.0000 0.0000 0.0000 16.1983
#
#
#
# Elastic Compliance Matrix: (Units=1/GPa)
#
#
# Indices 1 2 3 4 5 6 
#
# 1 0.020359 0.002224 0.002224 0.000000 0.000000 0.000000
# 2 0.002224 0.031442 -0.000780 0.000000 0.000000 0.000000
# 3 0.002224 -0.000780 0.031441 0.000000 0.000000 0.000000
# 4 0.000000 0.000000 0.000000 0.177662 0.000000 0.000000
# 5 0.000000 0.000000 0.000000 0.000000 0.061734 0.000000
# 6 0.000000 0.000000 0.000000 0.000000 0.000000 0.061735
#
#
# Mechanical properties :
#
#
# Convention : Reuss Voigt Hill
#
# Bulk Modulus (GPa) = 11.04031 11.30089 11.17060
# Shear Modulus (GPa) = 12.27811 15.62320 13.95066
#
# Velocity S-wave (km/s) = 2.65800 2.99829 2.83326
# Velocity P-wave (km/s) = 3.97148 4.29989 4.13894
#
# Compressibility (1/GPa) = 0.09057716
#
# Stress axis : x y z
#
# Youngs Moduli (GPa) = 49.11741 31.80485 31.80606
#
# Poissons Ratio (x) = -0.07074 -0.07073
# Poissons Ratio (y) = -0.10925 0.02481
# Poissons Ratio (z) = -0.10922 0.02481
#
# Static dielectric constant tensor:
#      x y z
#    x 1.660090 0.000000 0.000000 
#    y 0.000000 1.571560 0.000000 
#    z 0.000000 0.000000 1.571560 
# 
# From -- ./inp_files/49044.got.cif
#   From: 2010.05.17/outbox.cif.g08.bks.cpg/sg71_25_cif.got.tgz:49044.got - 2010.06.03 16:22:01.
