data_PCOD9517593
_publ_section_title
;
Structure prediction by ZEFSAII (Michael W. Deem and Ramdas Pophale) SiO2 
 PCOD9517593
Probable space group: I M M M
;
_chemical_formula_sum "Si O2"
_cell_formula_units_Z 72
_cell_length_a 8.962655
_cell_length_b 28.491551
_cell_length_c 19.387554
_cell_angle_alpha 90.000000
_cell_angle_beta 90.000000
_cell_angle_gamma 90.000000
_cell_volume 4950.804666
_symmetry_space_group_name_H-M "I M M M"
_symmetry_group_IT_number 71
_symmetry_cell_setting 'orthorhombic'
loop_
_space_group_symop_operation_xyz
x,y,z
-x,-y,z
x,-y,-z
-x,y,-z
-x,-y,-z
x,y,-z
-x,y,z
x,-y,z
1/2+x,1/2+y,1/2+z
1/2-x,1/2-y,1/2+z
1/2+x,1/2-y,1/2-z
1/2-x,1/2+y,1/2-z
1/2-x,1/2-y,1/2-z
1/2+x,1/2+y,1/2-z
1/2-x,1/2+y,1/2+z
1/2+x,1/2-y,1/2+z
loop_
_atom_site_type_symbol
_atom_site_label
_atom_site_fract_x
_atom_site_fract_y
_atom_site_fract_z
Si Si1 0.322425 0.268840 0.642694
Si Si2 0.827601 0.338172 0.000000
Si Si3 0.676350 0.238614 0.000000
Si Si4 0.823531 0.400103 0.137386
Si Si5 0.682177 0.000000 0.580396
Si Si6 0.822800 0.820239 0.283134
O O1 0.500000 0.264269 0.634329
O O2 0.247553 0.281027 0.570225
O O3 0.257965 0.219199 0.670077
O O4 0.292014 0.305685 0.704099
O O5 0.807108 0.370312 0.933084
O O6 0.720119 0.293811 0.000000
O O7 0.000000 0.320990 0.000000
O O8 0.500000 0.232777 0.000000
O O9 0.772084 0.452666 0.119636
O O10 0.736665 0.370966 0.195053
O O11 0.000000 0.401289 0.153964
O O12 0.500000 0.000000 0.578460
O O13 0.730395 0.000000 0.500000
O O14 0.000000 0.816819 0.294587
#
# Coordination Sequence:
#
# PCOD9517593 Si02
#       6
#    16   8   8  16   8  16
#     4  10  20  33  47  63  88 121 153 185 226 276
#     4  10  18  27  42  64  88 123 158 187 226 267
#     4  12  22  30  45  69  93 116 150 194 228 269
#     4  10  18  29  47  65  89 122 158 196 229 267
#     4   9  16  28  45  67  89 118 161 196 223 263
#     4  10  20  32  46  65  89 118 154 192 228 269
#
# _framework density 14.543091
#
# number of rings (size 3 to 8) (size 9 to 14) (size 15 to 20)
#    0.000    1.889    3.333    2.333    0.000    2.667 
#    0.000    0.556    0.000    0.667    0.000    0.000 
#    0.000    0.889    0.000   10.000    0.000    4.444 
#
# Total GULP energy -200857.219000 kJ/mol
# GULP energy per Si atom -5579.367194 kJ/mol
# Density = 1.450999 g / cm^3
# Si number density = 14.543091 Si / 1000 Ang^3
#
#
#
# Elastic Constant Matrix: (Units=GPa)
#
#
# Indices 1 2 3 4 5 6 
#
# 1 65.0925 33.9725 56.8512 0.0000 0.0000 0.0000
# 2 33.9725 92.8329 50.2626 0.0000 0.0000 0.0000
# 3 56.8512 50.2626 113.5156 0.0000 0.0000 0.0000
# 4 0.0000 0.0000 0.0000 20.3533 0.0000 0.0000
# 5 0.0000 0.0000 0.0000 0.0000 23.0370 0.0000
# 6 0.0000 0.0000 0.0000 0.0000 0.0000 15.9438
#
#
#
# Elastic Compliance Matrix: (Units=1/GPa)
#
#
# Indices 1 2 3 4 5 6 
#
# 1 0.028151 -0.003510 -0.012544 0.000000 0.000000 0.000000
# 2 -0.003510 0.014606 -0.004710 0.000000 0.000000 0.000000
# 3 -0.012544 -0.004710 0.017177 0.000000 0.000000 0.000000
# 4 0.000000 0.000000 0.000000 0.049132 0.000000 0.000000
# 5 0.000000 0.000000 0.000000 0.000000 0.043408 0.000000
# 6 0.000000 0.000000 0.000000 0.000000 0.000000 0.062720
#
#
# Mechanical properties :
#
#
# Convention : Reuss Voigt Hill
#
# Bulk Modulus (GPa) = 54.32855 61.51262 57.92058
# Shear Modulus (GPa) = 19.02162 20.55714 19.78938
#
# Velocity S-wave (km/s) = 3.62048 3.76378 3.69282
# Velocity P-wave (km/s) = 7.41048 7.82794 7.62207
#
# Compressibility (1/GPa) = 0.01840653
#
# Stress axis : x y z
#
# Youngs Moduli (GPa) = 35.52296 68.46305 58.21662
#
# Poissons Ratio (x) = 0.24030 0.73030
# Poissons Ratio (y) = 0.12468 0.27418
# Poissons Ratio (z) = 0.44562 0.32243
#
# Static dielectric constant tensor:
#      x y z
#    x 1.491240 0.000000 0.000000 
#    y 0.000000 1.468700 0.000000 
#    z 0.000000 0.000000 1.489700 
# 
# From -- ./inp_files/14716.got.cif
#   From: 2010.05.17/outbox.cif.g08.bks.cpg/sg71_8_cif.got.tgz:14716.got - 2010.06.03 16:22:01.
