data_PCOD9517996
_publ_section_title
;
Structure prediction by ZEFSAII (Michael W. Deem and Ramdas Pophale) SiO2 
 PCOD9517996
Probable space group: I M M M
;
_chemical_formula_sum "Si O2"
_cell_formula_units_Z 120
_cell_length_a 7.742676
_cell_length_b 28.758900
_cell_length_c 27.597667
_cell_angle_alpha 90.000000
_cell_angle_beta 90.000000
_cell_angle_gamma 90.000000
_cell_volume 6145.195826
_symmetry_space_group_name_H-M "I M M M"
_symmetry_group_IT_number 71
_symmetry_cell_setting 'orthorhombic'
loop_
_space_group_symop_operation_xyz
x,y,z
-x,-y,z
x,-y,-z
-x,y,-z
-x,-y,-z
x,y,-z
-x,y,z
x,-y,z
1/2+x,1/2+y,1/2+z
1/2-x,1/2-y,1/2+z
1/2+x,1/2-y,1/2-z
1/2-x,1/2+y,1/2-z
1/2-x,1/2-y,1/2-z
1/2+x,1/2+y,1/2-z
1/2-x,1/2+y,1/2+z
1/2+x,1/2-y,1/2+z
loop_
_atom_site_type_symbol
_atom_site_label
_atom_site_fract_x
_atom_site_fract_y
_atom_site_fract_z
Si Si1 0.210881 0.447612 0.299070
Si Si2 0.295438 0.299701 0.445288
Si Si3 0.792025 0.357797 0.354577
Si Si4 0.297960 0.303142 0.944011
Si Si5 0.211497 0.607571 0.796535
Si Si6 0.707175 0.196950 0.239327
Si Si7 0.800932 0.397079 0.097098
Si Si8 0.288976 0.945712 0.500000
O O1 0.271306 0.500000 0.307188
O O2 0.267085 0.408965 0.338061
O O3 0.260224 0.427767 0.246230
O O4 0.000000 0.448239 0.299816
O O5 0.228976 0.308381 0.500000
O O6 0.500000 0.293845 0.448065
O O7 0.257845 0.339823 0.407136
O O8 0.222748 0.250040 0.427886
O O9 0.730529 0.321835 0.312919
O O10 0.000000 0.358151 0.352717
O O11 0.500000 0.314732 0.943486
O O12 0.204062 0.341858 0.912736
O O13 0.235479 0.305379 0.000000
O O14 0.266994 0.659085 0.779085
O O15 0.276108 0.594628 0.849868
O O16 0.000000 0.608004 0.798455
O O17 0.500000 0.193596 0.238558
O O18 0.750000 0.250000 0.250000
O O19 0.000000 0.412927 0.099431
O O20 0.724844 0.421149 0.049174
O O21 0.500000 0.941042 0.500000
O O22 0.247383 0.000000 0.500000
#
# Coordination Sequence:
#
# PCOD9517996 Si02
#       8
#    16  16  16  16  16  16  16   8
#     4   8  14  28  51  76 101 129 164 207 253 299
#     4  10  21  35  52  75 102 133 169 203 242 299
#     4   9  18  32  50  75 105 132 165 209 252 295
#     4  10  20  33  49  69  96 130 168 207 250 298
#     4   8  16  28  43  67  96 127 164 206 247 291
#     4   9  18  31  44  65  98 131 165 202 246 295
#     4  10  18  30  48  69  98 132 169 213 256 301
#     4   9  18  30  45  69  99 129 165 215 264 297
#
# _framework density 19.527450000000002
#
# number of rings (size 3 to 8) (size 9 to 14) (size 15 to 20)
#    0.000    2.867    0.667    2.400    1.867    2.400 
#    0.000    2.667    0.000    2.400    0.000    2.800 
#    0.000    0.000    0.000    0.000    0.000    0.000 
#
# Total GULP energy -334598.560505 kJ/mol
# GULP energy per Si atom -5576.642675 kJ/mol
# Density = 1.948301 g / cm^3
# Si number density = 19.527450 Si / 1000 Ang^3
#
#
#
# Elastic Constant Matrix: (Units=GPa)
#
#
# Indices 1 2 3 4 5 6 
#
# 1 30.8637 -0.5792 1.4131 0.0000 0.0000 0.0000
# 2 -0.5792 134.3994 65.3510 0.0000 0.0000 0.0000
# 3 1.4131 65.3510 115.9690 0.0000 0.0000 0.0000
# 4 0.0000 0.0000 0.0000 14.0793 0.0000 0.0000
# 5 0.0000 0.0000 0.0000 0.0000 5.0720 0.0000
# 6 0.0000 0.0000 0.0000 0.0000 0.0000 11.9556
#
#
#
# Elastic Compliance Matrix: (Units=1/GPa)
#
#
# Indices 1 2 3 4 5 6 
#
# 1 0.032439 0.000457 -0.000653 0.000000 0.000000 0.000000
# 2 0.000457 0.010255 -0.005785 0.000000 0.000000 0.000000
# 3 -0.000653 -0.005785 0.011891 0.000000 0.000000 0.000000
# 4 0.000000 0.000000 0.000000 0.071026 0.000000 0.000000
# 5 0.000000 0.000000 0.000000 0.000000 0.197160 0.000000
# 6 0.000000 0.000000 0.000000 0.000000 0.000000 0.083643
#
#
# Mechanical properties :
#
#
# Convention : Reuss Voigt Hill
#
# Bulk Modulus (GPa) = 23.46077 45.95577 34.70827
# Shear Modulus (GPa) = 11.55850 20.55786 16.05818
#
# Velocity S-wave (km/s) = 2.43556 3.24816 2.87076
# Velocity P-wave (km/s) = 4.46650 6.13615 5.36666
#
# Compressibility (1/GPa) = 0.04262434
#
# Stress axis : x y z
#
# Youngs Moduli (GPa) = 30.82709 97.51136 84.09931
#
# Poissons Ratio (x) = -0.04459 0.05491
# Poissons Ratio (y) = -0.01410 0.48648
# Poissons Ratio (z) = 0.02013 0.56406
#
# Static dielectric constant tensor:
#      x y z
#    x 1.743020 0.000000 0.000000 
#    y 0.000000 1.668390 0.000000 
#    z 0.000000 0.000000 1.699990 
# 
# From -- ./inp_files/63847.got.cif
#   From: 2010.05.17/outbox.cif.g08.bks.cpg/sg71_32_cif.got.tgz:63847.got - 2010.06.03 16:22:01.
