data_PCOD9517197
_publ_section_title
;
Structure prediction by ZEFSAII (Michael W. Deem and Ramdas Pophale) SiO2 
 PCOD9517197
Probable space group: F D D D
;
_chemical_formula_sum "Si O2"
_cell_formula_units_Z 44
_cell_length_a 12.000000
_cell_length_b 24.000000
_cell_length_c 30.000000
_cell_angle_alpha 90.000000
_cell_angle_beta 90.000000
_cell_angle_gamma 90.000000
_cell_volume 8640.000000
_symmetry_space_group_name_H-M "F D D D"
_symmetry_group_IT_number 70
_space_group.IT_coordinate_system_code '2'
_symmetry_cell_setting 'orthorhombic'
loop_
_space_group_symop_operation_xyz
x,y,z
1/4-x,1/4-y,z
x,1/4-y,1/4-z
1/4-x,y,1/4-z
-x,-y,-z
3/4+x,3/4+y,-z
-x,3/4+y,3/4+z
3/4+x,-y,3/4+z
x,1/2+y,1/2+z
1/4-x,3/4-y,1/2+z
x,3/4-y,3/4-z
1/4-x,1/2+y,3/4-z
-x,1/2-y,1/2-z
3/4+x,1/4+y,1/2-z
-x,1/4+y,1/4+z
3/4+x,1/2-y,1/4+z
1/2+x,y,1/2+z
3/4-x,1/4-y,1/2+z
1/2+x,1/4-y,3/4-z
3/4-x,y,3/4-z
1/2-x,-y,1/2-z
1/4+x,3/4+y,1/2-z
1/2-x,3/4+y,1/4+z
1/4+x,-y,1/4+z
1/2+x,1/2+y,z
3/4-x,3/4-y,z
1/2+x,3/4-y,1/4-z
3/4-x,1/2+y,1/4-z
1/2-x,1/2-y,-z
1/4+x,1/4+y,-z
1/2-x,1/4+y,3/4+z
1/4+x,1/2-y,3/4+z
loop_
_atom_site_type_symbol
_atom_site_label
_atom_site_fract_x
_atom_site_fract_y
_atom_site_fract_z
Si Si1 0.724688 0.732883 0.422547
Si Si2 0.495739 0.621727 0.035101
Si Si3 0.649243 0.282955 0.829590
Si Si4 0.625000 0.858368 0.625000
Si Si5 0.026516 0.078981 0.940970
Si Si6 0.327585 0.744465 0.754259
O O1 0.701374 0.775086 0.380167
O O2 0.776929 0.679875 0.396271
O O3 0.821293 0.746105 0.459298
O O4 0.619190 0.727210 0.457148
O O5 0.625000 0.625000 0.051189
O O6 0.412515 0.591861 0.070092
O O7 0.499542 0.579486 0.993121
O O8 0.456424 0.681620 0.013464
O O9 0.563948 0.230878 0.826536
O O10 0.731245 0.270485 0.786607
O O11 0.674687 0.896468 0.663470
O O12 0.125000 0.125000 0.935780
#
# Coordination Sequence:
#
# PCOD9517197 Si02
#       6
#    32  32  32  16  32  32
#     4  11  22  42  68  99 131 180 229 286 338 408
#     4  11  23  43  68  96 138 182 221 276 351 416
#     4  12  23  44  69  98 140 176 224 287 349 405
#     4  12  20  42  70  97 139 162 234 302 330 390
#     4  11  20  38  68  98 128 172 215 285 342 393
#     4  11  23  43  70  96 135 180 230 280 345 414
#
# _framework density 5.0925929999999999
#
# number of rings (size 3 to 8) (size 9 to 14) (size 15 to 20)
#    0.000    0.727    9.091    0.545    0.000    2.182 
#    3.273    3.636    4.000    0.000    0.000    0.000 
#    0.000    0.000    0.000    0.000    0.000    0.000 
#
# Total GULP energy -245282.520799 kJ/mol
# GULP energy per Si atom -5574.602745 kJ/mol
# Density = 0.508100 g / cm^3
# Si number density = 5.092593 Si / 1000 Ang^3
#
#
#
# Elastic Constant Matrix: (Units=GPa)
#
#
# Indices 1 2 3 4 5 6 
#
# 1 96.9229 37.1293 51.3230 0.0000 0.0000 0.0000
# 2 37.1293 60.2358 30.9856 0.0000 0.0000 0.0000
# 3 51.3230 30.9856 120.4049 0.0000 0.0000 0.0000
# 4 0.0000 0.0000 0.0000 22.5537 0.0000 0.0000
# 5 0.0000 0.0000 0.0000 0.0000 42.3886 0.0000
# 6 0.0000 0.0000 0.0000 0.0000 0.0000 38.4459
#
#
#
# Elastic Compliance Matrix: (Units=1/GPa)
#
#
# Indices 1 2 3 4 5 6 
#
# 1 0.015601 -0.007141 -0.004812 0.000000 0.000000 0.000000
# 2 -0.007141 0.022403 -0.002721 0.000000 0.000000 0.000000
# 3 -0.004812 -0.002721 0.011057 0.000000 0.000000 0.000000
# 4 0.000000 0.000000 0.000000 0.044339 0.000000 0.000000
# 5 0.000000 0.000000 0.000000 0.000000 0.023591 0.000000
# 6 0.000000 0.000000 0.000000 0.000000 0.000000 0.026011
#
#
# Mechanical properties :
#
#
# Convention : Reuss Voigt Hill
#
# Bulk Modulus (GPa) = 50.73166 57.38217 54.05691
# Shear Modulus (GPa) = 27.94506 31.21933 29.58219
#
# Velocity S-wave (km/s) = 3.70787 3.91907 3.81493
# Velocity P-wave (km/s) = 6.57949 6.97921 6.78230
#
# Compressibility (1/GPa) = 0.01971156
#
# Stress axis : x y z
#
# Youngs Moduli (GPa) = 64.09677 44.63663 90.44083
#
# Poissons Ratio (x) = 0.31876 0.43524
# Poissons Ratio (y) = 0.45773 0.24613
# Poissons Ratio (z) = 0.30846 0.12147
#
# Static dielectric constant tensor:
#      x y z
#    x 1.805750 0.000000 0.000000 
#    y 0.000000 1.724970 0.000000 
#    z 0.000000 0.000000 1.745150 
# 
# From -- ./inp_files/64751.got.cif
#   From: 2010.05.17/outbox.ucp.g08.bks.cvg/sg70_33_cif.got.tgz:64751.got - 2010.06.11 16:26:41.
