data_PCOD9517193
_publ_section_title
;
Structure prediction by ZEFSAII (Michael W. Deem and Ramdas Pophale) SiO2 
 PCOD9517193
Probable space group: F D D D
;
_chemical_formula_sum "Si O2"
_cell_formula_units_Z 40
_cell_length_a 21.000000
_cell_length_b 18.000000
_cell_length_c 21.000000
_cell_angle_alpha 90.000000
_cell_angle_beta 90.000000
_cell_angle_gamma 90.000000
_cell_volume 7938.000000
_symmetry_space_group_name_H-M "F D D D"
_symmetry_group_IT_number 70
_space_group.IT_coordinate_system_code '2'
_symmetry_cell_setting 'orthorhombic'
loop_
_space_group_symop_operation_xyz
x,y,z
1/4-x,1/4-y,z
x,1/4-y,1/4-z
1/4-x,y,1/4-z
-x,-y,-z
3/4+x,3/4+y,-z
-x,3/4+y,3/4+z
3/4+x,-y,3/4+z
x,1/2+y,1/2+z
1/4-x,3/4-y,1/2+z
x,3/4-y,3/4-z
1/4-x,1/2+y,3/4-z
-x,1/2-y,1/2-z
3/4+x,1/4+y,1/2-z
-x,1/4+y,1/4+z
3/4+x,1/2-y,1/4+z
1/2+x,y,1/2+z
3/4-x,1/4-y,1/2+z
1/2+x,1/4-y,3/4-z
3/4-x,y,3/4-z
1/2-x,-y,1/2-z
1/4+x,3/4+y,1/2-z
1/2-x,3/4+y,1/4+z
1/4+x,-y,1/4+z
1/2+x,1/2+y,z
3/4-x,3/4-y,z
1/2+x,3/4-y,1/4-z
3/4-x,1/2+y,1/4-z
1/2-x,1/2-y,-z
1/4+x,1/4+y,-z
1/2-x,1/4+y,3/4+z
1/4+x,1/2-y,3/4+z
loop_
_atom_site_type_symbol
_atom_site_label
_atom_site_fract_x
_atom_site_fract_y
_atom_site_fract_z
Si Si1 0.800303 0.082880 0.800303
Si Si2 0.645068 1.000000 0.354932
Si Si3 0.446258 0.845674 0.303742
Si Si4 0.423467 0.100668 0.223769
Si Si5 0.973769 0.399332 0.673467
O O1 0.749095 0.114517 0.749095
O O2 0.869363 0.105456 0.777229
O O3 0.777229 0.105456 0.869363
O O4 0.802673 0.993312 0.802673
O O5 0.685896 0.071858 0.334297
O O6 0.573265 0.031420 0.343740
O O7 0.665703 0.928142 0.314104
O O8 0.656260 0.968580 0.426735
O O9 0.461680 0.875000 0.375000
O O10 0.375000 0.875000 0.288320
O O11 0.491372 0.092127 0.258628
#
# Coordination Sequence:
#
# PCOD9517193 Si02
#       5
#    32  32  32  32  32
#     4  11  25  38  63 102 130 177 225 280 338 410
#     4  10  25  45  70  96 132 190 229 284 351 408
#     4  10  24  39  62  90 142 176 215 267 342 411
#     4  11  25  44  68  99 139 179 235 288 344 410
#     4  11  25  44  68  99 139 179 235 288 344 410
#
# _framework density 5.039053
#
# number of rings (size 3 to 8) (size 9 to 14) (size 15 to 20)
#    0.000    1.400    0.000    3.600   19.600    0.000 
#    0.000    0.000    0.000    2.400    0.000    0.000 
#    0.000    0.000    0.000    0.000    0.000    0.000 
#
# Total GULP energy -223502.631404 kJ/mol
# GULP energy per Si atom -5587.565785 kJ/mol
# Density = 0.502758 g / cm^3
# Si number density = 5.039053 Si / 1000 Ang^3
#
#
#
# Elastic Constant Matrix: (Units=GPa)
#
#
# Indices 1 2 3 4 5 6 
#
# 1 116.5262 42.1506 72.6726 0.0000 0.0000 0.0000
# 2 42.1506 93.4180 42.1506 0.0000 0.0000 0.0000
# 3 72.6726 42.1506 116.5261 0.0000 0.0000 0.0000
# 4 0.0000 0.0000 0.0000 35.0079 0.0000 0.0000
# 5 0.0000 0.0000 0.0000 0.0000 48.2659 0.0000
# 6 0.0000 0.0000 0.0000 0.0000 0.0000 35.0079
#
#
#
# Elastic Compliance Matrix: (Units=1/GPa)
#
#
# Indices 1 2 3 4 5 6 
#
# 1 0.014709 -0.002985 -0.008094 0.000000 0.000000 0.000000
# 2 -0.002985 0.013398 -0.002985 0.000000 0.000000 0.000000
# 3 -0.008094 -0.002985 0.014709 0.000000 0.000000 0.000000
# 4 0.000000 0.000000 0.000000 0.028565 0.000000 0.000000
# 5 0.000000 0.000000 0.000000 0.000000 0.020719 0.000000
# 6 0.000000 0.000000 0.000000 0.000000 0.000000 0.028565
#
#
# Mechanical properties :
#
#
# Convention : Reuss Voigt Hill
#
# Bulk Modulus (GPa) = 68.07631 71.15758 69.61695
# Shear Modulus (GPa) = 32.53320 34.95612 33.74466
#
# Velocity S-wave (km/s) = 4.02189 4.16896 4.09609
# Velocity P-wave (km/s) = 7.44413 7.65202 7.54879
#
# Compressibility (1/GPa) = 0.01468940
#
# Stress axis : x y z
#
# Youngs Moduli (GPa) = 67.98421 74.63697 67.98413
#
# Poissons Ratio (x) = 0.22278 0.55025
# Poissons Ratio (y) = 0.20293 0.20293
# Poissons Ratio (z) = 0.55026 0.22279
#
# Static dielectric constant tensor:
#      x y z
#    x 1.756430 0.000000 0.000000 
#    y 0.000000 1.687570 0.000000 
#    z 0.000000 0.000000 1.756430 
# 
# From -- ./inp_files/44721.got.cif
#   From: 2010.05.17/outbox.ucp.g08.bks.cvg/sg70_23_cif.got.tgz:44721.got - 2010.06.11 16:26:41.
