data_PCOD9517483
_publ_section_title
;
Structure prediction by ZEFSAII (Michael W. Deem and Ramdas Pophale) SiO2 
 PCOD9517483
Probable space group: I M M M
;
_chemical_formula_sum "Si O2"
_cell_formula_units_Z 112
_cell_length_a 15.407184
_cell_length_b 18.026902
_cell_length_c 24.678174
_cell_angle_alpha 90.000000
_cell_angle_beta 90.000000
_cell_angle_gamma 90.000000
_cell_volume 6854.209727
_symmetry_space_group_name_H-M "I M M M"
_symmetry_group_IT_number 71
_symmetry_cell_setting 'orthorhombic'
loop_
_space_group_symop_operation_xyz
x,y,z
-x,-y,z
x,-y,-z
-x,y,-z
-x,-y,-z
x,y,-z
-x,y,z
x,-y,z
1/2+x,1/2+y,1/2+z
1/2-x,1/2-y,1/2+z
1/2+x,1/2-y,1/2-z
1/2-x,1/2+y,1/2-z
1/2-x,1/2-y,1/2-z
1/2+x,1/2+y,1/2-z
1/2-x,1/2+y,1/2+z
1/2+x,1/2-y,1/2+z
loop_
_atom_site_type_symbol
_atom_site_label
_atom_site_fract_x
_atom_site_fract_y
_atom_site_fract_z
Si Si1 0.209967 0.916958 0.935524
Si Si2 0.682621 0.309412 0.347249
Si Si3 0.638476 0.262772 0.142386
Si Si4 0.094497 0.631484 0.564046
Si Si5 0.244520 0.585848 0.744656
Si Si6 0.902107 0.704132 0.236736
Si Si7 0.402048 0.417828 0.829685
O O1 0.160763 0.853450 0.901852
O O2 0.314459 0.909894 0.924583
O O3 0.182252 0.000000 0.920218
O O4 0.198886 0.907901 0.000000
O O5 0.758647 0.250793 0.360361
O O6 0.725283 0.373594 0.309966
O O7 0.615689 0.265221 0.309716
O O8 0.598126 0.204615 0.100836
O O9 0.611643 0.241926 0.204157
O O10 0.611895 0.347090 0.132392
O O11 0.096990 0.648707 0.500000
O O12 0.000000 0.594467 0.574320
O O13 0.219549 0.500000 0.736584
O O14 0.167119 0.637466 0.766888
O O15 0.327132 0.587591 0.784651
O O16 0.000000 0.676613 0.233466
O O17 0.500000 0.412225 0.806576
O O18 0.394814 0.500000 0.854682
#
# Coordination Sequence:
#
# PCOD9517483 Si02
#       7
#    16  16  16  16  16  16  16
#     4   9  18  31  47  66  91 126 160 193 238 283
#     4  10  18  31  47  69  92 123 159 196 234 284
#     4  10  17  31  46  63  93 125 157 196 232 277
#     4   9  17  27  43  68  94 124 161 195 228 272
#     4  10  19  31  45  68  98 126 156 193 236 283
#     4  11  20  31  48  69  93 126 161 197 244 290
#     4  10  18  27  43  66  91 121 154 187 227 276
#
# _framework density 16.340322
#
# number of rings (size 3 to 8) (size 9 to 14) (size 15 to 20)
#    0.000    2.143    2.857    2.571    0.000    0.571 
#    0.000    1.429    0.000    7.286    0.000    3.000 
#    0.000    0.571    0.000    1.286    0.000    0.000 
#
# Total GULP energy -311825.607340 kJ/mol
# GULP energy per Si atom -5568.314417 kJ/mol
# Density = 1.630313 g / cm^3
# Si number density = 16.340322 Si / 1000 Ang^3
#
#
#
# Elastic Constant Matrix: (Units=GPa)
#
#
# Indices 1 2 3 4 5 6 
#
# 1 40.8610 23.3764 8.4001 0.0000 0.0000 0.0000
# 2 23.3764 114.9755 22.6990 0.0000 0.0000 0.0000
# 3 8.4001 22.6990 30.3146 0.0000 0.0000 0.0000
# 4 0.0000 0.0000 0.0000 20.1126 0.0000 0.0000
# 5 0.0000 0.0000 0.0000 0.0000 10.3712 0.0000
# 6 0.0000 0.0000 0.0000 0.0000 0.0000 15.0295
#
#
#
# Elastic Compliance Matrix: (Units=1/GPa)
#
#
# Indices 1 2 3 4 5 6 
#
# 1 0.028127 -0.004905 -0.004121 0.000000 0.000000 0.000000
# 2 -0.004905 0.011062 -0.006924 0.000000 0.000000 0.000000
# 3 -0.004121 -0.006924 0.039314 0.000000 0.000000 0.000000
# 4 0.000000 0.000000 0.000000 0.049720 0.000000 0.000000
# 5 0.000000 0.000000 0.000000 0.000000 0.096421 0.000000
# 6 0.000000 0.000000 0.000000 0.000000 0.000000 0.066536
#
#
# Mechanical properties :
#
#
# Convention : Reuss Voigt Hill
#
# Bulk Modulus (GPa) = 21.45806 32.78913 27.12359
# Shear Modulus (GPa) = 14.76617 17.88104 16.32360
#
# Velocity S-wave (km/s) = 3.00936 3.31159 3.16409
# Velocity P-wave (km/s) = 5.02349 5.89340 5.47575
#
# Compressibility (1/GPa) = 0.04660254
#
# Stress axis : x y z
#
# Youngs Moduli (GPa) = 35.55361 90.40240 25.43648
#
# Poissons Ratio (x) = 0.44342 0.10483
# Poissons Ratio (y) = 0.17439 0.17611
# Poissons Ratio (z) = 0.14652 0.62591
#
# Static dielectric constant tensor:
#      x y z
#    x 1.574470 0.000000 0.000000 
#    y 0.000000 1.567480 0.000000 
#    z 0.000000 0.000000 1.552440 
# 
# From -- ./inp_files/60845.got.cif
#   From: 2010.05.17/outbox.cif.g08.bks.cpg/sg71_31_cif.got.tgz:60845.got - 2010.06.03 16:22:01.
