data_PCOD9517913
_publ_section_title
;
Structure prediction by ZEFSAII (Michael W. Deem and Ramdas Pophale) SiO2 
 PCOD9517913
Probable space group: I M M M
;
_chemical_formula_sum "Si O2"
_cell_formula_units_Z 88
_cell_length_a 9.026130
_cell_length_b 20.302775
_cell_length_c 24.660804
_cell_angle_alpha 90.000000
_cell_angle_beta 90.000000
_cell_angle_gamma 90.000000
_cell_volume 4519.227635
_symmetry_space_group_name_H-M "I M M M"
_symmetry_group_IT_number 71
_symmetry_cell_setting 'orthorhombic'
loop_
_space_group_symop_operation_xyz
x,y,z
-x,-y,z
x,-y,-z
-x,y,-z
-x,-y,-z
x,y,-z
-x,y,z
x,-y,z
1/2+x,1/2+y,1/2+z
1/2-x,1/2-y,1/2+z
1/2+x,1/2-y,1/2-z
1/2-x,1/2+y,1/2-z
1/2-x,1/2-y,1/2-z
1/2+x,1/2+y,1/2-z
1/2-x,1/2+y,1/2+z
1/2+x,1/2-y,1/2+z
loop_
_atom_site_type_symbol
_atom_site_label
_atom_site_fract_x
_atom_site_fract_y
_atom_site_fract_z
Si Si1 0.750518 0.500000 0.275299
Si Si2 0.824291 0.738316 0.939811
Si Si3 0.167301 0.000000 0.102642
Si Si4 0.320536 0.138442 0.344255
Si Si5 0.834797 0.647246 0.725561
Si Si6 0.678159 0.862409 0.894537
Si Si7 0.665503 0.500000 0.844576
O O1 0.664457 0.500000 0.331587
O O2 0.841940 0.432650 0.273563
O O3 0.656717 0.500000 0.220919
O O4 0.782570 0.688497 0.891976
O O5 0.732763 0.805041 0.933298
O O6 0.000000 0.752889 0.934054
O O7 0.801651 0.710031 0.000000
O O8 0.253755 0.067163 0.089194
O O9 0.000000 0.000000 0.081442
O O10 0.500000 0.132986 0.340574
O O11 0.266462 0.163104 0.284421
O O12 0.253202 0.066948 0.357208
O O13 0.765672 0.658811 0.666375
O O14 0.000000 0.676041 0.724695
O O15 0.500000 0.867800 0.892047
O O16 0.500000 0.500000 0.867478
#
# Coordination Sequence:
#
# PCOD9517913 Si02
#       7
#     8  16   8  16  16  16   8
#     4   8  14  24  42  72 109 144 170 199 248 306
#     4  10  22  40  58  75  99 136 182 226 265 308
#     4  10  18  31  53  80 110 142 175 210 251 305
#     4   9  18  34  55  77 105 142 178 212 256 311
#     4   8  14  26  47  76 107 137 169 206 252 308
#     4  10  20  34  54  81 111 140 171 211 261 315
#     4  10  18  29  49  80 112 137 170 216 260 306
#
# _framework density 19.472352999999998
#
# number of rings (size 3 to 8) (size 9 to 14) (size 15 to 20)
#    0.000    2.727    0.000    1.636    0.000    6.182 
#    0.000    1.818    0.000    5.455    0.000    0.000 
#    0.000    0.000    0.000    0.000    0.000    0.000 
#
# Total GULP energy -245057.327548 kJ/mol
# GULP energy per Si atom -5569.484717 kJ/mol
# Density = 1.942803 g / cm^3
# Si number density = 19.472353 Si / 1000 Ang^3
#
#
#
# Elastic Constant Matrix: (Units=GPa)
#
#
# Indices 1 2 3 4 5 6 
#
# 1 46.8464 17.3564 3.7795 0.0000 0.0000 0.0000
# 2 17.3564 58.2061 10.6223 0.0000 0.0000 0.0000
# 3 3.7795 10.6223 51.3950 0.0000 0.0000 0.0000
# 4 0.0000 0.0000 0.0000 -9.1841 0.0000 0.0000
# 5 0.0000 0.0000 0.0000 0.0000 6.7447 0.0000
# 6 0.0000 0.0000 0.0000 0.0000 0.0000 18.8645
#
#
#
# Elastic Compliance Matrix: (Units=1/GPa)
#
#
# Indices 1 2 3 4 5 6 
#
# 1 0.024002 -0.007103 -0.000297 0.000000 0.000000 0.000000
# 2 -0.007103 0.019956 -0.003602 0.000000 0.000000 0.000000
# 3 -0.000297 -0.003602 0.020223 0.000000 0.000000 0.000000
# 4 0.000000 0.000000 0.000000 -0.108883 0.000000 0.000000
# 5 0.000000 0.000000 0.000000 0.000000 0.148264 0.000000
# 6 0.000000 0.000000 0.000000 0.000000 0.000000 0.053010
#
#
# Mechanical properties :
#
#
# Convention : Reuss Voigt Hill
#
# Bulk Modulus (GPa) = 23.70958 24.44042 24.07500
# Shear Modulus (GPa) = 25.95582 11.59762 18.77672
#
# Velocity S-wave (km/s) = 3.65493 2.44313 3.10865
# Velocity P-wave (km/s) = 5.47849 4.53179 5.02747
#
# Compressibility (1/GPa) = 0.04217705
#
# Stress axis : x y z
#
# Youngs Moduli (GPa) = 41.66337 50.11096 49.44747
#
# Poissons Ratio (x) = 0.35593 0.01469
# Poissons Ratio (y) = 0.29593 0.17812
# Poissons Ratio (z) = 0.01237 0.18051
#
# Static dielectric constant tensor:
#      x y z
#    x 1.696170 0.000000 0.000000 
#    y 0.000000 1.659570 0.000000 
#    z 0.000000 0.000000 1.722570 
# 
# From -- ./inp_files/57600.got.cif
#   From: 2010.05.17/outbox.cif.g08.bks.cpg/sg71_29_cif.got.tgz:57600.got - 2010.06.03 16:22:01.
