data_PCOD9517638
_publ_section_title
;
Structure prediction by ZEFSAII (Michael W. Deem and Ramdas Pophale) SiO2 
 PCOD9517638
Probable space group: I M M M
;
_chemical_formula_sum "Si O2"
_cell_formula_units_Z 80
_cell_length_a 27.323886
_cell_length_b 24.501530
_cell_length_c 8.219448
_cell_angle_alpha 90.000000
_cell_angle_beta 90.000000
_cell_angle_gamma 90.000000
_cell_volume 5502.731492
_symmetry_space_group_name_H-M "I M M M"
_symmetry_group_IT_number 71
_symmetry_cell_setting 'orthorhombic'
loop_
_space_group_symop_operation_xyz
x,y,z
-x,-y,z
x,-y,-z
-x,y,-z
-x,-y,-z
x,y,-z
-x,y,z
x,-y,z
1/2+x,1/2+y,1/2+z
1/2-x,1/2-y,1/2+z
1/2+x,1/2-y,1/2-z
1/2-x,1/2+y,1/2-z
1/2-x,1/2-y,1/2-z
1/2+x,1/2+y,1/2-z
1/2-x,1/2+y,1/2+z
1/2+x,1/2-y,1/2+z
loop_
_atom_site_type_symbol
_atom_site_label
_atom_site_fract_x
_atom_site_fract_y
_atom_site_fract_z
Si Si1 0.208262 0.000000 0.188706
Si Si2 0.702792 0.784773 0.696008
Si Si3 0.055132 0.114436 0.804543
Si Si4 0.240188 0.885534 0.694959
Si Si5 0.901457 0.000000 0.689858
Si Si6 0.645642 0.684328 0.302239
O O1 0.237667 0.054741 0.229640
O O2 0.157035 0.000000 0.285357
O O3 0.194590 0.000000 0.000000
O O4 0.701566 0.786649 0.500000
O O5 0.750000 0.750000 0.750000
O O6 0.715269 0.846125 0.751337
O O7 0.657687 0.746605 0.749355
O O8 0.094638 0.158755 0.745050
O O9 0.000000 0.120817 0.740689
O O10 0.075835 0.054535 0.765714
O O11 0.053210 0.119500 0.000000
O O12 0.241940 0.890489 0.500000
O O13 0.189892 0.854185 0.741581
O O14 0.912689 0.000000 0.500000
O O15 0.646684 0.682543 0.500000
#
# Coordination Sequence:
#
# PCOD9517638 Si02
#       6
#     8  16  16  16   8  16
#     4  12  22  31  43  58  80 109 137 167 206 252
#     4   8  15  26  41  60  79 100 128 161 196 238
#     4  10  20  32  45  60  80 108 141 173 205 241
#     4  10  18  28  42  61  81 101 131 168 202 236
#     4  12  23  33  44  57  76 104 142 183 217 241
#     4   9  16  28  44  59  79 107 134 162 200 241
#
# _framework density 14.538233999999999
#
# number of rings (size 3 to 8) (size 9 to 14) (size 15 to 20)
#    0.000    2.200    2.000    2.700    0.000    2.400 
#    0.000    0.000    0.000    0.000    0.000    0.000 
#    0.000    0.000    0.000    0.900    0.000   24.400 
#
# Total GULP energy -222827.267684 kJ/mol
# GULP energy per Si atom -5570.681692 kJ/mol
# Density = 1.450514 g / cm^3
# Si number density = 14.538234 Si / 1000 Ang^3
#
#
#
# Elastic Constant Matrix: (Units=GPa)
#
#
# Indices 1 2 3 4 5 6 
#
# 1 72.1924 61.1679 0.6935 0.0000 0.0000 0.0000
# 2 61.1679 110.5387 -0.1035 0.0000 0.0000 0.0000
# 3 0.6935 -0.1035 9.3034 0.0000 0.0000 0.0000
# 4 0.0000 0.0000 0.0000 13.9390 0.0000 0.0000
# 5 0.0000 0.0000 0.0000 0.0000 9.8260 0.0000
# 6 0.0000 0.0000 0.0000 0.0000 0.0000 -5.1234
#
#
#
# Elastic Compliance Matrix: (Units=1/GPa)
#
#
# Indices 1 2 3 4 5 6 
#
# 1 0.026121 -0.014456 -0.002108 0.000000 0.000000 0.000000
# 2 -0.014456 0.017047 0.001267 0.000000 0.000000 0.000000
# 3 -0.002108 0.001267 0.107659 0.000000 0.000000 0.000000
# 4 0.000000 0.000000 0.000000 0.071741 0.000000 0.000000
# 5 0.000000 0.000000 0.000000 0.000000 0.101770 0.000000
# 6 0.000000 0.000000 0.000000 0.000000 0.000000 -0.195183
#
#
# Mechanical properties :
#
#
# Convention : Reuss Voigt Hill
#
# Bulk Modulus (GPa) = 8.31716 35.06113 21.68915
# Shear Modulus (GPa) = 25.02167 12.41344 18.71756
#
# Velocity S-wave (km/s) = 4.15311 2.92524 3.59203
# Velocity P-wave (km/s) = 5.36014 5.96475 5.67051
#
# Compressibility (1/GPa) = 0.12023332
#
# Stress axis : x y z
#
# Youngs Moduli (GPa) = 38.28390 58.66044 9.28859
#
# Poissons Ratio (x) = 0.84800 0.01958
# Poissons Ratio (y) = 0.55344 -0.01177
# Poissons Ratio (z) = 0.08070 -0.07434
#
# Static dielectric constant tensor:
#      x y z
#    x 1.480260 0.000000 0.000000 
#    y 0.000000 1.504950 0.000000 
#    z 0.000000 0.000000 1.501830 
# 
# From -- ./inp_files/11279.got.cif
#   From: 2010.05.17/outbox.cif.g08.bks.cpg/sg71_6_cif.got.tgz:11279.got - 2010.06.03 16:22:01.
