data_PCOD9517978
_publ_section_title
;
Structure prediction by ZEFSAII (Michael W. Deem and Ramdas Pophale) SiO2 
 PCOD9517978
Probable space group: I M M M
;
_chemical_formula_sum "Si O2"
_cell_formula_units_Z 72
_cell_length_a 8.343520
_cell_length_b 19.866909
_cell_length_c 28.127275
_cell_angle_alpha 90.000000
_cell_angle_beta 90.000000
_cell_angle_gamma 90.000000
_cell_volume 4662.375770
_symmetry_space_group_name_H-M "I M M M"
_symmetry_group_IT_number 71
_symmetry_cell_setting 'orthorhombic'
loop_
_space_group_symop_operation_xyz
x,y,z
-x,-y,z
x,-y,-z
-x,y,-z
-x,-y,-z
x,y,-z
-x,y,z
x,-y,z
1/2+x,1/2+y,1/2+z
1/2-x,1/2-y,1/2+z
1/2+x,1/2-y,1/2-z
1/2-x,1/2+y,1/2-z
1/2-x,1/2-y,1/2-z
1/2+x,1/2+y,1/2-z
1/2-x,1/2+y,1/2+z
1/2+x,1/2-y,1/2+z
loop_
_atom_site_type_symbol
_atom_site_label
_atom_site_fract_x
_atom_site_fract_y
_atom_site_fract_z
Si Si1 0.311926 0.121104 0.898353
Si Si2 0.808576 0.780802 0.175278
Si Si3 0.194716 0.647696 0.229057
Si Si4 0.192584 0.079330 0.000000
Si Si5 0.816426 0.000000 0.836221
Si Si6 0.313027 0.000000 0.732933
O O1 0.500000 0.106758 0.894705
O O2 0.272490 0.190807 0.872003
O O3 0.257845 0.114382 0.952611
O O4 0.217528 0.064548 0.868574
O O5 0.760988 0.705632 0.191523
O O6 0.759802 0.828280 0.219796
O O7 0.000000 0.783162 0.169853
O O8 0.253342 0.572504 0.217220
O O9 0.000000 0.646738 0.232551
O O10 0.000000 0.081445 0.000000
O O11 0.240633 0.000000 0.000000
O O12 0.704783 0.000000 0.790115
O O13 0.000000 0.000000 0.819817
O O14 0.500000 0.000000 0.719724
#
# Coordination Sequence:
#
# PCOD9517978 Si02
#       6
#    16  16  16   8   8   8
#     4  12  23  35  50  67  92 126 160 197 237 280
#     4  10  19  31  46  66  93 125 160 196 235 279
#     4   9  18  30  46  67  93 124 158 198 239 279
#     4  11  23  37  53  71  92 119 156 201 238 272
#     4  12  22  31  45  68  92 124 162 199 236 277
#     4  10  18  30  47  69  94 123 161 200 239 281
#
# _framework density 15.442769999999999
#
# number of rings (size 3 to 8) (size 9 to 14) (size 15 to 20)
#    0.000    1.444    3.333    4.000    0.000    1.333 
#    0.000    0.000    0.000    0.000    0.000    0.000 
#    0.000    0.889    0.000   10.444    0.000    2.000 
#
# Total GULP energy -200936.076980 kJ/mol
# GULP energy per Si atom -5581.557694 kJ/mol
# Density = 1.540762 g / cm^3
# Si number density = 15.442770 Si / 1000 Ang^3
#
#
#
# Elastic Constant Matrix: (Units=GPa)
#
#
# Indices 1 2 3 4 5 6 
#
# 1 32.1307 8.9560 5.9613 0.0000 0.0000 0.0000
# 2 8.9560 122.8494 40.8364 0.0000 0.0000 0.0000
# 3 5.9613 40.8364 75.5587 0.0000 0.0000 0.0000
# 4 0.0000 0.0000 0.0000 15.2909 0.0000 0.0000
# 5 0.0000 0.0000 0.0000 0.0000 19.7895 0.0000
# 6 0.0000 0.0000 0.0000 0.0000 0.0000 15.7845
#
#
#
# Elastic Compliance Matrix: (Units=1/GPa)
#
#
# Indices 1 2 3 4 5 6 
#
# 1 0.031914 -0.001816 -0.001536 0.000000 0.000000 0.000000
# 2 -0.001816 0.010026 -0.005275 0.000000 0.000000 0.000000
# 3 -0.001536 -0.005275 0.016207 0.000000 0.000000 0.000000
# 4 0.000000 0.000000 0.000000 0.065398 0.000000 0.000000
# 5 0.000000 0.000000 0.000000 0.000000 0.050532 0.000000
# 6 0.000000 0.000000 0.000000 0.000000 0.000000 0.063353
#
#
# Mechanical properties :
#
#
# Convention : Reuss Voigt Hill
#
# Bulk Modulus (GPa) = 24.45481 38.00513 31.22997
# Shear Modulus (GPa) = 18.63470 21.82533 20.23001
#
# Velocity S-wave (km/s) = 3.47752 3.76347 3.62332
# Velocity P-wave (km/s) = 5.65635 6.59914 6.14585
#
# Compressibility (1/GPa) = 0.04089175
#
# Stress axis : x y z
#
# Youngs Moduli (GPa) = 31.33407 99.74052 61.70138
#
# Poissons Ratio (x) = 0.18112 0.09480
# Poissons Ratio (y) = 0.05690 0.32550
# Poissons Ratio (z) = 0.04814 0.52617
#
# Static dielectric constant tensor:
#      x y z
#    x 1.525970 0.000000 0.000000 
#    y 0.000000 1.557590 0.000000 
#    z 0.000000 0.000000 1.479840 
# 
# From -- ./inp_files/12347.got.cif
#   From: 2010.05.17/outbox.cif.g08.bks.cpg/sg71_7_cif.got.tgz:12347.got - 2010.06.03 16:22:01.
