data_PCOD9517630
_publ_section_title
;
Structure prediction by ZEFSAII (Michael W. Deem and Ramdas Pophale) SiO2 
 PCOD9517630
Probable space group: I M M M
;
_chemical_formula_sum "Si O2"
_cell_formula_units_Z 88
_cell_length_a 8.722863
_cell_length_b 24.684056
_cell_length_c 31.453438
_cell_angle_alpha 90.000000
_cell_angle_beta 90.000000
_cell_angle_gamma 90.000000
_cell_volume 6772.417095
_symmetry_space_group_name_H-M "I M M M"
_symmetry_group_IT_number 71
_symmetry_cell_setting 'orthorhombic'
loop_
_space_group_symop_operation_xyz
x,y,z
-x,-y,z
x,-y,-z
-x,y,-z
-x,-y,-z
x,y,-z
-x,y,z
x,-y,z
1/2+x,1/2+y,1/2+z
1/2-x,1/2-y,1/2+z
1/2+x,1/2-y,1/2-z
1/2-x,1/2+y,1/2-z
1/2-x,1/2-y,1/2-z
1/2+x,1/2+y,1/2-z
1/2-x,1/2+y,1/2+z
1/2+x,1/2-y,1/2+z
loop_
_atom_site_type_symbol
_atom_site_label
_atom_site_fract_x
_atom_site_fract_y
_atom_site_fract_z
Si Si1 0.315774 0.780491 0.708964
Si Si2 0.815869 0.821866 0.838821
Si Si3 0.821686 0.000000 0.762394
Si Si4 0.186727 0.436696 0.500000
Si Si5 0.315985 0.116219 0.244346
Si Si6 0.679333 0.500000 0.635576
Si Si7 0.683567 0.894819 0.091349
O O1 0.500000 0.779145 0.710404
O O2 0.250000 0.750000 0.750000
O O3 0.270636 0.740758 0.670480
O O4 0.271212 0.842735 0.717232
O O5 0.751872 0.858330 0.799505
O O6 0.753263 0.844639 0.883021
O O7 0.000000 0.826714 0.838090
O O8 0.743688 0.944157 0.748316
O O9 0.811916 0.000000 0.813699
O O10 0.000000 0.000000 0.750440
O O11 0.237359 0.500000 0.500000
O O12 0.233960 0.405802 0.542854
O O13 0.000000 0.438475 0.500000
O O14 0.500000 0.115776 0.240129
O O15 0.500000 0.500000 0.623452
O O16 0.761880 0.552440 0.617087
O O17 0.500000 0.891264 0.092167
#
# Coordination Sequence:
#
# PCOD9517630 Si02
#       7
#    16  16   8   8  16   8  16
#     4   8  16  28  41  56  75  97 121 153 190 225
#     4  10  18  29  42  58  79  97 119 158 201 232
#     4  11  21  29  38  56  82 105 124 158 204 231
#     4   9  18  32  44  56  74  98 126 163 202 233
#     4  10  18  28  42  58  74  99 132 157 183 227
#     4  11  21  30  40  55  77  99 124 160 203 239
#     4  11  20  31  46  58  71  96 131 163 197 239
#
# _framework density 12.993884
#
# number of rings (size 3 to 8) (size 9 to 14) (size 15 to 20)
#    0.000    2.091    2.727    2.182    0.000    2.182 
#    0.000    2.273    0.000    0.000    0.000    0.000 
#    0.000    0.000    0.000    0.000    0.000    0.909 
#
# Total GULP energy -245061.181811 kJ/mol
# GULP energy per Si atom -5569.572314 kJ/mol
# Density = 1.296431 g / cm^3
# Si number density = 12.993884 Si / 1000 Ang^3
#
#
#
# Elastic Constant Matrix: (Units=GPa)
#
#
# Indices 1 2 3 4 5 6 
#
# 1 40.0941 34.0707 22.7797 0.0000 0.0000 0.0000
# 2 34.0707 111.3711 53.6532 0.0000 0.0000 0.0000
# 3 22.7797 53.6532 66.7687 0.0000 0.0000 0.0000
# 4 0.0000 0.0000 0.0000 17.1384 0.0000 0.0000
# 5 0.0000 0.0000 0.0000 0.0000 12.0049 0.0000
# 6 0.0000 0.0000 0.0000 0.0000 0.0000 13.4520
#
#
#
# Elastic Compliance Matrix: (Units=1/GPa)
#
#
# Indices 1 2 3 4 5 6 
#
# 1 0.034867 -0.008053 -0.005424 0.000000 0.000000 0.000000
# 2 -0.008053 0.016511 -0.010520 0.000000 0.000000 0.000000
# 3 -0.005424 -0.010520 0.025281 0.000000 0.000000 0.000000
# 4 0.000000 0.000000 0.000000 0.058348 0.000000 0.000000
# 5 0.000000 0.000000 0.000000 0.000000 0.083299 0.000000
# 6 0.000000 0.000000 0.000000 0.000000 0.000000 0.074338
#
#
# Mechanical properties :
#
#
# Convention : Reuss Voigt Hill
#
# Bulk Modulus (GPa) = 34.88744 48.80456 41.84600
# Shear Modulus (GPa) = 14.27783 15.70109 14.98946
#
# Velocity S-wave (km/s) = 3.31843 3.47990 3.40012
# Velocity P-wave (km/s) = 6.44903 7.33399 6.90570
#
# Compressibility (1/GPa) = 0.02866361
#
# Stress axis : x y z
#
# Youngs Moduli (GPa) = 28.68082 60.56728 39.55527
#
# Poissons Ratio (x) = 0.48776 0.21456
# Poissons Ratio (y) = 0.23097 0.41611
# Poissons Ratio (z) = 0.15557 0.63716
#
# Static dielectric constant tensor:
#      x y z
#    x 1.440380 0.000000 0.000000 
#    y 0.000000 1.424160 0.000000 
#    z 0.000000 0.000000 1.415360 
# 
# From -- ./inp_files/13573.got.cif
#   From: 2010.05.17/outbox.cif.g08.bks.cpg/sg71_7_cif.got.tgz:13573.got - 2010.06.03 16:22:01.
