data_PCOD9517815
_publ_section_title
;
Structure prediction by ZEFSAII (Michael W. Deem and Ramdas Pophale) SiO2 
 PCOD9517815
Probable space group: I M M M
;
_chemical_formula_sum "Si O2"
_cell_formula_units_Z 88
_cell_length_a 15.723036
_cell_length_b 21.757109
_cell_length_c 18.700763
_cell_angle_alpha 90.000000
_cell_angle_beta 90.000000
_cell_angle_gamma 90.000000
_cell_volume 6397.303024
_symmetry_space_group_name_H-M "I M M M"
_symmetry_group_IT_number 71
_symmetry_cell_setting 'orthorhombic'
loop_
_space_group_symop_operation_xyz
x,y,z
-x,-y,z
x,-y,-z
-x,y,-z
-x,-y,-z
x,y,-z
-x,y,z
x,-y,z
1/2+x,1/2+y,1/2+z
1/2-x,1/2-y,1/2+z
1/2+x,1/2-y,1/2-z
1/2-x,1/2+y,1/2-z
1/2-x,1/2-y,1/2-z
1/2+x,1/2+y,1/2-z
1/2-x,1/2+y,1/2+z
1/2+x,1/2-y,1/2+z
loop_
_atom_site_type_symbol
_atom_site_label
_atom_site_fract_x
_atom_site_fract_y
_atom_site_fract_z
Si Si1 0.500000 0.074166 0.419280
Si Si2 0.600506 0.766951 0.917227
Si Si3 0.824778 0.134700 0.585294
Si Si4 0.831143 0.425208 0.169446
Si Si5 0.000000 0.929950 0.586698
Si Si6 0.102967 0.500000 0.580542
Si Si7 0.102207 0.385308 0.679051
O O1 0.500000 0.098496 0.500000
O O2 0.414942 0.090438 0.376899
O O3 0.500000 0.000000 0.423104
O O4 0.500000 0.749379 0.911357
O O5 0.658932 0.707427 0.905740
O O6 0.617075 0.820937 0.860951
O O7 0.611595 0.788040 0.000000
O O8 0.811477 0.123276 0.500000
O O9 0.749084 0.105124 0.630307
O O10 0.913433 0.103241 0.607885
O O11 0.823490 0.500000 0.173147
O O12 0.848088 0.397605 0.247855
O O13 0.000000 0.929307 0.500000
O O14 0.000000 0.000000 0.611170
O O15 0.136112 0.500000 0.500000
O O16 0.126224 0.439485 0.624325
O O17 0.000000 0.500000 0.576683
O O18 0.000000 0.390383 0.693152
#
# Coordination Sequence:
#
# PCOD9517815 Si02
#       7
#     8  16  16  16   8   8  16
#     4   9  18  30  43  58  84 124 165 193 217 252
#     4   9  17  31  49  68  91 119 154 193 233 284
#     4  10  19  31  47  67  91 121 159 194 230 276
#     4  11  20  30  45  66  94 126 157 196 229 268
#     4   9  16  28  45  64  86 113 148 193 235 269
#     4   9  16  26  44  68  90 117 154 191 229 278
#     4  10  18  29  46  66  93 124 153 189 234 278
#
# _framework density 13.755796
#
# number of rings (size 3 to 8) (size 9 to 14) (size 15 to 20)
#    0.000    2.273    2.727    1.636    0.000    4.727 
#    0.000    0.000    0.000    0.000    0.000    0.000 
#    0.000    0.000    0.000    3.273    0.000    0.000 
#
# Total GULP energy -245128.757066 kJ/mol
# GULP energy per Si atom -5571.108115 kJ/mol
# Density = 1.372449 g / cm^3
# Si number density = 13.755796 Si / 1000 Ang^3
#
#
#
# Elastic Constant Matrix: (Units=GPa)
#
#
# Indices 1 2 3 4 5 6 
#
# 1 94.9141 50.8824 61.8499 0.0000 0.0000 0.0000
# 2 50.8824 82.6777 58.6418 0.0000 0.0000 0.0000
# 3 61.8499 58.6418 116.3155 0.0000 0.0000 0.0000
# 4 0.0000 0.0000 0.0000 16.6064 0.0000 0.0000
# 5 0.0000 0.0000 0.0000 0.0000 20.5702 0.0000
# 6 0.0000 0.0000 0.0000 0.0000 0.0000 16.2826
#
#
#
# Elastic Compliance Matrix: (Units=1/GPa)
#
#
# Indices 1 2 3 4 5 6 
#
# 1 0.018275 -0.006778 -0.006300 0.000000 0.000000 0.000000
# 2 -0.006778 0.021342 -0.007155 0.000000 0.000000 0.000000
# 3 -0.006300 -0.007155 0.015555 0.000000 0.000000 0.000000
# 4 0.000000 0.000000 0.000000 0.060218 0.000000 0.000000
# 5 0.000000 0.000000 0.000000 0.000000 0.048614 0.000000
# 6 0.000000 0.000000 0.000000 0.000000 0.000000 0.061415
#
#
# Mechanical properties :
#
#
# Convention : Reuss Voigt Hill
#
# Bulk Modulus (GPa) = 68.00941 70.73949 69.37445
# Shear Modulus (GPa) = 18.46459 18.86074 18.66266
#
# Velocity S-wave (km/s) = 3.66773 3.70687 3.68735
# Velocity P-wave (km/s) = 8.21488 8.35811 8.28681
#
# Compressibility (1/GPa) = 0.01470385
#
# Stress axis : x y z
#
# Youngs Moduli (GPa) = 54.71897 46.85579 64.28837
#
# Poissons Ratio (x) = 0.31761 0.40503
# Poissons Ratio (y) = 0.37091 0.46001
# Poissons Ratio (z) = 0.34474 0.33527
#
# Static dielectric constant tensor:
#      x y z
#    x 1.432090 0.000000 0.000000 
#    y 0.000000 1.450970 0.000000 
#    z 0.000000 0.000000 1.446620 
# 
# From -- ./inp_files/36629.got.cif
#   From: 2010.05.17/outbox.cif.g08.bks.cpg/sg71_19_cif.got.tgz:36629.got - 2010.06.03 16:22:01.
