data_PCOD9517380
_publ_section_title
;
Structure prediction by ZEFSAII (Michael W. Deem and Ramdas Pophale) SiO2 
 PCOD9517380
Probable space group: I M M M
;
_chemical_formula_sum "Si O2"
_cell_formula_units_Z 80
_cell_length_a 8.414471
_cell_length_b 24.476996
_cell_length_c 27.380911
_cell_angle_alpha 90.000000
_cell_angle_beta 90.000000
_cell_angle_gamma 90.000000
_cell_volume 5639.399071
_symmetry_space_group_name_H-M "I M M M"
_symmetry_group_IT_number 71
_symmetry_cell_setting 'orthorhombic'
loop_
_space_group_symop_operation_xyz
x,y,z
-x,-y,z
x,-y,-z
-x,y,-z
-x,-y,-z
x,y,-z
-x,y,z
x,-y,z
1/2+x,1/2+y,1/2+z
1/2-x,1/2-y,1/2+z
1/2+x,1/2-y,1/2-z
1/2-x,1/2+y,1/2-z
1/2-x,1/2-y,1/2-z
1/2+x,1/2+y,1/2-z
1/2-x,1/2+y,1/2+z
1/2+x,1/2-y,1/2+z
loop_
_atom_site_type_symbol
_atom_site_label
_atom_site_fract_x
_atom_site_fract_y
_atom_site_fract_z
Si Si1 0.188080 0.000000 0.714374
Si Si2 0.189756 0.616184 0.759117
Si Si3 0.191886 0.500000 0.103123
Si Si4 0.193539 0.314165 0.145423
Si Si5 0.805583 0.385569 0.944445
Si Si6 0.690494 0.714333 0.296004
O O1 0.245221 0.055194 0.740447
O O2 0.255900 0.000000 0.659246
O O3 0.000000 0.000000 0.711532
O O4 0.243699 0.646603 0.809449
O O5 0.242749 0.654325 0.714161
O O6 0.000000 0.614547 0.760585
O O7 0.244159 0.444940 0.075780
O O8 0.000000 0.500000 0.102815
O O9 0.247040 0.340106 0.094578
O O10 0.240778 0.252000 0.158173
O O11 0.000000 0.315154 0.145532
O O12 0.000000 0.385438 0.944568
O O13 0.753192 0.377001 0.000000
O O14 0.500000 0.711752 0.295216
O O15 0.750000 0.750000 0.250000
#
# Coordination Sequence:
#
# PCOD9517380 Si02
#       6
#     8  16   8  16  16  16
#     4  12  22  29  41  61  82 108 137 169 210 257
#     4  10  18  30  44  58  78 104 135 171 209 246
#     4  10  17  28  42  56  78 108 144 183 213 237
#     4   8  14  24  39  58  79 102 130 171 210 239
#     4   9  15  23  39  62  81 103 141 182 213 240
#     4   9  16  26  40  59  81 104 133 168 207 249
#
# _framework density 14.185909000000001
#
# number of rings (size 3 to 8) (size 9 to 14) (size 15 to 20)
#    0.000    2.600    2.000    3.600    0.000    1.200 
#    0.000    0.000    0.000    1.200    0.000    0.000 
#    0.000    0.000    0.000    0.900    0.000   21.200 
#
# Total GULP energy -222765.335561 kJ/mol
# GULP energy per Si atom -5569.133389 kJ/mol
# Density = 1.415362 g / cm^3
# Si number density = 14.185909 Si / 1000 Ang^3
#
#
#
# Elastic Constant Matrix: (Units=GPa)
#
#
# Indices 1 2 3 4 5 6 
#
# 1 11.6103 11.8352 8.5284 0.0000 0.0000 0.0000
# 2 11.8352 122.6323 69.7078 0.0000 0.0000 0.0000
# 3 8.5284 69.7078 76.7288 0.0000 0.0000 0.0000
# 4 0.0000 0.0000 0.0000 14.3065 0.0000 0.0000
# 5 0.0000 0.0000 0.0000 0.0000 9.2804 0.0000
# 6 0.0000 0.0000 0.0000 0.0000 0.0000 17.6864
#
#
#
# Elastic Compliance Matrix: (Units=1/GPa)
#
#
# Indices 1 2 3 4 5 6 
#
# 1 0.096333 -0.006639 -0.004676 0.000000 0.000000 0.000000
# 2 -0.006639 0.017320 -0.014997 0.000000 0.000000 0.000000
# 3 -0.004676 -0.014997 0.027178 0.000000 0.000000 0.000000
# 4 0.000000 0.000000 0.000000 0.069898 0.000000 0.000000
# 5 0.000000 0.000000 0.000000 0.000000 0.107754 0.000000
# 6 0.000000 0.000000 0.000000 0.000000 0.000000 0.056541
#
#
# Mechanical properties :
#
#
# Convention : Reuss Voigt Hill
#
# Bulk Modulus (GPa) = 11.33705 43.45712 27.39708
# Shear Modulus (GPa) = 10.93970 16.31464 13.62717
#
# Velocity S-wave (km/s) = 2.78000 3.39493 3.10274
# Velocity P-wave (km/s) = 4.27945 6.78734 5.67369
#
# Compressibility (1/GPa) = 0.08820636
#
# Stress axis : x y z
#
# Youngs Moduli (GPa) = 10.38065 57.73635 36.79507
#
# Poissons Ratio (x) = 0.38333 0.17204
# Poissons Ratio (y) = 0.06892 0.55183
# Poissons Ratio (z) = 0.04854 0.86589
#
# Static dielectric constant tensor:
#      x y z
#    x 1.491560 0.000000 0.000000 
#    y 0.000000 1.485320 0.000000 
#    z 0.000000 0.000000 1.456180 
# 
# From -- ./inp_files/11269.got.cif
#   From: 2010.05.17/outbox.cif.g08.bks.cpg/sg71_6_cif.got.tgz:11269.got - 2010.06.03 16:22:01.
