data_PCOD9517028
_publ_section_title
;
Structure prediction by ZEFSAII (Michael W. Deem and Ramdas Pophale) SiO2 
 PCOD9517028
Probable space group: F D D D
;
_chemical_formula_sum "Si O2"
_cell_formula_units_Z 112
_cell_length_a 9.751280
_cell_length_b 17.694483
_cell_length_c 26.312446
_cell_angle_alpha 90.000000
_cell_angle_beta 90.000000
_cell_angle_gamma 90.000000
_cell_volume 4540.050951
_symmetry_space_group_name_H-M "F D D D"
_symmetry_group_IT_number 70
_space_group.IT_coordinate_system_code '2'
_symmetry_cell_setting 'orthorhombic'
loop_
_space_group_symop_operation_xyz
x,y,z
1/4-x,1/4-y,z
x,1/4-y,1/4-z
1/4-x,y,1/4-z
-x,-y,-z
3/4+x,3/4+y,-z
-x,3/4+y,3/4+z
3/4+x,-y,3/4+z
x,1/2+y,1/2+z
1/4-x,3/4-y,1/2+z
x,3/4-y,3/4-z
1/4-x,1/2+y,3/4-z
-x,1/2-y,1/2-z
3/4+x,1/4+y,1/2-z
-x,1/4+y,1/4+z
3/4+x,1/2-y,1/4+z
1/2+x,y,1/2+z
3/4-x,1/4-y,1/2+z
1/2+x,1/4-y,3/4-z
3/4-x,y,3/4-z
1/2-x,-y,1/2-z
1/4+x,3/4+y,1/2-z
1/2-x,3/4+y,1/4+z
1/4+x,-y,1/4+z
1/2+x,1/2+y,z
3/4-x,3/4-y,z
1/2+x,3/4-y,1/4-z
3/4-x,1/2+y,1/4-z
1/2-x,1/2-y,-z
1/4+x,1/4+y,-z
1/2-x,1/4+y,3/4+z
1/4+x,1/2-y,3/4+z
loop_
_atom_site_type_symbol
_atom_site_label
_atom_site_fract_x
_atom_site_fract_y
_atom_site_fract_z
Si Si1 0.561830 0.783746 0.953599
Si Si2 0.875000 0.375000 0.875000
Si Si3 0.625000 0.625000 0.125000
Si Si4 0.036782 0.554640 0.887673
Si Si5 0.927337 0.058567 0.206557
O O1 0.466567 0.826089 0.912584
O O2 0.616516 0.720732 0.914334
O O3 0.646237 0.855423 0.974213
O O4 0.490291 0.740524 0.998894
O O5 0.532636 0.573211 0.160804
O O6 0.125000 0.625000 0.907687
O O7 0.054821 0.489769 0.930937
O O8 0.875000 0.570016 0.875000
#
# Coordination Sequence:
#
# PCOD9517028 Si02
#       5
#    32   8   8  32  32
#     4  12  26  50  79 119 160 221 269 353 415 510
#     4  12  22  48  78 104 168 194 278 324 414 492
#     4  12  26  56  80 118 164 218 268 356 412 512
#     4  12  28  50  77 120 167 211 278 346 412 510
#     4  12  29  49  85 117 166 218 282 345 432 499
#
# _framework density 24.669328
#
# number of rings (size 3 to 8) (size 9 to 14) (size 15 to 20)
#    0.000    0.000    7.143    0.000   10.000    3.429 
#    0.000    0.000    0.000    0.000    0.000    0.000 
#    0.000    0.000    0.000    0.000    0.000    0.000 
#
# Total GULP energy -156509.310323 kJ/mol
# GULP energy per Si atom -5589.618226 kJ/mol
# Density = 2.461318 g / cm^3
# Si number density = 24.669328 Si / 1000 Ang^3
#
#
#
# Elastic Constant Matrix: (Units=GPa)
#
#
# Indices 1 2 3 4 5 6 
#
# 1 69.5154 35.3574 19.9285 0.0000 0.0000 0.0000
# 2 35.3574 133.0647 49.3253 0.0000 0.0000 0.0000
# 3 19.9285 49.3253 148.2583 0.0000 0.0000 0.0000
# 4 0.0000 0.0000 0.0000 51.9041 0.0000 0.0000
# 5 0.0000 0.0000 0.0000 0.0000 38.5520 0.0000
# 6 0.0000 0.0000 0.0000 0.0000 0.0000 52.8920
#
#
#
# Elastic Compliance Matrix: (Units=1/GPa)
#
#
# Indices 1 2 3 4 5 6 
#
# 1 0.016733 -0.004121 -0.000878 0.000000 0.000000 0.000000
# 2 -0.004121 0.009587 -0.002636 0.000000 0.000000 0.000000
# 3 -0.000878 -0.002636 0.007740 0.000000 0.000000 0.000000
# 4 0.000000 0.000000 0.000000 0.019266 0.000000 0.000000
# 5 0.000000 0.000000 0.000000 0.000000 0.025939 0.000000
# 6 0.000000 0.000000 0.000000 0.000000 0.000000 0.018906
#
#
# Mechanical properties :
#
#
# Convention : Reuss Voigt Hill
#
# Bulk Modulus (GPa) = 53.21781 62.22899 57.72340
# Shear Modulus (GPa) = 41.76947 45.08475 43.42711
#
# Velocity S-wave (km/s) = 4.11928 4.27964 4.20023
# Velocity P-wave (km/s) = 6.65161 7.04985 6.85363
#
# Compressibility (1/GPa) = 0.01879070
#
# Stress axis : x y z
#
# Youngs Moduli (GPa) = 59.76230 104.30683 129.19999
#
# Poissons Ratio (x) = 0.42981 0.11347
# Poissons Ratio (y) = 0.24626 0.34054
# Poissons Ratio (z) = 0.05249 0.27492
#
# Static dielectric constant tensor:
#      x y z
#    x 2.082680 0.000000 0.000000 
#    y 0.000000 2.185650 0.000000 
#    z 0.000000 0.000000 1.928630 
# 
# From -- ./inp_files/64500.got.cif
#   From: 2010.05.17/outbox.cif.g08.bks.cpg/sg70_33_cif.got.tgz:64500.got - 2010.06.03 15:57:51.
