data_PCOD9517327
_publ_section_title
;
Structure prediction by ZEFSAII (Michael W. Deem and Ramdas Pophale) SiO2 
 PCOD9517327
Probable space group: I M M M
;
_chemical_formula_sum "Si O2"
_cell_formula_units_Z 104
_cell_length_a 7.885764
_cell_length_b 29.664343
_cell_length_c 24.928370
_cell_angle_alpha 90.000000
_cell_angle_beta 90.000000
_cell_angle_gamma 90.000000
_cell_volume 5831.394083
_symmetry_space_group_name_H-M "I M M M"
_symmetry_group_IT_number 71
_symmetry_cell_setting 'orthorhombic'
loop_
_space_group_symop_operation_xyz
x,y,z
-x,-y,z
x,-y,-z
-x,y,-z
-x,-y,-z
x,y,-z
-x,y,z
x,-y,z
1/2+x,1/2+y,1/2+z
1/2-x,1/2-y,1/2+z
1/2+x,1/2-y,1/2-z
1/2-x,1/2+y,1/2-z
1/2-x,1/2-y,1/2-z
1/2+x,1/2+y,1/2-z
1/2-x,1/2+y,1/2+z
1/2+x,1/2-y,1/2+z
loop_
_atom_site_type_symbol
_atom_site_label
_atom_site_fract_x
_atom_site_fract_y
_atom_site_fract_z
Si Si1 0.298525 0.051387 0.267309
Si Si2 0.292237 0.500000 0.062320
Si Si3 0.202183 0.948929 0.852921
Si Si4 0.298557 0.410297 0.122735
Si Si5 0.196215 0.276363 0.565226
Si Si6 0.704285 0.125697 0.938949
Si Si7 0.791885 0.821917 0.562455
O O1 0.500000 0.049716 0.273090
O O2 0.257518 0.065443 0.206707
O O3 0.229832 0.082668 0.314317
O O4 0.230531 0.000000 0.274340
O O5 0.500000 0.500000 0.064271
O O6 0.231987 0.454893 0.092385
O O7 0.243992 0.500000 0.000000
O O8 0.255572 0.914095 0.898361
O O9 0.000000 0.951112 0.853162
O O10 0.269138 0.000000 0.861888
O O11 0.500000 0.409698 0.112856
O O12 0.232252 0.363711 0.098094
O O13 0.194180 0.276248 0.500000
O O14 0.271198 0.325080 0.579813
O O15 0.270095 0.227708 0.580457
O O16 0.000000 0.276274 0.583517
O O17 0.500000 0.129804 0.941625
O O18 0.764308 0.116899 0.000000
O O19 0.746257 0.829108 0.500000
O O20 0.000000 0.820247 0.563808
#
# Coordination Sequence:
#
# PCOD9517327 Si02
#       7
#    16   8  16  16  16  16  16
#     4  10  20  34  50  65  86 120 162 199 234 280
#     4   9  16  24  37  63  97 127 154 189 234 279
#     4  10  21  35  51  71  95 121 151 190 232 273
#     4  10  17  26  44  68  94 123 157 199 238 274
#     4   7  11  22  41  66  95 124 155 189 222 263
#     4   9  17  30  50  75 101 128 154 181 220 271
#     4   8  13  22  40  68  97 124 157 195 233 272
#
# _framework density 17.834500999999999
#
# number of rings (size 3 to 8) (size 9 to 14) (size 15 to 20)
#    0.000    3.000    0.769    3.231    0.000    4.000 
#    0.000    1.538    0.000    4.154    0.000    2.154 
#    0.000    0.000    0.000    0.000    0.000    0.000 
#
# Total GULP energy -289649.296944 kJ/mol
# GULP energy per Si atom -5570.178787 kJ/mol
# Density = 1.779391 g / cm^3
# Si number density = 17.834501 Si / 1000 Ang^3
#
#
#
# Elastic Constant Matrix: (Units=GPa)
#
#
# Indices 1 2 3 4 5 6 
#
# 1 15.8187 4.7970 -4.8885 0.0000 0.0000 0.0000
# 2 4.7970 160.2583 90.7619 0.0000 0.0000 0.0000
# 3 -4.8885 90.7619 97.8123 0.0000 0.0000 0.0000
# 4 0.0000 0.0000 0.0000 10.7894 0.0000 0.0000
# 5 0.0000 0.0000 0.0000 0.0000 10.6402 0.0000
# 6 0.0000 0.0000 0.0000 0.0000 0.0000 3.2262
#
#
#
# Elastic Compliance Matrix: (Units=1/GPa)
#
#
# Indices 1 2 3 4 5 6 
#
# 1 0.069306 -0.008507 0.011357 0.000000 0.000000 0.000000
# 2 -0.008507 0.014195 -0.013597 0.000000 0.000000 0.000000
# 3 0.011357 -0.013597 0.023408 0.000000 0.000000 0.000000
# 4 0.000000 0.000000 0.000000 0.092684 0.000000 0.000000
# 5 0.000000 0.000000 0.000000 0.000000 0.093983 0.000000
# 6 0.000000 0.000000 0.000000 0.000000 0.000000 0.309965
#
#
# Mechanical properties :
#
#
# Convention : Reuss Voigt Hill
#
# Bulk Modulus (GPa) = 11.70737 50.58112 31.14424
# Shear Modulus (GPa) = 7.65102 17.14575 12.39838
#
# Velocity S-wave (km/s) = 2.07348 3.10398 2.63951
# Velocity P-wave (km/s) = 3.50872 6.42411 5.17592
#
# Compressibility (1/GPa) = 0.08541631
#
# Stress axis : x y z
#
# Youngs Moduli (GPa) = 14.42881 70.44561 42.71957
#
# Poissons Ratio (x) = 0.59926 -0.48518
# Poissons Ratio (y) = 0.12274 0.58087
# Poissons Ratio (z) = -0.16387 0.95787
#
# Static dielectric constant tensor:
#      x y z
#    x 1.660380 0.000000 0.000000 
#    y 0.000000 1.683160 0.000000 
#    z 0.000000 0.000000 1.578060 
# 
# From -- ./inp_files/15531.got.cif
#   From: 2010.05.17/outbox.cif.g08.bks.cpg/sg71_8_cif.got.tgz:15531.got - 2010.06.03 16:22:01.
