data_PCOD9517143
_publ_section_title
;
Structure prediction by ZEFSAII (Michael W. Deem and Ramdas Pophale) SiO2 
 PCOD9517143
Probable space group: F D D D
;
_chemical_formula_sum "Si O2"
_cell_formula_units_Z 128
_cell_length_a 25.359864
_cell_length_b 6.722537
_cell_length_c 25.130321
_cell_angle_alpha 90.000000
_cell_angle_beta 90.000000
_cell_angle_gamma 90.000000
_cell_volume 4284.283067
_symmetry_space_group_name_H-M "F D D D"
_symmetry_group_IT_number 70
_space_group.IT_coordinate_system_code '2'
_symmetry_cell_setting 'orthorhombic'
loop_
_space_group_symop_operation_xyz
x,y,z
1/4-x,1/4-y,z
x,1/4-y,1/4-z
1/4-x,y,1/4-z
-x,-y,-z
3/4+x,3/4+y,-z
-x,3/4+y,3/4+z
3/4+x,-y,3/4+z
x,1/2+y,1/2+z
1/4-x,3/4-y,1/2+z
x,3/4-y,3/4-z
1/4-x,1/2+y,3/4-z
-x,1/2-y,1/2-z
3/4+x,1/4+y,1/2-z
-x,1/4+y,1/4+z
3/4+x,1/2-y,1/4+z
1/2+x,y,1/2+z
3/4-x,1/4-y,1/2+z
1/2+x,1/4-y,3/4-z
3/4-x,y,3/4-z
1/2-x,-y,1/2-z
1/4+x,3/4+y,1/2-z
1/2-x,3/4+y,1/4+z
1/4+x,-y,1/4+z
1/2+x,1/2+y,z
3/4-x,3/4-y,z
1/2+x,3/4-y,1/4-z
3/4-x,1/2+y,1/4-z
1/2-x,1/2-y,-z
1/4+x,1/4+y,-z
1/2-x,1/4+y,3/4+z
1/4+x,1/2-y,3/4+z
loop_
_atom_site_type_symbol
_atom_site_label
_atom_site_fract_x
_atom_site_fract_y
_atom_site_fract_z
Si Si1 0.544844 0.071893 0.331871
Si Si2 0.950299 0.794754 0.058230
Si Si3 0.680841 0.294897 0.215714
Si Si4 0.826144 0.570916 0.443105
O O1 0.567274 0.070059 0.392033
O O2 0.550218 0.309252 0.320869
O O3 0.571441 0.966004 0.280538
O O4 0.481448 0.030653 0.332178
O O5 0.926434 0.792219 0.999727
O O6 0.010776 0.853409 0.049666
O O7 0.639409 0.423570 0.180963
O O8 0.677640 0.061447 0.201097
#
# Coordination Sequence:
#
# PCOD9517143 Si02
#       4
#    32  32  32  32
#     4   8  13  20  29  42  62  87 111 134 161 196
#     4   8  13  20  29  42  62  87 111 134 161 196
#     4   8  13  20  29  42  62  87 111 134 161 196
#     4   8  13  20  29  42  62  87 111 134 161 196
#
# _framework density 29.876646000000001
#
# number of rings (size 3 to 8) (size 9 to 14) (size 15 to 20)
#    0.000    4.000    0.000    3.000    0.000    1.000 
#    0.000    5.000    0.000    0.000    0.000    0.000 
#    0.000    4.000    0.000   56.000    0.000   46.000 
#
# Total GULP energy -178768.954238 kJ/mol
# GULP energy per Si atom -5586.529820 kJ/mol
# Density = 2.980865 g / cm^3
# Si number density = 29.876646 Si / 1000 Ang^3
#
#
#
# Elastic Constant Matrix: (Units=GPa)
#
#
# Indices 1 2 3 4 5 6 
#
# 1 172.9887 -9.3094 1.5654 -0.0001 0.0001 0.0001
# 2 -9.3094 124.1257 36.0345 -0.0001 0.0003 0.0006
# 3 1.5654 36.0345 131.4453 0.0000 0.0000 0.0000
# 4 -0.0001 -0.0001 0.0000 50.4986 0.0001 0.0002
# 5 0.0001 0.0003 0.0000 0.0001 -16.5642 -0.0001
# 6 0.0001 0.0006 0.0000 0.0002 -0.0001 23.1375
#
#
#
# Elastic Compliance Matrix: (Units=1/GPa)
#
#
# Indices 1 2 3 4 5 6 
#
# 1 0.005809 0.000495 -0.000205 0.000000 0.000000 0.000000
# 2 0.000495 0.008795 -0.002417 0.000000 0.000000 0.000000
# 3 -0.000205 -0.002417 0.008273 0.000000 0.000000 0.000000
# 4 0.000000 0.000000 0.000000 0.019803 0.000000 0.000000
# 5 0.000000 0.000000 0.000000 0.000000 -0.060371 0.000000
# 6 0.000000 0.000000 0.000000 0.000000 0.000000 0.043220
#
#
# Mechanical properties :
#
#
# Convention : Reuss Voigt Hill
#
# Bulk Modulus (GPa) = 53.69519 53.90452 53.79986
# Shear Modulus (GPa) = 138.92859 38.09901 88.51380
#
# Velocity S-wave (km/s) = 6.82654 3.57488 5.44892
# Velocity P-wave (km/s) = 8.95248 5.92632 7.59171
#
# Compressibility (1/GPa) = 0.01862364
#
# Stress axis : x y z
#
# Youngs Moduli (GPa) = 172.13991 113.69889 120.87854
#
# Poissons Ratio (x) = -0.05630 0.02477
# Poissons Ratio (y) = -0.08524 0.29216
# Poissons Ratio (z) = 0.03528 0.27481
#
# Static dielectric constant tensor:
#      x y z
#    x 2.379700 0.000000 0.000000 
#    y 0.000000 2.569800 0.000000 
#    z 0.000000 0.000000 2.367620 
# 
# From -- ./inp_files/19088.got.cif
#   From: 2010.05.17/outbox.cif.g08.bks.cpg/sg70_10_cif.got.tgz:19088.got - 2010.06.03 15:57:51.
