data_PCOD9517382
_publ_section_title
;
Structure prediction by ZEFSAII (Michael W. Deem and Ramdas Pophale) SiO2 
 PCOD9517382
Probable space group: I M M M
;
_chemical_formula_sum "Si O2"
_cell_formula_units_Z 88
_cell_length_a 31.558152
_cell_length_b 24.727171
_cell_length_c 8.571586
_cell_angle_alpha 90.000000
_cell_angle_beta 90.000000
_cell_angle_gamma 90.000000
_cell_volume 6688.784171
_symmetry_space_group_name_H-M "I M M M"
_symmetry_group_IT_number 71
_symmetry_cell_setting 'orthorhombic'
loop_
_space_group_symop_operation_xyz
x,y,z
-x,-y,z
x,-y,-z
-x,y,-z
-x,-y,-z
x,y,-z
-x,y,z
x,-y,z
1/2+x,1/2+y,1/2+z
1/2-x,1/2-y,1/2+z
1/2+x,1/2-y,1/2-z
1/2-x,1/2+y,1/2-z
1/2-x,1/2-y,1/2-z
1/2+x,1/2+y,1/2-z
1/2-x,1/2+y,1/2+z
1/2+x,1/2-y,1/2+z
loop_
_atom_site_type_symbol
_atom_site_label
_atom_site_fract_x
_atom_site_fract_y
_atom_site_fract_z
Si Si1 0.751885 0.383784 0.812140
Si Si2 0.292524 0.721801 0.186847
Si Si3 0.837827 0.679812 0.186329
Si Si4 0.909317 0.606568 0.311326
Si Si5 0.000000 0.436436 0.690393
Si Si6 0.238022 0.500000 0.313299
Si Si7 0.858819 0.500000 0.689471
O O1 0.715174 0.340709 0.769182
O O2 0.797662 0.358201 0.759658
O O3 0.743959 0.443165 0.745920
O O4 0.753699 0.386637 0.000000
O O5 0.250000 0.750000 0.250000
O O6 0.329277 0.759331 0.254949
O O7 0.293582 0.725000 0.000000
O O8 0.882007 0.655931 0.246221
O O9 0.836748 0.679325 0.000000
O O10 0.908883 0.609552 0.500000
O O11 0.883442 0.553256 0.261235
O O12 0.957566 0.595249 0.261638
O O13 0.000000 0.500000 0.739708
O O14 0.000000 0.438296 0.500000
O O15 0.238515 0.500000 0.500000
O O16 0.189203 0.500000 0.256041
O O17 0.858530 0.500000 0.500000
#
# Coordination Sequence:
#
# PCOD9517382 Si02
#       7
#    16  16  16  16   8   8   8
#     4   9  18  29  39  54  77 100 123 155 196 234
#     4   9  17  29  43  58  75  97 124 158 197 235
#     4  10  19  29  41  57  75  99 129 163 201 239
#     4  10  17  28  43  58  75  98 131 169 207 245
#     4   9  16  26  43  61  77  99 131 170 209 248
#     4  11  19  25  38  59  77 100 132 161 192 231
#     4   9  16  24  37  56  73  95 129 167 202 236
#
# _framework density 13.156352999999999
#
# number of rings (size 3 to 8) (size 9 to 14) (size 15 to 20)
#    0.000    2.455    2.727    2.455    0.000    3.636 
#    0.000    0.909    0.000    0.545    0.000    0.000 
#    0.000    0.000    0.000    0.000    0.000    0.909 
#
# Total GULP energy -244978.191751 kJ/mol
# GULP energy per Si atom -5567.686176 kJ/mol
# Density = 1.312641 g / cm^3
# Si number density = 13.156353 Si / 1000 Ang^3
#
#
#
# Elastic Constant Matrix: (Units=GPa)
#
#
# Indices 1 2 3 4 5 6 
#
# 1 71.2161 57.9477 18.4709 0.0000 0.0000 0.0000
# 2 57.9477 118.3590 27.6578 0.0000 0.0000 0.0000
# 3 18.4709 27.6578 20.2975 0.0000 0.0000 0.0000
# 4 0.0000 0.0000 0.0000 17.8453 0.0000 0.0000
# 5 0.0000 0.0000 0.0000 0.0000 12.4107 0.0000
# 6 0.0000 0.0000 0.0000 0.0000 0.0000 18.1937
#
#
#
# Elastic Compliance Matrix: (Units=1/GPa)
#
#
# Indices 1 2 3 4 5 6 
#
# 1 0.024338 -0.009889 -0.008672 0.000000 0.000000 0.000000
# 2 -0.009889 0.016414 -0.013367 0.000000 0.000000 0.000000
# 3 -0.008672 -0.013367 0.075374 0.000000 0.000000 0.000000
# 4 0.000000 0.000000 0.000000 0.056037 0.000000 0.000000
# 5 0.000000 0.000000 0.000000 0.000000 0.080576 0.000000
# 6 0.000000 0.000000 0.000000 0.000000 0.000000 0.054964
#
#
# Mechanical properties :
#
#
# Convention : Reuss Voigt Hill
#
# Bulk Modulus (GPa) = 19.13213 46.44726 32.78970
# Shear Modulus (GPa) = 12.85407 16.74302 14.79854
#
# Velocity S-wave (km/s) = 3.12913 3.57125 3.35747
# Velocity P-wave (km/s) = 5.25633 7.23780 6.32514
#
# Compressibility (1/GPa) = 0.05226809
#
# Stress axis : x y z
#
# Youngs Moduli (GPa) = 41.08857 60.92345 13.26726
#
# Poissons Ratio (x) = 0.60247 0.11506
# Poissons Ratio (y) = 0.40632 0.17734
# Poissons Ratio (z) = 0.35634 0.81437
#
# Static dielectric constant tensor:
#      x y z
#    x 1.423230 0.000000 0.000000 
#    y 0.000000 1.448800 0.000000 
#    z 0.000000 0.000000 1.444190 
# 
# From -- ./inp_files/17190.got.cif
#   From: 2010.05.17/outbox.cif.g08.bks.cpg/sg71_9_cif.got.tgz:17190.got - 2010.06.03 16:22:01.
