data_PCOD9517727
_publ_section_title
;
Structure prediction by ZEFSAII (Michael W. Deem and Ramdas Pophale) SiO2 
 PCOD9517727
Probable space group: I M M M
;
_chemical_formula_sum "Si O2"
_cell_formula_units_Z 80
_cell_length_a 20.431177
_cell_length_b 8.947125
_cell_length_c 25.454086
_cell_angle_alpha 90.000000
_cell_angle_beta 90.000000
_cell_angle_gamma 90.000000
_cell_volume 4653.014417
_symmetry_space_group_name_H-M "I M M M"
_symmetry_group_IT_number 71
_symmetry_cell_setting 'orthorhombic'
loop_
_space_group_symop_operation_xyz
x,y,z
-x,-y,z
x,-y,-z
-x,y,-z
-x,-y,-z
x,y,-z
-x,y,z
x,-y,z
1/2+x,1/2+y,1/2+z
1/2-x,1/2-y,1/2+z
1/2+x,1/2-y,1/2-z
1/2-x,1/2+y,1/2-z
1/2-x,1/2-y,1/2-z
1/2+x,1/2+y,1/2-z
1/2-x,1/2+y,1/2+z
1/2+x,1/2-y,1/2+z
loop_
_atom_site_type_symbol
_atom_site_label
_atom_site_fract_x
_atom_site_fract_y
_atom_site_fract_z
Si Si1 0.260980 0.822585 0.000000
Si Si2 0.191626 0.677868 0.283926
Si Si3 0.231962 0.824063 0.608767
Si Si4 0.609428 0.826402 0.384364
Si Si5 0.118810 0.321255 0.000000
Si Si6 0.424744 0.325578 0.277841
O O1 0.287341 0.749193 0.053405
O O2 0.184120 0.777683 0.000000
O O3 0.268815 0.000000 0.000000
O O4 0.198063 0.500000 0.283484
O O5 0.250000 0.750000 0.250000
O O6 0.199038 0.741705 0.342437
O O7 0.124582 0.728223 0.256568
O O8 0.311267 0.810685 0.614594
O O9 0.217163 0.000000 0.609234
O O10 0.585353 0.794730 0.443812
O O11 0.582549 0.723598 0.338511
O O12 0.594515 0.000000 0.372345
O O13 0.137230 0.500000 0.000000
O O14 0.500000 0.305514 0.261981
O O15 0.407099 0.500000 0.272677
#
# Coordination Sequence:
#
# PCOD9517727 Si02
#       6
#     8  16  16  16   8  16
#     4  10  18  28  46  77 112 143 176 218 267 320
#     4  12  23  36  57  83 109 141 181 227 276 329
#     4  10  19  33  53  79 110 143 178 222 270 322
#     4   9  17  31  52  74 100 138 181 225 270 319
#     4   8  16  30  47  69 100 136 179 225 271 318
#     4  11  24  39  54  75 107 145 183 227 277 327
#
# _framework density 17.193155000000001
#
# number of rings (size 3 to 8) (size 9 to 14) (size 15 to 20)
#    0.000    1.800    2.000    5.100    0.000    4.800 
#    0.000    0.500    0.000    3.000    0.000    0.700 
#    0.000    5.600    0.000    0.000    0.000    0.000 
#
# Total GULP energy -223323.522485 kJ/mol
# GULP energy per Si atom -5583.088062 kJ/mol
# Density = 1.715402 g / cm^3
# Si number density = 17.193155 Si / 1000 Ang^3
#
#
#
# Elastic Constant Matrix: (Units=GPa)
#
#
# Indices 1 2 3 4 5 6 
#
# 1 39.4790 43.3610 37.7272 0.0000 0.0000 0.0000
# 2 43.3610 141.7874 78.2395 0.0000 0.0000 0.0000
# 3 37.7272 78.2395 141.0357 0.0000 0.0000 0.0000
# 4 0.0000 0.0000 0.0000 35.6501 0.0000 0.0000
# 5 0.0000 0.0000 0.0000 0.0000 6.5183 0.0000
# 6 0.0000 0.0000 0.0000 0.0000 0.0000 18.2182
#
#
#
# Elastic Compliance Matrix: (Units=1/GPa)
#
#
# Indices 1 2 3 4 5 6 
#
# 1 0.041199 -0.009393 -0.005810 0.000000 0.000000 0.000000
# 2 -0.009393 0.012306 -0.004314 0.000000 0.000000 0.000000
# 3 -0.005810 -0.004314 0.011038 0.000000 0.000000 0.000000
# 4 0.000000 0.000000 0.000000 0.028050 0.000000 0.000000
# 5 0.000000 0.000000 0.000000 0.000000 0.153415 0.000000
# 6 0.000000 0.000000 0.000000 0.000000 0.000000 0.054890
#
#
# Mechanical properties :
#
#
# Convention : Reuss Voigt Hill
#
# Bulk Modulus (GPa) = 39.20296 71.21749 55.21023
# Shear Modulus (GPa) = 14.34985 22.94226 18.64606
#
# Velocity S-wave (km/s) = 2.89212 3.65688 3.29675
# Velocity P-wave (km/s) = 5.83125 7.70340 6.83176
#
# Compressibility (1/GPa) = 0.02550828
#
# Stress axis : x y z
#
# Youngs Moduli (GPa) = 24.27243 81.26120 90.59866
#
# Poissons Ratio (x) = 0.76333 0.52635
# Poissons Ratio (y) = 0.22800 0.39084
# Poissons Ratio (z) = 0.14102 0.35056
#
# Static dielectric constant tensor:
#      x y z
#    x 1.575760 0.000000 0.000000 
#    y 0.000000 1.569830 0.000000 
#    z 0.000000 0.000000 1.601150 
# 
# From -- ./inp_files/12411.got.cif
#   From: 2010.05.17/outbox.cif.g08.bks.cpg/sg71_7_cif.got.tgz:12411.got - 2010.06.03 16:22:01.
