data_PCOD9517266
_publ_section_title
;
Structure prediction by ZEFSAII (Michael W. Deem and Ramdas Pophale) SiO2 
 PCOD9517266
Probable space group: I M M M
;
_chemical_formula_sum "Si O2"
_cell_formula_units_Z 72
_cell_length_a 22.271584
_cell_length_b 10.781093
_cell_length_c 20.446842
_cell_angle_alpha 90.000000
_cell_angle_beta 90.000000
_cell_angle_gamma 90.000000
_cell_volume 4909.532502
_symmetry_space_group_name_H-M "I M M M"
_symmetry_group_IT_number 71
_symmetry_cell_setting 'orthorhombic'
loop_
_space_group_symop_operation_xyz
x,y,z
-x,-y,z
x,-y,-z
-x,y,-z
-x,-y,-z
x,y,-z
-x,y,z
x,-y,z
1/2+x,1/2+y,1/2+z
1/2-x,1/2-y,1/2+z
1/2+x,1/2-y,1/2-z
1/2-x,1/2+y,1/2-z
1/2-x,1/2-y,1/2-z
1/2+x,1/2+y,1/2-z
1/2-x,1/2+y,1/2+z
1/2+x,1/2-y,1/2+z
loop_
_atom_site_type_symbol
_atom_site_label
_atom_site_fract_x
_atom_site_fract_y
_atom_site_fract_z
Si Si1 0.500000 0.147152 0.421295
Si Si2 0.678406 0.756134 0.233315
Si Si3 0.794984 0.500000 0.924935
Si Si4 0.128874 0.262960 0.878329
Si Si5 0.201182 0.000000 0.692278
Si Si6 0.210391 0.500000 0.680310
Si Si7 0.315830 0.500000 0.577401
O O1 0.500000 0.157462 0.500000
O O2 0.440240 0.210741 0.393818
O O3 0.500000 0.000000 0.405298
O O4 0.750000 0.750000 0.250000
O O5 0.644007 0.770012 0.301375
O O6 0.664269 0.626242 0.199082
O O7 0.672087 0.875546 0.187662
O O8 0.834030 0.624211 0.911721
O O9 0.741620 0.500000 0.872280
O O10 0.775014 0.500000 0.000000
O O11 0.149795 0.127160 0.902861
O O12 0.245941 0.000000 0.755450
O O13 0.253996 0.500000 0.618424
O O14 0.306158 0.500000 0.500000
#
# Coordination Sequence:
#
# PCOD9517266 Si02
#       7
#     8  16   8  16   8   8   8
#     4  11  24  37  47  63  93 131 168 201 229 263
#     4  10  16  29  51  68  84 115 159 194 241 278
#     4  12  20  29  49  72  94 126 165 196 231 281
#     4  12  21  35  49  66  92 128 170 202 228 270
#     4  10  16  30  46  68  92 115 155 190 243 288
#     4  10  16  30  46  68  90 113 153 188 243 286
#     4  12  22  31  47  70  96 124 157 196 241 287
#
# _framework density 14.665347000000001
#
# number of rings (size 3 to 8) (size 9 to 14) (size 15 to 20)
#    0.000    1.000   10.000    2.000    0.000    0.444 
#    0.000    1.111    0.000    0.000    0.000    0.000 
#    0.000    0.000    0.000    6.000    0.000    0.000 
#
# Total GULP energy -200661.452400 kJ/mol
# GULP energy per Si atom -5573.929233 kJ/mol
# Density = 1.463197 g / cm^3
# Si number density = 14.665347 Si / 1000 Ang^3
#
#
#
# Elastic Constant Matrix: (Units=GPa)
#
#
# Indices 1 2 3 4 5 6 
#
# 1 51.4830 33.3184 59.0749 0.0000 0.0000 0.0000
# 2 33.3184 161.5335 45.7523 0.0000 0.0000 0.0000
# 3 59.0749 45.7523 97.8709 0.0000 0.0000 0.0000
# 4 0.0000 0.0000 0.0000 16.5742 0.0000 0.0000
# 5 0.0000 0.0000 0.0000 0.0000 17.0064 0.0000
# 6 0.0000 0.0000 0.0000 0.0000 0.0000 13.4642
#
#
#
# Elastic Compliance Matrix: (Units=1/GPa)
#
#
# Indices 1 2 3 4 5 6 
#
# 1 0.064130 -0.002609 -0.037489 0.000000 0.000000 0.000000
# 2 -0.002609 0.007242 -0.001810 0.000000 0.000000 0.000000
# 3 -0.037489 -0.001810 0.033692 0.000000 0.000000 0.000000
# 4 0.000000 0.000000 0.000000 0.060335 0.000000 0.000000
# 5 0.000000 0.000000 0.000000 0.000000 0.058801 0.000000
# 6 0.000000 0.000000 0.000000 0.000000 0.000000 0.074271
#
#
# Mechanical properties :
#
#
# Convention : Reuss Voigt Hill
#
# Bulk Modulus (GPa) = 47.06674 65.24205 56.15440
# Shear Modulus (GPa) = 12.84126 20.92510 16.88318
#
# Velocity S-wave (km/s) = 2.96230 3.78145 3.39666
# Velocity P-wave (km/s) = 6.62297 7.97807 7.33190
#
# Compressibility (1/GPa) = 0.02124643
#
# Stress axis : x y z
#
# Youngs Moduli (GPa) = 15.59335 138.09072 29.68052
#
# Poissons Ratio (x) = 0.36033 1.11269
# Poissons Ratio (y) = 0.04069 0.05373
# Poissons Ratio (z) = 0.58458 0.24998
#
# Static dielectric constant tensor:
#      x y z
#    x 1.437140 0.000000 0.000000 
#    y 0.000000 1.748460 0.000000 
#    z 0.000000 0.000000 1.468140 
# 
# From -- ./inp_files/47021.got.cif
#   From: 2010.05.17/outbox.cif.g08.bks.cpg/sg71_24_cif.got.tgz:47021.got - 2010.06.03 16:22:01.
