data_PCOD9517831
_publ_section_title
;
Structure prediction by ZEFSAII (Michael W. Deem and Ramdas Pophale) SiO2 
 PCOD9517831
Probable space group: I M M M
;
_chemical_formula_sum "Si O2"
_cell_formula_units_Z 96
_cell_length_a 7.916651
_cell_length_b 22.490184
_cell_length_c 28.250008
_cell_angle_alpha 90.000000
_cell_angle_beta 90.000000
_cell_angle_gamma 90.000000
_cell_volume 5029.827413
_symmetry_space_group_name_H-M "I M M M"
_symmetry_group_IT_number 71
_symmetry_cell_setting 'orthorhombic'
loop_
_space_group_symop_operation_xyz
x,y,z
-x,-y,z
x,-y,-z
-x,y,-z
-x,-y,-z
x,y,-z
-x,y,z
x,-y,z
1/2+x,1/2+y,1/2+z
1/2-x,1/2-y,1/2+z
1/2+x,1/2-y,1/2-z
1/2-x,1/2+y,1/2-z
1/2-x,1/2-y,1/2-z
1/2+x,1/2+y,1/2-z
1/2-x,1/2+y,1/2+z
1/2+x,1/2-y,1/2+z
loop_
_atom_site_type_symbol
_atom_site_label
_atom_site_fract_x
_atom_site_fract_y
_atom_site_fract_z
Si Si1 0.796613 0.751485 0.447231
Si Si2 0.703411 0.188494 0.647281
Si Si3 0.188710 0.000000 0.211124
Si Si4 0.195154 0.500000 0.605951
Si Si5 0.199540 0.809062 0.196837
Si Si6 0.793966 0.370408 0.601751
Si Si7 0.806176 0.392662 0.774800
O O1 0.734513 0.764694 0.500000
O O2 0.746971 0.798597 0.406965
O O3 0.740801 0.685313 0.430648
O O4 0.000000 0.749932 0.448221
O O5 0.500000 0.188198 0.651060
O O6 0.764421 0.246841 0.675886
O O7 0.763313 0.129546 0.674619
O O8 0.214958 0.056574 0.245071
O O9 0.300807 0.000000 0.163719
O O10 0.000000 0.000000 0.192002
O O11 0.266326 0.563359 0.589094
O O12 0.000000 0.500000 0.590796
O O13 0.227529 0.855114 0.153968
O O14 0.296567 0.834145 0.241765
O O15 0.000000 0.805112 0.207438
O O16 0.000000 0.370805 0.603363
O O17 0.000000 0.411937 0.780125
#
# Coordination Sequence:
#
# PCOD9517831 Si02
#       7
#    16  16   8   8  16  16  16
#     4   9  18  33  52  74  99 127 163 210 261 306
#     4   9  20  34  50  73  99 129 165 204 248 299
#     4  12  24  34  48  71 100 136 173 209 240 284
#     4  10  18  30  47  66  94 135 178 209 242 287
#     4  10  18  29  46  71 100 129 165 205 244 287
#     4   9  17  29  46  67  95 133 172 208 249 293
#     4  11  21  34  49  69 100 135 168 201 242 295
#
# _framework density 19.086141999999999
#
# number of rings (size 3 to 8) (size 9 to 14) (size 15 to 20)
#    0.000    2.167    1.667    2.250    0.000    2.333 
#    0.000    0.417    0.000    2.500    0.000    0.583 
#    0.000   10.667    0.000    0.000    0.000    0.000 
#
# Total GULP energy -267708.401761 kJ/mol
# GULP energy per Si atom -5577.258370 kJ/mol
# Density = 1.904270 g / cm^3
# Si number density = 19.086142 Si / 1000 Ang^3
#
#
#
# Elastic Constant Matrix: (Units=GPa)
#
#
# Indices 1 2 3 4 5 6 
#
# 1 28.6068 -0.6426 -5.4498 0.0000 0.0000 0.0000
# 2 -0.6426 17.3903 14.8967 0.0000 0.0000 0.0000
# 3 -5.4498 14.8967 88.6704 0.0000 0.0000 0.0000
# 4 0.0000 0.0000 0.0000 15.1674 0.0000 0.0000
# 5 0.0000 0.0000 0.0000 0.0000 18.1978 0.0000
# 6 0.0000 0.0000 0.0000 0.0000 0.0000 17.4944
#
#
#
# Elastic Compliance Matrix: (Units=1/GPa)
#
#
# Indices 1 2 3 4 5 6 
#
# 1 0.035377 -0.000649 0.002283 0.000000 0.000000 0.000000
# 2 -0.000649 0.067182 -0.011326 0.000000 0.000000 0.000000
# 3 0.002283 -0.011326 0.013321 0.000000 0.000000 0.000000
# 4 0.000000 0.000000 0.000000 0.065931 0.000000 0.000000
# 5 0.000000 0.000000 0.000000 0.000000 0.054952 0.000000
# 6 0.000000 0.000000 0.000000 0.000000 0.000000 0.057161
#
#
# Mechanical properties :
#
#
# Convention : Reuss Voigt Hill
#
# Bulk Modulus (GPa) = 10.36311 16.91957 13.64134
# Shear Modulus (GPa) = 14.47294 18.56280 16.51787
#
# Velocity S-wave (km/s) = 2.75670 3.12200 2.94502
# Velocity P-wave (km/s) = 3.94639 4.67760 4.32747
#
# Compressibility (1/GPa) = 0.09649611
#
# Stress axis : x y z
#
# Youngs Moduli (GPa) = 28.26686 14.88504 75.06999
#
# Poissons Ratio (x) = 0.00965 -0.17141
# Poissons Ratio (y) = 0.01833 0.85027
# Poissons Ratio (z) = -0.06454 0.16859
#
# Static dielectric constant tensor:
#      x y z
#    x 1.686150 0.000000 0.000000 
#    y 0.000000 1.710210 0.000000 
#    z 0.000000 0.000000 1.671850 
# 
# From -- ./inp_files/61897.got.cif
#   From: 2010.05.17/outbox.cif.g08.bks.cpg/sg71_31_cif.got.tgz:61897.got - 2010.06.03 16:22:01.
