data_PCOD9517761
_publ_section_title
;
Structure prediction by ZEFSAII (Michael W. Deem and Ramdas Pophale) SiO2 
 PCOD9517761
Probable space group: I M M M
;
_chemical_formula_sum "Si O2"
_cell_formula_units_Z 80
_cell_length_a 27.255786
_cell_length_b 8.486259
_cell_length_c 24.459903
_cell_angle_alpha 90.000000
_cell_angle_beta 90.000000
_cell_angle_gamma 90.000000
_cell_volume 5657.567229
_symmetry_space_group_name_H-M "I M M M"
_symmetry_group_IT_number 71
_symmetry_cell_setting 'orthorhombic'
loop_
_space_group_symop_operation_xyz
x,y,z
-x,-y,z
x,-y,-z
-x,y,-z
-x,-y,-z
x,y,-z
-x,y,z
x,-y,z
1/2+x,1/2+y,1/2+z
1/2-x,1/2-y,1/2+z
1/2+x,1/2-y,1/2-z
1/2-x,1/2+y,1/2-z
1/2-x,1/2-y,1/2-z
1/2+x,1/2+y,1/2-z
1/2-x,1/2+y,1/2+z
1/2+x,1/2-y,1/2+z
loop_
_atom_site_type_symbol
_atom_site_label
_atom_site_fract_x
_atom_site_fract_y
_atom_site_fract_z
Si Si1 0.602213 0.189285 0.500000
Si Si2 0.796223 0.188962 0.714724
Si Si3 0.241806 0.188273 0.883479
Si Si4 0.145355 0.808318 0.814917
Si Si5 0.555875 0.690913 0.612510
Si Si6 0.716263 0.811688 0.500000
O O1 0.575567 0.251728 0.445930
O O2 0.659165 0.242373 0.500000
O O3 0.601223 0.000000 0.500000
O O4 0.750000 0.250000 0.750000
O O5 0.786614 0.255077 0.654533
O O6 0.842230 0.238296 0.752566
O O7 0.794978 0.000000 0.712420
O O8 0.190965 0.242081 0.853677
O O9 0.241256 0.251337 0.944737
O O10 0.241223 0.000000 0.883934
O O11 0.094601 0.754800 0.841519
O O12 0.145454 0.000000 0.815764
O O13 0.500000 0.743191 0.621511
O O14 0.556261 0.500000 0.612108
O O15 0.716288 0.000000 0.500000
#
# Coordination Sequence:
#
# PCOD9517761 Si02
#       6
#     8  16  16  16  16   8
#     4  11  22  32  41  56  80 108 140 181 221 249
#     4   9  16  27  42  60  81 103 132 168 206 250
#     4  10  18  29  44  60  80 106 135 170 209 249
#     4   8  15  27  42  59  78 102 132 171 210 241
#     4  10  19  31  46  60  76 106 146 179 209 248
#     4  11  21  30  42  61  82 110 141 173 210 251
#
# _framework density 14.140354
#
# number of rings (size 3 to 8) (size 9 to 14) (size 15 to 20)
#    0.000    2.400    2.000    3.300    0.000    2.400 
#    0.000    1.000    0.000    0.000    0.000    0.000 
#    0.000    0.000    0.000    0.900    0.000   21.200 
#
# Total GULP energy -222845.799847 kJ/mol
# GULP energy per Si atom -5571.144996 kJ/mol
# Density = 1.410817 g / cm^3
# Si number density = 14.140354 Si / 1000 Ang^3
#
#
#
# Elastic Constant Matrix: (Units=GPa)
#
#
# Indices 1 2 3 4 5 6 
#
# 1 75.9150 14.5590 72.3955 0.0000 0.0000 0.0000
# 2 14.5590 26.8879 26.0851 0.0000 0.0000 0.0000
# 3 72.3955 26.0851 134.0778 0.0000 0.0000 0.0000
# 4 0.0000 0.0000 0.0000 20.5017 0.0000 0.0000
# 5 0.0000 0.0000 0.0000 0.0000 12.6159 0.0000
# 6 0.0000 0.0000 0.0000 0.0000 0.0000 11.8393
#
#
#
# Elastic Compliance Matrix: (Units=1/GPa)
#
#
# Indices 1 2 3 4 5 6 
#
# 1 0.027163 -0.000591 -0.014552 0.000000 0.000000 0.000000
# 2 -0.000591 0.045857 -0.008603 0.000000 0.000000 0.000000
# 3 -0.014552 -0.008603 0.016989 0.000000 0.000000 0.000000
# 4 0.000000 0.000000 0.000000 0.048776 0.000000 0.000000
# 5 0.000000 0.000000 0.000000 0.000000 0.079265 0.000000
# 6 0.000000 0.000000 0.000000 0.000000 0.000000 0.084464
#
#
# Mechanical properties :
#
#
# Convention : Reuss Voigt Hill
#
# Bulk Modulus (GPa) = 23.51875 51.43997 37.47936
# Shear Modulus (GPa) = 13.72952 17.24746 15.48849
#
# Velocity S-wave (km/s) = 3.11938 3.49626 3.31318
# Velocity P-wave (km/s) = 5.44449 7.26330 6.41865
#
# Compressibility (1/GPa) = 0.04251926
#
# Stress axis : x y z
#
# Youngs Moduli (GPa) = 36.81466 21.80683 58.86051
#
# Poissons Ratio (x) = 0.01288 0.85653
# Poissons Ratio (y) = 0.02174 0.50636
# Poissons Ratio (z) = 0.53572 0.18760
#
# Static dielectric constant tensor:
#      x y z
#    x 1.462930 0.000000 0.000000 
#    y 0.000000 1.481090 0.000000 
#    z 0.000000 0.000000 1.471720 
# 
# From -- ./inp_files/11268.got.cif
#   From: 2010.05.17/outbox.cif.g08.bks.cpg/sg71_6_cif.got.tgz:11268.got - 2010.06.03 16:22:01.
