data_PCOD9517778
_publ_section_title
;
Structure prediction by ZEFSAII (Michael W. Deem and Ramdas Pophale) SiO2 
 PCOD9517778
Probable space group: I M M M
;
_chemical_formula_sum "Si O2"
_cell_formula_units_Z 96
_cell_length_a 31.776161
_cell_length_b 21.906364
_cell_length_c 7.631110
_cell_angle_alpha 90.000000
_cell_angle_beta 90.000000
_cell_angle_gamma 90.000000
_cell_volume 5312.016811
_symmetry_space_group_name_H-M "I M M M"
_symmetry_group_IT_number 71
_symmetry_cell_setting 'orthorhombic'
loop_
_space_group_symop_operation_xyz
x,y,z
-x,-y,z
x,-y,-z
-x,y,-z
-x,-y,-z
x,y,-z
-x,y,z
x,-y,z
1/2+x,1/2+y,1/2+z
1/2-x,1/2-y,1/2+z
1/2+x,1/2-y,1/2-z
1/2-x,1/2+y,1/2-z
1/2-x,1/2-y,1/2-z
1/2+x,1/2+y,1/2-z
1/2-x,1/2+y,1/2+z
1/2+x,1/2-y,1/2+z
loop_
_atom_site_type_symbol
_atom_site_label
_atom_site_fract_x
_atom_site_fract_y
_atom_site_fract_z
Si Si1 0.064937 0.065770 0.203339
Si Si2 0.752237 0.434231 0.293537
Si Si3 0.716559 0.803838 0.211245
Si Si4 0.454558 0.297118 0.205034
Si Si5 0.136714 0.766575 0.286689
Si Si6 0.841711 0.904234 0.289742
O O1 0.050199 0.129166 0.286559
O O2 0.115606 0.067595 0.216278
O O3 0.050913 0.000000 0.276073
O O4 0.052609 0.068306 0.000000
O O5 0.762511 0.434633 0.500000
O O6 0.766281 0.500000 0.219424
O O7 0.769632 0.370243 0.219818
O O8 0.701840 0.430813 0.275494
O O9 0.750000 0.750000 0.250000
O O10 0.670248 0.783312 0.273542
O O11 0.715120 0.807479 0.000000
O O12 0.500000 0.280723 0.283100
O O13 0.411472 0.268306 0.278781
O O14 0.455511 0.280731 0.000000
O O15 0.134808 0.763810 0.500000
O O16 0.156246 0.832608 0.243570
O O17 0.843315 0.910310 0.500000
#
# Coordination Sequence:
#
# PCOD9517778 Si02
#       6
#    16  16  16  16  16  16
#     4  10  20  31  42  58  83 114 147 182 221 266
#     4  10  20  30  41  62  92 122 150 184 227 270
#     4  10  18  30  47  65  89 118 151 187 219 263
#     4   9  18  32  48  64  82 104 136 183 232 272
#     4   8  15  28  45  64  83 106 141 182 219 257
#     4  10  18  29  45  63  84 113 152 192 224 258
#
# _framework density 18.072233000000001
#
# number of rings (size 3 to 8) (size 9 to 14) (size 15 to 20)
#    0.000    2.500    1.667    2.500    0.000    4.333 
#    0.000    1.667    0.000    0.000    0.000    0.000 
#    0.000    0.667    0.000    9.333    0.000    0.000 
#
# Total GULP energy -267646.641107 kJ/mol
# GULP energy per Si atom -5575.971690 kJ/mol
# Density = 1.803110 g / cm^3
# Si number density = 18.072233 Si / 1000 Ang^3
#
#
#
# Elastic Constant Matrix: (Units=GPa)
#
#
# Indices 1 2 3 4 5 6 
#
# 1 131.6484 70.3352 -3.2074 0.0000 0.0000 0.0000
# 2 70.3352 114.5543 6.1387 0.0000 0.0000 0.0000
# 3 -3.2074 6.1387 39.3984 0.0000 0.0000 0.0000
# 4 0.0000 0.0000 0.0000 23.1064 0.0000 0.0000
# 5 0.0000 0.0000 0.0000 0.0000 4.6674 0.0000
# 6 0.0000 0.0000 0.0000 0.0000 0.0000 -0.9156
#
#
#
# Elastic Compliance Matrix: (Units=1/GPa)
#
#
# Indices 1 2 3 4 5 6 
#
# 1 0.011466 -0.007149 0.002047 0.000000 0.000000 0.000000
# 2 -0.007149 0.013261 -0.002648 0.000000 0.000000 0.000000
# 3 0.002047 -0.002648 0.025961 0.000000 0.000000 0.000000
# 4 0.000000 0.000000 0.000000 0.043278 0.000000 0.000000
# 5 0.000000 0.000000 0.000000 0.000000 0.214253 0.000000
# 6 0.000000 0.000000 0.000000 0.000000 0.000000 -1.092188
#
#
# Mechanical properties :
#
#
# Convention : Reuss Voigt Hill
#
# Bulk Modulus (GPa) = 28.41958 48.01490 38.21724
# Shear Modulus (GPa) = -6.60730 19.52729 6.45999
#
# Velocity S-wave (km/s) = -1.91415 3.29068 1.89270
# Velocity P-wave (km/s) = 3.29763 6.40813 5.09600
#
# Compressibility (1/GPa) = 0.03518701
#
# Stress axis : x y z
#
# Youngs Moduli (GPa) = 87.21750 75.40852 38.51928
#
# Poissons Ratio (x) = 0.53913 -0.07886
# Poissons Ratio (y) = 0.62356 0.10201
# Poissons Ratio (z) = -0.17857 0.19970
#
# Static dielectric constant tensor:
#      x y z
#    x 1.651960 0.000000 0.000000 
#    y 0.000000 1.639410 0.000000 
#    z 0.000000 0.000000 1.685530 
# 
# From -- ./inp_files/15151.got.cif
#   From: 2010.05.17/outbox.cif.g08.bks.cpg/sg71_8_cif.got.tgz:15151.got - 2010.06.03 16:22:01.
