data_PCOD9517495
_publ_section_title
;
Structure prediction by ZEFSAII (Michael W. Deem and Ramdas Pophale) SiO2 
 PCOD9517495
Probable space group: I M M M
;
_chemical_formula_sum "Si O2"
_cell_formula_units_Z 76
_cell_length_a 10.894941
_cell_length_b 13.594998
_cell_length_c 29.872952
_cell_angle_alpha 90.000000
_cell_angle_beta 90.000000
_cell_angle_gamma 90.000000
_cell_volume 4424.683103
_symmetry_space_group_name_H-M "I M M M"
_symmetry_group_IT_number 71
_symmetry_cell_setting 'orthorhombic'
loop_
_space_group_symop_operation_xyz
x,y,z
-x,-y,z
x,-y,-z
-x,y,-z
-x,-y,-z
x,y,-z
-x,y,z
x,-y,z
1/2+x,1/2+y,1/2+z
1/2-x,1/2-y,1/2+z
1/2+x,1/2-y,1/2-z
1/2-x,1/2+y,1/2-z
1/2-x,1/2-y,1/2-z
1/2+x,1/2+y,1/2-z
1/2-x,1/2+y,1/2+z
1/2+x,1/2-y,1/2+z
loop_
_atom_site_type_symbol
_atom_site_label
_atom_site_fract_x
_atom_site_fract_y
_atom_site_fract_z
Si Si1 0.361499 0.310203 0.191345
Si Si2 0.264320 0.381640 0.901512
Si Si3 0.744202 0.111533 0.223129
Si Si4 0.000000 0.887966 0.169804
Si Si5 0.500000 0.785014 0.598030
Si Si6 0.500000 0.186489 0.500000
Si Si7 0.227682 0.886494 0.500000
O O1 0.500000 0.340275 0.202208
O O2 0.335110 0.335107 0.140035
O O3 0.341435 0.195423 0.202529
O O4 0.268166 0.366123 0.224541
O O5 0.273827 0.500000 0.900175
O O6 0.122626 0.349162 0.895934
O O7 0.308535 0.346465 0.951052
O O8 0.877154 0.123097 0.199335
O O9 0.701600 0.000000 0.216767
O O10 0.000000 0.805932 0.131625
O O11 0.000000 0.000000 0.152056
O O12 0.500000 0.753105 0.545888
O O13 0.623424 0.121669 0.500000
O O14 0.190024 0.000000 0.500000
#
# Coordination Sequence:
#
# PCOD9517495 Si02
#       7
#    16  16  16   8   8   4   8
#     4  11  22  35  53  76 103 133 170 207 246 296
#     4  10  19  31  50  75 104 136 168 208 251 299
#     4  10  21  37  54  73 101 135 167 204 249 298
#     4  10  18  33  56  74  98 133 167 204 253 303
#     4  10  17  32  49  77 102 133 170 210 253 303
#     4   8  15  24  47  70 102 130 162 208 256 296
#     4   8  15  28  45  69 100 133 168 202 249 300
#
# _framework density 17.176369999999999
#
# number of rings (size 3 to 8) (size 9 to 14) (size 15 to 20)
#    0.000    2.105    3.158    1.105    0.000    4.211 
#    0.000    0.789    0.000    1.895    0.000    0.737 
#    0.000    1.684    0.000    0.000    0.000    0.000 
#
# Total GULP energy -211775.261854 kJ/mol
# GULP energy per Si atom -5573.033207 kJ/mol
# Density = 1.713728 g / cm^3
# Si number density = 17.176370 Si / 1000 Ang^3
#
#
#
# Elastic Constant Matrix: (Units=GPa)
#
#
# Indices 1 2 3 4 5 6 
#
# 1 18.6857 -4.8688 11.3626 0.0000 0.0000 0.0000
# 2 -4.8688 55.3903 43.8324 0.0000 0.0000 0.0000
# 3 11.3626 43.8324 136.7578 0.0000 0.0000 0.0000
# 4 0.0000 0.0000 0.0000 23.6672 0.0000 0.0000
# 5 0.0000 0.0000 0.0000 0.0000 18.5922 0.0000
# 6 0.0000 0.0000 0.0000 0.0000 0.0000 14.1539
#
#
#
# Elastic Compliance Matrix: (Units=1/GPa)
#
#
# Indices 1 2 3 4 5 6 
#
# 1 0.062541 0.012875 -0.009323 0.000000 0.000000 0.000000
# 2 0.012875 0.026839 -0.009672 0.000000 0.000000 0.000000
# 3 -0.009323 -0.009672 0.011187 0.000000 0.000000 0.000000
# 4 0.000000 0.000000 0.000000 0.042253 0.000000 0.000000
# 5 0.000000 0.000000 0.000000 0.000000 0.053786 0.000000
# 6 0.000000 0.000000 0.000000 0.000000 0.000000 0.070652
#
#
# Mechanical properties :
#
#
# Convention : Reuss Voigt Hill
#
# Bulk Modulus (GPa) = 11.32160 34.60957 22.96558
# Shear Modulus (GPa) = 16.18440 21.98315 19.08378
#
# Velocity S-wave (km/s) = 3.07294 3.58138 3.33686
# Velocity P-wave (km/s) = 4.38136 6.10696 5.31466
#
# Compressibility (1/GPa) = 0.08832672
#
# Stress axis : x y z
#
# Youngs Moduli (GPa) = 15.98961 37.25895 89.39143
#
# Poissons Ratio (x) = -0.47970 0.83337
# Poissons Ratio (y) = -0.20586 0.86459
# Poissons Ratio (z) = 0.14907 0.36037
#
# Static dielectric constant tensor:
#      x y z
#    x 1.573040 0.000000 0.000000 
#    y 0.000000 1.558000 0.000000 
#    z 0.000000 0.000000 1.609500 
# 
# From -- ./inp_files/40131.got.cif
#   From: 2010.05.17/outbox.cif.g08.bks.cpg/sg71_21_cif.got.tgz:40131.got - 2010.06.03 16:22:01.
