data_PCOD9517163
_publ_section_title
;
Structure prediction by ZEFSAII (Michael W. Deem and Ramdas Pophale) SiO2 
 PCOD9517163
Probable space group: F D D D
;
_chemical_formula_sum "Si O2"
_cell_formula_units_Z 54
_cell_length_a 15.000000
_cell_length_b 30.000000
_cell_length_c 24.000000
_cell_angle_alpha 90.000000
_cell_angle_beta 90.000000
_cell_angle_gamma 90.000000
_cell_volume 10800.000000
_symmetry_space_group_name_H-M "F D D D"
_symmetry_group_IT_number 70
_space_group.IT_coordinate_system_code '2'
_symmetry_cell_setting 'orthorhombic'
loop_
_space_group_symop_operation_xyz
x,y,z
1/4-x,1/4-y,z
x,1/4-y,1/4-z
1/4-x,y,1/4-z
-x,-y,-z
3/4+x,3/4+y,-z
-x,3/4+y,3/4+z
3/4+x,-y,3/4+z
x,1/2+y,1/2+z
1/4-x,3/4-y,1/2+z
x,3/4-y,3/4-z
1/4-x,1/2+y,3/4-z
-x,1/2-y,1/2-z
3/4+x,1/4+y,1/2-z
-x,1/4+y,1/4+z
3/4+x,1/2-y,1/4+z
1/2+x,y,1/2+z
3/4-x,1/4-y,1/2+z
1/2+x,1/4-y,3/4-z
3/4-x,y,3/4-z
1/2-x,-y,1/2-z
1/4+x,3/4+y,1/2-z
1/2-x,3/4+y,1/4+z
1/4+x,-y,1/4+z
1/2+x,1/2+y,z
3/4-x,3/4-y,z
1/2+x,3/4-y,1/4-z
3/4-x,1/2+y,1/4-z
1/2-x,1/2-y,-z
1/4+x,1/4+y,-z
1/2-x,1/4+y,3/4+z
1/4+x,1/2-y,3/4+z
loop_
_atom_site_type_symbol
_atom_site_label
_atom_site_fract_x
_atom_site_fract_y
_atom_site_fract_z
Si Si1 0.216043 0.888715 0.718233
Si Si2 0.809919 0.550514 0.943130
Si Si3 0.054423 0.828621 0.343993
Si Si4 0.648650 0.578591 0.871821
Si Si5 0.501941 0.801368 0.430516
Si Si6 0.208177 0.798427 0.663960
Si Si7 0.625000 0.125000 0.625000
Si Si8 0.875000 0.972721 0.375000
O O1 0.130322 0.909495 0.687077
O O2 0.214179 0.908613 0.779712
O O3 0.302675 0.906354 0.685398
O O4 0.210474 0.835095 0.713572
O O5 0.724614 0.552245 0.903592
O O6 0.862129 0.505371 0.928087
O O7 0.773997 0.555093 0.004786
O O8 0.067773 0.875000 0.375000
O O9 0.149102 0.802722 0.347721
O O10 0.965885 0.804794 0.367195
O O11 0.625000 0.625000 0.902436
O O12 0.555217 0.554710 0.863816
O O13 0.453080 0.753913 0.425531
O O14 0.440068 0.841768 0.409401
O O15 0.125000 0.810619 0.625000
#
# Coordination Sequence:
#
# PCOD9517163 Si02
#       8
#    32  32  32  32  32  32   8  16
#     4  10  22  41  67  94 136 172 217 273 349 394
#     4  11  23  42  64 102 128 177 217 286 333 413
#     4  11  26  44  66  98 137 184 216 275 338 414
#     4  10  20  37  64  91 132 166 218 272 338 393
#     4  11  26  44  72  90 135 176 234 274 339 396
#     4  11  23  42  65  97 126 173 225 283 325 399
#     4  12  24  56  66  94 132 194 232 284 342 398
#     4  12  25  40  73  98 148 167 232 265 352 418
#
# _framework density 5.0
#
# number of rings (size 3 to 8) (size 9 to 14) (size 15 to 20)
#    0.000    1.185    2.963    2.889    5.185    3.556 
#    0.000    0.741    0.000    0.000    0.000    0.000 
#    0.000    0.000    0.000    0.000    0.000    0.000 
#
# Total GULP energy -301222.976880 kJ/mol
# GULP energy per Si atom -5578.203276 kJ/mol
# Density = 0.498862 g / cm^3
# Si number density = 5.000000 Si / 1000 Ang^3
#
#
#
# Elastic Constant Matrix: (Units=GPa)
#
#
# Indices 1 2 3 4 5 6 
#
# 1 114.4446 27.4861 25.7315 0.0000 0.0000 0.0000
# 2 27.4861 107.8971 22.2929 0.0000 0.0000 0.0000
# 3 25.7315 22.2929 61.3956 0.0000 0.0000 0.0000
# 4 0.0000 0.0000 0.0000 12.2824 0.0000 0.0000
# 5 0.0000 0.0000 0.0000 0.0000 21.6583 0.0000
# 6 0.0000 0.0000 0.0000 0.0000 0.0000 46.3513
#
#
#
# Elastic Compliance Matrix: (Units=1/GPa)
#
#
# Indices 1 2 3 4 5 6 
#
# 1 0.009964 -0.001811 -0.003518 0.000000 0.000000 0.000000
# 2 -0.001811 0.010349 -0.002999 0.000000 0.000000 0.000000
# 3 -0.003518 -0.002999 0.018851 0.000000 0.000000 0.000000
# 4 0.000000 0.000000 0.000000 0.081417 0.000000 0.000000
# 5 0.000000 0.000000 0.000000 0.000000 0.046172 0.000000
# 6 0.000000 0.000000 0.000000 0.000000 0.000000 0.021574
#
#
# Mechanical properties :
#
#
# Convention : Reuss Voigt Hill
#
# Bulk Modulus (GPa) = 44.42927 48.30648 46.36788
# Shear Modulus (GPa) = 23.53093 29.94020 26.73556
#
# Velocity S-wave (km/s) = 3.43380 3.87332 3.66016
# Velocity P-wave (km/s) = 6.16313 6.64900 6.41067
#
# Compressibility (1/GPa) = 0.02250769
#
# Stress axis : x y z
#
# Youngs Moduli (GPa) = 100.36210 96.62706 53.04716
#
# Poissons Ratio (x) = 0.17502 0.18663
# Poissons Ratio (y) = 0.18179 0.15907
# Poissons Ratio (z) = 0.35310 0.28975
#
# Static dielectric constant tensor:
#      x y z
#    x 1.696650 0.000000 0.000000 
#    y 0.000000 1.732900 0.000000 
#    z 0.000000 0.000000 1.691800 
# 
# From -- ./inp_files/51616.got.cif
#   From: 2010.05.17/outbox.ucp.g08.bks.cvg/sg70_26_cif.got.tgz:51616.got - 2010.06.11 16:26:41.
