data_PCOD9517538
_publ_section_title
;
Structure prediction by ZEFSAII (Michael W. Deem and Ramdas Pophale) SiO2 
 PCOD9517538
Probable space group: I M M M
;
_chemical_formula_sum "Si O2"
_cell_formula_units_Z 88
_cell_length_a 19.297081
_cell_length_b 7.443605
_cell_length_c 31.314371
_cell_angle_alpha 90.000000
_cell_angle_beta 90.000000
_cell_angle_gamma 90.000000
_cell_volume 4497.991510
_symmetry_space_group_name_H-M "I M M M"
_symmetry_group_IT_number 71
_symmetry_cell_setting 'orthorhombic'
loop_
_space_group_symop_operation_xyz
x,y,z
-x,-y,z
x,-y,-z
-x,y,-z
-x,-y,-z
x,y,-z
-x,y,z
x,-y,z
1/2+x,1/2+y,1/2+z
1/2-x,1/2-y,1/2+z
1/2+x,1/2-y,1/2-z
1/2-x,1/2+y,1/2-z
1/2-x,1/2-y,1/2-z
1/2+x,1/2+y,1/2-z
1/2-x,1/2+y,1/2+z
1/2+x,1/2-y,1/2+z
loop_
_atom_site_type_symbol
_atom_site_label
_atom_site_fract_x
_atom_site_fract_y
_atom_site_fract_z
Si Si1 0.500000 0.295024 0.351263
Si Si2 0.583825 0.295474 0.000000
Si Si3 0.920310 0.220429 0.405862
Si Si4 0.848751 0.791353 0.256405
Si Si5 0.000000 0.714852 0.248990
Si Si6 0.298549 0.715165 0.156189
Si Si7 0.647327 0.715311 0.660104
O O1 0.500000 0.500000 0.367303
O O2 0.500000 0.293037 0.299190
O O3 0.575952 0.215169 0.360986
O O4 0.600430 0.217154 0.046329
O O5 0.610935 0.500000 0.000000
O O6 0.500000 0.304213 0.000000
O O7 0.862281 0.279958 0.372445
O O8 0.000000 0.274295 0.396542
O O9 0.920710 0.000000 0.406765
O O10 0.805090 0.712407 0.295269
O O11 0.846803 0.711134 0.208850
O O12 0.929244 0.778472 0.270296
O O13 0.829832 0.000000 0.252117
O O14 0.000000 0.500000 0.246440
O O15 0.305965 0.500000 0.158818
O O16 0.221551 0.751840 0.139133
O O17 0.637899 0.500000 0.663248
#
# Coordination Sequence:
#
# PCOD9517538 Si02
#       7
#     8   8  16  16   8  16  16
#     4   8  16  32  48  58  72 103 140 169 207 258
#     4   7  10  20  38  58  83 110 137 168 202 241
#     4   8  14  24  39  61  86 113 141 170 204 244
#     4   9  18  30  41  53  77 115 144 168 207 257
#     4  10  18  26  40  60  76  97 138 185 213 236
#     4  10  19  27  41  63  84 107 139 175 209 246
#     4   9  17  30  44  57  78 108 140 172 209 251
#
# _framework density 19.564288000000001
#
# number of rings (size 3 to 8) (size 9 to 14) (size 15 to 20)
#    0.000    3.182    0.000    3.545    1.273    3.636 
#    0.000    0.000    0.000    0.000    0.000    0.636 
#    0.000    2.909    0.000    9.091    0.000    0.727 
#
# Total GULP energy -245068.178091 kJ/mol
# GULP energy per Si atom -5569.731320 kJ/mol
# Density = 1.951976 g / cm^3
# Si number density = 19.564288 Si / 1000 Ang^3
#
#
#
# Elastic Constant Matrix: (Units=GPa)
#
#
# Indices 1 2 3 4 5 6 
#
# 1 155.3179 -3.4371 32.3093 0.0000 0.0000 0.0000
# 2 -3.4371 71.7726 8.9708 0.0000 0.0000 0.0000
# 3 32.3093 8.9708 40.7575 0.0000 0.0000 0.0000
# 4 0.0000 0.0000 0.0000 -7.8010 0.0000 0.0000
# 5 0.0000 0.0000 0.0000 0.0000 13.0530 0.0000
# 6 0.0000 0.0000 0.0000 0.0000 0.0000 16.2154
#
#
#
# Elastic Compliance Matrix: (Units=1/GPa)
#
#
# Indices 1 2 3 4 5 6 
#
# 1 0.007806 0.001180 -0.006447 0.000000 0.000000 0.000000
# 2 0.001180 0.014505 -0.004128 0.000000 0.000000 0.000000
# 3 -0.006447 -0.004128 0.030555 0.000000 0.000000 0.000000
# 4 0.000000 0.000000 0.000000 -0.128189 0.000000 0.000000
# 5 0.000000 0.000000 0.000000 0.000000 0.076611 0.000000
# 6 0.000000 0.000000 0.000000 0.000000 0.000000 0.061670
#
#
# Mechanical properties :
#
#
# Convention : Reuss Voigt Hill
#
# Bulk Modulus (GPa) = 29.34716 38.17046 33.75881
# Shear Modulus (GPa) = 53.70187 19.62715 36.66451
#
# Velocity S-wave (km/s) = 5.24486 3.17079 4.33373
# Velocity P-wave (km/s) = 7.19103 5.74089 6.50649
#
# Compressibility (1/GPa) = 0.03407485
#
# Stress axis : x y z
#
# Youngs Moduli (GPa) = 128.11148 68.94029 32.72805
#
# Poissons Ratio (x) = -0.08133 0.21101
# Poissons Ratio (y) = -0.15113 0.13509
# Poissons Ratio (z) = 0.82598 0.28457
#
# Static dielectric constant tensor:
#      x y z
#    x 1.755760 0.000000 0.000000 
#    y 0.000000 1.770900 0.000000 
#    z 0.000000 0.000000 1.680420 
# 
# From -- ./inp_files/70692.got.cif
#   From: 2010.05.17/outbox.cif.g08.bks.cpg/sg71_36_cif.got.tgz:70692.got - 2010.06.03 16:22:01.
