data_PCOD9517735
_publ_section_title
;
Structure prediction by ZEFSAII (Michael W. Deem and Ramdas Pophale) SiO2 
 PCOD9517735
Probable space group: I M M M
;
_chemical_formula_sum "Si O2"
_cell_formula_units_Z 80
_cell_length_a 30.165508
_cell_length_b 15.199622
_cell_length_c 7.347919
_cell_angle_alpha 90.000000
_cell_angle_beta 90.000000
_cell_angle_gamma 90.000000
_cell_volume 3369.052597
_symmetry_space_group_name_H-M "I M M M"
_symmetry_group_IT_number 71
_symmetry_cell_setting 'orthorhombic'
loop_
_space_group_symop_operation_xyz
x,y,z
-x,-y,z
x,-y,-z
-x,y,-z
-x,-y,-z
x,y,-z
-x,y,z
x,-y,z
1/2+x,1/2+y,1/2+z
1/2-x,1/2-y,1/2+z
1/2+x,1/2-y,1/2-z
1/2-x,1/2+y,1/2-z
1/2-x,1/2-y,1/2-z
1/2+x,1/2+y,1/2-z
1/2-x,1/2+y,1/2+z
1/2+x,1/2-y,1/2+z
loop_
_atom_site_type_symbol
_atom_site_label
_atom_site_fract_x
_atom_site_fract_y
_atom_site_fract_z
Si Si1 0.821896 0.101580 0.796132
Si Si2 0.951978 0.713415 0.714832
Si Si3 0.632547 0.102915 0.221966
Si Si4 0.415578 0.399146 0.280072
Si Si5 0.269354 0.153468 0.783765
O O1 0.867147 0.134949 0.708788
O O2 0.773403 0.101865 0.710793
O O3 0.833440 0.000000 0.816381
O O4 0.818149 0.141281 0.000000
O O5 0.952509 0.694635 0.500000
O O6 0.908603 0.662380 0.786768
O O7 0.947506 0.818873 0.735403
O O8 0.000000 0.685655 0.789316
O O9 0.681246 0.136342 0.285208
O O10 0.627610 0.000000 0.270496
O O11 0.633036 0.107369 0.000000
O O12 0.412852 0.402555 0.500000
O O13 0.425994 0.500000 0.219368
O O14 0.250000 0.250000 0.750000
O O15 0.272438 0.134328 0.000000
#
# Coordination Sequence:
#
# PCOD9517735 Si02
#       5
#    16  16  16  16  16
#     4   8  14  26  45  68  92 119 152 186 222 273
#     4  10  21  35  51  73 100 130 167 215 267 307
#     4   9  18  33  53  76 101 133 176 218 252 295
#     4   9  18  33  53  76 102 133 167 202 246 307
#     4  10  18  28  47  73  99 127 158 195 240 289
#
# _framework density 23.745546999999998
#
# number of rings (size 3 to 8) (size 9 to 14) (size 15 to 20)
#    0.000    2.800    0.000    3.000    0.000    4.000 
#    0.000    4.000    0.000    5.400    0.000    1.400 
#    0.000    0.000    0.000    0.000    0.000    0.000 
#
# Total GULP energy -222776.079517 kJ/mol
# GULP energy per Si atom -5569.401988 kJ/mol
# Density = 2.369150 g / cm^3
# Si number density = 23.745547 Si / 1000 Ang^3
#
#
#
# Elastic Constant Matrix: (Units=GPa)
#
#
# Indices 1 2 3 4 5 6 
#
# 1 205.5715 67.1888 7.0793 0.0000 0.0000 0.0000
# 2 67.1888 103.4391 -11.0250 0.0000 0.0000 0.0000
# 3 7.0793 -11.0250 93.4725 0.0000 0.0000 0.0000
# 4 0.0000 0.0000 0.0000 -6.1236 0.0000 0.0000
# 5 0.0000 0.0000 0.0000 0.0000 -4.6686 0.0000
# 6 0.0000 0.0000 0.0000 0.0000 0.0000 22.4559
#
#
#
# Elastic Compliance Matrix: (Units=1/GPa)
#
#
# Indices 1 2 3 4 5 6 
#
# 1 0.006260 -0.004169 -0.000966 0.000000 0.000000 0.000000
# 2 -0.004169 0.012567 0.001798 0.000000 0.000000 0.000000
# 3 -0.000966 0.001798 0.010984 0.000000 0.000000 0.000000
# 4 0.000000 0.000000 0.000000 -0.163302 0.000000 0.000000
# 5 0.000000 0.000000 0.000000 0.000000 -0.214198 0.000000
# 6 0.000000 0.000000 0.000000 0.000000 0.000000 0.044532
#
#
# Mechanical properties :
#
#
# Convention : Reuss Voigt Hill
#
# Bulk Modulus (GPa) = 43.22094 58.77437 50.99766
# Shear Modulus (GPa) = -17.31479 24.94874 3.81697
#
# Velocity S-wave (km/s) = -2.70326 3.24492 1.26923
# Velocity P-wave (km/s) = 2.91508 6.23256 4.86531
#
# Compressibility (1/GPa) = 0.02313693
#
# Stress axis : x y z
#
# Youngs Moduli (GPa) = 159.73187 79.57074 91.04504
#
# Poissons Ratio (x) = 0.33177 0.08794
# Poissons Ratio (y) = 0.66599 -0.16371
# Poissons Ratio (z) = 0.15429 -0.14308
#
# Static dielectric constant tensor:
#      x y z
#    x 1.991570 0.000000 0.000000 
#    y 0.000000 2.090640 0.000000 
#    z 0.000000 0.000000 2.156630 
# 
# From -- ./inp_files/14550.got.cif
#   From: 2010.05.17/outbox.cif.g08.bks.cpg/sg71_8_cif.got.tgz:14550.got - 2010.06.03 16:22:01.
