data_PCOD9517087
_publ_section_title
;
Structure prediction by ZEFSAII (Michael W. Deem and Ramdas Pophale) SiO2 
 PCOD9517087
Probable space group: F D D D
;
_chemical_formula_sum "Si O2"
_cell_formula_units_Z 144
_cell_length_a 27.073316
_cell_length_b 14.780944
_cell_length_c 15.985071
_cell_angle_alpha 90.000000
_cell_angle_beta 90.000000
_cell_angle_gamma 90.000000
_cell_volume 6396.732558
_symmetry_space_group_name_H-M "F D D D"
_symmetry_group_IT_number 70
_space_group.IT_coordinate_system_code '2'
_symmetry_cell_setting 'orthorhombic'
loop_
_space_group_symop_operation_xyz
x,y,z
1/4-x,1/4-y,z
x,1/4-y,1/4-z
1/4-x,y,1/4-z
-x,-y,-z
3/4+x,3/4+y,-z
-x,3/4+y,3/4+z
3/4+x,-y,3/4+z
x,1/2+y,1/2+z
1/4-x,3/4-y,1/2+z
x,3/4-y,3/4-z
1/4-x,1/2+y,3/4-z
-x,1/2-y,1/2-z
3/4+x,1/4+y,1/2-z
-x,1/4+y,1/4+z
3/4+x,1/2-y,1/4+z
1/2+x,y,1/2+z
3/4-x,1/4-y,1/2+z
1/2+x,1/4-y,3/4-z
3/4-x,y,3/4-z
1/2-x,-y,1/2-z
1/4+x,3/4+y,1/2-z
1/2-x,3/4+y,1/4+z
1/4+x,-y,1/4+z
1/2+x,1/2+y,z
3/4-x,3/4-y,z
1/2+x,3/4-y,1/4-z
3/4-x,1/2+y,1/4-z
1/2-x,1/2-y,-z
1/4+x,1/4+y,-z
1/2-x,1/4+y,3/4+z
1/4+x,1/2-y,3/4+z
loop_
_atom_site_type_symbol
_atom_site_label
_atom_site_fract_x
_atom_site_fract_y
_atom_site_fract_z
Si Si1 0.112412 0.357568 0.718550
Si Si2 0.068943 0.730665 0.936880
Si Si3 0.754349 0.104230 0.223163
Si Si4 0.335245 0.798789 0.495820
Si Si5 0.244566 0.625000 0.625000
O O1 0.125000 0.326451 0.625000
O O2 0.131197 0.278551 0.780670
O O3 0.055403 0.383155 0.732047
O O4 0.143037 0.449105 0.733646
O O5 0.073900 0.691521 0.843937
O O6 0.029210 0.811326 0.930099
O O7 0.044174 0.656808 0.996029
O O8 0.760272 0.125000 0.125000
O O9 0.750000 0.000000 0.250000
O O10 0.375000 0.875000 0.473157
O O11 0.288836 0.815467 0.436417
#
# Coordination Sequence:
#
# PCOD9517087 Si02
#       5
#    32  32  32  32  16
#     4  12  26  48  74 109 149 194 252 312 379 452
#     4  12  27  46  74 106 150 194 249 310 373 451
#     4  12  29  48  75 107 150 205 257 311 380 466
#     4  12  25  44  75 109 147 193 241 310 376 450
#     4  12  25  44  76 108 146 182 242 305 384 438
#
# _framework density 22.511493999999999
#
# number of rings (size 3 to 8) (size 9 to 14) (size 15 to 20)
#    0.000    0.000    2.222    7.667   12.444    0.000 
#    0.000    2.222    0.000    0.000    0.000    0.000 
#    0.000    0.000    0.000    0.000    0.000    0.000 
#
# Total GULP energy -201729.135406 kJ/mol
# GULP energy per Si atom -5603.587095 kJ/mol
# Density = 2.246026 g / cm^3
# Si number density = 22.511494 Si / 1000 Ang^3
#
#
#
# Elastic Constant Matrix: (Units=GPa)
#
#
# Indices 1 2 3 4 5 6 
#
# 1 57.7856 8.4986 -0.7770 0.0000 0.0000 0.0000
# 2 8.4986 92.5030 2.7295 0.0000 0.0000 0.0000
# 3 -0.7770 2.7295 108.5879 0.0000 0.0000 0.0000
# 4 0.0000 0.0000 0.0000 23.6497 0.0000 0.0000
# 5 0.0000 0.0000 0.0000 0.0000 42.6939 0.0000
# 6 0.0000 0.0000 0.0000 0.0000 0.0000 37.7223
#
#
#
# Elastic Compliance Matrix: (Units=1/GPa)
#
#
# Indices 1 2 3 4 5 6 
#
# 1 0.017545 -0.001617 0.000166 0.000000 0.000000 0.000000
# 2 -0.001617 0.010967 -0.000287 0.000000 0.000000 0.000000
# 3 0.000166 -0.000287 0.009218 0.000000 0.000000 0.000000
# 4 0.000000 0.000000 0.000000 0.042284 0.000000 0.000000
# 5 0.000000 0.000000 0.000000 0.000000 0.023423 0.000000
# 6 0.000000 0.000000 0.000000 0.000000 0.000000 0.026510
#
#
# Mechanical properties :
#
#
# Convention : Reuss Voigt Hill
#
# Bulk Modulus (GPa) = 29.19319 31.08650 30.13985
# Shear Modulus (GPa) = 34.52079 37.37489 35.94784
#
# Velocity S-wave (km/s) = 3.92021 4.07905 4.00042
# Velocity P-wave (km/s) = 5.78679 6.00200 5.89538
#
# Compressibility (1/GPa) = 0.03425456
#
# Stress axis : x y z
#
# Youngs Moduli (GPa) = 56.99510 91.17863 108.48880
#
# Poissons Ratio (x) = 0.14742 -0.01803
# Poissons Ratio (y) = 0.09215 0.03116
# Poissons Ratio (z) = -0.00947 0.02619
#
# Static dielectric constant tensor:
#      x y z
#    x 1.773000 0.000000 0.000000 
#    y 0.000000 1.871790 0.000000 
#    z 0.000000 0.000000 1.492980 
# 
# From -- ./inp_files/39478.got.cif
#   From: 2010.05.17/outbox.cif.g08.bks.cpg/sg70_20_cif.got.tgz:39478.got - 2010.06.03 15:57:51.
