data_PCOD9517961
_publ_section_title
;
Structure prediction by ZEFSAII (Michael W. Deem and Ramdas Pophale) SiO2 
 PCOD9517961
Probable space group: I M M M
;
_chemical_formula_sum "Si O2"
_cell_formula_units_Z 72
_cell_length_a 14.596435
_cell_length_b 12.741305
_cell_length_c 24.049556
_cell_angle_alpha 90.000000
_cell_angle_beta 90.000000
_cell_angle_gamma 90.000000
_cell_volume 4472.679433
_symmetry_space_group_name_H-M "I M M M"
_symmetry_group_IT_number 71
_symmetry_cell_setting 'orthorhombic'
loop_
_space_group_symop_operation_xyz
x,y,z
-x,-y,z
x,-y,-z
-x,y,-z
-x,-y,-z
x,y,-z
-x,y,z
x,-y,z
1/2+x,1/2+y,1/2+z
1/2-x,1/2-y,1/2+z
1/2+x,1/2-y,1/2-z
1/2-x,1/2+y,1/2-z
1/2-x,1/2-y,1/2-z
1/2+x,1/2+y,1/2-z
1/2-x,1/2+y,1/2+z
1/2+x,1/2-y,1/2+z
loop_
_atom_site_type_symbol
_atom_site_label
_atom_site_fract_x
_atom_site_fract_y
_atom_site_fract_z
Si Si1 0.500000 0.115625 0.934203
Si Si2 0.500000 0.374138 0.179640
Si Si3 0.176179 0.876584 0.120150
Si Si4 0.000000 0.126533 0.193018
Si Si5 0.252986 0.375755 0.000000
Si Si6 0.390073 0.694355 0.500000
Si Si7 0.655720 0.731152 0.893635
O O1 0.411003 0.179893 0.917620
O O2 0.500000 0.000000 0.908827
O O3 0.500000 0.107076 0.000000
O O4 0.500000 0.500000 0.178335
O O5 0.500000 0.336223 0.243515
O O6 0.591269 0.332943 0.148517
O O7 0.258620 0.795618 0.130755
O O8 0.090556 0.845208 0.158698
O O9 0.199016 0.000000 0.129450
O O10 0.145197 0.862794 0.055821
O O11 0.000000 0.000000 0.195005
O O12 0.308389 0.339876 0.944813
O O13 0.238692 0.500000 0.000000
O O14 0.159303 0.308066 0.000000
O O15 0.500000 0.699248 0.500000
#
# Coordination Sequence:
#
# PCOD9517961 Si02
#       7
#     8   8  16   8   8   8  16
#     4  10  18  30  46  71 107 134 158 199 250 306
#     4  10  21  36  53  71  95 132 180 221 246 281
#     4  10  19  32  52  79 109 131 158 201 252 311
#     4   9  19  34  52  75  99 130 169 210 253 292
#     4  10  20  33  48  71 101 131 167 210 247 289
#     4  10  19  31  51  79 103 133 165 196 247 309
#     4  10  20  33  50  75  99 135 171 201 252 305
#
# _framework density 16.097733999999999
#
# number of rings (size 3 to 8) (size 9 to 14) (size 15 to 20)
#    0.000    2.111    2.222    1.667    0.000    1.556 
#    0.000    1.667    0.000    0.000    0.000   21.778 
#    0.000    0.000    0.000    0.000    0.000    0.000 
#
# Total GULP energy -200662.251042 kJ/mol
# GULP energy per Si atom -5573.951418 kJ/mol
# Density = 1.606109 g / cm^3
# Si number density = 16.097734 Si / 1000 Ang^3
#
#
#
# Elastic Constant Matrix: (Units=GPa)
#
#
# Indices 1 2 3 4 5 6 
#
# 1 116.5850 40.0768 43.7036 0.0000 0.0000 0.0000
# 2 40.0768 97.7228 27.6816 0.0000 0.0000 0.0000
# 3 43.7036 27.6816 93.6740 0.0000 0.0000 0.0000
# 4 0.0000 0.0000 0.0000 24.8070 0.0000 0.0000
# 5 0.0000 0.0000 0.0000 0.0000 -4.4126 0.0000
# 6 0.0000 0.0000 0.0000 0.0000 0.0000 25.9962
#
#
#
# Elastic Compliance Matrix: (Units=1/GPa)
#
#
# Indices 1 2 3 4 5 6 
#
# 1 0.011369 -0.003449 -0.004285 0.000000 0.000000 0.000000
# 2 -0.003449 0.012214 -0.002000 0.000000 0.000000 0.000000
# 3 -0.004285 -0.002000 0.013266 0.000000 0.000000 0.000000
# 4 0.000000 0.000000 0.000000 0.040311 0.000000 0.000000
# 5 0.000000 0.000000 0.000000 0.000000 -0.226623 0.000000
# 6 0.000000 0.000000 0.000000 0.000000 0.000000 0.038467
#
#
# Mechanical properties :
#
#
# Convention : Reuss Voigt Hill
#
# Bulk Modulus (GPa) = 57.53607 58.98953 58.26280
# Shear Modulus (GPa) = -58.32005 22.37943 -17.97031
#
# Velocity S-wave (km/s) = -6.02556 3.73261 -3.34477
# Velocity P-wave (km/s) = 3.54831 7.43644 4.62116
#
# Compressibility (1/GPa) = 0.01738040
#
# Stress axis : x y z
#
# Youngs Moduli (GPa) = 87.95575 81.87308 75.38236
#
# Poissons Ratio (x) = 0.28236 0.32303
# Poissons Ratio (y) = 0.30334 0.15079
# Poissons Ratio (z) = 0.37691 0.16377
#
# Static dielectric constant tensor:
#      x y z
#    x 1.552330 0.000000 0.000000 
#    y 0.000000 1.527400 0.000000 
#    z 0.000000 0.000000 1.532760 
# 
# From -- ./inp_files/59602.got.cif
#   From: 2010.05.17/outbox.cif.g08.bks.cpg/sg71_30_cif.got.tgz:59602.got - 2010.06.03 16:22:01.
