data_PCOD9517037
_publ_section_title
;
Structure prediction by ZEFSAII (Michael W. Deem and Ramdas Pophale) SiO2 
 PCOD9517037
Probable space group: F D D D
;
_chemical_formula_sum "Si O2"
_cell_formula_units_Z 160
_cell_length_a 10.737819
_cell_length_b 24.225005
_cell_length_c 26.251102
_cell_angle_alpha 90.000000
_cell_angle_beta 90.000000
_cell_angle_gamma 90.000000
_cell_volume 6828.534279
_symmetry_space_group_name_H-M "F D D D"
_symmetry_group_IT_number 70
_space_group.IT_coordinate_system_code '2'
_symmetry_cell_setting 'orthorhombic'
loop_
_space_group_symop_operation_xyz
x,y,z
1/4-x,1/4-y,z
x,1/4-y,1/4-z
1/4-x,y,1/4-z
-x,-y,-z
3/4+x,3/4+y,-z
-x,3/4+y,3/4+z
3/4+x,-y,3/4+z
x,1/2+y,1/2+z
1/4-x,3/4-y,1/2+z
x,3/4-y,3/4-z
1/4-x,1/2+y,3/4-z
-x,1/2-y,1/2-z
3/4+x,1/4+y,1/2-z
-x,1/4+y,1/4+z
3/4+x,1/2-y,1/4+z
1/2+x,y,1/2+z
3/4-x,1/4-y,1/2+z
1/2+x,1/4-y,3/4-z
3/4-x,y,3/4-z
1/2-x,-y,1/2-z
1/4+x,3/4+y,1/2-z
1/2-x,3/4+y,1/4+z
1/4+x,-y,1/4+z
1/2+x,1/2+y,z
3/4-x,3/4-y,z
1/2+x,3/4-y,1/4-z
3/4-x,1/2+y,1/4-z
1/2-x,1/2-y,-z
1/4+x,1/4+y,-z
1/2-x,1/4+y,3/4+z
1/4+x,1/2-y,3/4+z
loop_
_atom_site_type_symbol
_atom_site_label
_atom_site_fract_x
_atom_site_fract_y
_atom_site_fract_z
Si Si1 0.623671 0.273687 0.681613
Si Si2 0.234002 0.371292 0.243178
Si Si3 0.143344 0.560772 0.446304
Si Si4 0.682866 0.450031 0.462223
Si Si5 0.494180 0.533487 0.408719
O O1 0.625000 0.298355 0.625000
O O2 0.704295 0.313273 0.717838
O O3 0.483509 0.276639 0.701423
O O4 0.696777 0.215743 0.678830
O O5 0.375000 0.375000 0.262880
O O6 0.129253 0.389945 0.283397
O O7 0.222708 0.416301 0.197654
O O8 0.125000 0.625000 0.460432
O O9 0.254616 0.539055 0.481990
O O10 0.172475 0.557179 0.386866
O O11 0.569852 0.487808 0.440993
O O12 0.375000 0.513905 0.375000
#
# Coordination Sequence:
#
# PCOD9517037 Si02
#       5
#    32  32  32  32  32
#     4  12  23  43  71 102 141 181 240 305 361 421
#     4  12  23  40  70 105 138 172 228 293 363 425
#     4  12  23  43  71 102 141 181 240 305 361 421
#     4  12  26  40  68 106 137 185 228 298 366 427
#     4  12  23  40  70 105 138 172 228 293 363 425
#
# _framework density 23.431089
#
# number of rings (size 3 to 8) (size 9 to 14) (size 15 to 20)
#    0.000    0.000    8.000    3.600    0.000    0.000 
#    0.000    0.000    0.000    9.600    0.000    0.000 
#    0.000    0.000    0.000    0.000    0.000    0.000 
#
# Total GULP energy -223245.241959 kJ/mol
# GULP energy per Si atom -5581.131049 kJ/mol
# Density = 2.337776 g / cm^3
# Si number density = 23.431089 Si / 1000 Ang^3
#
#
#
# Elastic Constant Matrix: (Units=GPa)
#
#
# Indices 1 2 3 4 5 6 
#
# 1 177.8259 29.4135 28.5643 0.0000 0.0000 0.0000
# 2 29.4135 65.3253 46.8569 0.0000 0.0000 0.0000
# 3 28.5643 46.8569 46.8541 0.0000 0.0000 0.0000
# 4 0.0000 0.0000 0.0000 5.4779 0.0000 0.0000
# 5 0.0000 0.0000 0.0000 0.0000 41.7540 0.0000
# 6 0.0000 0.0000 0.0000 0.0000 0.0000 15.2604
#
#
#
# Elastic Compliance Matrix: (Units=1/GPa)
#
#
# Indices 1 2 3 4 5 6 
#
# 1 0.006235 -0.000286 -0.003515 0.000000 0.000000 0.000000
# 2 -0.000286 0.054168 -0.053997 0.000000 0.000000 0.000000
# 3 -0.003515 -0.053997 0.077486 0.000000 0.000000 0.000000
# 4 0.000000 0.000000 0.000000 0.182551 0.000000 0.000000
# 5 0.000000 0.000000 0.000000 0.000000 0.023950 0.000000
# 6 0.000000 0.000000 0.000000 0.000000 0.000000 0.065529
#
#
# Mechanical properties :
#
#
# Convention : Reuss Voigt Hill
#
# Bulk Modulus (GPa) = 44.85712 55.51944 50.18828
# Shear Modulus (GPa) = 9.38179 24.84317 17.11248
#
# Velocity S-wave (km/s) = 2.00317 3.25970 2.70540
# Velocity P-wave (km/s) = 4.95339 6.15742 5.58793
#
# Compressibility (1/GPa) = 0.02229301
#
# Stress axis : x y z
#
# Youngs Moduli (GPa) = 160.37297 18.46101 12.90553
#
# Poissons Ratio (x) = 0.00528 0.04537
# Poissons Ratio (y) = 0.04590 0.69686
# Poissons Ratio (z) = 0.56375 0.99684
#
# Static dielectric constant tensor:
#      x y z
#    x 2.004670 0.000000 0.000000 
#    y 0.000000 1.869840 0.000000 
#    z 0.000000 0.000000 1.887680 
# 
# From -- ./inp_files/57535.got.cif
#   From: 2010.05.17/outbox.cif.g08.bks.cpg/sg70_29_cif.got.tgz:57535.got - 2010.06.03 15:57:51.
