data_PCOD9517550
_publ_section_title
;
Structure prediction by ZEFSAII (Michael W. Deem and Ramdas Pophale) SiO2 
 PCOD9517550
Probable space group: I M M M
;
_chemical_formula_sum "Si O2"
_cell_formula_units_Z 80
_cell_length_a 20.720548
_cell_length_b 18.662368
_cell_length_c 9.689304
_cell_angle_alpha 90.000000
_cell_angle_beta 90.000000
_cell_angle_gamma 90.000000
_cell_volume 3746.800488
_symmetry_space_group_name_H-M "I M M M"
_symmetry_group_IT_number 71
_symmetry_cell_setting 'orthorhombic'
loop_
_space_group_symop_operation_xyz
x,y,z
-x,-y,z
x,-y,-z
-x,y,-z
-x,-y,-z
x,y,-z
-x,y,z
x,-y,z
1/2+x,1/2+y,1/2+z
1/2-x,1/2-y,1/2+z
1/2+x,1/2-y,1/2-z
1/2-x,1/2+y,1/2-z
1/2-x,1/2-y,1/2-z
1/2+x,1/2+y,1/2-z
1/2-x,1/2+y,1/2+z
1/2+x,1/2-y,1/2+z
loop_
_atom_site_type_symbol
_atom_site_label
_atom_site_fract_x
_atom_site_fract_y
_atom_site_fract_z
Si Si1 0.604672 0.842694 0.655875
Si Si2 0.240855 0.865909 0.655687
Si Si3 0.922639 0.918711 0.153777
Si Si4 0.746419 0.000000 0.165574
Si Si5 0.886326 0.500000 0.835461
Si Si6 0.116050 0.788214 0.340348
O O1 0.586017 0.822655 0.500000
O O2 0.683133 0.849114 0.660504
O O3 0.579982 0.923302 0.684527
O O4 0.588866 0.780566 0.761886
O O5 0.227952 0.894602 0.500000
O O6 0.226070 0.926603 0.769068
O O7 0.194055 0.797729 0.670719
O O8 0.906957 0.860315 0.267132
O O9 0.000000 0.921334 0.145678
O O10 0.900985 0.000000 0.183059
O O11 0.898329 0.898416 0.000000
O O12 0.673861 0.000000 0.230663
O O13 0.747528 0.000000 0.000000
O O14 0.866145 0.500000 0.000000
O O15 0.098799 0.785729 0.500000
#
# Coordination Sequence:
#
# PCOD9517550 Si02
#       6
#    16  16  16   8   8  16
#     4   9  17  32  51  70  99 140 178 210 246 298
#     4   9  19  33  45  63 100 142 173 208 253 302
#     4   9  20  40  61  78 100 132 172 218 264 312
#     4  10  18  26  42  66  89 124 173 216 248 289
#     4   8  16  32  50  66  93 134 171 204 248 295
#     4  11  22  32  49  77 105 132 167 213 262 310
#
# _framework density 21.35155
#
# number of rings (size 3 to 8) (size 9 to 14) (size 15 to 20)
#    0.000    2.600    0.000    3.900    1.400    5.600 
#    0.000    1.000    0.000    0.000    0.000    0.700 
#    0.000    5.600    0.000    0.000    0.000    0.000 
#
# Total GULP energy -223175.043678 kJ/mol
# GULP energy per Si atom -5579.376092 kJ/mol
# Density = 2.130295 g / cm^3
# Si number density = 21.351550 Si / 1000 Ang^3
#
#
#
# Elastic Constant Matrix: (Units=GPa)
#
#
# Indices 1 2 3 4 5 6 
#
# 1 35.9159 0.5531 11.0791 0.0000 0.0000 0.0000
# 2 0.5531 144.5963 121.1954 0.0000 0.0000 0.0000
# 3 11.0791 121.1954 184.7689 0.0000 0.0000 0.0000
# 4 0.0000 0.0000 0.0000 34.9942 0.0000 0.0000
# 5 0.0000 0.0000 0.0000 0.0000 9.3934 0.0000
# 6 0.0000 0.0000 0.0000 0.0000 0.0000 5.6587
#
#
#
# Elastic Compliance Matrix: (Units=1/GPa)
#
#
# Indices 1 2 3 4 5 6 
#
# 1 0.028936 0.002984 -0.003693 0.000000 0.000000 0.000000
# 2 0.002984 0.015669 -0.010456 0.000000 0.000000 0.000000
# 3 -0.003693 -0.010456 0.012492 0.000000 0.000000 0.000000
# 4 0.000000 0.000000 0.000000 0.028576 0.000000 0.000000
# 5 0.000000 0.000000 0.000000 0.000000 0.106458 0.000000
# 6 0.000000 0.000000 0.000000 0.000000 0.000000 0.176719
#
#
# Mechanical properties :
#
#
# Convention : Reuss Voigt Hill
#
# Bulk Modulus (GPa) = 28.76259 70.10401 49.43330
# Shear Modulus (GPa) = 12.41408 25.50617 18.96013
#
# Velocity S-wave (km/s) = 2.41387 3.46002 2.98316
# Velocity P-wave (km/s) = 4.61186 6.99048 5.92183
#
# Compressibility (1/GPa) = 0.03476738
#
# Stress axis : x y z
#
# Youngs Moduli (GPa) = 34.55914 63.82191 80.04959
#
# Poissons Ratio (x) = -0.19046 0.29558
# Poissons Ratio (y) = -0.10313 0.83703
# Poissons Ratio (z) = 0.12761 0.66735
#
# Static dielectric constant tensor:
#      x y z
#    x 1.844960 0.000000 0.000000 
#    y 0.000000 1.771430 0.000000 
#    z 0.000000 0.000000 1.734290 
# 
# From -- ./inp_files/14574.got.cif
#   From: 2010.05.17/outbox.cif.g08.bks.cpg/sg71_8_cif.got.tgz:14574.got - 2010.06.03 16:22:01.
