data_PCOD9517349
_publ_section_title
;
Structure prediction by ZEFSAII (Michael W. Deem and Ramdas Pophale) SiO2 
 PCOD9517349
Probable space group: I M M M
;
_chemical_formula_sum "Si O2"
_cell_formula_units_Z 96
_cell_length_a 9.078264
_cell_length_b 30.126913
_cell_length_c 24.536635
_cell_angle_alpha 90.000000
_cell_angle_beta 90.000000
_cell_angle_gamma 90.000000
_cell_volume 6710.771383
_symmetry_space_group_name_H-M "I M M M"
_symmetry_group_IT_number 71
_symmetry_cell_setting 'orthorhombic'
loop_
_space_group_symop_operation_xyz
x,y,z
-x,-y,z
x,-y,-z
-x,y,-z
-x,-y,-z
x,y,-z
-x,y,z
x,-y,z
1/2+x,1/2+y,1/2+z
1/2-x,1/2-y,1/2+z
1/2+x,1/2-y,1/2-z
1/2-x,1/2+y,1/2-z
1/2-x,1/2-y,1/2-z
1/2+x,1/2+y,1/2-z
1/2-x,1/2+y,1/2+z
1/2+x,1/2-y,1/2+z
loop_
_atom_site_type_symbol
_atom_site_label
_atom_site_fract_x
_atom_site_fract_y
_atom_site_fract_z
Si Si1 0.679272 0.314039 0.439382
Si Si2 0.175171 0.091137 0.236250
Si Si3 0.675273 0.179922 0.734802
Si Si4 0.176759 0.235545 0.831612
Si Si5 0.169221 0.500000 0.602139
Si Si6 0.670325 0.000000 0.234859
Si Si7 0.175877 0.909179 0.106101
O O1 0.730248 0.302583 0.500000
O O2 0.500000 0.314486 0.439808
O O3 0.721904 0.280247 0.391571
O O4 0.724791 0.364094 0.423344
O O5 0.246591 0.132587 0.266934
O O6 0.203848 0.096606 0.171003
O O7 0.000000 0.090216 0.243400
O O8 0.247367 0.044560 0.252703
O O9 0.500000 0.174417 0.740339
O O10 0.739918 0.205455 0.787447
O O11 0.704181 0.213406 0.684542
O O12 0.000000 0.227774 0.825542
O O13 0.174224 0.500000 0.668524
O O14 0.248245 0.545728 0.585877
O O15 0.000000 0.500000 0.584823
O O16 0.500000 0.000000 0.251357
O O17 0.000000 0.913889 0.099390
#
# Coordination Sequence:
#
# PCOD9517349 Si02
#       7
#    16  16  16  16   8   8  16
#     4   9  16  28  46  63  78 101 136 177 214 248
#     4  10  17  27  42  60  84 111 140 171 205 246
#     4  10  18  26  42  63  85 109 134 169 211 249
#     4   9  17  30  43  61  83 105 136 173 211 253
#     4   9  17  27  40  56  75 100 130 168 210 250
#     4   9  17  27  39  60  86 109 139 168 204 251
#     4   9  16  27  42  58  75  99 133 171 208 246
#
# _framework density 14.305358999999999
#
# number of rings (size 3 to 8) (size 9 to 14) (size 15 to 20)
#    0.000    2.667    1.667    1.500    0.000    3.333 
#    0.000    0.417    0.000    4.500    0.000    0.000 
#    0.000    0.000    0.000    0.750    0.000   17.667 
#
# Total GULP energy -267451.042795 kJ/mol
# GULP energy per Si atom -5571.896725 kJ/mol
# Density = 1.427280 g / cm^3
# Si number density = 14.305359 Si / 1000 Ang^3
#
#
#
# Elastic Constant Matrix: (Units=GPa)
#
#
# Indices 1 2 3 4 5 6 
#
# 1 40.9231 49.2264 25.7134 0.0000 0.0000 0.0000
# 2 49.2264 122.8637 56.7091 0.0000 0.0000 0.0000
# 3 25.7134 56.7091 68.9626 0.0000 0.0000 0.0000
# 4 0.0000 0.0000 0.0000 12.5887 0.0000 0.0000
# 5 0.0000 0.0000 0.0000 0.0000 8.4414 0.0000
# 6 0.0000 0.0000 0.0000 0.0000 0.0000 25.0718
#
#
#
# Elastic Compliance Matrix: (Units=1/GPa)
#
#
# Indices 1 2 3 4 5 6 
#
# 1 0.047640 -0.017549 -0.003332 0.000000 0.000000 0.000000
# 2 -0.017549 0.019583 -0.009560 0.000000 0.000000 0.000000
# 3 -0.003332 -0.009560 0.023604 0.000000 0.000000 0.000000
# 4 0.000000 0.000000 0.000000 0.079436 0.000000 0.000000
# 5 0.000000 0.000000 0.000000 0.000000 0.118464 0.000000
# 6 0.000000 0.000000 0.000000 0.000000 0.000000 0.039885
#
#
# Mechanical properties :
#
#
# Convention : Reuss Voigt Hill
#
# Bulk Modulus (GPa) = 33.39496 55.11637 44.25567
# Shear Modulus (GPa) = 12.51639 15.96041 14.23840
#
# Velocity S-wave (km/s) = 2.96115 3.34383 3.15829
# Velocity P-wave (km/s) = 5.92337 7.31576 6.65607
#
# Compressibility (1/GPa) = 0.02994464
#
# Stress axis : x y z
#
# Youngs Moduli (GPa) = 20.99087 51.06495 42.36548
#
# Poissons Ratio (x) = 0.89616 0.14115
# Poissons Ratio (y) = 0.36838 0.40501
# Poissons Ratio (z) = 0.06994 0.48817
#
# Static dielectric constant tensor:
#      x y z
#    x 1.476820 0.000000 0.000000 
#    y 0.000000 1.475280 0.000000 
#    z 0.000000 0.000000 1.458010 
# 
# From -- ./inp_files/57932.got.cif
#   From: 2010.05.17/outbox.cif.g08.bks.cpg/sg71_29_cif.got.tgz:57932.got - 2010.06.03 16:22:01.
