data_PCOD9517051
_publ_section_title
;
Structure prediction by ZEFSAII (Michael W. Deem and Ramdas Pophale) SiO2 
 PCOD9517051
Probable space group: F D D D
;
_chemical_formula_sum "Si O2"
_cell_formula_units_Z 112
_cell_length_a 10.920211
_cell_length_b 36.851220
_cell_length_c 15.263215
_cell_angle_alpha 90.000000
_cell_angle_beta 90.000000
_cell_angle_gamma 90.000000
_cell_volume 6142.270266
_symmetry_space_group_name_H-M "F D D D"
_symmetry_group_IT_number 70
_space_group.IT_coordinate_system_code '2'
_symmetry_cell_setting 'orthorhombic'
loop_
_space_group_symop_operation_xyz
x,y,z
1/4-x,1/4-y,z
x,1/4-y,1/4-z
1/4-x,y,1/4-z
-x,-y,-z
3/4+x,3/4+y,-z
-x,3/4+y,3/4+z
3/4+x,-y,3/4+z
x,1/2+y,1/2+z
1/4-x,3/4-y,1/2+z
x,3/4-y,3/4-z
1/4-x,1/2+y,3/4-z
-x,1/2-y,1/2-z
3/4+x,1/4+y,1/2-z
-x,1/4+y,1/4+z
3/4+x,1/2-y,1/4+z
1/2+x,y,1/2+z
3/4-x,1/4-y,1/2+z
1/2+x,1/4-y,3/4-z
3/4-x,y,3/4-z
1/2-x,-y,1/2-z
1/4+x,3/4+y,1/2-z
1/2-x,3/4+y,1/4+z
1/4+x,-y,1/4+z
1/2+x,1/2+y,z
3/4-x,3/4-y,z
1/2+x,3/4-y,1/4-z
3/4-x,1/2+y,1/4-z
1/2-x,1/2-y,-z
1/4+x,1/4+y,-z
1/2-x,1/4+y,3/4+z
1/4+x,1/2-y,3/4+z
loop_
_atom_site_type_symbol
_atom_site_label
_atom_site_fract_x
_atom_site_fract_y
_atom_site_fract_z
Si Si1 0.560309 0.037094 0.531641
Si Si2 0.999602 0.076089 0.334052
Si Si3 0.136373 0.398171 0.730819
Si Si4 0.375000 0.375000 0.227141
O O1 0.625000 0.033621 0.625000
O O2 0.667623 0.048079 0.465383
O O3 0.461292 0.069905 0.526544
O O4 0.500000 0.000000 0.500000
O O5 0.075539 0.093462 0.413509
O O6 0.875000 0.061082 0.375000
O O7 0.961093 0.110173 0.271887
O O8 0.125000 0.406586 0.625000
O O9 0.000310 0.390507 0.768928
#
# Coordination Sequence:
#
# PCOD9517051 Si02
#       4
#    32  32  32  16
#     4  12  24  36  56  87 119 159 198 246 291 352
#     4   9  17  34  60  85 111 149 194 236 293 348
#     4   9  16  33  60  90 110 144 194 239 295 351
#     4   8  14  30  65  85 108 144 186 246 284 358
#
# _framework density 18.234300000000001
#
# number of rings (size 3 to 8) (size 9 to 14) (size 15 to 20)
#    0.000    2.857    5.714    0.857    0.000    2.286 
#    0.000    1.429    0.000    6.857    0.000    0.000 
#    0.000    0.000    0.000    0.000    0.000    0.000 
#
# Total GULP energy -156008.129984 kJ/mol
# GULP energy per Si atom -5571.718928 kJ/mol
# Density = 1.819280 g / cm^3
# Si number density = 18.234300 Si / 1000 Ang^3
#
#
#
# Elastic Constant Matrix: (Units=GPa)
#
#
# Indices 1 2 3 4 5 6 
#
# 1 174.5442 91.0435 46.3937 0.0000 0.0000 0.0000
# 2 91.0435 118.1259 47.1623 0.0000 0.0000 0.0000
# 3 46.3937 47.1623 60.7667 0.0000 0.0000 0.0000
# 4 0.0000 0.0000 0.0000 14.4171 0.0000 0.0000
# 5 0.0000 0.0000 0.0000 0.0000 30.9734 0.0000
# 6 0.0000 0.0000 0.0000 0.0000 0.0000 29.0192
#
#
#
# Elastic Compliance Matrix: (Units=1/GPa)
#
#
# Indices 1 2 3 4 5 6 
#
# 1 0.009807 -0.006621 -0.002349 0.000000 0.000000 0.000000
# 2 -0.006621 0.016736 -0.007935 0.000000 0.000000 0.000000
# 3 -0.002349 -0.007935 0.024408 0.000000 0.000000 0.000000
# 4 0.000000 0.000000 0.000000 0.069362 0.000000 0.000000
# 5 0.000000 0.000000 0.000000 0.000000 0.032286 0.000000
# 6 0.000000 0.000000 0.000000 0.000000 0.000000 0.034460
#
#
# Mechanical properties :
#
#
# Convention : Reuss Voigt Hill
#
# Bulk Modulus (GPa) = 58.33389 80.29289 69.31339
# Shear Modulus (GPa) = 22.06707 26.13774 24.10241
#
# Velocity S-wave (km/s) = 3.48256 3.79018 3.63962
# Velocity P-wave (km/s) = 6.94491 7.95510 7.46710
#
# Compressibility (1/GPa) = 0.01714269
#
# Stress axis : x y z
#
# Youngs Moduli (GPa) = 101.96830 59.75026 40.97037
#
# Poissons Ratio (x) = 0.39559 0.09623
# Poissons Ratio (y) = 0.67511 0.32509
# Poissons Ratio (z) = 0.23951 0.47410
#
# Static dielectric constant tensor:
#      x y z
#    x 1.684780 0.000000 0.000000 
#    y 0.000000 1.603780 0.000000 
#    z 0.000000 0.000000 1.677390 
# 
# From -- ./inp_files/24437.got.cif
#   From: 2010.05.17/outbox.cif.g08.bks.cpg/sg70_13_cif.got.tgz:24437.got - 2010.06.03 15:57:51.
