data_PCOD9517459
_publ_section_title
;
Structure prediction by ZEFSAII (Michael W. Deem and Ramdas Pophale) SiO2 
 PCOD9517459
Probable space group: I M M M
;
_chemical_formula_sum "Si O2"
_cell_formula_units_Z 88
_cell_length_a 11.889860
_cell_length_b 19.666897
_cell_length_c 19.055534
_cell_angle_alpha 90.000000
_cell_angle_beta 90.000000
_cell_angle_gamma 90.000000
_cell_volume 4455.882272
_symmetry_space_group_name_H-M "I M M M"
_symmetry_group_IT_number 71
_symmetry_cell_setting 'orthorhombic'
loop_
_space_group_symop_operation_xyz
x,y,z
-x,-y,z
x,-y,-z
-x,y,-z
-x,-y,-z
x,y,-z
-x,y,z
x,-y,z
1/2+x,1/2+y,1/2+z
1/2-x,1/2-y,1/2+z
1/2+x,1/2-y,1/2-z
1/2-x,1/2+y,1/2-z
1/2-x,1/2-y,1/2-z
1/2+x,1/2+y,1/2-z
1/2-x,1/2+y,1/2+z
1/2+x,1/2-y,1/2+z
loop_
_atom_site_type_symbol
_atom_site_label
_atom_site_fract_x
_atom_site_fract_y
_atom_site_fract_z
Si Si1 0.000000 0.918305 0.583709
Si Si2 0.371288 0.000000 0.783547
Si Si3 0.246443 0.136385 0.217222
Si Si4 0.371787 0.000000 0.386948
Si Si5 0.256493 0.635674 0.122199
Si Si6 0.232353 0.214162 0.077735
Si Si7 0.500000 0.366629 0.425583
Si Si8 0.000000 0.922627 0.784182
O O1 0.112373 0.885463 0.615965
O O2 0.000000 0.906375 0.500000
O O3 0.000000 0.000000 0.594508
O O4 0.304694 0.066433 0.805942
O O5 0.370342 0.000000 0.698430
O O6 0.500000 0.000000 0.806942
O O7 0.283135 0.150931 0.297325
O O8 0.276560 0.188016 0.154207
O O9 0.114065 0.119362 0.228755
O O10 0.308795 0.930569 0.406386
O O11 0.500000 0.000000 0.410861
O O12 0.234452 0.704716 0.081086
O O13 0.108255 0.181696 0.079373
O O14 0.280889 0.194128 0.000000
O O15 0.500000 0.400919 0.500000
O O16 0.500000 0.423747 0.367790
O O17 0.000000 0.000000 0.755435
#
# Coordination Sequence:
#
# PCOD9517459 Si02
#       8
#     8   8  16   8  16  16   8   8
#     4  11  23  39  58  86 122 152 186 229 279 332
#     4   9  18  35  56  81 116 147 177 235 289 324
#     4  10  20  35  58  87 112 142 193 237 278 339
#     4   9  20  35  57  89 113 139 188 236 282 339
#     4  11  21  37  61  83 112 153 191 234 281 333
#     4  10  21  38  56  80 115 150 185 233 291 340
#     4   8  18  34  51  76 109 142 175 221 281 340
#     4  10  17  29  55  83 110 136 173 230 282 330
#
# _framework density 19.749175000000001
#
# number of rings (size 3 to 8) (size 9 to 14) (size 15 to 20)
#    0.000    2.091    1.818    1.636    1.273    0.909 
#    1.636    0.455    0.000    2.727    0.000    0.000 
#    0.000    0.000    0.000    0.000    0.000    0.000 
#
# Total GULP energy -244981.896548 kJ/mol
# GULP energy per Si atom -5567.770376 kJ/mol
# Density = 1.970423 g / cm^3
# Si number density = 19.749175 Si / 1000 Ang^3
#
#
#
# Elastic Constant Matrix: (Units=GPa)
#
#
# Indices 1 2 3 4 5 6 
#
# 1 68.1623 19.3593 -5.5373 0.0000 0.0000 0.0000
# 2 19.3593 105.2215 33.7842 0.0000 0.0000 0.0000
# 3 -5.5373 33.7842 124.9488 0.0000 0.0000 0.0000
# 4 0.0000 0.0000 0.0000 36.6434 0.0000 0.0000
# 5 0.0000 0.0000 0.0000 0.0000 -6.7277 0.0000
# 6 0.0000 0.0000 0.0000 0.0000 0.0000 -0.4242
#
#
#
# Elastic Compliance Matrix: (Units=1/GPa)
#
#
# Indices 1 2 3 4 5 6 
#
# 1 0.015775 -0.003424 0.001625 0.000000 0.000000 0.000000
# 2 -0.003424 0.011151 -0.003167 0.000000 0.000000 0.000000
# 3 0.001625 -0.003167 0.008932 0.000000 0.000000 0.000000
# 4 0.000000 0.000000 0.000000 0.027290 0.000000 0.000000
# 5 0.000000 0.000000 0.000000 0.000000 -0.148639 0.000000
# 6 0.000000 0.000000 0.000000 0.000000 0.000000 -2.357103
#
#
# Mechanical properties :
#
#
# Convention : Reuss Voigt Hill
#
# Bulk Modulus (GPa) = 38.57189 43.72723 41.14956
# Shear Modulus (GPa) = -2.06269 22.61337 10.27534
#
# Velocity S-wave (km/s) = -1.02309 3.38750 2.28347
# Velocity P-wave (km/s) = 4.26353 6.12287 5.27576
#
# Compressibility (1/GPa) = 0.02592561
#
# Stress axis : x y z
#
# Youngs Moduli (GPa) = 63.38977 89.68197 111.96315
#
# Poissons Ratio (x) = 0.30709 -0.18194
# Poissons Ratio (y) = 0.21706 0.35455
# Poissons Ratio (z) = -0.10301 0.28399
#
# Static dielectric constant tensor:
#      x y z
#    x 1.779560 0.000000 0.000000 
#    y 0.000000 1.671420 0.000000 
#    z 0.000000 0.000000 1.768750 
# 
# From -- ./inp_files/51857.got.cif
#   From: 2010.05.17/outbox.cif.g08.bks.cpg/sg71_26_cif.got.tgz:51857.got - 2010.06.03 16:22:01.
