data_PCOD9517387
_publ_section_title
;
Structure prediction by ZEFSAII (Michael W. Deem and Ramdas Pophale) SiO2 
 PCOD9517387
Probable space group: I M M M
;
_chemical_formula_sum "Si O2"
_cell_formula_units_Z 80
_cell_length_a 14.420595
_cell_length_b 16.775792
_cell_length_c 20.792729
_cell_angle_alpha 90.000000
_cell_angle_beta 90.000000
_cell_angle_gamma 90.000000
_cell_volume 5030.112589
_symmetry_space_group_name_H-M "I M M M"
_symmetry_group_IT_number 71
_symmetry_cell_setting 'orthorhombic'
loop_
_space_group_symop_operation_xyz
x,y,z
-x,-y,z
x,-y,-z
-x,y,-z
-x,-y,-z
x,y,-z
-x,y,z
x,-y,z
1/2+x,1/2+y,1/2+z
1/2-x,1/2-y,1/2+z
1/2+x,1/2-y,1/2-z
1/2-x,1/2+y,1/2-z
1/2-x,1/2-y,1/2-z
1/2+x,1/2+y,1/2-z
1/2-x,1/2+y,1/2+z
1/2+x,1/2-y,1/2+z
loop_
_atom_site_type_symbol
_atom_site_label
_atom_site_fract_x
_atom_site_fract_y
_atom_site_fract_z
Si Si1 0.894669 0.405068 0.771563
Si Si2 0.736593 0.595329 0.571996
Si Si3 0.894707 0.904194 0.810270
Si Si4 0.781974 0.819558 0.701614
Si Si5 0.607623 0.810659 0.134999
O O1 0.881150 0.500000 0.764084
O O2 0.812118 0.367460 0.813901
O O3 0.888429 0.362646 0.701521
O O4 0.000000 0.391132 0.795258
O O5 0.701201 0.610948 0.500000
O O6 0.749449 0.500000 0.578303
O O7 0.666763 0.621610 0.628577
O O8 0.833031 0.639693 0.584157
O O9 0.847561 0.875248 0.744819
O O10 0.000000 0.874305 0.814701
O O11 0.896321 0.000000 0.811198
O O12 0.750000 0.750000 0.750000
O O13 0.840642 0.773238 0.648070
O O14 0.500000 0.800095 0.118924
#
# Coordination Sequence:
#
# PCOD9517387 Si02
#       5
#    16  16  16  16  16
#     4   9  16  26  43  65  89 117 147 180 222 273
#     4  10  20  33  47  65  90 124 166 198 220 255
#     4  10  19  31  47  66  91 123 156 189 227 273
#     4  10  17  28  44  65  91 120 149 188 230 280
#     4  10  19  30  44  65  91 121 154 190 232 274
#
# _framework density 15.904216999999999
#
# number of rings (size 3 to 8) (size 9 to 14) (size 15 to 20)
#    0.000    2.200    4.000    1.800    0.000    2.800 
#    0.000    3.000    0.000    0.000    0.000    0.000 
#    0.000    3.200    0.000   12.000    0.000    0.000 
#
# Total GULP energy -222775.268945 kJ/mol
# GULP energy per Si atom -5569.381724 kJ/mol
# Density = 1.586802 g / cm^3
# Si number density = 15.904217 Si / 1000 Ang^3
#
#
#
# Elastic Constant Matrix: (Units=GPa)
#
#
# Indices 1 2 3 4 5 6 
#
# 1 120.3741 42.0463 16.9332 0.0000 0.0000 0.0000
# 2 42.0463 45.5276 9.1866 0.0000 0.0000 0.0000
# 3 16.9332 9.1866 26.1161 0.0000 0.0000 0.0000
# 4 0.0000 0.0000 0.0000 18.2559 0.0000 0.0000
# 5 0.0000 0.0000 0.0000 0.0000 9.9809 0.0000
# 6 0.0000 0.0000 0.0000 0.0000 0.0000 29.5791
#
#
#
# Elastic Compliance Matrix: (Units=1/GPa)
#
#
# Indices 1 2 3 4 5 6 
#
# 1 0.012723 -0.010856 -0.004430 0.000000 0.000000 0.000000
# 2 -0.010856 0.032906 -0.004536 0.000000 0.000000 0.000000
# 3 -0.004430 -0.004536 0.042759 0.000000 0.000000 0.000000
# 4 0.000000 0.000000 0.000000 0.054777 0.000000 0.000000
# 5 0.000000 0.000000 0.000000 0.000000 0.100192 0.000000
# 6 0.000000 0.000000 0.000000 0.000000 0.000000 0.033808
#
#
# Mechanical properties :
#
#
# Convention : Reuss Voigt Hill
#
# Bulk Modulus (GPa) = 20.51611 36.48331 28.49971
# Shear Modulus (GPa) = 15.01252 19.81996 17.41624
#
# Velocity S-wave (km/s) = 3.07568 3.53400 3.31278
# Velocity P-wave (km/s) = 5.05380 6.29614 5.70886
#
# Compressibility (1/GPa) = 0.04874219
#
# Stress axis : x y z
#
# Youngs Moduli (GPa) = 78.60073 30.38994 23.38703
#
# Poissons Ratio (x) = 0.32990 0.10361
# Poissons Ratio (y) = 0.85327 0.10609
# Poissons Ratio (z) = 0.34824 0.13786
#
# Static dielectric constant tensor:
#      x y z
#    x 1.575410 0.000000 0.000000 
#    y 0.000000 1.520120 0.000000 
#    z 0.000000 0.000000 1.519250 
# 
# From -- ./inp_files/34267.got.cif
#   From: 2010.05.17/outbox.cif.g08.bks.cpg/sg71_18_cif.got.tgz:34267.got - 2010.06.03 16:22:01.
