data_PCOD9517450
_publ_section_title
;
Structure prediction by ZEFSAII (Michael W. Deem and Ramdas Pophale) SiO2 
 PCOD9517450
Probable space group: I M M M
;
_chemical_formula_sum "Si O2"
_cell_formula_units_Z 120
_cell_length_a 23.165720
_cell_length_b 22.991804
_cell_length_c 13.565945
_cell_angle_alpha 90.000000
_cell_angle_beta 90.000000
_cell_angle_gamma 90.000000
_cell_volume 7225.516603
_symmetry_space_group_name_H-M "I M M M"
_symmetry_group_IT_number 71
_symmetry_cell_setting 'orthorhombic'
loop_
_space_group_symop_operation_xyz
x,y,z
-x,-y,z
x,-y,-z
-x,y,-z
-x,-y,-z
x,y,-z
-x,y,z
x,-y,z
1/2+x,1/2+y,1/2+z
1/2-x,1/2-y,1/2+z
1/2+x,1/2-y,1/2-z
1/2-x,1/2+y,1/2-z
1/2-x,1/2-y,1/2-z
1/2+x,1/2+y,1/2-z
1/2-x,1/2+y,1/2+z
1/2+x,1/2-y,1/2+z
loop_
_atom_site_type_symbol
_atom_site_label
_atom_site_fract_x
_atom_site_fract_y
_atom_site_fract_z
Si Si1 0.431431 0.171287 0.214705
Si Si2 0.848280 0.680227 0.116085
Si Si3 0.729238 0.289988 0.615834
Si Si4 0.843177 0.904988 0.382095
Si Si5 0.146699 0.768117 0.383185
Si Si6 0.435402 0.500000 0.119153
Si Si7 0.739660 0.106093 0.252565
Si Si8 0.638237 0.933881 0.116227
O O1 0.500000 0.172894 0.207195
O O2 0.407702 0.170010 0.326523
O O3 0.400506 0.228245 0.169302
O O4 0.404675 0.115398 0.157989
O O5 0.823431 0.745528 0.130205
O O6 0.801473 0.639291 0.169479
O O7 0.850992 0.668936 0.000000
O O8 0.731277 0.305318 0.500000
O O9 0.789199 0.256327 0.639190
O O10 0.729308 0.346135 0.683628
O O11 0.831846 0.911394 0.500000
O O12 0.854488 0.836716 0.363023
O O13 0.898256 0.943453 0.355010
O O14 0.788529 0.924406 0.317346
O O15 0.138388 0.760907 0.500000
O O16 0.500000 0.500000 0.159219
O O17 0.439083 0.500000 0.000000
O O18 0.696859 0.071683 0.180083
O O19 0.615963 0.000000 0.126248
O O20 0.649070 0.922868 0.000000
#
# Coordination Sequence:
#
# PCOD9517450 Si02
#       8
#    16  16  16  16  16   8  16  16
#     4  11  23  36  53  75 102 139 180 216 252 300
#     4  10  19  31  50  75 105 138 168 205 259 313
#     4  10  17  29  51  79 109 138 162 202 267 320
#     4  10  20  32  51  77 107 139 171 209 253 304
#     4  10  18  31  52  80 107 131 164 213 264 308
#     4   9  20  38  52  66  99 145 182 209 247 299
#     4  11  18  29  52  78 108 132 169 210 260 308
#     4  10  22  38  54  75 105 136 167 212 265 312
#
# _framework density 16.607809
#
# number of rings (size 3 to 8) (size 9 to 14) (size 15 to 20)
#    0.000    1.800    4.000    2.400    0.933    2.133 
#    0.000    2.000    0.000    3.600    0.000    3.733 
#    0.000    3.733    0.000    0.000    0.000    0.133 
#
# Total GULP energy -334734.494444 kJ/mol
# GULP energy per Si atom -5578.908241 kJ/mol
# Density = 1.657001 g / cm^3
# Si number density = 16.607809 Si / 1000 Ang^3
#
#
#
# Elastic Constant Matrix: (Units=GPa)
#
#
# Indices 1 2 3 4 5 6 
#
# 1 117.7607 36.8697 42.8539 0.0000 0.0000 0.0000
# 2 36.8697 57.1302 38.3265 0.0000 0.0000 0.0000
# 3 42.8539 38.3265 97.0735 0.0000 0.0000 0.0000
# 4 0.0000 0.0000 0.0000 15.6167 0.0000 0.0000
# 5 0.0000 0.0000 0.0000 0.0000 17.3528 0.0000
# 6 0.0000 0.0000 0.0000 0.0000 0.0000 15.4283
#
#
#
# Elastic Compliance Matrix: (Units=1/GPa)
#
#
# Indices 1 2 3 4 5 6 
#
# 1 0.011190 -0.005316 -0.002841 0.000000 0.000000 0.000000
# 2 -0.005316 0.026336 -0.008051 0.000000 0.000000 0.000000
# 3 -0.002841 -0.008051 0.014735 0.000000 0.000000 0.000000
# 4 0.000000 0.000000 0.000000 0.064034 0.000000 0.000000
# 5 0.000000 0.000000 0.000000 0.000000 0.057627 0.000000
# 6 0.000000 0.000000 0.000000 0.000000 0.000000 0.064816
#
#
# Mechanical properties :
#
#
# Convention : Reuss Voigt Hill
#
# Bulk Modulus (GPa) = 50.39271 56.45163 53.42217
# Shear Modulus (GPa) = 18.00064 19.94053 18.97059
#
# Velocity S-wave (km/s) = 3.29578 3.46883 3.38341
# Velocity P-wave (km/s) = 6.70012 7.07874 6.89203
#
# Compressibility (1/GPa) = 0.01984414
#
# Stress axis : x y z
#
# Youngs Moduli (GPa) = 89.36566 37.97150 67.86780
#
# Poissons Ratio (x) = 0.20184 0.19283
# Poissons Ratio (y) = 0.47502 0.54642
# Poissons Ratio (z) = 0.25391 0.30572
#
# Static dielectric constant tensor:
#      x y z
#    x 1.541350 0.000000 0.000000 
#    y 0.000000 1.568410 0.000000 
#    z 0.000000 0.000000 1.576220 
# 
# From -- ./inp_files/38566.got.cif
#   From: 2010.05.17/outbox.cif.g08.bks.cpg/sg71_20_cif.got.tgz:38566.got - 2010.06.03 16:22:01.
