data_PCOD9517286
_publ_section_title
;
Structure prediction by ZEFSAII (Michael W. Deem and Ramdas Pophale) SiO2 
 PCOD9517286
Probable space group: I M M M
;
_chemical_formula_sum "Si O2"
_cell_formula_units_Z 88
_cell_length_a 22.605035
_cell_length_b 12.617759
_cell_length_c 14.764645
_cell_angle_alpha 90.000000
_cell_angle_beta 90.000000
_cell_angle_gamma 90.000000
_cell_volume 4211.244155
_symmetry_space_group_name_H-M "I M M M"
_symmetry_group_IT_number 71
_symmetry_cell_setting 'orthorhombic'
loop_
_space_group_symop_operation_xyz
x,y,z
-x,-y,z
x,-y,-z
-x,y,-z
-x,-y,-z
x,y,-z
-x,y,z
x,-y,z
1/2+x,1/2+y,1/2+z
1/2-x,1/2-y,1/2+z
1/2+x,1/2-y,1/2-z
1/2-x,1/2+y,1/2-z
1/2-x,1/2-y,1/2-z
1/2+x,1/2+y,1/2-z
1/2-x,1/2+y,1/2+z
1/2+x,1/2-y,1/2+z
loop_
_atom_site_type_symbol
_atom_site_label
_atom_site_fract_x
_atom_site_fract_y
_atom_site_fract_z
Si Si1 0.235973 0.725511 0.853698
Si Si2 0.913829 0.500000 0.811944
Si Si3 0.416330 0.000000 0.895042
Si Si4 0.141283 0.729163 0.597234
Si Si5 0.095531 0.729501 0.894183
Si Si6 0.211333 0.500000 0.895258
Si Si7 0.567559 0.374426 0.768359
O O1 0.250000 0.750000 0.750000
O O2 0.288292 0.786509 0.902013
O O3 0.167393 0.737823 0.880392
O O4 0.248536 0.603902 0.878756
O O5 0.938854 0.500000 0.710313
O O6 0.926568 0.387079 0.860468
O O7 0.841750 0.500000 0.821969
O O8 0.383693 0.888091 0.892195
O O9 0.441274 0.000000 0.000000
O O10 0.122719 0.773308 0.500000
O O11 0.114070 0.805957 0.673077
O O12 0.069836 0.821017 0.830801
O O13 0.082612 0.740522 0.000000
O O14 0.187981 0.500000 0.000000
O O15 0.500000 0.361099 0.803340
O O16 0.580973 0.500000 0.766489
#
# Coordination Sequence:
#
# PCOD9517286 Si02
#       7
#    16   8   8  16  16   8  16
#     4  11  20  35  59  93 130 165 206 257 321 388
#     4  10  16  36  62  92 127 160 196 257 315 371
#     4  10  20  36  60  92 130 162 194 246 320 382
#     4  11  22  40  64  95 130 168 209 263 326 387
#     4  11  22  40  65  96 128 168 214 265 325 388
#     4  10  20  32  52  86 125 166 203 246 304 380
#     4  11  26  47  67  91 125 171 225 276 320 372
#
# _framework density 20.896436999999999
#
# number of rings (size 3 to 8) (size 9 to 14) (size 15 to 20)
#    0.000    1.273    3.636    4.636    1.273    1.455 
#    1.636    3.636    0.000    2.727    0.000    0.000 
#    0.000    0.000    0.000    0.000    0.000    0.000 
#
# Total GULP energy -245097.668943 kJ/mol
# GULP energy per Si atom -5570.401567 kJ/mol
# Density = 2.084888 g / cm^3
# Si number density = 20.896437 Si / 1000 Ang^3
#
#
#
# Elastic Constant Matrix: (Units=GPa)
#
#
# Indices 1 2 3 4 5 6 
#
# 1 93.8050 37.6890 30.2361 0.0000 0.0000 0.0000
# 2 37.6890 103.2341 35.7377 0.0000 0.0000 0.0000
# 3 30.2361 35.7377 174.4347 0.0000 0.0000 0.0000
# 4 0.0000 0.0000 0.0000 28.0925 0.0000 0.0000
# 5 0.0000 0.0000 0.0000 0.0000 -171.7901 0.0000
# 6 0.0000 0.0000 0.0000 0.0000 0.0000 47.9931
#
#
#
# Elastic Compliance Matrix: (Units=1/GPa)
#
#
# Indices 1 2 3 4 5 6 
#
# 1 0.012784 -0.004198 -0.001356 0.000000 0.000000 0.000000
# 2 -0.004198 0.011805 -0.001691 0.000000 0.000000 0.000000
# 3 -0.001356 -0.001691 0.006314 0.000000 0.000000 0.000000
# 4 0.000000 0.000000 0.000000 0.035597 0.000000 0.000000
# 5 0.000000 0.000000 0.000000 0.000000 -0.005821 0.000000
# 6 0.000000 0.000000 0.000000 0.000000 0.000000 0.020836
#
#
# Mechanical properties :
#
#
# Convention : Reuss Voigt Hill
#
# Bulk Modulus (GPa) = 60.92467 64.31103 62.61785
# Shear Modulus (GPa) = 49.27300 -1.28683 23.99308
#
# Velocity S-wave (km/s) = 4.86115 -0.78559 3.39217
# Velocity P-wave (km/s) = 7.79273 5.47905 6.73597
#
# Compressibility (1/GPa) = 0.01641371
#
# Stress axis : x y z
#
# Youngs Moduli (GPa) = 78.22228 84.71258 158.37187
#
# Poissons Ratio (x) = 0.35561 0.21474
# Poissons Ratio (y) = 0.32837 0.26778
# Poissons Ratio (z) = 0.10606 0.14324
#
# Static dielectric constant tensor:
#      x y z
#    x 1.783660 0.000000 0.000000 
#    y 0.000000 1.759390 0.000000 
#    z 0.000000 0.000000 1.813930 
# 
# From -- ./inp_files/40214.got.cif
#   From: 2010.05.17/outbox.cif.g08.bks.cpg/sg71_21_cif.got.tgz:40214.got - 2010.06.03 16:22:01.
