data_PCOD9517715
_publ_section_title
;
Structure prediction by ZEFSAII (Michael W. Deem and Ramdas Pophale) SiO2 
 PCOD9517715
Probable space group: I M M M
;
_chemical_formula_sum "Si O2"
_cell_formula_units_Z 104
_cell_length_a 24.696693
_cell_length_b 27.012767
_cell_length_c 7.426826
_cell_angle_alpha 90.000000
_cell_angle_beta 90.000000
_cell_angle_gamma 90.000000
_cell_volume 4954.628824
_symmetry_space_group_name_H-M "I M M M"
_symmetry_group_IT_number 71
_symmetry_cell_setting 'orthorhombic'
loop_
_space_group_symop_operation_xyz
x,y,z
-x,-y,z
x,-y,-z
-x,y,-z
-x,-y,-z
x,y,-z
-x,y,z
x,-y,z
1/2+x,1/2+y,1/2+z
1/2-x,1/2-y,1/2+z
1/2+x,1/2-y,1/2-z
1/2-x,1/2+y,1/2-z
1/2-x,1/2-y,1/2-z
1/2+x,1/2+y,1/2-z
1/2-x,1/2+y,1/2+z
1/2+x,1/2-y,1/2+z
loop_
_atom_site_type_symbol
_atom_site_label
_atom_site_fract_x
_atom_site_fract_y
_atom_site_fract_z
Si Si1 0.938174 0.000000 0.283499
Si Si2 0.350276 0.127757 0.784899
Si Si3 0.939282 0.176539 0.780015
Si Si4 0.058147 0.443375 0.719377
Si Si5 0.137368 0.091789 0.790928
Si Si6 0.439084 0.790630 0.284655
Si Si7 0.245413 0.557243 0.279433
O O1 0.906172 0.951924 0.219354
O O2 0.937538 0.000000 0.500000
O O3 0.000000 0.000000 0.221828
O O4 0.393463 0.088488 0.713169
O O5 0.384309 0.178442 0.755038
O O6 0.293790 0.102889 0.722269
O O7 0.346002 0.125357 0.000000
O O8 0.892196 0.140241 0.714188
O O9 0.932575 0.233643 0.725308
O O10 0.000000 0.160051 0.726310
O O11 0.938503 0.175500 0.000000
O O12 0.059290 0.442272 0.500000
O O13 0.062756 0.500000 0.772523
O O14 0.000000 0.424023 0.777578
O O15 0.194036 0.071231 0.717763
O O16 0.148842 0.103097 0.000000
O O17 0.442881 0.790681 0.500000
O O18 0.500000 0.807449 0.218618
O O19 0.244356 0.555571 0.500000
O O20 0.231306 0.500000 0.224980
#
# Coordination Sequence:
#
# PCOD9517715 Si02
#       7
#     8  16  16  16  16  16  16
#     4  11  23  35  49  77 115 141 158 195 256 311
#     4  10  18  28  46  70  96 127 165 205 246 300
#     4   8  15  29  51  76  97 123 164 211 254 295
#     4   8  13  21  35  58  85 112 147 193 241 287
#     4  10  18  33  57  79  99 130 175 213 241 288
#     4   9  18  33  50  69  97 129 163 210 262 303
#     4   9  17  30  49  75 103 129 163 211 256 285
#
# _framework density 20.990470999999999
#
# number of rings (size 3 to 8) (size 9 to 14) (size 15 to 20)
#    0.000    2.846    0.769    3.000    0.000    4.000 
#    0.000    2.308    0.000    2.308    0.000    5.385 
#    0.000    0.000    0.000    0.000    0.000    0.000 
#
# Total GULP energy -289580.181804 kJ/mol
# GULP energy per Si atom -5568.849650 kJ/mol
# Density = 2.094270 g / cm^3
# Si number density = 20.990471 Si / 1000 Ang^3
#
#
#
# Elastic Constant Matrix: (Units=GPa)
#
#
# Indices 1 2 3 4 5 6 
#
# 1 138.1489 67.8858 1.5337 0.0000 0.0000 0.0000
# 2 67.8858 120.1928 -3.3359 0.0000 0.0000 0.0000
# 3 1.5337 -3.3359 67.8707 0.0000 0.0000 0.0000
# 4 0.0000 0.0000 0.0000 7.1861 0.0000 0.0000
# 5 0.0000 0.0000 0.0000 0.0000 4.1694 0.0000
# 6 0.0000 0.0000 0.0000 0.0000 0.0000 -41.6184
#
#
#
# Elastic Compliance Matrix: (Units=1/GPa)
#
#
# Indices 1 2 3 4 5 6 
#
# 1 0.010037 -0.005683 -0.000506 0.000000 0.000000 0.000000
# 2 -0.005683 0.011549 0.000696 0.000000 0.000000 0.000000
# 3 -0.000506 0.000696 0.014780 0.000000 0.000000 0.000000
# 4 0.000000 0.000000 0.000000 0.139158 0.000000 0.000000
# 5 0.000000 0.000000 0.000000 0.000000 0.239842 0.000000
# 6 0.000000 0.000000 0.000000 0.000000 0.000000 -0.024028
#
#
# Mechanical properties :
#
#
# Convention : Reuss Voigt Hill
#
# Bulk Modulus (GPa) = 39.40199 50.93107 45.16653
# Shear Modulus (GPa) = 12.17188 11.28933 11.73060
#
# Velocity S-wave (km/s) = 2.41067 2.32163 2.36657
# Velocity P-wave (km/s) = 5.15370 5.61277 5.38813
#
# Compressibility (1/GPa) = 0.02537943
#
# Stress axis : x y z
#
# Youngs Moduli (GPa) = 99.63406 86.58748 67.66107
#
# Poissons Ratio (x) = 0.49207 0.03425
# Poissons Ratio (y) = 0.56621 -0.04710
# Poissons Ratio (z) = 0.05043 -0.06027
#
# Static dielectric constant tensor:
#      x y z
#    x 1.769110 0.000000 0.000000 
#    y 0.000000 1.760400 0.000000 
#    z 0.000000 0.000000 1.882320 
# 
# From -- ./inp_files/13321.got.cif
#   From: 2010.05.17/outbox.cif.g08.bks.cpg/sg71_7_cif.got.tgz:13321.got - 2010.06.03 16:22:01.
