data_PCOD9517466
_publ_section_title
;
Structure prediction by ZEFSAII (Michael W. Deem and Ramdas Pophale) SiO2 
 PCOD9517466
Probable space group: I M M M
;
_chemical_formula_sum "Si O2"
_cell_formula_units_Z 104
_cell_length_a 22.110535
_cell_length_b 14.020621
_cell_length_c 23.024282
_cell_angle_alpha 90.000000
_cell_angle_beta 90.000000
_cell_angle_gamma 90.000000
_cell_volume 7137.606424
_symmetry_space_group_name_H-M "I M M M"
_symmetry_group_IT_number 71
_symmetry_cell_setting 'orthorhombic'
loop_
_space_group_symop_operation_xyz
x,y,z
-x,-y,z
x,-y,-z
-x,y,-z
-x,-y,-z
x,y,-z
-x,y,z
x,-y,z
1/2+x,1/2+y,1/2+z
1/2-x,1/2-y,1/2+z
1/2+x,1/2-y,1/2-z
1/2-x,1/2+y,1/2-z
1/2-x,1/2-y,1/2-z
1/2+x,1/2+y,1/2-z
1/2-x,1/2+y,1/2+z
1/2+x,1/2-y,1/2+z
loop_
_atom_site_type_symbol
_atom_site_label
_atom_site_fract_x
_atom_site_fract_y
_atom_site_fract_z
Si Si1 0.000000 0.391519 0.929278
Si Si2 0.757296 0.608927 0.280954
Si Si3 0.749419 0.886946 0.568785
Si Si4 0.370180 0.607893 0.348429
Si Si5 0.930717 0.886043 0.727065
Si Si6 0.812286 0.202070 0.675256
Si Si7 0.877962 0.285781 0.069197
O O1 0.938926 0.338715 0.911463
O O2 0.000000 0.500000 0.908870
O O3 0.000000 0.393304 0.000000
O O4 0.779507 0.500000 0.278182
O O5 0.696674 0.610215 0.320208
O O6 0.801874 0.687570 0.307851
O O7 0.733850 0.644583 0.218090
O O8 0.761354 0.872870 0.500000
O O9 0.793107 0.826808 0.610549
O O10 0.681237 0.850021 0.580341
O O11 0.754385 0.000000 0.581001
O O12 0.382211 0.500000 0.368756
O O13 0.415167 0.629992 0.294981
O O14 0.373430 0.686410 0.397655
O O15 0.879665 0.831697 0.690714
O O16 0.000000 0.860482 0.714341
O O17 0.923037 0.000000 0.717563
O O18 0.881242 0.270845 0.000000
#
# Coordination Sequence:
#
# PCOD9517466 Si02
#       7
#     8  16  16  16  16  16  16
#     4   9  18  32  45  55  77 119 164 198 226 265
#     4   9  17  29  47  71  93 117 151 192 236 277
#     4  10  19  30  46  69  96 123 154 195 238 278
#     4   9  17  30  45  64  91 120 152 190 231 273
#     4   9  18  31  48  69  91 120 155 189 230 282
#     4  10  17  30  50  70  93 121 156 193 231 285
#     4  10  19  30  43  63  89 123 162 195 229 272
#
# _framework density 14.570710999999999
#
# number of rings (size 3 to 8) (size 9 to 14) (size 15 to 20)
#    0.000    2.538    1.538    2.769    1.077    2.154 
#    0.000    0.000    0.000    2.769    0.000    2.154 
#    0.000    0.000    0.000    1.385    0.000    0.154 
#
# Total GULP energy -289760.205384 kJ/mol
# GULP energy per Si atom -5572.311642 kJ/mol
# Density = 1.453755 g / cm^3
# Si number density = 14.570711 Si / 1000 Ang^3
#
#
#
# Elastic Constant Matrix: (Units=GPa)
#
#
# Indices 1 2 3 4 5 6 
#
# 1 74.2336 30.1798 24.8144 0.0000 0.0000 0.0000
# 2 30.1798 91.9569 35.2329 0.0000 0.0000 0.0000
# 3 24.8144 35.2329 37.0385 0.0000 0.0000 0.0000
# 4 0.0000 0.0000 0.0000 21.3186 0.0000 0.0000
# 5 0.0000 0.0000 0.0000 0.0000 9.0080 0.0000
# 6 0.0000 0.0000 0.0000 0.0000 0.0000 22.1709
#
#
#
# Elastic Compliance Matrix: (Units=1/GPa)
#
#
# Indices 1 2 3 4 5 6 
#
# 1 0.017584 -0.001978 -0.009899 0.000000 0.000000 0.000000
# 2 -0.001978 0.017334 -0.015163 0.000000 0.000000 0.000000
# 3 -0.009899 -0.015163 0.048055 0.000000 0.000000 0.000000
# 4 0.000000 0.000000 0.000000 0.046907 0.000000 0.000000
# 5 0.000000 0.000000 0.000000 0.000000 0.111012 0.000000
# 6 0.000000 0.000000 0.000000 0.000000 0.000000 0.045104
#
#
# Mechanical properties :
#
#
# Convention : Reuss Voigt Hill
#
# Bulk Modulus (GPa) = 34.61186 42.63148 38.62167
# Shear Modulus (GPa) = 14.29763 18.03296 16.16530
#
# Velocity S-wave (km/s) = 3.13590 3.52179 3.33444
# Velocity P-wave (km/s) = 6.07600 6.77195 6.43339
#
# Compressibility (1/GPa) = 0.02889183
#
# Stress axis : x y z
#
# Youngs Moduli (GPa) = 56.86922 57.69105 20.80954
#
# Poissons Ratio (x) = 0.11413 0.20599
# Poissons Ratio (y) = 0.11251 0.31554
# Poissons Ratio (z) = 0.56294 0.87479
#
# Static dielectric constant tensor:
#      x y z
#    x 1.470380 0.000000 0.000000 
#    y 0.000000 1.482280 0.000000 
#    z 0.000000 0.000000 1.474440 
# 
# From -- ./inp_files/39567.got.cif
#   From: 2010.05.17/outbox.cif.g08.bks.cpg/sg71_20_cif.got.tgz:39567.got - 2010.06.03 16:22:01.
