data_PCOD9517922
_publ_section_title
;
Structure prediction by ZEFSAII (Michael W. Deem and Ramdas Pophale) SiO2 
 PCOD9517922
Probable space group: I M M M
;
_chemical_formula_sum "Si O2"
_cell_formula_units_Z 88
_cell_length_a 21.438261
_cell_length_b 25.726575
_cell_length_c 7.401819
_cell_angle_alpha 90.000000
_cell_angle_beta 90.000000
_cell_angle_gamma 90.000000
_cell_volume 4082.347657
_symmetry_space_group_name_H-M "I M M M"
_symmetry_group_IT_number 71
_symmetry_cell_setting 'orthorhombic'
loop_
_space_group_symop_operation_xyz
x,y,z
-x,-y,z
x,-y,-z
-x,y,-z
-x,-y,-z
x,y,-z
-x,y,z
x,-y,z
1/2+x,1/2+y,1/2+z
1/2-x,1/2-y,1/2+z
1/2+x,1/2-y,1/2-z
1/2-x,1/2+y,1/2-z
1/2-x,1/2-y,1/2-z
1/2+x,1/2+y,1/2-z
1/2-x,1/2+y,1/2+z
1/2+x,1/2-y,1/2+z
loop_
_atom_site_type_symbol
_atom_site_label
_atom_site_fract_x
_atom_site_fract_y
_atom_site_fract_z
Si Si1 0.000000 0.326907 0.281591
Si Si2 0.373612 0.662325 0.296758
Si Si3 0.574812 0.000000 0.779844
Si Si4 0.000000 0.792669 0.207670
Si Si5 0.625322 0.886609 0.780036
Si Si6 0.740488 0.811930 0.216899
Si Si7 0.427471 0.557442 0.782255
O O1 0.000000 0.268825 0.210053
O O2 0.937828 0.356792 0.227498
O O3 0.000000 0.323949 0.500000
O O4 0.369289 0.685193 0.500000
O O5 0.435140 0.687523 0.209511
O O6 0.306534 0.667854 0.210884
O O7 0.387831 0.601945 0.303880
O O8 0.612062 0.947030 0.724960
O O9 0.500000 0.000000 0.726010
O O10 0.573091 0.000000 0.000000
O O11 0.000000 0.812665 0.000000
O O12 0.683143 0.849101 0.718872
O O13 0.628686 0.888099 0.000000
O O14 0.750000 0.750000 0.250000
O O15 0.737102 0.817351 0.000000
O O16 0.500000 0.564517 0.733902
O O17 0.408115 0.500000 0.728996
O O18 0.423877 0.561257 0.000000
#
# Coordination Sequence:
#
# PCOD9517922 Si02
#       7
#     8  16   8   8  16  16  16
#     4  10  18  29  50  77  99 124 164 212 256 305
#     4  10  20  34  50  71 102 136 172 211 256 309
#     4   9  14  26  50  78 108 135 159 208 277 322
#     4  10  20  32  46  68  99 133 168 207 250 303
#     4   9  17  30  49  76 106 132 167 213 261 314
#     4  10  21  36  52  75 106 140 178 218 261 314
#     4   9  18  33  53  76 100 127 164 209 255 304
#
# _framework density 21.556225000000001
#
# number of rings (size 3 to 8) (size 9 to 14) (size 15 to 20)
#    0.000    2.455    1.818    1.636    0.000    1.818 
#    1.636    0.909    0.000    0.000    0.000    2.545 
#    0.000    0.000    0.000    0.000    0.000    0.000 
#
# Total GULP energy -245151.867355 kJ/mol
# GULP energy per Si atom -5571.633349 kJ/mol
# Density = 2.150716 g / cm^3
# Si number density = 21.556225 Si / 1000 Ang^3
#
#
#
# Elastic Constant Matrix: (Units=GPa)
#
#
# Indices 1 2 3 4 5 6 
#
# 1 201.6784 118.7166 14.1943 0.0000 0.0000 0.0000
# 2 118.7166 192.2065 3.0163 0.0000 0.0000 0.0000
# 3 14.1943 3.0163 71.2743 0.0000 0.0000 0.0000
# 4 0.0000 0.0000 0.0000 20.9753 0.0000 0.0000
# 5 0.0000 0.0000 0.0000 0.0000 -14.1982 0.0000
# 6 0.0000 0.0000 0.0000 0.0000 0.0000 3200.8019
#
#
#
# Elastic Compliance Matrix: (Units=1/GPa)
#
#
# Indices 1 2 3 4 5 6 
#
# 1 0.007923 -0.004872 -0.001372 0.000000 0.000000 0.000000
# 2 -0.004872 0.008202 0.000623 0.000000 0.000000 0.000000
# 3 -0.001372 0.000623 0.014277 0.000000 0.000000 0.000000
# 4 0.000000 0.000000 0.000000 0.047675 0.000000 0.000000
# 5 0.000000 0.000000 0.000000 0.000000 -0.070431 0.000000
# 6 0.000000 0.000000 0.000000 0.000000 0.000000 0.000312
#
#
# Mechanical properties :
#
#
# Convention : Reuss Voigt Hill
#
# Bulk Modulus (GPa) = 52.18922 81.89039 67.03981
# Shear Modulus (GPa) = 195.41719 663.46459 429.44089
#
# Velocity S-wave (km/s) = 9.53160 17.56279 14.12981
# Velocity P-wave (km/s) = 12.05813 21.19765 17.24440
#
# Compressibility (1/GPa) = 0.01916104
#
# Stress axis : x y z
#
# Youngs Moduli (GPa) = 126.21803 121.91916 70.04230
#
# Poissons Ratio (x) = 0.59399 0.09607
# Poissons Ratio (y) = 0.61493 -0.04365
# Poissons Ratio (z) = 0.17313 -0.07597
#
# Static dielectric constant tensor:
#      x y z
#    x 1.743260 0.000000 0.000000 
#    y 0.000000 1.784140 0.000000 
#    z 0.000000 0.000000 1.839960 
# 
# From -- ./inp_files/10545.got.cif
#   From: 2010.05.17/outbox.cif.g08.bks.cpg/sg71_6_cif.got.tgz:10545.got - 2010.06.03 16:22:01.
