data_PCOD9517719
_publ_section_title
;
Structure prediction by ZEFSAII (Michael W. Deem and Ramdas Pophale) SiO2 
 PCOD9517719
Probable space group: I M M M
;
_chemical_formula_sum "Si O2"
_cell_formula_units_Z 80
_cell_length_a 20.814763
_cell_length_b 8.668493
_cell_length_c 25.107134
_cell_angle_alpha 90.000000
_cell_angle_beta 90.000000
_cell_angle_gamma 90.000000
_cell_volume 4530.146153
_symmetry_space_group_name_H-M "I M M M"
_symmetry_group_IT_number 71
_symmetry_cell_setting 'orthorhombic'
loop_
_space_group_symop_operation_xyz
x,y,z
-x,-y,z
x,-y,-z
-x,y,-z
-x,-y,-z
x,y,-z
-x,y,z
x,-y,z
1/2+x,1/2+y,1/2+z
1/2-x,1/2-y,1/2+z
1/2+x,1/2-y,1/2-z
1/2-x,1/2+y,1/2-z
1/2-x,1/2-y,1/2-z
1/2+x,1/2+y,1/2-z
1/2-x,1/2+y,1/2+z
1/2+x,1/2-y,1/2+z
loop_
_atom_site_type_symbol
_atom_site_label
_atom_site_fract_x
_atom_site_fract_y
_atom_site_fract_z
Si Si1 0.072737 0.745214 0.000000
Si Si2 0.751243 0.680181 0.105954
Si Si3 0.783811 0.818556 0.000000
Si Si4 0.387388 0.324138 0.617045
Si Si5 0.429326 0.683616 0.734865
Si Si6 0.695575 0.182850 0.788898
O O1 0.075218 0.813890 0.939423
O O2 0.151118 0.709977 0.000000
O O3 0.000000 0.672042 0.000000
O O4 0.740845 0.500000 0.096858
O O5 0.826331 0.711737 0.119596
O O6 0.708101 0.741118 0.153878
O O7 0.744168 0.777855 0.052155
O O8 0.803946 0.000000 0.000000
O O9 0.362285 0.500000 0.620291
O O10 0.426326 0.294919 0.670807
O O11 0.500000 0.728991 0.753799
O O12 0.420486 0.500000 0.743815
O O13 0.372556 0.772718 0.763690
O O14 0.750000 0.250000 0.750000
O O15 0.703057 0.000000 0.792633
#
# Coordination Sequence:
#
# PCOD9517719 Si02
#       6
#     8  16   8  16  16  16
#     4  10  18  28  46  72 100 139 188 228 266 317
#     4  11  21  35  56  81 108 141 182 231 281 330
#     4  10  21  36  54  78 109 141 181 230 275 329
#     4  10  19  31  49  72 104 144 188 233 276 323
#     4  10  21  36  54  79 112 149 188 231 282 340
#     4  12  23  37  58  82 109 145 190 236 284 337
#
# _framework density 17.659475
#
# number of rings (size 3 to 8) (size 9 to 14) (size 15 to 20)
#    0.000    1.400    2.000    6.600    0.000    3.000 
#    0.000    0.000    0.000   24.000    0.000    0.700 
#    0.000    5.600    0.000    0.000    0.000    0.000 
#
# Total GULP energy -222705.478572 kJ/mol
# GULP energy per Si atom -5567.636964 kJ/mol
# Density = 1.761928 g / cm^3
# Si number density = 17.659475 Si / 1000 Ang^3
#
#
#
# Elastic Constant Matrix: (Units=GPa)
#
#
# Indices 1 2 3 4 5 6 
#
# 1 72.8314 29.8643 43.4813 0.0000 0.0000 0.0000
# 2 29.8643 70.6026 28.5662 0.0000 0.0000 0.0000
# 3 43.4813 28.5662 115.1782 0.0000 0.0000 0.0000
# 4 0.0000 0.0000 0.0000 18.4599 0.0000 0.0000
# 5 0.0000 0.0000 0.0000 0.0000 18.0276 0.0000
# 6 0.0000 0.0000 0.0000 0.0000 0.0000 0.8353
#
#
#
# Elastic Compliance Matrix: (Units=1/GPa)
#
#
# Indices 1 2 3 4 5 6 
#
# 1 0.019730 -0.005927 -0.005978 0.000000 0.000000 0.000000
# 2 -0.005927 0.017524 -0.002109 0.000000 0.000000 0.000000
# 3 -0.005978 -0.002109 0.011462 0.000000 0.000000 0.000000
# 4 0.000000 0.000000 0.000000 0.054172 0.000000 0.000000
# 5 0.000000 0.000000 0.000000 0.000000 0.055470 0.000000
# 6 0.000000 0.000000 0.000000 0.000000 0.000000 1.197205
#
#
# Mechanical properties :
#
#
# Convention : Reuss Voigt Hill
#
# Bulk Modulus (GPa) = 48.33684 51.38175 49.85930
# Shear Modulus (GPa) = 3.59586 17.91125 10.75355
#
# Velocity S-wave (km/s) = 1.42851 3.18820 2.47035
# Velocity P-wave (km/s) = 5.49107 6.53543 6.03588
#
# Compressibility (1/GPa) = 0.02068815
#
# Stress axis : x y z
#
# Youngs Moduli (GPa) = 50.68505 57.06468 87.24383
#
# Poissons Ratio (x) = 0.33820 0.52157
# Poissons Ratio (y) = 0.30039 0.18398
# Poissons Ratio (z) = 0.30301 0.12034
#
# Static dielectric constant tensor:
#      x y z
#    x 1.594900 0.000000 0.000000 
#    y 0.000000 1.619170 0.000000 
#    z 0.000000 0.000000 1.634410 
# 
# From -- ./inp_files/61028.got.cif
#   From: 2010.05.17/outbox.cif.g08.bks.cpg/sg71_31_cif.got.tgz:61028.got - 2010.06.03 16:22:01.
