data_PCOD9517232
_publ_section_title
;
Structure prediction by ZEFSAII (Michael W. Deem and Ramdas Pophale) SiO2 
 PCOD9517232
Probable space group: I M M M
;
_chemical_formula_sum "Si O2"
_cell_formula_units_Z 80
_cell_length_a 24.363367
_cell_length_b 14.281312
_cell_length_c 11.217835
_cell_angle_alpha 90.000000
_cell_angle_beta 90.000000
_cell_angle_gamma 90.000000
_cell_volume 3903.142995
_symmetry_space_group_name_H-M "I M M M"
_symmetry_group_IT_number 71
_symmetry_cell_setting 'orthorhombic'
loop_
_space_group_symop_operation_xyz
x,y,z
-x,-y,z
x,-y,-z
-x,y,-z
-x,-y,-z
x,y,-z
-x,y,z
x,-y,z
1/2+x,1/2+y,1/2+z
1/2-x,1/2-y,1/2+z
1/2+x,1/2-y,1/2-z
1/2-x,1/2+y,1/2-z
1/2-x,1/2-y,1/2-z
1/2+x,1/2+y,1/2-z
1/2-x,1/2+y,1/2+z
1/2+x,1/2-y,1/2+z
loop_
_atom_site_type_symbol
_atom_site_label
_atom_site_fract_x
_atom_site_fract_y
_atom_site_fract_z
Si Si1 0.063361 0.808695 0.201008
Si Si2 0.767393 0.612366 0.241385
Si Si3 0.817560 0.394480 0.000000
Si Si4 0.258551 0.115762 0.000000
Si Si5 0.560068 0.848913 0.500000
Si Si6 0.635290 0.394068 0.500000
Si Si7 0.852215 0.110709 0.360963
O O1 0.062417 0.714659 0.120418
O O2 0.097379 0.874884 0.112512
O O3 0.099309 0.820046 0.319571
O O4 0.000000 0.835359 0.219623
O O5 0.776970 0.500000 0.244886
O O6 0.798721 0.649647 0.125082
O O7 0.782828 0.647865 0.373051
O O8 0.702770 0.625747 0.216361
O O9 0.792811 0.500000 0.000000
O O10 0.882900 0.401497 0.000000
O O11 0.195225 0.151600 0.000000
O O12 0.261827 0.000000 0.000000
O O13 0.500000 0.894495 0.500000
O O14 0.650843 0.500000 0.500000
O O15 0.838404 0.123574 0.500000
O O16 0.867915 0.000000 0.346659
#
# Coordination Sequence:
#
# PCOD9517232 Si02
#       7
#    16  16   8   8   8   8  16
#     4  10  20  32  46  64  97 142 177 214 261 302
#     4   9  16  28  49  78 107 136 167 206 263 315
#     4  10  19  35  62  85 101 127 165 213 275 341
#     4   9  15  24  44  73 104 135 164 201 250 305
#     4   9  21  40  57  75 101 131 167 219 274 319
#     4  10  16  24  43  67  92 129 175 214 242 279
#     4  10  18  29  48  73 106 145 185 224 253 290
#
# _framework density 20.496303000000001
#
# number of rings (size 3 to 8) (size 9 to 14) (size 15 to 20)
#    0.000    2.400    3.000    1.500    0.000    2.600 
#    0.000    2.000    2.200    0.000    0.000    0.000 
#    0.000    4.000    0.000    0.000    0.000    0.000 
#
# Total GULP energy -222874.798235 kJ/mol
# GULP energy per Si atom -5571.869956 kJ/mol
# Density = 2.044965 g / cm^3
# Si number density = 20.496303 Si / 1000 Ang^3
#
#
#
# Elastic Constant Matrix: (Units=GPa)
#
#
# Indices 1 2 3 4 5 6 
#
# 1 88.6335 5.5220 38.0022 0.0000 0.0000 0.0000
# 2 5.5220 44.5616 16.3643 0.0000 0.0000 0.0000
# 3 38.0022 16.3643 165.9462 0.0000 0.0000 0.0000
# 4 0.0000 0.0000 0.0000 -1.0474 0.0000 0.0000
# 5 0.0000 0.0000 0.0000 0.0000 27.8613 0.0000
# 6 0.0000 0.0000 0.0000 0.0000 0.0000 22.3662
#
#
#
# Elastic Compliance Matrix: (Units=1/GPa)
#
#
# Indices 1 2 3 4 5 6 
#
# 1 0.012522 -0.000517 -0.002817 0.000000 0.000000 0.000000
# 2 -0.000517 0.023305 -0.002180 0.000000 0.000000 0.000000
# 3 -0.002817 -0.002180 0.006886 0.000000 0.000000 0.000000
# 4 0.000000 0.000000 0.000000 -0.954749 0.000000 0.000000
# 5 0.000000 0.000000 0.000000 0.000000 0.035892 0.000000
# 6 0.000000 0.000000 0.000000 0.000000 0.000000 0.044710
#
#
# Mechanical properties :
#
#
# Convention : Reuss Voigt Hill
#
# Bulk Modulus (GPa) = 31.55940 46.54648 39.05294
# Shear Modulus (GPa) = -6.17404 25.78620 9.80608
#
# Velocity S-wave (km/s) = -1.73747 3.55080 2.18968
# Velocity P-wave (km/s) = 3.37727 6.29046 5.04856
#
# Compressibility (1/GPa) = 0.03168628
#
# Stress axis : x y z
#
# Youngs Moduli (GPa) = 79.85755 42.90844 145.22187
#
# Poissons Ratio (x) = 0.02220 0.40904
# Poissons Ratio (y) = 0.04132 0.31654
# Poissons Ratio (z) = 0.22493 0.09353
#
# Static dielectric constant tensor:
#      x y z
#    x 1.704010 0.000000 0.000000 
#    y 0.000000 1.766610 0.000000 
#    z 0.000000 0.000000 1.800410 
# 
# From -- ./inp_files/25607.got.cif
#   From: 2010.05.17/outbox.cif.g08.bks.cpg/sg71_13_cif.got.tgz:25607.got - 2010.06.03 16:22:01.
