data_PCOD9517784
_publ_section_title
;
Structure prediction by ZEFSAII (Michael W. Deem and Ramdas Pophale) SiO2 
 PCOD9517784
Probable space group: I M M M
;
_chemical_formula_sum "Si O2"
_cell_formula_units_Z 80
_cell_length_a 24.204595
_cell_length_b 8.680475
_cell_length_c 26.710457
_cell_angle_alpha 90.000000
_cell_angle_beta 90.000000
_cell_angle_gamma 90.000000
_cell_volume 5612.064186
_symmetry_space_group_name_H-M "I M M M"
_symmetry_group_IT_number 71
_symmetry_cell_setting 'orthorhombic'
loop_
_space_group_symop_operation_xyz
x,y,z
-x,-y,z
x,-y,-z
-x,y,-z
-x,-y,-z
x,y,-z
-x,y,z
x,-y,z
1/2+x,1/2+y,1/2+z
1/2-x,1/2-y,1/2+z
1/2+x,1/2-y,1/2-z
1/2-x,1/2+y,1/2-z
1/2-x,1/2-y,1/2-z
1/2+x,1/2+y,1/2-z
1/2-x,1/2+y,1/2+z
1/2+x,1/2-y,1/2+z
loop_
_atom_site_type_symbol
_atom_site_label
_atom_site_fract_x
_atom_site_fract_y
_atom_site_fract_z
Si Si1 0.000000 0.684328 0.289309
Si Si2 0.500000 0.316464 0.900711
Si Si3 0.783055 0.816121 0.201849
Si Si4 0.813329 0.183794 0.354107
Si Si5 0.378699 0.184270 0.758073
Si Si6 0.385215 0.816108 0.058501
O O1 0.000000 0.770719 0.342265
O O2 0.943631 0.719524 0.260044
O O3 0.000000 0.500000 0.299914
O O4 0.500000 0.500000 0.905996
O O5 0.445192 0.246839 0.925617
O O6 0.750000 0.750000 0.250000
O O7 0.747986 0.749915 0.155753
O O8 0.844821 0.757156 0.212117
O O9 0.781049 0.000000 0.202111
O O10 0.851998 0.250818 0.309487
O O11 0.840194 0.238031 0.405734
O O12 0.812703 0.000000 0.350101
O O13 0.370999 0.000000 0.757656
O O14 0.384275 0.000000 0.066601
O O15 0.375738 0.784912 0.000000
#
# Coordination Sequence:
#
# PCOD9517784 Si02
#       6
#     8   8  16  16  16  16
#     4  10  20  31  47  64  90 123 151 183 224 267
#     4  12  23  33  48  65  86 114 152 195 231 267
#     4  10  18  29  45  64  86 112 142 179 221 267
#     4  11  20  31  47  66  86 110 144 187 228 268
#     4  10  18  30  46  65  88 116 148 181 220 267
#     4  11  23  37  50  63  84 116 152 190 233 275
#
# _framework density 14.255003
#
# number of rings (size 3 to 8) (size 9 to 14) (size 15 to 20)
#    0.000    1.400    2.000    8.400    0.000    3.600 
#    0.000    0.000    0.000    0.000    0.000    0.000 
#    0.000    0.000    0.000    0.900    0.000   17.400 
#
# Total GULP energy -223278.643992 kJ/mol
# GULP energy per Si atom -5581.966100 kJ/mol
# Density = 1.422256 g / cm^3
# Si number density = 14.255003 Si / 1000 Ang^3
#
#
#
# Elastic Constant Matrix: (Units=GPa)
#
#
# Indices 1 2 3 4 5 6 
#
# 1 109.1215 61.1939 57.4197 0.0000 0.0000 0.0000
# 2 61.1939 106.8950 45.0688 0.0000 0.0000 0.0000
# 3 57.4197 45.0688 61.7059 0.0000 0.0000 0.0000
# 4 0.0000 0.0000 0.0000 18.4866 0.0000 0.0000
# 5 0.0000 0.0000 0.0000 0.0000 6.7659 0.0000
# 6 0.0000 0.0000 0.0000 0.0000 0.0000 22.7730
#
#
#
# Elastic Compliance Matrix: (Units=1/GPa)
#
#
# Indices 1 2 3 4 5 6 
#
# 1 0.019732 -0.005136 -0.014610 0.000000 0.000000 0.000000
# 2 -0.005136 0.014855 -0.006070 0.000000 0.000000 0.000000
# 3 -0.014610 -0.006070 0.034235 0.000000 0.000000 0.000000
# 4 0.000000 0.000000 0.000000 0.054093 0.000000 0.000000
# 5 0.000000 0.000000 0.000000 0.000000 0.147800 0.000000
# 6 0.000000 0.000000 0.000000 0.000000 0.000000 0.043912
#
#
# Mechanical properties :
#
#
# Convention : Reuss Voigt Hill
#
# Bulk Modulus (GPa) = 58.17816 67.23191 62.70503
# Shear Modulus (GPa) = 13.44124 17.20776 15.32450
#
# Velocity S-wave (km/s) = 3.07402 3.47816 3.28232
# Velocity P-wave (km/s) = 7.31441 7.96217 7.64515
#
# Compressibility (1/GPa) = 0.01718858
#
# Stress axis : x y z
#
# Youngs Moduli (GPa) = 50.67814 67.31967 29.20995
#
# Poissons Ratio (x) = 0.34576 0.42677
# Poissons Ratio (y) = 0.26029 0.17731
# Poissons Ratio (z) = 0.74043 0.40863
#
# Static dielectric constant tensor:
#      x y z
#    x 1.496300 0.000000 0.000000 
#    y 0.000000 1.476920 0.000000 
#    z 0.000000 0.000000 1.451190 
# 
# From -- ./inp_files/61516.got.cif
#   From: 2010.05.17/outbox.cif.g08.bks.cpg/sg71_31_cif.got.tgz:61516.got - 2010.06.03 16:22:01.
