data_PCOD9517228
_publ_section_title
;
Structure prediction by ZEFSAII (Michael W. Deem and Ramdas Pophale) SiO2 
 PCOD9517228
Probable space group: I M M M
;
_chemical_formula_sum "Si O2"
_cell_formula_units_Z 88
_cell_length_a 26.095819
_cell_length_b 29.021583
_cell_length_c 8.597710
_cell_angle_alpha 90.000000
_cell_angle_beta 90.000000
_cell_angle_gamma 90.000000
_cell_volume 6511.406690
_symmetry_space_group_name_H-M "I M M M"
_symmetry_group_IT_number 71
_symmetry_cell_setting 'orthorhombic'
loop_
_space_group_symop_operation_xyz
x,y,z
-x,-y,z
x,-y,-z
-x,y,-z
-x,-y,-z
x,y,-z
-x,y,z
x,-y,z
1/2+x,1/2+y,1/2+z
1/2-x,1/2-y,1/2+z
1/2+x,1/2-y,1/2-z
1/2-x,1/2+y,1/2-z
1/2-x,1/2-y,1/2-z
1/2+x,1/2+y,1/2-z
1/2-x,1/2+y,1/2+z
1/2+x,1/2-y,1/2+z
loop_
_atom_site_type_symbol
_atom_site_label
_atom_site_fract_x
_atom_site_fract_y
_atom_site_fract_z
Si Si1 0.441584 0.000000 0.810606
Si Si2 0.865075 0.419495 0.687176
Si Si3 0.776434 0.144239 0.185526
Si Si4 0.193783 0.235328 0.314359
Si Si5 0.253329 0.052452 0.313802
Si Si6 0.164191 0.673189 0.814446
O O1 0.409506 0.954782 0.764691
O O2 0.500000 0.000000 0.755343
O O3 0.442460 0.000000 0.000000
O O4 0.862509 0.417391 0.500000
O O5 0.810746 0.439189 0.748321
O O6 0.871489 0.367979 0.753469
O O7 0.813952 0.183637 0.251224
O O8 0.782821 0.091854 0.241616
O O9 0.720402 0.157580 0.253488
O O10 0.774748 0.146816 0.000000
O O11 0.195293 0.235439 0.500000
O O12 0.250000 0.250000 0.250000
O O13 0.156593 0.275590 0.253076
O O14 0.255055 0.058297 0.500000
O O15 0.238148 0.000000 0.277860
O O16 0.164660 0.674691 0.000000
#
# Coordination Sequence:
#
# PCOD9517228 Si02
#       6
#     8  16  16  16  16  16
#     4   9  18  30  43  57  71  87 109 141 179 219
#     4  10  17  27  41  54  66  82 107 136 169 209
#     4  10  17  24  34  48  66  86 109 133 162 196
#     4  10  16  24  35  48  66  85 106 128 157 194
#     4  10  18  26  36  49  67  88 112 141 172 202
#     4  10  17  25  36  50  67  84 103 128 161 198
#
# _framework density 13.514745
#
# number of rings (size 3 to 8) (size 9 to 14) (size 15 to 20)
#    0.000    2.091    0.909   10.364    0.000    1.091 
#    0.000    0.000    0.000    4.364    0.000    0.000 
#    0.000    0.000    0.000    0.000    0.000    0.000 
#
# Total GULP energy -245038.721982 kJ/mol
# GULP energy per Si atom -5569.061863 kJ/mol
# Density = 1.348398 g / cm^3
# Si number density = 13.514745 Si / 1000 Ang^3
#
#
#
# Elastic Constant Matrix: (Units=GPa)
#
#
# Indices 1 2 3 4 5 6 
#
# 1 20.1786 34.6078 12.0305 0.0000 0.0000 0.0000
# 2 34.6078 155.3242 57.1537 0.0000 0.0000 0.0000
# 3 12.0305 57.1537 107.5548 0.0000 0.0000 0.0000
# 4 0.0000 0.0000 0.0000 24.7585 0.0000 0.0000
# 5 0.0000 0.0000 0.0000 0.0000 -0.2982 0.0000
# 6 0.0000 0.0000 0.0000 0.0000 0.0000 8.3234
#
#
#
# Elastic Compliance Matrix: (Units=1/GPa)
#
#
# Indices 1 2 3 4 5 6 
#
# 1 0.080244 -0.018119 0.000653 0.000000 0.000000 0.000000
# 2 -0.018119 0.012094 -0.004400 0.000000 0.000000 0.000000
# 3 0.000653 -0.004400 0.011563 0.000000 0.000000 0.000000
# 4 0.000000 0.000000 0.000000 0.040390 0.000000 0.000000
# 5 0.000000 0.000000 0.000000 0.000000 -3.353616 0.000000
# 6 0.000000 0.000000 0.000000 0.000000 0.000000 0.120143
#
#
# Mechanical properties :
#
#
# Convention : Reuss Voigt Hill
#
# Bulk Modulus (GPa) = 16.62011 54.51573 35.56792
# Shear Modulus (GPa) = -1.65268 18.50779 8.42756
#
# Velocity S-wave (km/s) = -1.10703 3.70463 2.49987
# Velocity P-wave (km/s) = 3.26962 7.66319 5.89131
#
# Compressibility (1/GPa) = 0.06016809
#
# Stress axis : x y z
#
# Youngs Moduli (GPa) = 12.46193 82.68257 86.48448
#
# Poissons Ratio (x) = 1.49817 -0.05646
# Poissons Ratio (y) = 0.22580 0.38054
# Poissons Ratio (z) = -0.00814 0.36382
#
# Static dielectric constant tensor:
#      x y z
#    x 1.396660 0.000000 0.000000 
#    y 0.000000 1.528710 0.000000 
#    z 0.000000 0.000000 1.448290 
# 
# From -- ./inp_files/17388.got.cif
#   From: 2010.05.17/outbox.cif.g08.bks.cpg/sg71_9_cif.got.tgz:17388.got - 2010.06.03 16:22:01.
