data_PCOD9517750
_publ_section_title
;
Structure prediction by ZEFSAII (Michael W. Deem and Ramdas Pophale) SiO2 
 PCOD9517750
Probable space group: I M M M
;
_chemical_formula_sum "Si O2"
_cell_formula_units_Z 72
_cell_length_a 19.926704
_cell_length_b 7.424968
_cell_length_c 28.992651
_cell_angle_alpha 90.000000
_cell_angle_beta 90.000000
_cell_angle_gamma 90.000000
_cell_volume 4289.611724
_symmetry_space_group_name_H-M "I M M M"
_symmetry_group_IT_number 71
_symmetry_cell_setting 'orthorhombic'
loop_
_space_group_symop_operation_xyz
x,y,z
-x,-y,z
x,-y,-z
-x,y,-z
-x,-y,-z
x,y,-z
-x,y,z
x,-y,z
1/2+x,1/2+y,1/2+z
1/2-x,1/2-y,1/2+z
1/2+x,1/2-y,1/2-z
1/2-x,1/2+y,1/2-z
1/2-x,1/2-y,1/2-z
1/2+x,1/2+y,1/2-z
1/2-x,1/2+y,1/2+z
1/2+x,1/2-y,1/2+z
loop_
_atom_site_type_symbol
_atom_site_label
_atom_site_fract_x
_atom_site_fract_y
_atom_site_fract_z
Si Si1 0.578527 0.778722 0.500000
Si Si2 0.500000 0.279423 0.758595
Si Si3 0.000000 0.783095 0.848544
Si Si4 0.854165 0.787198 0.274727
Si Si5 0.365548 0.208203 0.403701
Si Si6 0.219424 0.718329 0.820611
O O1 0.500000 0.724614 0.500000
O O2 0.616122 0.716250 0.453773
O O3 0.577642 0.000000 0.500000
O O4 0.500000 0.500000 0.759679
O O5 0.500000 0.228048 0.704722
O O6 0.429597 0.216650 0.779940
O O7 0.934297 0.715639 0.874628
O O8 0.000000 0.000000 0.850311
O O9 0.830151 0.765602 0.221675
O O10 0.793181 0.715207 0.305820
O O11 0.857272 0.000000 0.283937
O O12 0.309673 0.285644 0.369123
O O13 0.347014 0.000000 0.411537
O O14 0.220764 0.500000 0.822130
#
# Coordination Sequence:
#
# PCOD9517750 Si02
#       6
#     8   8   8  16  16  16
#     4   9  16  26  40  54  72  99 127 157 192 221
#     4   9  16  25  38  54  75 101 124 145 178 225
#     4  11  19  26  38  57  76 102 129 156 188 220
#     4   9  16  27  39  54  75  98 122 148 184 223
#     4  10  18  29  41  54  73 100 131 161 189 218
#     4   9  17  26  39  56  73  94 124 158 183 213
#
# _framework density 16.784737
#
# number of rings (size 3 to 8) (size 9 to 14) (size 15 to 20)
#    0.000    2.556    3.333    0.333    0.000    0.000 
#    0.000    1.667    0.000    0.000    0.000    0.000 
#    0.000    0.889    0.000   12.444    0.000    0.000 
#
# Total GULP energy -200705.415889 kJ/mol
# GULP energy per Si atom -5575.150441 kJ/mol
# Density = 1.674653 g / cm^3
# Si number density = 16.784737 Si / 1000 Ang^3
#
#
#
# Elastic Constant Matrix: (Units=GPa)
#
#
# Indices 1 2 3 4 5 6 
#
# 1 149.4324 -1.1435 68.6435 0.0000 0.0000 0.0000
# 2 -1.1435 52.7150 -1.8279 0.0000 0.0000 0.0000
# 3 68.6435 -1.8279 113.4723 0.0000 0.0000 0.0000
# 4 0.0000 0.0000 0.0000 -19.4615 0.0000 0.0000
# 5 0.0000 0.0000 0.0000 0.0000 26.2112 0.0000
# 6 0.0000 0.0000 0.0000 0.0000 0.0000 0.6382
#
#
#
# Elastic Compliance Matrix: (Units=1/GPa)
#
#
# Indices 1 2 3 4 5 6 
#
# 1 0.009267 0.000007 -0.005606 0.000000 0.000000 0.000000
# 2 0.000007 0.018981 0.000302 0.000000 0.000000 0.000000
# 3 -0.005606 0.000302 0.012209 0.000000 0.000000 0.000000
# 4 0.000000 0.000000 0.000000 -0.051383 0.000000 0.000000
# 5 0.000000 0.000000 0.000000 0.000000 0.038152 0.000000
# 6 0.000000 0.000000 0.000000 0.000000 0.000000 1.567023
#
#
# Mechanical properties :
#
#
# Convention : Reuss Voigt Hill
#
# Bulk Modulus (GPa) = 33.48805 49.66267 41.57536
# Shear Modulus (GPa) = 3.09636 18.14073 10.61855
#
# Velocity S-wave (km/s) = 1.35969 3.29110 2.51794
# Velocity P-wave (km/s) = 4.73918 6.64033 5.76861
#
# Compressibility (1/GPa) = 0.02986140
#
# Stress axis : x y z
#
# Youngs Moduli (GPa) = 107.90746 52.68552 81.90798
#
# Poissons Ratio (x) = -0.00035 0.45917
# Poissons Ratio (y) = -0.00072 -0.02471
# Poissons Ratio (z) = 0.60492 -0.01590
#
# Static dielectric constant tensor:
#      x y z
#    x 1.589110 0.000000 0.000000 
#    y 0.000000 1.635270 0.000000 
#    z 0.000000 0.000000 1.558230 
# 
# From -- ./inp_files/10692.got.cif
#   From: 2010.05.17/outbox.cif.g08.bks.cpg/sg71_6_cif.got.tgz:10692.got - 2010.06.03 16:22:01.
