data_PCOD9517818
_publ_section_title
;
Structure prediction by ZEFSAII (Michael W. Deem and Ramdas Pophale) SiO2 
 PCOD9517818
Probable space group: I M M M
;
_chemical_formula_sum "Si O2"
_cell_formula_units_Z 104
_cell_length_a 29.277668
_cell_length_b 25.287800
_cell_length_c 7.987445
_cell_angle_alpha 90.000000
_cell_angle_beta 90.000000
_cell_angle_gamma 90.000000
_cell_volume 5913.647185
_symmetry_space_group_name_H-M "I M M M"
_symmetry_group_IT_number 71
_symmetry_cell_setting 'orthorhombic'
loop_
_space_group_symop_operation_xyz
x,y,z
-x,-y,z
x,-y,-z
-x,y,-z
-x,-y,-z
x,y,-z
-x,y,z
x,-y,z
1/2+x,1/2+y,1/2+z
1/2-x,1/2-y,1/2+z
1/2+x,1/2-y,1/2-z
1/2-x,1/2+y,1/2-z
1/2-x,1/2-y,1/2-z
1/2+x,1/2+y,1/2-z
1/2-x,1/2+y,1/2+z
1/2+x,1/2-y,1/2+z
loop_
_atom_site_type_symbol
_atom_site_label
_atom_site_fract_x
_atom_site_fract_y
_atom_site_fract_z
Si Si1 0.447172 0.236189 0.298036
Si Si2 0.376864 0.559943 0.801201
Si Si3 0.277067 0.564128 0.306645
Si Si4 0.089301 0.374259 0.797887
Si Si5 0.552194 0.353657 0.798493
Si Si6 0.000000 0.439119 0.204708
Si Si7 0.677796 0.060594 0.798115
O O1 0.447420 0.235521 0.500000
O O2 0.500000 0.229050 0.242633
O O3 0.417945 0.186034 0.239506
O O4 0.432053 0.294259 0.242746
O O5 0.381079 0.500000 0.731696
O O6 0.324767 0.578934 0.776780
O O7 0.413581 0.601500 0.733016
O O8 0.384515 0.556257 0.000000
O O9 0.279979 0.580797 0.500000
O O10 0.275280 0.500000 0.302547
O O11 0.227591 0.580099 0.235755
O O12 0.045626 0.408656 0.740767
O O13 0.136035 0.401982 0.746490
O O14 0.087891 0.373808 0.000000
O O15 0.500000 0.359716 0.735750
O O16 0.550672 0.357914 0.000000
O O17 0.000000 0.500000 0.258816
O O18 0.000000 0.438720 0.000000
O O19 0.669563 0.000000 0.739117
O O20 0.681446 0.058253 0.000000
#
# Coordination Sequence:
#
# PCOD9517818 Si02
#       7
#    16  16  16  16  16   8  16
#     4   9  17  31  48  65  88 119 158 197 228 262
#     4   9  17  29  47  72  98 121 147 182 222 265
#     4   8  15  29  47  65  89 122 154 183 221 272
#     4  10  18  29  46  67  89 118 156 195 231 270
#     4   9  18  31  47  69  96 124 152 181 219 270
#     4   9  16  26  41  63  91 119 146 181 228 276
#     4   9  18  31  45  65  94 123 151 187 232 278
#
# _framework density 17.586438999999999
#
# number of rings (size 3 to 8) (size 9 to 14) (size 15 to 20)
#    0.000    3.000    0.769    1.385    0.000    3.077 
#    0.000    3.462    0.000    2.308    0.000    4.308 
#    0.000    0.000    0.000    0.000    0.000    0.000 
#
# Total GULP energy -289636.391322 kJ/mol
# GULP energy per Si atom -5569.930602 kJ/mol
# Density = 1.754641 g / cm^3
# Si number density = 17.586439 Si / 1000 Ang^3
#
#
#
# Elastic Constant Matrix: (Units=GPa)
#
#
# Indices 1 2 3 4 5 6 
#
# 1 138.8352 99.5299 7.0545 0.0000 0.0000 0.0000
# 2 99.5299 127.3939 9.5970 0.0000 0.0000 0.0000
# 3 7.0545 9.5970 10.4220 0.0000 0.0000 0.0000
# 4 0.0000 0.0000 0.0000 18.2495 0.0000 0.0000
# 5 0.0000 0.0000 0.0000 0.0000 9.0512 0.0000
# 6 0.0000 0.0000 0.0000 0.0000 0.0000 8.6669
#
#
#
# Elastic Compliance Matrix: (Units=1/GPa)
#
#
# Indices 1 2 3 4 5 6 
#
# 1 0.016379 -0.012853 0.000749 0.000000 0.000000 0.000000
# 2 -0.012853 0.018521 -0.008355 0.000000 0.000000 0.000000
# 3 0.000749 -0.008355 0.103137 0.000000 0.000000 0.000000
# 4 0.000000 0.000000 0.000000 0.054796 0.000000 0.000000
# 5 0.000000 0.000000 0.000000 0.000000 0.110482 0.000000
# 6 0.000000 0.000000 0.000000 0.000000 0.000000 0.115382
#
#
# Mechanical properties :
#
#
# Convention : Reuss Voigt Hill
#
# Bulk Modulus (GPa) = 10.29659 56.55711 33.42685
# Shear Modulus (GPa) = 10.16285 17.89149 14.02717
#
# Velocity S-wave (km/s) = 2.40652 3.19305 2.82727
# Velocity P-wave (km/s) = 3.68637 6.76930 5.45035
#
# Compressibility (1/GPa) = 0.09711954
#
# Stress axis : x y z
#
# Youngs Moduli (GPa) = 61.05451 53.99378 9.69579
#
# Poissons Ratio (x) = 0.69397 -0.00726
# Poissons Ratio (y) = 0.78472 0.08101
# Poissons Ratio (z) = -0.04572 0.45110
#
# Static dielectric constant tensor:
#      x y z
#    x 1.608860 0.000000 0.000000 
#    y 0.000000 1.591750 0.000000 
#    z 0.000000 0.000000 1.641620 
# 
# From -- ./inp_files/17275.got.cif
#   From: 2010.05.17/outbox.cif.g08.bks.cpg/sg71_9_cif.got.tgz:17275.got - 2010.06.03 16:22:01.
