data_PCOD9517513
_publ_section_title
;
Structure prediction by ZEFSAII (Michael W. Deem and Ramdas Pophale) SiO2 
 PCOD9517513
Probable space group: I M M M
;
_chemical_formula_sum "Si O2"
_cell_formula_units_Z 96
_cell_length_a 22.131006
_cell_length_b 12.091542
_cell_length_c 20.292918
_cell_angle_alpha 90.000000
_cell_angle_beta 90.000000
_cell_angle_gamma 90.000000
_cell_volume 5430.344039
_symmetry_space_group_name_H-M "I M M M"
_symmetry_group_IT_number 71
_symmetry_cell_setting 'orthorhombic'
loop_
_space_group_symop_operation_xyz
x,y,z
-x,-y,z
x,-y,-z
-x,y,-z
-x,-y,-z
x,y,-z
-x,y,z
x,-y,z
1/2+x,1/2+y,1/2+z
1/2-x,1/2-y,1/2+z
1/2+x,1/2-y,1/2-z
1/2-x,1/2+y,1/2-z
1/2-x,1/2-y,1/2-z
1/2+x,1/2+y,1/2-z
1/2-x,1/2+y,1/2+z
1/2+x,1/2-y,1/2+z
loop_
_atom_site_type_symbol
_atom_site_label
_atom_site_fract_x
_atom_site_fract_y
_atom_site_fract_z
Si Si1 0.109445 0.874741 0.797447
Si Si2 0.928480 0.247608 0.073913
Si Si3 0.649550 0.000000 0.260996
Si Si4 0.162870 0.000000 0.575563
Si Si5 0.708600 0.500000 0.776010
Si Si6 0.067515 0.197056 0.572851
Si Si7 0.433380 0.814308 0.793545
Si Si8 0.430011 0.000000 0.388725
O O1 0.108412 0.811102 0.867326
O O2 0.071725 0.798558 0.748077
O O3 0.085105 0.000000 0.806415
O O4 0.173198 0.897809 0.759666
O O5 0.922969 0.381449 0.075995
O O6 0.000000 0.223689 0.085116
O O7 0.912294 0.210011 0.000000
O O8 0.721119 0.000000 0.260783
O O9 0.620223 0.106746 0.227488
O O10 0.620630 0.000000 0.333267
O O11 0.199970 0.000000 0.644332
O O12 0.118835 0.105575 0.579337
O O13 0.190127 0.000000 0.500000
O O14 0.072021 0.246397 0.500000
O O15 0.072221 0.284929 0.630313
O O16 0.000000 0.146230 0.578567
O O17 0.500000 0.862533 0.780422
O O18 0.500000 0.000000 0.364247
#
# Coordination Sequence:
#
# PCOD9517513 Si02
#       8
#    16  16   8   8   8  16  16   8
#     4  10  21  38  55  86 116 153 193 235 289 344
#     4  10  20  35  58  87 121 156 191 241 297 346
#     4  12  24  39  61  81 111 156 206 237 281 343
#     4  10  17  34  56  83 118 151 188 221 276 345
#     4  10  24  41  55  85 117 161 193 237 276 336
#     4   9  17  30  53  86 120 148 178 228 291 347
#     4  11  21  36  61  89 115 145 192 249 296 340
#     4  10  19  36  59  89 116 143 191 251 300 335
#
# _framework density 17.678439000000001
#
# number of rings (size 3 to 8) (size 9 to 14) (size 15 to 20)
#    0.500    1.333    3.333    1.750    0.000    4.333 
#    0.000    2.083    0.000    4.000    0.000    0.000 
#    0.000    0.000    0.000    0.000    0.000    0.000 
#
# Total GULP energy -267233.821626 kJ/mol
# GULP energy per Si atom -5567.371284 kJ/mol
# Density = 1.763820 g / cm^3
# Si number density = 17.678439 Si / 1000 Ang^3
#
#
#
# Elastic Constant Matrix: (Units=GPa)
#
#
# Indices 1 2 3 4 5 6 
#
# 1 107.8144 32.0122 59.2863 0.0000 0.0000 0.0000
# 2 32.0122 74.9312 44.0819 0.0000 0.0000 0.0000
# 3 59.2863 44.0819 145.9440 0.0000 0.0000 0.0000
# 4 0.0000 0.0000 0.0000 19.2333 0.0000 0.0000
# 5 0.0000 0.0000 0.0000 0.0000 -114.3171 0.0000
# 6 0.0000 0.0000 0.0000 0.0000 0.0000 7.3763
#
#
#
# Elastic Compliance Matrix: (Units=1/GPa)
#
#
# Indices 1 2 3 4 5 6 
#
# 1 0.012422 -0.002844 -0.004187 0.000000 0.000000 0.000000
# 2 -0.002844 0.016880 -0.003944 0.000000 0.000000 0.000000
# 3 -0.004187 -0.003944 0.009744 0.000000 0.000000 0.000000
# 4 0.000000 0.000000 0.000000 0.051993 0.000000 0.000000
# 5 0.000000 0.000000 0.000000 0.000000 -0.008748 0.000000
# 6 0.000000 0.000000 0.000000 0.000000 0.000000 0.135570
#
#
# Mechanical properties :
#
#
# Convention : Reuss Voigt Hill
#
# Bulk Modulus (GPa) = 58.48732 66.60558 62.54645
# Shear Modulus (GPa) = 20.36579 -4.65422 7.85579
#
# Velocity S-wave (km/s) = 3.39781 -1.62432 2.11030
# Velocity P-wave (km/s) = 6.96773 5.85150 6.43387
#
# Compressibility (1/GPa) = 0.01709772
#
# Stress axis : x y z
#
# Youngs Moduli (GPa) = 80.50196 59.24031 102.62671
#
# Poissons Ratio (x) = 0.16846 0.42973
# Poissons Ratio (y) = 0.22892 0.40471
# Poissons Ratio (z) = 0.33708 0.23362
#
# Static dielectric constant tensor:
#      x y z
#    x 1.590330 0.000000 0.000000 
#    y 0.000000 1.600960 0.000000 
#    z 0.000000 0.000000 1.630940 
# 
# From -- ./inp_files/54950.got.cif
#   From: 2010.05.17/outbox.cif.g08.bks.cpg/sg71_28_cif.got.tgz:54950.got - 2010.06.03 16:22:01.
