data_PCOD9517912
_publ_section_title
;
Structure prediction by ZEFSAII (Michael W. Deem and Ramdas Pophale) SiO2 
 PCOD9517912
Probable space group: I M M M
;
_chemical_formula_sum "Si O2"
_cell_formula_units_Z 80
_cell_length_a 13.927986
_cell_length_b 17.006085
_cell_length_c 18.599773
_cell_angle_alpha 90.000000
_cell_angle_beta 90.000000
_cell_angle_gamma 90.000000
_cell_volume 4405.551789
_symmetry_space_group_name_H-M "I M M M"
_symmetry_group_IT_number 71
_symmetry_cell_setting 'orthorhombic'
loop_
_space_group_symop_operation_xyz
x,y,z
-x,-y,z
x,-y,-z
-x,y,-z
-x,-y,-z
x,y,-z
-x,y,z
x,-y,z
1/2+x,1/2+y,1/2+z
1/2-x,1/2-y,1/2+z
1/2+x,1/2-y,1/2-z
1/2-x,1/2+y,1/2-z
1/2-x,1/2-y,1/2-z
1/2+x,1/2+y,1/2-z
1/2-x,1/2+y,1/2+z
1/2+x,1/2-y,1/2+z
loop_
_atom_site_type_symbol
_atom_site_label
_atom_site_fract_x
_atom_site_fract_y
_atom_site_fract_z
Si Si1 0.607202 0.500000 0.268636
Si Si2 0.268981 0.325353 0.580839
Si Si3 0.388040 0.720059 0.864919
Si Si4 0.258768 0.588928 0.171553
Si Si5 0.173076 0.000000 0.079553
Si Si6 0.113453 0.273179 0.801541
O O1 0.500000 0.500000 0.237713
O O2 0.670813 0.428019 0.239454
O O3 0.602579 0.500000 0.353518
O O4 0.303522 0.306321 0.500000
O O5 0.163961 0.289279 0.592351
O O6 0.268303 0.419380 0.587001
O O7 0.336639 0.284783 0.640702
O O8 0.500000 0.710644 0.879460
O O9 0.326308 0.641366 0.879478
O O10 0.375125 0.742300 0.780186
O O11 0.234425 0.500000 0.146629
O O12 0.168710 0.643360 0.191050
O O13 0.128672 0.000000 0.000000
O O14 0.000000 0.279692 0.815662
#
# Coordination Sequence:
#
# PCOD9517912 Si02
#       6
#     8  16  16  16   8  16
#     4  10  18  29  49  79 109 137 170 214 267 314
#     4  10  21  36  54  78 111 149 184 220 267 322
#     4  10  19  34  55  79 108 142 183 228 274 320
#     4   9  19  31  53  80 106 133 171 222 273 321
#     4  10  20  33  49  72 109 148 182 219 258 311
#     4  10  20  36  55  78 108 142 183 228 272 319
#
# _framework density 18.158906999999999
#
# number of rings (size 3 to 8) (size 9 to 14) (size 15 to 20)
#    0.600    1.600    0.000    5.400    0.000    3.800 
#    0.000    2.500    0.000   11.400    0.000   11.200 
#    0.000    0.000    0.000    0.000    0.000    0.000 
#
# Total GULP energy -222733.744018 kJ/mol
# GULP energy per Si atom -5568.343600 kJ/mol
# Density = 1.811758 g / cm^3
# Si number density = 18.158907 Si / 1000 Ang^3
#
#
#
# Elastic Constant Matrix: (Units=GPa)
#
#
# Indices 1 2 3 4 5 6 
#
# 1 87.8865 50.5778 3.9299 0.0000 0.0000 0.0000
# 2 50.5778 145.6083 18.8722 0.0000 0.0000 0.0000
# 3 3.9299 18.8722 47.1000 0.0000 0.0000 0.0000
# 4 0.0000 0.0000 0.0000 19.9600 0.0000 0.0000
# 5 0.0000 0.0000 0.0000 0.0000 9.1696 0.0000
# 6 0.0000 0.0000 0.0000 0.0000 0.0000 0.0189
#
#
#
# Elastic Compliance Matrix: (Units=1/GPa)
#
#
# Indices 1 2 3 4 5 6 
#
# 1 0.014252 -0.005059 0.000838 0.000000 0.000000 0.000000
# 2 -0.005059 0.009040 -0.003200 0.000000 0.000000 0.000000
# 3 0.000838 -0.003200 0.022444 0.000000 0.000000 0.000000
# 4 0.000000 0.000000 0.000000 0.050100 0.000000 0.000001
# 5 0.000000 0.000000 0.000000 0.000000 0.109056 0.000001
# 6 0.000000 0.000000 0.000000 0.000001 0.000001 52.952024
#
#
# Mechanical properties :
#
#
# Convention : Reuss Voigt Hill
#
# Bulk Modulus (GPa) = 32.36941 47.48386 39.92664
# Shear Modulus (GPa) = 0.09402 19.64403 9.86902
#
# Velocity S-wave (km/s) = 0.22779 3.29262 2.33380
# Velocity P-wave (km/s) = 4.23480 6.37659 5.41269
#
# Compressibility (1/GPa) = 0.03089336
#
# Stress axis : x y z
#
# Youngs Moduli (GPa) = 70.16368 110.62131 44.55599
#
# Poissons Ratio (x) = 0.55966 -0.03734
# Poissons Ratio (y) = 0.35498 0.14258
# Poissons Ratio (z) = -0.05879 0.35399
#
# Static dielectric constant tensor:
#      x y z
#    x 1.604480 0.000000 0.000000 
#    y 0.000000 1.671600 0.000000 
#    z 0.000000 0.000000 1.645050 
# 
# From -- ./inp_files/44648.got.cif
#   From: 2010.05.17/outbox.cif.g08.bks.cpg/sg71_23_cif.got.tgz:44648.got - 2010.06.03 16:22:01.
