data_PCOD9517248
_publ_section_title
;
Structure prediction by ZEFSAII (Michael W. Deem and Ramdas Pophale) SiO2 
 PCOD9517248
Probable space group: I M M M
;
_chemical_formula_sum "Si O2"
_cell_formula_units_Z 88
_cell_length_a 14.369048
_cell_length_b 20.478555
_cell_length_c 13.908472
_cell_angle_alpha 90.000000
_cell_angle_beta 90.000000
_cell_angle_gamma 90.000000
_cell_volume 4092.669971
_symmetry_space_group_name_H-M "I M M M"
_symmetry_group_IT_number 71
_symmetry_cell_setting 'orthorhombic'
loop_
_space_group_symop_operation_xyz
x,y,z
-x,-y,z
x,-y,-z
-x,y,-z
-x,-y,-z
x,y,-z
-x,y,z
x,-y,z
1/2+x,1/2+y,1/2+z
1/2-x,1/2-y,1/2+z
1/2+x,1/2-y,1/2-z
1/2-x,1/2+y,1/2-z
1/2-x,1/2-y,1/2-z
1/2+x,1/2+y,1/2-z
1/2-x,1/2+y,1/2+z
1/2+x,1/2-y,1/2+z
loop_
_atom_site_type_symbol
_atom_site_label
_atom_site_fract_x
_atom_site_fract_y
_atom_site_fract_z
Si Si1 0.364654 0.356501 0.610049
Si Si2 0.137314 0.636835 0.388141
Si Si3 0.858002 0.237576 0.726215
Si Si4 0.604244 0.608299 0.885289
Si Si5 0.356364 0.500000 0.383300
Si Si6 0.744798 0.000000 0.384171
Si Si7 0.146719 0.500000 0.303085
O O1 0.391670 0.346411 0.500000
O O2 0.251199 0.359967 0.612744
O O3 0.395590 0.297639 0.677990
O O4 0.396639 0.428968 0.642650
O O5 0.110253 0.644217 0.500000
O O6 0.105571 0.695581 0.319195
O O7 0.107546 0.567061 0.345726
O O8 0.750000 0.250000 0.750000
O O9 0.872219 0.180918 0.648023
O O10 0.500000 0.589618 0.851804
O O11 0.689185 0.561334 0.857952
O O12 0.601264 0.604882 0.000000
O O13 0.352309 0.500000 0.500000
O O14 0.252694 0.500000 0.342263
O O15 0.726306 0.000000 0.500000
O O16 0.657140 0.000000 0.312619
#
# Coordination Sequence:
#
# PCOD9517248 Si02
#       7
#    16  16  16  16   8   8   8
#     4   8  14  23  37  59  85 115 148 185 232 283
#     4   9  16  26  41  63  89 114 147 196 249 299
#     4  10  18  28  44  68  94 119 157 207 256 298
#     4  10  20  33  48  67  96 135 173 206 244 296
#     4   8  12  20  35  55  80 110 147 184 222 275
#     4  10  19  30  44  64  94 133 173 202 230 283
#     4  10  16  27  44  64  88 118 154 200 255 299
#
# _framework density 21.501854999999999
#
# number of rings (size 3 to 8) (size 9 to 14) (size 15 to 20)
#    0.000    2.727    0.000    6.000    0.000    1.818 
#    0.000    0.909    0.000    0.545    0.000    0.636 
#    0.000   32.000    0.000    0.000    0.000   27.273 
#
# Total GULP energy -245468.865383 kJ/mol
# GULP energy per Si atom -5578.837850 kJ/mol
# Density = 2.145292 g / cm^3
# Si number density = 21.501855 Si / 1000 Ang^3
#
#
#
# Elastic Constant Matrix: (Units=GPa)
#
#
# Indices 1 2 3 4 5 6 
#
# 1 85.4893 6.3060 16.4165 0.0000 0.0000 0.0000
# 2 6.3060 202.9274 88.5813 -0.0001 0.0000 0.0000
# 3 16.4165 88.5813 134.6891 -0.0003 0.0000 -0.0001
# 4 0.0000 -0.0001 -0.0003 44.5079 0.0000 -0.0001
# 5 0.0000 0.0000 0.0000 0.0000 -6.0066 0.0000
# 6 0.0000 0.0000 -0.0001 -0.0001 0.0000 -31.9052
#
#
#
# Elastic Compliance Matrix: (Units=1/GPa)
#
#
# Indices 1 2 3 4 5 6 
#
# 1 0.011998 0.000372 -0.001707 0.000000 0.000000 0.000000
# 2 0.000372 0.006924 -0.004599 0.000000 0.000000 0.000000
# 3 -0.001707 -0.004599 0.010657 0.000000 0.000000 0.000000
# 4 0.000000 0.000000 0.000000 0.022468 0.000000 0.000000
# 5 0.000000 0.000000 0.000000 0.000000 -0.166484 0.000000
# 6 0.000000 0.000000 0.000000 0.000000 0.000000 -0.031343
#
#
# Mechanical properties :
#
#
# Convention : Reuss Voigt Hill
#
# Bulk Modulus (GPa) = 56.46171 71.74591 64.10381
# Shear Modulus (GPa) = -39.05986 22.10602 -8.47692
#
# Velocity S-wave (km/s) = -4.26676 3.20988 -1.98771
# Velocity P-wave (km/s) = 1.42911 6.86859 4.96084
#
# Compressibility (1/GPa) = 0.01771112
#
# Stress axis : x y z
#
# Youngs Moduli (GPa) = 83.34895 144.42833 93.83291
#
# Poissons Ratio (x) = -0.05379 0.16020
# Poissons Ratio (y) = -0.03104 0.43154
# Poissons Ratio (z) = 0.14230 0.66423
#
# Static dielectric constant tensor:
#      x y z
#    x 1.787200 0.000000 0.000000 
#    y 0.000000 1.776860 0.000000 
#    z 0.000000 0.000000 1.792440 
# 
# From -- ./inp_files/38031.got.cif
#   From: 2010.05.17/outbox.cif.g08.bks.cpg/sg71_20_cif.got.tgz:38031.got - 2010.06.03 16:22:01.
