data_PCOD9517263
_publ_section_title
;
Structure prediction by ZEFSAII (Michael W. Deem and Ramdas Pophale) SiO2 
 PCOD9517263
Probable space group: I M M M
;
_chemical_formula_sum "Si O2"
_cell_formula_units_Z 96
_cell_length_a 16.395807
_cell_length_b 27.101610
_cell_length_c 11.597222
_cell_angle_alpha 90.000000
_cell_angle_beta 90.000000
_cell_angle_gamma 90.000000
_cell_volume 5153.257685
_symmetry_space_group_name_H-M "I M M M"
_symmetry_group_IT_number 71
_symmetry_cell_setting 'orthorhombic'
loop_
_space_group_symop_operation_xyz
x,y,z
-x,-y,z
x,-y,-z
-x,y,-z
-x,-y,-z
x,y,-z
-x,y,z
x,-y,z
1/2+x,1/2+y,1/2+z
1/2-x,1/2-y,1/2+z
1/2+x,1/2-y,1/2-z
1/2-x,1/2+y,1/2-z
1/2-x,1/2-y,1/2-z
1/2+x,1/2+y,1/2-z
1/2-x,1/2+y,1/2+z
1/2+x,1/2-y,1/2+z
loop_
_atom_site_type_symbol
_atom_site_label
_atom_site_fract_x
_atom_site_fract_y
_atom_site_fract_z
Si Si1 0.138495 0.654124 0.139115
Si Si2 0.147074 0.445937 0.779383
Si Si3 0.232141 0.947642 0.500000
Si Si4 0.697174 0.556497 0.636466
Si Si5 0.907362 0.866147 0.500000
Si Si6 0.591106 0.736368 0.362065
Si Si7 0.825724 0.154781 0.724940
O O1 0.101208 0.605333 0.199123
O O2 0.101327 0.706587 0.173008
O O3 0.233479 0.655848 0.177206
O O4 0.132710 0.649120 0.000000
O O5 0.106183 0.500000 0.779428
O O6 0.209692 0.445993 0.888818
O O7 0.206520 0.442482 0.669072
O O8 0.162607 0.907641 0.500000
O O9 0.189110 0.000000 0.500000
O O10 0.684461 0.563706 0.500000
O O11 0.669882 0.500000 0.666451
O O12 0.660729 0.601984 0.710382
O O13 0.886758 0.838215 0.382177
O O14 0.000000 0.883627 0.500000
O O15 0.598389 0.735635 0.500000
O O16 0.500000 0.719080 0.331580
O O17 0.657295 0.699805 0.309889
#
# Coordination Sequence:
#
# PCOD9517263 Si02
#       7
#    16  16   8  16   8  16  16
#     4  10  17  31  53  76  98 126 166 206 240 292
#     4   9  15  26  49  75 100 124 157 200 242 285
#     4  10  16  29  46  68  98 127 156 191 235 287
#     4   9  17  28  47  73  99 129 162 201 240 276
#     4  12  22  31  48  72 100 130 159 200 252 289
#     4  10  22  36  51  71  97 131 166 204 253 297
#     4  11  19  35  51  73  98 129 167 208 242 293
#
# _framework density 18.628992
#
# number of rings (size 3 to 8) (size 9 to 14) (size 15 to 20)
#    0.000    2.000    5.000    1.500    0.000    0.167 
#    0.000    0.000    1.833    2.000    0.000    8.167 
#    0.000    0.000    0.000   42.000    0.000    0.000 
#
# Total GULP energy -267276.899249 kJ/mol
# GULP energy per Si atom -5568.268734 kJ/mol
# Density = 1.858659 g / cm^3
# Si number density = 18.628992 Si / 1000 Ang^3
#
#
#
# Elastic Constant Matrix: (Units=GPa)
#
#
# Indices 1 2 3 4 5 6 
#
# 1 34.0213 3.9796 4.8507 0.0000 0.0000 0.0000
# 2 3.9796 120.5818 21.3178 0.0000 0.0000 0.0000
# 3 4.8507 21.3178 60.2761 0.0000 0.0000 0.0000
# 4 0.0000 0.0000 0.0000 24.9819 0.0000 0.0000
# 5 0.0000 0.0000 0.0000 0.0000 6.4113 0.0000
# 6 0.0000 0.0000 0.0000 0.0000 0.0000 3.1330
#
#
#
# Elastic Compliance Matrix: (Units=1/GPa)
#
#
# Indices 1 2 3 4 5 6 
#
# 1 0.029775 -0.000596 -0.002185 0.000000 0.000000 0.000000
# 2 -0.000596 0.008858 -0.003085 0.000000 0.000000 0.000000
# 3 -0.002185 -0.003085 0.017857 0.000000 0.000000 0.000000
# 4 0.000000 0.000000 0.000000 0.040029 0.000000 0.000000
# 5 0.000000 0.000000 0.000000 0.000000 0.155975 0.000000
# 6 0.000000 0.000000 0.000000 0.000000 0.000000 0.319179
#
#
# Mechanical properties :
#
#
# Convention : Reuss Voigt Hill
#
# Bulk Modulus (GPa) = 22.34276 30.57504 26.45890
# Shear Modulus (GPa) = 8.35667 19.22066 13.78866
#
# Velocity S-wave (km/s) = 2.12028 3.21559 2.72356
# Velocity P-wave (km/s) = 4.24425 5.49863 4.91165
#
# Compressibility (1/GPa) = 0.04475722
#
# Stress axis : x y z
#
# Youngs Moduli (GPa) = 33.58563 112.88999 55.99985
#
# Poissons Ratio (x) = 0.06732 0.12237
# Poissons Ratio (y) = 0.02003 0.17275
# Poissons Ratio (z) = 0.07339 0.34825
#
# Static dielectric constant tensor:
#      x y z
#    x 1.620680 0.000000 0.000000 
#    y 0.000000 1.716210 0.000000 
#    z 0.000000 0.000000 1.658870 
# 
# From -- ./inp_files/24278.got.cif
#   From: 2010.05.17/outbox.cif.g08.bks.cpg/sg71_13_cif.got.tgz:24278.got - 2010.06.03 16:22:01.
