data_PCOD9517288
_publ_section_title
;
Structure prediction by ZEFSAII (Michael W. Deem and Ramdas Pophale) SiO2 
 PCOD9517288
Probable space group: I M M M
;
_chemical_formula_sum "Si O2"
_cell_formula_units_Z 60
_cell_length_a 14.559853
_cell_length_b 25.774372
_cell_length_c 9.023998
_cell_angle_alpha 90.000000
_cell_angle_beta 90.000000
_cell_angle_gamma 90.000000
_cell_volume 3386.445362
_symmetry_space_group_name_H-M "I M M M"
_symmetry_group_IT_number 71
_symmetry_cell_setting 'orthorhombic'
loop_
_space_group_symop_operation_xyz
x,y,z
-x,-y,z
x,-y,-z
-x,y,-z
-x,-y,-z
x,y,-z
-x,y,z
x,-y,z
1/2+x,1/2+y,1/2+z
1/2-x,1/2-y,1/2+z
1/2+x,1/2-y,1/2-z
1/2-x,1/2+y,1/2-z
1/2-x,1/2-y,1/2-z
1/2+x,1/2+y,1/2-z
1/2-x,1/2+y,1/2+z
1/2+x,1/2-y,1/2+z
loop_
_atom_site_type_symbol
_atom_site_label
_atom_site_fract_x
_atom_site_fract_y
_atom_site_fract_z
Si Si1 0.192556 0.389221 0.320720
Si Si2 0.500000 0.000000 0.500000
Si Si3 0.000000 0.230374 0.174693
Si Si4 0.845184 0.500000 0.251422
Si Si5 0.307817 0.702768 0.820639
Si Si6 0.500000 0.143992 0.325262
Si Si7 0.000000 0.500000 0.500000
O O1 0.193596 0.384912 0.500000
O O2 0.212565 0.447521 0.267776
O O3 0.261095 0.348816 0.244226
O O4 0.090383 0.376114 0.258503
O O5 0.583065 0.000000 0.620520
O O6 0.910283 0.209921 0.258796
O O7 0.000000 0.293408 0.179011
O O8 0.000000 0.216013 0.000000
O O9 0.918785 0.500000 0.379906
O O10 0.250000 0.750000 0.750000
O O11 0.303987 0.704294 0.000000
O O12 0.500000 0.127097 0.500000
#
# Coordination Sequence:
#
# PCOD9517288 Si02
#       7
#    16   2   8   8  16   8   2
#     4  12  24  39  61  87 126 169 210 252 304 370
#     4  10  24  34  60  86 132 164 208 254 308 364
#     4  11  23  43  64  88 124 161 205 255 309 366
#     4  11  24  38  56  87 128 166 208 251 309 365
#     4  12  25  42  63  92 123 162 208 255 310 368
#     4  11  23  34  57  90 125 164 202 253 304 363
#     4  10  16  42  56  86 124 168 208 246 292 384
#
# _framework density 17.717692
#
# number of rings (size 3 to 8) (size 9 to 14) (size 15 to 20)
#    0.000    0.533    4.000    5.600    5.600    1.067 
#    0.000    0.000    0.000    0.800    0.000    4.667 
#    0.000    0.000    0.000    0.000    0.000    0.000 
#
# Total GULP energy -167064.239243 kJ/mol
# GULP energy per Si atom -5568.807975 kJ/mol
# Density = 1.767737 g / cm^3
# Si number density = 17.717692 Si / 1000 Ang^3
#
#
#
# Elastic Constant Matrix: (Units=GPa)
#
#
# Indices 1 2 3 4 5 6 
#
# 1 129.5274 65.2151 61.4544 0.0000 0.0000 0.0000
# 2 65.2151 152.0132 66.4042 0.0001 0.0000 -0.0002
# 3 61.4544 66.4042 222.2953 0.0008 -0.0003 -0.0007
# 4 0.0000 0.0001 0.0008 39.4617 -0.0002 -0.0005
# 5 0.0000 0.0000 -0.0003 -0.0002 33.0603 -0.0001
# 6 0.0000 -0.0002 -0.0007 -0.0005 -0.0001 127.1161
#
#
#
# Elastic Compliance Matrix: (Units=1/GPa)
#
#
# Indices 1 2 3 4 5 6 
#
# 1 0.010425 -0.003696 -0.001778 0.000000 0.000000 0.000000
# 2 -0.003696 0.008876 -0.001630 0.000000 0.000000 0.000000
# 3 -0.001778 -0.001630 0.005477 0.000000 0.000000 0.000000
# 4 0.000000 0.000000 0.000000 0.025341 0.000000 0.000000
# 5 0.000000 0.000000 0.000000 0.000000 0.030248 0.000000
# 6 0.000000 0.000000 0.000000 0.000000 0.000000 0.007867
#
#
# Mechanical properties :
#
#
# Convention : Reuss Voigt Hill
#
# Bulk Modulus (GPa) = 94.60129 98.88706 96.74417
# Shear Modulus (GPa) = 47.18633 60.64510 53.91572
#
# Velocity S-wave (km/s) = 5.16625 5.85686 5.52236
# Velocity P-wave (km/s) = 9.43909 10.08320 9.76646
#
# Compressibility (1/GPa) = 0.01057068
#
# Stress axis : x y z
#
# Youngs Moduli (GPa) = 95.92692 112.66685 182.58583
#
# Poissons Ratio (x) = 0.41637 0.32463
# Poissons Ratio (y) = 0.35451 0.29756
# Poissons Ratio (z) = 0.17056 0.18361
#
# Static dielectric constant tensor:
#      x y z
#    x 1.560170 0.000000 0.000000 
#    y 0.000000 1.640530 0.000000 
#    z 0.000000 0.000000 1.598660 
# 
# From -- ./inp_files/3459.got.cif
#   From: 2010.05.17/outbox.cif.g08.bks.cpg/sg71_2_cif.got.tgz:3459.got - 2010.06.03 16:22:01.
