data_PCOD9517547
_publ_section_title
;
Structure prediction by ZEFSAII (Michael W. Deem and Ramdas Pophale) SiO2 
 PCOD9517547
Probable space group: I M M M
;
_chemical_formula_sum "Si O2"
_cell_formula_units_Z 128
_cell_length_a 7.383179
_cell_length_b 29.001098
_cell_length_c 29.491281
_cell_angle_alpha 90.000000
_cell_angle_beta 90.000000
_cell_angle_gamma 90.000000
_cell_volume 6314.681868
_symmetry_space_group_name_H-M "I M M M"
_symmetry_group_IT_number 71
_symmetry_cell_setting 'orthorhombic'
loop_
_space_group_symop_operation_xyz
x,y,z
-x,-y,z
x,-y,-z
-x,y,-z
-x,-y,-z
x,y,-z
-x,y,z
x,-y,z
1/2+x,1/2+y,1/2+z
1/2-x,1/2-y,1/2+z
1/2+x,1/2-y,1/2-z
1/2-x,1/2+y,1/2-z
1/2-x,1/2-y,1/2-z
1/2+x,1/2+y,1/2-z
1/2-x,1/2+y,1/2+z
1/2+x,1/2-y,1/2+z
loop_
_atom_site_type_symbol
_atom_site_label
_atom_site_fract_x
_atom_site_fract_y
_atom_site_fract_z
Si Si1 0.286182 0.136249 0.607688
Si Si2 0.779079 0.172408 0.949195
Si Si3 0.782218 0.883555 0.288237
Si Si4 0.279848 0.221330 0.448706
Si Si5 0.779061 0.138683 0.146847
Si Si6 0.279214 0.447529 0.709337
Si Si7 0.779220 0.549985 0.052537
Si Si8 0.716083 0.299285 0.727257
O O1 0.500000 0.138154 0.598094
O O2 0.267167 0.123547 0.659977
O O3 0.215802 0.185140 0.589065
O O4 0.210223 0.093653 0.579392
O O5 0.722373 0.225795 0.942668
O O6 0.719653 0.144028 0.905098
O O7 0.000000 0.171748 0.949367
O O8 0.722264 0.157779 0.000000
O O9 0.723725 0.927810 0.258835
O O10 0.716559 0.838705 0.261172
O O11 0.000000 0.883776 0.286518
O O12 0.230368 0.206187 0.500000
O O13 0.500000 0.222891 0.447458
O O14 0.723978 0.091723 0.172869
O O15 0.722242 0.183107 0.177532
O O16 0.000000 0.138296 0.146422
O O17 0.500000 0.448129 0.708399
O O18 0.218723 0.500000 0.701344
O O19 0.721787 0.500000 0.070605
O O20 0.000000 0.550450 0.054074
O O21 0.728859 0.552995 0.000000
O O22 0.500000 0.302622 0.724937
O O23 0.750000 0.250000 0.750000
#
# Coordination Sequence:
#
# PCOD9517547 Si02
#       8
#    16  16  16  16  16  16  16  16
#     4  10  18  26  42  64  82 106 144 183 212 250
#     4   8  13  21  34  55  84 111 131 162 212 255
#     4   9  19  32  41  59  88 113 138 173 216 254
#     4   8  14  23  35  55  81 107 138 174 208 245
#     4   8  14  24  39  60  83 106 136 175 213 247
#     4   8  14  27  45  58  72 105 149 178 199 245
#     4   8  14  25  40  58  81 107 136 177 228 268
#     4   9  18  30  44  61  85 114 143 175 209 246
#
# _framework density 20.270219999999998
#
# number of rings (size 3 to 8) (size 9 to 14) (size 15 to 20)
#    0.000    3.500    0.000    3.000    1.750    2.500 
#    0.000    0.000    0.000    1.875    0.000    3.500 
#    0.000    0.500    0.000    0.000    0.000    0.000 
#
# Total GULP energy -356553.117273 kJ/mol
# GULP energy per Si atom -5571.142457 kJ/mol
# Density = 2.022408 g / cm^3
# Si number density = 20.270220 Si / 1000 Ang^3
#
#
#
# Elastic Constant Matrix: (Units=GPa)
#
#
# Indices 1 2 3 4 5 6 
#
# 1 65.9976 -0.0762 -7.1168 0.0000 0.0000 0.0000
# 2 -0.0762 117.5480 69.4063 0.0000 0.0000 0.0000
# 3 -7.1168 69.4063 128.4560 0.0000 0.0000 0.0000
# 4 0.0000 0.0000 0.0000 19.2594 0.0000 0.0000
# 5 0.0000 0.0000 0.0000 0.0000 7.9969 0.0000
# 6 0.0000 0.0000 0.0000 0.0000 0.0000 -1.1429
#
#
#
# Elastic Compliance Matrix: (Units=1/GPa)
#
#
# Indices 1 2 3 4 5 6 
#
# 1 0.015284 -0.000720 0.001236 0.000000 0.000000 0.000000
# 2 -0.000720 0.012527 -0.006808 0.000000 0.000000 0.000000
# 3 0.001236 -0.006808 0.011532 0.000000 0.000000 0.000000
# 4 0.000000 0.000000 0.000000 0.051923 0.000000 0.000000
# 5 0.000000 0.000000 0.000000 0.000000 0.125048 0.000000
# 6 0.000000 0.000000 0.000000 0.000000 0.000000 -0.874991
#
#
# Mechanical properties :
#
#
# Convention : Reuss Voigt Hill
#
# Bulk Modulus (GPa) = 37.37135 48.49203 42.93169
# Shear Modulus (GPa) = -7.84716 21.87524 7.01404
#
# Velocity S-wave (km/s) = -1.96969 3.28865 1.86220
# Velocity P-wave (km/s) = 3.64742 6.19637 5.08423
#
# Compressibility (1/GPa) = 0.02675847
#
# Stress axis : x y z
#
# Youngs Moduli (GPa) = 65.42586 79.83042 86.71725
#
# Poissons Ratio (x) = 0.05745 -0.10715
# Poissons Ratio (y) = 0.04709 0.59038
# Poissons Ratio (z) = -0.08084 0.54349
#
# Static dielectric constant tensor:
#      x y z
#    x 1.823210 0.000000 0.000000 
#    y 0.000000 1.710750 0.000000 
#    z 0.000000 0.000000 1.722910 
# 
# From -- ./inp_files/59283.got.cif
#   From: 2010.05.17/outbox.cif.g08.bks.cpg/sg71_30_cif.got.tgz:59283.got - 2010.06.03 16:22:01.
