data_PCOD9517257
_publ_section_title
;
Structure prediction by ZEFSAII (Michael W. Deem and Ramdas Pophale) SiO2 
 PCOD9517257
Probable space group: I M M M
;
_chemical_formula_sum "Si O2"
_cell_formula_units_Z 72
_cell_length_a 18.466841
_cell_length_b 24.295647
_cell_length_c 7.948509
_cell_angle_alpha 90.000000
_cell_angle_beta 90.000000
_cell_angle_gamma 90.000000
_cell_volume 3566.208651
_symmetry_space_group_name_H-M "I M M M"
_symmetry_group_IT_number 71
_symmetry_cell_setting 'orthorhombic'
loop_
_space_group_symop_operation_xyz
x,y,z
-x,-y,z
x,-y,-z
-x,y,-z
-x,-y,-z
x,y,-z
-x,y,z
x,-y,z
1/2+x,1/2+y,1/2+z
1/2-x,1/2-y,1/2+z
1/2+x,1/2-y,1/2-z
1/2-x,1/2+y,1/2-z
1/2-x,1/2-y,1/2-z
1/2+x,1/2+y,1/2-z
1/2-x,1/2+y,1/2+z
1/2+x,1/2-y,1/2+z
loop_
_atom_site_type_symbol
_atom_site_label
_atom_site_fract_x
_atom_site_fract_y
_atom_site_fract_z
Si Si1 0.392906 0.500000 0.190271
Si Si2 0.580599 0.376124 0.202929
Si Si3 0.149446 0.609963 0.696199
Si Si4 0.500000 0.064542 0.207676
Si Si5 0.241566 0.500000 0.685767
Si Si6 0.772595 0.811613 0.798557
O O1 0.412262 0.560077 0.265388
O O2 0.306215 0.500000 0.185923
O O3 0.421649 0.500000 0.000000
O O4 0.500000 0.355884 0.254337
O O5 0.649370 0.337775 0.249067
O O6 0.581753 0.378843 0.000000
O O7 0.137911 0.626260 0.500000
O O8 0.070908 0.596829 0.767556
O O9 0.191436 0.552500 0.697404
O O10 0.206372 0.651971 0.773634
O O11 0.500000 0.000000 0.256935
O O12 0.500000 0.063759 0.000000
O O13 0.276660 0.500000 0.500000
O O14 0.750000 0.750000 0.750000
O O15 0.771600 0.815988 0.000000
#
# Coordination Sequence:
#
# PCOD9517257 Si02
#       6
#     8  16  16   8   8  16
#     4  10  19  32  55  87 118 148 180 225 288 351
#     4  10  21  38  60  87 117 149 188 234 286 347
#     4   9  17  29  50  78 109 142 178 224 276 332
#     4   9  14  24  46  80 114 136 162 211 272 329
#     4  10  16  28  51  81 111 142 182 228 277 336
#     4  11  23  40  59  80 110 150 196 241 285 335
#
# _framework density 20.189509999999999
#
# number of rings (size 3 to 8) (size 9 to 14) (size 15 to 20)
#    0.000    2.111    3.333    1.000    0.000    1.778 
#    2.000    0.000    0.000    2.000    0.000    4.667 
#    0.000    0.000    0.000    0.000    0.000    0.000 
#
# Total GULP energy -200521.073689 kJ/mol
# GULP energy per Si atom -5570.029825 kJ/mol
# Density = 2.014356 g / cm^3
# Si number density = 20.189510 Si / 1000 Ang^3
#
#
#
# Elastic Constant Matrix: (Units=GPa)
#
#
# Indices 1 2 3 4 5 6 
#
# 1 219.2848 86.0533 26.5936 0.0000 0.0000 0.0000
# 2 86.0533 144.5804 10.3551 0.0000 0.0000 0.0000
# 3 26.5936 10.3551 33.8313 0.0000 0.0000 0.0000
# 4 0.0000 0.0000 0.0000 9.2362 0.0000 0.0000
# 5 0.0000 0.0000 0.0000 0.0000 17.1307 0.0000
# 6 0.0000 0.0000 0.0000 0.0000 0.0000 0.0950
#
#
#
# Elastic Compliance Matrix: (Units=1/GPa)
#
#
# Indices 1 2 3 4 5 6 
#
# 1 0.006433 -0.003544 -0.003972 0.000000 0.000000 0.000000
# 2 -0.003544 0.009024 0.000024 0.000000 0.000000 0.000000
# 3 -0.003972 0.000024 0.032673 0.000000 0.000000 0.000000
# 4 0.000000 0.000000 0.000000 0.108269 0.000000 0.000000
# 5 0.000000 0.000000 0.000000 0.000000 0.058375 0.000000
# 6 0.000000 0.000000 0.000000 0.000000 0.000000 10.520782
#
#
# Mechanical properties :
#
#
# Convention : Reuss Voigt Hill
#
# Bulk Modulus (GPa) = 30.16954 71.52227 50.84591
# Shear Modulus (GPa) = 0.46462 23.60537 12.03499
#
# Velocity S-wave (km/s) = 0.48024 3.42305 2.44417
# Velocity P-wave (km/s) = 3.90936 7.15020 5.76231
#
# Compressibility (1/GPa) = 0.03314601
#
# Stress axis : x y z
#
# Youngs Moduli (GPa) = 155.45238 110.81057 30.60609
#
# Poissons Ratio (x) = 0.39275 0.12156
# Poissons Ratio (y) = 0.55097 -0.00073
# Poissons Ratio (z) = 0.61742 -0.00264
#
# Static dielectric constant tensor:
#      x y z
#    x 1.733120 0.000000 0.000000 
#    y 0.000000 1.763940 0.000000 
#    z 0.000000 0.000000 1.758050 
# 
# From -- ./inp_files/8015.got.cif
#   From: 2010.05.17/outbox.cif.g08.bks.cpg/sg71_5_cif.got.tgz:8015.got - 2010.06.03 16:22:01.
