data_PCOD9517437
_publ_section_title
;
Structure prediction by ZEFSAII (Michael W. Deem and Ramdas Pophale) SiO2 
 PCOD9517437
Probable space group: I M M M
;
_chemical_formula_sum "Si O2"
_cell_formula_units_Z 96
_cell_length_a 26.583817
_cell_length_b 7.412957
_cell_length_c 24.219343
_cell_angle_alpha 90.000000
_cell_angle_beta 90.000000
_cell_angle_gamma 90.000000
_cell_volume 4772.777376
_symmetry_space_group_name_H-M "I M M M"
_symmetry_group_IT_number 71
_symmetry_cell_setting 'orthorhombic'
loop_
_space_group_symop_operation_xyz
x,y,z
-x,-y,z
x,-y,-z
-x,y,-z
-x,-y,-z
x,y,-z
-x,y,z
x,-y,z
1/2+x,1/2+y,1/2+z
1/2-x,1/2-y,1/2+z
1/2+x,1/2-y,1/2-z
1/2-x,1/2+y,1/2-z
1/2-x,1/2-y,1/2-z
1/2+x,1/2+y,1/2-z
1/2-x,1/2+y,1/2+z
1/2+x,1/2-y,1/2+z
loop_
_atom_site_type_symbol
_atom_site_label
_atom_site_fract_x
_atom_site_fract_y
_atom_site_fract_z
Si Si1 0.152078 0.702313 0.875421
Si Si2 0.556896 0.783775 0.812113
Si Si3 0.557833 0.779685 0.685521
Si Si4 0.842965 0.213674 0.358875
Si Si5 0.191780 0.785562 0.241985
Si Si6 0.751711 0.220806 0.563766
O O1 0.143606 0.500000 0.897735
O O2 0.097522 0.784717 0.860703
O O3 0.174179 0.693980 0.813615
O O4 0.198220 0.783102 0.910586
O O5 0.500000 0.721239 0.823542
O O6 0.569728 0.720658 0.748956
O O7 0.596922 0.736904 0.859838
O O8 0.555675 0.000000 0.808889
O O9 0.500000 0.730341 0.674635
O O10 0.560638 0.000000 0.685371
O O11 0.831835 0.287875 0.298050
O O12 0.801296 0.281553 0.402090
O O13 0.833860 0.000000 0.356772
O O14 0.250000 0.750000 0.250000
O O15 0.182565 0.000000 0.236443
O O16 0.755793 0.271987 0.500000
O O17 0.750710 0.000000 0.566554
#
# Coordination Sequence:
#
# PCOD9517437 Si02
#       6
#    16  16  16  16  16  16
#     4  10  17  29  49  69  93 126 159 190 232 279
#     4   9  17  29  46  69  97 127 153 180 226 285
#     4   8  14  24  41  67  96 124 152 180 218 275
#     4  10  19  30  46  69  95 122 155 193 234 278
#     4  11  20  29  43  69  99 123 152 188 234 287
#     4   9  18  32  48  67  91 122 162 202 238 278
#
# _framework density 20.114075
#
# number of rings (size 3 to 8) (size 9 to 14) (size 15 to 20)
#    0.000    2.500    3.333    1.500    0.000    1.000 
#    0.000    0.000    0.000    3.500    0.000    7.000 
#    0.000    0.000    0.000    1.500    0.000    1.667 
#
# Total GULP energy -267334.870553 kJ/mol
# GULP energy per Si atom -5569.476470 kJ/mol
# Density = 2.006829 g / cm^3
# Si number density = 20.114075 Si / 1000 Ang^3
#
#
#
# Elastic Constant Matrix: (Units=GPa)
#
#
# Indices 1 2 3 4 5 6 
#
# 1 172.1542 -5.9642 64.0374 0.0000 0.0000 0.0000
# 2 -5.9642 74.0209 2.5662 0.0000 0.0000 0.0000
# 3 64.0374 2.5662 92.7672 0.0000 0.0000 0.0000
# 4 0.0000 0.0000 0.0000 -0.5306 0.0000 0.0000
# 5 0.0000 0.0000 0.0000 0.0000 13.7002 0.0000
# 6 0.0000 0.0000 0.0000 0.0000 0.0000 1.9671
#
#
#
# Elastic Compliance Matrix: (Units=1/GPa)
#
#
# Indices 1 2 3 4 5 6 
#
# 1 0.007865 0.000823 -0.005452 0.000000 0.000000 0.000000
# 2 0.000823 0.013609 -0.000944 0.000000 0.000000 0.000000
# 3 -0.005452 -0.000944 0.014569 0.000000 0.000000 0.000000
# 4 0.000000 0.000000 0.000000 -1.884832 0.000000 0.000000
# 5 0.000000 0.000000 0.000000 0.000000 0.072992 0.000000
# 6 0.000000 0.000000 0.000000 0.000000 0.000000 0.508352
#
#
# Mechanical properties :
#
#
# Convention : Reuss Voigt Hill
#
# Bulk Modulus (GPa) = 40.16737 51.13567 45.65152
# Shear Modulus (GPa) = -4.00642 21.58088 8.78723
#
# Velocity S-wave (km/s) = -1.41286 3.27911 2.09241
# Velocity P-wave (km/s) = 4.16552 6.30989 5.34632
#
# Compressibility (1/GPa) = 0.02489583
#
# Stress axis : x y z
#
# Youngs Moduli (GPa) = 127.13984 73.48220 68.63664
#
# Poissons Ratio (x) = -0.06046 0.37422
# Poissons Ratio (y) = -0.10461 0.06482
# Poissons Ratio (z) = 0.69320 0.06940
#
# Static dielectric constant tensor:
#      x y z
#    x 1.884600 0.000000 0.000000 
#    y 0.000000 1.819010 0.000000 
#    z 0.000000 0.000000 1.674940 
# 
# From -- ./inp_files/10820.got.cif
#   From: 2010.05.17/outbox.cif.g08.bks.cpg/sg71_6_cif.got.tgz:10820.got - 2010.06.03 16:22:01.
