data_PCOD9517356
_publ_section_title
;
Structure prediction by ZEFSAII (Michael W. Deem and Ramdas Pophale) SiO2 
 PCOD9517356
Probable space group: I M M M
;
_chemical_formula_sum "Si O2"
_cell_formula_units_Z 112
_cell_length_a 7.315710
_cell_length_b 27.442755
_cell_length_c 26.837775
_cell_angle_alpha 90.000000
_cell_angle_beta 90.000000
_cell_angle_gamma 90.000000
_cell_volume 5388.038588
_symmetry_space_group_name_H-M "I M M M"
_symmetry_group_IT_number 71
_symmetry_cell_setting 'orthorhombic'
loop_
_space_group_symop_operation_xyz
x,y,z
-x,-y,z
x,-y,-z
-x,y,-z
-x,-y,-z
x,y,-z
-x,y,z
x,-y,z
1/2+x,1/2+y,1/2+z
1/2-x,1/2-y,1/2+z
1/2+x,1/2-y,1/2-z
1/2-x,1/2+y,1/2-z
1/2-x,1/2-y,1/2-z
1/2+x,1/2+y,1/2-z
1/2-x,1/2+y,1/2+z
1/2+x,1/2-y,1/2+z
loop_
_atom_site_type_symbol
_atom_site_label
_atom_site_fract_x
_atom_site_fract_y
_atom_site_fract_z
Si Si1 0.793073 0.752681 0.374767
Si Si2 0.791183 0.947763 0.419779
Si Si3 0.219685 0.575704 0.190174
Si Si4 0.722560 0.052934 0.802728
Si Si5 0.720840 0.339907 0.057289
Si Si6 0.280446 0.815842 0.715521
Si Si7 0.723714 0.840648 0.827351
O O1 0.709580 0.796350 0.407384
O O2 0.798111 0.773659 0.318443
O O3 0.713298 0.698596 0.368097
O O4 0.000000 0.746430 0.393532
O O5 0.793612 0.947543 0.359660
O O6 0.709744 0.895064 0.433535
O O7 0.000000 0.947254 0.438314
O O8 0.710271 0.000000 0.435722
O O9 0.277623 0.556901 0.244434
O O10 0.265053 0.632898 0.189430
O O11 0.000000 0.570392 0.188576
O O12 0.500000 0.053822 0.802715
O O13 0.780183 0.102745 0.829894
O O14 0.780055 0.000000 0.822238
O O15 0.500000 0.342549 0.065391
O O16 0.754614 0.327277 0.000000
O O17 0.500000 0.810754 0.715733
O O18 0.219889 0.821992 0.772359
O O19 0.500000 0.840032 0.827820
#
# Coordination Sequence:
#
# PCOD9517356 Si02
#       7
#    16  16  16  16  16  16  16
#     4  10  17  27  44  60  77 101 129 164 199 234
#     4  10  19  29  42  59  76  96 129 172 209 238
#     4   9  16  26  41  59  78 104 135 160 188 231
#     4   8  13  22  36  55  82 111 133 155 185 222
#     4   9  18  31  44  58  76 100 131 167 209 247
#     4   9  16  26  40  59  83 106 127 156 192 233
#     4   8  15  24  36  59  83 103 131 160 187 225
#
# _framework density 20.786784999999998
#
# number of rings (size 3 to 8) (size 9 to 14) (size 15 to 20)
#    0.000    3.000    1.429    2.571    0.000    1.143 
#    0.000    1.429    0.000    1.714    0.000    1.000 
#    0.000    0.571    0.000    8.000    0.000    0.000 
#
# Total GULP energy -312316.788406 kJ/mol
# GULP energy per Si atom -5577.085507 kJ/mol
# Density = 2.073947 g / cm^3
# Si number density = 20.786785 Si / 1000 Ang^3
#
#
#
# Elastic Constant Matrix: (Units=GPa)
#
#
# Indices 1 2 3 4 5 6 
#
# 1 80.4350 8.2816 2.7545 0.0000 0.0000 0.0000
# 2 8.2816 209.8039 67.7919 0.0000 0.0000 0.0000
# 3 2.7545 67.7919 48.7772 0.0000 0.0000 0.0000
# 4 0.0000 0.0000 0.0000 1.4019 0.0000 0.0000
# 5 0.0000 0.0000 0.0000 0.0000 3.3310 0.0000
# 6 0.0000 0.0000 0.0000 0.0000 0.0000 -4.7744
#
#
#
# Elastic Compliance Matrix: (Units=1/GPa)
#
#
# Indices 1 2 3 4 5 6 
#
# 1 0.012483 -0.000481 -0.000036 0.000000 0.000000 0.000000
# 2 -0.000481 0.008670 -0.012023 0.000000 0.000000 0.000000
# 3 -0.000036 -0.012023 0.037213 0.000000 0.000000 0.000000
# 4 0.000000 0.000000 0.000000 0.713300 0.000000 0.000000
# 5 0.000000 0.000000 0.000000 0.000000 0.300213 0.000000
# 6 0.000000 0.000000 0.000000 0.000000 0.000000 -0.209451
#
#
# Mechanical properties :
#
#
# Convention : Reuss Voigt Hill
#
# Bulk Modulus (GPa) = 30.04278 55.18577 42.61428
# Shear Modulus (GPa) = 5.56419 17.33758 11.45089
#
# Velocity S-wave (km/s) = 1.63786 2.89116 2.34962
# Velocity P-wave (km/s) = 4.24982 6.14420 5.28262
#
# Compressibility (1/GPa) = 0.03328587
#
# Stress axis : x y z
#
# Youngs Moduli (GPa) = 80.10787 115.33794 26.87220
#
# Poissons Ratio (x) = 0.05547 0.00098
# Poissons Ratio (y) = 0.03853 0.32308
# Poissons Ratio (z) = 0.00292 1.38669
#
# Static dielectric constant tensor:
#      x y z
#    x 1.786730 0.000000 0.000000 
#    y 0.000000 1.816550 0.000000 
#    z 0.000000 0.000000 1.696980 
# 
# From -- ./inp_files/64907.got.cif
#   From: 2010.05.17/outbox.cif.g08.bks.cpg/sg71_33_cif.got.tgz:64907.got - 2010.06.03 16:22:01.
