data_PCOD9517044
_publ_section_title
;
Structure prediction by ZEFSAII (Michael W. Deem and Ramdas Pophale) SiO2 
 PCOD9517044
Probable space group: F D D D
;
_chemical_formula_sum "Si O2"
_cell_formula_units_Z 96
_cell_length_a 12.658772
_cell_length_b 34.587575
_cell_length_c 10.639876
_cell_angle_alpha 90.000000
_cell_angle_beta 90.000000
_cell_angle_gamma 90.000000
_cell_volume 4658.523153
_symmetry_space_group_name_H-M "F D D D"
_symmetry_group_IT_number 70
_space_group.IT_coordinate_system_code '2'
_symmetry_cell_setting 'orthorhombic'
loop_
_space_group_symop_operation_xyz
x,y,z
1/4-x,1/4-y,z
x,1/4-y,1/4-z
1/4-x,y,1/4-z
-x,-y,-z
3/4+x,3/4+y,-z
-x,3/4+y,3/4+z
3/4+x,-y,3/4+z
x,1/2+y,1/2+z
1/4-x,3/4-y,1/2+z
x,3/4-y,3/4-z
1/4-x,1/2+y,3/4-z
-x,1/2-y,1/2-z
3/4+x,1/4+y,1/2-z
-x,1/4+y,1/4+z
3/4+x,1/2-y,1/4+z
1/2+x,y,1/2+z
3/4-x,1/4-y,1/2+z
1/2+x,1/4-y,3/4-z
3/4-x,y,3/4-z
1/2-x,-y,1/2-z
1/4+x,3/4+y,1/2-z
1/2-x,3/4+y,1/4+z
1/4+x,-y,1/4+z
1/2+x,1/2+y,z
3/4-x,3/4-y,z
1/2+x,3/4-y,1/4-z
3/4-x,1/2+y,1/4-z
1/2-x,1/2-y,-z
1/4+x,1/4+y,-z
1/2-x,1/4+y,3/4+z
1/4+x,1/2-y,3/4+z
loop_
_atom_site_type_symbol
_atom_site_label
_atom_site_fract_x
_atom_site_fract_y
_atom_site_fract_z
Si Si1 0.695137 0.021008 0.869347
Si Si2 0.027272 0.447259 0.214634
Si Si3 0.625000 0.332794 0.625000
Si Si4 0.447072 0.125000 0.625000
O O1 0.581899 0.040294 0.848964
O O2 0.776005 0.054949 0.901861
O O3 0.750000 0.000000 0.750000
O O4 0.685049 0.986214 0.966714
O O5 0.125000 0.435684 0.125000
O O6 0.999625 0.412753 0.312147
O O7 0.610530 0.357048 0.752843
#
# Coordination Sequence:
#
# PCOD9517044 Si02
#       4
#    32  32  16  16
#     4  12  23  45  75 101 135 188 242 283 340 424
#     4  12  25  45  72 105 143 185 231 295 352 414
#     4  12  26  46  72 105 140 182 234 289 348 418
#     4  12  26  47  69 108 146 182 233 287 358 414
#
# _framework density 20.607389000000001
#
# number of rings (size 3 to 8) (size 9 to 14) (size 15 to 20)
#    0.000    0.000    8.333    1.000    0.000    2.667 
#    0.000    1.667    0.000    0.000    0.000    0.000 
#    0.000    0.000    0.000    0.000    0.000    0.000 
#
# Total GULP energy -133939.502522 kJ/mol
# GULP energy per Si atom -5580.812605 kJ/mol
# Density = 2.056049 g / cm^3
# Si number density = 20.607389 Si / 1000 Ang^3
#
#
#
# Elastic Constant Matrix: (Units=GPa)
#
#
# Indices 1 2 3 4 5 6 
#
# 1 136.8812 61.0188 19.3695 0.0000 0.0000 0.0000
# 2 61.0188 166.7288 51.9291 0.0000 0.0000 0.0000
# 3 19.3695 51.9291 63.3385 0.0000 0.0000 0.0000
# 4 0.0000 0.0000 0.0000 65.0358 0.0000 0.0000
# 5 0.0000 0.0000 0.0000 0.0000 17.9369 0.0000
# 6 0.0000 0.0000 0.0000 0.0000 0.0000 6.4667
#
#
#
# Elastic Compliance Matrix: (Units=1/GPa)
#
#
# Indices 1 2 3 4 5 6 
#
# 1 0.008730 -0.003174 -0.000068 0.000000 0.000000 0.000000
# 2 -0.003174 0.009208 -0.006579 0.000000 0.000000 0.000000
# 3 -0.000068 -0.006579 0.021203 0.000000 0.000000 0.000000
# 4 0.000000 0.000000 0.000000 0.015376 0.000000 0.000000
# 5 0.000000 0.000000 0.000000 0.000000 0.055751 0.000000
# 6 0.000000 0.000000 0.000000 0.000000 0.000000 0.154639
#
#
# Mechanical properties :
#
#
# Convention : Reuss Voigt Hill
#
# Bulk Modulus (GPa) = 51.28149 70.17593 60.72871
# Shear Modulus (GPa) = 17.17923 33.52994 25.35459
#
# Velocity S-wave (km/s) = 2.89042 4.03809 3.51146
# Velocity P-wave (km/s) = 6.00653 7.47457 6.78040
#
# Compressibility (1/GPa) = 0.01950021
#
# Stress axis : x y z
#
# Youngs Moduli (GPa) = 114.54693 108.59552 47.16352
#
# Poissons Ratio (x) = 0.34468 0.00318
# Poissons Ratio (y) = 0.36357 0.31029
# Poissons Ratio (z) = 0.00773 0.71446
#
# Static dielectric constant tensor:
#      x y z
#    x 1.703610 0.000000 0.000000 
#    y 0.000000 1.764750 0.000000 
#    z 0.000000 0.000000 1.789330 
# 
# From -- ./inp_files/14918.got.cif
#   From: 2010.05.17/outbox.cif.g08.bks.cpg/sg70_8_cif.got.tgz:14918.got - 2010.06.03 15:57:51.
