data_PCOD9517305
_publ_section_title
;
Structure prediction by ZEFSAII (Michael W. Deem and Ramdas Pophale) SiO2 
 PCOD9517305
Probable space group: I M M M
;
_chemical_formula_sum "Si O2"
_cell_formula_units_Z 88
_cell_length_a 24.532447
_cell_length_b 7.331492
_cell_length_c 20.975921
_cell_angle_alpha 90.000000
_cell_angle_beta 90.000000
_cell_angle_gamma 90.000000
_cell_volume 3772.717382
_symmetry_space_group_name_H-M "I M M M"
_symmetry_group_IT_number 71
_symmetry_cell_setting 'orthorhombic'
loop_
_space_group_symop_operation_xyz
x,y,z
-x,-y,z
x,-y,-z
-x,y,-z
-x,-y,-z
x,y,-z
-x,y,z
x,-y,z
1/2+x,1/2+y,1/2+z
1/2-x,1/2-y,1/2+z
1/2+x,1/2-y,1/2-z
1/2-x,1/2+y,1/2-z
1/2-x,1/2-y,1/2-z
1/2+x,1/2+y,1/2-z
1/2-x,1/2+y,1/2+z
1/2+x,1/2-y,1/2+z
loop_
_atom_site_type_symbol
_atom_site_label
_atom_site_fract_x
_atom_site_fract_y
_atom_site_fract_z
Si Si1 0.436088 0.222253 0.000000
Si Si2 0.629755 0.706715 0.500000
Si Si3 0.350576 0.285812 0.634857
Si Si4 0.387485 0.776941 0.864689
Si Si5 0.771042 0.294499 0.358392
Si Si6 0.558962 0.780566 0.737907
Si Si7 0.742257 0.719994 0.000000
O O1 0.405999 0.282499 0.935033
O O2 0.500000 0.274676 0.000000
O O3 0.435069 0.000000 0.000000
O O4 0.607461 0.500000 0.500000
O O5 0.620448 0.789022 0.570330
O O6 0.695572 0.713587 0.500000
O O7 0.340881 0.500000 0.620668
O O8 0.289467 0.210853 0.648720
O O9 0.391278 0.272535 0.693026
O O10 0.328514 0.711771 0.837942
O O11 0.430571 0.725363 0.810713
O O12 0.384441 0.000000 0.866520
O O13 0.768016 0.500000 0.332076
O O14 0.781279 0.295039 0.434785
O O15 0.500000 0.715110 0.715117
O O16 0.558328 0.000000 0.737261
O O17 0.740077 0.500000 0.000000
#
# Coordination Sequence:
#
# PCOD9517305 Si02
#       7
#     8   8  16  16  16  16   8
#     4   9  15  24  44  75 104 131 171 216 247 282
#     4   8  16  33  54  75 100 130 166 206 243 289
#     4   9  18  33  54  77 100 130 168 208 252 305
#     4   9  17  30  50  73  99 135 174 211 252 296
#     4   9  17  31  50  72 100 135 174 211 249 297
#     4  10  21  36  52  73 103 135 167 209 262 313
#     4  10  17  25  43  74 109 137 160 195 248 304
#
# _framework density 23.325362999999999
#
# number of rings (size 3 to 8) (size 9 to 14) (size 15 to 20)
#    0.000    2.818    0.000    3.000    0.000    7.636 
#    0.000    1.364    0.000    2.727    0.000    0.000 
#    0.000    4.364    0.000    0.000    0.000    0.000 
#
# Total GULP energy -245270.559243 kJ/mol
# GULP energy per Si atom -5574.330892 kJ/mol
# Density = 2.327227 g / cm^3
# Si number density = 23.325363 Si / 1000 Ang^3
#
#
#
# Elastic Constant Matrix: (Units=GPa)
#
#
# Indices 1 2 3 4 5 6 
#
# 1 156.0286 1.1371 62.2264 0.0000 0.0000 0.0000
# 2 1.1371 104.6675 -2.6497 0.0000 0.0000 0.0000
# 3 62.2264 -2.6497 100.9917 0.0000 0.0000 0.0000
# 4 0.0000 0.0000 0.0000 2.4066 0.0000 0.0000
# 5 0.0000 0.0000 0.0000 0.0000 31.6371 0.0000
# 6 0.0000 0.0000 0.0000 0.0000 0.0000 -8.5278
#
#
#
# Elastic Compliance Matrix: (Units=1/GPa)
#
#
# Indices 1 2 3 4 5 6 
#
# 1 0.008502 -0.000225 -0.005245 0.000000 0.000000 0.000000
# 2 -0.000225 0.009566 0.000390 0.000000 0.000000 0.000000
# 3 -0.005245 0.000390 0.013144 0.000000 0.000000 0.000000
# 4 0.000000 0.000000 0.000000 0.415527 0.000000 0.000000
# 5 0.000000 0.000000 0.000000 0.000000 0.031609 0.000000
# 6 0.000000 0.000000 0.000000 0.000000 0.000000 -0.117264
#
#
# Mechanical properties :
#
#
# Convention : Reuss Voigt Hill
#
# Bulk Modulus (GPa) = 47.50119 53.67946 50.59032
# Shear Modulus (GPa) = 13.21838 25.16812 19.19325
#
# Velocity S-wave (km/s) = 2.38312 3.28838 2.87165
# Velocity P-wave (km/s) = 5.28972 6.12219 5.72112
#
# Compressibility (1/GPa) = 0.02105211
#
# Stress axis : x y z
#
# Youngs Moduli (GPa) = 117.61426 104.53281 76.08296
#
# Poissons Ratio (x) = 0.02353 0.39903
# Poissons Ratio (y) = 0.02648 -0.02965
# Poissons Ratio (z) = 0.61685 -0.04074
#
# Static dielectric constant tensor:
#      x y z
#    x 1.856770 0.000000 0.000000 
#    y 0.000000 2.041250 0.000000 
#    z 0.000000 0.000000 1.917080 
# 
# From -- ./inp_files/55616.got.cif
#   From: 2010.05.17/outbox.cif.g08.bks.cpg/sg71_28_cif.got.tgz:55616.got - 2010.06.03 16:22:01.
