data_PCOD9517239
_publ_section_title
;
Structure prediction by ZEFSAII (Michael W. Deem and Ramdas Pophale) SiO2 
 PCOD9517239
Probable space group: I M M M
;
_chemical_formula_sum "Si O2"
_cell_formula_units_Z 88
_cell_length_a 28.550385
_cell_length_b 7.522353
_cell_length_c 20.828559
_cell_angle_alpha 90.000000
_cell_angle_beta 90.000000
_cell_angle_gamma 90.000000
_cell_volume 4473.267849
_symmetry_space_group_name_H-M "I M M M"
_symmetry_group_IT_number 71
_symmetry_cell_setting 'orthorhombic'
loop_
_space_group_symop_operation_xyz
x,y,z
-x,-y,z
x,-y,-z
-x,y,-z
-x,-y,-z
x,y,-z
-x,y,z
x,-y,z
1/2+x,1/2+y,1/2+z
1/2-x,1/2-y,1/2+z
1/2+x,1/2-y,1/2-z
1/2-x,1/2+y,1/2-z
1/2-x,1/2-y,1/2-z
1/2+x,1/2+y,1/2-z
1/2-x,1/2+y,1/2+z
1/2+x,1/2-y,1/2+z
loop_
_atom_site_type_symbol
_atom_site_label
_atom_site_fract_x
_atom_site_fract_y
_atom_site_fract_z
Si Si1 0.703818 0.750387 0.000000
Si Si2 0.806081 0.298186 0.000000
Si Si3 0.400294 0.717408 0.000000
Si Si4 0.053234 0.783264 0.635476
Si Si5 0.825395 0.213663 0.139740
Si Si6 0.718209 0.786460 0.140486
Si Si7 0.132296 0.212364 0.267292
O O1 0.704630 0.689254 0.074374
O O2 0.758366 0.817015 0.000000
O O3 0.649910 0.811454 0.000000
O O4 0.833203 0.269623 0.066179
O O5 0.787993 0.500000 0.000000
O O6 0.428129 0.762694 0.064597
O O7 0.391935 0.500000 0.000000
O O8 0.089562 0.718984 0.689573
O O9 0.000000 0.723841 0.645154
O O10 0.053191 0.000000 0.637421
O O11 0.771587 0.263747 0.156623
O O12 0.859819 0.281077 0.195089
O O13 0.826964 0.000000 0.140492
O O14 0.680519 0.744587 0.194413
O O15 0.716650 0.000000 0.127900
O O16 0.125871 0.000000 0.262834
#
# Coordination Sequence:
#
# PCOD9517239 Si02
#       7
#     8   8   8  16  16  16  16
#     4  10  18  29  43  64  92 131 165 194 227 271
#     4  10  20  31  49  73  96 120 157 197 227 270
#     4  10  16  25  43  66  92 122 159 199 234 262
#     4   9  17  28  44  68  95 122 157 202 244 275
#     4   9  19  33  47  66  96 128 153 184 236 288
#     4  10  19  30  44  64  93 128 161 195 232 276
#     4  10  19  31  48  69  92 122 158 196 237 284
#
# _framework density 19.672419999999999
#
# number of rings (size 3 to 8) (size 9 to 14) (size 15 to 20)
#    0.000    2.364    1.818    1.636    0.000    6.909 
#    0.000    0.000    0.000    0.545    0.000    1.909 
#    0.000    5.091    0.000    0.000    0.000    0.000 
#
# Total GULP energy -245066.669877 kJ/mol
# GULP energy per Si atom -5569.697043 kJ/mol
# Density = 1.962764 g / cm^3
# Si number density = 19.672420 Si / 1000 Ang^3
#
#
#
# Elastic Constant Matrix: (Units=GPa)
#
#
# Indices 1 2 3 4 5 6 
#
# 1 105.3597 17.9584 91.5967 0.0000 0.0000 0.0000
# 2 17.9584 58.9668 9.1291 0.0000 0.0000 0.0000
# 3 91.5967 9.1291 199.8081 0.0000 0.0000 0.0000
# 4 0.0000 0.0000 0.0000 5.3979 0.0000 0.0000
# 5 0.0000 0.0000 0.0000 0.0000 22.8452 0.0000
# 6 0.0000 0.0000 0.0000 0.0000 0.0000 -1.8344
#
#
#
# Elastic Compliance Matrix: (Units=1/GPa)
#
#
# Indices 1 2 3 4 5 6 
#
# 1 0.016631 -0.003912 -0.007445 0.000000 0.000000 0.000000
# 2 -0.003912 0.018000 0.000971 0.000000 0.000000 0.000000
# 3 -0.007445 0.000971 0.008373 0.000000 0.000000 0.000000
# 4 0.000000 0.000000 0.000000 0.185258 0.000000 0.000000
# 5 0.000000 0.000000 0.000000 0.000000 0.043773 0.000000
# 6 0.000000 0.000000 0.000000 0.000000 0.000000 -0.545150
#
#
# Mechanical properties :
#
#
# Convention : Reuss Voigt Hill
#
# Bulk Modulus (GPa) = 44.98159 66.83368 55.90764
# Shear Modulus (GPa) = -20.41385 21.64510 0.61562
#
# Velocity S-wave (km/s) = -3.22481 3.32064 0.56001
# Velocity P-wave (km/s) = 3.00816 6.98207 5.37579
#
# Compressibility (1/GPa) = 0.02223132
#
# Stress axis : x y z
#
# Youngs Moduli (GPa) = 60.12953 55.55608 119.42472
#
# Poissons Ratio (x) = 0.21735 0.88914
# Poissons Ratio (y) = 0.23524 -0.11597
# Poissons Ratio (z) = 0.44768 -0.05395
#
# Static dielectric constant tensor:
#      x y z
#    x 1.650920 0.000000 0.000000 
#    y 0.000000 1.823610 0.000000 
#    z 0.000000 0.000000 1.708540 
# 
# From -- ./inp_files/12648.got.cif
#   From: 2010.05.17/outbox.cif.g08.bks.cpg/sg71_7_cif.got.tgz:12648.got - 2010.06.03 16:22:01.
