data_PCOD9517035
_publ_section_title
;
Structure prediction by ZEFSAII (Michael W. Deem and Ramdas Pophale) SiO2 
 PCOD9517035
Probable space group: F D D D
;
_chemical_formula_sum "Si O2"
_cell_formula_units_Z 160
_cell_length_a 10.052030
_cell_length_b 27.819327
_cell_length_c 28.593697
_cell_angle_alpha 90.000000
_cell_angle_beta 90.000000
_cell_angle_gamma 90.000000
_cell_volume 7995.961719
_symmetry_space_group_name_H-M "F D D D"
_symmetry_group_IT_number 70
_space_group.IT_coordinate_system_code '2'
_symmetry_cell_setting 'orthorhombic'
loop_
_space_group_symop_operation_xyz
x,y,z
1/4-x,1/4-y,z
x,1/4-y,1/4-z
1/4-x,y,1/4-z
-x,-y,-z
3/4+x,3/4+y,-z
-x,3/4+y,3/4+z
3/4+x,-y,3/4+z
x,1/2+y,1/2+z
1/4-x,3/4-y,1/2+z
x,3/4-y,3/4-z
1/4-x,1/2+y,3/4-z
-x,1/2-y,1/2-z
3/4+x,1/4+y,1/2-z
-x,1/4+y,1/4+z
3/4+x,1/2-y,1/4+z
1/2+x,y,1/2+z
3/4-x,1/4-y,1/2+z
1/2+x,1/4-y,3/4-z
3/4-x,y,3/4-z
1/2-x,-y,1/2-z
1/4+x,3/4+y,1/2-z
1/2-x,3/4+y,1/4+z
1/4+x,-y,1/4+z
1/2+x,1/2+y,z
3/4-x,3/4-y,z
1/2+x,3/4-y,1/4-z
3/4-x,1/2+y,1/4-z
1/2-x,1/2-y,-z
1/4+x,1/4+y,-z
1/2-x,1/4+y,3/4+z
1/4+x,1/2-y,3/4+z
loop_
_atom_site_type_symbol
_atom_site_label
_atom_site_fract_x
_atom_site_fract_y
_atom_site_fract_z
Si Si1 0.381652 0.024984 0.971718
Si Si2 0.881260 0.225394 0.480376
Si Si3 0.375000 0.468710 0.375000
Si Si4 0.285537 0.619190 0.241930
Si Si5 0.125000 0.001031 0.125000
Si Si6 0.894404 0.576990 0.645184
O O1 0.381022 0.001151 0.920929
O O2 0.417762 0.081303 0.968599
O O3 0.500000 0.000000 0.000000
O O4 0.250491 0.009448 0.000566
O O5 0.750000 0.250000 0.500000
O O6 0.906359 0.172107 0.500290
O O7 0.865960 0.222916 0.424038
O O8 0.244072 0.436324 0.379652
O O9 0.347277 0.592111 0.196911
O O10 0.125000 0.625000 0.238794
O O11 0.253694 0.034349 0.114801
O O12 0.957294 0.625000 0.625000
#
# Coordination Sequence:
#
# PCOD9517035 Si02
#       6
#    32  32  16  32  16  32
#     4  12  23  45  70 104 142 185 241 303 355 431
#     4  12  26  45  70 105 148 187 234 300 366 432
#     4  12  23  41  72 104 136 182 236 308 354 412
#     4  12  24  44  75 102 140 191 247 301 361 433
#     4  12  25  45  66  98 150 188 222 294 370 426
#     4  12  23  40  68 102 134 181 243 291 352 421
#
# _framework density 20.010100999999999
#
# number of rings (size 3 to 8) (size 9 to 14) (size 15 to 20)
#    0.000    0.000    6.000    5.400    0.000    1.600 
#    0.000    0.000    0.000    0.000    0.000    0.000 
#    0.000    0.000    0.000    0.000    0.000    0.000 
#
# Total GULP energy -223480.252254 kJ/mol
# GULP energy per Si atom -5587.006306 kJ/mol
# Density = 1.996456 g / cm^3
# Si number density = 20.010101 Si / 1000 Ang^3
#
#
#
# Elastic Constant Matrix: (Units=GPa)
#
#
# Indices 1 2 3 4 5 6 
#
# 1 151.4694 50.1121 29.7347 0.0000 0.0000 0.0000
# 2 50.1121 124.6232 19.3634 0.0000 0.0000 0.0000
# 3 29.7347 19.3634 128.5402 0.0000 0.0000 0.0000
# 4 0.0000 0.0000 0.0000 36.3868 0.0000 0.0000
# 5 0.0000 0.0000 0.0000 0.0000 21.4458 0.0000
# 6 0.0000 0.0000 0.0000 0.0000 0.0000 35.6497
#
#
#
# Elastic Compliance Matrix: (Units=1/GPa)
#
#
# Indices 1 2 3 4 5 6 
#
# 1 0.007844 -0.002941 -0.001372 0.000000 0.000000 0.000000
# 2 -0.002941 0.009319 -0.000723 0.000000 0.000000 0.000000
# 3 -0.001372 -0.000723 0.008206 0.000000 0.000000 0.000000
# 4 0.000000 0.000000 0.000000 0.027483 0.000000 0.000000
# 5 0.000000 0.000000 0.000000 0.000000 0.046629 0.000000
# 6 0.000000 0.000000 0.000000 0.000000 0.000000 0.028051
#
#
# Mechanical properties :
#
#
# Convention : Reuss Voigt Hill
#
# Bulk Modulus (GPa) = 65.37179 67.00590 66.18884
# Shear Modulus (GPa) = 35.03772 39.05795 37.04783
#
# Velocity S-wave (km/s) = 4.18904 4.42284 4.30752
# Velocity P-wave (km/s) = 7.49251 7.72274 7.60850
#
# Compressibility (1/GPa) = 0.01529712
#
# Stress axis : x y z
#
# Youngs Moduli (GPa) = 127.48124 107.30459 121.86318
#
# Poissons Ratio (x) = 0.31560 0.16714
# Poissons Ratio (y) = 0.37494 0.08817
# Poissons Ratio (z) = 0.17484 0.07763
#
# Static dielectric constant tensor:
#      x y z
#    x 1.666580 0.000000 0.000000 
#    y 0.000000 1.694470 0.000000 
#    z 0.000000 0.000000 1.767340 
# 
# From -- ./inp_files/63910.got.cif
#   From: 2010.05.17/outbox.cif.g08.bks.cpg/sg70_32_cif.got.tgz:63910.got - 2010.06.03 15:57:51.
