data_PCOD9517789
_publ_section_title
;
Structure prediction by ZEFSAII (Michael W. Deem and Ramdas Pophale) SiO2 
 PCOD9517789
Probable space group: I M M M
;
_chemical_formula_sum "Si O2"
_cell_formula_units_Z 88
_cell_length_a 13.298008
_cell_length_b 28.376067
_cell_length_c 15.818848
_cell_angle_alpha 90.000000
_cell_angle_beta 90.000000
_cell_angle_gamma 90.000000
_cell_volume 5969.165824
_symmetry_space_group_name_H-M "I M M M"
_symmetry_group_IT_number 71
_symmetry_cell_setting 'orthorhombic'
loop_
_space_group_symop_operation_xyz
x,y,z
-x,-y,z
x,-y,-z
-x,y,-z
-x,-y,-z
x,y,-z
-x,y,z
x,-y,z
1/2+x,1/2+y,1/2+z
1/2-x,1/2-y,1/2+z
1/2+x,1/2-y,1/2-z
1/2-x,1/2+y,1/2-z
1/2-x,1/2-y,1/2-z
1/2+x,1/2+y,1/2-z
1/2-x,1/2+y,1/2+z
1/2+x,1/2-y,1/2+z
loop_
_atom_site_type_symbol
_atom_site_label
_atom_site_fract_x
_atom_site_fract_y
_atom_site_fract_z
Si Si1 0.877683 0.500000 0.825627
Si Si2 0.312535 0.186118 0.000000
Si Si3 0.310314 0.197146 0.661996
Si Si4 0.621870 0.920735 0.000000
Si Si5 0.115039 0.754941 0.000000
Si Si6 0.115792 0.742165 0.335735
Si Si7 0.378209 0.000000 0.132663
Si Si8 0.379772 0.899804 0.599929
O O1 0.843147 0.500000 0.728652
O O2 0.847672 0.548164 0.871401
O O3 0.000000 0.500000 0.826087
O O4 0.362237 0.209148 0.916641
O O5 0.328710 0.130324 0.000000
O O6 0.196669 0.203246 0.000000
O O7 0.363804 0.223260 0.582960
O O8 0.195337 0.215073 0.660755
O O9 0.359334 0.214145 0.749579
O O10 0.324268 0.141824 0.648853
O O11 0.649902 0.953235 0.080429
O O12 0.500000 0.914850 0.000000
O O13 0.000000 0.770773 0.000000
O O14 0.000000 0.756944 0.336175
O O15 0.500000 0.000000 0.133494
O O16 0.363959 0.894182 0.500000
O O17 0.500000 0.895085 0.615789
#
# Coordination Sequence:
#
# PCOD9517789 Si02
#       8
#     8   8  16   8   8  16   8  16
#     4   9  18  28  42  65  88 114 148 186 230 274
#     4  10  21  30  46  71  94 125 158 186 230 273
#     4  10  20  31  49  70  91 126 162 183 228 282
#     4   9  16  28  42  60  90 121 149 181 219 269
#     4  10  18  33  49  67  95 123 154 194 227 270
#     4  10  20  33  46  68  98 124 155 196 226 264
#     4   8  16  28  42  60  85 119 151 180 221 273
#     4  10  18  29  45  65  91 119 149 188 230 276
#
# _framework density 14.742429
#
# number of rings (size 3 to 8) (size 9 to 14) (size 15 to 20)
#    0.000    2.364    0.909    3.273    2.545    1.091 
#    0.000    0.000    0.000    0.000    0.000    1.909 
#    0.000    2.909    0.000    0.000    0.000    0.000 
#
# Total GULP energy -245305.181517 kJ/mol
# GULP energy per Si atom -5575.117762 kJ/mol
# Density = 1.470887 g / cm^3
# Si number density = 14.742429 Si / 1000 Ang^3
#
#
#
# Elastic Constant Matrix: (Units=GPa)
#
#
# Indices 1 2 3 4 5 6 
#
# 1 81.3720 37.1087 30.5127 0.0000 0.0000 0.0000
# 2 37.1087 127.5935 44.6318 0.0000 0.0000 0.0000
# 3 30.5127 44.6318 99.2910 -0.0001 0.0000 0.0000
# 4 0.0000 0.0000 -0.0001 11.8828 0.0000 0.0000
# 5 0.0000 0.0000 0.0000 0.0000 4.4611 0.0000
# 6 0.0000 0.0000 0.0000 0.0000 0.0000 16.2373
#
#
#
# Elastic Compliance Matrix: (Units=1/GPa)
#
#
# Indices 1 2 3 4 5 6 
#
# 1 0.014946 -0.003252 -0.003132 0.000000 0.000000 0.000000
# 2 -0.003252 0.010007 -0.003499 0.000000 0.000000 0.000000
# 3 -0.003132 -0.003499 0.012607 0.000000 0.000000 0.000000
# 4 0.000000 0.000000 0.000000 0.084155 0.000000 0.000000
# 5 0.000000 0.000000 0.000000 0.000000 0.224160 0.000000
# 6 0.000000 0.000000 0.000000 0.000000 0.000000 0.061587
#
#
# Mechanical properties :
#
#
# Convention : Reuss Voigt Hill
#
# Bulk Modulus (GPa) = 56.19299 59.19588 57.69443
# Shear Modulus (GPa) = 11.54315 19.58313 15.56314
#
# Velocity S-wave (km/s) = 2.80123 3.64861 3.25263
# Velocity P-wave (km/s) = 6.97580 7.61514 7.30247
#
# Compressibility (1/GPa) = 0.01779582
#
# Stress axis : x y z
#
# Youngs Moduli (GPa) = 66.90617 99.93030 79.32388
#
# Poissons Ratio (x) = 0.32493 0.24840
# Poissons Ratio (y) = 0.21755 0.27755
# Poissons Ratio (z) = 0.20952 0.34965
#
# Static dielectric constant tensor:
#      x y z
#    x 1.469270 0.000000 0.000000 
#    y 0.000000 1.470590 0.000000 
#    z 0.000000 0.000000 1.502200 
# 
# From -- ./inp_files/33045.got.cif
#   From: 2010.05.17/outbox.cif.g08.bks.cpg/sg71_17_cif.got.tgz:33045.got - 2010.06.03 16:22:01.
