data_PCOD9517297
_publ_section_title
;
Structure prediction by ZEFSAII (Michael W. Deem and Ramdas Pophale) SiO2 
 PCOD9517297
Probable space group: I M M M
;
_chemical_formula_sum "Si O2"
_cell_formula_units_Z 104
_cell_length_a 22.518809
_cell_length_b 20.978034
_cell_length_c 18.666944
_cell_angle_alpha 90.000000
_cell_angle_beta 90.000000
_cell_angle_gamma 90.000000
_cell_volume 8818.270708
_symmetry_space_group_name_H-M "I M M M"
_symmetry_group_IT_number 71
_symmetry_cell_setting 'orthorhombic'
loop_
_space_group_symop_operation_xyz
x,y,z
-x,-y,z
x,-y,-z
-x,y,-z
-x,-y,-z
x,y,-z
-x,y,z
x,-y,z
1/2+x,1/2+y,1/2+z
1/2-x,1/2-y,1/2+z
1/2+x,1/2-y,1/2-z
1/2-x,1/2+y,1/2-z
1/2-x,1/2-y,1/2-z
1/2+x,1/2+y,1/2-z
1/2-x,1/2+y,1/2+z
1/2+x,1/2-y,1/2+z
loop_
_atom_site_type_symbol
_atom_site_label
_atom_site_fract_x
_atom_site_fract_y
_atom_site_fract_z
Si Si1 0.000000 0.577219 0.418705
Si Si2 0.068560 0.000000 0.912613
Si Si3 0.070074 0.749636 0.915169
Si Si4 0.231564 0.424025 0.415808
Si Si5 0.858952 0.124414 0.086856
Si Si6 0.428031 0.000000 0.418789
Si Si7 0.928687 0.622114 0.824720
Si Si8 0.613897 0.923226 0.175662
O O1 0.058993 0.594896 0.375615
O O2 0.000000 0.500000 0.422056
O O3 0.000000 0.601190 0.500000
O O4 0.102597 0.936373 0.888792
O O5 0.000000 0.000000 0.890538
O O6 0.069412 0.000000 0.000000
O O7 0.110306 0.809406 0.892701
O O8 0.081393 0.687722 0.866938
O O9 0.000000 0.766325 0.908786
O O10 0.080304 0.735864 0.000000
O O11 0.218428 0.410871 0.500000
O O12 0.244998 0.500000 0.411810
O O13 0.290435 0.386069 0.393120
O O14 0.175011 0.411200 0.366195
O O15 0.860034 0.122796 0.000000
O O16 0.411368 0.936707 0.375863
O O17 0.500000 0.000000 0.422003
O O18 0.405715 0.000000 0.500000
O O19 0.894660 0.613155 0.750215
O O20 0.000000 0.616786 0.810620
O O21 0.609709 0.000000 0.189198
#
# Coordination Sequence:
#
# PCOD9517297 Si02
#       8
#     8   8  16  16  16   8  16  16
#     4   9  16  24  36  54  74  94 120 157 194 225
#     4   9  14  20  35  56  74  91 118 153 183 211
#     4   9  17  27  39  55  76 100 126 154 189 224
#     4   9  16  26  39  55  75  99 125 150 183 224
#     4   9  15  25  38  54  75  98 123 152 182 217
#     4   9  16  24  37  52  68  92 125 162 193 220
#     4  10  17  26  38  53  74  97 125 159 195 226
#     4  10  17  25  38  54  74  97 124 157 193 224
#
# _framework density 11.793695
#
# number of rings (size 3 to 8) (size 9 to 14) (size 15 to 20)
#    0.000    2.692    2.308    1.385    0.000    5.538 
#    0.000    0.769    0.000    0.000    0.000    0.000 
#    0.000    0.000    0.000    0.000    0.000    0.000 
#
# Total GULP energy -289475.043815 kJ/mol
# GULP energy per Si atom -5566.827766 kJ/mol
# Density = 1.176685 g / cm^3
# Si number density = 11.793695 Si / 1000 Ang^3
#
#
#
# Elastic Constant Matrix: (Units=GPa)
#
#
# Indices 1 2 3 4 5 6 
#
# 1 84.9385 51.7782 44.0967 0.0000 0.0000 0.0000
# 2 51.7782 75.5462 40.2330 0.0000 0.0000 0.0000
# 3 44.0967 40.2330 73.1176 0.0000 0.0000 0.0000
# 4 0.0000 0.0000 0.0000 7.5645 0.0000 0.0000
# 5 0.0000 0.0000 0.0000 0.0000 7.8115 0.0000
# 6 0.0000 0.0000 0.0000 0.0000 0.0000 13.2984
#
#
#
# Elastic Compliance Matrix: (Units=1/GPa)
#
#
# Indices 1 2 3 4 5 6 
#
# 1 0.022640 -0.011663 -0.007236 0.000000 0.000000 0.000000
# 2 -0.011663 0.024732 -0.006575 0.000000 0.000000 0.000000
# 3 -0.007236 -0.006575 0.021659 0.000000 0.000000 0.000000
# 4 0.000000 0.000000 0.000000 0.132196 0.000000 0.000000
# 5 0.000000 0.000000 0.000000 0.000000 0.128016 0.000000
# 6 0.000000 0.000000 0.000000 0.000000 0.000000 0.075197
#
#
# Mechanical properties :
#
#
# Convention : Reuss Voigt Hill
#
# Bulk Modulus (GPa) = 55.30394 56.20203 55.75298
# Shear Modulus (GPa) = 10.83621 12.23452 11.53536
#
# Velocity S-wave (km/s) = 3.03448 3.22433 3.13084
# Velocity P-wave (km/s) = 7.69883 7.84981 7.77469
#
# Compressibility (1/GPa) = 0.01808189
#
# Stress axis : x y z
#
# Youngs Moduli (GPa) = 44.16981 40.43290 46.17108
#
# Poissons Ratio (x) = 0.47158 0.33410
# Poissons Ratio (y) = 0.51517 0.30357
# Poissons Ratio (z) = 0.31962 0.26584
#
# Static dielectric constant tensor:
#      x y z
#    x 1.379090 0.000000 0.000000 
#    y 0.000000 1.373100 0.000000 
#    z 0.000000 0.000000 1.369100 
# 
# From -- ./inp_files/39626.got.cif
#   From: 2010.05.17/outbox.cif.g08.bks.cpg/sg71_20_cif.got.tgz:39626.got - 2010.06.03 16:22:01.
