data_PCOD9517669
_publ_section_title
;
Structure prediction by ZEFSAII (Michael W. Deem and Ramdas Pophale) SiO2 
 PCOD9517669
Probable space group: I M M M
;
_chemical_formula_sum "Si O2"
_cell_formula_units_Z 96
_cell_length_a 23.364888
_cell_length_b 7.390291
_cell_length_c 21.167430
_cell_angle_alpha 90.000000
_cell_angle_beta 90.000000
_cell_angle_gamma 90.000000
_cell_volume 3655.050446
_symmetry_space_group_name_H-M "I M M M"
_symmetry_group_IT_number 71
_symmetry_cell_setting 'orthorhombic'
loop_
_space_group_symop_operation_xyz
x,y,z
-x,-y,z
x,-y,-z
-x,y,-z
-x,-y,-z
x,y,-z
-x,y,z
x,-y,z
1/2+x,1/2+y,1/2+z
1/2-x,1/2-y,1/2+z
1/2+x,1/2-y,1/2-z
1/2-x,1/2+y,1/2-z
1/2-x,1/2-y,1/2-z
1/2+x,1/2+y,1/2-z
1/2-x,1/2+y,1/2+z
1/2+x,1/2-y,1/2+z
loop_
_atom_site_type_symbol
_atom_site_label
_atom_site_fract_x
_atom_site_fract_y
_atom_site_fract_z
Si Si1 0.319781 0.701720 0.755578
Si Si2 0.062394 0.210679 0.087353
Si Si3 0.439655 0.783808 0.264299
Si Si4 0.190576 0.704648 0.393966
Si Si5 0.686139 0.722640 0.609380
Si Si6 0.564021 0.210434 0.923908
O O1 0.295368 0.500000 0.756348
O O2 0.387067 0.694108 0.768050
O O3 0.299289 0.801658 0.817935
O O4 0.316991 0.777154 0.684137
O O5 0.060128 0.222895 0.163187
O O6 0.126929 0.281725 0.075291
O O7 0.000000 0.287518 0.067138
O O8 0.062234 0.000000 0.069180
O O9 0.500000 0.735805 0.235666
O O10 0.433106 0.000000 0.263194
O O11 0.187430 0.500000 0.418982
O O12 0.251972 0.781295 0.416888
O O13 0.127589 0.785995 0.406654
O O14 0.684870 0.500000 0.609065
O O15 0.500000 0.282540 0.906702
O O16 0.564625 0.000000 0.900605
O O17 0.564138 0.208998 0.000000
#
# Coordination Sequence:
#
# PCOD9517669 Si02
#       6
#    16  16  16  16  16  16
#     4  10  19  29  39  54  82 116 144 170 206 253
#     4   8  13  23  38  53  73 103 135 165 198 235
#     4   9  16  25  37  53  73 100 138 178 208 235
#     4  10  18  28  44  63  82 105 137 176 213 255
#     4   8  15  26  39  58  83 111 142 173 204 241
#     4   8  15  29  48  68  87 106 133 177 232 275
#
# _framework density 26.265029999999999
#
# number of rings (size 3 to 8) (size 9 to 14) (size 15 to 20)
#    0.000    3.167    0.000    3.000    0.000    1.667 
#    0.000    5.000    0.000    0.500    0.000    1.167 
#    0.000    0.667    0.000    9.333    0.000    0.167 
#
# Total GULP energy -267354.117850 kJ/mol
# GULP energy per Si atom -5569.877455 kJ/mol
# Density = 2.620525 g / cm^3
# Si number density = 26.265030 Si / 1000 Ang^3
#
#
#
# Elastic Constant Matrix: (Units=GPa)
#
#
# Indices 1 2 3 4 5 6 
#
# 1 352.4772 19.8264 24.8312 0.0000 0.0000 0.0000
# 2 19.8264 86.7346 5.3720 0.0000 0.0000 0.0000
# 3 24.8312 5.3720 101.5132 0.0000 0.0000 0.0000
# 4 0.0000 0.0000 0.0000 14.3213 0.0000 0.0000
# 5 0.0000 0.0000 0.0000 0.0000 4.2608 0.0000
# 6 0.0000 0.0000 0.0000 0.0000 0.0000 -6.4159
#
#
#
# Elastic Compliance Matrix: (Units=1/GPa)
#
#
# Indices 1 2 3 4 5 6 
#
# 1 0.002920 -0.000625 -0.000681 0.000000 0.000000 0.000000
# 2 -0.000625 0.011701 -0.000466 0.000000 0.000000 0.000000
# 3 -0.000681 -0.000466 0.010042 0.000000 0.000000 0.000000
# 4 0.000000 0.000000 0.000000 0.069826 0.000000 0.000000
# 5 0.000000 0.000000 0.000000 0.000000 0.234696 0.000000
# 6 0.000000 0.000000 0.000000 0.000000 0.000000 -0.155862
#
#
# Mechanical properties :
#
#
# Convention : Reuss Voigt Hill
#
# Bulk Modulus (GPa) = 47.35276 71.19824 59.27550
# Shear Modulus (GPa) = 27.18746 35.14626 31.16686
#
# Velocity S-wave (km/s) = 3.22082 3.66203 3.44849
# Velocity P-wave (km/s) = 5.64797 6.71171 6.20268
#
# Compressibility (1/GPa) = 0.02111809
#
# Stress axis : x y z
#
# Youngs Moduli (GPa) = 342.43898 85.46096 99.57931
#
# Poissons Ratio (x) = 0.05344 0.06784
# Poissons Ratio (y) = 0.21414 0.04643
# Poissons Ratio (z) = 0.23328 0.03985
#
# Static dielectric constant tensor:
#      x y z
#    x 2.172150 0.000000 0.000000 
#    y 0.000000 2.124350 0.000000 
#    z 0.000000 0.000000 1.981750 
# 
# From -- ./inp_files/66730.got.cif
#   From: 2010.05.17/outbox.cif.g08.bks.cpg/sg71_34_cif.got.tgz:66730.got - 2010.06.03 16:22:01.
