data_PCOD9517676
_publ_section_title
;
Structure prediction by ZEFSAII (Michael W. Deem and Ramdas Pophale) SiO2 
 PCOD9517676
Probable space group: I M M M
;
_chemical_formula_sum "Si O2"
_cell_formula_units_Z 120
_cell_length_a 23.254535
_cell_length_b 21.969596
_cell_length_c 15.857415
_cell_angle_alpha 90.000000
_cell_angle_beta 90.000000
_cell_angle_gamma 90.000000
_cell_volume 8101.438185
_symmetry_space_group_name_H-M "I M M M"
_symmetry_group_IT_number 71
_symmetry_cell_setting 'orthorhombic'
loop_
_space_group_symop_operation_xyz
x,y,z
-x,-y,z
x,-y,-z
-x,y,-z
-x,-y,-z
x,y,-z
-x,y,z
x,-y,z
1/2+x,1/2+y,1/2+z
1/2-x,1/2-y,1/2+z
1/2+x,1/2-y,1/2-z
1/2-x,1/2+y,1/2-z
1/2-x,1/2-y,1/2-z
1/2+x,1/2+y,1/2-z
1/2-x,1/2+y,1/2+z
1/2+x,1/2-y,1/2+z
loop_
_atom_site_type_symbol
_atom_site_label
_atom_site_fract_x
_atom_site_fract_y
_atom_site_fract_z
Si Si1 0.000000 0.930415 0.100456
Si Si2 0.118725 0.069314 0.357782
Si Si3 0.276313 0.153045 0.254222
Si Si4 0.737178 0.572369 0.402200
Si Si5 0.248052 0.428385 0.093419
Si Si6 0.934067 0.807828 0.403014
Si Si7 0.380928 0.616867 0.332979
Si Si8 0.343399 0.273283 0.761984
O O1 0.942882 0.897502 0.131217
O O2 0.000000 0.000000 0.132902
O O3 0.000000 0.932388 0.000000
O O4 0.182867 0.077283 0.394771
O O5 0.076880 0.119674 0.395808
O O6 0.123738 0.083859 0.258194
O O7 0.100572 0.000000 0.371391
O O8 0.268575 0.114602 0.167660
O O9 0.282277 0.107348 0.331850
O O10 0.325578 0.203780 0.250809
O O11 0.216707 0.189777 0.272737
O O12 0.753652 0.583574 0.500000
O O13 0.744443 0.500000 0.384736
O O14 0.670065 0.589910 0.389725
O O15 0.235444 0.500000 0.099115
O O16 0.232952 0.406035 0.000000
O O17 0.925614 0.789185 0.500000
O O18 0.886424 0.780119 0.340709
O O19 0.000000 0.794339 0.378263
O O20 0.371910 0.688519 0.314333
#
# Coordination Sequence:
#
# PCOD9517676 Si02
#       8
#     8  16  16  16  16  16  16  16
#     4  11  22  32  46  68  91 123 166 203 237 275
#     4  10  18  28  44  65  91 125 162 199 238 277
#     4  10  18  33  48  67  93 124 160 200 237 284
#     4  10  18  29  47  69  94 122 153 193 238 281
#     4  10  18  29  49  73  97 124 151 190 244 291
#     4  10  20  32  45  64  92 127 164 203 239 273
#     4  10  19  32  45  61  92 124 161 198 235 271
#     4   9  20  32  47  64  88 125 165 200 236 273
#
# _framework density 14.812184999999999
#
# number of rings (size 3 to 8) (size 9 to 14) (size 15 to 20)
#    0.000    2.067    4.000    2.400    3.733    2.667 
#    0.000    6.667    0.000    0.000    0.000    0.000 
#    0.000    2.133    0.000    8.800    0.000    0.000 
#
# Total GULP energy -334358.277139 kJ/mol
# GULP energy per Si atom -5572.637952 kJ/mol
# Density = 1.477847 g / cm^3
# Si number density = 14.812185 Si / 1000 Ang^3
#
#
#
# Elastic Constant Matrix: (Units=GPa)
#
#
# Indices 1 2 3 4 5 6 
#
# 1 59.6138 45.7184 31.4666 0.0000 0.0000 0.0000
# 2 45.7184 86.9276 51.4213 0.0000 0.0000 0.0000
# 3 31.4666 51.4213 97.1141 0.0000 0.0000 0.0000
# 4 0.0000 0.0000 0.0000 6.8177 0.0000 0.0000
# 5 0.0000 0.0000 0.0000 0.0000 10.3211 0.0000
# 6 0.0000 0.0000 0.0000 0.0000 0.0000 88.2826
#
#
#
# Elastic Compliance Matrix: (Units=1/GPa)
#
#
# Indices 1 2 3 4 5 6 
#
# 1 0.028348 -0.013797 -0.001880 0.000000 0.000000 0.000000
# 2 -0.013797 0.023466 -0.007954 0.000000 0.000000 0.000000
# 3 -0.001880 -0.007954 0.015118 0.000000 0.000000 0.000000
# 4 0.000000 0.000000 0.000000 0.146677 0.000000 0.000000
# 5 0.000000 0.000000 0.000000 0.000000 0.096889 0.000000
# 6 0.000000 0.000000 0.000000 0.000000 0.000000 0.011327
#
#
# Mechanical properties :
#
#
# Convention : Reuss Voigt Hill
#
# Bulk Modulus (GPa) = 50.84133 55.65200 53.24667
# Shear Modulus (GPa) = 13.31045 28.75421 21.03233
#
# Velocity S-wave (km/s) = 3.00094 4.41075 3.77229
# Velocity P-wave (km/s) = 6.81220 7.97452 7.41616
#
# Compressibility (1/GPa) = 0.01966904
#
# Stress axis : x y z
#
# Youngs Moduli (GPa) = 35.27560 42.61526 66.14640
#
# Poissons Ratio (x) = 0.58798 0.12433
# Poissons Ratio (y) = 0.48671 0.52615
# Poissons Ratio (z) = 0.06630 0.33898
#
# Static dielectric constant tensor:
#      x y z
#    x 1.485010 0.000000 0.000000 
#    y 0.000000 1.496500 0.000000 
#    z 0.000000 0.000000 1.513110 
# 
# From -- ./inp_files/39632.got.cif
#   From: 2010.05.17/outbox.cif.g08.bks.cpg/sg71_20_cif.got.tgz:39632.got - 2010.06.03 16:22:01.
