data_PCOD9517964
_publ_section_title
;
Structure prediction by ZEFSAII (Michael W. Deem and Ramdas Pophale) SiO2 
 PCOD9517964
Probable space group: I M M M
;
_chemical_formula_sum "Si O2"
_cell_formula_units_Z 72
_cell_length_a 8.616623
_cell_length_b 29.293173
_cell_length_c 16.826564
_cell_angle_alpha 90.000000
_cell_angle_beta 90.000000
_cell_angle_gamma 90.000000
_cell_volume 4247.163206
_symmetry_space_group_name_H-M "I M M M"
_symmetry_group_IT_number 71
_symmetry_cell_setting 'orthorhombic'
loop_
_space_group_symop_operation_xyz
x,y,z
-x,-y,z
x,-y,-z
-x,y,-z
-x,-y,-z
x,y,-z
-x,y,z
x,-y,z
1/2+x,1/2+y,1/2+z
1/2-x,1/2-y,1/2+z
1/2+x,1/2-y,1/2-z
1/2-x,1/2+y,1/2-z
1/2-x,1/2-y,1/2-z
1/2+x,1/2+y,1/2-z
1/2-x,1/2+y,1/2+z
1/2+x,1/2-y,1/2+z
loop_
_atom_site_type_symbol
_atom_site_label
_atom_site_fract_x
_atom_site_fract_y
_atom_site_fract_z
Si Si1 0.684911 0.775913 0.828221
Si Si2 0.686792 0.448117 0.830084
Si Si3 0.175018 0.555400 0.000000
Si Si4 0.185301 0.694408 0.910737
Si Si5 0.685392 0.357202 0.242926
O O1 0.500000 0.772141 0.831278
O O2 0.750000 0.750000 0.750000
O O3 0.761333 0.746958 0.898726
O O4 0.735541 0.827837 0.812394
O O5 0.500000 0.449023 0.831392
O O6 0.742297 0.500000 0.815475
O O7 0.734461 0.409868 0.766727
O O8 0.742429 0.432972 0.917664
O O9 0.169633 0.500000 0.000000
O O10 0.000000 0.573579 0.000000
O O11 0.268255 0.665974 0.841381
O O12 0.000000 0.691367 0.899169
O O13 0.223331 0.678942 0.000000
O O14 0.500000 0.354262 0.251957
#
# Coordination Sequence:
#
# PCOD9517964 Si02
#       5
#    16  16   8  16  16
#     4  10  18  30  47  64  86 113 142 178 218 263
#     4   9  18  31  44  59  82 114 150 184 217 254
#     4   9  17  27  39  55  77 107 141 181 223 253
#     4  10  20  32  46  65  89 115 144 181 218 258
#     4  10  19  30  46  64  86 117 150 183 218 259
#
# _framework density 16.952491999999999
#
# number of rings (size 3 to 8) (size 9 to 14) (size 15 to 20)
#    0.000    2.333    0.000    6.333    1.556    4.889 
#    0.000    0.000    0.000    0.000    0.000    0.000 
#    0.000    0.889    0.000   10.222    0.000    2.889 
#
# Total GULP energy -200663.021441 kJ/mol
# GULP energy per Si atom -5573.972818 kJ/mol
# Density = 1.691391 g / cm^3
# Si number density = 16.952492 Si / 1000 Ang^3
#
#
#
# Elastic Constant Matrix: (Units=GPa)
#
#
# Indices 1 2 3 4 5 6 
#
# 1 38.6050 4.6353 -0.6594 0.0000 0.0000 0.0000
# 2 4.6353 87.9311 4.4769 0.0000 0.0000 0.0000
# 3 -0.6594 4.4769 13.4991 -0.0001 0.0000 0.0000
# 4 0.0000 0.0000 -0.0001 27.6855 0.0000 0.0000
# 5 0.0000 0.0000 0.0000 0.0000 15.3414 0.0000
# 6 0.0000 0.0000 0.0000 0.0000 0.0000 17.1455
#
#
#
# Elastic Compliance Matrix: (Units=1/GPa)
#
#
# Indices 1 2 3 4 5 6 
#
# 1 0.026110 -0.001466 0.001762 0.000000 0.000000 0.000000
# 2 -0.001466 0.011650 -0.003935 0.000000 0.000000 0.000000
# 3 0.001762 -0.003935 0.075470 0.000000 0.000000 0.000000
# 4 0.000000 0.000000 0.000000 0.036120 0.000000 0.000000
# 5 0.000000 0.000000 0.000000 0.000000 0.065183 0.000000
# 6 0.000000 0.000000 0.000000 0.000000 0.000000 0.058324
#
#
# Mechanical properties :
#
#
# Convention : Reuss Voigt Hill
#
# Bulk Modulus (GPa) = 9.43837 17.43786 13.43811
# Shear Modulus (GPa) = 15.85019 20.80665 18.32842
#
# Velocity S-wave (km/s) = 3.06106 3.50716 3.29167
# Velocity P-wave (km/s) = 4.25124 5.16806 4.73191
#
# Compressibility (1/GPa) = 0.10595050
#
# Stress axis : x y z
#
# Youngs Moduli (GPa) = 38.30021 85.83552 13.25024
#
# Poissons Ratio (x) = 0.12584 -0.02334
# Poissons Ratio (y) = 0.05615 0.05214
# Poissons Ratio (z) = -0.06747 0.33779
#
# Static dielectric constant tensor:
#      x y z
#    x 1.569740 0.000000 0.000000 
#    y 0.000000 1.671220 0.000000 
#    z 0.000000 0.000000 1.685220 
# 
# From -- ./inp_files/50698.got.cif
#   From: 2010.05.17/outbox.cif.g08.bks.cpg/sg71_26_cif.got.tgz:50698.got - 2010.06.03 16:22:01.
