data_PCOD9517823
_publ_section_title
;
Structure prediction by ZEFSAII (Michael W. Deem and Ramdas Pophale) SiO2 
 PCOD9517823
Probable space group: I M M M
;
_chemical_formula_sum "Si O2"
_cell_formula_units_Z 96
_cell_length_a 31.399490
_cell_length_b 20.496743
_cell_length_c 7.621857
_cell_angle_alpha 90.000000
_cell_angle_beta 90.000000
_cell_angle_gamma 90.000000
_cell_volume 4905.330191
_symmetry_space_group_name_H-M "I M M M"
_symmetry_group_IT_number 71
_symmetry_cell_setting 'orthorhombic'
loop_
_space_group_symop_operation_xyz
x,y,z
-x,-y,z
x,-y,-z
-x,y,-z
-x,-y,-z
x,y,-z
-x,y,z
x,-y,z
1/2+x,1/2+y,1/2+z
1/2-x,1/2-y,1/2+z
1/2+x,1/2-y,1/2-z
1/2-x,1/2+y,1/2-z
1/2-x,1/2-y,1/2-z
1/2+x,1/2+y,1/2-z
1/2-x,1/2+y,1/2+z
1/2+x,1/2-y,1/2+z
loop_
_atom_site_type_symbol
_atom_site_label
_atom_site_fract_x
_atom_site_fract_y
_atom_site_fract_z
Si Si1 0.736904 0.072819 0.785855
Si Si2 0.206796 0.289381 0.710981
Si Si3 0.835544 0.072064 0.788947
Si Si4 0.373759 0.291804 0.209184
Si Si5 0.048124 0.712780 0.292673
Si Si6 0.550082 0.930002 0.711148
O O1 0.711079 0.136049 0.725089
O O2 0.786389 0.082212 0.732248
O O3 0.723307 0.000000 0.729703
O O4 0.736243 0.072740 0.000000
O O5 0.203350 0.292344 0.500000
O O6 0.250000 0.250000 0.750000
O O7 0.166317 0.249554 0.780039
O O8 0.864451 0.132313 0.736028
O O9 0.849042 0.000000 0.727879
O O10 0.834642 0.071003 0.000000
O O11 0.418154 0.264159 0.280772
O O12 0.374603 0.280879 0.000000
O O13 0.043963 0.724583 0.500000
O O14 0.066844 0.639485 0.273220
O O15 0.000000 0.714705 0.217500
O O16 0.551678 0.929556 0.500000
O O17 0.500000 0.930065 0.762750
O O18 0.568340 0.000000 0.771448
#
# Coordination Sequence:
#
# PCOD9517823 Si02
#       6
#    16  16  16  16  16  16
#     4   8  14  26  44  64  88 120 153 181 214 264
#     4  10  18  29  46  68  94 120 149 186 228 274
#     4   9  17  30  49  71  92 119 156 189 225 282
#     4  10  20  31  46  72  98 121 155 196 235 276
#     4   9  18  32  47  65  94 129 162 196 234 277
#     4   8  14  26  45  68  91 116 152 197 239 277
#
# _framework density 19.570547000000001
#
# number of rings (size 3 to 8) (size 9 to 14) (size 15 to 20)
#    0.000    3.000    1.667    1.500    0.000    1.333 
#    0.000    2.500    0.000    4.000    0.000    3.500 
#    0.000    0.000    0.000    0.000    0.000    0.000 
#
# Total GULP energy -267473.034989 kJ/mol
# GULP energy per Si atom -5572.354896 kJ/mol
# Density = 1.952600 g / cm^3
# Si number density = 19.570547 Si / 1000 Ang^3
#
#
#
# Elastic Constant Matrix: (Units=GPa)
#
#
# Indices 1 2 3 4 5 6 
#
# 1 77.7711 75.7810 7.3216 0.0000 0.0000 0.0000
# 2 75.7810 184.1031 0.6506 0.0000 0.0000 0.0000
# 3 7.3216 0.6506 36.7103 0.0000 0.0000 0.0000
# 4 0.0000 0.0000 0.0000 20.8396 0.0000 0.0000
# 5 0.0000 0.0000 0.0000 0.0000 7.5874 0.0000
# 6 0.0000 0.0000 0.0000 0.0000 0.0000 28.4019
#
#
#
# Elastic Compliance Matrix: (Units=1/GPa)
#
#
# Indices 1 2 3 4 5 6 
#
# 1 0.022113 -0.009087 -0.004249 0.000000 0.000000 0.000000
# 2 -0.009087 0.009166 0.001650 0.000000 0.000000 0.000000
# 3 -0.004249 0.001650 0.028059 0.000000 0.000000 0.000000
# 4 0.000000 0.000000 0.000000 0.047986 0.000000 0.000000
# 5 0.000000 0.000000 0.000000 0.000000 0.131797 0.000000
# 6 0.000000 0.000000 0.000000 0.000000 0.000000 0.035209
#
#
# Mechanical properties :
#
#
# Convention : Reuss Voigt Hill
#
# Bulk Modulus (GPa) = 27.80483 51.78786 39.79634
# Shear Modulus (GPa) = 16.14516 25.68787 20.91651
#
# Velocity S-wave (km/s) = 2.87535 3.62688 3.27276
# Velocity P-wave (km/s) = 5.02612 6.63767 5.88729
#
# Compressibility (1/GPa) = 0.03596498
#
# Stress axis : x y z
#
# Youngs Moduli (GPa) = 45.22247 109.09422 35.63973
#
# Poissons Ratio (x) = 0.99136 0.15144
# Poissons Ratio (y) = 0.41094 -0.05880
# Poissons Ratio (z) = 0.19216 -0.18000
#
# Static dielectric constant tensor:
#      x y z
#    x 1.690830 0.000000 0.000000 
#    y 0.000000 1.714780 0.000000 
#    z 0.000000 0.000000 1.738950 
# 
# From -- ./inp_files/10844.got.cif
#   From: 2010.05.17/outbox.cif.g08.bks.cpg/sg71_6_cif.got.tgz:10844.got - 2010.06.03 16:22:01.
