data_PCOD9517807
_publ_section_title
;
Structure prediction by ZEFSAII (Michael W. Deem and Ramdas Pophale) SiO2 
 PCOD9517807
Probable space group: I M M M
;
_chemical_formula_sum "Si O2"
_cell_formula_units_Z 80
_cell_length_a 26.045681
_cell_length_b 21.467169
_cell_length_c 7.441569
_cell_angle_alpha 90.000000
_cell_angle_beta 90.000000
_cell_angle_gamma 90.000000
_cell_volume 4160.782416
_symmetry_space_group_name_H-M "I M M M"
_symmetry_group_IT_number 71
_symmetry_cell_setting 'orthorhombic'
loop_
_space_group_symop_operation_xyz
x,y,z
-x,-y,z
x,-y,-z
-x,y,-z
-x,-y,-z
x,y,-z
-x,y,z
x,-y,z
1/2+x,1/2+y,1/2+z
1/2-x,1/2-y,1/2+z
1/2+x,1/2-y,1/2-z
1/2-x,1/2+y,1/2-z
1/2-x,1/2-y,1/2-z
1/2+x,1/2+y,1/2-z
1/2-x,1/2+y,1/2+z
1/2+x,1/2-y,1/2+z
loop_
_atom_site_type_symbol
_atom_site_label
_atom_site_fract_x
_atom_site_fract_y
_atom_site_fract_z
Si Si1 0.776113 0.432522 0.713109
Si Si2 0.888522 0.756896 0.779711
Si Si3 0.500000 0.895626 0.290104
Si Si4 0.783141 0.811705 0.215175
Si Si5 0.388641 0.112374 0.716792
Si Si6 0.500000 0.256116 0.710536
O O1 0.766314 0.433599 0.500000
O O2 0.761188 0.500000 0.787433
O O3 0.745796 0.372711 0.786882
O O4 0.837119 0.423242 0.735167
O O5 0.840664 0.797898 0.718824
O O6 0.881542 0.684516 0.725787
O O7 0.945081 0.777023 0.716373
O O8 0.888982 0.756908 0.000000
O O9 0.500000 0.914557 0.500000
O O10 0.443842 0.913042 0.216045
O O11 0.500000 0.819694 0.282308
O O12 0.750000 0.750000 0.250000
O O13 0.786469 0.818100 0.000000
O O14 0.392336 0.113026 0.500000
O O15 0.500000 0.272674 0.500000
#
# Coordination Sequence:
#
# PCOD9517807 Si02
#       6
#    16  16   8  16  16   8
#     4  10  21  33  42  58  89 123 147 171 212 263
#     4   8  13  22  40  65  86 104 132 172 215 250
#     4   7  12  22  40  64  85 105 134 181 227 250
#     4  10  18  29  46  66  86 110 144 180 213 251
#     4   9  15  27  46  65  84 108 144 185 219 251
#     4   7  10  18  34  60  89 105 121 163 216 257
#
# _framework density 19.227153999999999
#
# number of rings (size 3 to 8) (size 9 to 14) (size 15 to 20)
#    0.000    3.200    2.000    2.400    0.000    0.400 
#    0.000    1.000    0.000    3.000    0.000    1.400 
#    0.000    5.600    0.000    0.000    0.000    4.900 
#
# Total GULP energy -222903.681421 kJ/mol
# GULP energy per Si atom -5572.592036 kJ/mol
# Density = 1.918339 g / cm^3
# Si number density = 19.227154 Si / 1000 Ang^3
#
#
#
# Elastic Constant Matrix: (Units=GPa)
#
#
# Indices 1 2 3 4 5 6 
#
# 1 161.8277 74.0244 1.6368 0.0000 0.0000 0.0000
# 2 74.0244 111.7538 4.8895 0.0000 0.0000 0.0000
# 3 1.6368 4.8895 59.2909 0.0000 0.0000 0.0000
# 4 0.0000 0.0000 0.0000 4.6337 0.0000 0.0000
# 5 0.0000 0.0000 0.0000 0.0000 8.7877 0.0000
# 6 0.0000 0.0000 0.0000 0.0000 0.0000 5.9010
#
#
#
# Elastic Compliance Matrix: (Units=1/GPa)
#
#
# Indices 1 2 3 4 5 6 
#
# 1 0.008869 -0.005885 0.000240 0.000000 0.000000 0.000000
# 2 -0.005885 0.012886 -0.000900 0.000000 0.000000 0.000000
# 3 0.000240 -0.000900 0.016934 0.000000 0.000000 0.000000
# 4 0.000000 0.000000 0.000000 0.215809 0.000000 0.000000
# 5 0.000000 0.000000 0.000000 0.000000 0.113796 0.000000
# 6 0.000000 0.000000 0.000000 0.000000 0.000000 0.169464
#
#
# Mechanical properties :
#
#
# Convention : Reuss Voigt Hill
#
# Bulk Modulus (GPa) = 39.06453 54.88598 46.97525
# Shear Modulus (GPa) = 8.93846 20.68593 14.81219
#
# Velocity S-wave (km/s) = 2.15846 3.28360 2.77858
# Velocity P-wave (km/s) = 5.15494 6.55623 5.89735
#
# Compressibility (1/GPa) = 0.02559867
#
# Stress axis : x y z
#
# Youngs Moduli (GPa) = 112.75144 77.60380 59.05424
#
# Poissons Ratio (x) = 0.45672 -0.01420
# Poissons Ratio (y) = 0.66357 0.05316
# Poissons Ratio (z) = -0.02712 0.06986
#
# Static dielectric constant tensor:
#      x y z
#    x 1.715970 0.000000 0.000000 
#    y 0.000000 1.663610 0.000000 
#    z 0.000000 0.000000 1.783750 
# 
# From -- ./inp_files/10728.got.cif
#   From: 2010.05.17/outbox.cif.g08.bks.cpg/sg71_6_cif.got.tgz:10728.got - 2010.06.03 16:22:01.
