data_PCOD9517337
_publ_section_title
;
Structure prediction by ZEFSAII (Michael W. Deem and Ramdas Pophale) SiO2 
 PCOD9517337
Probable space group: I M M M
;
_chemical_formula_sum "Si O2"
_cell_formula_units_Z 76
_cell_length_a 14.103756
_cell_length_b 20.051057
_cell_length_c 16.700726
_cell_angle_alpha 90.000000
_cell_angle_beta 90.000000
_cell_angle_gamma 90.000000
_cell_volume 4722.885408
_symmetry_space_group_name_H-M "I M M M"
_symmetry_group_IT_number 71
_symmetry_cell_setting 'orthorhombic'
loop_
_space_group_symop_operation_xyz
x,y,z
-x,-y,z
x,-y,-z
-x,y,-z
-x,-y,-z
x,y,-z
-x,y,z
x,-y,z
1/2+x,1/2+y,1/2+z
1/2-x,1/2-y,1/2+z
1/2+x,1/2-y,1/2-z
1/2-x,1/2+y,1/2-z
1/2-x,1/2-y,1/2-z
1/2+x,1/2+y,1/2-z
1/2-x,1/2+y,1/2+z
1/2+x,1/2-y,1/2+z
loop_
_atom_site_type_symbol
_atom_site_label
_atom_site_fract_x
_atom_site_fract_y
_atom_site_fract_z
Si Si1 0.226157 0.132236 0.096324
Si Si2 0.388752 0.238731 0.650090
Si Si3 0.110137 0.500000 0.187031
Si Si4 0.891399 0.000000 0.903004
Si Si5 0.611013 0.139873 0.500000
Si Si6 0.385990 0.868650 0.780513
Si Si7 0.845702 0.500000 0.000000
O O1 0.173043 0.197140 0.130300
O O2 0.328672 0.128695 0.137383
O O3 0.165845 0.066502 0.119211
O O4 0.230942 0.135958 0.000000
O O5 0.500000 0.257635 0.652719
O O6 0.378898 0.185668 0.577730
O O7 0.364766 0.198550 0.730663
O O8 0.147093 0.568022 0.226679
O O9 0.114403 0.500000 0.091157
O O10 0.000000 0.500000 0.207981
O O11 0.000000 0.000000 0.873523
O O12 0.895652 0.000000 0.000000
O O13 0.500000 0.114010 0.500000
O O14 0.684104 0.078307 0.500000
O O15 0.500000 0.871308 0.790669
#
# Coordination Sequence:
#
# PCOD9517337 Si02
#       7
#    16  16   8   8   8  16   4
#     4  11  21  34  52  71  97 134 173 212 249 295
#     4  10  19  32  51  75 102 128 159 208 261 304
#     4  10  18  29  47  70  97 126 158 195 240 298
#     4   9  19  34  52  74  95 121 163 212 257 293
#     4  10  17  26  46  77 103 122 152 192 247 310
#     4  10  21  34  48  71 103 137 168 202 246 298
#     4  12  17  26  50  76 100 128 153 186 247 314
#
# _framework density 16.091857999999998
#
# number of rings (size 3 to 8) (size 9 to 14) (size 15 to 20)
#    0.000    1.789    3.158    2.842    0.000    1.263 
#    0.000    0.000    0.000    3.789    0.000    0.000 
#    0.000    0.000    0.000    5.579    0.000    0.737 
#
# Total GULP energy -211549.340391 kJ/mol
# GULP energy per Si atom -5567.087905 kJ/mol
# Density = 1.605523 g / cm^3
# Si number density = 16.091858 Si / 1000 Ang^3
#
#
#
# Elastic Constant Matrix: (Units=GPa)
#
#
# Indices 1 2 3 4 5 6 
#
# 1 59.2593 47.0904 44.5129 0.0000 0.0000 0.0000
# 2 47.0904 119.7074 44.1895 0.0000 0.0000 0.0000
# 3 44.5129 44.1895 63.5362 0.0001 0.0000 0.0000
# 4 0.0000 0.0000 0.0001 9.0401 0.0000 0.0000
# 5 0.0000 0.0000 0.0000 0.0000 23.3157 0.0000
# 6 0.0000 0.0000 0.0000 0.0000 0.0000 14.6448
#
#
#
# Elastic Compliance Matrix: (Units=1/GPa)
#
#
# Indices 1 2 3 4 5 6 
#
# 1 0.039763 -0.007209 -0.022843 0.000000 0.000000 0.000000
# 2 -0.007209 0.012546 -0.003675 0.000000 0.000000 0.000000
# 3 -0.022843 -0.003675 0.034299 0.000000 0.000000 0.000000
# 4 0.000000 0.000000 0.000000 0.110618 0.000000 0.000000
# 5 0.000000 0.000000 0.000000 0.000000 0.042890 0.000000
# 6 0.000000 0.000000 0.000000 0.000000 0.000000 0.068284
#
#
# Mechanical properties :
#
#
# Convention : Reuss Voigt Hill
#
# Bulk Modulus (GPa) = 52.21284 57.12095 54.66689
# Shear Modulus (GPa) = 13.08080 16.51413 14.79747
#
# Velocity S-wave (km/s) = 2.85420 3.20698 3.03572
# Velocity P-wave (km/s) = 6.58629 7.02045 6.80683
#
# Compressibility (1/GPa) = 0.01915238
#
# Stress axis : x y z
#
# Youngs Moduli (GPa) = 25.14916 79.70413 29.15536
#
# Poissons Ratio (x) = 0.57461 0.66601
# Poissons Ratio (y) = 0.18131 0.10715
# Poissons Ratio (z) = 0.57449 0.29293
#
# Static dielectric constant tensor:
#      x y z
#    x 1.529380 0.000000 0.000000 
#    y 0.000000 1.563500 0.000000 
#    z 0.000000 0.000000 1.526540 
# 
# From -- ./inp_files/34344.got.cif
#   From: 2010.05.17/outbox.cif.g08.bks.cpg/sg71_18_cif.got.tgz:34344.got - 2010.06.03 16:22:01.
