data_PCOD9517359
_publ_section_title
;
Structure prediction by ZEFSAII (Michael W. Deem and Ramdas Pophale) SiO2 
 PCOD9517359
Probable space group: I M M M
;
_chemical_formula_sum "Si O2"
_cell_formula_units_Z 96
_cell_length_a 29.596326
_cell_length_b 23.695481
_cell_length_c 9.257410
_cell_angle_alpha 90.000000
_cell_angle_beta 90.000000
_cell_angle_gamma 90.000000
_cell_volume 6492.214046
_symmetry_space_group_name_H-M "I M M M"
_symmetry_group_IT_number 71
_symmetry_cell_setting 'orthorhombic'
loop_
_space_group_symop_operation_xyz
x,y,z
-x,-y,z
x,-y,-z
-x,y,-z
-x,-y,-z
x,y,-z
-x,y,z
x,-y,z
1/2+x,1/2+y,1/2+z
1/2-x,1/2-y,1/2+z
1/2+x,1/2-y,1/2-z
1/2-x,1/2+y,1/2-z
1/2-x,1/2-y,1/2-z
1/2+x,1/2+y,1/2-z
1/2-x,1/2+y,1/2+z
1/2+x,1/2-y,1/2+z
loop_
_atom_site_type_symbol
_atom_site_label
_atom_site_fract_x
_atom_site_fract_y
_atom_site_fract_z
Si Si1 0.090339 0.405310 0.830799
Si Si2 0.819788 0.229595 0.330634
Si Si3 0.000000 0.408526 0.334473
Si Si4 0.245506 0.338717 0.330985
Si Si5 0.308831 0.935229 0.671250
Si Si6 0.408873 0.231081 0.329970
Si Si7 0.500000 0.770952 0.832884
O O1 0.046295 0.425289 0.744714
O O2 0.138597 0.429513 0.783379
O O3 0.094466 0.337242 0.817179
O O4 0.083916 0.418662 0.000000
O O5 0.827024 0.217874 0.500000
O O6 0.790261 0.287081 0.320081
O O7 0.789735 0.181605 0.254886
O O8 0.866243 0.241010 0.247742
O O9 0.000000 0.426839 0.500000
O O10 0.000000 0.339689 0.331405
O O11 0.255305 0.347417 0.500000
O O12 0.222147 0.392642 0.259411
O O13 0.307418 0.920490 0.500000
O O14 0.294748 0.000000 0.687883
O O15 0.409884 0.244190 0.500000
O O16 0.455164 0.247588 0.250817
O O17 0.500000 0.753416 0.000000
#
# Coordination Sequence:
#
# PCOD9517359 Si02
#       7
#    16  16   8  16  16  16   8
#     4   9  17  29  44  61  82 110 145 184 227 273
#     4  10  19  30  47  68  91 117 146 183 227 271
#     4   9  17  27  42  60  79 106 142 186 230 270
#     4  10  20  32  47  67  90 115 146 185 228 272
#     4  10  20  34  50  66  86 115 150 188 230 276
#     4  10  17  27  44  65  89 117 150 186 224 268
#     4   9  17  27  39  60  90 119 149 180 220 271
#
# _framework density 14.786942
#
# number of rings (size 3 to 8) (size 9 to 14) (size 15 to 20)
#    0.000    2.333    1.667    2.000    0.000    5.000 
#    0.000    0.417    0.000    2.500    0.000    0.000 
#    0.000    0.000    0.000    0.750    0.000   13.833 
#
# Total GULP energy -267783.376550 kJ/mol
# GULP energy per Si atom -5578.820345 kJ/mol
# Density = 1.475329 g / cm^3
# Si number density = 14.786942 Si / 1000 Ang^3
#
#
#
# Elastic Constant Matrix: (Units=GPa)
#
#
# Indices 1 2 3 4 5 6 
#
# 1 105.8655 36.0363 77.3194 0.0000 0.0000 0.0000
# 2 36.0363 43.4801 43.8379 0.0000 0.0000 0.0000
# 3 77.3194 43.8379 122.6136 0.0000 0.0000 0.0000
# 4 0.0000 0.0000 0.0000 12.8322 0.0000 0.0000
# 5 0.0000 0.0000 0.0000 0.0000 31.0203 0.0000
# 6 0.0000 0.0000 0.0000 0.0000 0.0000 2.7330
#
#
#
# Elastic Compliance Matrix: (Units=1/GPa)
#
#
# Indices 1 2 3 4 5 6 
#
# 1 0.018323 -0.005530 -0.009577 0.000000 0.000000 0.000000
# 2 -0.005530 0.037631 -0.009967 0.000000 0.000000 0.000000
# 3 -0.009577 -0.009967 0.017759 0.000000 0.000000 0.000000
# 4 0.000000 0.000000 0.000000 0.077929 0.000000 0.000000
# 5 0.000000 0.000000 0.000000 0.000000 0.032237 0.000000
# 6 0.000000 0.000000 0.000000 0.000000 0.000000 0.365897
#
#
# Mechanical properties :
#
#
# Convention : Reuss Voigt Hill
#
# Bulk Modulus (GPa) = 42.43719 65.14963 53.79341
# Shear Modulus (GPa) = 8.22666 16.96813 12.59739
#
# Velocity S-wave (km/s) = 2.36126 3.39116 2.92195
# Velocity P-wave (km/s) = 6.01627 7.71284 6.91677
#
# Compressibility (1/GPa) = 0.02356424
#
# Stress axis : x y z
#
# Youngs Moduli (GPa) = 54.57542 26.57352 56.31065
#
# Poissons Ratio (x) = 0.14696 0.53931
# Poissons Ratio (y) = 0.30181 0.56125
# Poissons Ratio (z) = 0.52269 0.26486
#
# Static dielectric constant tensor:
#      x y z
#    x 1.473010 0.000000 0.000000 
#    y 0.000000 1.463680 0.000000 
#    z 0.000000 0.000000 1.493730 
# 
# From -- ./inp_files/13201.got.cif
#   From: 2010.05.17/outbox.cif.g08.bks.cpg/sg71_7_cif.got.tgz:13201.got - 2010.06.03 16:22:01.
