data_PCOD9517834
_publ_section_title
;
Structure prediction by ZEFSAII (Michael W. Deem and Ramdas Pophale) SiO2 
 PCOD9517834
Probable space group: I M M M
;
_chemical_formula_sum "Si O2"
_cell_formula_units_Z 120
_cell_length_a 11.809761
_cell_length_b 26.450301
_cell_length_c 22.886990
_cell_angle_alpha 90.000000
_cell_angle_beta 90.000000
_cell_angle_gamma 90.000000
_cell_volume 7149.248734
_symmetry_space_group_name_H-M "I M M M"
_symmetry_group_IT_number 71
_symmetry_cell_setting 'orthorhombic'
loop_
_space_group_symop_operation_xyz
x,y,z
-x,-y,z
x,-y,-z
-x,y,-z
-x,-y,-z
x,y,-z
-x,y,z
x,-y,z
1/2+x,1/2+y,1/2+z
1/2-x,1/2-y,1/2+z
1/2+x,1/2-y,1/2-z
1/2-x,1/2+y,1/2-z
1/2-x,1/2-y,1/2-z
1/2+x,1/2+y,1/2-z
1/2-x,1/2+y,1/2+z
1/2+x,1/2-y,1/2+z
loop_
_atom_site_type_symbol
_atom_site_label
_atom_site_fract_x
_atom_site_fract_y
_atom_site_fract_z
Si Si1 0.865130 0.941627 0.218232
Si Si2 0.862476 0.942016 0.563474
Si Si3 0.788846 0.723299 0.163286
Si Si4 0.790325 0.386073 0.368206
Si Si5 0.123642 0.304586 0.282647
Si Si6 0.135757 0.127043 0.330658
Si Si7 0.500000 0.059379 0.070009
Si Si8 0.133099 0.800989 0.930187
O O1 0.795221 0.925742 0.161401
O O2 0.838903 0.901121 0.269532
O O3 0.000000 0.938178 0.207627
O O4 0.841438 0.000000 0.235726
O O5 0.827537 0.921914 0.500000
O O6 0.825462 0.910024 0.618019
O O7 0.000000 0.942293 0.564443
O O8 0.826231 0.000000 0.568236
O O9 0.870870 0.699680 0.212581
O O10 0.723164 0.769565 0.193496
O O11 0.696302 0.679593 0.156608
O O12 0.841828 0.749038 0.105835
O O13 0.852368 0.357514 0.314140
O O14 0.716155 0.344736 0.404556
O O15 0.887754 0.412907 0.405689
O O16 0.000000 0.286202 0.301769
O O17 0.000000 0.133418 0.332566
O O18 0.500000 0.000000 0.087122
O O19 0.500000 0.062207 0.000000
O O20 0.000000 0.813994 0.920365
O O21 0.150712 0.795328 0.000000
#
# Coordination Sequence:
#
# PCOD9517834 Si02
#       8
#    16  16  16  16  16  16   8  16
#     4  10  20  33  52  80 112 144 180 227 277 321
#     4   8  14  25  41  61  90 133 177 210 248 307
#     4  10  20  32  51  76 104 135 173 221 265 317
#     4  11  20  37  59  80 105 142 179 221 262 321
#     4  10  19  33  51  75 101 133 172 212 263 316
#     4  10  18  29  46  73 109 142 173 215 271 324
#     4  11  24  40  60  86 116 148 179 217 266 322
#     4  10  22  39  58  79 105 140 183 228 272 320
#
# _framework density 16.784980000000001
#
# number of rings (size 3 to 8) (size 9 to 14) (size 15 to 20)
#    0.000    2.067    2.000    2.800    0.000    2.133 
#    0.000    0.000    0.000    0.000    0.000    5.600 
#    0.000    0.000    0.000    6.400    0.000    0.533 
#
# Total GULP energy -334035.064756 kJ/mol
# GULP energy per Si atom -5567.251079 kJ/mol
# Density = 1.674678 g / cm^3
# Si number density = 16.784980 Si / 1000 Ang^3
#
#
#
# Elastic Constant Matrix: (Units=GPa)
#
#
# Indices 1 2 3 4 5 6 
#
# 1 68.9035 31.9086 47.3244 0.0000 0.0000 0.0000
# 2 31.9086 82.0108 44.9739 0.0000 0.0000 0.0000
# 3 47.3244 44.9739 98.9001 0.0000 0.0000 0.0000
# 4 0.0000 0.0000 0.0000 24.9611 0.0000 0.0000
# 5 0.0000 0.0000 0.0000 0.0000 22.5343 0.0000
# 6 0.0000 0.0000 0.0000 0.0000 0.0000 38.8565
#
#
#
# Elastic Compliance Matrix: (Units=1/GPa)
#
#
# Indices 1 2 3 4 5 6 
#
# 1 0.022469 -0.003792 -0.009027 0.000000 0.000000 0.000000
# 2 -0.003792 0.016884 -0.005864 0.000000 0.000000 0.000000
# 3 -0.009027 -0.005864 0.017097 0.000000 0.000000 0.000000
# 4 0.000000 0.000000 0.000000 0.040062 0.000000 0.000000
# 5 0.000000 0.000000 0.000000 0.000000 0.044377 0.000000
# 6 0.000000 0.000000 0.000000 0.000000 0.000000 0.025736
#
#
# Mechanical properties :
#
#
# Convention : Reuss Voigt Hill
#
# Bulk Modulus (GPa) = 52.39628 55.35868 53.87748
# Shear Modulus (GPa) = 23.76958 25.64422 24.70690
#
# Velocity S-wave (km/s) = 3.76722 3.91296 3.84078
# Velocity P-wave (km/s) = 7.08566 7.31216 7.19980
#
# Compressibility (1/GPa) = 0.01908532
#
# Stress axis : x y z
#
# Youngs Moduli (GPa) = 44.50547 59.22639 58.48874
#
# Poissons Ratio (x) = 0.22457 0.52800
# Poissons Ratio (y) = 0.16875 0.34296
# Poissons Ratio (z) = 0.40177 0.34728
#
# Static dielectric constant tensor:
#      x y z
#    x 1.565190 0.000000 0.000000 
#    y 0.000000 1.575780 0.000000 
#    z 0.000000 0.000000 1.581770 
# 
# From -- ./inp_files/52256.got.cif
#   From: 2010.05.17/outbox.cif.g08.bks.cpg/sg71_27_cif.got.tgz:52256.got - 2010.06.03 16:22:01.
