data_PCOD9517584
_publ_section_title
;
Structure prediction by ZEFSAII (Michael W. Deem and Ramdas Pophale) SiO2 
 PCOD9517584
Probable space group: I M M M
;
_chemical_formula_sum "Si O2"
_cell_formula_units_Z 96
_cell_length_a 14.106009
_cell_length_b 25.654078
_cell_length_c 17.333115
_cell_angle_alpha 90.000000
_cell_angle_beta 90.000000
_cell_angle_gamma 90.000000
_cell_volume 6272.449680
_symmetry_space_group_name_H-M "I M M M"
_symmetry_group_IT_number 71
_symmetry_cell_setting 'orthorhombic'
loop_
_space_group_symop_operation_xyz
x,y,z
-x,-y,z
x,-y,-z
-x,y,-z
-x,-y,-z
x,y,-z
-x,y,z
x,-y,z
1/2+x,1/2+y,1/2+z
1/2-x,1/2-y,1/2+z
1/2+x,1/2-y,1/2-z
1/2-x,1/2+y,1/2-z
1/2-x,1/2-y,1/2-z
1/2+x,1/2+y,1/2-z
1/2-x,1/2+y,1/2+z
1/2+x,1/2-y,1/2+z
loop_
_atom_site_type_symbol
_atom_site_label
_atom_site_fract_x
_atom_site_fract_y
_atom_site_fract_z
Si Si1 0.386736 0.776821 0.087147
Si Si2 0.388518 0.343663 0.322659
Si Si3 0.697022 0.558509 0.407102
Si Si4 0.888946 0.266768 0.908227
Si Si5 0.892244 0.607497 0.406172
Si Si6 0.273759 0.702980 0.192259
O O1 0.500000 0.776157 0.084419
O O2 0.362980 0.834150 0.120343
O O3 0.349396 0.728627 0.134675
O O4 0.349155 0.774325 0.000000
O O5 0.500000 0.342383 0.302488
O O6 0.362916 0.395688 0.368789
O O7 0.371219 0.292243 0.376367
O O8 0.323090 0.339458 0.246417
O O9 0.689707 0.562765 0.500000
O O10 0.668737 0.500000 0.384855
O O11 0.807832 0.568615 0.386554
O O12 0.820409 0.304560 0.859036
O O13 0.000000 0.277978 0.894661
O O14 0.871516 0.268999 0.000000
O O15 0.896199 0.610313 0.500000
O O16 0.000000 0.595495 0.380596
O O17 0.250000 0.750000 0.250000
#
# Coordination Sequence:
#
# PCOD9517584 Si02
#       6
#    16  16  16  16  16  16
#     4   9  16  26  42  63  86 114 147 178 209 252
#     4  10  20  32  44  61  88 120 152 186 226 266
#     4  10  20  32  46  63  82 111 156 200 229 255
#     4   9  17  29  46  67  91 120 150 178 212 260
#     4   8  14  25  41  61  85 111 138 173 217 258
#     4  10  18  27  41  61  88 119 146 176 213 260
#
# _framework density 15.305025000000001
#
# number of rings (size 3 to 8) (size 9 to 14) (size 15 to 20)
#    0.000    2.667    0.000    4.500    0.000    3.667 
#    0.000    3.333    0.000    0.000    0.000    0.000 
#    0.000    2.667    0.000   10.000    0.000    0.167 
#
# Total GULP energy -267295.105107 kJ/mol
# GULP energy per Si atom -5568.648023 kJ/mol
# Density = 1.527019 g / cm^3
# Si number density = 15.305025 Si / 1000 Ang^3
#
#
#
# Elastic Constant Matrix: (Units=GPa)
#
#
# Indices 1 2 3 4 5 6 
#
# 1 71.2768 21.7789 33.3123 0.0000 0.0000 0.0000
# 2 21.7789 48.8352 23.9097 0.0002 0.0000 0.0000
# 3 33.3123 23.9097 63.1469 0.0002 0.0000 0.0000
# 4 0.0000 0.0002 0.0002 18.9290 0.0000 0.0000
# 5 0.0000 0.0000 0.0000 0.0000 25.1485 0.0000
# 6 0.0000 0.0000 0.0000 0.0000 0.0000 13.6946
#
#
#
# Elastic Compliance Matrix: (Units=1/GPa)
#
#
# Indices 1 2 3 4 5 6 
#
# 1 0.019383 -0.004466 -0.008534 0.000000 0.000000 0.000000
# 2 -0.004466 0.026166 -0.007551 0.000000 0.000000 0.000000
# 3 -0.008534 -0.007551 0.023198 0.000000 0.000000 0.000000
# 4 0.000000 0.000000 0.000000 0.052829 0.000000 0.000000
# 5 0.000000 0.000000 0.000000 0.000000 0.039764 0.000000
# 6 0.000000 0.000000 0.000000 0.000000 0.000000 0.073022
#
#
# Mechanical properties :
#
#
# Convention : Reuss Voigt Hill
#
# Bulk Modulus (GPa) = 36.17530 37.91786 37.04658
# Shear Modulus (GPa) = 17.56368 18.50495 18.03431
#
# Velocity S-wave (km/s) = 3.39126 3.48095 3.43640
# Velocity P-wave (km/s) = 6.24674 6.40192 6.32481
#
# Compressibility (1/GPa) = 0.02764317
#
# Stress axis : x y z
#
# Youngs Moduli (GPa) = 51.59160 38.21779 43.10802
#
# Poissons Ratio (x) = 0.17067 0.36790
# Poissons Ratio (y) = 0.23040 0.32553
# Poissons Ratio (z) = 0.44030 0.28860
#
# Static dielectric constant tensor:
#      x y z
#    x 1.576010 0.000000 0.000000 
#    y 0.000000 1.491220 0.000000 
#    z 0.000000 0.000000 1.506530 
# 
# From -- ./inp_files/53311.got.cif
#   From: 2010.05.17/outbox.cif.g08.bks.cpg/sg71_27_cif.got.tgz:53311.got - 2010.06.03 16:22:01.
