data_PCOD9517448
_publ_section_title
;
Structure prediction by ZEFSAII (Michael W. Deem and Ramdas Pophale) SiO2 
 PCOD9517448
Probable space group: I M M M
;
_chemical_formula_sum "Si O2"
_cell_formula_units_Z 82
_cell_length_a 7.331751
_cell_length_b 21.485877
_cell_length_c 24.095483
_cell_angle_alpha 90.000000
_cell_angle_beta 90.000000
_cell_angle_gamma 90.000000
_cell_volume 3795.739755
_symmetry_space_group_name_H-M "I M M M"
_symmetry_group_IT_number 71
_symmetry_cell_setting 'orthorhombic'
loop_
_space_group_symop_operation_xyz
x,y,z
-x,-y,z
x,-y,-z
-x,y,-z
-x,-y,-z
x,y,-z
-x,y,z
x,-y,z
1/2+x,1/2+y,1/2+z
1/2-x,1/2-y,1/2+z
1/2+x,1/2-y,1/2-z
1/2-x,1/2+y,1/2-z
1/2-x,1/2-y,1/2-z
1/2+x,1/2+y,1/2-z
1/2-x,1/2+y,1/2+z
1/2+x,1/2-y,1/2+z
loop_
_atom_site_type_symbol
_atom_site_label
_atom_site_fract_x
_atom_site_fract_y
_atom_site_fract_z
Si Si1 0.500000 0.000000 0.000000
Si Si2 0.217524 0.757263 0.314992
Si Si3 0.797512 0.500000 0.619068
Si Si4 0.774760 0.366247 0.378348
Si Si5 0.211347 0.130095 0.387287
Si Si6 0.702849 0.845268 0.000000
Si Si7 0.223689 0.000000 0.434579
Si Si8 0.718553 0.796444 0.500000
O O1 0.658313 0.000000 0.051844
O O2 0.250000 0.750000 0.250000
O O3 0.285053 0.694622 0.345311
O O4 0.289138 0.821579 0.341899
O O5 0.000000 0.758508 0.324726
O O6 0.714629 0.565010 0.638705
O O7 0.000000 0.500000 0.644601
O O8 0.712439 0.361027 0.441817
O O9 0.000000 0.365495 0.378871
O O10 0.222924 0.167125 0.445269
O O11 0.000000 0.119724 0.372212
O O12 0.286062 0.062016 0.402401
O O13 0.500000 0.877064 0.000000
O O14 0.692068 0.770986 0.000000
O O15 0.278360 0.000000 0.500000
O O16 0.000000 0.000000 0.435690
O O17 0.500000 0.789544 0.500000
#
# Coordination Sequence:
#
# PCOD9517448 Si02
#       8
#     2  16   8  16  16   8   8   8
#     4   8  12  20  36  72 112 132 142 190 248 298
#     4  10  21  36  54  73  98 137 183 227 262 298
#     4   8  14  22  39  75 109 128 153 192 251 305
#     4   9  16  27  48  75 104 133 161 204 257 310
#     4  10  19  36  56  79 105 139 177 215 262 321
#     4  10  17  29  51  76 105 134 168 206 253 320
#     4   9  16  28  57  86 107 132 168 216 264 318
#     4  12  22  30  47  81 115 139 165 209 268 325
#
# _framework density 21.603166999999999
#
# number of rings (size 3 to 8) (size 9 to 14) (size 15 to 20)
#    0.293    2.049    2.927    1.463    1.366    0.780 
#    0.000    1.951    0.000    0.000    0.000    2.732 
#    0.000    0.000    0.000    0.000    0.000    0.000 
#
# Total GULP energy -228351.014026 kJ/mol
# GULP energy per Si atom -5569.536927 kJ/mol
# Density = 2.155400 g / cm^3
# Si number density = 21.603167 Si / 1000 Ang^3
#
#
#
# Elastic Constant Matrix: (Units=GPa)
#
#
# Indices 1 2 3 4 5 6 
#
# 1 88.0038 9.2651 -5.7024 0.0000 0.0000 0.0000
# 2 9.2651 215.3731 81.4949 0.0000 0.0000 0.0000
# 3 -5.7024 81.4949 119.9748 0.0000 0.0000 0.0000
# 4 0.0000 0.0000 0.0000 3.2972 0.0000 0.0000
# 5 0.0000 0.0000 0.0000 0.0000 -92.0261 0.0000
# 6 0.0000 0.0000 0.0000 0.0000 0.0000 -22.5386
#
#
#
# Elastic Compliance Matrix: (Units=1/GPa)
#
#
# Indices 1 2 3 4 5 6 
#
# 1 0.011540 -0.000948 0.001192 0.000000 0.000000 0.000000
# 2 -0.000948 0.006327 -0.004343 0.000000 0.000000 0.000000
# 3 0.001192 -0.004343 0.011342 0.000000 0.000000 0.000000
# 4 0.000000 0.000000 0.000000 0.303286 0.000000 0.000000
# 5 0.000000 0.000000 0.000000 0.000000 -0.010866 0.000000
# 6 0.000000 0.000000 0.000000 0.000000 0.000000 -0.044368
#
#
# Mechanical properties :
#
#
# Convention : Reuss Voigt Hill
#
# Bulk Modulus (GPa) = 47.59078 65.94077 56.76578
# Shear Modulus (GPa) = 17.09632 0.29945 8.69788
#
# Velocity S-wave (km/s) = 2.81620 0.37271 2.00872
# Velocity P-wave (km/s) = 5.71419 5.54753 5.63148
#
# Compressibility (1/GPa) = 0.02101247
#
# Stress axis : x y z
#
# Youngs Moduli (GPa) = 86.65402 158.04875 88.17011
#
# Poissons Ratio (x) = 0.14976 -0.10511
# Poissons Ratio (y) = 0.08211 0.38291
# Poissons Ratio (z) = -0.10330 0.68638
#
# Static dielectric constant tensor:
#      x y z
#    x 1.857600 0.000000 0.000000 
#    y 0.000000 1.632310 0.000000 
#    z 0.000000 0.000000 1.742010 
# 
# From -- ./inp_files/50476.got.cif
#   From: 2010.05.17/outbox.cif.g08.bks.cpg/sg71_26_cif.got.tgz:50476.got - 2010.06.03 16:22:01.
