data_PCOD9517076
_publ_section_title
;
Structure prediction by ZEFSAII (Michael W. Deem and Ramdas Pophale) SiO2 
 PCOD9517076
Probable space group: F D D D
;
_chemical_formula_sum "Si O2"
_cell_formula_units_Z 120
_cell_length_a 15.671868
_cell_length_b 36.238591
_cell_length_c 10.250617
_cell_angle_alpha 90.000000
_cell_angle_beta 90.000000
_cell_angle_gamma 90.000000
_cell_volume 5821.596161
_symmetry_space_group_name_H-M "F D D D"
_symmetry_group_IT_number 70
_space_group.IT_coordinate_system_code '2'
_symmetry_cell_setting 'orthorhombic'
loop_
_space_group_symop_operation_xyz
x,y,z
1/4-x,1/4-y,z
x,1/4-y,1/4-z
1/4-x,y,1/4-z
-x,-y,-z
3/4+x,3/4+y,-z
-x,3/4+y,3/4+z
3/4+x,-y,3/4+z
x,1/2+y,1/2+z
1/4-x,3/4-y,1/2+z
x,3/4-y,3/4-z
1/4-x,1/2+y,3/4-z
-x,1/2-y,1/2-z
3/4+x,1/4+y,1/2-z
-x,1/4+y,1/4+z
3/4+x,1/2-y,1/4+z
1/2+x,y,1/2+z
3/4-x,1/4-y,1/2+z
1/2+x,1/4-y,3/4-z
3/4-x,y,3/4-z
1/2-x,-y,1/2-z
1/4+x,3/4+y,1/2-z
1/2-x,3/4+y,1/4+z
1/4+x,-y,1/4+z
1/2+x,1/2+y,z
3/4-x,3/4-y,z
1/2+x,3/4-y,1/4-z
3/4-x,1/2+y,1/4-z
1/2-x,1/2-y,-z
1/4+x,1/4+y,-z
1/2-x,1/4+y,3/4+z
1/4+x,1/2-y,3/4+z
loop_
_atom_site_type_symbol
_atom_site_label
_atom_site_fract_x
_atom_site_fract_y
_atom_site_fract_z
Si Si1 0.888613 0.205701 0.609977
Si Si2 0.750340 0.915238 0.179688
Si Si3 0.375000 0.875000 0.875000
Si Si4 0.793515 0.474472 0.469209
Si Si5 0.875000 0.648142 0.875000
O O1 0.930070 0.188674 0.739843
O O2 0.795522 0.222161 0.641584
O O3 0.947385 0.237700 0.549966
O O4 0.880379 0.173644 0.502269
O O5 0.817476 0.900749 0.284508
O O6 0.705547 0.879161 0.119861
O O7 0.791662 0.940643 0.070102
O O8 0.875000 0.472460 0.375000
#
# Coordination Sequence:
#
# PCOD9517076 Si02
#       5
#    32  32   8  32  16
#     4  12  26  49  73 104 149 191 242 304 371 437
#     4  12  27  47  74 105 145 196 246 300 370 440
#     4  12  28  44  72 108 142 188 244 310 356 442
#     4  12  28  46  74 109 144 191 244 305 366 439
#     4  12  24  50  73 102 146 197 239 304 374 429
#
# _framework density 20.612902999999999
#
# number of rings (size 3 to 8) (size 9 to 14) (size 15 to 20)
#    0.000    0.000    6.667    1.600    7.467    0.000 
#    0.000    0.000    0.000    0.000    0.000    0.000 
#    0.000    0.000    0.000    0.000    0.000    0.000 
#
# Total GULP energy -168050.436381 kJ/mol
# GULP energy per Si atom -5601.681213 kJ/mol
# Density = 2.056599 g / cm^3
# Si number density = 20.612903 Si / 1000 Ang^3
#
#
#
# Elastic Constant Matrix: (Units=GPa)
#
#
# Indices 1 2 3 4 5 6 
#
# 1 61.7971 23.1370 -3.7635 0.0000 0.0000 0.0000
# 2 23.1370 132.7995 36.7178 0.0000 0.0000 0.0000
# 3 -3.7635 36.7178 69.5425 0.0000 0.0000 0.0000
# 4 0.0000 0.0000 0.0000 54.8471 0.0000 0.0000
# 5 0.0000 0.0000 0.0000 0.0000 48.0979 0.0000
# 6 0.0000 0.0000 0.0000 0.0000 0.0000 98.8365
#
#
#
# Elastic Compliance Matrix: (Units=1/GPa)
#
#
# Indices 1 2 3 4 5 6 
#
# 1 0.017848 -0.003954 0.003054 0.000000 0.000000 0.000000
# 2 -0.003954 0.009693 -0.005332 0.000000 0.000000 0.000000
# 3 0.003054 -0.005332 0.017360 0.000000 0.000000 0.000000
# 4 0.000000 0.000000 0.000000 0.018233 0.000000 0.000000
# 5 0.000000 0.000000 0.000000 0.000000 0.020791 0.000000
# 6 0.000000 0.000000 0.000000 0.000000 0.000000 0.010118
#
#
# Mechanical properties :
#
#
# Convention : Reuss Voigt Hill
#
# Bulk Modulus (GPa) = 30.82884 41.81352 36.32118
# Shear Modulus (GPa) = 42.61855 54.22614 48.42235
#
# Velocity S-wave (km/s) = 4.55198 5.13459 4.85204
# Velocity P-wave (km/s) = 6.52809 7.44857 7.00347
#
# Compressibility (1/GPa) = 0.03243716
#
# Stress axis : x y z
#
# Youngs Moduli (GPa) = 56.02771 103.16469 57.60318
#
# Poissons Ratio (x) = 0.40790 -0.17589
# Poissons Ratio (y) = 0.22153 0.30714
# Poissons Ratio (z) = -0.17108 0.55007
#
# Static dielectric constant tensor:
#      x y z
#    x 1.734790 0.000000 0.000000 
#    y 0.000000 1.694140 0.000000 
#    z 0.000000 0.000000 1.720780 
# 
# From -- ./inp_files/16529.got.cif
#   From: 2010.05.17/outbox.cif.g08.bks.cpg/sg70_9_cif.got.tgz:16529.got - 2010.06.03 15:57:51.
