data_PCOD9517704
_publ_section_title
;
Structure prediction by ZEFSAII (Michael W. Deem and Ramdas Pophale) SiO2 
 PCOD9517704
Probable space group: I M M M
;
_chemical_formula_sum "Si O2"
_cell_formula_units_Z 80
_cell_length_a 19.926351
_cell_length_b 7.625131
_cell_length_c 27.030096
_cell_angle_alpha 90.000000
_cell_angle_beta 90.000000
_cell_angle_gamma 90.000000
_cell_volume 4106.980809
_symmetry_space_group_name_H-M "I M M M"
_symmetry_group_IT_number 71
_symmetry_cell_setting 'orthorhombic'
loop_
_space_group_symop_operation_xyz
x,y,z
-x,-y,z
x,-y,-z
-x,y,-z
-x,-y,-z
x,y,-z
-x,y,z
x,-y,z
1/2+x,1/2+y,1/2+z
1/2-x,1/2-y,1/2+z
1/2+x,1/2-y,1/2-z
1/2-x,1/2+y,1/2-z
1/2-x,1/2-y,1/2-z
1/2+x,1/2+y,1/2-z
1/2-x,1/2+y,1/2+z
1/2+x,1/2-y,1/2+z
loop_
_atom_site_type_symbol
_atom_site_label
_atom_site_fract_x
_atom_site_fract_y
_atom_site_fract_z
Si Si1 0.658167 0.801781 0.500000
Si Si2 0.076489 0.289316 0.803231
Si Si3 0.830195 0.715744 0.892619
Si Si4 0.324514 0.710840 0.107175
Si Si5 0.189885 0.296966 0.500000
Si Si6 0.423557 0.289566 0.808041
O O1 0.642491 0.723446 0.446269
O O2 0.739867 0.807788 0.500000
O O3 0.631151 0.000000 0.500000
O O4 0.074141 0.500000 0.807302
O O5 0.124804 0.226217 0.846756
O O6 0.100132 0.247552 0.747754
O O7 0.000000 0.222780 0.808137
O O8 0.830177 0.500000 0.894025
O O9 0.752640 0.771711 0.887107
O O10 0.322940 0.500000 0.110688
O O11 0.373719 0.777920 0.149758
O O12 0.346574 0.756669 0.051383
O O13 0.208822 0.500000 0.500000
O O14 0.500000 0.221781 0.812699
O O15 0.426575 0.500000 0.813257
#
# Coordination Sequence:
#
# PCOD9517704 Si02
#       6
#     8  16  16  16   8  16
#     4   8  14  28  47  63  87 122 151 177 214 258
#     4   9  17  29  44  63  90 120 146 178 222 264
#     4   8  14  26  45  66  86 114 150 180 212 258
#     4   9  17  31  49  65  86 117 148 179 215 257
#     4  10  18  28  45  70  95 114 139 178 220 262
#     4   9  18  32  48  65  85 113 150 185 217 258
#
# _framework density 19.479030000000002
#
# number of rings (size 3 to 8) (size 9 to 14) (size 15 to 20)
#    0.000    3.200    0.000    2.100    0.000    1.600 
#    0.000    5.000    0.000    6.000    0.000    0.000 
#    0.000   16.000    0.000    0.000    0.000    0.000 
#
# Total GULP energy -222858.470917 kJ/mol
# GULP energy per Si atom -5571.461773 kJ/mol
# Density = 1.943469 g / cm^3
# Si number density = 19.479030 Si / 1000 Ang^3
#
#
#
# Elastic Constant Matrix: (Units=GPa)
#
#
# Indices 1 2 3 4 5 6 
#
# 1 64.9484 3.8453 99.8507 0.0000 0.0000 0.0000
# 2 3.8453 42.9640 -2.7553 0.0000 0.0000 0.0000
# 3 99.8507 -2.7553 236.6903 0.0000 0.0000 0.0000
# 4 0.0000 0.0000 0.0000 18.4088 0.0000 0.0000
# 5 0.0000 0.0000 0.0000 0.0000 -32.2443 0.0000
# 6 0.0000 0.0000 0.0000 0.0000 0.0000 3.0503
#
#
#
# Elastic Compliance Matrix: (Units=1/GPa)
#
#
# Indices 1 2 3 4 5 6 
#
# 1 0.044962 -0.005244 -0.019029 0.000000 0.000000 0.000000
# 2 -0.005244 0.023904 0.002491 0.000000 0.000000 0.000000
# 3 -0.019029 0.002491 0.012281 0.000000 0.000000 0.000000
# 4 0.000000 0.000000 0.000000 0.054322 0.000000 0.000000
# 5 0.000000 0.000000 0.000000 0.000000 -0.031013 0.000000
# 6 0.000000 0.000000 0.000000 0.000000 0.000000 0.327835
#
#
# Mechanical properties :
#
#
# Convention : Reuss Voigt Hill
#
# Bulk Modulus (GPa) = 26.60797 60.72046 43.66422
# Shear Modulus (GPa) = 10.23785 14.08711 12.16248
#
# Velocity S-wave (km/s) = 2.29505 2.69214 2.50149
# Velocity P-wave (km/s) = 4.55109 6.39558 5.55049
#
# Compressibility (1/GPa) = 0.03758272
#
# Stress axis : x y z
#
# Youngs Moduli (GPa) = 22.24112 41.83325 81.42386
#
# Poissons Ratio (x) = 0.21939 1.54939
# Poissons Ratio (y) = 0.11664 -0.20280
# Poissons Ratio (z) = 0.42322 -0.10419
#
# Static dielectric constant tensor:
#      x y z
#    x 1.661150 0.000000 0.000000 
#    y 0.000000 1.736480 0.000000 
#    z 0.000000 0.000000 1.699110 
# 
# From -- ./inp_files/8431.got.cif
#   From: 2010.05.17/outbox.cif.g08.bks.cpg/sg71_5_cif.got.tgz:8431.got - 2010.06.03 16:22:01.
