data_PCOD9517376
_publ_section_title
;
Structure prediction by ZEFSAII (Michael W. Deem and Ramdas Pophale) SiO2 
 PCOD9517376
Probable space group: I M M M
;
_chemical_formula_sum "Si O2"
_cell_formula_units_Z 120
_cell_length_a 20.001695
_cell_length_b 19.582493
_cell_length_c 16.917446
_cell_angle_alpha 90.000000
_cell_angle_beta 90.000000
_cell_angle_gamma 90.000000
_cell_volume 6626.276887
_symmetry_space_group_name_H-M "I M M M"
_symmetry_group_IT_number 71
_symmetry_cell_setting 'orthorhombic'
loop_
_space_group_symop_operation_xyz
x,y,z
-x,-y,z
x,-y,-z
-x,y,-z
-x,-y,-z
x,y,-z
-x,y,z
x,-y,z
1/2+x,1/2+y,1/2+z
1/2-x,1/2-y,1/2+z
1/2+x,1/2-y,1/2-z
1/2-x,1/2+y,1/2-z
1/2-x,1/2-y,1/2-z
1/2+x,1/2+y,1/2-z
1/2-x,1/2+y,1/2+z
1/2+x,1/2-y,1/2+z
loop_
_atom_site_type_symbol
_atom_site_label
_atom_site_fract_x
_atom_site_fract_y
_atom_site_fract_z
Si Si1 0.824386 0.279043 0.596095
Si Si2 0.813327 0.080088 0.318470
Si Si3 0.288641 0.170650 0.595112
Si Si4 0.077146 0.263964 0.904314
Si Si5 0.211185 0.422399 0.591748
Si Si6 0.421820 0.500000 0.410902
Si Si7 0.150263 0.872698 0.849921
Si Si8 0.423414 0.340409 0.095361
O O1 0.824224 0.282801 0.500000
O O2 0.756150 0.237927 0.617424
O O3 0.827930 0.356764 0.626971
O O4 0.885351 0.229620 0.619031
O O5 0.748655 0.107935 0.364209
O O6 0.821794 0.123042 0.238334
O O7 0.878068 0.099041 0.370698
O O8 0.809469 0.000000 0.301579
O O9 0.283294 0.164658 0.500000
O O10 0.366311 0.179986 0.616193
O O11 0.110467 0.194942 0.871611
O O12 0.000000 0.273936 0.878953
O O13 0.076541 0.258612 0.000000
O O14 0.191726 0.428277 0.500000
O O15 0.207564 0.500000 0.625499
O O16 0.286768 0.393784 0.596013
O O17 0.500000 0.500000 0.419567
O O18 0.391968 0.500000 0.500000
O O19 0.400289 0.565691 0.363086
O O20 0.500000 0.342464 0.122148
O O21 0.422332 0.343359 0.000000
#
# Coordination Sequence:
#
# PCOD9517376 Si02
#       8
#    16  16  16  16  16   8  16  16
#     4   8  14  28  49  72  96 125 168 217 259 301
#     4  11  23  37  52  78 111 143 176 225 278 326
#     4   9  18  35  58  79 103 139 184 232 280 330
#     4  10  20  35  56  81 110 145 186 229 270 321
#     4  10  17  27  48  73 101 135 172 211 249 297
#     4  11  22  34  48  70 107 157 196 215 251 315
#     4  12  21  33  49  74 110 144 179 216 264 315
#     4   9  19  36  56  74  95 131 176 220 270 327
#
# _framework density 18.109718000000001
#
# number of rings (size 3 to 8) (size 9 to 14) (size 15 to 20)
#    0.000    2.067    2.667    2.800    0.000    4.000 
#    0.000    0.667    0.000    0.800    0.000    4.667 
#    0.000    2.133    0.000    0.133    0.000    0.267 
#
# Total GULP energy -334277.375621 kJ/mol
# GULP energy per Si atom -5571.289594 kJ/mol
# Density = 1.806850 g / cm^3
# Si number density = 18.109718 Si / 1000 Ang^3
#
#
#
# Elastic Constant Matrix: (Units=GPa)
#
#
# Indices 1 2 3 4 5 6 
#
# 1 104.4987 30.0114 19.2832 0.0000 0.0000 0.0000
# 2 30.0114 53.3556 6.8412 0.0000 0.0000 0.0000
# 3 19.2832 6.8412 22.4007 0.0000 0.0000 0.0000
# 4 0.0000 0.0000 0.0000 20.0789 0.0000 0.0000
# 5 0.0000 0.0000 0.0000 0.0000 6.4137 0.0000
# 6 0.0000 0.0000 0.0000 0.0000 0.0000 12.5040
#
#
#
# Elastic Compliance Matrix: (Units=1/GPa)
#
#
# Indices 1 2 3 4 5 6 
#
# 1 0.013064 -0.006147 -0.009368 0.000000 0.000000 0.000000
# 2 -0.006147 0.022398 -0.001549 0.000000 0.000000 0.000000
# 3 -0.009368 -0.001549 0.053179 0.000000 0.000000 0.000000
# 4 0.000000 0.000000 0.000000 0.049804 0.000000 0.000000
# 5 0.000000 0.000000 0.000000 0.000000 0.155916 0.000000
# 6 0.000000 0.000000 0.000000 0.000000 0.000000 0.079975
#
#
# Mechanical properties :
#
#
# Convention : Reuss Voigt Hill
#
# Bulk Modulus (GPa) = 18.34441 32.50294 25.42368
# Shear Modulus (GPa) = 11.71966 16.07394 13.89680
#
# Velocity S-wave (km/s) = 2.54667 2.98247 2.77314
# Velocity P-wave (km/s) = 4.33578 5.46323 4.93183
#
# Compressibility (1/GPa) = 0.05451251
#
# Stress axis : x y z
#
# Youngs Moduli (GPa) = 76.54889 44.64637 18.80443
#
# Poissons Ratio (x) = 0.27443 0.17616
# Poissons Ratio (y) = 0.47053 0.02913
# Poissons Ratio (z) = 0.71713 0.06916
#
# Static dielectric constant tensor:
#      x y z
#    x 1.637840 0.000000 0.000000 
#    y 0.000000 1.660780 0.000000 
#    z 0.000000 0.000000 1.747780 
# 
# From -- ./inp_files/46462.got.cif
#   From: 2010.05.17/outbox.cif.g08.bks.cpg/sg71_24_cif.got.tgz:46462.got - 2010.06.03 16:22:01.
