data_PCOD9517494
_publ_section_title
;
Structure prediction by ZEFSAII (Michael W. Deem and Ramdas Pophale) SiO2 
 PCOD9517494
Probable space group: I M M M
;
_chemical_formula_sum "Si O2"
_cell_formula_units_Z 128
_cell_length_a 24.277010
_cell_length_b 17.963260
_cell_length_c 19.322719
_cell_angle_alpha 90.000000
_cell_angle_beta 90.000000
_cell_angle_gamma 90.000000
_cell_volume 8426.526508
_symmetry_space_group_name_H-M "I M M M"
_symmetry_group_IT_number 71
_symmetry_cell_setting 'orthorhombic'
loop_
_space_group_symop_operation_xyz
x,y,z
-x,-y,z
x,-y,-z
-x,y,-z
-x,-y,-z
x,y,-z
-x,y,z
x,-y,z
1/2+x,1/2+y,1/2+z
1/2-x,1/2-y,1/2+z
1/2+x,1/2-y,1/2-z
1/2-x,1/2+y,1/2-z
1/2-x,1/2-y,1/2-z
1/2+x,1/2+y,1/2-z
1/2-x,1/2+y,1/2+z
1/2+x,1/2-y,1/2+z
loop_
_atom_site_type_symbol
_atom_site_label
_atom_site_fract_x
_atom_site_fract_y
_atom_site_fract_z
Si Si1 0.224620 0.087716 0.685241
Si Si2 0.769781 0.672842 0.579482
Si Si3 0.656771 0.676790 0.921288
Si Si4 0.150147 0.642729 0.805626
Si Si5 0.064048 0.410162 0.919874
Si Si6 0.701022 0.707206 0.292081
Si Si7 0.632848 0.086803 0.848877
Si Si8 0.935769 0.716519 0.583261
O O1 0.186905 0.113888 0.621839
O O2 0.287693 0.116189 0.674922
O O3 0.197551 0.131108 0.749926
O O4 0.225955 0.000000 0.694864
O O5 0.757226 0.653854 0.500000
O O6 0.803739 0.750397 0.579417
O O7 0.719286 0.688200 0.630375
O O8 0.809744 0.612512 0.615543
O O9 0.599892 0.711978 0.893481
O O10 0.648639 0.652565 0.000000
O O11 0.106774 0.623023 0.865076
O O12 0.153250 0.731609 0.792406
O O13 0.136629 0.602984 0.732979
O O14 0.067721 0.500000 0.915725
O O15 0.000000 0.390258 0.905473
O O16 0.076199 0.389461 0.000000
O O17 0.750000 0.750000 0.250000
O O18 0.587955 0.142305 0.881580
O O19 0.622150 0.000000 0.861385
O O20 0.926934 0.709838 0.500000
O O21 0.000000 0.725267 0.596555
#
# Coordination Sequence:
#
# PCOD9517494 Si02
#       8
#    16  16  16  16  16  16  16  16
#     4  11  20  31  49  73 100 129 158 201 254 300
#     4  10  18  30  46  64  92 129 164 197 239 287
#     4   9  17  31  49  70  95 122 157 200 245 297
#     4  11  20  32  52  71  97 133 173 201 237 291
#     4   9  19  35  51  71 104 138 165 201 249 296
#     4  10  17  32  48  67  95 128 162 203 242 286
#     4  11  20  30  45  70 101 131 165 206 243 283
#     4   9  19  35  52  68  91 129 171 207 245 289
#
# _framework density 15.190125
#
# number of rings (size 3 to 8) (size 9 to 14) (size 15 to 20)
#    0.000    2.000    5.000    3.375    0.000    3.000 
#    0.000    0.625    0.000    0.375    0.000    1.750 
#    0.000    0.000    0.000    1.375    0.000    0.000 
#
# Total GULP energy -356546.033758 kJ/mol
# GULP energy per Si atom -5571.031777 kJ/mol
# Density = 1.515555 g / cm^3
# Si number density = 15.190125 Si / 1000 Ang^3
#
#
#
# Elastic Constant Matrix: (Units=GPa)
#
#
# Indices 1 2 3 4 5 6 
#
# 1 47.0012 35.2646 26.8321 0.0000 0.0000 0.0000
# 2 35.2646 80.4049 30.8668 0.0000 0.0000 0.0000
# 3 26.8321 30.8668 85.7216 0.0000 0.0000 0.0000
# 4 0.0000 0.0000 0.0000 16.1141 0.0000 0.0000
# 5 0.0000 0.0000 0.0000 0.0000 20.5745 0.0000
# 6 0.0000 0.0000 0.0000 0.0000 0.0000 16.3725
#
#
#
# Elastic Compliance Matrix: (Units=1/GPa)
#
#
# Indices 1 2 3 4 5 6 
#
# 1 0.034315 -0.012679 -0.006175 0.000000 0.000000 0.000000
# 2 -0.012679 0.019117 -0.002915 0.000000 0.000000 0.000000
# 3 -0.006175 -0.002915 0.014648 0.000000 0.000000 0.000000
# 4 0.000000 0.000000 0.000000 0.062058 0.000000 0.000000
# 5 0.000000 0.000000 0.000000 0.000000 0.048604 0.000000
# 6 0.000000 0.000000 0.000000 0.000000 0.000000 0.061078
#
#
# Mechanical properties :
#
#
# Convention : Reuss Voigt Hill
#
# Bulk Modulus (GPa) = 40.74855 44.33943 42.54399
# Shear Modulus (GPa) = 17.15038 18.62316 17.88677
#
# Velocity S-wave (km/s) = 3.36378 3.50523 3.43523
# Velocity P-wave (km/s) = 6.47847 6.75538 6.61838
#
# Compressibility (1/GPa) = 0.02454075
#
# Stress axis : x y z
#
# Youngs Moduli (GPa) = 29.14215 52.30943 68.26748
#
# Poissons Ratio (x) = 0.66324 0.42158
# Poissons Ratio (y) = 0.36950 0.19899
# Poissons Ratio (z) = 0.17996 0.15248
#
# Static dielectric constant tensor:
#      x y z
#    x 1.505400 0.000000 0.000000 
#    y 0.000000 1.498920 0.000000 
#    z 0.000000 0.000000 1.526210 
# 
# From -- ./inp_files/48423.got.cif
#   From: 2010.05.17/outbox.cif.g08.bks.cpg/sg71_25_cif.got.tgz:48423.got - 2010.06.03 16:22:01.
