data_PCOD9517592
_publ_section_title
;
Structure prediction by ZEFSAII (Michael W. Deem and Ramdas Pophale) SiO2 
 PCOD9517592
Probable space group: I M M M
;
_chemical_formula_sum "Si O2"
_cell_formula_units_Z 100
_cell_length_a 29.715975
_cell_length_b 27.347676
_cell_length_c 7.594581
_cell_angle_alpha 90.000000
_cell_angle_beta 90.000000
_cell_angle_gamma 90.000000
_cell_volume 6171.833888
_symmetry_space_group_name_H-M "I M M M"
_symmetry_group_IT_number 71
_symmetry_cell_setting 'orthorhombic'
loop_
_space_group_symop_operation_xyz
x,y,z
-x,-y,z
x,-y,-z
-x,y,-z
-x,-y,-z
x,y,-z
-x,y,z
x,-y,z
1/2+x,1/2+y,1/2+z
1/2-x,1/2-y,1/2+z
1/2+x,1/2-y,1/2-z
1/2-x,1/2+y,1/2-z
1/2-x,1/2-y,1/2-z
1/2+x,1/2+y,1/2-z
1/2-x,1/2+y,1/2+z
1/2+x,1/2-y,1/2+z
loop_
_atom_site_type_symbol
_atom_site_label
_atom_site_fract_x
_atom_site_fract_y
_atom_site_fract_z
Si Si1 0.711401 0.681240 0.291339
Si Si2 0.298310 0.055291 0.788284
Si Si3 0.552259 0.945104 0.715077
Si Si4 0.312486 0.788529 0.713420
Si Si5 0.375070 0.870113 0.702416
Si Si6 0.834566 0.000000 0.000000
Si Si7 0.305668 0.426945 0.195960
O O1 0.704496 0.678821 0.500000
O O2 0.690907 0.732527 0.224824
O O3 0.765172 0.685736 0.260782
O O4 0.691735 0.631705 0.213645
O O5 0.332585 0.093286 0.706319
O O6 0.247493 0.061662 0.723240
O O7 0.312930 0.000000 0.748812
O O8 0.297739 0.061679 0.000000
O O9 0.554689 0.945128 0.500000
O O10 0.500000 0.938270 0.762305
O O11 0.584303 0.901817 0.781321
O O12 0.566135 0.000000 0.771888
O O13 0.314285 0.788074 0.500000
O O14 0.354616 0.820239 0.779936
O O15 0.387622 0.859492 0.500000
O O16 0.830624 0.957271 0.154209
O O17 0.319264 0.441280 0.000000
#
# Coordination Sequence:
#
# PCOD9517592 Si02
#       7
#    16  16  16  16  16   4  16
#     4  10  18  30  42  57  82 110 138 178 222 269
#     4  11  20  30  38  55  82 105 133 173 223 267
#     4   8  14  25  40  59  84 110 138 180 233 286
#     4   9  18  28  41  59  80 106 141 181 225 266
#     4  10  18  27  42  63  78 100 141 181 223 277
#     4  12  22  36  44  66  84 112 143 182 215 264
#     4  12  21  32  47  61  84 112 142 177 221 264
#
# _framework density 16.202639000000001
#
# number of rings (size 3 to 8) (size 9 to 14) (size 15 to 20)
#    0.000    1.920    4.000    2.160    0.000    2.240 
#    0.000    0.000    0.000    0.480    0.000    2.240 
#    0.000    0.000    0.000    0.000    0.000    0.000 
#
# Total GULP energy -278402.395307 kJ/mol
# GULP energy per Si atom -5568.047906 kJ/mol
# Density = 1.616576 g / cm^3
# Si number density = 16.202639 Si / 1000 Ang^3
#
#
#
# Elastic Constant Matrix: (Units=GPa)
#
#
# Indices 1 2 3 4 5 6 
#
# 1 43.0133 33.2612 -1.3162 0.0000 0.0000 0.0000
# 2 33.2612 128.6913 24.1200 0.0000 0.0000 0.0000
# 3 -1.3162 24.1200 79.3210 0.0000 0.0000 0.0000
# 4 0.0000 0.0000 0.0000 14.3495 0.0000 0.0000
# 5 0.0000 0.0000 0.0000 0.0000 -1.4147 0.0000
# 6 0.0000 0.0000 0.0000 0.0000 0.0000 27.3536
#
#
#
# Elastic Compliance Matrix: (Units=1/GPa)
#
#
# Indices 1 2 3 4 5 6 
#
# 1 0.029714 -0.008242 0.002999 0.000000 0.000000 0.000000
# 2 -0.008242 0.010526 -0.003338 0.000000 0.000000 0.000000
# 3 0.002999 -0.003338 0.013672 0.000000 0.000000 0.000000
# 4 0.000000 0.000000 0.000000 0.069689 0.000000 0.000000
# 5 0.000000 0.000000 0.000000 0.000000 -0.706880 0.000000
# 6 0.000000 0.000000 0.000000 0.000000 0.000000 0.036558
#
#
# Mechanical properties :
#
#
# Convention : Reuss Voigt Hill
#
# Bulk Modulus (GPa) = 27.21007 40.35064 33.78036
# Shear Modulus (GPa) = -9.66538 21.05504 5.69483
#
# Velocity S-wave (km/s) = -2.44505 3.60874 1.87680
# Velocity P-wave (km/s) = 2.97641 6.50553 5.05870
#
# Compressibility (1/GPa) = 0.03675110
#
# Stress axis : x y z
#
# Youngs Moduli (GPa) = 33.65465 95.00071 73.14399
#
# Poissons Ratio (x) = 0.78298 -0.21937
# Poissons Ratio (y) = 0.27738 0.24412
# Poissons Ratio (z) = -0.10094 0.31707
#
# Static dielectric constant tensor:
#      x y z
#    x 1.511620 0.000000 0.000000 
#    y 0.000000 1.594480 0.000000 
#    z 0.000000 0.000000 1.632040 
# 
# From -- ./inp_files/17417.got.cif
#   From: 2010.05.17/outbox.cif.g08.bks.cpg/sg71_9_cif.got.tgz:17417.got - 2010.06.03 16:22:01.
