data_PCOD9517847
_publ_section_title
;
Structure prediction by ZEFSAII (Michael W. Deem and Ramdas Pophale) SiO2 
 PCOD9517847
Probable space group: I M M M
;
_chemical_formula_sum "Si O2"
_cell_formula_units_Z 72
_cell_length_a 19.989400
_cell_length_b 7.383020
_cell_length_c 23.051499
_cell_angle_alpha 90.000000
_cell_angle_beta 90.000000
_cell_angle_gamma 90.000000
_cell_volume 3401.989552
_symmetry_space_group_name_H-M "I M M M"
_symmetry_group_IT_number 71
_symmetry_cell_setting 'orthorhombic'
loop_
_space_group_symop_operation_xyz
x,y,z
-x,-y,z
x,-y,-z
-x,y,-z
-x,-y,-z
x,y,-z
-x,y,z
x,-y,z
1/2+x,1/2+y,1/2+z
1/2-x,1/2-y,1/2+z
1/2+x,1/2-y,1/2-z
1/2-x,1/2+y,1/2-z
1/2-x,1/2-y,1/2-z
1/2+x,1/2+y,1/2-z
1/2-x,1/2+y,1/2+z
1/2+x,1/2-y,1/2+z
loop_
_atom_site_type_symbol
_atom_site_label
_atom_site_fract_x
_atom_site_fract_y
_atom_site_fract_z
Si Si1 0.423297 0.220513 0.777355
Si Si2 0.841840 0.716495 0.612906
Si Si3 0.696450 0.783807 0.434212
Si Si4 0.922787 0.721460 0.500000
Si Si5 0.076171 0.278937 0.145316
O O1 0.500000 0.272233 0.791262
O O2 0.372623 0.284303 0.826758
O O3 0.408302 0.277455 0.711491
O O4 0.422032 0.000000 0.776930
O O5 0.850217 0.500000 0.613779
O O6 0.764269 0.752075 0.601296
O O7 0.884010 0.782861 0.557499
O O8 0.703010 0.713132 0.500000
O O9 0.631795 0.715230 0.399714
O O10 0.688712 0.000000 0.438470
O O11 0.921759 0.500000 0.500000
O O12 0.000000 0.776353 0.500000
O O13 0.076790 0.500000 0.144995
O O14 0.000000 0.224314 0.131597
#
# Coordination Sequence:
#
# PCOD9517847 Si02
#       5
#    16  16  16   8  16
#     4   8  14  26  46  71  94 115 148 195 235 266
#     4  10  18  29  47  70  94 121 151 186 230 275
#     4  10  20  32  46  66  95 126 154 188 228 271
#     4   9  16  26  43  67  90 115 152 190 217 251
#     4   8  15  29  48  69  91 116 151 195 236 270
#
# _framework density 21.164086999999999
#
# number of rings (size 3 to 8) (size 9 to 14) (size 15 to 20)
#    0.000    3.000    1.111    2.000    0.000    4.000 
#    0.000    2.222    0.000    4.000    0.000    4.667 
#    0.000    0.000    0.000    0.000    0.000    0.000 
#
# Total GULP energy -200980.339940 kJ/mol
# GULP energy per Si atom -5582.787221 kJ/mol
# Density = 2.111592 g / cm^3
# Si number density = 21.164087 Si / 1000 Ang^3
#
#
#
# Elastic Constant Matrix: (Units=GPa)
#
#
# Indices 1 2 3 4 5 6 
#
# 1 158.2855 -3.7922 94.2389 0.0000 0.0000 0.0000
# 2 -3.7922 73.3376 2.2362 0.0000 0.0000 0.0000
# 3 94.2389 2.2362 113.6403 0.0000 0.0000 0.0000
# 4 0.0000 0.0000 0.0000 -5.7621 0.0000 0.0000
# 5 0.0000 0.0000 0.0000 0.0000 38.2066 0.0000
# 6 0.0000 0.0000 0.0000 0.0000 0.0000 14.0075
#
#
#
# Elastic Compliance Matrix: (Units=1/GPa)
#
#
# Indices 1 2 3 4 5 6 
#
# 1 0.012547 0.000967 -0.010424 0.000000 0.000000 0.000000
# 2 0.000967 0.013718 -0.001072 0.000000 0.000000 0.000000
# 3 -0.010424 -0.001072 0.017465 0.000000 0.000000 0.000000
# 4 0.000000 0.000000 0.000000 -0.173549 0.000000 0.000000
# 5 0.000000 0.000000 0.000000 0.000000 0.026173 0.000000
# 6 0.000000 0.000000 0.000000 0.000000 0.000000 0.071391
#
#
# Mechanical properties :
#
#
# Convention : Reuss Voigt Hill
#
# Bulk Modulus (GPa) = 44.10604 58.95878 51.53241
# Shear Modulus (GPa) = -1373.89046 26.12910 -673.88068
#
# Velocity S-wave (km/s) = -25.50628 3.51749 -17.86334
# Velocity P-wave (km/s) = 29.09540 6.66449 20.02656
#
# Compressibility (1/GPa) = 0.02267263
#
# Stress axis : x y z
#
# Youngs Moduli (GPa) = 79.70072 72.89570 57.25735
#
# Poissons Ratio (x) = -0.07046 0.59684
# Poissons Ratio (y) = -0.07704 0.06135
# Poissons Ratio (z) = 0.83079 0.07811
#
# Static dielectric constant tensor:
#      x y z
#    x 1.712720 0.000000 0.000000 
#    y 0.000000 1.847270 0.000000 
#    z 0.000000 0.000000 1.750740 
# 
# From -- ./inp_files/7926.got.cif
#   From: 2010.05.17/outbox.cif.g08.bks.cpg/sg71_4_cif.got.tgz:7926.got - 2010.06.03 16:22:01.
