data_PCOD9517605
_publ_section_title
;
Structure prediction by ZEFSAII (Michael W. Deem and Ramdas Pophale) SiO2 
 PCOD9517605
Probable space group: I M M M
;
_chemical_formula_sum "Si O2"
_cell_formula_units_Z 104
_cell_length_a 18.087142
_cell_length_b 27.519880
_cell_length_c 13.861980
_cell_angle_alpha 90.000000
_cell_angle_beta 90.000000
_cell_angle_gamma 90.000000
_cell_volume 6899.883403
_symmetry_space_group_name_H-M "I M M M"
_symmetry_group_IT_number 71
_symmetry_cell_setting 'orthorhombic'
loop_
_space_group_symop_operation_xyz
x,y,z
-x,-y,z
x,-y,-z
-x,y,-z
-x,-y,-z
x,y,-z
-x,y,z
x,-y,z
1/2+x,1/2+y,1/2+z
1/2-x,1/2-y,1/2+z
1/2+x,1/2-y,1/2-z
1/2-x,1/2+y,1/2-z
1/2-x,1/2-y,1/2-z
1/2+x,1/2+y,1/2-z
1/2-x,1/2+y,1/2+z
1/2+x,1/2-y,1/2+z
loop_
_atom_site_type_symbol
_atom_site_label
_atom_site_fract_x
_atom_site_fract_y
_atom_site_fract_z
Si Si1 0.414586 0.775995 0.202849
Si Si2 0.000000 0.557159 0.117011
Si Si3 0.838592 0.441614 0.885973
Si Si4 0.585377 0.667824 0.114276
Si Si5 0.319264 0.779493 0.388599
Si Si6 0.726291 0.179549 0.889143
Si Si7 0.228077 0.869081 0.299110
O O1 0.500000 0.790478 0.194930
O O2 0.407060 0.721574 0.159983
O O3 0.386145 0.776059 0.313028
O O4 0.357455 0.809521 0.144277
O O5 0.920071 0.577216 0.147283
O O6 0.000000 0.500000 0.143126
O O7 0.000000 0.558796 0.000000
O O8 0.838007 0.500000 0.877061
O O9 0.773041 0.416523 0.828880
O O10 0.831034 0.430357 0.000000
O O11 0.500000 0.652837 0.126171
O O12 0.644066 0.633088 0.165608
O O13 0.601381 0.670882 0.000000
O O14 0.341426 0.785206 0.500000
O O15 0.270290 0.730676 0.379567
O O16 0.268918 0.824553 0.355044
O O17 0.762611 0.142935 0.813319
O O18 0.729466 0.164294 0.000000
#
# Coordination Sequence:
#
# PCOD9517605 Si02
#       7
#    16   8  16  16  16  16  16
#     4  10  18  29  43  61  88 123 157 185 217 265
#     4   7  12  26  44  64  91 117 143 175 216 270
#     4   9  17  29  48  71  93 119 148 182 227 278
#     4  10  18  27  43  66  90 119 154 187 216 260
#     4  10  18  30  45  64  90 121 149 185 232 270
#     4  10  19  32  47  63  88 123 158 191 228 266
#     4  11  18  31  48  67  89 118 156 190 227 274
#
# _framework density 15.072718999999999
#
# number of rings (size 3 to 8) (size 9 to 14) (size 15 to 20)
#    0.000    2.231    3.077    3.692    0.000    1.231 
#    5.538    0.000    0.000    1.385    0.000    2.154 
#    0.000    1.846    0.000    1.385    0.000    0.154 
#
# Total GULP energy -289865.593700 kJ/mol
# GULP energy per Si atom -5574.338340 kJ/mol
# Density = 1.503841 g / cm^3
# Si number density = 15.072719 Si / 1000 Ang^3
#
#
#
# Elastic Constant Matrix: (Units=GPa)
#
#
# Indices 1 2 3 4 5 6 
#
# 1 86.5453 11.1274 41.7306 0.0000 0.0000 0.0000
# 2 11.1274 16.7776 19.8556 0.0000 0.0000 0.0000
# 3 41.7306 19.8556 108.8205 -0.0002 0.0000 0.0000
# 4 0.0000 0.0000 -0.0002 10.9120 0.0000 0.0000
# 5 0.0000 0.0000 0.0000 0.0000 16.7755 0.0000
# 6 0.0000 0.0000 0.0000 0.0000 0.0000 18.0931
#
#
#
# Elastic Compliance Matrix: (Units=1/GPa)
#
#
# Indices 1 2 3 4 5 6 
#
# 1 0.014367 -0.003837 -0.004809 0.000000 0.000000 0.000000
# 2 -0.003837 0.077043 -0.012586 0.000000 0.000000 0.000000
# 3 -0.004809 -0.012586 0.013330 0.000000 0.000000 0.000000
# 4 0.000000 0.000000 0.000000 0.091642 0.000000 0.000000
# 5 0.000000 0.000000 0.000000 0.000000 0.059611 0.000000
# 6 0.000000 0.000000 0.000000 0.000000 0.000000 0.055270
#
#
# Mechanical properties :
#
#
# Convention : Reuss Voigt Hill
#
# Bulk Modulus (GPa) = 16.05768 39.73009 27.89388
# Shear Modulus (GPa) = 13.35163 18.45144 15.90154
#
# Velocity S-wave (km/s) = 2.97949 3.50260 3.25158
# Velocity P-wave (km/s) = 4.74480 6.54016 5.71344
#
# Compressibility (1/GPa) = 0.06227549
#
# Stress axis : x y z
#
# Youngs Moduli (GPa) = 69.60422 12.97977 75.01752
#
# Poissons Ratio (x) = 0.04980 0.36079
# Poissons Ratio (y) = 0.26707 0.94418
# Poissons Ratio (z) = 0.33475 0.16336
#
# Static dielectric constant tensor:
#      x y z
#    x 1.524520 0.000000 0.000000 
#    y 0.000000 1.488200 0.000000 
#    z 0.000000 0.000000 1.500270 
# 
# From -- ./inp_files/36937.got.cif
#   From: 2010.05.17/outbox.cif.g08.bks.cpg/sg71_19_cif.got.tgz:36937.got - 2010.06.03 16:22:01.
