data_PCOD9517587
_publ_section_title
;
Structure prediction by ZEFSAII (Michael W. Deem and Ramdas Pophale) SiO2 
 PCOD9517587
Probable space group: I M M M
;
_chemical_formula_sum "Si O2"
_cell_formula_units_Z 88
_cell_length_a 14.067733
_cell_length_b 26.813598
_cell_length_c 14.944209
_cell_angle_alpha 90.000000
_cell_angle_beta 90.000000
_cell_angle_gamma 90.000000
_cell_volume 5637.053332
_symmetry_space_group_name_H-M "I M M M"
_symmetry_group_IT_number 71
_symmetry_cell_setting 'orthorhombic'
loop_
_space_group_symop_operation_xyz
x,y,z
-x,-y,z
x,-y,-z
-x,y,-z
-x,-y,-z
x,y,-z
-x,y,z
x,-y,z
1/2+x,1/2+y,1/2+z
1/2-x,1/2-y,1/2+z
1/2+x,1/2-y,1/2-z
1/2-x,1/2+y,1/2-z
1/2-x,1/2-y,1/2-z
1/2+x,1/2+y,1/2-z
1/2-x,1/2+y,1/2+z
1/2+x,1/2-y,1/2+z
loop_
_atom_site_type_symbol
_atom_site_label
_atom_site_fract_x
_atom_site_fract_y
_atom_site_fract_z
Si Si1 0.764354 0.796877 0.105978
Si Si2 0.883609 0.000000 0.896058
Si Si3 0.612134 0.802176 0.602001
Si Si4 0.612766 0.152808 0.214013
Si Si5 0.884340 0.556516 0.398050
Si Si6 0.390442 0.608345 0.391122
O O1 0.822513 0.746060 0.118381
O O2 0.669526 0.803733 0.163107
O O3 0.830091 0.843664 0.133729
O O4 0.743618 0.801485 0.000000
O O5 0.855044 0.053979 0.858563
O O6 0.000000 0.000000 0.895412
O O7 0.854224 0.000000 0.000000
O O8 0.628774 0.819575 0.500000
O O9 0.500000 0.787994 0.607585
O O10 0.630559 0.841784 0.680286
O O11 0.500000 0.158187 0.199477
O O12 0.642044 0.100230 0.169690
O O13 0.853315 0.568718 0.500000
O O14 0.852656 0.500000 0.377147
O O15 0.000000 0.555210 0.399351
O O16 0.390410 0.606214 0.500000
O O17 0.500000 0.614629 0.363453
#
# Coordination Sequence:
#
# PCOD9517587 Si02
#       6
#    16   8  16  16  16  16
#     4  10  18  27  41  63  87 113 143 173 210 258
#     4   7  10  18  32  50  75 107 138 167 199 233
#     4   9  18  32  48  63  80 106 144 188 227 259
#     4  10  19  30  44  62  86 115 146 179 214 255
#     4   8  14  26  43  61  84 114 141 164 196 243
#     4   8  13  22  36  54  79 110 141 172 204 241
#
# _framework density 15.610993000000001
#
# number of rings (size 3 to 8) (size 9 to 14) (size 15 to 20)
#    0.000    3.182    0.000    3.273    0.000    3.273 
#    1.636    0.000    0.000    0.545    0.000    3.818 
#    0.000    0.000    0.000    0.000    0.000    5.091 
#
# Total GULP energy -245031.186070 kJ/mol
# GULP energy per Si atom -5568.890593 kJ/mol
# Density = 1.557546 g / cm^3
# Si number density = 15.610993 Si / 1000 Ang^3
#
#
#
# Elastic Constant Matrix: (Units=GPa)
#
#
# Indices 1 2 3 4 5 6 
#
# 1 46.8497 25.3814 32.7736 0.0000 0.0000 0.0000
# 2 25.3814 76.3617 61.5858 0.0000 0.0000 0.0000
# 3 32.7736 61.5858 89.1507 -0.0001 0.0000 0.0000
# 4 0.0000 0.0000 -0.0001 20.3168 0.0000 0.0000
# 5 0.0000 0.0000 0.0000 0.0000 13.9494 0.0000
# 6 0.0000 0.0000 0.0000 0.0000 0.0000 18.7000
#
#
#
# Elastic Compliance Matrix: (Units=1/GPa)
#
#
# Indices 1 2 3 4 5 6 
#
# 1 0.028919 -0.002344 -0.009012 0.000000 0.000000 0.000000
# 2 -0.002344 0.029760 -0.019697 0.000000 0.000000 0.000000
# 3 -0.009012 -0.019697 0.028137 0.000000 0.000000 0.000000
# 4 0.000000 0.000000 0.000000 0.049220 0.000000 0.000000
# 5 0.000000 0.000000 0.000000 0.000000 0.071688 0.000000
# 6 0.000000 0.000000 0.000000 0.000000 0.000000 0.053476
#
#
# Mechanical properties :
#
#
# Convention : Reuss Voigt Hill
#
# Bulk Modulus (GPa) = 40.46904 50.20486 45.33695
# Shear Modulus (GPa) = 15.08104 16.76799 15.92451
#
# Velocity S-wave (km/s) = 3.11151 3.28092 3.19734
# Velocity P-wave (km/s) = 6.23605 6.82513 6.53723
#
# Compressibility (1/GPa) = 0.02471025
#
# Stress axis : x y z
#
# Youngs Moduli (GPa) = 34.57924 33.60193 35.54094
#
# Poissons Ratio (x) = 0.07877 0.32029
# Poissons Ratio (y) = 0.08106 0.70004
# Poissons Ratio (z) = 0.31163 0.66185
#
# Static dielectric constant tensor:
#      x y z
#    x 1.569230 0.000000 0.000000 
#    y 0.000000 1.535550 0.000000 
#    z 0.000000 0.000000 1.499400 
# 
# From -- ./inp_files/34663.got.cif
#   From: 2010.05.17/outbox.cif.g08.bks.cpg/sg71_18_cif.got.tgz:34663.got - 2010.06.03 16:22:01.
