data_PCOD9517960
_publ_section_title
;
Structure prediction by ZEFSAII (Michael W. Deem and Ramdas Pophale) SiO2 
 PCOD9517960
Probable space group: I M M M
;
_chemical_formula_sum "Si O2"
_cell_formula_units_Z 82
_cell_length_a 14.594562
_cell_length_b 19.299777
_cell_length_c 13.208847
_cell_angle_alpha 90.000000
_cell_angle_beta 90.000000
_cell_angle_gamma 90.000000
_cell_volume 3720.559605
_symmetry_space_group_name_H-M "I M M M"
_symmetry_group_IT_number 71
_symmetry_cell_setting 'orthorhombic'
loop_
_space_group_symop_operation_xyz
x,y,z
-x,-y,z
x,-y,-z
-x,y,-z
-x,-y,-z
x,y,-z
-x,y,z
x,-y,z
1/2+x,1/2+y,1/2+z
1/2-x,1/2-y,1/2+z
1/2+x,1/2-y,1/2-z
1/2-x,1/2+y,1/2-z
1/2-x,1/2-y,1/2-z
1/2+x,1/2+y,1/2-z
1/2-x,1/2+y,1/2+z
1/2+x,1/2-y,1/2+z
loop_
_atom_site_type_symbol
_atom_site_label
_atom_site_fract_x
_atom_site_fract_y
_atom_site_fract_z
Si Si1 0.368990 0.132115 0.000000
Si Si2 0.359431 0.668456 0.701468
Si Si3 0.863063 0.420182 0.889006
Si Si4 0.637486 0.183062 0.781404
Si Si5 0.344772 0.585498 0.500000
Si Si6 0.500000 0.000000 0.000000
Si Si7 0.359929 0.579963 0.110057
O O1 0.391129 0.174579 0.897771
O O2 0.262639 0.107398 0.000000
O O3 0.422566 0.060894 0.000000
O O4 0.389589 0.747038 0.722652
O O5 0.248396 0.675987 0.709836
O O6 0.381991 0.625319 0.600107
O O7 0.391956 0.624062 0.796543
O O8 0.890862 0.500000 0.883131
O O9 0.894112 0.378824 0.791274
O O10 0.751648 0.418993 0.888157
O O11 0.890516 0.392304 0.000000
O O12 0.355279 0.500000 0.500000
O O13 0.387127 0.500000 0.118790
O O14 0.388099 0.606715 0.000000
#
# Coordination Sequence:
#
# PCOD9517960 Si02
#       7
#     8  16  16  16   8   2  16
#     4  10  22  34  50  68  91 130 185 236 267 282
#     4   9  17  25  39  61  93 128 156 194 250 317
#     4   8  14  23  37  55  78 107 147 188 234 293
#     4   9  18  28  41  63  90 120 157 211 265 310
#     4  10  18  30  46  70 105 141 169 201 248 315
#     4  12  24  40  56  72  90 140 202 256 260 272
#     4   8  13  21  33  50  76 117 155 182 211 273
#
# _framework density 22.039695999999999
#
# number of rings (size 3 to 8) (size 9 to 14) (size 15 to 20)
#    0.000    3.122    0.488    1.756    4.098    2.341 
#    0.000    0.000    0.000    0.000    0.000    1.366 
#    0.000    0.000    0.000    7.902    0.000    8.585 
#
# Total GULP energy -228385.394721 kJ/mol
# GULP energy per Si atom -5570.375481 kJ/mol
# Density = 2.198953 g / cm^3
# Si number density = 22.039696 Si / 1000 Ang^3
#
#
#
# Elastic Constant Matrix: (Units=GPa)
#
#
# Indices 1 2 3 4 5 6 
#
# 1 80.2656 -0.0490 6.4805 0.0000 0.0000 0.0000
# 2 -0.0490 126.5179 110.1480 0.0000 0.0000 0.0000
# 3 6.4805 110.1480 226.6623 0.0000 0.0000 0.0000
# 4 0.0000 0.0000 0.0000 26.8474 0.0000 0.0000
# 5 0.0000 0.0000 0.0000 0.0000 -29.9553 0.0000
# 6 0.0000 0.0000 0.0000 0.0000 0.0000 1.3239
#
#
#
# Elastic Compliance Matrix: (Units=1/GPa)
#
#
# Indices 1 2 3 4 5 6 
#
# 1 0.012509 0.000548 -0.000624 0.000000 0.000000 0.000000
# 2 0.000548 0.013724 -0.006685 0.000000 0.000000 0.000000
# 3 -0.000624 -0.006685 0.007678 0.000000 0.000000 0.000000
# 4 0.000000 0.000000 0.000000 0.037248 0.000000 0.000000
# 5 0.000000 0.000000 0.000000 0.000000 -0.033383 0.000000
# 6 0.000000 0.000000 0.000000 0.000000 0.000000 0.755350
#
#
# Mechanical properties :
#
#
# Convention : Reuss Voigt Hill
#
# Bulk Modulus (GPa) = 49.04348 74.06720 61.55534
# Shear Modulus (GPa) = 6.14670 20.76762 13.45716
#
# Velocity S-wave (km/s) = 1.67182 3.07299 2.47369
# Velocity P-wave (km/s) = 5.10169 6.80223 6.01239
#
# Compressibility (1/GPa) = 0.02039007
#
# Stress axis : x y z
#
# Youngs Moduli (GPa) = 79.94021 72.86299 130.23591
#
# Poissons Ratio (x) = -0.03994 0.08127
# Poissons Ratio (y) = -0.04382 0.87064
# Poissons Ratio (z) = 0.04988 0.48710
#
# Static dielectric constant tensor:
#      x y z
#    x 1.858980 0.000000 0.000000 
#    y 0.000000 1.762950 0.000000 
#    z 0.000000 0.000000 1.799880 
# 
# From -- ./inp_files/27536.got.cif
#   From: 2010.05.17/outbox.cif.g08.bks.cpg/sg71_14_cif.got.tgz:27536.got - 2010.06.03 16:22:01.
