data_PCOD9517900
_publ_section_title
;
Structure prediction by ZEFSAII (Michael W. Deem and Ramdas Pophale) SiO2 
 PCOD9517900
Probable space group: I M M M
;
_chemical_formula_sum "Si O2"
_cell_formula_units_Z 80
_cell_length_a 20.442468
_cell_length_b 15.988952
_cell_length_c 14.768620
_cell_angle_alpha 90.000000
_cell_angle_beta 90.000000
_cell_angle_gamma 90.000000
_cell_volume 4827.177199
_symmetry_space_group_name_H-M "I M M M"
_symmetry_group_IT_number 71
_symmetry_cell_setting 'orthorhombic'
loop_
_space_group_symop_operation_xyz
x,y,z
-x,-y,z
x,-y,-z
-x,y,-z
-x,-y,-z
x,y,-z
-x,y,z
x,-y,z
1/2+x,1/2+y,1/2+z
1/2-x,1/2-y,1/2+z
1/2+x,1/2-y,1/2-z
1/2-x,1/2+y,1/2-z
1/2-x,1/2-y,1/2-z
1/2+x,1/2+y,1/2-z
1/2-x,1/2+y,1/2+z
1/2+x,1/2-y,1/2+z
loop_
_atom_site_type_symbol
_atom_site_label
_atom_site_fract_x
_atom_site_fract_y
_atom_site_fract_z
Si Si1 0.832797 0.822766 0.398536
Si Si2 0.309486 0.593424 0.715717
Si Si3 0.816586 0.741066 0.894892
Si Si4 0.422267 0.839116 0.102105
Si Si5 0.156591 0.592449 0.764894
O O1 0.835985 0.859270 0.500000
O O2 0.836705 0.886961 0.316114
O O3 0.761644 0.778097 0.389860
O O4 0.887279 0.751118 0.390098
O O5 0.327501 0.500000 0.685787
O O6 0.329185 0.669317 0.650610
O O7 0.230642 0.596887 0.726493
O O8 0.849543 0.667284 0.836695
O O9 0.835132 0.739402 0.000000
O O10 0.500000 0.832149 0.111028
O O11 0.391815 0.894447 0.181181
O O12 0.407524 0.870484 0.000000
O O13 0.148261 0.500000 0.805593
#
# Coordination Sequence:
#
# PCOD9517900 Si02
#       5
#    16  16  16  16  16
#     4   9  16  30  49  70 101 132 161 201 245 291
#     4  10  18  29  49  75 100 128 161 199 252 303
#     4  10  18  31  50  71  99 130 161 203 253 295
#     4  10  19  31  50  74 101 136 170 196 232 287
#     4  10  19  32  49  71 101 132 164 201 242 291
#
# _framework density 16.572831999999998
#
# number of rings (size 3 to 8) (size 9 to 14) (size 15 to 20)
#    0.000    2.200    4.000    1.200    0.000    2.000 
#    0.000    7.000    0.000    1.200    0.000    4.200 
#    0.000    1.600    0.000    0.000    0.000    0.000 
#
# Total GULP energy -222921.895480 kJ/mol
# GULP energy per Si atom -5573.047387 kJ/mol
# Density = 1.653511 g / cm^3
# Si number density = 16.572832 Si / 1000 Ang^3
#
#
#
# Elastic Constant Matrix: (Units=GPa)
#
#
# Indices 1 2 3 4 5 6 
#
# 1 27.4504 20.2839 29.0277 0.0000 0.0000 0.0000
# 2 20.2839 128.9263 78.3295 0.0000 0.0000 0.0000
# 3 29.0277 78.3295 114.6061 0.0000 0.0000 0.0000
# 4 0.0000 0.0000 0.0000 6.4102 0.0000 0.0000
# 5 0.0000 0.0000 0.0000 0.0000 19.7862 0.0000
# 6 0.0000 0.0000 0.0000 0.0000 0.0000 3.8599
#
#
#
# Elastic Compliance Matrix: (Units=1/GPa)
#
#
# Indices 1 2 3 4 5 6 
#
# 1 0.049762 -0.000293 -0.012403 0.000000 0.000000 0.000000
# 2 -0.000293 0.013266 -0.008993 0.000000 0.000000 0.000000
# 3 -0.012403 -0.008993 0.018013 0.000000 0.000000 0.000000
# 4 0.000000 0.000000 0.000000 0.156001 0.000000 0.000000
# 5 0.000000 0.000000 0.000000 0.000000 0.050540 0.000000
# 6 0.000000 0.000000 0.000000 0.000000 0.000000 0.259077
#
#
# Mechanical properties :
#
#
# Convention : Reuss Voigt Hill
#
# Bulk Modulus (GPa) = 26.55140 58.47388 42.51264
# Shear Modulus (GPa) = 8.29748 15.56737 11.93243
#
# Velocity S-wave (km/s) = 2.23999 3.06818 2.68619
# Velocity P-wave (km/s) = 4.76926 6.92179 5.94378
#
# Compressibility (1/GPa) = 0.03766280
#
# Stress axis : x y z
#
# Youngs Moduli (GPa) = 20.09557 75.38090 55.51473
#
# Poissons Ratio (x) = 0.02211 0.68857
# Poissons Ratio (y) = 0.00589 0.49922
# Poissons Ratio (z) = 0.24925 0.67787
#
# Static dielectric constant tensor:
#      x y z
#    x 1.526810 0.000000 0.000000 
#    y 0.000000 1.574140 0.000000 
#    z 0.000000 0.000000 1.567450 
# 
# From -- ./inp_files/34256.got.cif
#   From: 2010.05.17/outbox.cif.g08.bks.cpg/sg71_18_cif.got.tgz:34256.got - 2010.06.03 16:22:01.
