data_PCOD9517699
_publ_section_title
;
Structure prediction by ZEFSAII (Michael W. Deem and Ramdas Pophale) SiO2 
 PCOD9517699
Probable space group: I M M M
;
_chemical_formula_sum "Si O2"
_cell_formula_units_Z 88
_cell_length_a 7.745311
_cell_length_b 27.951772
_cell_length_c 20.316563
_cell_angle_alpha 90.000000
_cell_angle_beta 90.000000
_cell_angle_gamma 90.000000
_cell_volume 4398.437702
_symmetry_space_group_name_H-M "I M M M"
_symmetry_group_IT_number 71
_symmetry_cell_setting 'orthorhombic'
loop_
_space_group_symop_operation_xyz
x,y,z
-x,-y,z
x,-y,-z
-x,y,-z
-x,-y,-z
x,y,-z
-x,y,z
x,-y,z
1/2+x,1/2+y,1/2+z
1/2-x,1/2-y,1/2+z
1/2+x,1/2-y,1/2-z
1/2-x,1/2+y,1/2-z
1/2-x,1/2-y,1/2-z
1/2+x,1/2+y,1/2-z
1/2-x,1/2+y,1/2+z
1/2+x,1/2-y,1/2+z
loop_
_atom_site_type_symbol
_atom_site_label
_atom_site_fract_x
_atom_site_fract_y
_atom_site_fract_z
Si Si1 0.788182 0.395650 0.388292
Si Si2 0.211177 0.322904 0.500000
Si Si3 0.793010 0.135437 0.602472
Si Si4 0.704192 0.100294 0.262067
Si Si5 0.711325 0.286254 0.000000
Si Si6 0.692105 0.500000 0.743549
Si Si7 0.711173 0.555342 0.000000
Si Si8 0.194618 0.500000 0.599755
O O1 0.735009 0.353126 0.436030
O O2 0.732756 0.389119 0.312197
O O3 0.728052 0.447871 0.414470
O O4 0.000000 0.397472 0.388773
O O5 0.270842 0.268268 0.500000
O O6 0.000000 0.322318 0.500000
O O7 0.745079 0.135478 0.678730
O O8 0.733770 0.182149 0.562697
O O9 0.733948 0.087751 0.562889
O O10 0.000000 0.134720 0.598323
O O11 0.500000 0.095391 0.257554
O O12 0.779885 0.048640 0.282000
O O13 0.500000 0.285059 0.000000
O O14 0.500000 0.500000 0.715883
O O15 0.812945 0.500000 0.679737
O O16 0.769398 0.500000 0.000000
O O17 0.500000 0.554111 0.000000
O O18 0.000000 0.500000 0.573466
#
# Coordination Sequence:
#
# PCOD9517699 Si02
#       8
#    16   8  16  16   8   8   8   8
#     4   8  15  26  43  68  98 129 160 196 241 287
#     4   9  15  27  49  72  92 123 165 206 248 292
#     4   9  17  30  48  69  92 124 161 198 244 288
#     4  10  19  31  45  69 103 130 156 199 243 283
#     4   8  16  31  48  68  95 121 158 212 253 282
#     4  10  18  28  45  68  94 132 167 186 220 284
#     4   8  15  27  43  65  90 114 152 199 229 265
#     4   8  14  27  42  66 103 127 147 192 241 281
#
# _framework density 20.007104000000002
#
# number of rings (size 3 to 8) (size 9 to 14) (size 15 to 20)
#    0.000    3.182    0.000    3.545    1.273    0.364 
#    0.000    4.545    0.000    0.545    0.000   37.545 
#    0.000    0.000    0.000    0.000    0.000    0.000 
#
# Total GULP energy -245162.092902 kJ/mol
# GULP energy per Si atom -5571.865748 kJ/mol
# Density = 1.996157 g / cm^3
# Si number density = 20.007104 Si / 1000 Ang^3
#
#
#
# Elastic Constant Matrix: (Units=GPa)
#
#
# Indices 1 2 3 4 5 6 
#
# 1 35.8072 9.6031 7.9931 0.0000 0.0000 0.0000
# 2 9.6031 186.3814 91.6523 0.0000 0.0000 0.0000
# 3 7.9931 91.6523 141.9921 0.0000 0.0000 0.0000
# 4 0.0000 0.0000 0.0000 22.9511 0.0000 0.0000
# 5 0.0000 0.0000 0.0000 0.0000 12.7459 0.0000
# 6 0.0000 0.0000 0.0000 0.0000 0.0000 3.3863
#
#
#
# Elastic Compliance Matrix: (Units=1/GPa)
#
#
# Indices 1 2 3 4 5 6 
#
# 1 0.028407 -0.000992 -0.000959 0.000000 0.000000 0.000000
# 2 -0.000992 0.007895 -0.005040 0.000000 0.000000 0.000000
# 3 -0.000959 -0.005040 0.010350 0.000000 0.000000 0.000000
# 4 0.000000 0.000000 0.000000 0.043571 0.000000 0.000000
# 5 0.000000 0.000000 0.000000 0.000000 0.078457 0.000000
# 6 0.000000 0.000000 0.000000 0.000000 0.000000 0.295306
#
#
# Mechanical properties :
#
#
# Convention : Reuss Voigt Hill
#
# Bulk Modulus (GPa) = 30.60895 64.74199 47.67547
# Shear Modulus (GPa) = 10.22793 24.81214 17.52003
#
# Velocity S-wave (km/s) = 2.26346 3.52542 2.96242
# Velocity P-wave (km/s) = 4.70779 7.00009 5.96508
#
# Compressibility (1/GPa) = 0.03267019
#
# Stress axis : x y z
#
# Youngs Moduli (GPa) = 35.20205 126.66367 96.61950
#
# Poissons Ratio (x) = 0.12568 0.09263
# Poissons Ratio (y) = 0.03493 0.48697
# Poissons Ratio (z) = 0.03375 0.63840
#
# Static dielectric constant tensor:
#      x y z
#    x 1.747680 0.000000 0.000000 
#    y 0.000000 1.705590 0.000000 
#    z 0.000000 0.000000 1.719360 
# 
# From -- ./inp_files/50632.got.cif
#   From: 2010.05.17/outbox.cif.g08.bks.cpg/sg71_26_cif.got.tgz:50632.got - 2010.06.03 16:22:01.
