data_PCOD9517285
_publ_section_title
;
Structure prediction by ZEFSAII (Michael W. Deem and Ramdas Pophale) SiO2 
 PCOD9517285
Probable space group: I M M M
;
_chemical_formula_sum "Si O2"
_cell_formula_units_Z 68
_cell_length_a 19.653521
_cell_length_b 12.179902
_cell_length_c 14.822016
_cell_angle_alpha 90.000000
_cell_angle_beta 90.000000
_cell_angle_gamma 90.000000
_cell_volume 3548.063949
_symmetry_space_group_name_H-M "I M M M"
_symmetry_group_IT_number 71
_symmetry_cell_setting 'orthorhombic'
loop_
_space_group_symop_operation_xyz
x,y,z
-x,-y,z
x,-y,-z
-x,y,-z
-x,-y,-z
x,y,-z
-x,y,z
x,-y,z
1/2+x,1/2+y,1/2+z
1/2-x,1/2-y,1/2+z
1/2+x,1/2-y,1/2-z
1/2-x,1/2+y,1/2-z
1/2-x,1/2-y,1/2-z
1/2+x,1/2+y,1/2-z
1/2-x,1/2+y,1/2+z
1/2+x,1/2-y,1/2+z
loop_
_atom_site_type_symbol
_atom_site_label
_atom_site_fract_x
_atom_site_fract_y
_atom_site_fract_z
Si Si1 0.811349 0.279586 0.500000
Si Si2 0.574877 0.500000 0.170674
Si Si3 0.229736 0.000000 0.000000
Si Si4 0.076559 0.756624 0.356672
Si Si5 0.385470 0.500000 0.640466
Si Si6 0.176835 0.366227 0.000000
Si Si7 0.423135 0.251802 0.360304
O O1 0.770238 0.389916 0.500000
O O2 0.861082 0.285651 0.413871
O O3 0.754375 0.182103 0.500000
O O4 0.500000 0.500000 0.217924
O O5 0.577783 0.613207 0.119845
O O6 0.626921 0.500000 0.252371
O O7 0.183412 0.000000 0.087358
O O8 0.085476 0.744184 0.248608
O O9 0.000000 0.715889 0.378667
O O10 0.419479 0.617358 0.618189
O O11 0.134088 0.315065 0.915121
O O12 0.176466 0.500000 0.000000
O O13 0.500000 0.213411 0.382103
#
# Coordination Sequence:
#
# PCOD9517285 Si02
#       7
#     8   8   4  16   8   8  16
#     4  12  25  43  59  86 127 161 201 248 294 361
#     4   8  16  33  61  96 117 141 195 255 304 352
#     4  12  24  40  54  84 120 158 206 244 298 358
#     4   9  20  39  65  92 118 156 204 252 301 347
#     4  10  16  36  60  91 121 145 195 257 297 346
#     4  12  27  42  57  92 127 164 199 236 301 377
#     4  10  20  40  67  93 119 155 204 254 300 348
#
# _framework density 19.165382000000001
#
# number of rings (size 3 to 8) (size 9 to 14) (size 15 to 20)
#    0.000    1.882    2.353    3.176    1.647    1.882 
#    2.118    6.176    0.000    0.000    0.000    0.000 
#    0.000    0.000    0.000    0.000    0.000    0.000 
#
# Total GULP energy -189399.816680 kJ/mol
# GULP energy per Si atom -5570.582844 kJ/mol
# Density = 1.912176 g / cm^3
# Si number density = 19.165382 Si / 1000 Ang^3
#
#
#
# Elastic Constant Matrix: (Units=GPa)
#
#
# Indices 1 2 3 4 5 6 
#
# 1 149.6659 41.6824 68.4666 0.0000 0.0000 0.0000
# 2 41.6824 82.0359 24.0016 0.0000 0.0000 0.0000
# 3 68.4666 24.0016 84.3059 0.0000 0.0000 0.0000
# 4 0.0000 0.0000 0.0000 34.7756 0.0000 0.0000
# 5 0.0000 0.0000 0.0000 0.0000 47.2849 0.0000
# 6 0.0000 0.0000 0.0000 0.0000 0.0000 44.0709
#
#
#
# Elastic Compliance Matrix: (Units=1/GPa)
#
#
# Indices 1 2 3 4 5 6 
#
# 1 0.011427 -0.003372 -0.008320 0.000000 0.000000 0.000000
# 2 -0.003372 0.014292 -0.001331 0.000000 0.000000 0.000000
# 3 -0.008320 -0.001331 0.018997 0.000000 0.000000 0.000000
# 4 0.000000 0.000000 0.000000 0.028756 0.000000 0.000000
# 5 0.000000 0.000000 0.000000 0.000000 0.021148 0.000000
# 6 0.000000 0.000000 0.000000 0.000000 0.000000 0.022691
#
#
# Mechanical properties :
#
#
# Convention : Reuss Voigt Hill
#
# Bulk Modulus (GPa) = 53.55771 64.92320 59.24046
# Shear Modulus (GPa) = 33.42706 37.35007 35.38856
#
# Velocity S-wave (km/s) = 4.18082 4.41934 4.30173
# Velocity P-wave (km/s) = 7.16319 7.74530 7.45992
#
# Compressibility (1/GPa) = 0.01867145
#
# Stress axis : x y z
#
# Youngs Moduli (GPa) = 87.51511 69.96781 52.63941
#
# Poissons Ratio (x) = 0.23591 0.43795
# Poissons Ratio (y) = 0.29507 0.07005
# Poissons Ratio (z) = 0.72811 0.09311
#
# Static dielectric constant tensor:
#      x y z
#    x 1.686780 0.000000 0.000000 
#    y 0.000000 1.668070 0.000000 
#    z 0.000000 0.000000 1.698040 
# 
# From -- ./inp_files/37568.got.cif
#   From: 2010.05.17/outbox.cif.g08.bks.cpg/sg71_19_cif.got.tgz:37568.got - 2010.06.03 16:22:01.
