data_PCOD9517653
_publ_section_title
;
Structure prediction by ZEFSAII (Michael W. Deem and Ramdas Pophale) SiO2 
 PCOD9517653
Probable space group: I M M M
;
_chemical_formula_sum "Si O2"
_cell_formula_units_Z 120
_cell_length_a 25.948818
_cell_length_b 7.304360
_cell_length_c 29.497799
_cell_angle_alpha 90.000000
_cell_angle_beta 90.000000
_cell_angle_gamma 90.000000
_cell_volume 5590.998317
_symmetry_space_group_name_H-M "I M M M"
_symmetry_group_IT_number 71
_symmetry_cell_setting 'orthorhombic'
loop_
_space_group_symop_operation_xyz
x,y,z
-x,-y,z
x,-y,-z
-x,y,-z
-x,-y,-z
x,y,-z
-x,y,z
x,-y,z
1/2+x,1/2+y,1/2+z
1/2-x,1/2-y,1/2+z
1/2+x,1/2-y,1/2-z
1/2-x,1/2+y,1/2-z
1/2-x,1/2-y,1/2-z
1/2+x,1/2+y,1/2-z
1/2-x,1/2+y,1/2+z
1/2+x,1/2-y,1/2+z
loop_
_atom_site_type_symbol
_atom_site_label
_atom_site_fract_x
_atom_site_fract_y
_atom_site_fract_z
Si Si1 0.160068 0.777047 0.687806
Si Si2 0.000000 0.223344 0.552727
Si Si3 0.358404 0.286659 0.711381
Si Si4 0.392514 0.277434 0.902300
Si Si5 0.233044 0.279745 0.141870
Si Si6 0.440715 0.276107 0.645163
Si Si7 0.284106 0.722962 0.948446
Si Si8 0.061651 0.220668 0.048045
O O1 0.154113 0.710553 0.739152
O O2 0.118214 0.722636 0.649874
O O3 0.215326 0.722146 0.668192
O O4 0.160341 0.000000 0.688061
O O5 0.053022 0.282668 0.577048
O O6 0.000000 0.277491 0.500000
O O7 0.000000 0.000000 0.553656
O O8 0.368754 0.500000 0.719694
O O9 0.314306 0.278215 0.673081
O O10 0.408383 0.207993 0.687149
O O11 0.392944 0.500000 0.903358
O O12 0.341547 0.223379 0.931075
O O13 0.231274 0.500000 0.140910
O O14 0.242547 0.219312 0.089837
O O15 0.500000 0.222710 0.647687
O O16 0.439498 0.500000 0.644919
O O17 0.418001 0.215947 0.596457
O O18 0.283909 0.500000 0.948563
O O19 0.274811 0.783071 0.000000
O O20 0.000000 0.258601 0.048445
O O21 0.066266 0.000000 0.047563
O O22 0.082747 0.288930 0.000000
#
# Coordination Sequence:
#
# PCOD9517653 Si02
#       8
#    16   8  16  16  16  16  16  16
#     4   8  15  27  40  56  78 106 140 174 207 245
#     4   9  14  18  28  50  82 116 145 177 218 257
#     4  10  18  28  43  62  84 109 137 172 211 247
#     4   8  13  21  32  51  79 110 144 178 208 248
#     4   9  17  29  45  62  81 106 140 177 207 244
#     4   8  14  24  36  53  77 102 129 158 191 239
#     4   8  13  23  40  58  77 106 142 174 207 253
#     4   7   9  15  29  46  64  90 122 151 178 214
#
# _framework density 21.463072
#
# number of rings (size 3 to 8) (size 9 to 14) (size 15 to 20)
#    0.000    3.667    0.000    3.600    0.000    1.600 
#    1.200    0.667    0.000    1.600    0.000    0.000 
#    0.000    0.000    0.000   13.667    0.000   41.667 
#
# Total GULP energy -334357.356117 kJ/mol
# GULP energy per Si atom -5572.622602 kJ/mol
# Density = 2.141422 g / cm^3
# Si number density = 21.463072 Si / 1000 Ang^3
#
#
#
# Elastic Constant Matrix: (Units=GPa)
#
#
# Indices 1 2 3 4 5 6 
#
# 1 59.1015 -7.8344 58.2848 0.0000 0.0000 0.0000
# 2 -7.8344 85.7235 0.7133 0.0000 0.0000 0.0000
# 3 58.2848 0.7133 207.8752 0.0000 0.0000 0.0000
# 4 0.0000 0.0000 0.0000 -8.6095 0.0000 0.0000
# 5 0.0000 0.0000 0.0000 0.0000 22.8684 0.0000
# 6 0.0000 0.0000 0.0000 0.0000 0.0000 -7.0652
#
#
#
# Elastic Compliance Matrix: (Units=1/GPa)
#
#
# Indices 1 2 3 4 5 6 
#
# 1 0.023806 0.002231 -0.006682 0.000000 0.000000 0.000000
# 2 0.002231 0.011875 -0.000666 0.000000 0.000000 0.000000
# 3 -0.006682 -0.000666 0.006687 0.000000 0.000000 0.000000
# 4 0.000000 0.000000 0.000000 -0.116151 0.000000 0.000000
# 5 0.000000 0.000000 0.000000 0.000000 0.043728 0.000000
# 6 0.000000 0.000000 0.000000 0.000000 0.000000 -0.141539
#
#
# Mechanical properties :
#
#
# Convention : Reuss Voigt Hill
#
# Bulk Modulus (GPa) = 31.12138 50.55861 40.84000
# Shear Modulus (GPa) = -33.18997 21.54118 -5.82440
#
# Velocity S-wave (km/s) = -3.93666 3.17146 -1.64911
# Velocity P-wave (km/s) = 2.47622 6.08425 3.92979
#
# Compressibility (1/GPa) = 0.03213225
#
# Stress axis : x y z
#
# Youngs Moduli (GPa) = 42.00637 84.21136 149.55476
#
# Poissons Ratio (x) = -0.18790 0.99939
# Poissons Ratio (y) = -0.09373 0.09966
# Poissons Ratio (z) = 0.28071 0.05612
#
# Static dielectric constant tensor:
#      x y z
#    x 1.741500 0.000000 0.000000 
#    y 0.000000 1.913390 0.000000 
#    z 0.000000 0.000000 1.805640 
# 
# From -- ./inp_files/67219.got.cif
#   From: 2010.05.17/outbox.cif.g08.bks.cpg/sg71_34_cif.got.tgz:67219.got - 2010.06.03 16:22:01.
