data_PCOD9517378
_publ_section_title
;
Structure prediction by ZEFSAII (Michael W. Deem and Ramdas Pophale) SiO2 
 PCOD9517378
Probable space group: I M M M
;
_chemical_formula_sum "Si O2"
_cell_formula_units_Z 76
_cell_length_a 14.184648
_cell_length_b 21.705703
_cell_length_c 14.442858
_cell_angle_alpha 90.000000
_cell_angle_beta 90.000000
_cell_angle_gamma 90.000000
_cell_volume 4446.779149
_symmetry_space_group_name_H-M "I M M M"
_symmetry_group_IT_number 71
_symmetry_cell_setting 'orthorhombic'
loop_
_space_group_symop_operation_xyz
x,y,z
-x,-y,z
x,-y,-z
-x,y,-z
-x,-y,-z
x,y,-z
-x,y,z
x,-y,z
1/2+x,1/2+y,1/2+z
1/2-x,1/2-y,1/2+z
1/2+x,1/2-y,1/2-z
1/2-x,1/2+y,1/2-z
1/2-x,1/2-y,1/2-z
1/2+x,1/2+y,1/2-z
1/2-x,1/2+y,1/2+z
1/2+x,1/2-y,1/2+z
loop_
_atom_site_type_symbol
_atom_site_label
_atom_site_fract_x
_atom_site_fract_y
_atom_site_fract_z
Si Si1 0.854667 0.000000 0.000000
Si Si2 0.387728 0.428036 0.000000
Si Si3 0.797382 0.885292 0.687865
Si Si4 0.892877 0.000000 0.786686
Si Si5 0.111508 0.127989 0.000000
Si Si6 0.609060 0.292176 0.684232
Si Si7 0.891103 0.652969 0.888633
O O1 0.817713 0.929879 0.000000
O O2 0.899570 0.000000 0.897435
O O3 0.350155 0.394377 0.909208
O O4 0.355776 0.500000 0.000000
O O5 0.500000 0.428243 0.000000
O O6 0.824907 0.821334 0.737585
O O7 0.687059 0.887612 0.662929
O O8 0.837202 0.940099 0.751884
O O9 0.000000 0.000000 0.748400
O O10 0.123681 0.168543 0.909122
O O11 0.000000 0.107067 0.000000
O O12 0.500000 0.301634 0.713511
O O13 0.619614 0.221465 0.654185
O O14 0.000000 0.633850 0.875399
O O15 0.874045 0.654901 0.000000
#
# Coordination Sequence:
#
# PCOD9517378 Si02
#       7
#     4   8  16   8   8  16  16
#     4  12  21  32  52  88 123 146 173 214 268 336
#     4  11  22  35  51  76 116 151 179 214 268 343
#     4  12  22  35  54  83 111 148 185 222 278 332
#     4  12  23  35  57  87 120 146 174 220 281 345
#     4  10  17  27  49  82 116 143 170 213 267 331
#     4  10  19  33  56  83 111 142 180 226 279 331
#     4  10  21  39  58  77 105 146 193 240 277 314
#
# _framework density 17.091021999999999
#
# number of rings (size 3 to 8) (size 9 to 14) (size 15 to 20)
#    0.000    1.158    5.263    3.474    0.000    0.000 
#    0.000    0.526    0.000    1.895    0.000    3.684 
#    0.000    0.000    0.000    0.000    0.000    0.000 
#
# Total GULP energy -211806.825594 kJ/mol
# GULP energy per Si atom -5573.863831 kJ/mol
# Density = 1.705212 g / cm^3
# Si number density = 17.091022 Si / 1000 Ang^3
#
#
#
# Elastic Constant Matrix: (Units=GPa)
#
#
# Indices 1 2 3 4 5 6 
#
# 1 112.5598 34.1298 46.1934 0.0000 0.0000 0.0000
# 2 34.1298 41.8539 17.0035 0.0000 0.0000 0.0000
# 3 46.1934 17.0035 109.1143 0.0000 0.0000 0.0000
# 4 0.0000 0.0000 0.0000 9.4081 0.0000 0.0000
# 5 0.0000 0.0000 0.0000 0.0000 10.7989 0.0000
# 6 0.0000 0.0000 0.0000 0.0000 0.0000 21.2402
#
#
#
# Elastic Compliance Matrix: (Units=1/GPa)
#
#
# Indices 1 2 3 4 5 6 
#
# 1 0.013422 -0.009220 -0.004245 0.000000 0.000000 0.000000
# 2 -0.009220 0.031841 -0.001058 0.000000 0.000000 0.000000
# 3 -0.004245 -0.001058 0.011127 0.000000 0.000000 0.000000
# 4 0.000000 0.000000 0.000000 0.106291 0.000000 0.000000
# 5 0.000000 0.000000 0.000000 0.000000 0.092602 0.000000
# 6 0.000000 0.000000 0.000000 0.000000 0.000000 0.047081
#
#
# Mechanical properties :
#
#
# Convention : Reuss Voigt Hill
#
# Bulk Modulus (GPa) = 36.57384 50.90906 43.74145
# Shear Modulus (GPa) = 14.68314 19.36953 17.02634
#
# Velocity S-wave (km/s) = 2.93425 3.37013 3.15971
# Velocity P-wave (km/s) = 5.73809 6.70786 6.24183
#
# Compressibility (1/GPa) = 0.02734195
#
# Stress axis : x y z
#
# Youngs Moduli (GPa) = 74.50333 31.40559 89.87191
#
# Poissons Ratio (x) = 0.28957 0.38155
# Poissons Ratio (y) = 0.68695 0.09513
# Poissons Ratio (z) = 0.31630 0.03324
#
# Static dielectric constant tensor:
#      x y z
#    x 1.578120 0.000000 0.000000 
#    y 0.000000 1.610030 0.000000 
#    z 0.000000 0.000000 1.568850 
# 
# From -- ./inp_files/32701.got.cif
#   From: 2010.05.17/outbox.cif.g08.bks.cpg/sg71_17_cif.got.tgz:32701.got - 2010.06.03 16:22:01.
