data_PCOD9517062
_publ_section_title
;
Structure prediction by ZEFSAII (Michael W. Deem and Ramdas Pophale) SiO2 
 PCOD9517062
Probable space group: F D D D
;
_chemical_formula_sum "Si O2"
_cell_formula_units_Z 112
_cell_length_a 23.417453
_cell_length_b 19.411627
_cell_length_c 10.595886
_cell_angle_alpha 90.000000
_cell_angle_beta 90.000000
_cell_angle_gamma 90.000000
_cell_volume 4816.581042
_symmetry_space_group_name_H-M "F D D D"
_symmetry_group_IT_number 70
_space_group.IT_coordinate_system_code '2'
_symmetry_cell_setting 'orthorhombic'
loop_
_space_group_symop_operation_xyz
x,y,z
1/4-x,1/4-y,z
x,1/4-y,1/4-z
1/4-x,y,1/4-z
-x,-y,-z
3/4+x,3/4+y,-z
-x,3/4+y,3/4+z
3/4+x,-y,3/4+z
x,1/2+y,1/2+z
1/4-x,3/4-y,1/2+z
x,3/4-y,3/4-z
1/4-x,1/2+y,3/4-z
-x,1/2-y,1/2-z
3/4+x,1/4+y,1/2-z
-x,1/4+y,1/4+z
3/4+x,1/2-y,1/4+z
1/2+x,y,1/2+z
3/4-x,1/4-y,1/2+z
1/2+x,1/4-y,3/4-z
3/4-x,y,3/4-z
1/2-x,-y,1/2-z
1/4+x,3/4+y,1/2-z
1/2-x,3/4+y,1/4+z
1/4+x,-y,1/4+z
1/2+x,1/2+y,z
3/4-x,3/4-y,z
1/2+x,3/4-y,1/4-z
3/4-x,1/2+y,1/4-z
1/2-x,1/2-y,-z
1/4+x,1/4+y,-z
1/2-x,1/4+y,3/4+z
1/4+x,1/2-y,3/4+z
loop_
_atom_site_type_symbol
_atom_site_label
_atom_site_fract_x
_atom_site_fract_y
_atom_site_fract_z
Si Si1 0.375000 0.375000 0.134436
Si Si2 0.123906 0.875000 0.875000
Si Si3 0.673694 0.501515 0.518430
Si Si4 0.125000 0.949999 0.125000
Si Si5 0.788705 0.445674 0.449601
O O1 0.333108 0.328316 0.216695
O O2 0.412128 0.326295 0.046185
O O3 0.092128 0.944326 0.834888
O O4 0.147146 0.848397 0.739745
O O5 0.625000 0.495791 0.625000
O O6 0.739634 0.481137 0.534277
O O7 0.180250 0.999899 0.143918
O O8 0.772582 0.375000 0.375000
#
# Coordination Sequence:
#
# PCOD9517062 Si02
#       5
#    16  16  32  16  32
#     4  12  26  50  74 120 156 208 270 338 406 480
#     4  12  24  44  76 109 153 204 264 324 396 488
#     4  12  28  47  73 113 162 211 265 328 409 484
#     4  12  25  48  74 119 158 202 268 334 410 481
#     4  12  24  47  83 110 156 204 273 343 396 483
#
# _framework density 23.253008999999999
#
# number of rings (size 3 to 8) (size 9 to 14) (size 15 to 20)
#    0.000    0.000    8.571    0.429    4.000    3.429 
#    5.143    0.000    0.000    0.000    0.000    0.000 
#    0.000    0.000    0.000    0.000    0.000    0.000 
#
# Total GULP energy -155998.244748 kJ/mol
# GULP energy per Si atom -5571.365884 kJ/mol
# Density = 2.320008 g / cm^3
# Si number density = 23.253009 Si / 1000 Ang^3
#
#
#
# Elastic Constant Matrix: (Units=GPa)
#
#
# Indices 1 2 3 4 5 6 
#
# 1 133.9340 32.8543 41.3795 0.0000 0.0000 0.0000
# 2 32.8543 117.8530 30.8830 0.0000 0.0000 0.0000
# 3 41.3795 30.8830 86.4900 0.0000 0.0000 0.0000
# 4 0.0000 0.0000 0.0000 40.1325 0.0000 0.0000
# 5 0.0000 0.0000 0.0000 0.0000 31.2707 0.0000
# 6 0.0000 0.0000 0.0000 0.0000 0.0000 24.5530
#
#
#
# Elastic Compliance Matrix: (Units=1/GPa)
#
#
# Indices 1 2 3 4 5 6 
#
# 1 0.009003 -0.001524 -0.003763 0.000000 0.000000 0.000000
# 2 -0.001524 0.009619 -0.002706 0.000000 0.000000 0.000000
# 3 -0.003763 -0.002706 0.014329 0.000000 0.000000 0.000000
# 4 0.000000 0.000000 0.000000 0.024917 0.000000 0.000000
# 5 0.000000 0.000000 0.000000 0.000000 0.031979 0.000000
# 6 0.000000 0.000000 0.000000 0.000000 0.000000 0.040728
#
#
# Mechanical properties :
#
#
# Convention : Reuss Voigt Hill
#
# Bulk Modulus (GPa) = 58.94376 60.94560 59.94468
# Shear Modulus (GPa) = 32.84836 34.73528 33.79182
#
# Velocity S-wave (km/s) = 3.76260 3.86916 3.81625
# Velocity P-wave (km/s) = 6.65433 6.79906 6.72708
#
# Compressibility (1/GPa) = 0.01696532
#
# Stress axis : x y z
#
# Youngs Moduli (GPa) = 111.07718 103.96203 69.79067
#
# Poissons Ratio (x) = 0.15840 0.26263
# Poissons Ratio (y) = 0.16924 0.18883
# Poissons Ratio (z) = 0.41800 0.28129
#
# Static dielectric constant tensor:
#      x y z
#    x 1.940860 0.000000 0.000000 
#    y 0.000000 1.880610 0.000000 
#    z 0.000000 0.000000 2.039240 
# 
# From -- ./inp_files/16312.got.cif
#   From: 2010.05.17/outbox.cif.g08.bks.cpg/sg70_9_cif.got.tgz:16312.got - 2010.06.03 15:57:51.
