data_PCOD9517421
_publ_section_title
;
Structure prediction by ZEFSAII (Michael W. Deem and Ramdas Pophale) SiO2 
 PCOD9517421
Probable space group: I M M M
;
_chemical_formula_sum "Si O2"
_cell_formula_units_Z 104
_cell_length_a 24.439899
_cell_length_b 13.128183
_cell_length_c 19.866542
_cell_angle_alpha 90.000000
_cell_angle_beta 90.000000
_cell_angle_gamma 90.000000
_cell_volume 6374.209136
_symmetry_space_group_name_H-M "I M M M"
_symmetry_group_IT_number 71
_symmetry_cell_setting 'orthorhombic'
loop_
_space_group_symop_operation_xyz
x,y,z
-x,-y,z
x,-y,-z
-x,y,-z
-x,-y,-z
x,y,-z
-x,y,z
x,-y,z
1/2+x,1/2+y,1/2+z
1/2-x,1/2-y,1/2+z
1/2+x,1/2-y,1/2-z
1/2-x,1/2+y,1/2-z
1/2-x,1/2-y,1/2-z
1/2+x,1/2+y,1/2-z
1/2-x,1/2+y,1/2+z
1/2+x,1/2-y,1/2+z
loop_
_atom_site_type_symbol
_atom_site_label
_atom_site_fract_x
_atom_site_fract_y
_atom_site_fract_z
Si Si1 0.816430 0.740714 0.000000
Si Si2 0.563829 0.882914 0.919047
Si Si3 0.704345 0.620627 0.000000
Si Si4 0.344734 0.380944 0.259283
Si Si5 0.562647 0.382185 0.363719
Si Si6 0.768517 0.881788 0.885144
Si Si7 0.438003 0.250732 0.500000
Si Si8 0.161731 0.247696 0.624558
O O1 0.767619 0.658416 0.000000
O O2 0.804831 0.813698 0.064222
O O3 0.878213 0.696700 0.000000
O O4 0.500000 0.865102 0.903679
O O5 0.603946 0.802719 0.885559
O O6 0.577022 0.000000 0.900105
O O7 0.570297 0.875801 0.000000
O O8 0.675005 0.668348 0.065126
O O9 0.701605 0.500000 0.000000
O O10 0.352324 0.500000 0.239690
O O11 0.396560 0.348480 0.305039
O O12 0.294299 0.375992 0.311020
O O13 0.336117 0.310424 0.195217
O O14 0.500000 0.379121 0.339745
O O15 0.577160 0.500000 0.379305
O O16 0.564625 0.319038 0.432565
O O17 0.708443 0.833698 0.883200
O O18 0.768142 0.000000 0.906408
O O19 0.500000 0.202654 0.500000
#
# Coordination Sequence:
#
# PCOD9517421 Si02
#       8
#     8  16   8  16  16  16   8  16
#     4  10  19  32  54  79 103 131 167 205 258 311
#     4   9  18  34  56  81 105 126 157 208 265 311
#     4  10  22  37  52  72 101 134 174 215 247 293
#     4  10  20  32  47  68 103 140 171 208 250 301
#     4   9  17  28  44  70 102 135 166 200 247 301
#     4  10  20  32  49  76 106 130 161 212 263 310
#     4  10  17  28  50  77 102 127 162 206 253 301
#     4  11  20  34  53  75  97 135 176 209 252 302
#
# _framework density 16.315750000000001
#
# number of rings (size 3 to 8) (size 9 to 14) (size 15 to 20)
#    0.000    2.154    2.308    2.308    0.000    2.154 
#    0.000    0.000    0.000    3.000    0.000    0.000 
#    0.000    0.000    0.000    0.000    0.000    0.000 
#
# Total GULP energy -289833.077704 kJ/mol
# GULP energy per Si atom -5573.713033 kJ/mol
# Density = 1.627861 g / cm^3
# Si number density = 16.315750 Si / 1000 Ang^3
#
#
#
# Elastic Constant Matrix: (Units=GPa)
#
#
# Indices 1 2 3 4 5 6 
#
# 1 72.5144 38.3679 24.3982 0.0000 0.0000 0.0000
# 2 38.3679 75.0962 28.1532 0.0000 0.0000 0.0000
# 3 24.3982 28.1532 68.2021 0.0000 0.0000 0.0000
# 4 0.0000 0.0000 0.0000 -4.7196 0.0000 0.0000
# 5 0.0000 0.0000 0.0000 0.0000 12.1370 0.0000
# 6 0.0000 0.0000 0.0000 0.0000 0.0000 15.5776
#
#
#
# Elastic Compliance Matrix: (Units=1/GPa)
#
#
# Indices 1 2 3 4 5 6 
#
# 1 0.019542 -0.008712 -0.003395 0.000000 0.000000 0.000000
# 2 -0.008712 0.019638 -0.004990 0.000000 0.000000 0.000000
# 3 -0.003395 -0.004990 0.017936 0.000000 0.000000 0.000000
# 4 0.000000 0.000000 0.000000 -0.211881 0.000000 0.000000
# 5 0.000000 0.000000 0.000000 0.000000 0.082393 0.000000
# 6 0.000000 0.000000 0.000000 0.000000 0.000000 0.064195
#
#
# Mechanical properties :
#
#
# Convention : Reuss Voigt Hill
#
# Bulk Modulus (GPa) = 43.62278 44.18347 43.90312
# Shear Modulus (GPa) = 148.56152 12.92523 80.74338
#
# Velocity S-wave (km/s) = 9.55258 2.81765 7.04240
# Velocity P-wave (km/s) = 12.18456 6.14203 9.64853
#
# Compressibility (1/GPa) = 0.02292380
#
# Stress axis : x y z
#
# Youngs Moduli (GPa) = 51.17198 50.92207 55.75225
#
# Poissons Ratio (x) = 0.44361 0.18926
# Poissons Ratio (y) = 0.44579 0.27820
# Poissons Ratio (z) = 0.17372 0.25409
#
# Static dielectric constant tensor:
#      x y z
#    x 1.576990 0.000000 0.000000 
#    y 0.000000 1.522530 0.000000 
#    z 0.000000 0.000000 1.523950 
# 
# From -- ./inp_files/48866.got.cif
#   From: 2010.05.17/outbox.cif.g08.bks.cpg/sg71_25_cif.got.tgz:48866.got - 2010.06.03 16:22:01.
