data_PCOD9517522
_publ_section_title
;
Structure prediction by ZEFSAII (Michael W. Deem and Ramdas Pophale) SiO2 
 PCOD9517522
Probable space group: I M M M
;
_chemical_formula_sum "Si O2"
_cell_formula_units_Z 82
_cell_length_a 21.410021
_cell_length_b 25.533652
_cell_length_c 8.418329
_cell_angle_alpha 90.000000
_cell_angle_beta 90.000000
_cell_angle_gamma 90.000000
_cell_volume 4602.098639
_symmetry_space_group_name_H-M "I M M M"
_symmetry_group_IT_number 71
_symmetry_cell_setting 'orthorhombic'
loop_
_space_group_symop_operation_xyz
x,y,z
-x,-y,z
x,-y,-z
-x,y,-z
-x,-y,-z
x,y,-z
-x,y,z
x,-y,z
1/2+x,1/2+y,1/2+z
1/2-x,1/2-y,1/2+z
1/2+x,1/2-y,1/2-z
1/2-x,1/2+y,1/2-z
1/2-x,1/2-y,1/2-z
1/2+x,1/2+y,1/2-z
1/2-x,1/2+y,1/2+z
1/2+x,1/2-y,1/2+z
loop_
_atom_site_type_symbol
_atom_site_label
_atom_site_fract_x
_atom_site_fract_y
_atom_site_fract_z
Si Si1 0.614274 0.000000 0.756392
Si Si2 0.875707 0.610306 0.310133
Si Si3 0.000000 0.500000 0.500000
Si Si4 0.929868 0.721713 0.691395
Si Si5 0.309662 0.283201 0.311592
Si Si6 0.262235 0.500000 0.681177
Si Si7 0.260673 0.612822 0.187012
O O1 0.611709 0.060088 0.697674
O O2 0.685994 0.000000 0.820235
O O3 0.554445 0.000000 0.866085
O O4 0.884235 0.597443 0.500000
O O5 0.917600 0.660331 0.274398
O O6 0.803420 0.624240 0.282349
O O7 0.925604 0.727194 0.500000
O O8 0.873722 0.754146 0.767303
O O9 0.000000 0.736548 0.741206
O O10 0.304099 0.287806 0.500000
O O11 0.250000 0.250000 0.250000
O O12 0.306899 0.340705 0.234081
O O13 0.283820 0.500000 0.500000
O O14 0.280883 0.445961 0.765838
O O15 0.247829 0.614702 0.000000
#
# Coordination Sequence:
#
# PCOD9517522 Si02
#       7
#     8  16   2  16  16   8  16
#     4  10  18  25  43  70 101 135 184 231 266 314
#     4  10  18  32  48  73 106 143 187 234 281 327
#     4  12  16  24  44  72 102 136 200 232 264 314
#     4  10  22  36  54  79 112 149 192 237 285 342
#     4  12  23  38  58  82 109 147 192 239 289 343
#     4  10  19  37  52  80 111 141 177 228 280 329
#     4  11  21  34  57  83 110 143 181 231 285 342
#
# _framework density 17.817957
#
# number of rings (size 3 to 8) (size 9 to 14) (size 15 to 20)
#    0.000    1.366    3.415    4.976    1.366    0.390 
#    0.000    0.000    0.000    0.000    0.000    3.415 
#    0.000    5.463    0.000    0.000    0.000    0.000 
#
# Total GULP energy -228246.777868 kJ/mol
# GULP energy per Si atom -5566.994582 kJ/mol
# Density = 1.777740 g / cm^3
# Si number density = 17.817957 Si / 1000 Ang^3
#
#
#
# Elastic Constant Matrix: (Units=GPa)
#
#
# Indices 1 2 3 4 5 6 
#
# 1 79.6612 52.0454 18.0769 0.0000 0.0000 0.0000
# 2 52.0454 130.5549 34.6098 0.0000 0.0000 0.0000
# 3 18.0769 34.6098 64.9779 0.0000 0.0000 0.0000
# 4 0.0000 0.0000 0.0000 18.7175 0.0000 0.0000
# 5 0.0000 0.0000 0.0000 0.0000 18.7948 0.0000
# 6 0.0000 0.0000 0.0000 0.0000 0.0000 8.5889
#
#
#
# Elastic Compliance Matrix: (Units=1/GPa)
#
#
# Indices 1 2 3 4 5 6 
#
# 1 0.017069 -0.006458 -0.001309 0.000000 0.000000 0.000000
# 2 -0.006458 0.011362 -0.004255 0.000000 0.000000 0.000000
# 3 -0.001309 -0.004255 0.018021 0.000000 0.000000 0.000000
# 4 0.000000 0.000000 0.000000 0.053426 0.000000 0.000000
# 5 0.000000 0.000000 0.000000 0.000000 0.053206 0.000000
# 6 0.000000 0.000000 0.000000 0.000000 0.000000 0.116430
#
#
# Mechanical properties :
#
#
# Convention : Reuss Voigt Hill
#
# Bulk Modulus (GPa) = 44.62742 53.85089 49.23916
# Shear Modulus (GPa) = 16.60982 20.58437 18.59710
#
# Velocity S-wave (km/s) = 3.05650 3.40260 3.23418
# Velocity P-wave (km/s) = 6.12837 6.76205 6.45299
#
# Compressibility (1/GPa) = 0.02240775
#
# Stress axis : x y z
#
# Youngs Moduli (GPa) = 58.58516 88.01289 55.49203
#
# Poissons Ratio (x) = 0.56835 0.07265
# Poissons Ratio (y) = 0.37832 0.23614
# Poissons Ratio (z) = 0.07670 0.37452
#
# Static dielectric constant tensor:
#      x y z
#    x 1.575330 0.000000 0.000000 
#    y 0.000000 1.676010 0.000000 
#    z 0.000000 0.000000 1.645880 
# 
# From -- ./inp_files/10320.got.cif
#   From: 2010.05.17/outbox.cif.g08.bks.cpg/sg71_6_cif.got.tgz:10320.got - 2010.06.03 16:22:01.
