data_PCOD9517598
_publ_section_title
;
Structure prediction by ZEFSAII (Michael W. Deem and Ramdas Pophale) SiO2 
 PCOD9517598
Probable space group: I M M M
;
_chemical_formula_sum "Si O2"
_cell_formula_units_Z 112
_cell_length_a 28.835787
_cell_length_b 13.432039
_cell_length_c 15.925818
_cell_angle_alpha 90.000000
_cell_angle_beta 90.000000
_cell_angle_gamma 90.000000
_cell_volume 6168.442224
_symmetry_space_group_name_H-M "I M M M"
_symmetry_group_IT_number 71
_symmetry_cell_setting 'orthorhombic'
loop_
_space_group_symop_operation_xyz
x,y,z
-x,-y,z
x,-y,-z
-x,y,-z
-x,-y,-z
x,y,-z
-x,y,z
x,-y,z
1/2+x,1/2+y,1/2+z
1/2-x,1/2-y,1/2+z
1/2+x,1/2-y,1/2-z
1/2-x,1/2+y,1/2-z
1/2-x,1/2-y,1/2-z
1/2+x,1/2+y,1/2-z
1/2-x,1/2+y,1/2+z
1/2+x,1/2-y,1/2+z
loop_
_atom_site_type_symbol
_atom_site_label
_atom_site_fract_x
_atom_site_fract_y
_atom_site_fract_z
Si Si1 0.645745 0.801156 0.183797
Si Si2 0.195578 0.881805 0.752586
Si Si3 0.446327 0.118005 0.101227
Si Si4 0.266314 0.882688 0.903616
Si Si5 0.548975 0.116030 0.398997
Si Si6 0.743040 0.119670 0.410446
Si Si7 0.146489 0.614498 0.143627
O O1 0.654349 0.695101 0.230497
O O2 0.594856 0.820882 0.145797
O O3 0.686533 0.823156 0.117120
O O4 0.655321 0.880467 0.257761
O O5 0.225481 0.860873 0.836508
O O6 0.229941 0.860895 0.674502
O O7 0.183309 0.000000 0.752425
O O8 0.500000 0.143275 0.124259
O O9 0.439817 0.000000 0.120321
O O10 0.442456 0.128936 0.000000
O O11 0.277023 0.000000 0.893932
O O12 0.251779 0.867330 0.000000
O O13 0.549496 0.114648 0.500000
O O14 0.500000 0.160858 0.370803
O O15 0.596720 0.163605 0.370502
O O16 0.548620 0.000000 0.370681
O O17 0.764121 0.149375 0.500000
O O18 0.690684 0.158318 0.402684
O O19 0.739827 0.000000 0.411808
O O20 0.142309 0.500000 0.114525
#
# Coordination Sequence:
#
# PCOD9517598 Si02
#       7
#    16  16  16  16  16  16  16
#     4  12  21  32  52  80 104 137 181 228 270 321
#     4  10  22  39  52  72 106 141 184 231 271 320
#     4   9  19  36  57  83 115 147 179 218 267 326
#     4  10  20  35  55  78 108 146 184 227 280 330
#     4   8  14  25  40  60  91 131 167 195 235 301
#     4   9  17  30  47  66  96 136 169 205 258 318
#     4  10  18  27  42  67 100 130 165 211 260 315
#
# _framework density 18.156934
#
# number of rings (size 3 to 8) (size 9 to 14) (size 15 to 20)
#    0.000    2.286    1.429    3.429    0.000    4.571 
#    0.000    2.143    0.000    0.429    0.000    1.000 
#    0.000    0.000    0.000    5.143    0.000    0.143 
#
# Total GULP energy -311917.257622 kJ/mol
# GULP energy per Si atom -5569.951029 kJ/mol
# Density = 1.811561 g / cm^3
# Si number density = 18.156934 Si / 1000 Ang^3
#
#
#
# Elastic Constant Matrix: (Units=GPa)
#
#
# Indices 1 2 3 4 5 6 
#
# 1 103.6006 48.7054 48.8736 0.0000 0.0000 0.0000
# 2 48.7054 88.3598 13.3080 0.0000 0.0000 0.0000
# 3 48.8736 13.3080 106.8603 0.0000 0.0000 0.0000
# 4 0.0000 0.0000 0.0000 5.3138 0.0000 0.0000
# 5 0.0000 0.0000 0.0000 0.0000 29.7603 0.0000
# 6 0.0000 0.0000 0.0000 0.0000 0.0000 19.4552
#
#
#
# Elastic Compliance Matrix: (Units=1/GPa)
#
#
# Indices 1 2 3 4 5 6 
#
# 1 0.016584 -0.008152 -0.006570 0.000000 0.000000 0.000000
# 2 -0.008152 0.015541 0.001793 0.000000 0.000000 0.000000
# 3 -0.006570 0.001793 0.012139 0.000000 0.000000 0.000000
# 4 0.000000 0.000000 0.000000 0.188190 0.000000 0.000000
# 5 0.000000 0.000000 0.000000 0.000000 0.033602 0.000000
# 6 0.000000 0.000000 0.000000 0.000000 0.000000 0.051400
#
#
# Mechanical properties :
#
#
# Convention : Reuss Voigt Hill
#
# Bulk Modulus (GPa) = 54.32709 57.84384 56.08547
# Shear Modulus (GPa) = 14.30823 23.43479 18.87151
#
# Velocity S-wave (km/s) = 2.81023 3.59650 3.22740
# Velocity P-wave (km/s) = 6.36519 7.01237 6.69660
#
# Compressibility (1/GPa) = 0.01840702
#
# Stress axis : x y z
#
# Youngs Moduli (GPa) = 60.29843 64.34660 82.37617
#
# Poissons Ratio (x) = 0.52455 0.54119
# Poissons Ratio (y) = 0.49155 -0.14770
# Poissons Ratio (z) = 0.39614 -0.11537
#
# Static dielectric constant tensor:
#      x y z
#    x 1.668670 0.000000 0.000000 
#    y 0.000000 1.666020 0.000000 
#    z 0.000000 0.000000 1.682940 
# 
# From -- ./inp_files/40359.got.cif
#   From: 2010.05.17/outbox.cif.g08.bks.cpg/sg71_21_cif.got.tgz:40359.got - 2010.06.03 16:22:01.
