data_PCOD9517836
_publ_section_title
;
Structure prediction by ZEFSAII (Michael W. Deem and Ramdas Pophale) SiO2 
 PCOD9517836
Probable space group: I M M M
;
_chemical_formula_sum "Si O2"
_cell_formula_units_Z 116
_cell_length_a 29.731465
_cell_length_b 23.586161
_cell_length_c 8.585033
_cell_angle_alpha 90.000000
_cell_angle_beta 90.000000
_cell_angle_gamma 90.000000
_cell_volume 6020.264009
_symmetry_space_group_name_H-M "I M M M"
_symmetry_group_IT_number 71
_symmetry_cell_setting 'orthorhombic'
loop_
_space_group_symop_operation_xyz
x,y,z
-x,-y,z
x,-y,-z
-x,y,-z
-x,-y,-z
x,y,-z
-x,y,z
x,-y,z
1/2+x,1/2+y,1/2+z
1/2-x,1/2-y,1/2+z
1/2+x,1/2-y,1/2-z
1/2-x,1/2+y,1/2-z
1/2-x,1/2-y,1/2-z
1/2+x,1/2+y,1/2-z
1/2-x,1/2+y,1/2+z
1/2+x,1/2-y,1/2+z
loop_
_atom_site_type_symbol
_atom_site_label
_atom_site_fract_x
_atom_site_fract_y
_atom_site_fract_z
Si Si1 0.574497 0.405404 0.809953
Si Si2 0.361006 0.063516 0.684729
Si Si3 0.050702 0.224012 0.689470
Si Si4 0.699713 0.253561 0.812716
Si Si5 0.763136 0.567196 0.324043
Si Si6 0.119176 0.320879 0.687812
Si Si7 0.673458 0.621017 0.187467
Si Si8 0.000000 0.000000 0.231977
O O1 0.562238 0.340612 0.767309
O O2 0.627210 0.410139 0.765391
O O3 0.539732 0.450330 0.740350
O O4 0.570638 0.411353 0.000000
O O5 0.365767 0.063373 0.500000
O O6 0.308838 0.074435 0.728364
O O7 0.388462 0.115763 0.754163
O O8 0.372053 0.000000 0.744413
O O9 0.052872 0.224061 0.500000
O O10 0.084159 0.273164 0.742861
O O11 0.000000 0.236709 0.737434
O O12 0.750000 0.250000 0.750000
O O13 0.668195 0.201968 0.761346
O O14 0.675205 0.312500 0.768430
O O15 0.701960 0.252911 0.000000
O O16 0.770709 0.588679 0.500000
O O17 0.754975 0.500000 0.330022
O O18 0.719044 0.594998 0.252909
O O19 0.118474 0.321301 0.500000
O O20 0.674379 0.618524 0.000000
#
# Coordination Sequence:
#
# PCOD9517836 Si02
#       8
#    16  16  16  16  16  16  16   4
#     4  10  18  29  46  74 111 146 185 235 287 331
#     4  10  21  37  57  81 109 139 174 219 270 326
#     4   9  16  30  52  76 108 145 181 227 280 329
#     4  10  20  32  47  72 106 141 177 220 271 326
#     4  10  21  36  52  73 104 144 187 227 268 323
#     4  10  19  33  54  80 108 143 184 223 272 330
#     4  10  20  33  49  73 108 145 182 230 283 330
#     4  12  21  28  48  84 117 150 195 248 297 340
#
# _framework density 19.268259
#
# number of rings (size 3 to 8) (size 9 to 14) (size 15 to 20)
#    0.000    2.069    2.069    2.276    0.966    4.966 
#    0.000    0.000    0.000    0.828    0.000    3.862 
#    0.000    0.000    0.000    0.000    0.000    0.000 
#
# Total GULP energy -323095.437005 kJ/mol
# GULP energy per Si atom -5570.610983 kJ/mol
# Density = 1.922440 g / cm^3
# Si number density = 19.268259 Si / 1000 Ang^3
#
#
#
# Elastic Constant Matrix: (Units=GPa)
#
#
# Indices 1 2 3 4 5 6 
#
# 1 68.7989 56.5263 7.4223 0.0000 0.0000 0.0000
# 2 56.5263 148.4608 16.3530 0.0000 0.0000 0.0000
# 3 7.4223 16.3530 4.2273 0.0000 0.0000 0.0000
# 4 0.0000 0.0000 0.0000 15.6634 0.0000 0.0000
# 5 0.0000 0.0000 0.0000 0.0000 5.9396 0.0000
# 6 0.0000 0.0000 0.0000 0.0000 0.0000 41.0913
#
#
#
# Elastic Compliance Matrix: (Units=1/GPa)
#
#
# Indices 1 2 3 4 5 6 
#
# 1 0.021419 -0.006992 -0.010559 0.000000 0.000000 0.000000
# 2 -0.006992 0.014020 -0.041956 0.000000 0.000000 0.000000
# 3 -0.010559 -0.041956 0.417397 0.000000 0.000000 0.000000
# 4 0.000000 0.000000 0.000000 0.063843 0.000000 0.000000
# 5 0.000000 0.000000 0.000000 0.000000 0.168361 0.000000
# 6 0.000000 0.000000 0.000000 0.000000 0.000000 0.024336
#
#
# Mechanical properties :
#
#
# Convention : Reuss Voigt Hill
#
# Bulk Modulus (GPa) = 2.99561 42.45447 22.72504
# Shear Modulus (GPa) = 5.32105 21.95122 13.63614
#
# Velocity S-wave (km/s) = 1.66360 3.37893 2.66315
# Velocity P-wave (km/s) = 2.29088 6.10771 4.61260
#
# Compressibility (1/GPa) = 0.33382155
#
# Stress axis : x y z
#
# Youngs Moduli (GPa) = 46.68701 71.32886 2.39580
#
# Poissons Ratio (x) = 0.49875 0.02530
# Poissons Ratio (y) = 0.32645 0.10052
# Poissons Ratio (z) = 0.49296 2.99268
#
# Static dielectric constant tensor:
#      x y z
#    x 1.661670 0.000000 0.000000 
#    y 0.000000 1.699520 0.000000 
#    z 0.000000 0.000000 1.684060 
# 
# From -- ./inp_files/15387.got.cif
#   From: 2010.05.17/outbox.cif.g08.bks.cpg/sg71_8_cif.got.tgz:15387.got - 2010.06.03 16:22:01.
