data_PCOD9517265
_publ_section_title
;
Structure prediction by ZEFSAII (Michael W. Deem and Ramdas Pophale) SiO2 
 PCOD9517265
Probable space group: I M M M
;
_chemical_formula_sum "Si O2"
_cell_formula_units_Z 88
_cell_length_a 7.906780
_cell_length_b 20.763959
_cell_length_c 28.088460
_cell_angle_alpha 90.000000
_cell_angle_beta 90.000000
_cell_angle_gamma 90.000000
_cell_volume 4611.452575
_symmetry_space_group_name_H-M "I M M M"
_symmetry_group_IT_number 71
_symmetry_cell_setting 'orthorhombic'
loop_
_space_group_symop_operation_xyz
x,y,z
-x,-y,z
x,-y,-z
-x,y,-z
-x,-y,-z
x,y,-z
-x,y,z
x,-y,z
1/2+x,1/2+y,1/2+z
1/2-x,1/2-y,1/2+z
1/2+x,1/2-y,1/2-z
1/2-x,1/2+y,1/2-z
1/2-x,1/2-y,1/2-z
1/2+x,1/2+y,1/2-z
1/2-x,1/2+y,1/2+z
1/2+x,1/2-y,1/2+z
loop_
_atom_site_type_symbol
_atom_site_label
_atom_site_fract_x
_atom_site_fract_y
_atom_site_fract_z
Si Si1 0.792793 0.500000 0.603054
Si Si2 0.207154 0.141573 0.220422
Si Si3 0.689357 0.000000 0.690309
Si Si4 0.251498 0.500000 0.292227
Si Si5 0.302622 0.365294 0.829354
Si Si6 0.800098 0.766304 0.864391
Si Si7 0.796413 0.364934 0.553822
O O1 0.692231 0.500000 0.652658
O O2 0.751608 0.435330 0.574312
O O3 0.000000 0.500000 0.613048
O O4 0.302868 0.075049 0.208585
O O5 0.244099 0.156916 0.275426
O O6 0.260476 0.194989 0.182560
O O7 0.000000 0.130963 0.215876
O O8 0.812890 0.000000 0.736495
O O9 0.713040 0.066304 0.662396
O O10 0.500000 0.000000 0.711498
O O11 0.500000 0.379455 0.829287
O O12 0.269012 0.305937 0.863896
O O13 0.760017 0.809581 0.910023
O O14 0.000000 0.760805 0.859680
O O15 0.732573 0.356649 0.500000
O O16 0.000000 0.363355 0.552425
#
# Coordination Sequence:
#
# PCOD9517265 Si02
#       7
#     8  16   8   8  16  16  16
#     4  10  18  31  51  73  99 137 186 230 267 306
#     4   9  18  30  47  71 103 140 178 218 260 310
#     4  10  20  33  51  79 110 138 173 218 260 308
#     4  10  16  29  47  72 103 145 182 221 260 310
#     4  10  20  35  53  75 104 141 176 210 258 319
#     4  11  21  34  52  76 104 135 174 223 273 318
#     4  10  21  37  55  75 102 139 183 229 274 321
#
# _framework density 19.082923999999998
#
# number of rings (size 3 to 8) (size 9 to 14) (size 15 to 20)
#    0.000    2.000    1.818    2.727    0.000    3.636 
#    0.000    2.273    0.000    1.091    0.000    0.636 
#    0.000    5.091    0.000    0.000    0.000    0.000 
#
# Total GULP energy -244992.038945 kJ/mol
# GULP energy per Si atom -5568.000885 kJ/mol
# Density = 1.903949 g / cm^3
# Si number density = 19.082924 Si / 1000 Ang^3
#
#
#
# Elastic Constant Matrix: (Units=GPa)
#
#
# Indices 1 2 3 4 5 6 
#
# 1 42.1062 19.9418 8.4968 0.0000 0.0000 0.0000
# 2 19.9418 161.2532 47.8542 0.0000 0.0000 0.0000
# 3 8.4968 47.8542 57.7660 0.0000 0.0000 0.0000
# 4 0.0000 0.0000 0.0000 19.8590 0.0000 0.0000
# 5 0.0000 0.0000 0.0000 0.0000 8.6934 0.0000
# 6 0.0000 0.0000 0.0000 0.0000 0.0000 11.1759
#
#
#
# Elastic Compliance Matrix: (Units=1/GPa)
#
#
# Indices 1 2 3 4 5 6 
#
# 1 0.025325 -0.002687 -0.001499 0.000000 0.000000 0.000000
# 2 -0.002687 0.008508 -0.006653 0.000000 0.000000 0.000000
# 3 -0.001499 -0.006653 0.023043 0.000000 0.000000 0.000000
# 4 0.000000 0.000000 0.000000 0.050355 0.000000 0.000000
# 5 0.000000 0.000000 0.000000 0.000000 0.115030 0.000000
# 6 0.000000 0.000000 0.000000 0.000000 0.000000 0.089479
#
#
# Mechanical properties :
#
#
# Convention : Reuss Voigt Hill
#
# Bulk Modulus (GPa) = 28.41092 45.96790 37.18941
# Shear Modulus (GPa) = 14.48645 20.26782 17.37714
#
# Velocity S-wave (km/s) = 2.75822 3.26251 3.02091
# Velocity P-wave (km/s) = 5.00641 6.19135 5.63014
#
# Compressibility (1/GPa) = 0.03519773
#
# Stress axis : x y z
#
# Youngs Moduli (GPa) = 39.48743 117.53509 43.39678
#
# Poissons Ratio (x) = 0.31581 0.06505
# Poissons Ratio (y) = 0.10610 0.28872
# Poissons Ratio (z) = 0.05919 0.78196
#
# Static dielectric constant tensor:
#      x y z
#    x 1.779780 0.000000 0.000000 
#    y 0.000000 1.686700 0.000000 
#    z 0.000000 0.000000 1.647170 
# 
# From -- ./inp_files/12647.got.cif
#   From: 2010.05.17/outbox.cif.g08.bks.cpg/sg71_7_cif.got.tgz:12647.got - 2010.06.03 16:22:01.
