data_PCOD9517637
_publ_section_title
;
Structure prediction by ZEFSAII (Michael W. Deem and Ramdas Pophale) SiO2 
 PCOD9517637
Probable space group: I M M M
;
_chemical_formula_sum "Si O2"
_cell_formula_units_Z 104
_cell_length_a 23.742564
_cell_length_b 11.251412
_cell_length_c 27.191071
_cell_angle_alpha 90.000000
_cell_angle_beta 90.000000
_cell_angle_gamma 90.000000
_cell_volume 7263.751181
_symmetry_space_group_name_H-M "I M M M"
_symmetry_group_IT_number 71
_symmetry_cell_setting 'orthorhombic'
loop_
_space_group_symop_operation_xyz
x,y,z
-x,-y,z
x,-y,-z
-x,y,-z
-x,-y,-z
x,y,-z
-x,y,z
x,-y,z
1/2+x,1/2+y,1/2+z
1/2-x,1/2-y,1/2+z
1/2+x,1/2-y,1/2-z
1/2-x,1/2+y,1/2-z
1/2-x,1/2-y,1/2-z
1/2+x,1/2+y,1/2-z
1/2-x,1/2+y,1/2+z
1/2+x,1/2-y,1/2+z
loop_
_atom_site_type_symbol
_atom_site_label
_atom_site_fract_x
_atom_site_fract_y
_atom_site_fract_z
Si Si1 0.064412 0.775678 0.444322
Si Si2 0.063421 0.000000 0.715175
Si Si3 0.674368 0.500000 0.837355
Si Si4 0.280689 0.753526 0.815365
Si Si5 0.352582 0.500000 0.055460
Si Si6 0.176991 0.640536 0.213060
Si Si7 0.934702 0.737040 0.746731
Si Si8 0.114514 0.359911 0.355624
O O1 0.067834 0.728471 0.500000
O O2 0.082351 0.680925 0.403942
O O3 0.000000 0.814934 0.435985
O O4 0.107228 0.885381 0.440830
O O5 0.070993 0.879940 0.746302
O O6 0.107526 0.000000 0.671003
O O7 0.000000 0.000000 0.695671
O O8 0.696610 0.381728 0.811304
O O9 0.686218 0.500000 0.895748
O O10 0.214380 0.728065 0.821198
O O11 0.295295 0.830323 0.766778
O O12 0.321114 0.811611 0.855994
O O13 0.327150 0.500000 0.000000
O O14 0.181803 0.500000 0.202100
O O15 0.111894 0.677767 0.218263
O O16 0.916706 0.696715 0.691692
O O17 0.000000 0.705904 0.755970
O O18 0.114838 0.500000 0.349337
#
# Coordination Sequence:
#
# PCOD9517637 Si02
#       8
#    16   8   8  16   8  16  16  16
#     4  10  20  32  46  63  82 106 139 181 224 262
#     4  10  18  28  42  61  80 105 141 174 209 246
#     4  12  16  30  48  61  79 110 136 176 226 249
#     4  10  19  30  43  62  80 103 135 173 212 252
#     4  10  19  31  47  64  82 103 137 180 220 261
#     4  10  19  29  43  62  83 104 134 169 209 252
#     4  10  19  30  43  60  82 108 137 171 207 246
#     4  11  21  32  43  59  80 109 143 175 212 257
#
# _framework density 14.317671000000001
#
# number of rings (size 3 to 8) (size 9 to 14) (size 15 to 20)
#    0.000    1.692    5.385    2.538    0.000    5.231 
#    1.385    0.769    0.000    0.000    0.000    0.000 
#    0.000    0.000    0.000    0.000    0.000    3.846 
#
# Total GULP energy -289568.828202 kJ/mol
# GULP energy per Si atom -5568.631312 kJ/mol
# Density = 1.428508 g / cm^3
# Si number density = 14.317671 Si / 1000 Ang^3
#
#
#
# Elastic Constant Matrix: (Units=GPa)
#
#
# Indices 1 2 3 4 5 6 
#
# 1 78.9602 10.7869 7.4889 0.0000 0.0000 0.0000
# 2 10.7869 72.5484 -3.6768 0.0000 0.0000 0.0000
# 3 7.4889 -3.6768 14.9186 0.0000 0.0000 0.0000
# 4 0.0000 0.0000 0.0000 12.7465 0.0000 0.0000
# 5 0.0000 0.0000 0.0000 0.0000 14.4857 0.0000
# 6 0.0000 0.0000 0.0000 0.0000 0.0000 17.7958
#
#
#
# Elastic Compliance Matrix: (Units=1/GPa)
#
#
# Indices 1 2 3 4 5 6 
#
# 1 0.013704 -0.002416 -0.007475 0.000000 0.000000 0.000000
# 2 -0.002416 0.014384 0.004758 0.000000 0.000000 0.000000
# 3 -0.007475 0.004758 0.071955 0.000000 0.000000 0.000000
# 4 0.000000 0.000000 0.000000 0.078453 0.000000 0.000000
# 5 0.000000 0.000000 0.000000 0.000000 0.069034 0.000000
# 6 0.000000 0.000000 0.000000 0.000000 0.000000 0.056193
#
#
# Mechanical properties :
#
#
# Convention : Reuss Voigt Hill
#
# Bulk Modulus (GPa) = 11.13863 21.73612 16.43737
# Shear Modulus (GPa) = 14.53852 19.12749 16.83300
#
# Velocity S-wave (km/s) = 3.19003 3.65901 3.43254
# Velocity P-wave (km/s) = 4.62222 5.75025 5.21682
#
# Compressibility (1/GPa) = 0.08977769
#
# Stress axis : x y z
#
# Youngs Moduli (GPa) = 72.97336 69.52014 13.89752
#
# Poissons Ratio (x) = 0.16798 0.10388
# Poissons Ratio (y) = 0.17633 -0.06613
# Poissons Ratio (z) = 0.54544 -0.33079
#
# Static dielectric constant tensor:
#      x y z
#    x 1.524320 0.000000 0.000000 
#    y 0.000000 1.485420 0.000000 
#    z 0.000000 0.000000 1.482400 
# 
# From -- ./inp_files/71085.got.cif
#   From: 2010.05.17/outbox.cif.g08.bks.cpg/sg71_36_cif.got.tgz:71085.got - 2010.06.03 16:22:01.
