data_PCOD9517709
_publ_section_title
;
Structure prediction by ZEFSAII (Michael W. Deem and Ramdas Pophale) SiO2 
 PCOD9517709
Probable space group: I M M M
;
_chemical_formula_sum "Si O2"
_cell_formula_units_Z 116
_cell_length_a 7.375343
_cell_length_b 26.168121
_cell_length_c 30.070939
_cell_angle_alpha 90.000000
_cell_angle_beta 90.000000
_cell_angle_gamma 90.000000
_cell_volume 5803.657188
_symmetry_space_group_name_H-M "I M M M"
_symmetry_group_IT_number 71
_symmetry_cell_setting 'orthorhombic'
loop_
_space_group_symop_operation_xyz
x,y,z
-x,-y,z
x,-y,-z
-x,y,-z
-x,-y,-z
x,y,-z
-x,y,z
x,-y,z
1/2+x,1/2+y,1/2+z
1/2-x,1/2-y,1/2+z
1/2+x,1/2-y,1/2-z
1/2-x,1/2+y,1/2-z
1/2-x,1/2-y,1/2-z
1/2+x,1/2+y,1/2-z
1/2-x,1/2+y,1/2+z
1/2+x,1/2-y,1/2+z
loop_
_atom_site_type_symbol
_atom_site_label
_atom_site_fract_x
_atom_site_fract_y
_atom_site_fract_z
Si Si1 0.210343 0.592386 0.859820
Si Si2 0.281107 0.235773 0.949143
Si Si3 0.721301 0.441319 0.549887
Si Si4 0.209364 0.143386 0.115666
Si Si5 0.219443 0.147441 0.449157
Si Si6 0.279215 0.695538 0.298216
Si Si7 0.790109 0.310351 0.195772
Si Si8 0.500000 0.500000 0.148796
O O1 0.213938 0.609411 0.911504
O O2 0.280860 0.642143 0.832333
O O3 0.341200 0.544940 0.852297
O O4 0.000000 0.582335 0.847040
O O5 0.500000 0.234631 0.948081
O O6 0.213809 0.194124 0.914626
O O7 0.224846 0.293974 0.938944
O O8 0.225231 0.223982 0.000000
O O9 0.778068 0.426299 0.500000
O O10 0.500000 0.439836 0.549843
O O11 0.773565 0.500000 0.557603
O O12 0.789413 0.402289 0.586711
O O13 0.286211 0.157729 0.163507
O O14 0.000000 0.129575 0.123617
O O15 0.274798 0.135908 0.500000
O O16 0.000000 0.146389 0.448368
O O17 0.500000 0.696920 0.298327
O O18 0.222745 0.680561 0.248678
O O19 0.213572 0.753093 0.309629
O O20 0.000000 0.306708 0.182504
#
# Coordination Sequence:
#
# PCOD9517709 Si02
#       8
#    16  16  16  16  16  16  16   4
#     4  11  23  41  65  89 117 153 199 247 288 339
#     4   9  18  30  46  73 110 148 183 221 278 353
#     4   8  14  25  42  63  91 131 176 221 269 317
#     4  10  18  28  45  72 104 135 178 232 279 330
#     4   9  18  35  57  83 116 152 187 228 287 351
#     4   9  18  31  51  81 114 141 171 220 283 349
#     4   9  19  35  55  81 110 143 182 225 278 343
#     4  12  26  44  65  92 116 158 202 244 293 338
#
# _framework density 19.987397000000001
#
# number of rings (size 3 to 8) (size 9 to 14) (size 15 to 20)
#    0.000    2.621    0.690    2.690    0.966    3.310 
#    0.000    2.069    1.517    1.241    0.000    1.931 
#    0.000    0.000    0.000    0.000    0.000    0.000 
#
# Total GULP energy -323207.370397 kJ/mol
# GULP energy per Si atom -5572.540869 kJ/mol
# Density = 1.994190 g / cm^3
# Si number density = 19.987397 Si / 1000 Ang^3
#
#
#
# Elastic Constant Matrix: (Units=GPa)
#
#
# Indices 1 2 3 4 5 6 
#
# 1 89.7006 17.9035 5.0435 0.0000 0.0000 0.0000
# 2 17.9035 96.9958 66.8160 0.0000 0.0000 0.0000
# 3 5.0435 66.8160 88.5850 0.0000 0.0000 0.0000
# 4 0.0000 0.0000 0.0000 20.5659 0.0000 0.0000
# 5 0.0000 0.0000 0.0000 0.0000 9.0963 0.0000
# 6 0.0000 0.0000 0.0000 0.0000 0.0000 9.6385
#
#
#
# Elastic Compliance Matrix: (Units=1/GPa)
#
#
# Indices 1 2 3 4 5 6 
#
# 1 0.011744 -0.003553 0.002012 0.000000 0.000000 0.000000
# 2 -0.003553 0.022535 -0.016795 0.000000 0.000000 0.000000
# 3 0.002012 -0.016795 0.023842 0.000000 0.000000 0.000000
# 4 0.000000 0.000000 0.000000 0.048624 0.000000 0.000000
# 5 0.000000 0.000000 0.000000 0.000000 0.109935 0.000000
# 6 0.000000 0.000000 0.000000 0.000000 0.000000 0.103750
#
#
# Mechanical properties :
#
#
# Convention : Reuss Voigt Hill
#
# Bulk Modulus (GPa) = 46.62545 50.53415 48.57980
# Shear Modulus (GPa) = 13.72674 20.22804 16.97739
#
# Velocity S-wave (km/s) = 2.62347 3.18471 2.91762
# Velocity P-wave (km/s) = 5.70569 6.23386 5.97561
#
# Compressibility (1/GPa) = 0.02144751
#
# Stress axis : x y z
#
# Youngs Moduli (GPa) = 85.14745 44.37600 41.94351
#
# Poissons Ratio (x) = 0.15769 -0.08437
# Poissons Ratio (y) = 0.30257 0.70443
# Poissons Ratio (z) = -0.17128 0.74528
#
# Static dielectric constant tensor:
#      x y z
#    x 1.703700 0.000000 0.000000 
#    y 0.000000 1.678860 0.000000 
#    z 0.000000 0.000000 1.698990 
# 
# From -- ./inp_files/68491.got.cif
#   From: 2010.05.17/outbox.cif.g08.bks.cpg/sg71_35_cif.got.tgz:68491.got - 2010.06.03 16:22:01.
