data_PCOD9517390
_publ_section_title
;
Structure prediction by ZEFSAII (Michael W. Deem and Ramdas Pophale) SiO2 
 PCOD9517390
Probable space group: I M M M
;
_chemical_formula_sum "Si O2"
_cell_formula_units_Z 88
_cell_length_a 26.055492
_cell_length_b 16.091741
_cell_length_c 14.553239
_cell_angle_alpha 90.000000
_cell_angle_beta 90.000000
_cell_angle_gamma 90.000000
_cell_volume 6101.856273
_symmetry_space_group_name_H-M "I M M M"
_symmetry_group_IT_number 71
_symmetry_cell_setting 'orthorhombic'
loop_
_space_group_symop_operation_xyz
x,y,z
-x,-y,z
x,-y,-z
-x,y,-z
-x,-y,-z
x,y,-z
-x,y,z
x,-y,z
1/2+x,1/2+y,1/2+z
1/2-x,1/2-y,1/2+z
1/2+x,1/2-y,1/2-z
1/2-x,1/2+y,1/2-z
1/2-x,1/2-y,1/2-z
1/2+x,1/2+y,1/2-z
1/2-x,1/2+y,1/2+z
1/2+x,1/2-y,1/2+z
loop_
_atom_site_type_symbol
_atom_site_label
_atom_site_fract_x
_atom_site_fract_y
_atom_site_fract_z
Si Si1 0.678700 0.815777 0.104328
Si Si2 0.500000 0.595620 0.110832
Si Si3 0.197068 0.407560 0.784276
Si Si4 0.203762 0.241981 0.892429
Si Si5 0.682866 0.409544 0.735213
Si Si6 0.888075 0.846409 0.607188
O O1 0.674782 0.883106 0.184392
O O2 0.734188 0.770292 0.118341
O O3 0.634453 0.746772 0.112305
O O4 0.678987 0.849027 0.000000
O O5 0.500000 0.500000 0.144645
O O6 0.552715 0.641982 0.134941
O O7 0.500000 0.591618 0.000000
O O8 0.180851 0.500000 0.813456
O O9 0.187216 0.330804 0.852142
O O10 0.258562 0.408832 0.770266
O O11 0.178572 0.167571 0.834168
O O12 0.192588 0.235487 0.000000
O O13 0.673686 0.500000 0.691457
O O14 0.646285 0.398109 0.822398
O O15 0.882322 0.872899 0.500000
#
# Coordination Sequence:
#
# PCOD9517390 Si02
#       6
#    16   8  16  16  16  16
#     4   9  16  28  45  61  85 120 149 176 216 262
#     4   9  18  28  38  62  94 116 141 180 218 256
#     4  10  18  28  42  63  89 115 149 185 217 257
#     4  10  18  30  42  59  90 118 149 187 216 252
#     4  10  18  28  44  63  86 119 152 178 214 260
#     4  10  17  28  45  63  89 121 148 176 214 257
#
# _framework density 14.421841000000001
#
# number of rings (size 3 to 8) (size 9 to 14) (size 15 to 20)
#    0.000    2.273    3.636    1.636    0.000    2.182 
#    0.000    5.455    0.000    0.000    0.000    1.273 
#    0.000    5.818    0.000    1.636    0.000    0.000 
#
# Total GULP energy -244972.165632 kJ/mol
# GULP energy per Si atom -5567.549219 kJ/mol
# Density = 1.438902 g / cm^3
# Si number density = 14.421841 Si / 1000 Ang^3
#
#
#
# Elastic Constant Matrix: (Units=GPa)
#
#
# Indices 1 2 3 4 5 6 
#
# 1 65.5173 23.7835 26.9913 0.0000 0.0000 0.0000
# 2 23.7835 114.0808 53.6997 0.0000 0.0000 0.0000
# 3 26.9913 53.6997 70.0196 0.0000 0.0000 0.0000
# 4 0.0000 0.0000 0.0000 8.5195 0.0000 0.0000
# 5 0.0000 0.0000 0.0000 0.0000 13.3287 0.0000
# 6 0.0000 0.0000 0.0000 0.0000 0.0000 4.4880
#
#
#
# Elastic Compliance Matrix: (Units=1/GPa)
#
#
# Indices 1 2 3 4 5 6 
#
# 1 0.018188 -0.000769 -0.006421 0.000000 0.000000 0.000000
# 2 -0.000769 0.013750 -0.010249 0.000000 0.000000 0.000000
# 3 -0.006421 -0.010249 0.024617 0.000000 0.000000 0.000000
# 4 0.000000 0.000000 0.000000 0.117377 0.000000 0.000000
# 5 0.000000 0.000000 0.000000 0.000000 0.075026 0.000000
# 6 0.000000 0.000000 0.000000 0.000000 0.000000 0.222817
#
#
# Mechanical properties :
#
#
# Convention : Reuss Voigt Hill
#
# Bulk Modulus (GPa) = 46.13267 50.95183 48.54225
# Shear Modulus (GPa) = 9.72991 14.94348 12.33669
#
# Velocity S-wave (km/s) = 2.60025 3.22245 2.92792
# Velocity P-wave (km/s) = 6.40879 7.01797 6.72029
#
# Compressibility (1/GPa) = 0.02167661
#
# Stress axis : x y z
#
# Youngs Moduli (GPa) = 54.98229 72.72483 40.62217
#
# Poissons Ratio (x) = 0.05594 0.26084
# Poissons Ratio (y) = 0.04230 0.41634
# Poissons Ratio (z) = 0.35304 0.74536
#
# Static dielectric constant tensor:
#      x y z
#    x 1.451400 0.000000 0.000000 
#    y 0.000000 1.506920 0.000000 
#    z 0.000000 0.000000 1.478140 
# 
# From -- ./inp_files/34702.got.cif
#   From: 2010.05.17/outbox.cif.g08.bks.cpg/sg71_18_cif.got.tgz:34702.got - 2010.06.03 16:22:01.
