data_PCOD9517635
_publ_section_title
;
Structure prediction by ZEFSAII (Michael W. Deem and Ramdas Pophale) SiO2 
 PCOD9517635
Probable space group: I M M M
;
_chemical_formula_sum "Si O2"
_cell_formula_units_Z 128
_cell_length_a 7.295588
_cell_length_b 30.005326
_cell_length_c 26.851450
_cell_angle_alpha 90.000000
_cell_angle_beta 90.000000
_cell_angle_gamma 90.000000
_cell_volume 5877.956840
_symmetry_space_group_name_H-M "I M M M"
_symmetry_group_IT_number 71
_symmetry_cell_setting 'orthorhombic'
loop_
_space_group_symop_operation_xyz
x,y,z
-x,-y,z
x,-y,-z
-x,y,-z
-x,-y,-z
x,y,-z
-x,y,z
x,-y,z
1/2+x,1/2+y,1/2+z
1/2-x,1/2-y,1/2+z
1/2+x,1/2-y,1/2-z
1/2-x,1/2+y,1/2-z
1/2-x,1/2-y,1/2-z
1/2+x,1/2+y,1/2-z
1/2-x,1/2+y,1/2+z
1/2+x,1/2-y,1/2+z
loop_
_atom_site_type_symbol
_atom_site_label
_atom_site_fract_x
_atom_site_fract_y
_atom_site_fract_z
Si Si1 0.784277 0.549321 0.770749
Si Si2 0.278061 0.552728 0.555027
Si Si3 0.778277 0.816192 0.855026
Si Si4 0.723953 0.131971 0.337314
Si Si5 0.777283 0.232093 0.944512
Si Si6 0.777432 0.334076 0.942837
Si Si7 0.721110 0.588077 0.662973
Si Si8 0.282576 0.771503 0.303318
O O1 0.707719 0.500000 0.780459
O O2 0.712040 0.589667 0.805143
O O3 0.768795 0.560248 0.711916
O O4 0.000000 0.547449 0.781704
O O5 0.216999 0.569408 0.500000
O O6 0.500000 0.557360 0.555130
O O7 0.236922 0.500000 0.556624
O O8 0.215330 0.572673 0.608082
O O9 0.729989 0.811193 0.912593
O O10 0.713728 0.860979 0.829611
O O11 0.709779 0.768460 0.836921
O O12 0.000000 0.816314 0.849278
O O13 0.500000 0.131373 0.336310
O O14 0.778050 0.135585 0.395758
O O15 0.785345 0.178611 0.311923
O O16 0.723105 0.282857 0.930532
O O17 0.000000 0.233866 0.943431
O O18 0.714093 0.225936 0.000000
O O19 0.000000 0.334980 0.943807
O O20 0.718746 0.344342 0.000000
O O21 0.500000 0.587755 0.660945
O O22 0.500000 0.774370 0.312862
O O23 0.250000 0.750000 0.250000
#
# Coordination Sequence:
#
# PCOD9517635 Si02
#       8
#    16  16  16  16  16  16  16  16
#     4  10  21  35  49  65  87 118 155 194 234 276
#     4   8  14  25  41  61  84 110 142 181 225 269
#     4   9  16  25  37  60  91 116 138 172 213 252
#     4   9  16  28  45  63  87 121 155 186 227 277
#     4   8  12  19  33  56  89 122 145 170 209 255
#     4   8  12  20  38  63  89 118 151 183 218 268
#     4  10  19  30  47  69  93 120 150 185 228 274
#     4  10  18  28  42  60  86 117 146 176 212 254
#
# _framework density 21.776275999999999
#
# number of rings (size 3 to 8) (size 9 to 14) (size 15 to 20)
#    0.000    3.000    1.250    2.250    0.000    1.250 
#    0.000    2.500    0.000    0.750    0.000    4.375 
#    0.000    4.500    0.000    1.125    0.000    1.250 
#
# Total GULP energy -356596.303543 kJ/mol
# GULP energy per Si atom -5571.817243 kJ/mol
# Density = 2.172671 g / cm^3
# Si number density = 21.776276 Si / 1000 Ang^3
#
#
#
# Elastic Constant Matrix: (Units=GPa)
#
#
# Indices 1 2 3 4 5 6 
#
# 1 89.7548 7.0325 -5.9917 0.0000 0.0000 0.0000
# 2 7.0325 139.5396 69.3200 0.0000 0.0000 0.0000
# 3 -5.9917 69.3200 127.4163 0.0000 0.0000 0.0000
# 4 0.0000 0.0000 0.0000 38.8250 0.0000 0.0000
# 5 0.0000 0.0000 0.0000 0.0000 1.2819 0.0000
# 6 0.0000 0.0000 0.0000 0.0000 0.0000 -8.6149
#
#
#
# Elastic Compliance Matrix: (Units=1/GPa)
#
#
# Indices 1 2 3 4 5 6 
#
# 1 0.011308 -0.001143 0.001154 0.000000 0.000000 0.000000
# 2 -0.001143 0.009936 -0.005459 0.000000 0.000000 0.000000
# 3 0.001154 -0.005459 0.010873 0.000000 0.000000 0.000000
# 4 0.000000 0.000000 0.000000 0.025757 0.000000 0.000000
# 5 0.000000 0.000000 0.000000 0.000000 0.780064 0.000000
# 6 0.000000 0.000000 0.000000 0.000000 0.000000 -0.116078
#
#
# Mechanical properties :
#
#
# Convention : Reuss Voigt Hill
#
# Bulk Modulus (GPa) = 47.12707 55.27024 51.19866
# Shear Modulus (GPa) = 6.75830 25.38839 16.07334
#
# Velocity S-wave (km/s) = 1.76359 3.41819 2.71977
# Velocity P-wave (km/s) = 5.08286 6.40428 5.78145
#
# Compressibility (1/GPa) = 0.02121923
#
# Stress axis : x y z
#
# Youngs Moduli (GPa) = 88.43270 100.64248 91.97328
#
# Poissons Ratio (x) = 0.11503 -0.10610
# Poissons Ratio (y) = 0.10108 0.50212
# Poissons Ratio (z) = -0.10201 0.54945
#
# Static dielectric constant tensor:
#      x y z
#    x 1.862700 0.000000 0.000000 
#    y 0.000000 1.791470 0.000000 
#    z 0.000000 0.000000 2.030490 
# 
# From -- ./inp_files/59294.got.cif
#   From: 2010.05.17/outbox.cif.g08.bks.cpg/sg71_30_cif.got.tgz:59294.got - 2010.06.03 16:22:01.
