data_PCOD9517558
_publ_section_title
;
Structure prediction by ZEFSAII (Michael W. Deem and Ramdas Pophale) SiO2 
 PCOD9517558
Probable space group: I M M M
;
_chemical_formula_sum "Si O2"
_cell_formula_units_Z 80
_cell_length_a 26.986778
_cell_length_b 24.963191
_cell_length_c 7.575960
_cell_angle_alpha 90.000000
_cell_angle_beta 90.000000
_cell_angle_gamma 90.000000
_cell_volume 5103.743139
_symmetry_space_group_name_H-M "I M M M"
_symmetry_group_IT_number 71
_symmetry_cell_setting 'orthorhombic'
loop_
_space_group_symop_operation_xyz
x,y,z
-x,-y,z
x,-y,-z
-x,y,-z
-x,-y,-z
x,y,-z
-x,y,z
x,-y,z
1/2+x,1/2+y,1/2+z
1/2-x,1/2-y,1/2+z
1/2+x,1/2-y,1/2-z
1/2-x,1/2+y,1/2-z
1/2-x,1/2-y,1/2-z
1/2+x,1/2+y,1/2-z
1/2-x,1/2+y,1/2+z
1/2+x,1/2-y,1/2+z
loop_
_atom_site_type_symbol
_atom_site_label
_atom_site_fract_x
_atom_site_fract_y
_atom_site_fract_z
Si Si1 0.555601 0.612047 0.712499
Si Si2 0.217425 0.000000 0.217074
Si Si3 0.102173 0.000000 0.784435
Si Si4 0.299826 0.216420 0.211360
Si Si5 0.247578 0.885272 0.206638
Si Si6 0.850059 0.181313 0.709423
O O1 0.553726 0.609082 0.500000
O O2 0.500000 0.622881 0.776869
O O3 0.575188 0.554115 0.775011
O O4 0.596624 0.656190 0.756528
O O5 0.159616 0.000000 0.268939
O O6 0.242453 0.944984 0.279758
O O7 0.217687 0.000000 0.000000
O O8 0.101394 0.000000 0.000000
O O9 0.250000 0.250000 0.250000
O O10 0.287263 0.157240 0.282649
O O11 0.341983 0.257597 0.275200
O O12 0.305403 0.210803 0.000000
O O13 0.193394 0.856966 0.216292
O O14 0.259349 0.891395 0.000000
O O15 0.841549 0.181855 0.500000
#
# Coordination Sequence:
#
# PCOD9517558 Si02
#       6
#    16   8   8  16  16  16
#     4  10  19  30  43  55  68  93 129 164 193 220
#     4   9  14  21  40  60  73  93 124 159 186 206
#     4   9  15  26  41  56  70  90 126 165 193 213
#     4   8  15  25  38  54  72  94 119 148 181 219
#     4   9  15  26  41  56  73  95 125 154 180 215
#     4  10  18  27  38  54  75  97 121 152 190 224
#
# _framework density 15.674770000000001
#
# number of rings (size 3 to 8) (size 9 to 14) (size 15 to 20)
#    0.000    2.800    2.000    0.900    0.000    2.400 
#    0.000    2.000    0.000    1.200    0.000    0.000 
#    0.000    0.000    0.000    0.900    0.000   22.000 
#
# Total GULP energy -222730.002750 kJ/mol
# GULP energy per Si atom -5568.250069 kJ/mol
# Density = 1.563909 g / cm^3
# Si number density = 15.674770 Si / 1000 Ang^3
#
#
#
# Elastic Constant Matrix: (Units=GPa)
#
#
# Indices 1 2 3 4 5 6 
#
# 1 74.5682 75.7142 -2.5181 0.0000 0.0000 0.0000
# 2 75.7142 157.2238 1.3098 0.0000 0.0000 0.0000
# 3 -2.5181 1.3098 35.6076 0.0000 0.0000 0.0000
# 4 0.0000 0.0000 0.0000 3.8583 0.0000 0.0000
# 5 0.0000 0.0000 0.0000 0.0000 8.0537 0.0000
# 6 0.0000 0.0000 0.0000 0.0000 0.0000 12.4111
#
#
#
# Elastic Compliance Matrix: (Units=1/GPa)
#
#
# Indices 1 2 3 4 5 6 
#
# 1 0.026435 -0.012750 0.002338 0.000000 0.000000 0.000000
# 2 -0.012750 0.012512 -0.001362 0.000000 0.000000 0.000000
# 3 0.002338 -0.001362 0.028299 0.000000 0.000000 0.000000
# 4 0.000000 0.000000 0.000000 0.259185 0.000000 0.000000
# 5 0.000000 0.000000 0.000000 0.000000 0.124167 0.000000
# 6 0.000000 0.000000 0.000000 0.000000 0.000000 0.080573
#
#
# Mechanical properties :
#
#
# Convention : Reuss Voigt Hill
#
# Bulk Modulus (GPa) = 22.88349 46.26795 34.57572
# Shear Modulus (GPa) = 8.78297 17.72420 13.25358
#
# Velocity S-wave (km/s) = 2.36969 3.36631 2.91096
# Velocity P-wave (km/s) = 4.70296 6.68513 5.77965
#
# Compressibility (1/GPa) = 0.04369963
#
# Stress axis : x y z
#
# Youngs Moduli (GPa) = 37.82807 79.92524 35.33652
#
# Poissons Ratio (x) = 1.01904 -0.08263
# Poissons Ratio (y) = 0.48231 0.04812
# Poissons Ratio (z) = -0.08846 0.10885
#
# Static dielectric constant tensor:
#      x y z
#    x 1.502860 0.000000 0.000000 
#    y 0.000000 1.574000 0.000000 
#    z 0.000000 0.000000 1.602480 
# 
# From -- ./inp_files/12758.got.cif
#   From: 2010.05.17/outbox.cif.g08.bks.cpg/sg71_7_cif.got.tgz:12758.got - 2010.06.03 16:22:01.
