data_PCOD9517649
_publ_section_title
;
Structure prediction by ZEFSAII (Michael W. Deem and Ramdas Pophale) SiO2 
 PCOD9517649
Probable space group: I M M M
;
_chemical_formula_sum "Si O2"
_cell_formula_units_Z 88
_cell_length_a 19.045904
_cell_length_b 24.302342
_cell_length_c 12.713379
_cell_angle_alpha 90.000000
_cell_angle_beta 90.000000
_cell_angle_gamma 90.000000
_cell_volume 5884.515528
_symmetry_space_group_name_H-M "I M M M"
_symmetry_group_IT_number 71
_symmetry_cell_setting 'orthorhombic'
loop_
_space_group_symop_operation_xyz
x,y,z
-x,-y,z
x,-y,-z
-x,y,-z
-x,-y,-z
x,y,-z
-x,y,z
x,-y,z
1/2+x,1/2+y,1/2+z
1/2-x,1/2-y,1/2+z
1/2+x,1/2-y,1/2-z
1/2-x,1/2+y,1/2-z
1/2-x,1/2-y,1/2-z
1/2+x,1/2+y,1/2-z
1/2-x,1/2+y,1/2+z
1/2+x,1/2-y,1/2+z
loop_
_atom_site_type_symbol
_atom_site_label
_atom_site_fract_x
_atom_site_fract_y
_atom_site_fract_z
Si Si1 0.711738 0.839960 0.247607
Si Si2 0.173696 0.895817 0.122076
Si Si3 0.821282 0.769403 0.623814
Si Si4 0.919535 0.000000 0.872261
Si Si5 0.418577 0.706117 0.688296
Si Si6 0.081009 0.667822 0.121611
O O1 0.758247 0.886852 0.194025
O O2 0.758499 0.808895 0.336185
O O3 0.697779 0.792489 0.160534
O O4 0.638906 0.857063 0.300900
O O5 0.128828 0.839673 0.133092
O O6 0.124014 0.945802 0.157816
O O7 0.192441 0.904325 0.000000
O O8 0.831364 0.772899 0.500000
O O9 0.888395 0.786579 0.693869
O O10 0.000000 0.000000 0.834040
O O11 0.922816 0.000000 0.000000
O O12 0.500000 0.690461 0.685967
O O13 0.411192 0.765862 0.634534
O O14 0.000000 0.654886 0.148546
O O15 0.093158 0.653371 0.000000
#
# Coordination Sequence:
#
# PCOD9517649 Si02
#       6
#    16  16  16   8  16  16
#     4   9  17  26  39  59  82 108 141 169 201 251
#     4  10  18  28  43  61  83 111 139 171 209 244
#     4   9  16  25  37  55  82 112 140 174 205 235
#     4   9  18  30  44  64  86 107 136 174 210 239
#     4   9  17  26  38  59  84 114 147 170 199 245
#     4   9  16  26  41  62  88 113 136 167 203 241
#
# _framework density 14.954502
#
# number of rings (size 3 to 8) (size 9 to 14) (size 15 to 20)
#    0.000    2.818    0.000    3.273    0.000    2.182 
#    0.000    0.000    0.000    1.636    0.000   16.545 
#    0.000   27.636    0.000    0.000    0.000    0.000 
#
# Total GULP energy -245131.968750 kJ/mol
# GULP energy per Si atom -5571.181108 kJ/mol
# Density = 1.492046 g / cm^3
# Si number density = 14.954502 Si / 1000 Ang^3
#
#
#
# Elastic Constant Matrix: (Units=GPa)
#
#
# Indices 1 2 3 4 5 6 
#
# 1 116.4582 31.5447 39.0833 0.0000 0.0000 0.0000
# 2 31.5447 35.9023 13.3293 0.0000 0.0000 0.0000
# 3 39.0833 13.3293 80.5192 0.0000 0.0000 0.0000
# 4 0.0000 0.0000 0.0000 11.2567 0.0000 0.0000
# 5 0.0000 0.0000 0.0000 0.0000 20.3164 0.0000
# 6 0.0000 0.0000 0.0000 0.0000 0.0000 21.0593
#
#
#
# Elastic Compliance Matrix: (Units=1/GPa)
#
#
# Indices 1 2 3 4 5 6 
#
# 1 0.012686 -0.009440 -0.004595 0.000000 0.000000 0.000000
# 2 -0.009440 0.036702 -0.001494 0.000000 0.000000 0.000000
# 3 -0.004595 -0.001494 0.014897 0.000000 0.000000 0.000000
# 4 0.000000 0.000000 0.000000 0.088836 0.000000 0.000000
# 5 0.000000 0.000000 0.000000 0.000000 0.049221 0.000000
# 6 0.000000 0.000000 0.000000 0.000000 0.000000 0.047485
#
#
# Mechanical properties :
#
#
# Convention : Reuss Voigt Hill
#
# Bulk Modulus (GPa) = 30.09521 44.53268 37.31394
# Shear Modulus (GPa) = 17.12562 20.45465 18.79013
#
# Velocity S-wave (km/s) = 3.38772 3.70238 3.54854
# Velocity P-wave (km/s) = 5.95571 6.93688 6.46493
#
# Compressibility (1/GPa) = 0.03322788
#
# Stress axis : x y z
#
# Youngs Moduli (GPa) = 78.82802 27.24624 67.12780
#
# Poissons Ratio (x) = 0.25721 0.30844
# Poissons Ratio (y) = 0.74415 0.10026
# Poissons Ratio (z) = 0.36220 0.04069
#
# Static dielectric constant tensor:
#      x y z
#    x 1.522370 0.000000 0.000000 
#    y 0.000000 1.478300 0.000000 
#    z 0.000000 0.000000 1.484120 
# 
# From -- ./inp_files/23942.got.cif
#   From: 2010.05.17/outbox.cif.g08.bks.cpg/sg71_12_cif.got.tgz:23942.got - 2010.06.03 16:22:01.
