data_PCOD9517607
_publ_section_title
;
Structure prediction by ZEFSAII (Michael W. Deem and Ramdas Pophale) SiO2 
 PCOD9517607
Probable space group: I M M M
;
_chemical_formula_sum "Si O2"
_cell_formula_units_Z 120
_cell_length_a 19.914648
_cell_length_b 13.382535
_cell_length_c 28.596973
_cell_angle_alpha 90.000000
_cell_angle_beta 90.000000
_cell_angle_gamma 90.000000
_cell_volume 7621.335632
_symmetry_space_group_name_H-M "I M M M"
_symmetry_group_IT_number 71
_symmetry_cell_setting 'orthorhombic'
loop_
_space_group_symop_operation_xyz
x,y,z
-x,-y,z
x,-y,-z
-x,y,-z
-x,-y,-z
x,y,-z
-x,y,z
x,-y,z
1/2+x,1/2+y,1/2+z
1/2-x,1/2-y,1/2+z
1/2+x,1/2-y,1/2-z
1/2-x,1/2+y,1/2-z
1/2-x,1/2-y,1/2-z
1/2+x,1/2+y,1/2-z
1/2-x,1/2+y,1/2+z
1/2+x,1/2-y,1/2+z
loop_
_atom_site_type_symbol
_atom_site_label
_atom_site_fract_x
_atom_site_fract_y
_atom_site_fract_z
Si Si1 0.576253 0.114244 0.851000
Si Si2 0.876305 0.799015 0.880024
Si Si3 0.339858 0.803142 0.229121
Si Si4 0.420720 0.883563 0.317856
Si Si5 0.689180 0.382891 0.285887
Si Si6 0.000000 0.120289 0.056260
Si Si7 0.774451 0.114789 0.945861
Si Si8 0.886346 0.381655 0.450068
O O1 0.500000 0.107584 0.835868
O O2 0.615778 0.181214 0.815786
O O3 0.580501 0.155718 0.903255
O O4 0.604376 0.000000 0.850652
O O5 0.898136 0.692258 0.858834
O O6 0.852146 0.860201 0.833672
O O7 0.811521 0.806426 0.913418
O O8 0.935815 0.842427 0.913073
O O9 0.373719 0.862020 0.272758
O O10 0.339656 0.688833 0.245747
O O11 0.266644 0.844867 0.214395
O O12 0.500000 0.864678 0.307066
O O13 0.414284 0.000000 0.330749
O O14 0.687321 0.500000 0.276489
O O15 0.000000 0.000000 0.056220
O O16 0.000000 0.150129 0.000000
O O17 0.694127 0.125206 0.944797
O O18 0.790479 0.000000 0.930795
O O19 0.795692 0.123836 0.000000
O O20 0.906129 0.337481 0.500000
O O21 0.902764 0.500000 0.451920
#
# Coordination Sequence:
#
# PCOD9517607 Si02
#       8
#    16  16  16  16  16   8  16  16
#     4  10  18  27  43  66  94 127 159 191 227 271
#     4  11  20  32  49  71  94 123 157 199 242 289
#     4  10  20  32  50  72  95 124 159 196 234 280
#     4  10  20  35  52  67  91 126 165 203 238 286
#     4  10  20  33  50  72  97 123 154 194 241 287
#     4  11  22  34  49  71  99 129 162 200 242 295
#     4   9  16  27  45  67  92 121 151 189 237 288
#     4   8  15  27  42  64  94 125 155 186 226 277
#
# _framework density 15.745271000000001
#
# number of rings (size 3 to 8) (size 9 to 14) (size 15 to 20)
#    0.000    2.200    0.667    4.800    0.000    3.467 
#    0.000    1.333    0.000    2.000    0.000    0.000 
#    0.000    1.600    0.000    1.200    0.000    0.133 
#
# Total GULP energy -334038.703532 kJ/mol
# GULP energy per Si atom -5567.311726 kJ/mol
# Density = 1.570943 g / cm^3
# Si number density = 15.745271 Si / 1000 Ang^3
#
#
#
# Elastic Constant Matrix: (Units=GPa)
#
#
# Indices 1 2 3 4 5 6 
#
# 1 41.0063 22.0080 43.8865 0.0000 0.0000 0.0000
# 2 22.0080 79.7703 41.7814 0.0000 0.0000 0.0000
# 3 43.8865 41.7814 103.9783 0.0000 0.0000 0.0000
# 4 0.0000 0.0000 0.0000 17.7935 0.0000 0.0000
# 5 0.0000 0.0000 0.0000 0.0000 9.4561 0.0000
# 6 0.0000 0.0000 0.0000 0.0000 0.0000 54.0266
#
#
#
# Elastic Compliance Matrix: (Units=1/GPa)
#
#
# Indices 1 2 3 4 5 6 
#
# 1 0.045087 -0.003131 -0.017772 0.000000 0.000000 0.000000
# 2 -0.003131 0.016095 -0.005146 0.000000 0.000000 0.000000
# 3 -0.017772 -0.005146 0.019186 0.000000 0.000000 0.000000
# 4 0.000000 0.000000 0.000000 0.056200 0.000000 0.000000
# 5 0.000000 0.000000 0.000000 0.000000 0.105752 0.000000
# 6 0.000000 0.000000 0.000000 0.000000 0.000000 0.018509
#
#
# Mechanical properties :
#
#
# Convention : Reuss Voigt Hill
#
# Bulk Modulus (GPa) = 35.37208 48.90074 42.13641
# Shear Modulus (GPa) = 15.51103 24.06050 19.78577
#
# Velocity S-wave (km/s) = 3.14207 3.91335 3.54872
# Velocity P-wave (km/s) = 5.97306 7.17941 6.60384
#
# Compressibility (1/GPa) = 0.02827088
#
# Stress axis : x y z
#
# Youngs Moduli (GPa) = 22.17928 62.13077 52.12037
#
# Poissons Ratio (x) = 0.19451 0.92629
# Poissons Ratio (y) = 0.06944 0.26822
# Poissons Ratio (z) = 0.39417 0.31973
#
# Static dielectric constant tensor:
#      x y z
#    x 1.562650 0.000000 0.000000 
#    y 0.000000 1.505560 0.000000 
#    z 0.000000 0.000000 1.553480 
# 
# From -- ./inp_files/66638.got.cif
#   From: 2010.05.17/outbox.cif.g08.bks.cpg/sg71_34_cif.got.tgz:66638.got - 2010.06.03 16:22:01.
