data_PCOD9517902
_publ_section_title
;
Structure prediction by ZEFSAII (Michael W. Deem and Ramdas Pophale) SiO2 
 PCOD9517902
Probable space group: I M M M
;
_chemical_formula_sum "Si O2"
_cell_formula_units_Z 72
_cell_length_a 11.378940
_cell_length_b 25.469109
_cell_length_c 13.628510
_cell_angle_alpha 90.000000
_cell_angle_beta 90.000000
_cell_angle_gamma 90.000000
_cell_volume 3949.698424
_symmetry_space_group_name_H-M "I M M M"
_symmetry_group_IT_number 71
_symmetry_cell_setting 'orthorhombic'
loop_
_space_group_symop_operation_xyz
x,y,z
-x,-y,z
x,-y,-z
-x,y,-z
-x,-y,-z
x,y,-z
-x,y,z
x,-y,z
1/2+x,1/2+y,1/2+z
1/2-x,1/2-y,1/2+z
1/2+x,1/2-y,1/2-z
1/2-x,1/2+y,1/2-z
1/2-x,1/2-y,1/2-z
1/2+x,1/2+y,1/2-z
1/2-x,1/2+y,1/2+z
1/2+x,1/2-y,1/2+z
loop_
_atom_site_type_symbol
_atom_site_label
_atom_site_fract_x
_atom_site_fract_y
_atom_site_fract_z
Si Si1 0.000000 0.744908 0.381140
Si Si2 0.500000 0.822760 0.617572
Si Si3 0.257450 0.239090 0.618313
Si Si4 0.224293 0.440052 0.618662
Si Si5 0.500000 0.123711 0.807061
Si Si6 0.869207 0.844729 0.119382
O O1 0.877017 0.772717 0.351184
O O2 0.000000 0.684072 0.345558
O O3 0.000000 0.742598 0.500000
O O4 0.500000 0.831634 0.500000
O O5 0.622595 0.792331 0.642407
O O6 0.500000 0.872346 0.689219
O O7 0.255796 0.237412 0.500000
O O8 0.280192 0.299270 0.650043
O O9 0.221810 0.441448 0.500000
O O10 0.228555 0.500000 0.653442
O O11 0.331918 0.402845 0.649654
O O12 0.111213 0.408319 0.654149
O O13 0.000000 0.831130 0.150720
O O14 0.868343 0.843954 0.000000
#
# Coordination Sequence:
#
# PCOD9517902 Si02
#       6
#     8   8  16  16   8  16
#     4  10  18  29  49  75 102 128 166 208 247 300
#     4  10  22  37  52  69  98 141 177 212 255 297
#     4   9  16  30  49  70 100 135 168 204 247 295
#     4  10  20  33  50  75 105 133 163 204 257 310
#     4  12  21  31  51  72  99 132 173 210 254 304
#     4   9  15  26  47  71 100 139 172 196 231 294
#
# _framework density 18.229241999999999
#
# number of rings (size 3 to 8) (size 9 to 14) (size 15 to 20)
#    0.000    2.222    3.333    1.333    0.000    2.222 
#    0.000    2.222    0.000    1.333    0.000    0.000 
#    0.000    0.000    0.000    2.000    0.000    0.222 
#
# Total GULP energy -200589.955177 kJ/mol
# GULP energy per Si atom -5571.943199 kJ/mol
# Density = 1.818775 g / cm^3
# Si number density = 18.229242 Si / 1000 Ang^3
#
#
#
# Elastic Constant Matrix: (Units=GPa)
#
#
# Indices 1 2 3 4 5 6 
#
# 1 138.0465 16.6810 0.1066 0.0000 0.0000 0.0000
# 2 16.6810 24.5406 -7.3207 0.0000 0.0000 0.0000
# 3 0.1066 -7.3207 48.9967 0.0001 0.0000 0.0000
# 4 0.0000 0.0000 0.0001 15.6308 0.0000 0.0000
# 5 0.0000 0.0000 0.0000 0.0000 8.5606 0.0000
# 6 0.0000 0.0000 0.0000 0.0000 0.0000 13.2365
#
#
#
# Elastic Compliance Matrix: (Units=1/GPa)
#
#
# Indices 1 2 3 4 5 6 
#
# 1 0.007927 -0.005645 -0.000861 0.000000 0.000000 0.000000
# 2 -0.005645 0.046670 0.006985 0.000000 0.000000 0.000000
# 3 -0.000861 0.006985 0.021455 0.000000 0.000000 0.000000
# 4 0.000000 0.000000 0.000000 0.063976 0.000000 0.000000
# 5 0.000000 0.000000 0.000000 0.000000 0.116814 0.000000
# 6 0.000000 0.000000 0.000000 0.000000 0.000000 0.075549
#
#
# Mechanical properties :
#
#
# Convention : Reuss Voigt Hill
#
# Bulk Modulus (GPa) = 12.98516 25.61309 19.29913
# Shear Modulus (GPa) = 14.00163 20.96003 17.48083
#
# Velocity S-wave (km/s) = 2.77444 3.39455 3.10004
# Velocity P-wave (km/s) = 4.17158 5.42633 4.83979
#
# Compressibility (1/GPa) = 0.07701098
#
# Stress axis : x y z
#
# Youngs Moduli (GPa) = 126.15598 21.42724 46.60902
#
# Poissons Ratio (x) = 0.12095 0.04011
# Poissons Ratio (y) = 0.71212 -0.32558
# Poissons Ratio (z) = 0.10858 -0.14967
#
# Static dielectric constant tensor:
#      x y z
#    x 1.683770 0.000000 0.000000 
#    y 0.000000 1.595320 0.000000 
#    z 0.000000 0.000000 1.651960 
# 
# From -- ./inp_files/32639.got.cif
#   From: 2010.05.17/outbox.cif.g08.bks.cpg/sg71_17_cif.got.tgz:32639.got - 2010.06.03 16:22:01.
