data_PCOD9517407
_publ_section_title
;
Structure prediction by ZEFSAII (Michael W. Deem and Ramdas Pophale) SiO2 
 PCOD9517407
Probable space group: I M M M
;
_chemical_formula_sum "Si O2"
_cell_formula_units_Z 104
_cell_length_a 18.137218
_cell_length_b 7.584421
_cell_length_c 39.191647
_cell_angle_alpha 90.000000
_cell_angle_beta 90.000000
_cell_angle_gamma 90.000000
_cell_volume 5391.214604
_symmetry_space_group_name_H-M "I M M M"
_symmetry_group_IT_number 71
_symmetry_cell_setting 'orthorhombic'
loop_
_space_group_symop_operation_xyz
x,y,z
-x,-y,z
x,-y,-z
-x,y,-z
-x,-y,-z
x,y,-z
-x,y,z
x,-y,z
1/2+x,1/2+y,1/2+z
1/2-x,1/2-y,1/2+z
1/2+x,1/2-y,1/2-z
1/2-x,1/2+y,1/2-z
1/2-x,1/2-y,1/2-z
1/2+x,1/2+y,1/2-z
1/2-x,1/2+y,1/2+z
1/2+x,1/2-y,1/2+z
loop_
_atom_site_type_symbol
_atom_site_label
_atom_site_fract_x
_atom_site_fract_y
_atom_site_fract_z
Si Si1 0.913598 0.798427 0.845238
Si Si2 0.000000 0.715328 0.960815
Si Si3 0.915947 0.784720 0.587000
Si Si4 0.910136 0.798683 0.337016
Si Si5 0.356993 0.213617 0.581580
Si Si6 0.090168 0.500000 0.714949
Si Si7 0.714608 0.284328 0.039109
Si Si8 0.089587 0.500000 0.207209
O O1 0.867690 0.774830 0.879769
O O2 0.889154 0.668971 0.815238
O O3 0.000000 0.755641 0.853544
O O4 0.910766 0.000000 0.833975
O O5 0.927446 0.771464 0.940537
O O6 0.000000 0.500000 0.961157
O O7 0.000000 0.773288 0.000000
O O8 0.889429 0.734368 0.625017
O O9 0.860383 0.728440 0.557668
O O10 0.000000 0.725372 0.581913
O O11 0.917241 0.000000 0.587411
O O12 0.886673 0.670124 0.306902
O O13 0.000000 0.801058 0.337446
O O14 0.885175 0.000000 0.332276
O O15 0.283357 0.271189 0.562318
O O16 0.357107 0.000000 0.582363
O O17 0.116088 0.500000 0.753918
O O18 0.000000 0.500000 0.715414
O O19 0.715150 0.500000 0.038629
O O20 0.720687 0.226123 0.000000
O O21 0.000000 0.500000 0.209014
#
# Coordination Sequence:
#
# PCOD9517407 Si02
#       8
#    16   8  16  16  16   8  16   8
#     4  10  19  31  49  71  98 135 177 217 255 308
#     4   9  16  24  41  67  91 126 169 211 270 315
#     4   8  14  26  44  68 102 140 174 211 257 307
#     4   8  14  25  43  68  99 130 163 204 246 298
#     4  10  17  28  47  67  97 132 172 223 262 303
#     4   9  16  26  44  74 105 134 161 202 258 308
#     4   9  17  27  43  72 104 133 175 221 261 309
#     4   9  18  30  46  72 108 135 165 209 262 307
#
# _framework density 19.290642999999999
#
# number of rings (size 3 to 8) (size 9 to 14) (size 15 to 20)
#    0.000    3.000    1.538    1.385    0.000    2.769 
#    0.000    4.615    1.692    2.308    0.000    1.077 
#    0.000    3.077    0.000    0.308    0.000    0.000 
#
# Total GULP energy -290073.312385 kJ/mol
# GULP energy per Si atom -5578.332930 kJ/mol
# Density = 1.924674 g / cm^3
# Si number density = 19.290643 Si / 1000 Ang^3
#
#
#
# Elastic Constant Matrix: (Units=GPa)
#
#
# Indices 1 2 3 4 5 6 
#
# 1 67.7121 18.7690 53.8737 0.0000 0.0000 0.0000
# 2 18.7690 68.5007 45.3631 0.0000 0.0000 0.0000
# 3 53.8737 45.3631 142.9814 0.0000 0.0000 0.0000
# 4 0.0000 0.0000 0.0000 -29.8572 0.0000 0.0000
# 5 0.0000 0.0000 0.0000 0.0000 23.7975 0.0000
# 6 0.0000 0.0000 0.0000 0.0000 0.0000 0.6286
#
#
#
# Elastic Compliance Matrix: (Units=1/GPa)
#
#
# Indices 1 2 3 4 5 6 
#
# 1 0.021114 -0.000654 -0.007748 0.000000 0.000000 0.000000
# 2 -0.000654 0.018502 -0.005623 0.000000 0.000000 0.000000
# 3 -0.007748 -0.005623 0.011697 0.000000 0.000000 0.000000
# 4 0.000000 0.000000 0.000000 -0.033493 0.000000 0.000000
# 5 0.000000 0.000000 0.000000 0.000000 0.042021 0.000000
# 6 0.000000 0.000000 0.000000 0.000000 0.000000 1.590819
#
#
# Mechanical properties :
#
#
# Convention : Reuss Voigt Hill
#
# Bulk Modulus (GPa) = 42.98876 57.24510 50.11693
# Shear Modulus (GPa) = 2.96478 9.65967 6.31222
#
# Velocity S-wave (km/s) = 1.24106 2.24016 1.81088
# Velocity P-wave (km/s) = 4.93830 6.03577 5.51441
#
# Compressibility (1/GPa) = 0.02326189
#
# Stress axis : x y z
#
# Youngs Moduli (GPa) = 47.36112 54.04921 85.48893
#
# Poissons Ratio (x) = 0.03536 0.66237
# Poissons Ratio (y) = 0.03099 0.48074
# Poissons Ratio (z) = 0.36696 0.30394
#
# Static dielectric constant tensor:
#      x y z
#    x 1.665570 0.000000 0.000000 
#    y 0.000000 1.723810 0.000000 
#    z 0.000000 0.000000 1.641230 
# 
# From -- ./inp_files/70814.got.cif
#   From: 2010.05.17/outbox.cif.g08.bks.cpg/sg71_36_cif.got.tgz:70814.got - 2010.06.03 16:22:01.
