data_PCOD9517549
_publ_section_title
;
Structure prediction by ZEFSAII (Michael W. Deem and Ramdas Pophale) SiO2 
 PCOD9517549
Probable space group: I M M M
;
_chemical_formula_sum "Si O2"
_cell_formula_units_Z 80
_cell_length_a 35.659686
_cell_length_b 14.531571
_cell_length_c 7.299222
_cell_angle_alpha 90.000000
_cell_angle_beta 90.000000
_cell_angle_gamma 90.000000
_cell_volume 3782.393038
_symmetry_space_group_name_H-M "I M M M"
_symmetry_group_IT_number 71
_symmetry_cell_setting 'orthorhombic'
loop_
_space_group_symop_operation_xyz
x,y,z
-x,-y,z
x,-y,-z
-x,y,-z
-x,-y,-z
x,y,-z
-x,y,z
x,-y,z
1/2+x,1/2+y,1/2+z
1/2-x,1/2-y,1/2+z
1/2+x,1/2-y,1/2-z
1/2-x,1/2+y,1/2-z
1/2-x,1/2-y,1/2-z
1/2+x,1/2+y,1/2-z
1/2-x,1/2+y,1/2+z
1/2+x,1/2-y,1/2+z
loop_
_atom_site_type_symbol
_atom_site_label
_atom_site_fract_x
_atom_site_fract_y
_atom_site_fract_z
Si Si1 0.843023 0.893845 0.724573
Si Si2 0.738804 0.612055 0.785150
Si Si3 0.820176 0.392731 0.221945
Si Si4 0.608586 0.231990 0.210354
Si Si5 0.042905 0.395391 0.723404
O O1 0.842074 0.891248 0.500000
O O2 0.801799 0.860220 0.788735
O O3 0.875698 0.826879 0.789473
O O4 0.847939 0.000000 0.776308
O O5 0.739147 0.500000 0.773049
O O6 0.779249 0.642221 0.711950
O O7 0.738859 0.635339 0.000000
O O8 0.824126 0.500000 0.274594
O O9 0.855355 0.334892 0.287348
O O10 0.819897 0.389919 0.000000
O O11 0.573443 0.177318 0.290230
O O12 0.598430 0.251881 0.000000
O O13 0.043952 0.395564 0.500000
O O14 0.052220 0.500000 0.779884
O O15 0.000000 0.375645 0.776423
#
# Coordination Sequence:
#
# PCOD9517549 Si02
#       5
#    16  16  16  16  16
#     4   8  14  25  40  58  81 108 138 171 204 237
#     4   7  11  22  38  53  74 109 143 161 186 241
#     4   9  17  28  41  58  83 113 138 161 197 246
#     4  10  18  26  42  66  83 100 135 178 207 230
#     4   8  14  25  40  58  82 109 131 154 194 250
#
# _framework density 21.150632000000002
#
# number of rings (size 3 to 8) (size 9 to 14) (size 15 to 20)
#    0.000    3.600    0.000    3.600    0.000    2.000 
#    0.000    0.000    0.000    1.800    0.000    9.800 
#    0.000    0.000    0.000    1.800    0.000    2.200 
#
# Total GULP energy -223163.216024 kJ/mol
# GULP energy per Si atom -5579.080401 kJ/mol
# Density = 2.110249 g / cm^3
# Si number density = 21.150632 Si / 1000 Ang^3
#
#
#
# Elastic Constant Matrix: (Units=GPa)
#
#
# Indices 1 2 3 4 5 6 
#
# 1 141.4141 80.3673 -1.1598 0.0000 0.0000 0.0000
# 2 80.3673 105.4497 -2.7154 0.0000 0.0000 0.0000
# 3 -1.1598 -2.7154 87.6503 -0.0001 -0.0002 -0.0005
# 4 0.0000 0.0000 -0.0001 -2.6212 -0.0001 -0.0001
# 5 0.0000 0.0000 -0.0002 -0.0001 0.5625 -0.0002
# 6 0.0000 0.0000 -0.0005 -0.0001 -0.0002 7.8085
#
#
#
# Elastic Compliance Matrix: (Units=1/GPa)
#
#
# Indices 1 2 3 4 5 6 
#
# 1 0.012476 -0.009512 -0.000130 0.000000 -0.000001 0.000000
# 2 -0.009512 0.016743 0.000393 0.000000 0.000001 0.000000
# 3 -0.000130 0.000393 0.011419 -0.000001 0.000005 0.000001
# 4 0.000000 0.000000 -0.000001 -0.381507 -0.000051 -0.000007
# 5 -0.000001 0.000001 0.000005 -0.000051 1.777795 0.000042
# 6 0.000000 0.000000 0.000001 -0.000007 0.000042 0.128065
#
#
# Mechanical properties :
#
#
# Convention : Reuss Voigt Hill
#
# Bulk Modulus (GPa) = 45.16518 54.16647 49.66582
# Shear Modulus (GPa) = 3.14294 18.35144 10.74719
#
# Velocity S-wave (km/s) = 1.22033 2.94879 2.25661
# Velocity P-wave (km/s) = 4.83591 6.10404 5.50660
#
# Compressibility (1/GPa) = 0.02214095
#
# Stress axis : x y z
#
# Youngs Moduli (GPa) = 80.15368 59.72777 87.57008
#
# Poissons Ratio (x) = 0.56812 0.01135
# Poissons Ratio (y) = 0.76241 -0.03440
# Poissons Ratio (z) = 0.01039 -0.02346
#
# Static dielectric constant tensor:
#      x y z
#    x 1.750160 0.000000 0.000000 
#    y 0.000000 1.770240 0.000000 
#    z 0.000000 0.000000 1.853590 
# 
# From -- ./inp_files/22430.got.cif
#   From: 2010.05.17/outbox.cif.g08.bks.cpg/sg71_12_cif.got.tgz:22430.got - 2010.06.03 16:22:01.
