data_PCOD9517124
_publ_section_title
;
Structure prediction by ZEFSAII (Michael W. Deem and Ramdas Pophale) SiO2 
 PCOD9517124
Probable space group: F D D D
;
_chemical_formula_sum "Si O2"
_cell_formula_units_Z 64
_cell_length_a 10.993419
_cell_length_b 8.051237
_cell_length_c 31.451694
_cell_angle_alpha 90.000000
_cell_angle_beta 90.000000
_cell_angle_gamma 90.000000
_cell_volume 2783.808993
_symmetry_space_group_name_H-M "F D D D"
_symmetry_group_IT_number 70
_space_group.IT_coordinate_system_code '2'
_symmetry_cell_setting 'orthorhombic'
loop_
_space_group_symop_operation_xyz
x,y,z
1/4-x,1/4-y,z
x,1/4-y,1/4-z
1/4-x,y,1/4-z
-x,-y,-z
3/4+x,3/4+y,-z
-x,3/4+y,3/4+z
3/4+x,-y,3/4+z
x,1/2+y,1/2+z
1/4-x,3/4-y,1/2+z
x,3/4-y,3/4-z
1/4-x,1/2+y,3/4-z
-x,1/2-y,1/2-z
3/4+x,1/4+y,1/2-z
-x,1/4+y,1/4+z
3/4+x,1/2-y,1/4+z
1/2+x,y,1/2+z
3/4-x,1/4-y,1/2+z
1/2+x,1/4-y,3/4-z
3/4-x,y,3/4-z
1/2-x,-y,1/2-z
1/4+x,3/4+y,1/2-z
1/2-x,3/4+y,1/4+z
1/4+x,-y,1/4+z
1/2+x,1/2+y,z
3/4-x,3/4-y,z
1/2+x,3/4-y,1/4-z
3/4-x,1/2+y,1/4-z
1/2-x,1/2-y,-z
1/4+x,1/4+y,-z
1/2-x,1/4+y,3/4+z
1/4+x,1/2-y,3/4+z
loop_
_atom_site_type_symbol
_atom_site_label
_atom_site_fract_x
_atom_site_fract_y
_atom_site_fract_z
Si Si1 0.533083 0.773838 0.799111
Si Si2 0.375000 0.108364 0.875000
Si Si3 0.875000 0.875000 0.669182
O O1 0.625000 0.625000 0.807868
O O2 0.500000 0.750000 0.750000
O O3 0.429939 0.734620 0.833863
O O4 0.585861 0.958564 0.805916
O O5 0.502100 0.181894 0.856196
#
# Coordination Sequence:
#
# PCOD9517124 Si02
#       3
#    32  16  16
#     4  12  28  49  77 116 160 207 267 332 402 482
#     4  12  27  51  78 119 161 206 273 331 394 491
#     4  12  26  50  80 109 162 207 260 334 400 470
#
# _framework density 22.990082000000001
#
# number of rings (size 3 to 8) (size 9 to 14) (size 15 to 20)
#    0.000    0.000    2.500    7.500    0.000   12.000 
#    0.000    0.000    0.000    0.000    0.000    0.000 
#    0.000    0.000    0.000    0.000    0.000    0.000 
#
# Total GULP energy -89096.924621 kJ/mol
# GULP energy per Si atom -5568.557789 kJ/mol
# Density = 2.293776 g / cm^3
# Si number density = 22.990082 Si / 1000 Ang^3
#
#
#
# Elastic Constant Matrix: (Units=GPa)
#
#
# Indices 1 2 3 4 5 6 
#
# 1 189.2022 77.0272 91.4263 0.0000 0.0000 0.0000
# 2 77.0272 165.9138 73.6787 0.0000 0.0000 0.0000
# 3 91.4263 73.6787 227.3237 0.0000 0.0000 0.0000
# 4 0.0000 0.0000 0.0000 21.0770 0.0000 0.0000
# 5 0.0000 0.0000 0.0000 0.0000 41.1169 0.0000
# 6 0.0000 0.0000 0.0000 0.0000 0.0000 52.4142
#
#
#
# Elastic Compliance Matrix: (Units=1/GPa)
#
#
# Indices 1 2 3 4 5 6 
#
# 1 0.007320 -0.002442 -0.002152 0.000000 0.000000 0.000000
# 2 -0.002442 0.007856 -0.001564 0.000000 0.000000 0.000000
# 3 -0.002152 -0.001564 0.005771 0.000000 0.000000 0.000000
# 4 0.000000 0.000000 0.000000 0.047445 0.000000 0.000000
# 5 0.000000 0.000000 0.000000 0.000000 0.024321 0.000000
# 6 0.000000 0.000000 0.000000 0.000000 0.000000 0.019079
#
#
# Mechanical properties :
#
#
# Convention : Reuss Voigt Hill
#
# Bulk Modulus (GPa) = 115.87789 118.52268 117.20029
# Shear Modulus (GPa) = 39.37469 45.60880 42.49175
#
# Velocity S-wave (km/s) = 4.14295 4.45887 4.30381
# Velocity P-wave (km/s) = 8.56727 8.84163 8.70553
#
# Compressibility (1/GPa) = 0.00862977
#
# Stress axis : x y z
#
# Youngs Moduli (GPa) = 136.61695 127.29744 173.26648
#
# Poissons Ratio (x) = 0.31092 0.37291
# Poissons Ratio (y) = 0.33369 0.27095
# Poissons Ratio (z) = 0.29403 0.19906
#
# Static dielectric constant tensor:
#      x y z
#    x 2.108950 0.000000 0.000000 
#    y 0.000000 1.925000 0.000000 
#    z 0.000000 0.000000 1.891760 
# 
# From -- ./inp_files/5153.got.cif
#   From: 2010.05.17/outbox.cif.g08.bks.cpg/sg70_3_cif.got.tgz:5153.got - 2010.06.03 15:57:51.
