data_PCOD9517242
_publ_section_title
;
Structure prediction by ZEFSAII (Michael W. Deem and Ramdas Pophale) SiO2 
 PCOD9517242
Probable space group: I M M M
;
_chemical_formula_sum "Si O2"
_cell_formula_units_Z 88
_cell_length_a 24.914443
_cell_length_b 8.603782
_cell_length_c 30.987560
_cell_angle_alpha 90.000000
_cell_angle_beta 90.000000
_cell_angle_gamma 90.000000
_cell_volume 6642.444904
_symmetry_space_group_name_H-M "I M M M"
_symmetry_group_IT_number 71
_symmetry_cell_setting 'orthorhombic'
loop_
_space_group_symop_operation_xyz
x,y,z
-x,-y,z
x,-y,-z
-x,y,-z
-x,-y,-z
x,y,-z
-x,y,z
x,-y,z
1/2+x,1/2+y,1/2+z
1/2-x,1/2-y,1/2+z
1/2+x,1/2-y,1/2-z
1/2-x,1/2+y,1/2-z
1/2-x,1/2-y,1/2-z
1/2+x,1/2+y,1/2-z
1/2-x,1/2+y,1/2+z
1/2+x,1/2-y,1/2+z
loop_
_atom_site_type_symbol
_atom_site_label
_atom_site_fract_x
_atom_site_fract_y
_atom_site_fract_z
Si Si1 0.562554 0.314091 0.000000
Si Si2 0.394935 0.184304 0.089100
Si Si3 0.179649 0.185869 0.339168
Si Si4 0.000000 0.183835 0.740091
Si Si5 0.118297 0.810619 0.749001
Si Si6 0.500000 0.816981 0.853343
Si Si7 0.277320 0.313565 0.706378
O O1 0.592872 0.256235 0.957357
O O2 0.561100 0.500000 0.000000
O O3 0.500000 0.257731 0.000000
O O4 0.346366 0.253562 0.116905
O O5 0.447874 0.213330 0.117978
O O6 0.388068 0.000000 0.084658
O O7 0.143183 0.238765 0.297620
O O8 0.240019 0.245612 0.331012
O O9 0.179476 0.000000 0.338571
O O10 0.057656 0.247272 0.755447
O O11 0.000000 0.211817 0.688787
O O12 0.000000 0.000000 0.749428
O O13 0.160506 0.768322 0.786552
O O14 0.116776 0.000000 0.747368
O O15 0.500000 0.000000 0.840836
O O16 0.274144 0.500000 0.705487
O O17 0.250000 0.250000 0.750000
#
# Coordination Sequence:
#
# PCOD9517242 Si02
#       7
#     8  16  16   8  16   8  16
#     4  11  23  35  47  61  79 105 135 168 205 248
#     4  11  21  33  46  60  79 103 131 169 212 252
#     4  10  18  29  43  60  76  99 134 169 204 245
#     4  10  16  26  41  57  78 106 133 165 201 240
#     4   8  15  24  38  57  77 100 130 162 197 237
#     4  10  20  29  39  58  79 100 128 164 207 247
#     4   9  16  27  39  56  78 102 130 164 202 241
#
# _framework density 13.248134
#
# number of rings (size 3 to 8) (size 9 to 14) (size 15 to 20)
#    0.000    2.273    2.727    3.000    0.000    1.091 
#    0.000    0.909    0.000    0.000    0.000    0.000 
#    0.000    0.000    0.000    0.000    0.000    0.909 
#
# Total GULP energy -245070.254908 kJ/mol
# GULP energy per Si atom -5569.778521 kJ/mol
# Density = 1.321798 g / cm^3
# Si number density = 13.248134 Si / 1000 Ang^3
#
#
#
# Elastic Constant Matrix: (Units=GPa)
#
#
# Indices 1 2 3 4 5 6 
#
# 1 116.6426 28.8130 53.0340 0.0000 0.0000 0.0000
# 2 28.8130 30.2094 25.5289 0.0000 0.0000 0.0000
# 3 53.0340 25.5289 63.3541 0.0000 0.0000 0.0000
# 4 0.0000 0.0000 0.0000 18.2447 0.0000 0.0000
# 5 0.0000 0.0000 0.0000 0.0000 15.1128 0.0000
# 6 0.0000 0.0000 0.0000 0.0000 0.0000 15.2697
#
#
#
# Elastic Compliance Matrix: (Units=1/GPa)
#
#
# Indices 1 2 3 4 5 6 
#
# 1 0.014395 -0.005378 -0.009883 0.000000 0.000000 0.000000
# 2 -0.005378 0.052204 -0.016534 0.000000 0.000000 0.000000
# 3 -0.009883 -0.016534 0.030720 0.000000 0.000000 0.000000
# 4 0.000000 0.000000 0.000000 0.054810 0.000000 0.000000
# 5 0.000000 0.000000 0.000000 0.000000 0.066169 0.000000
# 6 0.000000 0.000000 0.000000 0.000000 0.000000 0.065489
#
#
# Mechanical properties :
#
#
# Convention : Reuss Voigt Hill
#
# Bulk Modulus (GPa) = 29.64814 47.21753 38.43283
# Shear Modulus (GPa) = 13.94230 16.58080 15.26155
#
# Velocity S-wave (km/s) = 3.24759 3.54157 3.39776
# Velocity P-wave (km/s) = 6.04070 7.24168 6.66828
#
# Compressibility (1/GPa) = 0.03372893
#
# Stress axis : x y z
#
# Youngs Moduli (GPa) = 69.46716 19.15568 32.55199
#
# Poissons Ratio (x) = 0.10302 0.32172
# Poissons Ratio (y) = 0.37358 0.53821
# Poissons Ratio (z) = 0.68657 0.31672
#
# Static dielectric constant tensor:
#      x y z
#    x 1.471450 0.000000 0.000000 
#    y 0.000000 1.448270 0.000000 
#    z 0.000000 0.000000 1.403970 
# 
# From -- ./inp_files/62251.got.cif
#   From: 2010.05.17/outbox.cif.g08.bks.cpg/sg71_32_cif.got.tgz:62251.got - 2010.06.03 16:22:01.
