data_PCOD9517489
_publ_section_title
;
Structure prediction by ZEFSAII (Michael W. Deem and Ramdas Pophale) SiO2 
 PCOD9517489
Probable space group: I M M M
;
_chemical_formula_sum "Si O2"
_cell_formula_units_Z 64
_cell_length_a 7.998091
_cell_length_b 22.428599
_cell_length_c 18.319217
_cell_angle_alpha 90.000000
_cell_angle_beta 90.000000
_cell_angle_gamma 90.000000
_cell_volume 3286.210618
_symmetry_space_group_name_H-M "I M M M"
_symmetry_group_IT_number 71
_symmetry_cell_setting 'orthorhombic'
loop_
_space_group_symop_operation_xyz
x,y,z
-x,-y,z
x,-y,-z
-x,y,-z
-x,-y,-z
x,y,-z
-x,y,z
x,-y,z
1/2+x,1/2+y,1/2+z
1/2-x,1/2-y,1/2+z
1/2+x,1/2-y,1/2-z
1/2-x,1/2+y,1/2-z
1/2-x,1/2-y,1/2-z
1/2+x,1/2+y,1/2-z
1/2-x,1/2+y,1/2+z
1/2+x,1/2-y,1/2+z
loop_
_atom_site_type_symbol
_atom_site_label
_atom_site_fract_x
_atom_site_fract_y
_atom_site_fract_z
Si Si1 0.199536 0.746773 0.335433
Si Si2 0.500000 0.570493 0.918939
Si Si3 0.700773 0.382094 0.325751
Si Si4 0.203666 0.000000 0.915815
Si Si5 0.685578 0.874486 0.658978
O O1 0.250000 0.750000 0.250000
O O2 0.255493 0.681663 0.362191
O O3 0.288864 0.805595 0.365293
O O4 0.000000 0.753217 0.342038
O O5 0.500000 0.500000 0.923415
O O6 0.334797 0.590069 0.877226
O O7 0.500000 0.596940 0.000000
O O8 0.500000 0.384384 0.314363
O O9 0.752420 0.439815 0.372550
O O10 0.788233 0.380591 0.246515
O O11 0.000000 0.000000 0.917079
O O12 0.260896 0.000000 0.000000
O O13 0.500000 0.894707 0.639956
#
# Coordination Sequence:
#
# PCOD9517489 Si02
#       5
#    16   8  16   8  16
#     4  10  17  31  54  87 123 152 199 258 307 347
#     4  11  26  46  64  88 126 159 195 249 315 377
#     4  10  18  32  58  89 124 163 209 260 305 352
#     4   9  20  36  55  83 125 171 209 248 303 364
#     4  11  21  38  65  94 122 156 207 254 301 366
#
# _framework density 19.47532
#
# number of rings (size 3 to 8) (size 9 to 14) (size 15 to 20)
#    0.000    1.750    2.500    6.000    1.750    1.000 
#    0.000    4.375    0.000    8.250    0.000    0.000 
#    0.000    0.000    0.000    0.000    0.000    0.000 
#
# Total GULP energy -178549.574436 kJ/mol
# GULP energy per Si atom -5579.674201 kJ/mol
# Density = 1.943099 g / cm^3
# Si number density = 19.475320 Si / 1000 Ang^3
#
#
#
# Elastic Constant Matrix: (Units=GPa)
#
#
# Indices 1 2 3 4 5 6 
#
# 1 138.6573 29.0845 27.7846 0.0000 0.0000 0.0000
# 2 29.0845 142.3382 50.4364 0.0000 0.0000 0.0000
# 3 27.7846 50.4364 61.3976 0.0000 0.0000 0.0000
# 4 0.0000 0.0000 0.0000 -38.4835 0.0000 0.0000
# 5 0.0000 0.0000 0.0000 0.0000 -4.5425 0.0000
# 6 0.0000 0.0000 0.0000 0.0000 0.0000 23.4365
#
#
#
# Elastic Compliance Matrix: (Units=1/GPa)
#
#
# Indices 1 2 3 4 5 6 
#
# 1 0.007956 -0.000494 -0.003195 0.000000 0.000000 0.000000
# 2 -0.000494 0.009941 -0.007943 0.000000 0.000000 0.000000
# 3 -0.003195 -0.007943 0.024258 0.000000 0.000000 0.000000
# 4 0.000000 0.000000 0.000000 -0.025985 0.000000 0.000000
# 5 0.000000 0.000000 0.000000 0.000000 -0.220144 0.000000
# 6 0.000000 0.000000 0.000000 0.000000 0.000000 0.042669
#
#
# Mechanical properties :
#
#
# Convention : Reuss Voigt Hill
#
# Bulk Modulus (GPa) = 52.93215 61.88934 57.41074
# Shear Modulus (GPa) = -37.95149 11.75460 -13.09844
#
# Velocity S-wave (km/s) = -4.41919 2.45942 -2.59620
# Velocity P-wave (km/s) = 1.09502 6.31762 4.53384
#
# Compressibility (1/GPa) = 0.01889211
#
# Stress axis : x y z
#
# Youngs Moduli (GPa) = 125.69539 100.59529 41.22391
#
# Poissons Ratio (x) = 0.04965 0.13170
# Poissons Ratio (y) = 0.06204 0.32743
# Poissons Ratio (z) = 0.40157 0.79900
#
# Static dielectric constant tensor:
#      x y z
#    x 1.660630 0.000000 0.000000 
#    y 0.000000 1.711020 0.000000 
#    z 0.000000 0.000000 1.498290 
# 
# From -- ./inp_files/41878.got.cif
#   From: 2010.05.17/outbox.cif.g08.bks.cpg/sg71_21_cif.got.tgz:41878.got - 2010.06.03 16:22:01.
