data_PCOD9517942
_publ_section_title
;
Structure prediction by ZEFSAII (Michael W. Deem and Ramdas Pophale) SiO2 
 PCOD9517942
Probable space group: I M M M
;
_chemical_formula_sum "Si O2"
_cell_formula_units_Z 104
_cell_length_a 17.818431
_cell_length_b 27.198502
_cell_length_c 13.256784
_cell_angle_alpha 90.000000
_cell_angle_beta 90.000000
_cell_angle_gamma 90.000000
_cell_volume 6424.696625
_symmetry_space_group_name_H-M "I M M M"
_symmetry_group_IT_number 71
_symmetry_cell_setting 'orthorhombic'
loop_
_space_group_symop_operation_xyz
x,y,z
-x,-y,z
x,-y,-z
-x,y,-z
-x,-y,-z
x,y,-z
-x,y,z
x,-y,z
1/2+x,1/2+y,1/2+z
1/2-x,1/2-y,1/2+z
1/2+x,1/2-y,1/2-z
1/2-x,1/2+y,1/2-z
1/2-x,1/2-y,1/2-z
1/2+x,1/2+y,1/2-z
1/2-x,1/2+y,1/2+z
1/2+x,1/2-y,1/2+z
loop_
_atom_site_type_symbol
_atom_site_label
_atom_site_fract_x
_atom_site_fract_y
_atom_site_fract_z
Si Si1 0.724795 0.629280 0.271502
Si Si2 0.500000 0.443798 0.122142
Si Si3 0.256021 0.789879 0.612301
Si Si4 0.333644 0.559259 0.117652
Si Si5 0.417220 0.772550 0.692567
Si Si6 0.662445 0.809039 0.883243
Si Si7 0.082967 0.161652 0.880568
O O1 0.718809 0.675070 0.193885
O O2 0.722947 0.582643 0.197842
O O3 0.797717 0.642498 0.337900
O O4 0.652377 0.629841 0.342933
O O5 0.500000 0.500000 0.160916
O O6 0.581729 0.422054 0.146132
O O7 0.500000 0.446623 0.000000
O O8 0.237510 0.806420 0.500000
O O9 0.345174 0.791313 0.630893
O O10 0.225638 0.734321 0.622406
O O11 0.334511 0.500000 0.122722
O O12 0.319001 0.572085 0.000000
O O13 0.500000 0.789260 0.659615
O O14 0.401171 0.789940 0.806958
O O15 0.415728 0.713832 0.677064
O O16 0.640762 0.814244 0.000000
O O17 0.000000 0.139412 0.864698
O O18 0.091035 0.172101 0.000000
#
# Coordination Sequence:
#
# PCOD9517942 Si02
#       7
#    16   8  16  16  16  16  16
#     4  11  18  29  47  66  86 121 159 189 226 278
#     4   7  12  26  44  60  83 115 145 179 230 276
#     4  10  18  30  45  65  92 121 151 186 227 270
#     4   9  18  31  46  66  91 117 149 192 237 275
#     4  10  18  30  46  64  87 121 158 189 223 264
#     4  10  19  32  46  64  93 123 151 187 231 272
#     4  10  19  29  42  63  91 121 157 198 232 264
#
# _framework density 16.187535
#
# number of rings (size 3 to 8) (size 9 to 14) (size 15 to 20)
#    0.000    2.231    3.077    3.231    1.077    1.231 
#    0.000    0.000    0.000    1.846    0.000    1.077 
#    0.000    9.846    0.000   39.385    0.000    0.000 
#
# Total GULP energy -289487.993397 kJ/mol
# GULP energy per Si atom -5567.076796 kJ/mol
# Density = 1.615069 g / cm^3
# Si number density = 16.187535 Si / 1000 Ang^3
#
#
#
# Elastic Constant Matrix: (Units=GPa)
#
#
# Indices 1 2 3 4 5 6 
#
# 1 50.0453 4.6906 0.8926 0.0000 0.0000 0.0000
# 2 4.6906 25.7326 10.7010 0.0000 0.0000 0.0000
# 3 0.8926 10.7010 58.8320 0.0001 0.0000 0.0000
# 4 0.0000 0.0000 0.0001 21.7105 0.0000 0.0000
# 5 0.0000 0.0000 0.0000 0.0000 13.8087 0.0000
# 6 0.0000 0.0000 0.0000 0.0000 0.0000 11.2461
#
#
#
# Elastic Compliance Matrix: (Units=1/GPa)
#
#
# Indices 1 2 3 4 5 6 
#
# 1 0.020338 -0.003872 0.000396 0.000000 0.000000 0.000000
# 2 -0.003872 0.042778 -0.007722 0.000000 0.000000 0.000000
# 3 0.000396 -0.007722 0.018396 0.000000 0.000000 0.000000
# 4 0.000000 0.000000 0.000000 0.046061 0.000000 0.000000
# 5 0.000000 0.000000 0.000000 0.000000 0.072418 0.000000
# 6 0.000000 0.000000 0.000000 0.000000 0.000000 0.088919
#
#
# Mechanical properties :
#
#
# Convention : Reuss Voigt Hill
#
# Bulk Modulus (GPa) = 16.91606 18.57539 17.74572
# Shear Modulus (GPa) = 15.10517 17.24142 16.17329
#
# Velocity S-wave (km/s) = 3.05804 3.26713 3.16432
# Velocity P-wave (km/s) = 4.78973 5.07270 4.93325
#
# Compressibility (1/GPa) = 0.05911543
#
# Stress axis : x y z
#
# Youngs Moduli (GPa) = 49.16965 23.37636 54.35917
#
# Poissons Ratio (x) = 0.09051 -0.02151
# Poissons Ratio (y) = 0.19037 0.41978
# Poissons Ratio (z) = -0.01945 0.18052
#
# Static dielectric constant tensor:
#      x y z
#    x 1.575350 0.000000 0.000000 
#    y 0.000000 1.539090 0.000000 
#    z 0.000000 0.000000 1.572440 
# 
# From -- ./inp_files/37089.got.cif
#   From: 2010.05.17/outbox.cif.g08.bks.cpg/sg71_19_cif.got.tgz:37089.got - 2010.06.03 16:22:01.
