data_PCOD9517785
_publ_section_title
;
Structure prediction by ZEFSAII (Michael W. Deem and Ramdas Pophale) SiO2 
 PCOD9517785
Probable space group: I M M M
;
_chemical_formula_sum "Si O2"
_cell_formula_units_Z 88
_cell_length_a 27.820283
_cell_length_b 7.752355
_cell_length_c 21.151027
_cell_angle_alpha 90.000000
_cell_angle_beta 90.000000
_cell_angle_gamma 90.000000
_cell_volume 4561.699313
_symmetry_space_group_name_H-M "I M M M"
_symmetry_group_IT_number 71
_symmetry_cell_setting 'orthorhombic'
loop_
_space_group_symop_operation_xyz
x,y,z
-x,-y,z
x,-y,-z
-x,y,-z
-x,-y,-z
x,y,-z
-x,y,z
x,-y,z
1/2+x,1/2+y,1/2+z
1/2-x,1/2-y,1/2+z
1/2+x,1/2-y,1/2-z
1/2-x,1/2+y,1/2-z
1/2-x,1/2-y,1/2-z
1/2+x,1/2+y,1/2-z
1/2-x,1/2+y,1/2+z
1/2+x,1/2-y,1/2+z
loop_
_atom_site_type_symbol
_atom_site_label
_atom_site_fract_x
_atom_site_fract_y
_atom_site_fract_z
Si Si1 0.174859 0.212393 0.862995
Si Si2 0.055211 0.705268 0.500000
Si Si3 0.722020 0.703298 0.000000
Si Si4 0.367745 0.701782 0.233861
Si Si5 0.445209 0.293430 0.862682
Si Si6 0.286431 0.794650 0.137679
Si Si7 0.668202 0.697626 0.500000
O O1 0.144955 0.273628 0.802702
O O2 0.230891 0.263490 0.855975
O O3 0.155937 0.273380 0.931453
O O4 0.174920 0.000000 0.864215
O O5 0.053766 0.500000 0.500000
O O6 0.075874 0.760670 0.567318
O O7 0.000000 0.774451 0.500000
O O8 0.697585 0.751109 0.066078
O O9 0.731581 0.500000 0.000000
O O10 0.773362 0.800616 0.000000
O O11 0.378652 0.500000 0.243844
O O12 0.411170 0.777351 0.192413
O O13 0.320700 0.714212 0.189885
O O14 0.500000 0.225546 0.860372
O O15 0.447502 0.500000 0.855874
O O16 0.287827 0.000000 0.145684
O O17 0.651174 0.500000 0.500000
#
# Coordination Sequence:
#
# PCOD9517785 Si02
#       7
#    16   8   8  16  16  16   8
#     4   8  15  28  46  66  88 115 146 180 216 259
#     4   9  17  30  49  68  85 110 146 186 223 258
#     4  10  18  29  45  64  87 119 156 186 214 251
#     4  10  19  30  45  66  89 115 149 183 219 263
#     4   9  18  32  48  65  87 115 146 181 219 258
#     4  10  19  31  45  63  90 120 149 182 221 260
#     4   8  14  28  47  65  87 115 147 182 220 257
#
# _framework density 19.291056000000001
#
# number of rings (size 3 to 8) (size 9 to 14) (size 15 to 20)
#    0.000    2.818    0.000    3.273    0.000    2.545 
#    0.000    4.545    0.000    0.000    0.000    0.636 
#    0.000    5.091    0.000    0.000    0.000   25.364 
#
# Total GULP energy -245292.624210 kJ/mol
# GULP energy per Si atom -5574.832368 kJ/mol
# Density = 1.924715 g / cm^3
# Si number density = 19.291056 Si / 1000 Ang^3
#
#
#
# Elastic Constant Matrix: (Units=GPa)
#
#
# Indices 1 2 3 4 5 6 
#
# 1 64.5377 2.2094 66.5977 0.0000 0.0000 0.0000
# 2 2.2094 34.0824 -8.7442 0.0000 0.0000 0.0000
# 3 66.5977 -8.7442 203.5131 0.0000 0.0000 0.0000
# 4 0.0000 0.0000 0.0000 -4.8771 0.0000 0.0000
# 5 0.0000 0.0000 0.0000 0.0000 217.5760 0.0000
# 6 0.0000 0.0000 0.0000 0.0000 0.0000 7.4601
#
#
#
# Elastic Compliance Matrix: (Units=1/GPa)
#
#
# Indices 1 2 3 4 5 6 
#
# 1 0.023820 -0.003583 -0.007949 0.000000 0.000000 0.000000
# 2 -0.003583 0.030207 0.002471 0.000000 0.000000 0.000000
# 3 -0.007949 0.002471 0.007621 0.000000 0.000000 0.000000
# 4 0.000000 0.000000 0.000000 -0.205038 0.000000 0.000000
# 5 0.000000 0.000000 0.000000 0.000000 0.004596 0.000000
# 6 0.000000 0.000000 0.000000 0.000000 0.000000 0.134046
#
#
# Mechanical properties :
#
#
# Convention : Reuss Voigt Hill
#
# Bulk Modulus (GPa) = 22.97565 46.91765 34.94665
# Shear Modulus (GPa) = 179.31406 60.16980 119.74193
#
# Velocity S-wave (km/s) = 9.65162 5.59091 7.88708
# Velocity P-wave (km/s) = 11.66794 8.12720 10.05465
#
# Compressibility (1/GPa) = 0.04352433
#
# Stress axis : x y z
#
# Youngs Moduli (GPa) = 41.98139 33.10509 131.21587
#
# Poissons Ratio (x) = 0.11863 1.04302
# Poissons Ratio (y) = 0.15044 -0.32417
# Poissons Ratio (z) = 0.33370 -0.08179
#
# Static dielectric constant tensor:
#      x y z
#    x 1.676350 0.000000 0.000000 
#    y 0.000000 1.703860 0.000000 
#    z 0.000000 0.000000 1.722950 
# 
# From -- ./inp_files/51092.got.cif
#   From: 2010.05.17/outbox.cif.g08.bks.cpg/sg71_26_cif.got.tgz:51092.got - 2010.06.03 16:22:01.
