data_PCOD9517629
_publ_section_title
;
Structure prediction by ZEFSAII (Michael W. Deem and Ramdas Pophale) SiO2 
 PCOD9517629
Probable space group: I M M M
;
_chemical_formula_sum "Si O2"
_cell_formula_units_Z 112
_cell_length_a 28.877535
_cell_length_b 7.362753
_cell_length_c 22.689126
_cell_angle_alpha 90.000000
_cell_angle_beta 90.000000
_cell_angle_gamma 90.000000
_cell_volume 4824.120164
_symmetry_space_group_name_H-M "I M M M"
_symmetry_group_IT_number 71
_symmetry_cell_setting 'orthorhombic'
loop_
_space_group_symop_operation_xyz
x,y,z
-x,-y,z
x,-y,-z
-x,y,-z
-x,-y,-z
x,y,-z
-x,y,z
x,-y,z
1/2+x,1/2+y,1/2+z
1/2-x,1/2-y,1/2+z
1/2+x,1/2-y,1/2-z
1/2-x,1/2+y,1/2-z
1/2-x,1/2-y,1/2-z
1/2+x,1/2+y,1/2-z
1/2-x,1/2+y,1/2+z
1/2+x,1/2-y,1/2+z
loop_
_atom_site_type_symbol
_atom_site_label
_atom_site_fract_x
_atom_site_fract_y
_atom_site_fract_z
Si Si1 0.695406 0.716974 0.250823
Si Si2 0.395041 0.278254 0.807252
Si Si3 0.946311 0.778977 0.812654
Si Si4 0.107622 0.778533 0.434872
Si Si5 0.214771 0.782467 0.435551
Si Si6 0.899500 0.778442 0.935586
Si Si7 0.190686 0.213862 0.878326
O O1 0.691010 0.500000 0.249858
O O2 0.750000 0.750000 0.250000
O O3 0.658873 0.778803 0.201949
O O4 0.679083 0.789063 0.314152
O O5 0.396631 0.500000 0.808055
O O6 0.421624 0.220073 0.748122
O O7 0.413093 0.220544 0.871801
O O8 0.924887 0.720164 0.875429
O O9 0.000000 0.729407 0.810599
O O10 0.942799 0.000000 0.812682
O O11 0.090512 0.719732 0.500000
O O12 0.161815 0.722736 0.430486
O O13 0.106033 0.000000 0.435934
O O14 0.231668 0.721881 0.500000
O O15 0.255127 0.735367 0.390765
O O16 0.212171 0.000000 0.434575
O O17 0.845734 0.721532 0.926595
O O18 0.902409 0.000000 0.936620
O O19 0.916452 0.717433 0.000000
O O20 0.182403 0.000000 0.874556
#
# Coordination Sequence:
#
# PCOD9517629 Si02
#       7
#    16  16  16  16  16  16  16
#     4  10  19  29  43  63  89 120 151 184 223 266
#     4   9  15  26  41  57  82 110 138 178 221 260
#     4   9  16  26  40  58  80 109 145 179 217 267
#     4   8  14  24  39  57  76 104 141 177 214 255
#     4   9  17  28  41  60  86 116 153 190 218 252
#     4   9  16  26  39  56  81 110 139 175 219 264
#     4  10  18  28  41  60  87 118 151 183 222 270
#
# _framework density 23.216669
#
# number of rings (size 3 to 8) (size 9 to 14) (size 15 to 20)
#    0.000    2.857    1.429    2.143    0.000    2.857 
#    0.000    1.429    0.000    0.429    0.000    3.000 
#    0.000    2.286    0.000    3.000    0.000    2.857 
#
# Total GULP energy -312155.877932 kJ/mol
# GULP energy per Si atom -5574.212106 kJ/mol
# Density = 2.316383 g / cm^3
# Si number density = 23.216669 Si / 1000 Ang^3
#
#
#
# Elastic Constant Matrix: (Units=GPa)
#
#
# Indices 1 2 3 4 5 6 
#
# 1 59.6909 -2.2233 40.6350 0.0000 0.0000 0.0000
# 2 -2.2233 78.4770 7.5972 0.0000 0.0000 0.0000
# 3 40.6350 7.5972 217.1759 0.0000 0.0000 0.0000
# 4 0.0000 0.0000 0.0000 -9.0885 0.0000 0.0000
# 5 0.0000 0.0000 0.0000 0.0000 20.2088 0.0000
# 6 0.0000 0.0000 0.0000 0.0000 0.0000 7.1422
#
#
#
# Elastic Compliance Matrix: (Units=1/GPa)
#
#
# Indices 1 2 3 4 5 6 
#
# 1 0.019261 0.000898 -0.003635 0.000000 0.000000 0.000000
# 2 0.000898 0.012828 -0.000617 0.000000 0.000000 0.000000
# 3 -0.003635 -0.000617 0.005306 0.000000 0.000000 0.000000
# 4 0.000000 0.000000 0.000000 -0.110029 0.000000 0.000000
# 5 0.000000 0.000000 0.000000 0.000000 0.049483 0.000000
# 6 0.000000 0.000000 0.000000 0.000000 0.000000 0.140013
#
#
# Mechanical properties :
#
#
# Convention : Reuss Voigt Hill
#
# Bulk Modulus (GPa) = 32.58763 49.70683 41.14723
# Shear Modulus (GPa) = 37.36919 24.27481 30.82200
#
# Velocity S-wave (km/s) = 4.01631 3.23705 3.64755
# Velocity P-wave (km/s) = 5.96444 5.95212 5.95828
#
# Compressibility (1/GPa) = 0.03068649
#
# Stress axis : x y z
#
# Youngs Moduli (GPa) = 51.91795 77.95615 188.45452
#
# Poissons Ratio (x) = -0.06997 0.68509
# Poissons Ratio (y) = -0.04660 0.11622
# Poissons Ratio (z) = 0.18874 0.04807
#
# Static dielectric constant tensor:
#      x y z
#    x 1.835100 0.000000 0.000000 
#    y 0.000000 1.735770 0.000000 
#    z 0.000000 0.000000 1.921830 
# 
# From -- ./inp_files/27955.got.cif
#   From: 2010.05.17/outbox.cif.g08.bks.cpg/sg71_14_cif.got.tgz:27955.got - 2010.06.03 16:22:01.
