data_PCOD9517606
_publ_section_title
;
Structure prediction by ZEFSAII (Michael W. Deem and Ramdas Pophale) SiO2 
 PCOD9517606
Probable space group: I M M M
;
_chemical_formula_sum "Si O2"
_cell_formula_units_Z 104
_cell_length_a 8.811303
_cell_length_b 30.570359
_cell_length_c 20.556709
_cell_angle_alpha 90.000000
_cell_angle_beta 90.000000
_cell_angle_gamma 90.000000
_cell_volume 5537.251670
_symmetry_space_group_name_H-M "I M M M"
_symmetry_group_IT_number 71
_symmetry_cell_setting 'orthorhombic'
loop_
_space_group_symop_operation_xyz
x,y,z
-x,-y,z
x,-y,-z
-x,y,-z
-x,-y,-z
x,y,-z
-x,y,z
x,-y,z
1/2+x,1/2+y,1/2+z
1/2-x,1/2-y,1/2+z
1/2+x,1/2-y,1/2-z
1/2-x,1/2+y,1/2-z
1/2-x,1/2-y,1/2-z
1/2+x,1/2+y,1/2-z
1/2-x,1/2+y,1/2+z
1/2+x,1/2-y,1/2+z
loop_
_atom_site_type_symbol
_atom_site_label
_atom_site_fract_x
_atom_site_fract_y
_atom_site_fract_z
Si Si1 0.681057 0.140843 0.260563
Si Si2 0.672428 0.308392 0.351396
Si Si3 0.683765 0.286501 0.855731
Si Si4 0.830957 0.405547 0.500000
Si Si5 0.248759 0.810678 0.000000
Si Si6 0.329392 0.288438 0.000000
Si Si7 0.824221 0.450182 0.375831
Si Si8 0.680194 0.549123 0.235798
O O1 0.500000 0.142315 0.260725
O O2 0.741462 0.153368 0.187995
O O3 0.751096 0.178624 0.305689
O O4 0.737820 0.093594 0.286534
O O5 0.500000 0.306435 0.326860
O O6 0.756598 0.262136 0.339653
O O7 0.667882 0.313008 0.429813
O O8 0.500000 0.286039 0.855640
O O9 0.738663 0.298861 0.929369
O O10 0.845299 0.354168 0.500000
O O11 0.758316 0.421223 0.433478
O O12 0.000000 0.425917 0.500000
O O13 0.333005 0.764458 0.000000
O O14 0.500000 0.306318 0.000000
O O15 0.830351 0.500000 0.399778
O O16 0.723429 0.450133 0.311915
O O17 0.000000 0.437139 0.359256
O O18 0.500000 0.552998 0.226249
O O19 0.727116 0.500000 0.212071
#
# Coordination Sequence:
#
# PCOD9517606 Si02
#       8
#    16  16  16   8   8   8  16  16
#     4  12  24  37  55  81 110 143 181 220 266 318
#     4  11  22  37  54  76 108 145 185 229 274 318
#     4  10  20  37  59  84 112 142 177 217 262 314
#     4  10  18  27  43  66  92 126 172 221 264 310
#     4  10  20  31  48  72 101 140 183 226 271 314
#     4   8  17  33  54  78 106 139 173 209 253 311
#     4   9  17  30  47  67  93 127 168 215 266 317
#     4  10  21  37  55  75 100 131 169 216 268 318
#
# _framework density 18.781880999999998
#
# number of rings (size 3 to 8) (size 9 to 14) (size 15 to 20)
#    0.000    1.846    0.000    4.846    0.000    4.923 
#    0.000    2.308    0.000    1.846    0.000    0.538 
#    0.000    4.308    0.000    0.000    0.000    0.000 
#
# Total GULP energy -289843.400250 kJ/mol
# GULP energy per Si atom -5573.911543 kJ/mol
# Density = 1.873913 g / cm^3
# Si number density = 18.781881 Si / 1000 Ang^3
#
#
#
# Elastic Constant Matrix: (Units=GPa)
#
#
# Indices 1 2 3 4 5 6 
#
# 1 97.1062 36.5584 11.4719 0.0000 0.0000 0.0000
# 2 36.5584 106.9184 22.8907 0.0000 0.0000 0.0000
# 3 11.4719 22.8907 55.8245 0.0000 -0.0001 0.0000
# 4 0.0000 0.0000 0.0000 24.1644 0.0000 0.0000
# 5 0.0000 0.0000 -0.0001 0.0000 3.4716 0.0000
# 6 0.0000 0.0000 0.0000 0.0000 0.0000 20.8536
#
#
#
# Elastic Compliance Matrix: (Units=1/GPa)
#
#
# Indices 1 2 3 4 5 6 
#
# 1 0.011856 -0.003872 -0.000849 0.000000 0.000000 0.000000
# 2 -0.003872 0.011518 -0.003927 0.000000 0.000000 0.000000
# 3 -0.000849 -0.003927 0.019698 0.000000 0.000000 0.000000
# 4 0.000000 0.000000 0.000000 0.041383 0.000000 0.000000
# 5 0.000000 0.000000 0.000000 0.000000 0.288051 0.000000
# 6 0.000000 0.000000 0.000000 0.000000 0.000000 0.047953
#
#
# Mechanical properties :
#
#
# Convention : Reuss Voigt Hill
#
# Bulk Modulus (GPa) = 38.79595 44.63237 41.71416
# Shear Modulus (GPa) = 11.20205 22.29312 16.74758
#
# Velocity S-wave (km/s) = 2.44484 3.44895 2.98935
# Velocity P-wave (km/s) = 5.35449 6.29884 5.84577
#
# Compressibility (1/GPa) = 0.02577588
#
# Stress axis : x y z
#
# Youngs Moduli (GPa) = 84.34496 86.82268 50.76672
#
# Poissons Ratio (x) = 0.33620 0.04308
# Poissons Ratio (y) = 0.32660 0.19936
# Poissons Ratio (z) = 0.07158 0.34096
#
# Static dielectric constant tensor:
#      x y z
#    x 1.668330 0.000000 0.000000 
#    y 0.000000 1.669220 0.000000 
#    z 0.000000 0.000000 1.690790 
# 
# From -- ./inp_files/51238.got.cif
#   From: 2010.05.17/outbox.cif.g08.bks.cpg/sg71_26_cif.got.tgz:51238.got - 2010.06.03 16:22:01.
