data_PCOD9517822
_publ_section_title
;
Structure prediction by ZEFSAII (Michael W. Deem and Ramdas Pophale) SiO2 
 PCOD9517822
Probable space group: I M M M
;
_chemical_formula_sum "Si O2"
_cell_formula_units_Z 88
_cell_length_a 28.715287
_cell_length_b 19.366199
_cell_length_c 7.315310
_cell_angle_alpha 90.000000
_cell_angle_beta 90.000000
_cell_angle_gamma 90.000000
_cell_volume 4068.087508
_symmetry_space_group_name_H-M "I M M M"
_symmetry_group_IT_number 71
_symmetry_cell_setting 'orthorhombic'
loop_
_space_group_symop_operation_xyz
x,y,z
-x,-y,z
x,-y,-z
-x,y,-z
-x,-y,-z
x,y,-z
-x,y,z
x,-y,z
1/2+x,1/2+y,1/2+z
1/2-x,1/2-y,1/2+z
1/2+x,1/2-y,1/2-z
1/2-x,1/2+y,1/2-z
1/2-x,1/2-y,1/2-z
1/2+x,1/2+y,1/2-z
1/2-x,1/2+y,1/2+z
1/2+x,1/2-y,1/2+z
loop_
_atom_site_type_symbol
_atom_site_label
_atom_site_fract_x
_atom_site_fract_y
_atom_site_fract_z
Si Si1 0.244727 0.577201 0.777640
Si Si2 0.945211 0.349796 0.722022
Si Si3 0.200904 0.713482 0.216157
Si Si4 0.393142 0.716089 0.204977
Si Si5 0.944272 0.500000 0.279472
Si Si6 0.352227 0.421538 0.223084
O O1 0.232499 0.500000 0.720784
O O2 0.209088 0.635574 0.717475
O O3 0.298336 0.591221 0.721139
O O4 0.245318 0.579019 0.000000
O O5 0.940374 0.349607 0.500000
O O6 0.921391 0.279705 0.790176
O O7 0.926321 0.425010 0.784699
O O8 0.000000 0.347601 0.763406
O O9 0.250000 0.750000 0.250000
O O10 0.159143 0.754152 0.305916
O O11 0.191516 0.713108 0.000000
O O12 0.385719 0.640008 0.287361
O O13 0.412372 0.705869 0.000000
O O14 0.939865 0.500000 0.500000
O O15 0.000000 0.500000 0.241380
O O16 0.364309 0.500000 0.276246
O O17 0.352445 0.419376 0.000000
#
# Coordination Sequence:
#
# PCOD9517822 Si02
#       6
#    16  16  16  16   8  16
#     4   8  14  26  43  59  79 114 154 179 202 254
#     4   8  14  25  43  65  89 118 150 184 223 270
#     4  11  20  31  47  66  91 119 150 185 224 264
#     4  10  18  29  46  68  91 115 149 188 228 268
#     4   7  10  20  38  60  87 119 149 175 215 271
#     4   8  13  23  41  62  82 112 152 181 207 258
#
# _framework density 21.631785000000001
#
# number of rings (size 3 to 8) (size 9 to 14) (size 15 to 20)
#    0.000    3.182    1.818    2.727    0.000    0.000 
#    1.636    0.000    0.000    4.364    0.000    3.818 
#    0.000    2.182    0.000    1.636    0.000    1.818 
#
# Total GULP energy -245311.857017 kJ/mol
# GULP energy per Si atom -5575.269478 kJ/mol
# Density = 2.158255 g / cm^3
# Si number density = 21.631785 Si / 1000 Ang^3
#
#
#
# Elastic Constant Matrix: (Units=GPa)
#
#
# Indices 1 2 3 4 5 6 
#
# 1 26.9657 36.0595 -4.1144 0.0000 0.0000 0.0000
# 2 36.0595 209.1349 5.8320 0.0000 0.0000 0.0000
# 3 -4.1144 5.8320 92.5325 0.0000 0.0000 0.0000
# 4 0.0000 0.0000 0.0000 -6.3427 0.0000 0.0000
# 5 0.0000 0.0000 0.0000 0.0000 -6.6719 0.0000
# 6 0.0000 0.0000 0.0000 0.0000 0.0000 41.1541
#
#
#
# Elastic Compliance Matrix: (Units=1/GPa)
#
#
# Indices 1 2 3 4 5 6 
#
# 1 0.048865 -0.008501 0.002709 0.000000 0.000000 0.000000
# 2 -0.008501 0.006269 -0.000773 0.000000 0.000000 0.000000
# 3 0.002709 -0.000773 0.010976 0.000000 0.000000 0.000000
# 4 0.000000 0.000000 0.000000 -0.157661 0.000000 0.000000
# 5 0.000000 0.000000 0.000000 0.000000 -0.149882 0.000000
# 6 0.000000 0.000000 0.000000 0.000000 0.000000 0.024299
#
#
# Mechanical properties :
#
#
# Convention : Reuss Voigt Hill
#
# Bulk Modulus (GPa) = 18.87533 44.90969 31.89251
# Shear Modulus (GPa) = -26.83210 25.01831 -0.90689
#
# Velocity S-wave (km/s) = -3.52575 3.40450 -0.64819
# Velocity P-wave (km/s) = 2.79820 6.02165 3.77030
#
# Compressibility (1/GPa) = 0.05297921
#
# Stress axis : x y z
#
# Youngs Moduli (GPa) = 20.46449 159.51725 91.10643
#
# Poissons Ratio (x) = 1.35605 -0.24677
# Poissons Ratio (y) = 0.17397 0.07043
# Poissons Ratio (z) = -0.05543 0.12332
#
# Static dielectric constant tensor:
#      x y z
#    x 1.738540 0.000000 0.000000 
#    y 0.000000 1.852600 0.000000 
#    z 0.000000 0.000000 1.921000 
# 
# From -- ./inp_files/16885.got.cif
#   From: 2010.05.17/outbox.cif.g08.bks.cpg/sg71_9_cif.got.tgz:16885.got - 2010.06.03 16:22:01.
