data_PCOD9517892
_publ_section_title
;
Structure prediction by ZEFSAII (Michael W. Deem and Ramdas Pophale) SiO2 
 PCOD9517892
Probable space group: I M M M
;
_chemical_formula_sum "Si O2"
_cell_formula_units_Z 80
_cell_length_a 22.174827
_cell_length_b 7.358128
_cell_length_c 22.546720
_cell_angle_alpha 90.000000
_cell_angle_beta 90.000000
_cell_angle_gamma 90.000000
_cell_volume 3678.840426
_symmetry_space_group_name_H-M "I M M M"
_symmetry_group_IT_number 71
_symmetry_cell_setting 'orthorhombic'
loop_
_space_group_symop_operation_xyz
x,y,z
-x,-y,z
x,-y,-z
-x,y,-z
-x,-y,-z
x,y,-z
-x,y,z
x,-y,z
1/2+x,1/2+y,1/2+z
1/2-x,1/2-y,1/2+z
1/2+x,1/2-y,1/2-z
1/2-x,1/2+y,1/2-z
1/2-x,1/2-y,1/2-z
1/2+x,1/2+y,1/2-z
1/2-x,1/2+y,1/2+z
1/2+x,1/2-y,1/2+z
loop_
_atom_site_type_symbol
_atom_site_label
_atom_site_fract_x
_atom_site_fract_y
_atom_site_fract_z
Si Si1 0.679025 0.281731 0.735463
Si Si2 0.931100 0.222198 0.000000
Si Si3 0.000000 0.777539 0.430618
Si Si4 0.791594 0.280567 0.435199
Si Si5 0.341506 0.278956 0.398214
Si Si6 0.607515 0.295638 0.154030
O O1 0.673171 0.500000 0.736133
O O2 0.750000 0.250000 0.750000
O O3 0.661612 0.217156 0.669778
O O4 0.631972 0.210692 0.784892
O O5 0.895129 0.280483 0.058898
O O6 0.000000 0.280564 0.000000
O O7 0.930304 0.000000 0.000000
O O8 0.942450 0.717982 0.391003
O O9 0.000000 0.718154 0.500000
O O10 0.000000 0.000000 0.433371
O O11 0.814233 0.227517 0.500000
O O12 0.795111 0.500000 0.430248
O O13 0.722186 0.229808 0.427651
O O14 0.831919 0.198330 0.384540
O O15 0.343564 0.500000 0.396784
O O16 0.585896 0.500000 0.167947
#
# Coordination Sequence:
#
# PCOD9517892 Si02
#       6
#    16   8   8  16  16  16
#     4  10  19  31  49  73 101 129 161 204 250 298
#     4   9  16  28  46  70  99 132 169 202 242 301
#     4   9  18  34  51  67  97 136 164 200 251 295
#     4  10  18  29  49  73  98 129 163 203 253 297
#     4   9  16  28  44  66  98 130 156 196 251 293
#     4  10  20  33  50  72  98 132 171 206 247 300
#
# _framework density 21.745982999999999
#
# number of rings (size 3 to 8) (size 9 to 14) (size 15 to 20)
#    0.000    2.400    3.000    0.600    0.000    1.200 
#    1.800    0.500    0.000    1.800    0.000    0.000 
#    0.000    5.600    0.000    0.000    0.000    0.000 
#
# Total GULP energy -223198.465281 kJ/mol
# GULP energy per Si atom -5579.961632 kJ/mol
# Density = 2.169649 g / cm^3
# Si number density = 21.745983 Si / 1000 Ang^3
#
#
#
# Elastic Constant Matrix: (Units=GPa)
#
#
# Indices 1 2 3 4 5 6 
#
# 1 138.2554 -1.4777 72.5889 0.0000 0.0000 0.0000
# 2 -1.4777 79.3678 4.6622 0.0000 0.0000 0.0000
# 3 72.5889 4.6622 198.4481 0.0000 0.0000 0.0000
# 4 0.0000 0.0000 0.0000 0.2027 0.0000 0.0000
# 5 0.0000 0.0000 0.0000 0.0000 39.2436 0.0000
# 6 0.0000 0.0000 0.0000 0.0000 0.0000 14.3541
#
#
#
# Elastic Compliance Matrix: (Units=1/GPa)
#
#
# Indices 1 2 3 4 5 6 
#
# 1 0.008963 0.000360 -0.003287 0.000000 0.000000 0.000000
# 2 0.000360 0.012631 -0.000428 0.000000 0.000000 0.000000
# 3 -0.003287 -0.000428 0.006251 0.000000 0.000000 0.000000
# 4 0.000000 0.000000 0.000000 4.933834 0.000000 0.000000
# 5 0.000000 0.000000 0.000000 0.000000 0.025482 0.000000
# 6 0.000000 0.000000 0.000000 0.000000 0.000000 0.069666
#
#
# Mechanical properties :
#
#
# Convention : Reuss Voigt Hill
#
# Bulk Modulus (GPa) = 47.31522 63.06867 55.19195
# Shear Modulus (GPa) = 0.98608 33.44660 17.21634
#
# Velocity S-wave (km/s) = 0.67412 3.92606 2.81677
# Velocity P-wave (km/s) = 4.73406 7.04396 6.00119
#
# Compressibility (1/GPa) = 0.02113485
#
# Stress axis : x y z
#
# Youngs Moduli (GPa) = 111.57582 79.16753 159.96376
#
# Poissons Ratio (x) = -0.02850 0.52577
# Poissons Ratio (y) = -0.04016 0.06853
# Poissons Ratio (z) = 0.36673 0.03392
#
# Static dielectric constant tensor:
#      x y z
#    x 1.748640 0.000000 0.000000 
#    y 0.000000 1.940340 0.000000 
#    z 0.000000 0.000000 1.807360 
# 
# From -- ./inp_files/10260.got.cif
#   From: 2010.05.17/outbox.cif.g08.bks.cpg/sg71_6_cif.got.tgz:10260.got - 2010.06.03 16:22:01.
