data_PCOD9517672
_publ_section_title
;
Structure prediction by ZEFSAII (Michael W. Deem and Ramdas Pophale) SiO2 
 PCOD9517672
Probable space group: I M M M
;
_chemical_formula_sum "Si O2"
_cell_formula_units_Z 80
_cell_length_a 7.422789
_cell_length_b 28.271433
_cell_length_c 18.394935
_cell_angle_alpha 90.000000
_cell_angle_beta 90.000000
_cell_angle_gamma 90.000000
_cell_volume 3860.230122
_symmetry_space_group_name_H-M "I M M M"
_symmetry_group_IT_number 71
_symmetry_cell_setting 'orthorhombic'
loop_
_space_group_symop_operation_xyz
x,y,z
-x,-y,z
x,-y,-z
-x,y,-z
-x,-y,-z
x,y,-z
-x,y,z
x,-y,z
1/2+x,1/2+y,1/2+z
1/2-x,1/2-y,1/2+z
1/2+x,1/2-y,1/2-z
1/2-x,1/2+y,1/2-z
1/2-x,1/2-y,1/2-z
1/2+x,1/2+y,1/2-z
1/2-x,1/2+y,1/2+z
1/2+x,1/2-y,1/2+z
loop_
_atom_site_type_symbol
_atom_site_label
_atom_site_fract_x
_atom_site_fract_y
_atom_site_fract_z
Si Si1 0.706764 0.075655 0.921529
Si Si2 0.709375 0.320096 0.379446
Si Si3 0.220162 0.715803 0.919239
Si Si4 0.781935 0.653345 0.216076
Si Si5 0.720145 0.051387 0.237792
O O1 0.500000 0.059256 0.923265
O O2 0.704927 0.132533 0.911535
O O3 0.783952 0.056611 0.845928
O O4 0.788340 0.063909 0.000000
O O5 0.500000 0.322839 0.399953
O O6 0.780017 0.269799 0.406134
O O7 0.725185 0.323014 0.292096
O O8 0.280720 0.682134 0.853951
O O9 0.000000 0.716448 0.916668
O O10 0.272711 0.700226 0.000000
O O11 0.722947 0.598552 0.220100
O O12 0.000000 0.653744 0.215805
O O13 0.500000 0.052660 0.236238
O O14 0.773951 0.000000 0.266397
#
# Coordination Sequence:
#
# PCOD9517672 Si02
#       5
#    16  16  16  16  16
#     4   9  17  28  42  62  88 116 145 175 206 243
#     4  10  18  28  44  64  88 117 145 171 203 247
#     4   9  17  28  43  64  88 114 142 171 208 253
#     4   9  17  30  47  64  84 111 143 177 209 246
#     4   8  14  25  42  63  83 106 140 178 213 248
#
# _framework density 20.724153999999999
#
# number of rings (size 3 to 8) (size 9 to 14) (size 15 to 20)
#    0.000    3.000    0.000    3.000    0.000    1.600 
#    0.000    3.000    0.000   13.200    0.000    9.800 
#    0.000    0.000    0.000    7.200    0.000    8.000 
#
# Total GULP energy -223234.350128 kJ/mol
# GULP energy per Si atom -5580.858753 kJ/mol
# Density = 2.067698 g / cm^3
# Si number density = 20.724154 Si / 1000 Ang^3
#
#
#
# Elastic Constant Matrix: (Units=GPa)
#
#
# Indices 1 2 3 4 5 6 
#
# 1 70.5465 0.9528 -6.1471 0.0000 0.0000 0.0000
# 2 0.9528 103.2064 36.3150 0.0000 0.0000 0.0000
# 3 -6.1471 36.3150 84.3211 0.0001 0.0000 0.0000
# 4 0.0000 0.0000 0.0001 -4.0593 0.0000 0.0000
# 5 0.0000 0.0000 0.0000 0.0000 4.4258 0.0000
# 6 0.0000 0.0000 0.0000 0.0000 0.0000 -10.7446
#
#
#
# Elastic Compliance Matrix: (Units=1/GPa)
#
#
# Indices 1 2 3 4 5 6 
#
# 1 0.014296 -0.000588 0.001295 0.000000 0.000000 0.000000
# 2 -0.000588 0.011444 -0.004972 0.000000 0.000000 0.000000
# 3 0.001295 -0.004972 0.014095 0.000000 0.000000 0.000000
# 4 0.000000 0.000000 0.000000 -0.246347 0.000001 0.000000
# 5 0.000000 0.000000 0.000000 0.000001 0.225949 0.000000
# 6 0.000000 0.000000 0.000000 0.000000 0.000000 -0.093070
#
#
# Mechanical properties :
#
#
# Convention : Reuss Voigt Hill
#
# Bulk Modulus (GPa) = 31.94177 35.59060 33.76619
# Shear Modulus (GPa) = -91.45739 13.05460 -39.20140
#
# Velocity S-wave (km/s) = -6.65031 2.51255 -4.35395
# Velocity P-wave (km/s) = 6.59716 5.06241 2.99120
#
# Compressibility (1/GPa) = 0.03130697
#
# Stress axis : x y z
#
# Youngs Moduli (GPa) = 69.95030 87.38154 70.94734
#
# Poissons Ratio (x) = 0.05136 -0.09190
# Poissons Ratio (y) = 0.04111 0.35272
# Poissons Ratio (z) = -0.09061 0.43442
#
# Static dielectric constant tensor:
#      x y z
#    x 1.779380 0.000000 0.000000 
#    y 0.000000 1.737910 0.000000 
#    z 0.000000 0.000000 1.716560 
# 
# From -- ./inp_files/8581.got.cif
#   From: 2010.05.17/outbox.cif.g08.bks.cpg/sg71_5_cif.got.tgz:8581.got - 2010.06.03 16:22:01.
