data_PCOD9517230
_publ_section_title
;
Structure prediction by ZEFSAII (Michael W. Deem and Ramdas Pophale) SiO2 
 PCOD9517230
Probable space group: I M M M
;
_chemical_formula_sum "Si O2"
_cell_formula_units_Z 120
_cell_length_a 23.874444
_cell_length_b 26.334725
_cell_length_c 13.441824
_cell_angle_alpha 90.000000
_cell_angle_beta 90.000000
_cell_angle_gamma 90.000000
_cell_volume 8451.236566
_symmetry_space_group_name_H-M "I M M M"
_symmetry_group_IT_number 71
_symmetry_cell_setting 'orthorhombic'
loop_
_space_group_symop_operation_xyz
x,y,z
-x,-y,z
x,-y,-z
-x,y,-z
-x,-y,-z
x,y,-z
-x,y,z
x,-y,z
1/2+x,1/2+y,1/2+z
1/2-x,1/2-y,1/2+z
1/2+x,1/2-y,1/2-z
1/2-x,1/2+y,1/2-z
1/2-x,1/2-y,1/2-z
1/2+x,1/2+y,1/2-z
1/2-x,1/2+y,1/2+z
1/2+x,1/2-y,1/2+z
loop_
_atom_site_type_symbol
_atom_site_label
_atom_site_fract_x
_atom_site_fract_y
_atom_site_fract_z
Si Si1 0.319413 0.839510 0.882644
Si Si2 0.253400 0.732536 0.887058
Si Si3 0.855593 0.201827 0.115494
Si Si4 0.065272 0.805917 0.702394
Si Si5 0.722401 0.361909 0.743424
Si Si6 0.563620 0.500000 0.120410
Si Si7 0.365149 0.400958 0.881322
Si Si8 0.061466 0.693807 0.381148
O O1 0.292569 0.782442 0.876878
O O2 0.280611 0.873135 0.811167
O O3 0.383352 0.835792 0.847224
O O4 0.316438 0.853498 0.000000
O O5 0.189525 0.752216 0.874922
O O6 0.268872 0.689036 0.810043
O O7 0.260579 0.713778 0.000000
O O8 0.907350 0.205377 0.190198
O O9 0.820228 0.153547 0.155113
O O10 0.870454 0.197419 0.000000
O O11 0.101080 0.849923 0.649285
O O12 0.068942 0.753248 0.642744
O O13 0.000000 0.820493 0.708798
O O14 0.691863 0.400310 0.817431
O O15 0.500000 0.500000 0.158558
O O16 0.597200 0.449289 0.147232
O O17 0.560641 0.500000 0.000000
O O18 0.355589 0.401332 0.000000
O O19 0.060828 0.688385 0.500000
O O20 0.000000 0.678354 0.342104
#
# Coordination Sequence:
#
# PCOD9517230 Si02
#       8
#    16  16  16  16  16   8  16  16
#     4   9  15  23  35  51  74 103 129 152 181 216
#     4   9  15  22  34  51  72  97 122 153 193 231
#     4   9  17  26  34  48  71  98 127 158 192 226
#     4  10  18  26  38  54  71  97 132 167 197 222
#     4  10  16  24  38  55  72  93 123 157 191 226
#     4   9  18  32  46  58  77 103 122 143 189 249
#     4  10  19  29  42  60  78  94 118 155 196 238
#     4   9  16  24  35  54  80 107 133 160 188 218
#
# _framework density 14.199106
#
# number of rings (size 3 to 8) (size 9 to 14) (size 15 to 20)
#    0.000    2.600    0.000    6.400    0.000    2.667 
#    0.000    0.000    0.000    0.000    0.000   11.667 
#    0.000   17.600    0.000    0.600    0.000    9.533 
#
# Total GULP energy -334056.344803 kJ/mol
# GULP energy per Si atom -5567.605747 kJ/mol
# Density = 1.416679 g / cm^3
# Si number density = 14.199106 Si / 1000 Ang^3
#
#
#
# Elastic Constant Matrix: (Units=GPa)
#
#
# Indices 1 2 3 4 5 6 
#
# 1 108.6140 23.0312 30.1157 0.0000 0.0000 0.0000
# 2 23.0312 23.5150 17.1870 0.0000 0.0000 0.0000
# 3 30.1157 17.1870 53.6476 0.0000 0.0000 0.0000
# 4 0.0000 0.0000 0.0000 7.5227 0.0000 0.0000
# 5 0.0000 0.0000 0.0000 0.0000 23.1611 0.0000
# 6 0.0000 0.0000 0.0000 0.0000 0.0000 15.8537
#
#
#
# Elastic Compliance Matrix: (Units=1/GPa)
#
#
# Indices 1 2 3 4 5 6 
#
# 1 0.012231 -0.009089 -0.003954 0.000000 0.000000 0.000000
# 2 -0.009089 0.062283 -0.014851 0.000000 0.000000 0.000000
# 3 -0.003954 -0.014851 0.025618 0.000000 0.000000 0.000000
# 4 0.000000 0.000000 0.000000 0.132932 0.000000 0.000000
# 5 0.000000 0.000000 0.000000 0.000000 0.043176 0.000000
# 6 0.000000 0.000000 0.000000 0.000000 0.000000 0.063077
#
#
# Mechanical properties :
#
#
# Convention : Reuss Voigt Hill
#
# Bulk Modulus (GPa) = 22.55169 36.27160 29.41164
# Shear Modulus (GPa) = 12.19856 17.00366 14.60111
#
# Velocity S-wave (km/s) = 2.93423 3.46427 3.21021
# Velocity P-wave (km/s) = 5.23417 6.44996 5.87361
#
# Compressibility (1/GPa) = 0.04434258
#
# Stress axis : x y z
#
# Youngs Moduli (GPa) = 81.76274 16.05582 39.03566
#
# Poissons Ratio (x) = 0.14593 0.15434
# Poissons Ratio (y) = 0.74314 0.57973
# Poissons Ratio (z) = 0.32328 0.23845
#
# Static dielectric constant tensor:
#      x y z
#    x 1.519350 0.000000 0.000000 
#    y 0.000000 1.439840 0.000000 
#    z 0.000000 0.000000 1.483650 
# 
# From -- ./inp_files/39733.got.cif
#   From: 2010.05.17/outbox.cif.g08.bks.cpg/sg71_20_cif.got.tgz:39733.got - 2010.06.03 16:22:01.
