data_PCOD9517236
_publ_section_title
;
Structure prediction by ZEFSAII (Michael W. Deem and Ramdas Pophale) SiO2 
 PCOD9517236
Probable space group: I M M M
;
_chemical_formula_sum "Si O2"
_cell_formula_units_Z 80
_cell_length_a 7.522777
_cell_length_b 34.255068
_cell_length_c 20.053754
_cell_angle_alpha 90.000000
_cell_angle_beta 90.000000
_cell_angle_gamma 90.000000
_cell_volume 5167.716796
_symmetry_space_group_name_H-M "I M M M"
_symmetry_group_IT_number 71
_symmetry_cell_setting 'orthorhombic'
loop_
_space_group_symop_operation_xyz
x,y,z
-x,-y,z
x,-y,-z
-x,y,-z
-x,-y,-z
x,y,-z
-x,y,z
x,-y,z
1/2+x,1/2+y,1/2+z
1/2-x,1/2-y,1/2+z
1/2+x,1/2-y,1/2-z
1/2-x,1/2+y,1/2-z
1/2-x,1/2-y,1/2-z
1/2+x,1/2+y,1/2-z
1/2-x,1/2+y,1/2+z
1/2+x,1/2-y,1/2+z
loop_
_atom_site_type_symbol
_atom_site_label
_atom_site_fract_x
_atom_site_fract_y
_atom_site_fract_z
Si Si1 0.709258 0.304786 0.218054
Si Si2 0.205595 0.772047 0.855546
Si Si3 0.718665 0.258934 0.500000
Si Si4 0.785683 0.376154 0.867284
Si Si5 0.783467 0.668757 0.000000
Si Si6 0.216704 0.543815 0.922571
O O1 0.500000 0.295838 0.218646
O O2 0.789332 0.273747 0.165625
O O3 0.782482 0.294665 0.291569
O O4 0.733515 0.348928 0.194290
O O5 0.000000 0.784041 0.860123
O O6 0.280739 0.776649 0.929710
O O7 0.500000 0.259582 0.500000
O O8 0.771777 0.213547 0.500000
O O9 0.724702 0.353461 0.933724
O O10 0.724218 0.420755 0.875598
O O11 0.000000 0.376795 0.868102
O O12 0.000000 0.667971 0.000000
O O13 0.275336 0.500000 0.904935
O O14 0.000000 0.543614 0.921889
O O15 0.266710 0.551468 0.000000
#
# Coordination Sequence:
#
# PCOD9517236 Si02
#       6
#    16  16   8  16   8  16
#     4  10  19  27  36  54  77  96 118 151 187 221
#     4   9  17  29  42  53  68  93 124 156 187 218
#     4   9  14  24  42  55  64  86 126 162 181 207
#     4  10  16  25  40  54  72  99 126 153 185 219
#     4   9  14  20  35  56  69  88 128 159 175 206
#     4   8  13  21  36  58  76  90 120 165 195 207
#
# _framework density 15.480726000000001
#
# number of rings (size 3 to 8) (size 9 to 14) (size 15 to 20)
#    0.000    2.800    3.000    1.200    0.000    0.800 
#    0.000    2.000    0.000    0.600    0.000    1.400 
#    0.000    0.000    0.000    0.900    0.000   20.200 
#
# Total GULP energy -222870.251407 kJ/mol
# GULP energy per Si atom -5571.756285 kJ/mol
# Density = 1.544549 g / cm^3
# Si number density = 15.480726 Si / 1000 Ang^3
#
#
#
# Elastic Constant Matrix: (Units=GPa)
#
#
# Indices 1 2 3 4 5 6 
#
# 1 40.1117 -2.0794 2.1057 0.0000 0.0000 0.0000
# 2 -2.0794 98.6398 47.6086 0.0000 0.0000 0.0000
# 3 2.1057 47.6086 112.6772 0.0000 0.0000 0.0000
# 4 0.0000 0.0000 0.0000 24.9550 0.0000 0.0000
# 5 0.0000 0.0000 0.0000 0.0000 2.8156 0.0000
# 6 0.0000 0.0000 0.0000 0.0000 0.0000 6.9335
#
#
#
# Elastic Compliance Matrix: (Units=1/GPa)
#
#
# Indices 1 2 3 4 5 6 
#
# 1 0.025025 0.000946 -0.000867 0.000000 0.000000 0.000000
# 2 0.000946 0.012771 -0.005414 0.000000 0.000000 0.000000
# 3 -0.000867 -0.005414 0.011178 0.000000 0.000000 0.000000
# 4 0.000000 0.000000 0.000000 0.040072 0.000000 0.000000
# 5 0.000000 0.000000 0.000000 0.000000 0.355159 0.000000
# 6 0.000000 0.000000 0.000000 0.000000 0.000000 0.144228
#
#
# Mechanical properties :
#
#
# Convention : Reuss Voigt Hill
#
# Bulk Modulus (GPa) = 26.10656 38.52205 32.31430
# Shear Modulus (GPa) = 8.17166 20.52708 14.34937
#
# Velocity S-wave (km/s) = 2.30001 3.64535 3.04784
# Velocity P-wave (km/s) = 4.89428 6.53115 5.77104
#
# Compressibility (1/GPa) = 0.03830455
#
# Stress axis : x y z
#
# Youngs Moduli (GPa) = 39.96005 78.30417 89.45762
#
# Poissons Ratio (x) = -0.07409 0.07760
# Poissons Ratio (y) = -0.03781 0.48429
# Poissons Ratio (z) = 0.03466 0.42391
#
# Static dielectric constant tensor:
#      x y z
#    x 1.599990 0.000000 0.000000 
#    y 0.000000 1.514970 0.000000 
#    z 0.000000 0.000000 1.538070 
# 
# From -- ./inp_files/51021.got.cif
#   From: 2010.05.17/outbox.cif.g08.bks.cpg/sg71_26_cif.got.tgz:51021.got - 2010.06.03 16:22:01.
