data_PCOD9517438
_publ_section_title
;
Structure prediction by ZEFSAII (Michael W. Deem and Ramdas Pophale) SiO2 
 PCOD9517438
Probable space group: I M M M
;
_chemical_formula_sum "Si O2"
_cell_formula_units_Z 88
_cell_length_a 13.592464
_cell_length_b 30.330449
_cell_length_c 11.653021
_cell_angle_alpha 90.000000
_cell_angle_beta 90.000000
_cell_angle_gamma 90.000000
_cell_volume 4804.138950
_symmetry_space_group_name_H-M "I M M M"
_symmetry_group_IT_number 71
_symmetry_cell_setting 'orthorhombic'
loop_
_space_group_symop_operation_xyz
x,y,z
-x,-y,z
x,-y,-z
-x,y,-z
-x,-y,-z
x,y,-z
-x,y,z
x,-y,z
1/2+x,1/2+y,1/2+z
1/2-x,1/2-y,1/2+z
1/2+x,1/2-y,1/2-z
1/2-x,1/2+y,1/2-z
1/2-x,1/2-y,1/2-z
1/2+x,1/2+y,1/2-z
1/2-x,1/2+y,1/2+z
1/2+x,1/2-y,1/2+z
loop_
_atom_site_type_symbol
_atom_site_label
_atom_site_fract_x
_atom_site_fract_y
_atom_site_fract_z
Si Si1 0.239518 0.898022 0.806022
Si Si2 0.382310 0.774068 0.748767
Si Si3 0.884947 0.947276 0.000000
Si Si4 0.108180 0.376040 0.500000
Si Si5 0.383337 0.869277 0.637444
Si Si6 0.116848 0.182035 0.868417
Si Si7 0.390015 0.229212 0.000000
O O1 0.170677 0.930359 0.883774
O O2 0.330729 0.889345 0.890273
O O3 0.300966 0.903088 0.687691
O O4 0.172690 0.854399 0.795415
O O5 0.500000 0.777438 0.765464
O O6 0.357764 0.821058 0.692351
O O7 0.365284 0.731839 0.670128
O O8 0.342645 0.762439 0.876103
O O9 0.000000 0.932288 0.000000
O O10 0.883410 0.000000 0.000000
O O11 0.100420 0.323555 0.500000
O O12 0.000000 0.395516 0.500000
O O13 0.377542 0.866523 0.500000
O O14 0.500000 0.878604 0.665965
O O15 0.000000 0.174843 0.862634
O O16 0.149346 0.175369 0.000000
O O17 0.500000 0.249865 0.000000
#
# Coordination Sequence:
#
# PCOD9517438 Si02
#       7
#    16  16   8   8  16  16   8
#     4  11  20  33  57  85 108 140 185 232 285 345
#     4   9  17  29  46  68 105 154 200 242 282 324
#     4  10  22  42  69  96 119 140 170 226 296 360
#     4  10  17  29  49  72 101 139 184 228 280 333
#     4  10  20  35  53  78 116 161 201 235 271 321
#     4  10  19  32  48  70 105 147 189 240 292 337
#     4   9  15  27  43  63  98 143 190 236 277 317
#
# _framework density 18.317539
#
# number of rings (size 3 to 8) (size 9 to 14) (size 15 to 20)
#    0.000    2.091    3.636    1.636    0.000    2.909 
#    1.636    0.000    0.000   12.000    0.000    2.545 
#    0.000    0.000    0.000    0.000    0.000    0.000 
#
# Total GULP energy -244969.647953 kJ/mol
# GULP energy per Si atom -5567.491999 kJ/mol
# Density = 1.827585 g / cm^3
# Si number density = 18.317539 Si / 1000 Ang^3
#
#
#
# Elastic Constant Matrix: (Units=GPa)
#
#
# Indices 1 2 3 4 5 6 
#
# 1 116.7164 29.7636 33.3641 0.0000 0.0000 0.0000
# 2 29.7636 42.9016 8.0247 0.0000 0.0000 0.0000
# 3 33.3641 8.0247 68.7530 0.0001 -0.0003 0.0000
# 4 0.0000 0.0000 0.0001 2.5411 0.0000 0.0000
# 5 0.0000 0.0000 -0.0003 0.0000 26.5671 0.0000
# 6 0.0000 0.0000 0.0000 0.0000 0.0000 16.0346
#
#
#
# Elastic Compliance Matrix: (Units=1/GPa)
#
#
# Indices 1 2 3 4 5 6 
#
# 1 0.011823 -0.007289 -0.004887 0.000000 0.000000 0.000000
# 2 -0.007289 0.028322 0.000231 0.000000 0.000000 0.000000
# 3 -0.004887 0.000231 0.016889 -0.000001 0.000000 0.000000
# 4 0.000000 0.000000 -0.000001 0.393532 0.000000 0.000000
# 5 0.000000 0.000000 0.000000 0.000000 0.037641 0.000000
# 6 0.000000 0.000000 0.000000 0.000000 0.000000 0.062365
#
#
# Mechanical properties :
#
#
# Convention : Reuss Voigt Hill
#
# Bulk Modulus (GPa) = 30.16891 41.18618 35.67754
# Shear Modulus (GPa) = 8.53957 19.50979 14.02468
#
# Velocity S-wave (km/s) = 2.16150 3.26711 2.77003
# Velocity P-wave (km/s) = 4.76814 6.06345 5.45438
#
# Compressibility (1/GPa) = 0.03314671
#
# Stress axis : x y z
#
# Youngs Moduli (GPa) = 84.57837 35.30771 59.20905
#
# Poissons Ratio (x) = 0.25734 0.28935
# Poissons Ratio (y) = 0.61645 -0.01369
# Poissons Ratio (z) = 0.41332 -0.00816
#
# Static dielectric constant tensor:
#      x y z
#    x 1.700630 0.000000 0.000000 
#    y 0.000000 1.604150 0.000000 
#    z 0.000000 0.000000 3.105690 
# 
# From -- ./inp_files/22563.got.cif
#   From: 2010.05.17/outbox.cif.g08.bks.cpg/sg71_12_cif.got.tgz:22563.got - 2010.06.03 16:22:01.
