data_PCOD9517533
_publ_section_title
;
Structure prediction by ZEFSAII (Michael W. Deem and Ramdas Pophale) SiO2 
 PCOD9517533
Probable space group: I M M M
;
_chemical_formula_sum "Si O2"
_cell_formula_units_Z 128
_cell_length_a 24.459948
_cell_length_b 19.799041
_cell_length_c 14.527327
_cell_angle_alpha 90.000000
_cell_angle_beta 90.000000
_cell_angle_gamma 90.000000
_cell_volume 7035.344959
_symmetry_space_group_name_H-M "I M M M"
_symmetry_group_IT_number 71
_symmetry_cell_setting 'orthorhombic'
loop_
_space_group_symop_operation_xyz
x,y,z
-x,-y,z
x,-y,-z
-x,y,-z
-x,-y,-z
x,y,-z
-x,y,z
x,-y,z
1/2+x,1/2+y,1/2+z
1/2-x,1/2-y,1/2+z
1/2+x,1/2-y,1/2-z
1/2-x,1/2+y,1/2-z
1/2-x,1/2-y,1/2-z
1/2+x,1/2+y,1/2-z
1/2-x,1/2+y,1/2+z
1/2+x,1/2-y,1/2+z
loop_
_atom_site_type_symbol
_atom_site_label
_atom_site_fract_x
_atom_site_fract_y
_atom_site_fract_z
Si Si1 0.223559 0.424296 0.111891
Si Si2 0.725374 0.290272 0.111346
Si Si3 0.166009 0.336406 0.608537
Si Si4 0.666190 0.295624 0.611889
Si Si5 0.437119 0.924194 0.856345
Si Si6 0.903763 0.425221 0.853784
Si Si7 0.059448 0.722419 0.893892
Si Si8 0.769075 0.076807 0.887363
O O1 0.242036 0.500000 0.133123
O O2 0.264821 0.366282 0.144614
O O3 0.161916 0.415887 0.149508
O O4 0.217690 0.419002 0.000000
O O5 0.678611 0.238839 0.145742
O O6 0.781982 0.251666 0.132926
O O7 0.720120 0.295749 0.000000
O O8 0.177603 0.331449 0.500000
O O9 0.106307 0.367636 0.616703
O O10 0.211681 0.389427 0.643606
O O11 0.663382 0.295056 0.500000
O O12 0.610272 0.263195 0.647924
O O13 0.682968 0.371255 0.639498
O O14 0.500000 0.910542 0.881224
O O15 0.430448 0.927324 0.746571
O O16 0.422630 0.000000 0.890999
O O17 0.913221 0.500000 0.895562
O O18 0.927221 0.357274 0.896862
O O19 0.000000 0.732551 0.849599
O O20 0.055830 0.744628 0.000000
O O21 0.774348 0.000000 0.855671
O O22 0.768467 0.075149 0.000000
#
# Coordination Sequence:
#
# PCOD9517533 Si02
#       8
#    16  16  16  16  16  16  16  16
#     4   9  15  24  43  67  89 117 148 172 199 242
#     4   8  13  24  42  63  87 108 131 171 215 246
#     4   9  17  29  47  67  83 102 136 177 210 253
#     4   8  13  22  35  53  79 103 127 164 208 246
#     4  10  21  34  44  57  84 118 144 172 215 256
#     4  10  19  30  42  57  82 115 146 174 204 240
#     4  10  18  26  39  57  77 106 144 179 204 236
#     4   8  13  22  40  62  78  96 125 165 210 253
#
# _framework density 18.193847999999999
#
# number of rings (size 3 to 8) (size 9 to 14) (size 15 to 20)
#    0.000    3.000    1.250    2.625    0.000    2.500 
#    0.000    1.875    0.000    0.375    0.000    2.625 
#    0.000    0.500    0.000    5.625    0.000    1.125 
#
# Total GULP energy -356565.645161 kJ/mol
# GULP energy per Si atom -5571.338206 kJ/mol
# Density = 1.815244 g / cm^3
# Si number density = 18.193848 Si / 1000 Ang^3
#
#
#
# Elastic Constant Matrix: (Units=GPa)
#
#
# Indices 1 2 3 4 5 6 
#
# 1 107.2780 76.6603 3.4023 0.0000 0.0000 0.0000
# 2 76.6603 141.4984 -1.3124 0.0000 0.0000 0.0000
# 3 3.4023 -1.3124 37.1968 0.0000 0.0000 0.0000
# 4 0.0000 0.0000 0.0000 -33.6080 0.0000 0.0000
# 5 0.0000 0.0000 0.0000 0.0000 14.1898 0.0000
# 6 0.0000 0.0000 0.0000 0.0000 0.0000 26.6935
#
#
#
# Elastic Compliance Matrix: (Units=1/GPa)
#
#
# Indices 1 2 3 4 5 6 
#
# 1 0.015316 -0.008314 -0.001694 0.000000 0.000000 0.000000
# 2 -0.008314 0.011582 0.001169 0.000000 0.000000 0.000000
# 3 -0.001694 0.001169 0.027080 0.000000 0.000000 0.000000
# 4 0.000000 0.000000 0.000000 -0.029755 0.000000 0.000000
# 5 0.000000 0.000000 0.000000 0.000000 0.070473 0.000000
# 6 0.000000 0.000000 0.000000 0.000000 0.000000 0.037462
#
#
# Mechanical properties :
#
#
# Convention : Reuss Voigt Hill
#
# Bulk Modulus (GPa) = 27.54746 49.27483 38.41114
# Shear Modulus (GPa) = 30.87613 15.26991 23.07302
#
# Velocity S-wave (km/s) = 4.12401 2.90019 3.56501
# Velocity P-wave (km/s) = 6.15228 6.19329 6.17282
#
# Compressibility (1/GPa) = 0.03630099
#
# Stress axis : x y z
#
# Youngs Moduli (GPa) = 65.29035 86.33948 36.92726
#
# Poissons Ratio (x) = 0.71780 0.06256
# Poissons Ratio (y) = 0.54280 -0.04317
# Poissons Ratio (z) = 0.11062 -0.10094
#
# Static dielectric constant tensor:
#      x y z
#    x 1.628600 0.000000 0.000000 
#    y 0.000000 1.658610 0.000000 
#    z 0.000000 0.000000 1.717890 
# 
# From -- ./inp_files/55985.got.cif
#   From: 2010.05.17/outbox.cif.g08.bks.cpg/sg71_28_cif.got.tgz:55985.got - 2010.06.03 16:22:01.
