data_PCOD9517984
_publ_section_title
;
Structure prediction by ZEFSAII (Michael W. Deem and Ramdas Pophale) SiO2 
 PCOD9517984
Probable space group: I M M M
;
_chemical_formula_sum "Si O2"
_cell_formula_units_Z 104
_cell_length_a 24.992518
_cell_length_b 8.306396
_cell_length_c 23.653834
_cell_angle_alpha 90.000000
_cell_angle_beta 90.000000
_cell_angle_gamma 90.000000
_cell_volume 4910.482754
_symmetry_space_group_name_H-M "I M M M"
_symmetry_group_IT_number 71
_symmetry_cell_setting 'orthorhombic'
loop_
_space_group_symop_operation_xyz
x,y,z
-x,-y,z
x,-y,-z
-x,y,-z
-x,-y,-z
x,y,-z
-x,y,z
x,-y,z
1/2+x,1/2+y,1/2+z
1/2-x,1/2-y,1/2+z
1/2+x,1/2-y,1/2-z
1/2-x,1/2+y,1/2-z
1/2-x,1/2-y,1/2-z
1/2+x,1/2+y,1/2-z
1/2-x,1/2+y,1/2+z
1/2+x,1/2-y,1/2+z
loop_
_atom_site_type_symbol
_atom_site_label
_atom_site_fract_x
_atom_site_fract_y
_atom_site_fract_z
Si Si1 0.437965 0.803695 0.500000
Si Si2 0.086267 0.317075 0.234340
Si Si3 0.780320 0.809716 0.938189
Si Si4 0.882508 0.694344 0.115968
Si Si5 0.830682 0.817283 0.598986
Si Si6 0.701845 0.817932 0.785167
Si Si7 0.940716 0.694392 0.359078
O O1 0.500000 0.758054 0.500000
O O2 0.409885 0.749029 0.442149
O O3 0.435228 0.000000 0.500000
O O4 0.064250 0.500000 0.230651
O O5 0.086246 0.242581 0.171710
O O6 0.149403 0.327632 0.246925
O O7 0.064140 0.246142 0.293419
O O8 0.819686 0.737756 0.890764
O O9 0.717224 0.775314 0.931827
O O10 0.788375 0.000000 0.937373
O O11 0.796552 0.743438 0.000000
O O12 0.885787 0.500000 0.119050
O O13 0.811761 0.799495 0.663775
O O14 0.891352 0.752466 0.602661
O O15 0.830891 0.000000 0.579402
O O16 0.750000 0.750000 0.750000
O O17 0.712267 0.000000 0.807008
O O18 0.935808 0.500000 0.355847
O O19 0.000000 0.735758 0.380099
#
# Coordination Sequence:
#
# PCOD9517984 Si02
#       7
#     8  16  16  16  16  16  16
#     4   9  18  30  47  75 109 145 186 233 280 325
#     4   8  16  28  46  73 102 135 176 219 261 314
#     4  11  23  38  57  80 108 142 186 238 289 343
#     4  10  18  32  53  78 110 146 187 233 281 330
#     4  11  22  35  54  80 110 144 182 227 283 345
#     4  10  18  30  47  72 106 140 178 221 272 330
#     4   9  18  35  57  80 110 148 187 228 278 336
#
# _framework density 21.179179999999999
#
# number of rings (size 3 to 8) (size 9 to 14) (size 15 to 20)
#    0.000    2.231    0.769    4.154    0.000    3.077 
#    0.000    6.154    0.000    1.385    0.000    3.231 
#    0.000    0.000    0.000    0.000    0.000    0.000 
#
# Total GULP energy -289847.784442 kJ/mol
# GULP energy per Si atom -5573.995855 kJ/mol
# Density = 2.113098 g / cm^3
# Si number density = 21.179180 Si / 1000 Ang^3
#
#
#
# Elastic Constant Matrix: (Units=GPa)
#
#
# Indices 1 2 3 4 5 6 
#
# 1 106.3387 2.0042 -10.5214 0.0000 0.0000 0.0000
# 2 2.0042 27.9891 -6.3882 0.0000 0.0000 0.0000
# 3 -10.5214 -6.3882 39.3098 0.0000 0.0000 0.0000
# 4 0.0000 0.0000 0.0000 11.9481 0.0000 0.0000
# 5 0.0000 0.0000 0.0000 0.0000 20.0032 0.0000
# 6 0.0000 0.0000 0.0000 0.0000 0.0000 13.5818
#
#
#
# Elastic Compliance Matrix: (Units=1/GPa)
#
#
# Indices 1 2 3 4 5 6 
#
# 1 0.009660 -0.000106 0.002568 0.000000 0.000000 0.000000
# 2 -0.000106 0.037106 0.006002 0.000000 0.000000 0.000000
# 3 0.002568 0.006002 0.027102 0.000000 0.000000 0.000000
# 4 0.000000 0.000000 0.000000 0.083695 0.000000 0.000000
# 5 0.000000 0.000000 0.000000 0.000000 0.049992 0.000000
# 6 0.000000 0.000000 0.000000 0.000000 0.000000 0.073628
#
#
# Mechanical properties :
#
#
# Convention : Reuss Voigt Hill
#
# Bulk Modulus (GPa) = 11.01363 15.98075 13.49719
# Shear Modulus (GPa) = 16.97685 21.67616 19.32650
#
# Velocity S-wave (km/s) = 2.83429 3.20264 3.02408
# Velocity P-wave (km/s) = 3.99030 4.60844 4.31046
#
# Compressibility (1/GPa) = 0.09079660
#
# Stress axis : x y z
#
# Youngs Moduli (GPa) = 103.51943 26.95009 36.89802
#
# Poissons Ratio (x) = 0.00284 -0.09477
# Poissons Ratio (y) = 0.01092 -0.22145
# Poissons Ratio (z) = -0.26588 -0.16175
#
# Static dielectric constant tensor:
#      x y z
#    x 1.779710 0.000000 0.000000 
#    y 0.000000 1.758700 0.000000 
#    z 0.000000 0.000000 1.831530 
# 
# From -- ./inp_files/61934.got.cif
#   From: 2010.05.17/outbox.cif.g08.bks.cpg/sg71_31_cif.got.tgz:61934.got - 2010.06.03 16:22:01.
