data_PCOD9517863
_publ_section_title
;
Structure prediction by ZEFSAII (Michael W. Deem and Ramdas Pophale) SiO2 
 PCOD9517863
Probable space group: I M M M
;
_chemical_formula_sum "Si O2"
_cell_formula_units_Z 88
_cell_length_a 10.025382
_cell_length_b 27.875554
_cell_length_c 17.036660
_cell_angle_alpha 90.000000
_cell_angle_beta 90.000000
_cell_angle_gamma 90.000000
_cell_volume 4761.117431
_symmetry_space_group_name_H-M "I M M M"
_symmetry_group_IT_number 71
_symmetry_cell_setting 'orthorhombic'
loop_
_space_group_symop_operation_xyz
x,y,z
-x,-y,z
x,-y,-z
-x,y,-z
-x,-y,-z
x,y,-z
-x,y,z
x,-y,z
1/2+x,1/2+y,1/2+z
1/2-x,1/2-y,1/2+z
1/2+x,1/2-y,1/2-z
1/2-x,1/2+y,1/2-z
1/2-x,1/2-y,1/2-z
1/2+x,1/2+y,1/2-z
1/2-x,1/2+y,1/2+z
1/2+x,1/2-y,1/2+z
loop_
_atom_site_type_symbol
_atom_site_label
_atom_site_fract_x
_atom_site_fract_y
_atom_site_fract_z
Si Si1 0.852246 0.443268 0.253000
Si Si2 0.843883 0.135856 0.310351
Si Si3 0.220909 0.601699 0.589516
Si Si4 0.154377 0.701953 0.093539
Si Si5 0.500000 0.552886 0.406297
Si Si6 0.653773 0.691093 0.354812
O O1 0.823109 0.500000 0.255405
O O2 0.737951 0.412236 0.211069
O O3 0.861246 0.422439 0.341615
O O4 0.000000 0.436649 0.216773
O O5 0.760604 0.163406 0.376755
O O6 0.839613 0.170404 0.233296
O O7 0.000000 0.127292 0.328021
O O8 0.185867 0.588815 0.500000
O O9 0.367802 0.581568 0.610913
O O10 0.241081 0.658611 0.597754
O O11 0.181205 0.752876 0.135691
O O12 0.000000 0.688214 0.112184
O O13 0.162831 0.709016 0.000000
O O14 0.500000 0.500000 0.370264
O O15 0.500000 0.547820 0.500000
O O16 0.500000 0.684266 0.383642
#
# Coordination Sequence:
#
# PCOD9517863 Si02
#       6
#    16  16  16  16   8  16
#     4  10  22  38  55  76 105 142 181 224 275 331
#     4  10  21  37  58  82 109 142 180 227 273 317
#     4  10  18  29  47  74 110 149 188 228 267 308
#     4  10  20  34  56  83 111 145 182 219 267 326
#     4   9  16  24  38  64  98 138 181 225 266 300
#     4   9  17  31  51  78 111 149 188 223 263 313
#
# _framework density 18.483056999999999
#
# number of rings (size 3 to 8) (size 9 to 14) (size 15 to 20)
#    0.000    2.273    0.909    2.182    1.273    2.909 
#    0.000    4.545    0.000    4.909    0.000    3.818 
#    0.000    0.000    0.000    0.000    0.000    0.000 
#
# Total GULP energy -245262.567818 kJ/mol
# GULP energy per Si atom -5574.149269 kJ/mol
# Density = 1.844099 g / cm^3
# Si number density = 18.483057 Si / 1000 Ang^3
#
#
#
# Elastic Constant Matrix: (Units=GPa)
#
#
# Indices 1 2 3 4 5 6 
#
# 1 122.7453 64.8832 20.9586 0.0000 0.0000 0.0000
# 2 64.8832 109.4152 20.2587 0.0000 0.0000 0.0000
# 3 20.9586 20.2587 24.8594 0.0001 0.0000 0.0000
# 4 0.0000 0.0000 0.0001 13.8202 0.0000 0.0000
# 5 0.0000 0.0000 0.0000 0.0000 31.4500 0.0000
# 6 0.0000 0.0000 0.0000 0.0000 0.0000 25.8236
#
#
#
# Elastic Compliance Matrix: (Units=1/GPa)
#
#
# Indices 1 2 3 4 5 6 
#
# 1 0.012426 -0.006393 -0.005266 0.000000 0.000000 0.000000
# 2 -0.006393 0.014053 -0.006062 0.000000 0.000000 0.000000
# 3 -0.005266 -0.006062 0.049606 0.000000 0.000000 0.000000
# 4 0.000000 0.000000 0.000000 0.072358 0.000000 0.000000
# 5 0.000000 0.000000 0.000000 0.000000 0.031797 0.000000
# 6 0.000000 0.000000 0.000000 0.000000 0.000000 0.038724
#
#
# Mechanical properties :
#
#
# Convention : Reuss Voigt Hill
#
# Bulk Modulus (GPa) = 24.60495 52.13565 38.37030
# Shear Modulus (GPa) = 18.65993 24.28003 21.46998
#
# Velocity S-wave (km/s) = 3.18082 3.62835 3.41193
# Velocity P-wave (km/s) = 5.17989 6.76917 6.02714
#
# Compressibility (1/GPa) = 0.04064223
#
# Stress axis : x y z
#
# Youngs Moduli (GPa) = 80.47877 71.15787 20.15884
#
# Poissons Ratio (x) = 0.45494 0.10615
# Poissons Ratio (y) = 0.51454 0.12221
# Poissons Ratio (z) = 0.42378 0.43137
#
# Static dielectric constant tensor:
#      x y z
#    x 1.691130 0.000000 0.000000 
#    y 0.000000 1.663500 0.000000 
#    z 0.000000 0.000000 1.632860 
# 
# From -- ./inp_files/42489.got.cif
#   From: 2010.05.17/outbox.cif.g08.bks.cpg/sg71_22_cif.got.tgz:42489.got - 2010.06.03 16:22:01.
