data_PCOD9517693
_publ_section_title
;
Structure prediction by ZEFSAII (Michael W. Deem and Ramdas Pophale) SiO2 
 PCOD9517693
Probable space group: I M M M
;
_chemical_formula_sum "Si O2"
_cell_formula_units_Z 96
_cell_length_a 24.860897
_cell_length_b 19.892248
_cell_length_c 13.451268
_cell_angle_alpha 90.000000
_cell_angle_beta 90.000000
_cell_angle_gamma 90.000000
_cell_volume 6652.178356
_symmetry_space_group_name_H-M "I M M M"
_symmetry_group_IT_number 71
_symmetry_cell_setting 'orthorhombic'
loop_
_space_group_symop_operation_xyz
x,y,z
-x,-y,z
x,-y,-z
-x,y,-z
-x,-y,-z
x,y,-z
-x,y,z
x,-y,z
1/2+x,1/2+y,1/2+z
1/2-x,1/2-y,1/2+z
1/2+x,1/2-y,1/2-z
1/2-x,1/2+y,1/2-z
1/2-x,1/2-y,1/2-z
1/2+x,1/2+y,1/2-z
1/2-x,1/2+y,1/2+z
1/2+x,1/2-y,1/2+z
loop_
_atom_site_type_symbol
_atom_site_label
_atom_site_fract_x
_atom_site_fract_y
_atom_site_fract_z
Si Si1 0.730340 0.207145 0.111406
Si Si2 0.218754 0.076229 0.805124
Si Si3 0.712582 0.921924 0.616127
Si Si4 0.832321 0.288683 0.810238
Si Si5 0.400512 0.574901 0.618461
Si Si6 0.559219 0.719762 0.619472
O O1 0.750495 0.131163 0.130158
O O2 0.783640 0.252013 0.130512
O O3 0.686228 0.220355 0.196155
O O4 0.711052 0.217348 0.000000
O O5 0.236803 0.086725 0.690760
O O6 0.155510 0.083216 0.823515
O O7 0.233526 0.000000 0.832815
O O8 0.724698 0.910031 0.500000
O O9 0.670728 0.866380 0.655493
O O10 0.695055 0.000000 0.625658
O O11 0.889568 0.256247 0.833167
O O12 0.388228 0.576817 0.500000
O O13 0.422646 0.500000 0.639218
O O14 0.436121 0.639805 0.639597
O O15 0.563373 0.728166 0.500000
O O16 0.500000 0.743823 0.650909
#
# Coordination Sequence:
#
# PCOD9517693 Si02
#       6
#    16  16  16  16  16  16
#     4  10  18  28  45  66  88 115 142 173 218 265
#     4   9  16  25  40  64  92 119 143 169 207 254
#     4   9  17  28  42  61  87 117 145 175 214 259
#     4  10  19  30  44  64  89 112 142 184 218 258
#     4   9  16  26  40  59  87 118 145 175 209 249
#     4  10  19  30  45  63  85 116 151 183 217 257
#
# _framework density 14.431362999999999
#
# number of rings (size 3 to 8) (size 9 to 14) (size 15 to 20)
#    0.000    2.500    1.667    2.000    0.000    1.333 
#    0.000    1.667    0.000    1.000    0.000    2.333 
#    0.000    0.000    0.000   16.333    0.000    0.667 
#
# Total GULP energy -267254.359583 kJ/mol
# GULP energy per Si atom -5567.799158 kJ/mol
# Density = 1.439852 g / cm^3
# Si number density = 14.431363 Si / 1000 Ang^3
#
#
#
# Elastic Constant Matrix: (Units=GPa)
#
#
# Indices 1 2 3 4 5 6 
#
# 1 85.5744 41.9898 33.2326 0.0000 0.0000 0.0000
# 2 41.9898 70.3703 31.2374 0.0000 0.0000 0.0000
# 3 33.2326 31.2374 77.9234 0.0000 0.0000 0.0000
# 4 0.0000 0.0000 0.0000 17.3491 0.0000 0.0000
# 5 0.0000 0.0000 0.0000 0.0000 11.8841 0.0000
# 6 0.0000 0.0000 0.0000 0.0000 0.0000 10.9239
#
#
#
# Elastic Compliance Matrix: (Units=1/GPa)
#
#
# Indices 1 2 3 4 5 6 
#
# 1 0.017484 -0.008665 -0.003983 0.000000 0.000000 0.000000
# 2 -0.008665 0.021581 -0.004956 0.000000 0.000000 0.000000
# 3 -0.003983 -0.004956 0.016519 0.000000 0.000000 0.000000
# 4 0.000000 0.000000 0.000000 0.057640 0.000000 0.000000
# 5 0.000000 0.000000 0.000000 0.000000 0.084146 0.000000
# 6 0.000000 0.000000 0.000000 0.000000 0.000000 0.091542
#
#
# Mechanical properties :
#
#
# Convention : Reuss Voigt Hill
#
# Bulk Modulus (GPa) = 49.07732 49.64308 49.36020
# Shear Modulus (GPa) = 15.10984 16.52533 15.81758
#
# Velocity S-wave (km/s) = 3.23927 3.38760 3.31427
# Velocity P-wave (km/s) = 6.93338 7.05516 6.99453
#
# Compressibility (1/GPa) = 0.02037601
#
# Stress axis : x y z
#
# Youngs Moduli (GPa) = 57.19456 46.33793 60.53812
#
# Poissons Ratio (x) = 0.40150 0.24113
# Poissons Ratio (y) = 0.49557 0.30002
# Poissons Ratio (z) = 0.22782 0.22964
#
# Static dielectric constant tensor:
#      x y z
#    x 1.445980 0.000000 0.000000 
#    y 0.000000 1.524000 0.000000 
#    z 0.000000 0.000000 1.478880 
# 
# From -- ./inp_files/26132.got.cif
#   From: 2010.05.17/outbox.cif.g08.bks.cpg/sg71_14_cif.got.tgz:26132.got - 2010.06.03 16:22:01.
