data_PCOD9517320
_publ_section_title
;
Structure prediction by ZEFSAII (Michael W. Deem and Ramdas Pophale) SiO2 
 PCOD9517320
Probable space group: I M M M
;
_chemical_formula_sum "Si O2"
_cell_formula_units_Z 128
_cell_length_a 17.982228
_cell_length_b 24.115905
_cell_length_c 18.568683
_cell_angle_alpha 90.000000
_cell_angle_beta 90.000000
_cell_angle_gamma 90.000000
_cell_volume 8052.452401
_symmetry_space_group_name_H-M "I M M M"
_symmetry_group_IT_number 71
_symmetry_cell_setting 'orthorhombic'
loop_
_space_group_symop_operation_xyz
x,y,z
-x,-y,z
x,-y,-z
-x,y,-z
-x,-y,-z
x,y,-z
-x,y,z
x,-y,z
1/2+x,1/2+y,1/2+z
1/2-x,1/2-y,1/2+z
1/2+x,1/2-y,1/2-z
1/2-x,1/2+y,1/2-z
1/2-x,1/2-y,1/2-z
1/2+x,1/2+y,1/2-z
1/2-x,1/2+y,1/2+z
1/2+x,1/2-y,1/2+z
loop_
_atom_site_type_symbol
_atom_site_label
_atom_site_fract_x
_atom_site_fract_y
_atom_site_fract_z
Si Si1 0.714289 0.143205 0.697735
Si Si2 0.083658 0.861397 0.387819
Si Si3 0.633461 0.333705 0.732267
Si Si4 0.221958 0.263617 0.078521
Si Si5 0.273234 0.565422 0.081170
Si Si6 0.383989 0.232369 0.079245
Si Si7 0.585828 0.680268 0.420099
Si Si8 0.415456 0.792752 0.237730
O O1 0.780767 0.149522 0.755431
O O2 0.728569 0.192777 0.641288
O O3 0.724216 0.089676 0.647023
O O4 0.635399 0.157956 0.732217
O O5 0.090552 0.858683 0.300850
O O6 0.148385 0.901802 0.414214
O O7 0.099772 0.798547 0.414398
O O8 0.000000 0.876812 0.408710
O O9 0.603951 0.351390 0.654059
O O10 0.621036 0.266981 0.741102
O O11 0.294685 0.225319 0.083475
O O12 0.145840 0.229767 0.081417
O O13 0.226462 0.291290 0.000000
O O14 0.284806 0.500000 0.090459
O O15 0.242501 0.574121 0.000000
O O16 0.416424 0.205922 0.150933
O O17 0.409091 0.213980 0.000000
O O18 0.594516 0.653578 0.500000
O O19 0.500000 0.698913 0.415625
O O20 0.500000 0.793543 0.264753
#
# Coordination Sequence:
#
# PCOD9517320 Si02
#       8
#    16  16  16  16  16  16  16  16
#     4  11  19  31  49  64  87 120 156 195 230 274
#     4  10  19  29  46  70  95 126 159 191 229 273
#     4  10  17  29  44  62  93 127 159 184 217 270
#     4  10  17  26  41  59  82 118 160 190 217 262
#     4  10  21  36  52  69  89 118 158 202 244 280
#     4  10  18  29  44  66  98 134 161 182 215 273
#     4  10  19  27  37  58  90 124 156 192 227 256
#     4  11  20  28  43  68  94 122 154 191 231 270
#
# _framework density 15.895778
#
# number of rings (size 3 to 8) (size 9 to 14) (size 15 to 20)
#    0.000    1.750    5.000    4.125    0.000    2.000 
#    0.000    0.625    0.000    1.500    0.000    0.875 
#    0.000   12.500    0.000   28.625    0.000    0.000 
#
# Total GULP energy -356472.243113 kJ/mol
# GULP energy per Si atom -5569.878799 kJ/mol
# Density = 1.585960 g / cm^3
# Si number density = 15.895778 Si / 1000 Ang^3
#
#
#
# Elastic Constant Matrix: (Units=GPa)
#
#
# Indices 1 2 3 4 5 6 
#
# 1 72.7471 27.8646 23.9243 0.0000 0.0000 0.0000
# 2 27.8646 41.9030 14.0932 0.0001 0.0000 0.0000
# 3 23.9243 14.0932 120.8994 0.0001 0.0000 0.0000
# 4 0.0000 0.0001 0.0001 16.9856 0.0000 0.0000
# 5 0.0000 0.0000 0.0000 0.0000 9.5463 0.0000
# 6 0.0000 0.0000 0.0000 0.0000 0.0000 1.5594
#
#
#
# Elastic Compliance Matrix: (Units=1/GPa)
#
#
# Indices 1 2 3 4 5 6 
#
# 1 0.019086 -0.011888 -0.002391 0.000000 0.000000 0.000000
# 2 -0.011888 0.032243 -0.001406 0.000000 0.000000 0.000000
# 3 -0.002391 -0.001406 0.008908 0.000000 0.000000 0.000000
# 4 0.000000 0.000000 0.000000 0.058873 0.000000 0.000000
# 5 0.000000 0.000000 0.000000 0.000000 0.104753 0.000000
# 6 0.000000 0.000000 0.000000 0.000000 0.000000 0.641259
#
#
# Mechanical properties :
#
#
# Convention : Reuss Voigt Hill
#
# Bulk Modulus (GPa) = 34.64121 40.81260 37.72691
# Shear Modulus (GPa) = 5.51807 16.92944 11.22375
#
# Velocity S-wave (km/s) = 1.86519 3.26702 2.66011
# Velocity P-wave (km/s) = 5.14574 6.32155 5.76371
#
# Compressibility (1/GPa) = 0.02886735
#
# Stress axis : x y z
#
# Youngs Moduli (GPa) = 52.39455 31.01491 112.25338
#
# Poissons Ratio (x) = 0.36869 0.26841
# Poissons Ratio (y) = 0.62284 0.15784
# Poissons Ratio (z) = 0.12528 0.04361
#
# Static dielectric constant tensor:
#      x y z
#    x 1.565800 0.000000 0.000000 
#    y 0.000000 1.492120 0.000000 
#    z 0.000000 0.000000 1.610140 
# 
# From -- ./inp_files/46658.got.cif
#   From: 2010.05.17/outbox.cif.g08.bks.cpg/sg71_24_cif.got.tgz:46658.got - 2010.06.03 16:22:01.
