data_PCOD9517210
_publ_section_title
;
Structure prediction by ZEFSAII (Michael W. Deem and Ramdas Pophale) SiO2 
 PCOD9517210
Probable space group: I M M M
;
_chemical_formula_sum "Si O2"
_cell_formula_units_Z 84
_cell_length_a 22.821588
_cell_length_b 11.296569
_cell_length_c 19.764659
_cell_angle_alpha 90.000000
_cell_angle_beta 90.000000
_cell_angle_gamma 90.000000
_cell_volume 5095.440633
_symmetry_space_group_name_H-M "I M M M"
_symmetry_group_IT_number 71
_symmetry_cell_setting 'orthorhombic'
loop_
_space_group_symop_operation_xyz
x,y,z
-x,-y,z
x,-y,-z
-x,y,-z
-x,-y,-z
x,y,-z
-x,y,z
x,-y,z
1/2+x,1/2+y,1/2+z
1/2-x,1/2-y,1/2+z
1/2+x,1/2-y,1/2-z
1/2-x,1/2+y,1/2-z
1/2-x,1/2-y,1/2-z
1/2+x,1/2+y,1/2-z
1/2-x,1/2+y,1/2+z
1/2+x,1/2-y,1/2+z
loop_
_atom_site_type_symbol
_atom_site_label
_atom_site_fract_x
_atom_site_fract_y
_atom_site_fract_z
Si Si1 0.235172 0.261451 0.150658
Si Si2 0.124636 0.360156 0.500000
Si Si3 0.665992 0.139088 0.232166
Si Si4 0.063804 0.000000 0.680502
Si Si5 0.566135 0.766582 0.136009
Si Si6 0.252424 0.747469 0.500000
Si Si7 0.691666 0.500000 0.000000
Si Si8 0.314170 0.500000 0.850044
O O1 0.278816 0.164131 0.182228
O O2 0.181495 0.287580 0.200437
O O3 0.218515 0.231764 0.073488
O O4 0.274410 0.382721 0.154294
O O5 0.115682 0.500000 0.500000
O O6 0.095510 0.304401 0.566094
O O7 0.193244 0.329689 0.500000
O O8 0.608096 0.185146 0.194935
O O9 0.661677 0.000000 0.246248
O O10 0.062860 0.875246 0.641574
O O11 0.132515 0.000000 0.703633
O O12 0.000000 0.000000 0.718955
O O13 0.500000 0.813543 0.140707
O O14 0.231227 0.883546 0.500000
O O15 0.660268 0.500000 0.072651
#
# Coordination Sequence:
#
# PCOD9517210 Si02
#       8
#    16   8  16   8  16   8   4   8
#     4  10  20  32  52  75 100 133 175 217 263 311
#     4  12  23  36  49  72 109 147 184 209 250 312
#     4  11  21  34  50  75 105 140 175 214 265 321
#     4  10  20  34  51  72  96 127 174 226 264 298
#     4  11  23  37  54  74 103 141 182 223 260 310
#     4  10  18  33  52  75  99 136 172 220 258 305
#     4   8  16  24  49  66  92 114 163 208 242 288
#     4  10  14  32  47  68  93 126 159 206 257 298
#
# _framework density 16.485327000000002
#
# number of rings (size 3 to 8) (size 9 to 14) (size 15 to 20)
#    0.000    1.524    4.762    2.000    0.000    2.286 
#    0.000    2.619    0.000    0.000    0.000    0.667 
#    0.000    1.524    0.000    3.429    0.000    0.762 
#
# Total GULP energy -233948.836008 kJ/mol
# GULP energy per Si atom -5570.210381 kJ/mol
# Density = 1.644781 g / cm^3
# Si number density = 16.485327 Si / 1000 Ang^3
#
#
#
# Elastic Constant Matrix: (Units=GPa)
#
#
# Indices 1 2 3 4 5 6 
#
# 1 66.9780 3.6629 44.8890 0.0000 0.0000 0.0000
# 2 3.6629 54.0282 2.7402 0.0000 0.0000 0.0000
# 3 44.8890 2.7402 119.8770 0.0000 0.0000 0.0000
# 4 0.0000 0.0000 0.0000 6.2037 0.0000 0.0000
# 5 0.0000 0.0000 0.0000 0.0000 5.7017 0.0000
# 6 0.0000 0.0000 0.0000 0.0000 0.0000 -10.4581
#
#
#
# Elastic Compliance Matrix: (Units=1/GPa)
#
#
# Indices 1 2 3 4 5 6 
#
# 1 0.019984 -0.000976 -0.007461 0.000000 0.000000 0.000000
# 2 -0.000976 0.018578 -0.000059 0.000000 0.000000 0.000000
# 3 -0.007461 -0.000059 0.011137 0.000000 0.000000 0.000000
# 4 0.000000 0.000000 0.000000 0.161194 0.000000 0.000000
# 5 0.000000 0.000000 0.000000 0.000000 0.175387 0.000000
# 6 0.000000 0.000000 0.000000 0.000000 0.000000 -0.095620
#
#
# Mechanical properties :
#
#
# Convention : Reuss Voigt Hill
#
# Bulk Modulus (GPa) = 30.57504 38.16304 34.36904
# Shear Modulus (GPa) = 15.69592 12.92887 14.31240
#
# Velocity S-wave (km/s) = 3.08898 2.80351 2.94970
# Velocity P-wave (km/s) = 5.59549 5.80341 5.70040
#
# Compressibility (1/GPa) = 0.03270642
#
# Stress axis : x y z
#
# Youngs Moduli (GPa) = 50.04002 53.82695 89.79061
#
# Poissons Ratio (x) = 0.05256 0.66992
# Poissons Ratio (y) = 0.04886 0.00530
# Poissons Ratio (z) = 0.37334 0.00318
#
# Static dielectric constant tensor:
#      x y z
#    x 1.573910 0.000000 0.000000 
#    y 0.000000 1.570300 0.000000 
#    z 0.000000 0.000000 1.588790 
# 
# From -- ./inp_files/54869.got.cif
#   From: 2010.05.17/outbox.cif.g08.bks.cpg/sg71_28_cif.got.tgz:54869.got - 2010.06.03 16:22:01.
