data_PCOD9517235
_publ_section_title
;
Structure prediction by ZEFSAII (Michael W. Deem and Ramdas Pophale) SiO2 
 PCOD9517235
Probable space group: I M M M
;
_chemical_formula_sum "Si O2"
_cell_formula_units_Z 88
_cell_length_a 8.356730
_cell_length_b 24.822442
_cell_length_c 31.563774
_cell_angle_alpha 90.000000
_cell_angle_beta 90.000000
_cell_angle_gamma 90.000000
_cell_volume 6547.413965
_symmetry_space_group_name_H-M "I M M M"
_symmetry_group_IT_number 71
_symmetry_cell_setting 'orthorhombic'
loop_
_space_group_symop_operation_xyz
x,y,z
-x,-y,z
x,-y,-z
-x,y,-z
-x,-y,-z
x,y,-z
-x,y,z
x,-y,z
1/2+x,1/2+y,1/2+z
1/2-x,1/2-y,1/2+z
1/2+x,1/2-y,1/2-z
1/2-x,1/2+y,1/2-z
1/2-x,1/2-y,1/2-z
1/2+x,1/2+y,1/2-z
1/2-x,1/2+y,1/2+z
1/2+x,1/2-y,1/2+z
loop_
_atom_site_type_symbol
_atom_site_label
_atom_site_fract_x
_atom_site_fract_y
_atom_site_fract_z
Si Si1 0.303671 0.436578 0.500000
Si Si2 0.807886 0.181693 0.162818
Si Si3 0.309872 0.718729 0.791928
Si Si4 0.812101 0.500000 0.261183
Si Si5 0.306669 0.394399 0.589996
Si Si6 0.692052 0.119067 0.247263
Si Si7 0.190845 0.000000 0.145261
O O1 0.257174 0.500000 0.500000
O O2 0.500000 0.436959 0.500000
O O3 0.248908 0.406203 0.542547
O O4 0.748498 0.242393 0.170684
O O5 0.749815 0.155209 0.118892
O O6 0.753801 0.144558 0.202784
O O7 0.000000 0.181578 0.163429
O O8 0.500000 0.716840 0.791640
O O9 0.250000 0.750000 0.750000
O O10 0.242585 0.659018 0.785042
O O11 0.746373 0.558034 0.246758
O O12 0.788620 0.500000 0.311726
O O13 0.000000 0.500000 0.250475
O O14 0.500000 0.389404 0.587093
O O15 0.274327 0.447640 0.617535
O O16 0.500000 0.118419 0.244406
O O17 0.000000 0.000000 0.155266
#
# Coordination Sequence:
#
# PCOD9517235 Si02
#       7
#     8  16  16   8  16  16   8
#     4   9  14  22  34  52  78 100 120 155 198 231
#     4  10  17  26  39  55  72  93 122 157 191 224
#     4  10  18  28  40  54  70  92 119 151 188 223
#     4  10  20  28  37  55  77 100 122 149 189 228
#     4   9  16  23  36  55  74  96 124 158 197 230
#     4  10  18  28  39  54  74  96 120 149 184 223
#     4  10  16  25  38  54  72  94 126 162 191 225
#
# _framework density 13.440421000000001
#
# number of rings (size 3 to 8) (size 9 to 14) (size 15 to 20)
#    0.000    2.273    2.727    4.909    0.000    0.727 
#    0.000    0.000    0.000    0.000    0.000    6.364 
#    0.000    0.000    0.000    0.000    0.000    0.909 
#
# Total GULP energy -245030.932630 kJ/mol
# GULP energy per Si atom -5568.884833 kJ/mol
# Density = 1.340983 g / cm^3
# Si number density = 13.440421 Si / 1000 Ang^3
#
#
#
# Elastic Constant Matrix: (Units=GPa)
#
#
# Indices 1 2 3 4 5 6 
#
# 1 30.6552 14.3772 3.9465 0.0000 0.0000 0.0000
# 2 14.3772 114.3602 52.2646 0.0000 0.0000 0.0000
# 3 3.9465 52.2646 64.7612 0.0000 0.0000 0.0000
# 4 0.0000 0.0000 0.0000 14.3455 0.0000 0.0000
# 5 0.0000 0.0000 0.0000 0.0000 7.6703 0.0000
# 6 0.0000 0.0000 0.0000 0.0000 0.0000 12.7775
#
#
#
# Elastic Compliance Matrix: (Units=1/GPa)
#
#
# Indices 1 2 3 4 5 6 
#
# 1 0.034868 -0.005407 0.002238 0.000000 0.000000 0.000000
# 2 -0.005407 0.014692 -0.011528 0.000000 0.000000 0.000000
# 3 0.002238 -0.011528 0.024608 0.000000 0.000000 0.000000
# 4 0.000000 0.000000 0.000000 0.069708 0.000000 0.000000
# 5 0.000000 0.000000 0.000000 0.000000 0.130373 0.000000
# 6 0.000000 0.000000 0.000000 0.000000 0.000000 0.078263
#
#
# Mechanical properties :
#
#
# Convention : Reuss Voigt Hill
#
# Bulk Modulus (GPa) = 22.33283 38.99480 30.66381
# Shear Modulus (GPa) = 12.59985 16.23789 14.41887
#
# Velocity S-wave (km/s) = 3.06512 3.47960 3.27891
# Velocity P-wave (km/s) = 5.40174 6.72455 6.09911
#
# Compressibility (1/GPa) = 0.04477713
#
# Stress axis : x y z
#
# Youngs Moduli (GPa) = 28.67929 68.06225 40.63670
#
# Poissons Ratio (x) = 0.36799 -0.09096
# Poissons Ratio (y) = 0.15506 0.46845
# Poissons Ratio (z) = -0.06420 0.78461
#
# Static dielectric constant tensor:
#      x y z
#    x 1.480630 0.000000 0.000000 
#    y 0.000000 1.477750 0.000000 
#    z 0.000000 0.000000 1.431550 
# 
# From -- ./inp_files/68532.got.cif
#   From: 2010.05.17/outbox.cif.g08.bks.cpg/sg71_35_cif.got.tgz:68532.got - 2010.06.03 16:22:01.
