data_PCOD9517219
_publ_section_title
;
Structure prediction by ZEFSAII (Michael W. Deem and Ramdas Pophale) SiO2 
 PCOD9517219
Probable space group: I M M M
;
_chemical_formula_sum "Si O2"
_cell_formula_units_Z 88
_cell_length_a 8.519132
_cell_length_b 26.346512
_cell_length_c 29.050691
_cell_angle_alpha 90.000000
_cell_angle_beta 90.000000
_cell_angle_gamma 90.000000
_cell_volume 6520.410556
_symmetry_space_group_name_H-M "I M M M"
_symmetry_group_IT_number 71
_symmetry_cell_setting 'orthorhombic'
loop_
_space_group_symop_operation_xyz
x,y,z
-x,-y,z
x,-y,-z
-x,y,-z
-x,-y,-z
x,y,-z
-x,y,z
x,-y,z
1/2+x,1/2+y,1/2+z
1/2-x,1/2-y,1/2+z
1/2+x,1/2-y,1/2-z
1/2-x,1/2+y,1/2-z
1/2-x,1/2-y,1/2-z
1/2+x,1/2+y,1/2-z
1/2-x,1/2+y,1/2+z
1/2+x,1/2-y,1/2+z
loop_
_atom_site_type_symbol
_atom_site_label
_atom_site_fract_x
_atom_site_fract_y
_atom_site_fract_z
Si Si1 0.186736 0.742930 0.358392
Si Si2 0.191208 0.794633 0.552166
Si Si3 0.688524 0.000000 0.446223
Si Si4 0.813705 0.346417 0.813279
Si Si5 0.686229 0.697281 0.727908
Si Si6 0.811505 0.100775 0.602754
O O1 0.239477 0.751503 0.411080
O O2 0.227378 0.797535 0.335655
O O3 0.265210 0.701271 0.325480
O O4 0.000000 0.735696 0.356997
O O5 0.246376 0.787824 0.500000
O O6 0.237010 0.849862 0.572328
O O7 0.000000 0.794311 0.551771
O O8 0.754483 0.949964 0.421691
O O9 0.500000 0.000000 0.443462
O O10 0.734215 0.000000 0.500000
O O11 0.760339 0.346122 0.760134
O O12 0.761492 0.391844 0.846479
O O13 0.000000 0.338904 0.815607
O O14 0.500000 0.696312 0.732085
O O15 0.750000 0.750000 0.750000
O O16 0.000000 0.101308 0.606255
#
# Coordination Sequence:
#
# PCOD9517219 Si02
#       6
#    16  16   8  16  16  16
#     4   9  15  23  35  52  72  93 118 145 175 213
#     4   8  14  24  38  54  70  90 119 153 184 216
#     4  11  23  35  45  59  77  95 119 155 196 231
#     4  10  17  26  39  54  72  90 110 141 182 222
#     4  10  16  23  35  51  71  92 114 139 172 214
#     4  10  19  31  45  58  71  91 121 153 189 232
#
# _framework density 13.496081999999999
#
# number of rings (size 3 to 8) (size 9 to 14) (size 15 to 20)
#    0.000    2.455    0.000    8.455    0.000    1.455 
#    0.000    0.000    0.000   10.909    0.000    0.000 
#    0.000    0.000    0.000    0.000    0.000    0.000 
#
# Total GULP energy -244946.131667 kJ/mol
# GULP energy per Si atom -5566.957538 kJ/mol
# Density = 1.346536 g / cm^3
# Si number density = 13.496082 Si / 1000 Ang^3
#
#
#
# Elastic Constant Matrix: (Units=GPa)
#
#
# Indices 1 2 3 4 5 6 
#
# 1 46.2909 11.7546 21.7629 0.0000 0.0000 0.0000
# 2 11.7546 30.5167 46.3039 0.0000 0.0000 0.0000
# 3 21.7629 46.3039 124.2558 0.0000 0.0000 0.0000
# 4 0.0000 0.0000 0.0000 23.7327 0.0000 0.0000
# 5 0.0000 0.0000 0.0000 0.0000 17.6182 0.0000
# 6 0.0000 0.0000 0.0000 0.0000 0.0000 13.5747
#
#
#
# Elastic Compliance Matrix: (Units=1/GPa)
#
#
# Indices 1 2 3 4 5 6 
#
# 1 0.024109 -0.006626 -0.001754 0.000000 0.000000 0.000000
# 2 -0.006626 0.077226 -0.027618 0.000000 0.000000 0.000000
# 3 -0.001754 -0.027618 0.018647 0.000000 0.000000 0.000000
# 4 0.000000 0.000000 0.000000 0.042136 0.000000 0.000000
# 5 0.000000 0.000000 0.000000 0.000000 0.056759 0.000000
# 6 0.000000 0.000000 0.000000 0.000000 0.000000 0.073667
#
#
# Mechanical properties :
#
#
# Convention : Reuss Voigt Hill
#
# Bulk Modulus (GPa) = 20.83852 40.07847 30.45849
# Shear Modulus (GPa) = 13.13938 19.06792 16.10365
#
# Velocity S-wave (km/s) = 3.12359 3.76287 3.45803
# Velocity P-wave (km/s) = 5.33695 6.97422 6.20978
#
# Compressibility (1/GPa) = 0.04798806
#
# Stress axis : x y z
#
# Youngs Moduli (GPa) = 41.47756 12.94893 53.62838
#
# Poissons Ratio (x) = 0.08580 0.09404
# Poissons Ratio (y) = 0.27483 1.48110
# Poissons Ratio (z) = 0.07273 0.35762
#
# Static dielectric constant tensor:
#      x y z
#    x 1.450600 0.000000 0.000000 
#    y 0.000000 1.420710 0.000000 
#    z 0.000000 0.000000 1.510500 
# 
# From -- ./inp_files/68166.got.cif
#   From: 2010.05.17/outbox.cif.g08.bks.cpg/sg71_35_cif.got.tgz:68166.got - 2010.06.03 16:22:01.
