data_PCOD9517171
_publ_section_title
;
Structure prediction by ZEFSAII (Michael W. Deem and Ramdas Pophale) SiO2 
 PCOD9517171
Probable space group: F D D D
;
_chemical_formula_sum "Si O2"
_cell_formula_units_Z 28
_cell_length_a 24.000000
_cell_length_b 21.000000
_cell_length_c 12.000000
_cell_angle_alpha 90.000000
_cell_angle_beta 90.000000
_cell_angle_gamma 90.000000
_cell_volume 6048.000000
_symmetry_space_group_name_H-M "F D D D"
_symmetry_group_IT_number 70
_space_group.IT_coordinate_system_code '2'
_symmetry_cell_setting 'orthorhombic'
loop_
_space_group_symop_operation_xyz
x,y,z
1/4-x,1/4-y,z
x,1/4-y,1/4-z
1/4-x,y,1/4-z
-x,-y,-z
3/4+x,3/4+y,-z
-x,3/4+y,3/4+z
3/4+x,-y,3/4+z
x,1/2+y,1/2+z
1/4-x,3/4-y,1/2+z
x,3/4-y,3/4-z
1/4-x,1/2+y,3/4-z
-x,1/2-y,1/2-z
3/4+x,1/4+y,1/2-z
-x,1/4+y,1/4+z
3/4+x,1/2-y,1/4+z
1/2+x,y,1/2+z
3/4-x,1/4-y,1/2+z
1/2+x,1/4-y,3/4-z
3/4-x,y,3/4-z
1/2-x,-y,1/2-z
1/4+x,3/4+y,1/2-z
1/2-x,3/4+y,1/4+z
1/4+x,-y,1/4+z
1/2+x,1/2+y,z
3/4-x,3/4-y,z
1/2+x,3/4-y,1/4-z
3/4-x,1/2+y,1/4-z
1/2-x,1/2-y,-z
1/4+x,1/4+y,-z
1/2-x,1/4+y,3/4+z
1/4+x,1/2-y,3/4+z
loop_
_atom_site_type_symbol
_atom_site_label
_atom_site_fract_x
_atom_site_fract_y
_atom_site_fract_z
Si Si1 0.875000 0.226292 0.375000
Si Si2 0.847538 0.562237 0.700710
Si Si3 0.919908 0.932819 0.681570
Si Si4 0.298536 0.106875 0.933040
O O1 0.902991 0.274245 0.462127
O O2 0.922568 0.177814 0.325118
O O3 0.833216 0.625000 0.625000
O O4 0.832895 0.491010 0.659019
O O5 0.913929 0.569863 0.725376
O O6 0.815417 0.575124 0.815571
O O7 0.875000 0.875000 0.664479
O O8 0.982006 0.902065 0.695247
#
# Coordination Sequence:
#
# PCOD9517171 Si02
#       4
#    16  32  32  32
#     4  10  23  46  60  96 131 174 208 268 337 372
#     4  10  20  43  67  89 126 176 209 259 333 381
#     4  12  25  39  65 102 125 166 226 265 319 393
#     4  10  23  42  67  89 131 172 214 265 324 384
#
# _framework density 4.6296299999999997
#
# number of rings (size 3 to 8) (size 9 to 14) (size 15 to 20)
#    0.000    1.714    5.714    1.286    4.000    3.429 
#    0.000    2.857    0.000    0.000    0.000    0.000 
#    0.000    0.000    0.000    0.000    0.000    0.000 
#
# Total GULP energy -155935.020393 kJ/mol
# GULP energy per Si atom -5569.107871 kJ/mol
# Density = 0.461909 g / cm^3
# Si number density = 4.629630 Si / 1000 Ang^3
#
#
#
# Elastic Constant Matrix: (Units=GPa)
#
#
# Indices 1 2 3 4 5 6 
#
# 1 164.2416 53.5936 14.8106 0.0000 0.0000 0.0000
# 2 53.5936 144.9329 18.6469 0.0000 0.0000 0.0000
# 3 14.8106 18.6469 57.9997 0.0000 0.0000 0.0000
# 4 0.0000 0.0000 0.0000 37.1570 0.0000 0.0000
# 5 0.0000 0.0000 0.0000 0.0000 19.7522 0.0000
# 6 0.0000 0.0000 0.0000 0.0000 0.0000 28.5925
#
#
#
# Elastic Compliance Matrix: (Units=1/GPa)
#
#
# Indices 1 2 3 4 5 6 
#
# 1 0.006979 -0.002453 -0.000993 0.000000 0.000000 0.000000
# 2 -0.002453 0.008060 -0.001965 0.000000 0.000000 0.000000
# 3 -0.000993 -0.001965 0.018127 0.000000 0.000000 0.000000
# 4 0.000000 0.000000 0.000000 0.026913 0.000000 0.000000
# 5 0.000000 0.000000 0.000000 0.000000 0.050627 0.000000
# 6 0.000000 0.000000 0.000000 0.000000 0.000000 0.034974
#
#
# Mechanical properties :
#
#
# Convention : Reuss Voigt Hill
#
# Bulk Modulus (GPa) = 44.75696 60.14181 52.44938
# Shear Modulus (GPa) = 30.49732 35.77521 33.13626
#
# Velocity S-wave (km/s) = 4.06255 4.40006 4.23467
# Velocity P-wave (km/s) = 6.79904 7.63945 7.23146
#
# Compressibility (1/GPa) = 0.02234290
#
# Stress axis : x y z
#
# Youngs Moduli (GPa) = 143.29685 124.07710 55.16682
#
# Poissons Ratio (x) = 0.30433 0.05481
# Poissons Ratio (y) = 0.35147 0.10839
# Poissons Ratio (z) = 0.14236 0.24379
#
# Static dielectric constant tensor:
#      x y z
#    x 1.643590 0.000000 0.000000 
#    y 0.000000 1.614360 0.000000 
#    z 0.000000 0.000000 1.769990 
# 
# From -- ./inp_files/17275.got.cif
#   From: 2010.05.17/outbox.ucp.g08.bks.cvg/sg70_9_cif.got.tgz:17275.got - 2010.06.11 16:26:41.
