data_PCOD9517477
_publ_section_title
;
Structure prediction by ZEFSAII (Michael W. Deem and Ramdas Pophale) SiO2 
 PCOD9517477
Probable space group: I M M M
;
_chemical_formula_sum "Si O2"
_cell_formula_units_Z 104
_cell_length_a 16.802686
_cell_length_b 19.501545
_cell_length_c 18.710545
_cell_angle_alpha 90.000000
_cell_angle_beta 90.000000
_cell_angle_gamma 90.000000
_cell_volume 6131.040273
_symmetry_space_group_name_H-M "I M M M"
_symmetry_group_IT_number 71
_symmetry_cell_setting 'orthorhombic'
loop_
_space_group_symop_operation_xyz
x,y,z
-x,-y,z
x,-y,-z
-x,y,-z
-x,-y,-z
x,y,-z
-x,y,z
x,-y,z
1/2+x,1/2+y,1/2+z
1/2-x,1/2-y,1/2+z
1/2+x,1/2-y,1/2-z
1/2-x,1/2+y,1/2-z
1/2-x,1/2-y,1/2-z
1/2+x,1/2+y,1/2-z
1/2-x,1/2+y,1/2+z
1/2+x,1/2-y,1/2+z
loop_
_atom_site_type_symbol
_atom_site_label
_atom_site_fract_x
_atom_site_fract_y
_atom_site_fract_z
Si Si1 0.093992 0.304430 0.915161
Si Si2 0.404891 0.078138 0.309951
Si Si3 0.597003 0.422110 0.081092
Si Si4 0.407900 0.680804 0.201454
Si Si5 0.295058 0.289530 0.316286
Si Si6 0.632597 0.161473 0.169952
Si Si7 0.500000 0.080145 0.085461
O O1 0.106473 0.380622 0.883379
O O2 0.154439 0.257454 0.869897
O O3 0.000000 0.287047 0.900700
O O4 0.106613 0.300495 0.000000
O O5 0.500000 0.077595 0.295716
O O6 0.367736 0.121650 0.245507
O O7 0.376800 0.000000 0.312156
O O8 0.500000 0.420181 0.080228
O O9 0.619767 0.500000 0.100506
O O10 0.624353 0.365046 0.136530
O O11 0.623425 0.408347 0.000000
O O12 0.500000 0.664576 0.212385
O O13 0.358504 0.666208 0.272605
O O14 0.401568 0.761709 0.182417
O O15 0.250000 0.250000 0.250000
O O16 0.223437 0.328880 0.354406
O O17 0.576356 0.118968 0.117634
O O18 0.500000 0.000000 0.107396
O O19 0.500000 0.083651 0.000000
#
# Coordination Sequence:
#
# PCOD9517477 Si02
#       7
#    16  16  16  16  16  16   8
#     4  10  20  35  56  82 116 153 192 237 288 343
#     4  10  18  31  55  81 110 150 194 233 281 339
#     4   8  15  28  46  71 105 141 173 211 264 321
#     4  10  17  30  54  78 104 141 190 233 264 325
#     4  10  20  33  54  77 108 140 182 237 279 325
#     4  11  20  35  55  80 108 146 188 236 285 335
#     4  11  24  40  58  84 114 144 186 240 293 344
#
# _framework density 16.962862999999999
#
# number of rings (size 3 to 8) (size 9 to 14) (size 15 to 20)
#    0.000    2.077    4.615    1.385    0.000    1.538 
#    0.000    5.385    0.000    0.000    0.000    0.000 
#    0.000    0.000    0.000   15.692    0.000    0.000 
#
# Total GULP energy -289683.425092 kJ/mol
# GULP energy per Si atom -5570.835098 kJ/mol
# Density = 1.692426 g / cm^3
# Si number density = 16.962863 Si / 1000 Ang^3
#
#
#
# Elastic Constant Matrix: (Units=GPa)
#
#
# Indices 1 2 3 4 5 6 
#
# 1 76.5523 46.8619 43.7180 0.0000 0.0000 0.0000
# 2 46.8619 101.1088 58.6568 0.0000 0.0000 0.0000
# 3 43.7180 58.6568 91.8532 0.0000 0.0000 0.0000
# 4 0.0000 0.0000 0.0000 27.8350 0.0000 0.0000
# 5 0.0000 0.0000 0.0000 0.0000 13.2456 0.0000
# 6 0.0000 0.0000 0.0000 0.0000 0.0000 4.0662
#
#
#
# Elastic Compliance Matrix: (Units=1/GPa)
#
#
# Indices 1 2 3 4 5 6 
#
# 1 0.019958 -0.005940 -0.005706 0.000000 0.000000 0.000000
# 2 -0.005940 0.017478 -0.008335 0.000000 0.000000 0.000000
# 3 -0.005706 -0.008335 0.018925 0.000000 0.000000 0.000000
# 4 0.000000 0.000000 0.000000 0.035926 0.000000 0.000000
# 5 0.000000 0.000000 0.000000 0.000000 0.075497 0.000000
# 6 0.000000 0.000000 0.000000 0.000000 0.000000 0.245928
#
#
# Mechanical properties :
#
#
# Convention : Reuss Voigt Hill
#
# Bulk Modulus (GPa) = 60.97275 63.10976 62.04125
# Shear Modulus (GPa) = 10.88994 17.04786 13.96890
#
# Velocity S-wave (km/s) = 2.53650 3.17363 2.87278
# Velocity P-wave (km/s) = 6.67842 7.12142 6.90348
#
# Compressibility (1/GPa) = 0.01640077
#
# Stress axis : x y z
#
# Youngs Moduli (GPa) = 50.10642 57.21319 52.83999
#
# Poissons Ratio (x) = 0.33983 0.30149
# Poissons Ratio (y) = 0.29762 0.44040
# Poissons Ratio (z) = 0.28590 0.47685
#
# Static dielectric constant tensor:
#      x y z
#    x 1.613100 0.000000 0.000000 
#    y 0.000000 1.577240 0.000000 
#    z 0.000000 0.000000 1.573250 
# 
# From -- ./inp_files/46143.got.cif
#   From: 2010.05.17/outbox.cif.g08.bks.cpg/sg71_24_cif.got.tgz:46143.got - 2010.06.03 16:22:01.
