data_PCOD9517270
_publ_section_title
;
Structure prediction by ZEFSAII (Michael W. Deem and Ramdas Pophale) SiO2 
 PCOD9517270
Probable space group: I M M M
;
_chemical_formula_sum "Si O2"
_cell_formula_units_Z 100
_cell_length_a 8.907452
_cell_length_b 27.071555
_cell_length_c 23.251431
_cell_angle_alpha 90.000000
_cell_angle_beta 90.000000
_cell_angle_gamma 90.000000
_cell_volume 5606.816978
_symmetry_space_group_name_H-M "I M M M"
_symmetry_group_IT_number 71
_symmetry_cell_setting 'orthorhombic'
loop_
_space_group_symop_operation_xyz
x,y,z
-x,-y,z
x,-y,-z
-x,y,-z
-x,-y,-z
x,y,-z
-x,y,z
x,-y,z
1/2+x,1/2+y,1/2+z
1/2-x,1/2-y,1/2+z
1/2+x,1/2-y,1/2-z
1/2-x,1/2+y,1/2-z
1/2-x,1/2-y,1/2-z
1/2+x,1/2+y,1/2-z
1/2-x,1/2+y,1/2+z
1/2+x,1/2-y,1/2+z
loop_
_atom_site_type_symbol
_atom_site_label
_atom_site_fract_x
_atom_site_fract_y
_atom_site_fract_z
Si Si1 0.819208 0.058018 0.794673
Si Si2 0.180443 0.641764 0.780456
Si Si3 0.322412 0.224412 0.500000
Si Si4 0.000000 0.085900 0.000000
Si Si5 0.269194 0.615644 0.597688
Si Si6 0.679931 0.299404 0.121064
Si Si7 0.846857 0.321352 0.500000
Si Si8 0.328828 0.294739 0.681208
O O1 0.751728 0.091324 0.743978
O O2 0.735113 0.076070 0.852850
O O3 0.000000 0.067607 0.801219
O O4 0.800028 0.000000 0.785614
O O5 0.247370 0.656545 0.841976
O O6 0.241106 0.683413 0.735785
O O7 0.000000 0.640485 0.780407
O O8 0.500000 0.216024 0.500000
O O9 0.245554 0.203193 0.443014
O O10 0.291911 0.283885 0.500000
O O11 0.126827 0.089567 0.050857
O O12 0.156352 0.644840 0.556321
O O13 0.337216 0.660613 0.635231
O O14 0.500000 0.301448 0.121752
O O15 0.739057 0.249615 0.152149
O O16 0.000000 0.290411 0.500000
O O17 0.500000 0.280014 0.696026
#
# Coordination Sequence:
#
# PCOD9517270 Si02
#       8
#    16  16   8   4  16  16   8  16
#     4  10  21  40  62  85 109 141 189 247 306 358
#     4  11  23  39  58  82 113 149 191 240 297 352
#     4  12  25  37  57  84 119 159 198 237 277 339
#     4  10  16  30  47  82 108 158 192 244 279 338
#     4  10  19  30  54  74 113 146 198 236 288 332
#     4  12  24  38  56  83 117 154 194 234 284 343
#     4  11  23  34  50  75 111 156 200 237 281 332
#     4  11  20  34  54  81 114 153 195 239 285 338
#
# _framework density 17.835432000000001
#
# number of rings (size 3 to 8) (size 9 to 14) (size 15 to 20)
#    0.000    1.120    3.200    5.520    2.240    2.880 
#    0.000    2.000    0.000    0.480    0.000    0.560 
#    0.000    4.480    0.000    0.000    0.000    0.000 
#
# Total GULP energy -278451.507965 kJ/mol
# GULP energy per Si atom -5569.030159 kJ/mol
# Density = 1.779484 g / cm^3
# Si number density = 17.835432 Si / 1000 Ang^3
#
#
#
# Elastic Constant Matrix: (Units=GPa)
#
#
# Indices 1 2 3 4 5 6 
#
# 1 125.6552 32.0794 62.2733 0.0000 0.0000 0.0000
# 2 32.0794 86.3705 68.7404 0.0000 0.0000 0.0000
# 3 62.2733 68.7404 131.9957 0.0000 0.0000 0.0000
# 4 0.0000 0.0000 0.0000 6.6158 0.0000 0.0000
# 5 0.0000 0.0000 0.0000 0.0000 84.5595 0.0000
# 6 0.0000 0.0000 0.0000 0.0000 0.0000 51.4376
#
#
#
# Elastic Compliance Matrix: (Units=1/GPa)
#
#
# Indices 1 2 3 4 5 6 
#
# 1 0.010387 0.000072 -0.004938 0.000000 0.000000 0.000000
# 2 0.000072 0.019774 -0.010332 0.000000 0.000000 0.000000
# 3 -0.004938 -0.010332 0.015286 0.000000 0.000000 0.000000
# 4 0.000000 0.000000 0.000000 0.151152 0.000000 0.000000
# 5 0.000000 0.000000 0.000000 0.000000 0.011826 0.000000
# 6 0.000000 0.000000 0.000000 0.000000 0.000000 0.019441
#
#
# Mechanical properties :
#
#
# Convention : Reuss Voigt Hill
#
# Bulk Modulus (GPa) = 66.43678 74.46752 70.45215
# Shear Modulus (GPa) = 18.99118 40.58446 29.78782
#
# Velocity S-wave (km/s) = 3.26667 4.77539 4.09118
# Velocity P-wave (km/s) = 7.18045 8.49994 7.86791
#
# Compressibility (1/GPa) = 0.01505190
#
# Stress axis : x y z
#
# Youngs Moduli (GPa) = 96.27322 50.57071 65.41772
#
# Poissons Ratio (x) = -0.00365 0.32303
# Poissons Ratio (y) = -0.00694 0.67590
# Poissons Ratio (z) = 0.47540 0.52250
#
# Static dielectric constant tensor:
#      x y z
#    x 1.617300 0.000000 0.000000 
#    y 0.000000 1.617280 0.000000 
#    z 0.000000 0.000000 1.621160 
# 
# From -- ./inp_files/50978.got.cif
#   From: 2010.05.17/outbox.cif.g08.bks.cpg/sg71_26_cif.got.tgz:50978.got - 2010.06.03 16:22:01.
