data_PCOD9517708
_publ_section_title
;
Structure prediction by ZEFSAII (Michael W. Deem and Ramdas Pophale) SiO2 
 PCOD9517708
Probable space group: I M M M
;
_chemical_formula_sum "Si O2"
_cell_formula_units_Z 96
_cell_length_a 10.644170
_cell_length_b 20.699470
_cell_length_c 17.776236
_cell_angle_alpha 90.000000
_cell_angle_beta 90.000000
_cell_angle_gamma 90.000000
_cell_volume 3916.614570
_symmetry_space_group_name_H-M "I M M M"
_symmetry_group_IT_number 71
_symmetry_cell_setting 'orthorhombic'
loop_
_space_group_symop_operation_xyz
x,y,z
-x,-y,z
x,-y,-z
-x,y,-z
-x,-y,-z
x,y,-z
-x,y,z
x,-y,z
1/2+x,1/2+y,1/2+z
1/2-x,1/2-y,1/2+z
1/2+x,1/2-y,1/2-z
1/2-x,1/2+y,1/2-z
1/2-x,1/2-y,1/2-z
1/2+x,1/2+y,1/2-z
1/2-x,1/2+y,1/2+z
1/2+x,1/2-y,1/2+z
loop_
_atom_site_type_symbol
_atom_site_label
_atom_site_fract_x
_atom_site_fract_y
_atom_site_fract_z
Si Si1 0.640525 0.888779 0.162886
Si Si2 0.255481 0.077426 0.322743
Si Si3 0.635924 0.745529 0.089463
Si Si4 0.646054 0.252139 0.682210
Si Si5 0.500000 0.421394 0.088418
Si Si6 0.000000 0.577391 0.081119
Si Si7 0.633320 0.384489 0.586864
O O1 0.500000 0.915628 0.168684
O O2 0.705712 0.889887 0.244362
O O3 0.628604 0.817549 0.125405
O O4 0.733104 0.782771 0.380459
O O5 0.373666 0.090751 0.375289
O O6 0.125590 0.094449 0.364207
O O7 0.249953 0.000000 0.308092
O O8 0.500000 0.715193 0.110257
O O9 0.871687 0.822739 0.143285
O O10 0.640422 0.749639 0.000000
O O11 0.500000 0.230565 0.699232
O O12 0.750000 0.250000 0.750000
O O13 0.757893 0.422357 0.609156
O O14 0.500000 0.500000 0.083207
O O15 0.500000 0.399042 0.000000
O O16 0.000000 0.500000 0.073170
O O17 0.000000 0.609294 0.000000
O O18 0.641905 0.362725 0.500000
O O19 0.500000 0.419122 0.595720
#
# Coordination Sequence:
#
# PCOD9517708 Si02
#       7
#    16  16  16  16   8   8  16
#     4  10  18  28  46  72 101 130 163 202 253 297
#     4  10  19  30  45  70 100 127 161 208 256 300
#     4   9  18  33  52  73  99 131 169 208 243 285
#     4  10  18  28  45  72 104 126 153 193 243 287
#     4   9  18  32  48  66  89 119 158 201 247 300
#     4   9  16  28  46  66  91 121 152 193 247 300
#     4   9  19  35  54  75  99 130 170 209 240 280
#
# _framework density 24.510964000000001
#
# number of rings (size 3 to 8) (size 9 to 14) (size 15 to 20)
#    0.000    2.500    0.833    3.000    1.167    4.667 
#    0.000    0.000    0.000    2.000    0.000   25.667 
#    0.000    0.000    0.000    0.000    0.000    0.000 
#
# Total GULP energy -267580.909995 kJ/mol
# GULP energy per Si atom -5574.602292 kJ/mol
# Density = 2.445518 g / cm^3
# Si number density = 24.510964 Si / 1000 Ang^3
#
#
#
# Elastic Constant Matrix: (Units=GPa)
#
#
# Indices 1 2 3 4 5 6 
#
# 1 315.4619 40.8664 111.4228 0.0000 0.0000 0.0000
# 2 40.8664 94.5952 30.8363 0.0000 0.0000 0.0000
# 3 111.4228 30.8363 176.7273 0.0000 0.0000 0.0000
# 4 0.0000 0.0000 0.0000 21.7126 0.0000 0.0000
# 5 0.0000 0.0000 0.0000 0.0000 33.7489 0.0000
# 6 0.0000 0.0000 0.0000 0.0000 0.0000 16.1179
#
#
#
# Elastic Compliance Matrix: (Units=1/GPa)
#
#
# Indices 1 2 3 4 5 6 
#
# 1 0.004166 -0.001000 -0.002452 0.000000 0.000000 0.000000
# 2 -0.001000 0.011449 -0.001367 0.000000 0.000000 0.000000
# 3 -0.002452 -0.001367 0.007443 0.000000 0.000000 0.000000
# 4 0.000000 0.000000 0.000000 0.046056 0.000000 0.000000
# 5 0.000000 0.000000 0.000000 0.000000 0.029631 0.000000
# 6 0.000000 0.000000 0.000000 0.000000 0.000000 0.062043
#
#
# Mechanical properties :
#
#
# Convention : Reuss Voigt Hill
#
# Bulk Modulus (GPa) = 74.51999 105.89283 90.20641
# Shear Modulus (GPa) = 28.58807 41.22648 34.90728
#
# Velocity S-wave (km/s) = 3.41887 4.10562 3.77788
# Velocity P-wave (km/s) = 6.78628 8.10992 7.47745
#
# Compressibility (1/GPa) = 0.01341922
#
# Stress axis : x y z
#
# Youngs Moduli (GPa) = 240.06702 87.34284 134.35959
#
# Poissons Ratio (x) = 0.08737 0.32941
# Poissons Ratio (y) = 0.24015 0.18367
# Poissons Ratio (z) = 0.58858 0.11940
#
# Static dielectric constant tensor:
#      x y z
#    x 2.023540 0.000000 0.000000 
#    y 0.000000 2.097010 0.000000 
#    z 0.000000 0.000000 1.980330 
# 
# From -- ./inp_files/43601.got.cif
#   From: 2010.05.17/outbox.cif.g08.bks.cpg/sg71_22_cif.got.tgz:43601.got - 2010.06.03 16:22:01.
