data_PCOD9517052
_publ_section_title
;
Structure prediction by ZEFSAII (Michael W. Deem and Ramdas Pophale) SiO2 
 PCOD9517052
Probable space group: F D D D
;
_chemical_formula_sum "Si O2"
_cell_formula_units_Z 160
_cell_length_a 18.658137
_cell_length_b 27.602587
_cell_length_c 14.592147
_cell_angle_alpha 90.000000
_cell_angle_beta 90.000000
_cell_angle_gamma 90.000000
_cell_volume 7515.143211
_symmetry_space_group_name_H-M "F D D D"
_symmetry_group_IT_number 70
_space_group.IT_coordinate_system_code '2'
_symmetry_cell_setting 'orthorhombic'
loop_
_space_group_symop_operation_xyz
x,y,z
1/4-x,1/4-y,z
x,1/4-y,1/4-z
1/4-x,y,1/4-z
-x,-y,-z
3/4+x,3/4+y,-z
-x,3/4+y,3/4+z
3/4+x,-y,3/4+z
x,1/2+y,1/2+z
1/4-x,3/4-y,1/2+z
x,3/4-y,3/4-z
1/4-x,1/2+y,3/4-z
-x,1/2-y,1/2-z
3/4+x,1/4+y,1/2-z
-x,1/4+y,1/4+z
3/4+x,1/2-y,1/4+z
1/2+x,y,1/2+z
3/4-x,1/4-y,1/2+z
1/2+x,1/4-y,3/4-z
3/4-x,y,3/4-z
1/2-x,-y,1/2-z
1/4+x,3/4+y,1/2-z
1/2-x,3/4+y,1/4+z
1/4+x,-y,1/4+z
1/2+x,1/2+y,z
3/4-x,3/4-y,z
1/2+x,3/4-y,1/4-z
3/4-x,1/2+y,1/4-z
1/2-x,1/2-y,-z
1/4+x,1/4+y,-z
1/2-x,1/4+y,3/4+z
1/4+x,1/2-y,3/4+z
loop_
_atom_site_type_symbol
_atom_site_label
_atom_site_fract_x
_atom_site_fract_y
_atom_site_fract_z
Si Si1 0.841941 0.325089 0.095128
Si Si2 0.597735 0.423393 0.029727
Si Si3 0.478871 0.900177 0.277420
Si Si4 0.782704 0.153624 0.038799
Si Si5 0.344438 0.724992 0.650696
O O1 0.875000 0.375000 0.063117
O O2 0.827900 0.330183 0.204335
O O3 0.894287 0.280530 0.075959
O O4 0.768398 0.323906 0.038006
O O5 0.625000 0.443454 0.125000
O O6 0.526508 0.390232 0.026359
O O7 0.660727 0.385937 0.999941
O O8 0.585843 0.465541 0.957021
O O9 0.458554 0.875000 0.375000
O O10 0.530952 0.945224 0.301470
O O11 0.747335 0.125000 0.125000
O O12 0.832198 0.197135 0.074737
#
# Coordination Sequence:
#
# PCOD9517052 Si02
#       5
#    32  32  32  32  32
#     4  12  24  38  57  89 126 157 194 244 303 347
#     4   9  15  35  65  85 108 156 203 242 285 354
#     4   9  20  41  61  81 119 156 197 245 295 346
#     4   9  19  37  62  88 119 152 199 248 297 351
#     4   9  21  37  60  91 112 155 207 238 290 361
#
# _framework density 21.290347000000001
#
# number of rings (size 3 to 8) (size 9 to 14) (size 15 to 20)
#    0.000    2.400    2.000    3.000    0.000    4.000 
#    3.600    4.000    0.000    0.000    0.000    0.000 
#    0.000    0.000    0.000    0.000    0.000    0.000 
#
# Total GULP energy -223163.369916 kJ/mol
# GULP energy per Si atom -5579.084248 kJ/mol
# Density = 2.124189 g / cm^3
# Si number density = 21.290347 Si / 1000 Ang^3
#
#
#
# Elastic Constant Matrix: (Units=GPa)
#
#
# Indices 1 2 3 4 5 6 
#
# 1 29.1463 11.4153 -4.7946 0.0000 0.0000 0.0000
# 2 11.4153 109.0733 -8.3659 0.0000 0.0000 0.0000
# 3 -4.7946 -8.3659 50.1487 0.0000 0.0000 0.0000
# 4 0.0000 0.0000 0.0000 11.1474 0.0000 0.0000
# 5 0.0000 0.0000 0.0000 0.0000 18.1289 0.0000
# 6 0.0000 0.0000 0.0000 0.0000 0.0000 10.0289
#
#
#
# Elastic Compliance Matrix: (Units=1/GPa)
#
#
# Indices 1 2 3 4 5 6 
#
# 1 0.036178 -0.003567 0.002864 0.000000 0.000000 0.000000
# 2 -0.003567 0.009639 0.001267 0.000000 0.000000 0.000000
# 3 0.002864 0.001267 0.020426 0.000000 0.000000 0.000000
# 4 0.000000 0.000000 0.000000 0.089707 0.000000 0.000000
# 5 0.000000 0.000000 0.000000 0.000000 0.055161 0.000000
# 6 0.000000 0.000000 0.000000 0.000000 0.000000 0.099712
#
#
# Mechanical properties :
#
#
# Convention : Reuss Voigt Hill
#
# Bulk Modulus (GPa) = 14.84328 20.54199 17.69263
# Shear Modulus (GPa) = 15.05344 20.53527 17.79435
#
# Velocity S-wave (km/s) = 2.66193 3.10906 2.89415
# Velocity P-wave (km/s) = 4.05399 4.74951 4.41546
#
# Compressibility (1/GPa) = 0.06737056
#
# Stress axis : x y z
#
# Youngs Moduli (GPa) = 27.64132 103.74956 48.95755
#
# Poissons Ratio (x) = 0.37003 -0.14021
# Poissons Ratio (y) = 0.09859 -0.06203
# Poissons Ratio (z) = -0.07916 -0.13144
#
# Static dielectric constant tensor:
#      x y z
#    x 1.819880 0.000000 0.000000 
#    y 0.000000 1.752350 0.000000 
#    z 0.000000 0.000000 1.820310 
# 
# From -- ./inp_files/28616.got.cif
#   From: 2010.05.17/outbox.cif.g08.bks.cpg/sg70_15_cif.got.tgz:28616.got - 2010.06.03 15:57:51.
