data_PCOD9517770
_publ_section_title
;
Structure prediction by ZEFSAII (Michael W. Deem and Ramdas Pophale) SiO2 
 PCOD9517770
Probable space group: I M M M
;
_chemical_formula_sum "Si O2"
_cell_formula_units_Z 120
_cell_length_a 20.469266
_cell_length_b 14.301752
_cell_length_c 26.172087
_cell_angle_alpha 90.000000
_cell_angle_beta 90.000000
_cell_angle_gamma 90.000000
_cell_volume 7661.783359
_symmetry_space_group_name_H-M "I M M M"
_symmetry_group_IT_number 71
_symmetry_cell_setting 'orthorhombic'
loop_
_space_group_symop_operation_xyz
x,y,z
-x,-y,z
x,-y,-z
-x,y,-z
-x,-y,-z
x,y,-z
-x,y,z
x,-y,z
1/2+x,1/2+y,1/2+z
1/2-x,1/2-y,1/2+z
1/2+x,1/2-y,1/2-z
1/2-x,1/2+y,1/2-z
1/2-x,1/2-y,1/2-z
1/2+x,1/2+y,1/2-z
1/2-x,1/2+y,1/2+z
1/2+x,1/2-y,1/2+z
loop_
_atom_site_type_symbol
_atom_site_label
_atom_site_fract_x
_atom_site_fract_y
_atom_site_fract_z
Si Si1 0.127022 0.227857 0.441196
Si Si2 0.500000 0.602004 0.939214
Si Si3 0.761079 0.610127 0.058279
Si Si4 0.423142 0.224630 0.158150
Si Si5 0.200794 0.693295 0.842461
Si Si6 0.642394 0.891932 0.755763
Si Si7 0.339237 0.391357 0.803387
Si Si8 0.714133 0.604589 0.692332
O O1 0.121317 0.262653 0.500000
O O2 0.066256 0.158519 0.430479
O O3 0.193858 0.169436 0.437691
O O4 0.117572 0.298494 0.393847
O O5 0.500000 0.500000 0.914291
O O6 0.500000 0.590236 0.000000
O O7 0.747707 0.500000 0.066682
O O8 0.808573 0.648949 0.101947
O O9 0.784760 0.620743 0.000000
O O10 0.500000 0.223487 0.148208
O O11 0.406175 0.155936 0.204628
O O12 0.396600 0.325564 0.176806
O O13 0.151521 0.660050 0.798231
O O14 0.271507 0.652483 0.824478
O O15 0.203457 0.805510 0.842728
O O16 0.713218 0.887452 0.783685
O O17 0.627010 0.000000 0.746634
O O18 0.344177 0.500000 0.818611
O O19 0.332621 0.387717 0.741994
O O20 0.707110 0.500000 0.670297
#
# Coordination Sequence:
#
# PCOD9517770 Si02
#       8
#    16   8  16  16  16  16  16  16
#     4  10  19  30  41  56  85 124 159 194 234 275
#     4   9  16  26  38  52  75 115 163 195 217 258
#     4  10  19  28  42  68  98 124 152 190 238 287
#     4  12  22  32  44  63  92 126 164 202 235 272
#     4  11  16  30  51  69  92 121 151 189 236 292
#     4  10  19  32  49  68  86 113 154 200 245 284
#     4  10  18  29  44  67  92 117 152 192 234 280
#     4   9  16  28  50  70  87 113 150 192 233 285
#
# _framework density 15.66215
#
# number of rings (size 3 to 8) (size 9 to 14) (size 15 to 20)
#    0.000    1.800    4.667    3.200    0.000    2.667 
#    0.000    0.000    0.000    0.800    0.000    4.667 
#    0.000    0.533    0.000    2.800    0.000    4.267 
#
# Total GULP energy -334260.691315 kJ/mol
# GULP energy per Si atom -5571.011522 kJ/mol
# Density = 1.562650 g / cm^3
# Si number density = 15.662150 Si / 1000 Ang^3
#
#
#
# Elastic Constant Matrix: (Units=GPa)
#
#
# Indices 1 2 3 4 5 6 
#
# 1 19.7974 9.8450 23.4140 0.0000 0.0000 0.0000
# 2 9.8450 79.7227 36.3865 0.0000 0.0000 0.0000
# 3 23.4140 36.3865 94.3755 0.0000 0.0000 0.0000
# 4 0.0000 0.0000 0.0000 19.5471 0.0000 0.0000
# 5 0.0000 0.0000 0.0000 0.0000 21.4305 0.0000
# 6 0.0000 0.0000 0.0000 0.0000 0.0000 78.6578
#
#
#
# Elastic Compliance Matrix: (Units=1/GPa)
#
#
# Indices 1 2 3 4 5 6 
#
# 1 0.071539 -0.000890 -0.017405 0.000000 0.000000 0.000000
# 2 -0.000890 0.015233 -0.005652 0.000000 0.000000 0.000000
# 3 -0.017405 -0.005652 0.017093 0.000000 0.000000 0.000000
# 4 0.000000 0.000000 0.000000 0.051159 0.000000 0.000000
# 5 0.000000 0.000000 0.000000 0.000000 0.046663 0.000000
# 6 0.000000 0.000000 0.000000 0.000000 0.000000 0.012713
#
#
# Mechanical properties :
#
#
# Convention : Reuss Voigt Hill
#
# Bulk Modulus (GPa) = 17.86667 37.02071 27.44369
# Shear Modulus (GPa) = 17.79659 32.21040 25.00350
#
# Velocity S-wave (km/s) = 3.37453 4.53987 3.99987
# Velocity P-wave (km/s) = 5.15903 7.15325 6.23637
#
# Compressibility (1/GPa) = 0.05597013
#
# Stress axis : x y z
#
# Youngs Moduli (GPa) = 13.97833 65.64610 58.50248
#
# Poissons Ratio (x) = 0.05846 1.01824
# Poissons Ratio (y) = 0.01245 0.33067
# Poissons Ratio (z) = 0.24329 0.37105
#
# Static dielectric constant tensor:
#      x y z
#    x 1.506230 0.000000 0.000000 
#    y 0.000000 1.559730 0.000000 
#    z 0.000000 0.000000 1.576180 
# 
# From -- ./inp_files/61416.got.cif
#   From: 2010.05.17/outbox.cif.g08.bks.cpg/sg71_31_cif.got.tgz:61416.got - 2010.06.03 16:22:01.
