data_PCOD9517519
_publ_section_title
;
Structure prediction by ZEFSAII (Michael W. Deem and Ramdas Pophale) SiO2 
 PCOD9517519
Probable space group: I M M M
;
_chemical_formula_sum "Si O2"
_cell_formula_units_Z 104
_cell_length_a 9.246930
_cell_length_b 29.097379
_cell_length_c 33.281347
_cell_angle_alpha 90.000000
_cell_angle_beta 90.000000
_cell_angle_gamma 90.000000
_cell_volume 8954.726710
_symmetry_space_group_name_H-M "I M M M"
_symmetry_group_IT_number 71
_symmetry_cell_setting 'orthorhombic'
loop_
_space_group_symop_operation_xyz
x,y,z
-x,-y,z
x,-y,-z
-x,y,-z
-x,-y,-z
x,y,-z
-x,y,z
x,-y,z
1/2+x,1/2+y,1/2+z
1/2-x,1/2-y,1/2+z
1/2+x,1/2-y,1/2-z
1/2-x,1/2+y,1/2-z
1/2-x,1/2-y,1/2-z
1/2+x,1/2+y,1/2-z
1/2-x,1/2+y,1/2+z
1/2+x,1/2-y,1/2+z
loop_
_atom_site_type_symbol
_atom_site_label
_atom_site_fract_x
_atom_site_fract_y
_atom_site_fract_z
Si Si1 0.829916 0.092367 0.914590
Si Si2 0.327510 0.152231 0.850079
Si Si3 0.663852 0.500000 0.362600
Si Si4 0.333351 0.264325 0.311868
Si Si5 0.166409 0.183483 0.725444
Si Si6 0.326512 0.000000 0.780390
Si Si7 0.326523 0.898329 0.234580
Si Si8 0.676314 0.553582 0.500000
O O1 0.739070 0.129122 0.889560
O O2 0.820026 0.044700 0.890046
O O3 0.780483 0.080268 0.959634
O O4 0.000000 0.105555 0.915485
O O5 0.500000 0.156879 0.852871
O O6 0.253188 0.200873 0.840340
O O7 0.296840 0.119600 0.811048
O O8 0.500000 0.500000 0.345947
O O9 0.774212 0.500000 0.326234
O O10 0.500000 0.258687 0.324166
O O11 0.253218 0.216069 0.305021
O O12 0.334047 0.289277 0.268137
O O13 0.245741 0.135863 0.735320
O O14 0.000000 0.177228 0.713369
O O15 0.279661 0.951359 0.761744
O O16 0.500000 0.000000 0.779758
O O17 0.500000 0.894831 0.240212
O O18 0.724044 0.500000 0.500000
O O19 0.500000 0.551953 0.500000
#
# Coordination Sequence:
#
# PCOD9517519 Si02
#       8
#    16  16   8  16  16   8  16   8
#     4  10  18  28  41  55  68  85 112 144 178 216
#     4  10  18  27  39  53  70  88 108 136 173 212
#     4  10  18  25  38  54  66  82 110 146 178 212
#     4   9  16  26  39  53  69  86 107 132 162 202
#     4   9  16  25  37  52  69  87 108 133 164 200
#     4  10  18  28  37  49  69  94 118 142 174 209
#     4   9  17  26  36  49  67  91 115 138 168 204
#     4   9  16  28  43  55  67  87 115 145 177 216
#
# _framework density 11.613979
#
# number of rings (size 3 to 8) (size 9 to 14) (size 15 to 20)
#    0.000    2.538    2.308    1.385    0.000    4.923 
#    0.000    0.385    0.000    0.462    0.000    0.000 
#    0.000    0.000    0.000    0.000    0.000    0.000 
#
# Total GULP energy -289623.513388 kJ/mol
# GULP energy per Si atom -5569.682950 kJ/mol
# Density = 1.158754 g / cm^3
# Si number density = 11.613979 Si / 1000 Ang^3
#
#
#
# Elastic Constant Matrix: (Units=GPa)
#
#
# Indices 1 2 3 4 5 6 
#
# 1 54.1440 48.6986 30.7379 0.0000 0.0000 0.0000
# 2 48.6986 97.0654 42.6963 0.0000 0.0000 0.0000
# 3 30.7379 42.6963 43.2387 0.0000 0.0000 0.0000
# 4 0.0000 0.0000 0.0000 12.4155 0.0000 0.0000
# 5 0.0000 0.0000 0.0000 0.0000 11.4440 0.0000
# 6 0.0000 0.0000 0.0000 0.0000 0.0000 17.3010
#
#
#
# Elastic Compliance Matrix: (Units=1/GPa)
#
#
# Indices 1 2 3 4 5 6 
#
# 1 0.038223 -0.012772 -0.014560 0.000000 0.000000 0.000000
# 2 -0.012772 0.022481 -0.013120 0.000000 0.000000 0.000000
# 3 -0.014560 -0.013120 0.046433 0.000000 0.000000 0.000000
# 4 0.000000 0.000000 0.000000 0.080545 0.000000 0.000000
# 5 0.000000 0.000000 0.000000 0.000000 0.087382 0.000000
# 6 0.000000 0.000000 0.000000 0.000000 0.000000 0.057800
#
#
# Mechanical properties :
#
#
# Convention : Reuss Voigt Hill
#
# Bulk Modulus (GPa) = 38.11969 48.74598 43.43284
# Shear Modulus (GPa) = 11.83397 13.05311 12.44354
#
# Velocity S-wave (km/s) = 3.19555 3.35612 3.27682
# Velocity P-wave (km/s) = 6.81974 7.55520 7.19687
#
# Compressibility (1/GPa) = 0.02623316
#
# Stress axis : x y z
#
# Youngs Moduli (GPa) = 26.16236 44.48182 21.53634
#
# Poissons Ratio (x) = 0.56812 0.31358
# Poissons Ratio (y) = 0.33415 0.28255
# Poissons Ratio (z) = 0.38093 0.58358
#
# Static dielectric constant tensor:
#      x y z
#    x 1.389360 0.000000 0.000000 
#    y 0.000000 1.376510 0.000000 
#    z 0.000000 0.000000 1.347410 
# 
# From -- ./inp_files/68590.got.cif
#   From: 2010.05.17/outbox.cif.g08.bks.cpg/sg71_35_cif.got.tgz:68590.got - 2010.06.03 16:22:01.
