data_PCOD9517814
_publ_section_title
;
Structure prediction by ZEFSAII (Michael W. Deem and Ramdas Pophale) SiO2 
 PCOD9517814
Probable space group: I M M M
;
_chemical_formula_sum "Si O2"
_cell_formula_units_Z 120
_cell_length_a 22.318211
_cell_length_b 18.361834
_cell_length_c 18.376600
_cell_angle_alpha 90.000000
_cell_angle_beta 90.000000
_cell_angle_gamma 90.000000
_cell_volume 7530.791057
_symmetry_space_group_name_H-M "I M M M"
_symmetry_group_IT_number 71
_symmetry_cell_setting 'orthorhombic'
loop_
_space_group_symop_operation_xyz
x,y,z
-x,-y,z
x,-y,-z
-x,y,-z
-x,-y,-z
x,y,-z
-x,y,z
x,-y,z
1/2+x,1/2+y,1/2+z
1/2-x,1/2-y,1/2+z
1/2+x,1/2-y,1/2-z
1/2-x,1/2+y,1/2-z
1/2-x,1/2-y,1/2-z
1/2+x,1/2+y,1/2-z
1/2-x,1/2+y,1/2+z
1/2+x,1/2-y,1/2+z
loop_
_atom_site_type_symbol
_atom_site_label
_atom_site_fract_x
_atom_site_fract_y
_atom_site_fract_z
Si Si1 0.692771 0.782387 0.920628
Si Si2 0.880145 0.832131 0.857267
Si Si3 0.760921 0.414179 0.808311
Si Si4 0.500000 0.413421 0.587865
Si Si5 0.745639 0.584279 0.636878
Si Si6 0.138922 0.177699 0.312537
Si Si7 0.571331 0.418613 0.080809
Si Si8 0.681520 0.193654 0.582359
O O1 0.711264 0.865601 0.910524
O O2 0.655537 0.752354 0.852820
O O3 0.755437 0.737850 0.918179
O O4 0.664992 0.769330 0.000000
O O5 0.821777 0.883572 0.869888
O O6 0.878698 0.816071 0.771052
O O7 0.867217 0.755231 0.897077
O O8 0.940352 0.873157 0.882048
O O9 0.760100 0.500000 0.826860
O O10 0.767453 0.408018 0.720894
O O11 0.696693 0.375408 0.820492
O O12 0.808233 0.368985 0.857204
O O13 0.500000 0.500000 0.607483
O O14 0.500000 0.408809 0.500000
O O15 0.745594 0.500000 0.617330
O O16 0.088790 0.138540 0.359331
O O17 0.500000 0.421953 0.076263
O O18 0.593182 0.500000 0.099575
O O19 0.595011 0.400502 0.000000
O O20 0.671698 0.166020 0.500000
#
# Coordination Sequence:
#
# PCOD9517814 Si02
#       8
#    16  16  16   8  16  16  16  16
#     4   9  17  28  44  67  92 121 156 190 227 277
#     4  10  20  33  49  67  89 124 164 198 236 275
#     4   9  17  28  44  69  96 121 151 188 231 279
#     4  11  24  38  50  68  94 122 160 207 240 266
#     4   9  17  30  46  66  95 126 155 190 234 280
#     4  10  18  29  46  66  92 124 157 192 229 271
#     4   9  18  30  42  59  87 123 157 189 227 268
#     4   9  17  30  46  64  90 122 154 190 236 286
#
# _framework density 15.934581
#
# number of rings (size 3 to 8) (size 9 to 14) (size 15 to 20)
#    0.000    2.600    0.000    2.800    0.933    6.400 
#    0.000    0.000    0.000    0.000    0.000    0.467 
#    0.000    2.133    0.000    2.800    0.000    0.000 
#
# Total GULP energy -334146.279347 kJ/mol
# GULP energy per Si atom -5569.104656 kJ/mol
# Density = 1.589831 g / cm^3
# Si number density = 15.934581 Si / 1000 Ang^3
#
#
#
# Elastic Constant Matrix: (Units=GPa)
#
#
# Indices 1 2 3 4 5 6 
#
# 1 45.0925 25.8924 34.1034 0.0000 0.0000 0.0000
# 2 25.8924 84.1002 37.6008 0.0000 0.0000 0.0000
# 3 34.1034 37.6008 62.7247 0.0000 0.0000 0.0000
# 4 0.0000 0.0000 0.0000 20.6112 0.0000 0.0000
# 5 0.0000 0.0000 0.0000 0.0000 21.6656 0.0000
# 6 0.0000 0.0000 0.0000 0.0000 0.0000 22.7418
#
#
#
# Elastic Compliance Matrix: (Units=1/GPa)
#
#
# Indices 1 2 3 4 5 6 
#
# 1 0.038361 -0.003395 -0.018821 0.000000 0.000000 0.000000
# 2 -0.003395 0.016545 -0.008072 0.000000 0.000000 0.000000
# 3 -0.018821 -0.008072 0.031015 0.000000 0.000000 0.000000
# 4 0.000000 0.000000 0.000000 0.048517 0.000000 0.000000
# 5 0.000000 0.000000 0.000000 0.000000 0.046156 0.000000
# 6 0.000000 0.000000 0.000000 0.000000 0.000000 0.043972
#
#
# Mechanical properties :
#
#
# Convention : Reuss Voigt Hill
#
# Bulk Modulus (GPa) = 39.45863 43.01230 41.23547
# Shear Modulus (GPa) = 17.03054 19.29179 18.16116
#
# Velocity S-wave (km/s) = 3.27276 3.48327 3.37966
# Velocity P-wave (km/s) = 6.25284 6.57489 6.41588
#
# Compressibility (1/GPa) = 0.02534300
#
# Stress axis : x y z
#
# Youngs Moduli (GPa) = 26.06829 60.44184 32.24296
#
# Poissons Ratio (x) = 0.20523 0.60685
# Poissons Ratio (y) = 0.08851 0.26026
# Poissons Ratio (z) = 0.49064 0.48788
#
# Static dielectric constant tensor:
#      x y z
#    x 1.514620 0.000000 0.000000 
#    y 0.000000 1.533610 0.000000 
#    z 0.000000 0.000000 1.561840 
# 
# From -- ./inp_files/47570.got.cif
#   From: 2010.05.17/outbox.cif.g08.bks.cpg/sg71_24_cif.got.tgz:47570.got - 2010.06.03 16:22:01.
