data_PCOD9517990
_publ_section_title
;
Structure prediction by ZEFSAII (Michael W. Deem and Ramdas Pophale) SiO2 
 PCOD9517990
Probable space group: I M M M
;
_chemical_formula_sum "Si O2"
_cell_formula_units_Z 56
_cell_length_a 18.794324
_cell_length_b 21.292235
_cell_length_c 8.650773
_cell_angle_alpha 90.000000
_cell_angle_beta 90.000000
_cell_angle_gamma 90.000000
_cell_volume 3461.807196
_symmetry_space_group_name_H-M "I M M M"
_symmetry_group_IT_number 71
_symmetry_cell_setting 'orthorhombic'
loop_
_space_group_symop_operation_xyz
x,y,z
-x,-y,z
x,-y,-z
-x,y,-z
-x,-y,-z
x,y,-z
-x,y,z
x,-y,z
1/2+x,1/2+y,1/2+z
1/2-x,1/2-y,1/2+z
1/2+x,1/2-y,1/2-z
1/2-x,1/2+y,1/2-z
1/2-x,1/2-y,1/2-z
1/2+x,1/2+y,1/2-z
1/2-x,1/2+y,1/2+z
1/2+x,1/2-y,1/2+z
loop_
_atom_site_type_symbol
_atom_site_label
_atom_site_fract_x
_atom_site_fract_y
_atom_site_fract_z
Si Si1 0.415925 0.500000 0.185353
Si Si2 0.712989 0.813272 0.315293
Si Si3 0.416901 0.248614 0.814885
Si Si4 0.655794 0.374779 0.684762
O O1 0.500000 0.500000 0.220400
O O2 0.380130 0.438043 0.255218
O O3 0.407625 0.500000 0.000000
O O4 0.714772 0.813080 0.500000
O O5 0.750000 0.750000 0.250000
O O6 0.632788 0.806100 0.254717
O O7 0.763889 0.867300 0.249439
O O8 0.500000 0.240710 0.779581
O O9 0.388926 0.314918 0.747301
O O10 0.407606 0.250377 0.000000
O O11 0.656948 0.372401 0.500000
#
# Coordination Sequence:
#
# PCOD9517990 Si02
#       4
#     8  16  16  16
#     4  11  23  37  51  69  96 129 164 199 235 277
#     4  10  18  30  48  68  93 124 159 197 238 284
#     4  10  19  31  48  71  99 128 158 196 242 286
#     4  11  21  33  49  69  96 128 163 199 236 282
#
# _framework density 16.176523
#
# number of rings (size 3 to 8) (size 9 to 14) (size 15 to 20)
#    0.000    1.571    0.000   10.714    0.000    6.857 
#    0.000    0.000    0.000    0.000    0.000    1.000 
#    0.000    8.000    0.000    0.000    0.000    0.000 
#
# Total GULP energy -156277.233421 kJ/mol
# GULP energy per Si atom -5581.329765 kJ/mol
# Density = 1.613970 g / cm^3
# Si number density = 16.176523 Si / 1000 Ang^3
#
#
#
# Elastic Constant Matrix: (Units=GPa)
#
#
# Indices 1 2 3 4 5 6 
#
# 1 161.6290 68.7664 86.9421 0.0000 0.0000 0.0000
# 2 68.7664 71.3116 47.3349 0.0000 0.0000 0.0000
# 3 86.9421 47.3349 141.4341 0.0000 0.0000 0.0000
# 4 0.0000 0.0000 0.0000 3.2749 0.0000 0.0000
# 5 0.0000 0.0000 0.0000 0.0000 29.4506 0.0000
# 6 0.0000 0.0000 0.0000 0.0000 0.0000 30.8267
#
#
#
# Elastic Compliance Matrix: (Units=1/GPa)
#
#
# Indices 1 2 3 4 5 6 
#
# 1 0.012529 -0.008960 -0.004703 0.000000 0.000000 0.000000
# 2 -0.008960 0.024436 -0.002670 0.000000 0.000000 0.000000
# 3 -0.004703 -0.002670 0.010855 0.000000 0.000000 0.000000
# 4 0.000000 0.000000 0.000000 0.305354 0.000000 0.000000
# 5 0.000000 0.000000 0.000000 0.000000 0.033955 0.000000
# 6 0.000000 0.000000 0.000000 0.000000 0.000000 0.032439
#
#
# Mechanical properties :
#
#
# Convention : Reuss Voigt Hill
#
# Bulk Modulus (GPa) = 65.99268 86.71793 76.35530
# Shear Modulus (GPa) = 10.93409 24.13252 17.53330
#
# Velocity S-wave (km/s) = 2.60267 3.86660 3.29580
# Velocity P-wave (km/s) = 7.06511 8.58241 7.86046
#
# Compressibility (1/GPa) = 0.01515320
#
# Stress axis : x y z
#
# Youngs Moduli (GPa) = 79.81518 40.92393 92.12230
#
# Poissons Ratio (x) = 0.36668 0.43326
# Poissons Ratio (y) = 0.71514 0.24598
# Poissons Ratio (z) = 0.37538 0.10927
#
# Static dielectric constant tensor:
#      x y z
#    x 1.584820 0.000000 0.000000 
#    y 0.000000 1.537600 0.000000 
#    z 0.000000 0.000000 1.538530 
# 
# From -- ./inp_files/7374.got.cif
#   From: 2010.05.17/outbox.cif.g08.bks.cpg/sg71_4_cif.got.tgz:7374.got - 2010.06.03 16:22:01.
