data_PCOD9517126
_publ_section_title
;
Structure prediction by ZEFSAII (Michael W. Deem and Ramdas Pophale) SiO2 
 PCOD9517126
Probable space group: F D D D
;
_chemical_formula_sum "Si O2"
_cell_formula_units_Z 56
_cell_length_a 17.395320
_cell_length_b 14.205833
_cell_length_c 7.341576
_cell_angle_alpha 90.000000
_cell_angle_beta 90.000000
_cell_angle_gamma 90.000000
_cell_volume 1814.213633
_symmetry_space_group_name_H-M "F D D D"
_symmetry_group_IT_number 70
_space_group.IT_coordinate_system_code '2'
_symmetry_cell_setting 'orthorhombic'
loop_
_space_group_symop_operation_xyz
x,y,z
1/4-x,1/4-y,z
x,1/4-y,1/4-z
1/4-x,y,1/4-z
-x,-y,-z
3/4+x,3/4+y,-z
-x,3/4+y,3/4+z
3/4+x,-y,3/4+z
x,1/2+y,1/2+z
1/4-x,3/4-y,1/2+z
x,3/4-y,3/4-z
1/4-x,1/2+y,3/4-z
-x,1/2-y,1/2-z
3/4+x,1/4+y,1/2-z
-x,1/4+y,1/4+z
3/4+x,1/2-y,1/4+z
1/2+x,y,1/2+z
3/4-x,1/4-y,1/2+z
1/2+x,1/4-y,3/4-z
3/4-x,y,3/4-z
1/2-x,-y,1/2-z
1/4+x,3/4+y,1/2-z
1/2-x,3/4+y,1/4+z
1/4+x,-y,1/4+z
1/2+x,1/2+y,z
3/4-x,3/4-y,z
1/2+x,3/4-y,1/4-z
3/4-x,1/2+y,1/4-z
1/2-x,1/2-y,-z
1/4+x,1/4+y,-z
1/2-x,1/4+y,3/4+z
1/4+x,1/2-y,3/4+z
loop_
_atom_site_type_symbol
_atom_site_label
_atom_site_fract_x
_atom_site_fract_y
_atom_site_fract_z
Si Si1 0.375000 0.375000 0.375000
Si Si2 0.780830 0.299977 0.217873
Si Si3 0.375000 0.627037 0.375000
O O1 0.433884 0.329786 0.224761
O O2 0.800081 0.375000 0.375000
O O3 0.687893 0.309634 0.219863
O O4 0.818999 0.200947 0.271479
#
# Coordination Sequence:
#
# PCOD9517126 Si02
#       3
#     8  32  16
#     4  12  26  50  88 124 176 226 290 346 472 484
#     4  12  28  56  82 132 176 227 289 373 428 532
#     4  12  29  59  90 123 187 224 296 366 443 515
#
# _framework density 30.867367999999999
#
# number of rings (size 3 to 8) (size 9 to 14) (size 15 to 20)
#    0.000    0.000    5.714    1.714    4.000    4.571 
#    0.000    0.000    0.000    0.000    0.000    0.000 
#    0.000    0.000    0.000    0.000    0.000    0.000 
#
# Total GULP energy -78522.833621 kJ/mol
# GULP energy per Si atom -5608.773830 kJ/mol
# Density = 3.079711 g / cm^3
# Si number density = 30.867368 Si / 1000 Ang^3
#
#
#
# Elastic Constant Matrix: (Units=GPa)
#
#
# Indices 1 2 3 4 5 6 
#
# 1 376.8536 108.1350 55.4689 0.0001 0.0000 0.0000
# 2 108.1350 174.2483 88.6616 0.0002 -0.0001 -0.0001
# 3 55.4689 88.6616 214.0338 0.0007 -0.0005 -0.0002
# 4 0.0001 0.0002 0.0007 79.4970 -0.0003 -0.0001
# 5 0.0000 -0.0001 -0.0005 -0.0003 54.3096 0.0001
# 6 0.0000 -0.0001 -0.0002 -0.0001 0.0001 62.8299
#
#
#
# Elastic Compliance Matrix: (Units=1/GPa)
#
#
# Indices 1 2 3 4 5 6 
#
# 1 0.003228 -0.001999 -0.000009 0.000000 0.000000 0.000000
# 2 -0.001999 0.008510 -0.003007 0.000000 0.000000 0.000000
# 3 -0.000009 -0.003007 0.005920 0.000000 0.000000 0.000000
# 4 0.000000 0.000000 0.000000 0.012579 0.000000 0.000000
# 5 0.000000 0.000000 0.000000 0.000000 0.018413 0.000000
# 6 0.000000 0.000000 0.000000 0.000000 0.000000 0.015916
#
#
# Mechanical properties :
#
#
# Convention : Reuss Voigt Hill
#
# Bulk Modulus (GPa) = 131.08336 141.07408 136.07872
# Shear Modulus (GPa) = 64.81878 73.51866 69.16872
#
# Velocity S-wave (km/s) = 4.58745 4.88562 4.73888
# Velocity P-wave (km/s) = 8.40348 8.81069 8.60949
#
# Compressibility (1/GPa) = 0.00762873
#
# Stress axis : x y z
#
# Youngs Moduli (GPa) = 309.74597 117.51487 168.92003
#
# Poissons Ratio (x) = 0.23493 0.00144
# Poissons Ratio (y) = 0.61923 0.50793
# Poissons Ratio (z) = 0.00265 0.35336
#
# Static dielectric constant tensor:
#      x y z
#    x 2.397150 0.000000 0.000000 
#    y 0.000000 2.775490 0.000000 
#    z 0.000000 0.000000 2.603140 
# 
# From -- ./inp_files/5454.got.cif
#   From: 2010.05.17/outbox.cif.g08.bks.cpg/sg70_3_cif.got.tgz:5454.got - 2010.06.03 15:57:51.
