data_PCOD9517429
_publ_section_title
;
Structure prediction by ZEFSAII (Michael W. Deem and Ramdas Pophale) SiO2 
 PCOD9517429
Probable space group: I M M M
;
_chemical_formula_sum "Si O2"
_cell_formula_units_Z 120
_cell_length_a 15.423078
_cell_length_b 14.333859
_cell_length_c 33.151299
_cell_angle_alpha 90.000000
_cell_angle_beta 90.000000
_cell_angle_gamma 90.000000
_cell_volume 7328.831445
_symmetry_space_group_name_H-M "I M M M"
_symmetry_group_IT_number 71
_symmetry_cell_setting 'orthorhombic'
loop_
_space_group_symop_operation_xyz
x,y,z
-x,-y,z
x,-y,-z
-x,y,-z
-x,-y,-z
x,y,-z
-x,y,z
x,-y,z
1/2+x,1/2+y,1/2+z
1/2-x,1/2-y,1/2+z
1/2+x,1/2-y,1/2-z
1/2-x,1/2+y,1/2-z
1/2-x,1/2-y,1/2-z
1/2+x,1/2+y,1/2-z
1/2-x,1/2+y,1/2+z
1/2+x,1/2-y,1/2+z
loop_
_atom_site_type_symbol
_atom_site_label
_atom_site_fract_x
_atom_site_fract_y
_atom_site_fract_z
Si Si1 0.305876 0.218750 0.788959
Si Si2 0.400246 0.112174 0.500000
Si Si3 0.785466 0.613220 0.921130
Si Si4 0.397858 0.395546 0.779045
Si Si5 0.902791 0.113046 0.452634
Si Si6 0.397700 0.102637 0.727363
Si Si7 0.599451 0.791038 0.353777
Si Si8 0.149575 0.890939 0.816337
O O1 0.250000 0.250000 0.750000
O O2 0.347788 0.315140 0.803008
O O3 0.377989 0.153928 0.768779
O O4 0.245714 0.153905 0.815900
O O5 0.500000 0.148376 0.500000
O O6 0.343102 0.135085 0.460809
O O7 0.407075 0.000000 0.500000
O O8 0.789335 0.500000 0.914408
O O9 0.684750 0.640116 0.928916
O O10 0.833147 0.669376 0.885833
O O11 0.500000 0.388545 0.786439
O O12 0.367984 0.500000 0.789186
O O13 0.384250 0.383869 0.730333
O O14 0.893309 0.139148 0.500000
O O15 0.000000 0.143484 0.439069
O O16 0.903330 0.000000 0.451621
O O17 0.500000 0.093979 0.723585
O O18 0.372048 0.163864 0.688967
O O19 0.356620 0.000000 0.726530
O O20 0.500000 0.820183 0.363228
O O21 0.599996 0.680238 0.345457
O O22 0.146542 0.000000 0.826849
#
# Coordination Sequence:
#
# PCOD9517429 Si02
#       8
#    16   8  16  16  16  16  16  16
#     4  10  17  29  45  65  86 112 151 200 249 296
#     4   9  16  26  41  63  98 140 171 194 227 281
#     4  10  18  29  45  70 103 136 166 197 239 288
#     4   9  16  27  45  67  89 113 145 192 247 298
#     4   8  13  24  45  71  96 124 161 198 229 268
#     4  10  19  30  44  64  91 121 156 200 247 294
#     4  11  21  32  45  67  95 128 166 200 242 297
#     4  10  20  33  48  66  86 115 160 208 252 295
#
# _framework density 16.373688999999999
#
# number of rings (size 3 to 8) (size 9 to 14) (size 15 to 20)
#    0.000    2.333    3.333    2.400    0.000    2.667 
#    0.000    0.000    0.000    1.600    0.000    2.333 
#    0.000    1.600    0.000    1.467    0.000    0.133 
#
# Total GULP energy -334002.695886 kJ/mol
# GULP energy per Si atom -5566.711598 kJ/mol
# Density = 1.633642 g / cm^3
# Si number density = 16.373689 Si / 1000 Ang^3
#
#
#
# Elastic Constant Matrix: (Units=GPa)
#
#
# Indices 1 2 3 4 5 6 
#
# 1 109.7164 30.2175 29.1215 0.0000 0.0000 0.0000
# 2 30.2175 86.1064 11.6439 0.0000 0.0000 0.0000
# 3 29.1215 11.6439 28.0491 0.0000 0.0000 0.0000
# 4 0.0000 0.0000 0.0000 11.6429 0.0000 0.0000
# 5 0.0000 0.0000 0.0000 0.0000 23.2464 0.0000
# 6 0.0000 0.0000 0.0000 0.0000 0.0000 20.0376
#
#
#
# Elastic Compliance Matrix: (Units=1/GPa)
#
#
# Indices 1 2 3 4 5 6 
#
# 1 0.013256 -0.002957 -0.012535 0.000000 0.000000 0.000000
# 2 -0.002957 0.012964 -0.002312 0.000000 0.000000 0.000000
# 3 -0.012535 -0.002312 0.049626 0.000000 0.000000 0.000000
# 4 0.000000 0.000000 0.000000 0.085889 0.000000 0.000000
# 5 0.000000 0.000000 0.000000 0.000000 0.043017 0.000000
# 6 0.000000 0.000000 0.000000 0.000000 0.000000 0.049906
#
#
# Mechanical properties :
#
#
# Convention : Reuss Voigt Hill
#
# Bulk Modulus (GPa) = 24.85213 40.64863 32.75038
# Shear Modulus (GPa) = 16.46475 21.17797 18.82136
#
# Velocity S-wave (km/s) = 3.17450 3.60031 3.39409
# Velocity P-wave (km/s) = 5.35235 6.49326 5.95021
#
# Compressibility (1/GPa) = 0.04023799
#
# Stress axis : x y z
#
# Youngs Moduli (GPa) = 75.43785 77.13792 20.15074
#
# Poissons Ratio (x) = 0.22808 0.25260
# Poissons Ratio (y) = 0.22306 0.04658
# Poissons Ratio (z) = 0.94564 0.17832
#
# Static dielectric constant tensor:
#      x y z
#    x 1.619990 0.000000 0.000000 
#    y 0.000000 1.600940 0.000000 
#    z 0.000000 0.000000 1.551160 
# 
# From -- ./inp_files/70140.got.cif
#   From: 2010.05.17/outbox.cif.g08.bks.cpg/sg71_36_cif.got.tgz:70140.got - 2010.06.03 16:22:01.
