data_PCOD9517252
_publ_section_title
;
Structure prediction by ZEFSAII (Michael W. Deem and Ramdas Pophale) SiO2 
 PCOD9517252
Probable space group: I M M M
;
_chemical_formula_sum "Si O2"
_cell_formula_units_Z 96
_cell_length_a 25.180123
_cell_length_b 12.025647
_cell_length_c 20.105798
_cell_angle_alpha 90.000000
_cell_angle_beta 90.000000
_cell_angle_gamma 90.000000
_cell_volume 6088.181816
_symmetry_space_group_name_H-M "I M M M"
_symmetry_group_IT_number 71
_symmetry_cell_setting 'orthorhombic'
loop_
_space_group_symop_operation_xyz
x,y,z
-x,-y,z
x,-y,-z
-x,y,-z
-x,-y,-z
x,y,-z
-x,y,z
x,-y,z
1/2+x,1/2+y,1/2+z
1/2-x,1/2-y,1/2+z
1/2+x,1/2-y,1/2-z
1/2-x,1/2+y,1/2-z
1/2-x,1/2-y,1/2-z
1/2+x,1/2+y,1/2-z
1/2-x,1/2+y,1/2+z
1/2+x,1/2-y,1/2+z
loop_
_atom_site_type_symbol
_atom_site_label
_atom_site_fract_x
_atom_site_fract_y
_atom_site_fract_z
Si Si1 0.734286 0.783193 0.919394
Si Si2 0.640427 0.368836 0.079272
Si Si3 0.061799 0.748919 0.319793
Si Si4 0.059879 0.500000 0.358848
Si Si5 0.846616 0.867351 0.921663
Si Si6 0.671747 0.000000 0.078650
Si Si7 0.938471 0.867681 0.817908
O O1 0.699462 0.675367 0.903023
O O2 0.794982 0.798928 0.898029
O O3 0.700137 0.889206 0.895157
O O4 0.736554 0.788371 0.000000
O O5 0.635024 0.500000 0.091172
O O6 0.598579 0.300048 0.122840
O O7 0.632506 0.348085 0.000000
O O8 0.065290 0.615141 0.318857
O O9 0.075909 0.801833 0.248885
O O10 0.000000 0.777681 0.333177
O O11 0.109211 0.500000 0.408694
O O12 0.000000 0.500000 0.388273
O O13 0.897923 0.843267 0.877329
O O14 0.834209 0.000000 0.915988
O O15 0.856199 0.846058 0.000000
O O16 0.680547 0.000000 0.000000
O O17 0.000000 0.842593 0.834858
O O18 0.935271 0.000000 0.804274
#
# Coordination Sequence:
#
# PCOD9517252 Si02
#       7
#    16  16  16   8  16   8  16
#     4   9  16  28  47  70  96 125 157 193 238 286
#     4  10  20  32  48  69  96 131 165 198 234 276
#     4  10  20  34  50  68  94 127 163 201 240 284
#     4  10  20  31  48  70  91 123 165 207 243 272
#     4   9  16  28  50  78 101 122 154 193 235 287
#     4  10  16  27  48  70  93 123 155 197 247 285
#     4   9  18  32  50  72  99 130 156 187 238 290
#
# _framework density 15.768254000000001
#
# number of rings (size 3 to 8) (size 9 to 14) (size 15 to 20)
#    0.000    2.500    2.500    0.500    0.000    1.833 
#    0.000    5.000    1.833    0.000    0.000    0.000 
#    0.000    3.333    0.000    0.000    0.000    0.000 
#
# Total GULP energy -267238.858139 kJ/mol
# GULP energy per Si atom -5567.476211 kJ/mol
# Density = 1.573236 g / cm^3
# Si number density = 15.768254 Si / 1000 Ang^3
#
#
#
# Elastic Constant Matrix: (Units=GPa)
#
#
# Indices 1 2 3 4 5 6 
#
# 1 97.6137 48.9669 52.0287 0.0000 0.0000 0.0000
# 2 48.9669 73.2195 42.1936 0.0000 0.0000 0.0000
# 3 52.0287 42.1936 55.4690 0.0000 0.0000 0.0000
# 4 0.0000 0.0000 0.0000 12.5053 0.0000 0.0000
# 5 0.0000 0.0000 0.0000 0.0000 -4.6213 0.0000
# 6 0.0000 0.0000 0.0000 0.0000 0.0000 18.8858
#
#
#
# Elastic Compliance Matrix: (Units=1/GPa)
#
#
# Indices 1 2 3 4 5 6 
#
# 1 0.021428 -0.004893 -0.016377 0.000000 0.000000 0.000000
# 2 -0.004893 0.025434 -0.014757 0.000000 0.000000 0.000000
# 3 -0.016377 -0.014757 0.044615 0.000000 0.000000 0.000000
# 4 0.000000 0.000000 0.000000 0.079966 0.000000 0.000000
# 5 0.000000 0.000000 0.000000 0.000000 -0.216389 0.000000
# 6 0.000000 0.000000 0.000000 0.000000 0.000000 0.052950
#
#
# Mechanical properties :
#
#
# Convention : Reuss Voigt Hill
#
# Bulk Modulus (GPa) = 51.48778 56.96452 54.22615
# Shear Modulus (GPa) = 57.78169 10.89483 34.33826
#
# Velocity S-wave (km/s) = 6.06002 2.63142 4.67163
# Velocity P-wave (km/s) = 9.03819 6.74069 7.97264
#
# Compressibility (1/GPa) = 0.01942208
#
# Stress axis : x y z
#
# Youngs Moduli (GPa) = 46.66776 39.31776 22.41402
#
# Poissons Ratio (x) = 0.19238 0.36708
# Poissons Ratio (y) = 0.22834 0.33077
# Poissons Ratio (z) = 0.76429 0.58022
#
# Static dielectric constant tensor:
#      x y z
#    x 1.538890 0.000000 0.000000 
#    y 0.000000 1.535420 0.000000 
#    z 0.000000 0.000000 1.499200 
# 
# From -- ./inp_files/48789.got.cif
#   From: 2010.05.17/outbox.cif.g08.bks.cpg/sg71_25_cif.got.tgz:48789.got - 2010.06.03 16:22:01.
