data_PCOD9517071
_publ_section_title
;
Structure prediction by ZEFSAII (Michael W. Deem and Ramdas Pophale) SiO2 
 PCOD9517071
Probable space group: F D D D
;
_chemical_formula_sum "Si O2"
_cell_formula_units_Z 160
_cell_length_a 16.873294
_cell_length_b 13.478238
_cell_length_c 28.795128
_cell_angle_alpha 90.000000
_cell_angle_beta 90.000000
_cell_angle_gamma 90.000000
_cell_volume 6548.653443
_symmetry_space_group_name_H-M "F D D D"
_symmetry_group_IT_number 70
_space_group.IT_coordinate_system_code '2'
_symmetry_cell_setting 'orthorhombic'
loop_
_space_group_symop_operation_xyz
x,y,z
1/4-x,1/4-y,z
x,1/4-y,1/4-z
1/4-x,y,1/4-z
-x,-y,-z
3/4+x,3/4+y,-z
-x,3/4+y,3/4+z
3/4+x,-y,3/4+z
x,1/2+y,1/2+z
1/4-x,3/4-y,1/2+z
x,3/4-y,3/4-z
1/4-x,1/2+y,3/4-z
-x,1/2-y,1/2-z
3/4+x,1/4+y,1/2-z
-x,1/4+y,1/4+z
3/4+x,1/2-y,1/4+z
1/2+x,y,1/2+z
3/4-x,1/4-y,1/2+z
1/2+x,1/4-y,3/4-z
3/4-x,y,3/4-z
1/2-x,-y,1/2-z
1/4+x,3/4+y,1/2-z
1/2-x,3/4+y,1/4+z
1/4+x,-y,1/4+z
1/2+x,1/2+y,z
3/4-x,3/4-y,z
1/2+x,3/4-y,1/4-z
3/4-x,1/2+y,1/4-z
1/2-x,1/2-y,-z
1/4+x,1/4+y,-z
1/2-x,1/4+y,3/4+z
1/4+x,1/2-y,3/4+z
loop_
_atom_site_type_symbol
_atom_site_label
_atom_site_fract_x
_atom_site_fract_y
_atom_site_fract_z
Si Si1 0.875000 0.875000 0.162314
Si Si2 0.309866 0.581519 0.790748
Si Si3 0.125000 0.788123 0.125000
Si Si4 0.494675 0.714167 0.696728
Si Si5 0.194388 0.268288 0.898722
Si Si6 0.942256 0.746446 0.029961
O O1 0.915434 0.776259 0.183603
O O2 0.800229 0.820659 0.137963
O O3 0.340102 0.643432 0.834414
O O4 0.262030 0.490092 0.812780
O O5 0.382063 0.543168 0.759557
O O6 0.245958 0.658602 0.768198
O O7 0.192034 0.731967 0.094437
O O8 0.500000 0.750000 0.750000
O O9 0.493877 0.596368 0.704005
O O10 0.190841 0.375000 0.875000
O O11 0.113948 0.238342 0.925501
#
# Coordination Sequence:
#
# PCOD9517071 Si02
#       6
#    16  32  16  32  32  32
#     4  12  24  48  76 111 158 203 278 332 416 500
#     4  12  28  49  77 117 168 210 277 345 417 511
#     4  12  26  51  77 116 164 210 277 350 409 498
#     4  12  27  45  78 115 160 216 277 345 419 498
#     4  12  24  47  80 112 155 210 266 336 415 500
#     4  12  27  48  78 118 158 219 271 344 424 496
#
# _framework density 24.432503000000001
#
# number of rings (size 3 to 8) (size 9 to 14) (size 15 to 20)
#    0.000    0.000    8.000    0.600    2.800    3.200 
#    0.000    2.500    0.000    0.000    0.000    0.000 
#    0.000    0.000    0.000    0.000    0.000    0.000 
#
# Total GULP energy -223334.258349 kJ/mol
# GULP energy per Si atom -5583.356459 kJ/mol
# Density = 2.437689 g / cm^3
# Si number density = 24.432503 Si / 1000 Ang^3
#
#
#
# Elastic Constant Matrix: (Units=GPa)
#
#
# Indices 1 2 3 4 5 6 
#
# 1 102.2611 39.9110 71.7161 0.0000 0.0000 0.0000
# 2 39.9110 146.9220 74.7367 0.0000 0.0000 0.0000
# 3 71.7161 74.7367 117.5484 0.0000 0.0000 0.0000
# 4 0.0000 0.0000 0.0000 31.9245 0.0000 0.0000
# 5 0.0000 0.0000 0.0000 0.0000 20.7218 0.0000
# 6 0.0000 0.0000 0.0000 0.0000 0.0000 -7.7476
#
#
#
# Elastic Compliance Matrix: (Units=1/GPa)
#
#
# Indices 1 2 3 4 5 6 
#
# 1 0.017187 0.000983 -0.011111 0.000000 0.000000 0.000000
# 2 0.000983 0.010116 -0.007032 0.000000 0.000000 0.000000
# 3 -0.011111 -0.007032 0.019757 0.000000 0.000000 0.000000
# 4 0.000000 0.000000 0.000000 0.031324 0.000000 0.000000
# 5 0.000000 0.000000 0.000000 0.000000 0.048258 0.000000
# 6 0.000000 0.000000 0.000000 0.000000 0.000000 -0.129072
#
#
# Mechanical properties :
#
#
# Convention : Reuss Voigt Hill
#
# Bulk Modulus (GPa) = 78.48625 82.16211 80.32418
# Shear Modulus (GPa) = 138.36424 21.00426 79.68425
#
# Velocity S-wave (km/s) = 7.53354 2.93522 5.71707
# Velocity P-wave (km/s) = 10.38584 6.72224 8.74798
#
# Compressibility (1/GPa) = 0.01274109
#
# Stress axis : x y z
#
# Youngs Moduli (GPa) = 58.18194 98.85224 50.61590
#
# Poissons Ratio (x) = -0.09718 0.56240
# Poissons Ratio (y) = -0.05720 0.35591
# Poissons Ratio (z) = 0.64647 0.69509
#
# Static dielectric constant tensor:
#      x y z
#    x 0.288780 0.000000 0.000000 
#    y 0.000000 1.851440 0.000000 
#    z 0.000000 0.000000 2.023670 
# 
# From -- ./inp_files/66531.got.cif
#   From: 2010.05.17/outbox.cif.g08.bks.cpg/sg70_34_cif.got.tgz:66531.got - 2010.06.03 15:57:51.
