data_PCOD9517268
_publ_section_title
;
Structure prediction by ZEFSAII (Michael W. Deem and Ramdas Pophale) SiO2 
 PCOD9517268
Probable space group: I M M M
;
_chemical_formula_sum "Si O2"
_cell_formula_units_Z 104
_cell_length_a 11.931324
_cell_length_b 27.591444
_cell_length_c 19.333638
_cell_angle_alpha 90.000000
_cell_angle_beta 90.000000
_cell_angle_gamma 90.000000
_cell_volume 6364.681152
_symmetry_space_group_name_H-M "I M M M"
_symmetry_group_IT_number 71
_symmetry_cell_setting 'orthorhombic'
loop_
_space_group_symop_operation_xyz
x,y,z
-x,-y,z
x,-y,-z
-x,y,-z
-x,-y,-z
x,y,-z
-x,y,z
x,-y,z
1/2+x,1/2+y,1/2+z
1/2-x,1/2-y,1/2+z
1/2+x,1/2-y,1/2-z
1/2-x,1/2+y,1/2-z
1/2-x,1/2-y,1/2-z
1/2+x,1/2+y,1/2-z
1/2-x,1/2+y,1/2+z
1/2+x,1/2-y,1/2+z
loop_
_atom_site_type_symbol
_atom_site_label
_atom_site_fract_x
_atom_site_fract_y
_atom_site_fract_z
Si Si1 0.631781 0.119016 0.082507
Si Si2 0.000000 0.945741 0.153964
Si Si3 0.000000 0.846560 0.082066
Si Si4 0.133233 0.309326 0.082115
Si Si5 0.364057 0.000000 0.578505
Si Si6 0.865733 0.406585 0.832104
Si Si7 0.249960 0.056874 0.803198
Si Si8 0.777655 0.207586 0.083870
O O1 0.500000 0.113308 0.095768
O O2 0.702244 0.080566 0.126641
O O3 0.673533 0.173272 0.102126
O O4 0.651641 0.112969 0.000000
O O5 0.884849 0.940643 0.196313
O O6 0.000000 0.902882 0.098982
O O7 0.000000 0.000000 0.123482
O O8 0.112074 0.821093 0.108917
O O9 0.000000 0.839714 0.000000
O O10 0.155747 0.356648 0.127601
O O11 0.207589 0.263339 0.104833
O O12 0.000000 0.296836 0.088618
O O13 0.151197 0.319054 0.000000
O O14 0.331766 0.951745 0.619443
O O15 0.500000 0.000000 0.575832
O O16 0.322605 0.000000 0.500000
O O17 0.802911 0.413628 0.760065
O O18 0.000000 0.409667 0.820392
O O19 0.282087 0.000000 0.798275
O O20 0.780669 0.209136 0.000000
#
# Coordination Sequence:
#
# PCOD9517268 Si02
#       8
#    16   8   8  16   8  16  16  16
#     4  10  21  35  53  76 104 139 174 210 251 302
#     4  10  22  35  52  74  96 132 177 219 264 295
#     4  10  16  29  54  78  98 125 166 216 263 305
#     4   9  16  28  50  81 109 132 166 211 258 307
#     4   9  16  28  48  77 108 134 165 205 253 306
#     4  10  19  31  50  77 107 138 168 205 259 313
#     4  11  22  37  54  73 101 137 175 214 258 310
#     4   9  16  29  51  76 102 133 168 208 259 306
#
# _framework density 16.340174999999999
#
# number of rings (size 3 to 8) (size 9 to 14) (size 15 to 20)
#    0.000    2.231    3.077    0.923    0.000    3.231 
#    0.000    3.077    1.692    0.000    0.000    2.154 
#    0.000    0.000    0.000    0.000    0.000    0.000 
#
# Total GULP energy -289696.960278 kJ/mol
# GULP energy per Si atom -5571.095390 kJ/mol
# Density = 1.630298 g / cm^3
# Si number density = 16.340175 Si / 1000 Ang^3
#
#
#
# Elastic Constant Matrix: (Units=GPa)
#
#
# Indices 1 2 3 4 5 6 
#
# 1 68.0006 41.3738 34.9253 0.0000 0.0000 0.0000
# 2 41.3738 107.6673 31.3561 0.0000 0.0000 0.0000
# 3 34.9253 31.3561 49.2563 0.0000 0.0000 0.0000
# 4 0.0000 0.0000 0.0000 -2.5328 0.0000 0.0000
# 5 0.0000 0.0000 0.0000 0.0000 10.9576 0.0000
# 6 0.0000 0.0000 0.0000 0.0000 0.0000 18.9962
#
#
#
# Elastic Compliance Matrix: (Units=1/GPa)
#
#
# Indices 1 2 3 4 5 6 
#
# 1 0.025602 -0.005587 -0.014596 0.000000 0.000000 0.000000
# 2 -0.005587 0.012621 -0.004073 0.000000 0.000000 0.000000
# 3 -0.014596 -0.004073 0.033244 0.000001 0.000000 0.000000
# 4 0.000000 0.000000 0.000001 -0.394815 0.000000 0.000000
# 5 0.000000 0.000000 0.000000 0.000000 0.091261 0.000000
# 6 0.000000 0.000000 0.000000 0.000000 0.000000 0.052642
#
#
# Mechanical properties :
#
#
# Convention : Reuss Voigt Hill
#
# Bulk Modulus (GPa) = 43.56444 48.91492 46.23968
# Shear Modulus (GPa) = -40.55808 13.30212 -13.62798
#
# Velocity S-wave (km/s) = -4.98748 2.85629 -2.89107
# Velocity P-wave (km/s) = 2.53925 6.39361 4.14912
#
# Compressibility (1/GPa) = 0.02295450
#
# Stress axis : x y z
#
# Youngs Moduli (GPa) = 39.05955 79.23291 30.08042
#
# Poissons Ratio (x) = 0.44269 0.43906
# Poissons Ratio (y) = 0.21824 0.12251
# Poissons Ratio (z) = 0.57013 0.32270
#
# Static dielectric constant tensor:
#      x y z
#    x 1.548020 0.000000 0.000000 
#    y 0.000000 1.557900 0.000000 
#    z 0.000000 0.000000 1.538850 
# 
# From -- ./inp_files/43814.got.cif
#   From: 2010.05.17/outbox.cif.g08.bks.cpg/sg71_22_cif.got.tgz:43814.got - 2010.06.03 16:22:01.
