data_PCOD9517435
_publ_section_title
;
Structure prediction by ZEFSAII (Michael W. Deem and Ramdas Pophale) SiO2 
 PCOD9517435
Probable space group: I M M M
;
_chemical_formula_sum "Si O2"
_cell_formula_units_Z 104
_cell_length_a 27.136867
_cell_length_b 24.280335
_cell_length_c 8.047647
_cell_angle_alpha 90.000000
_cell_angle_beta 90.000000
_cell_angle_gamma 90.000000
_cell_volume 5302.532011
_symmetry_space_group_name_H-M "I M M M"
_symmetry_group_IT_number 71
_symmetry_cell_setting 'orthorhombic'
loop_
_space_group_symop_operation_xyz
x,y,z
-x,-y,z
x,-y,-z
-x,y,-z
-x,-y,-z
x,y,-z
-x,y,z
x,-y,z
1/2+x,1/2+y,1/2+z
1/2-x,1/2-y,1/2+z
1/2+x,1/2-y,1/2-z
1/2-x,1/2+y,1/2-z
1/2-x,1/2-y,1/2-z
1/2+x,1/2+y,1/2-z
1/2-x,1/2+y,1/2+z
1/2+x,1/2-y,1/2+z
loop_
_atom_site_type_symbol
_atom_site_label
_atom_site_fract_x
_atom_site_fract_y
_atom_site_fract_z
Si Si1 0.653401 0.387056 0.802501
Si Si2 0.184593 0.500000 0.695863
Si Si3 0.796518 0.000000 0.297701
Si Si4 0.441977 0.000000 0.686253
Si Si5 0.555116 0.878052 0.805269
Si Si6 0.742827 0.312737 0.302494
Si Si7 0.556019 0.437229 0.699806
Si Si8 0.660510 0.121193 0.795179
O O1 0.676814 0.444576 0.740591
O O2 0.690456 0.338845 0.749135
O O3 0.596540 0.392359 0.749923
O O4 0.654185 0.387627 0.000000
O O5 0.173135 0.500000 0.500000
O O6 0.242516 0.500000 0.723684
O O7 0.165687 0.441991 0.764116
O O8 0.794299 0.000000 0.500000
O O9 0.435085 0.943594 0.786155
O O10 0.500000 0.000000 0.660708
O O11 0.419552 0.000000 0.500000
O O12 0.500000 0.866368 0.733495
O O13 0.607347 0.854386 0.740316
O O14 0.552344 0.864507 0.000000
O O15 0.744668 0.316051 0.500000
O O16 0.750000 0.250000 0.250000
O O17 0.790281 0.347271 0.238955
O O18 0.555622 0.439453 0.500000
O O19 0.500000 0.425309 0.755412
O O20 0.568418 0.500000 0.759685
O O21 0.660397 0.121244 0.000000
#
# Coordination Sequence:
#
# PCOD9517435 Si02
#       8
#    16   8   8   8  16  16  16  16
#     4  11  21  35  55  82 115 149 185 229 277 332
#     4  10  17  29  48  72 102 137 172 206 255 324
#     4  10  20  31  46  76 114 142 172 216 269 320
#     4   9  16  25  37  60  97 134 163 192 232 283
#     4   9  16  28  47  68  92 126 166 205 244 293
#     4  11  23  40  59  78 102 138 182 233 286 338
#     4   9  18  32  52  82 120 159 194 225 266 331
#     4   9  18  31  51  77 103 130 167 212 260 317
#
# _framework density 19.613273
#
# number of rings (size 3 to 8) (size 9 to 14) (size 15 to 20)
#    0.000    2.231    2.308    2.077    0.000    3.077 
#    0.000    3.846    0.000    0.923    0.000    2.154 
#    0.000    0.000    0.000    0.000    0.000    0.000 
#
# Total GULP energy -289620.421431 kJ/mol
# GULP energy per Si atom -5569.623489 kJ/mol
# Density = 1.956863 g / cm^3
# Si number density = 19.613273 Si / 1000 Ang^3
#
#
#
# Elastic Constant Matrix: (Units=GPa)
#
#
# Indices 1 2 3 4 5 6 
#
# 1 190.7814 62.4248 13.9029 0.0000 0.0000 0.0000
# 2 62.4248 83.7786 8.7738 0.0000 0.0000 0.0000
# 3 13.9029 8.7738 21.5314 0.0000 0.0000 0.0000
# 4 0.0000 0.0000 0.0000 16.7985 0.0000 0.0000
# 5 0.0000 0.0000 0.0000 0.0000 8.5077 0.0000
# 6 0.0000 0.0000 0.0000 0.0000 0.0000 8.7318
#
#
#
# Elastic Compliance Matrix: (Units=1/GPa)
#
#
# Indices 1 2 3 4 5 6 
#
# 1 0.007060 -0.004997 -0.002523 0.000000 0.000000 0.000000
# 2 -0.004997 0.016004 -0.003295 0.000000 0.000000 0.000000
# 3 -0.002523 -0.003295 0.049416 0.000000 0.000000 0.000000
# 4 0.000000 0.000000 0.000000 0.059529 0.000000 0.000000
# 5 0.000000 0.000000 0.000000 0.000000 0.117540 0.000000
# 6 0.000000 0.000000 0.000000 0.000000 0.000000 0.114524
#
#
# Mechanical properties :
#
#
# Convention : Reuss Voigt Hill
#
# Bulk Modulus (GPa) = 19.66534 51.81048 35.73791
# Shear Modulus (GPa) = 12.41763 20.87361 16.64562
#
# Velocity S-wave (km/s) = 2.51893 3.26584 2.91639
# Velocity P-wave (km/s) = 4.30213 6.37921 5.44071
#
# Compressibility (1/GPa) = 0.05085089
#
# Stress axis : x y z
#
# Youngs Moduli (GPa) = 141.63576 62.48299 20.23654
#
# Poissons Ratio (x) = 0.31220 0.05105
# Poissons Ratio (y) = 0.70770 0.06668
# Poissons Ratio (z) = 0.35733 0.20590
#
# Static dielectric constant tensor:
#      x y z
#    x 1.783250 0.000000 0.000000 
#    y 0.000000 1.632610 0.000000 
#    z 0.000000 0.000000 1.722360 
# 
# From -- ./inp_files/15365.got.cif
#   From: 2010.05.17/outbox.cif.g08.bks.cpg/sg71_8_cif.got.tgz:15365.got - 2010.06.03 16:22:01.
