data_PCOD9517149
_publ_section_title
;
Structure prediction by ZEFSAII (Michael W. Deem and Ramdas Pophale) SiO2 
 PCOD9517149
Probable space group: F D D D
;
_chemical_formula_sum "Si O2"
_cell_formula_units_Z 96
_cell_length_a 11.995899
_cell_length_b 13.573137
_cell_length_c 23.967248
_cell_angle_alpha 90.000000
_cell_angle_beta 90.000000
_cell_angle_gamma 90.000000
_cell_volume 3902.394788
_symmetry_space_group_name_H-M "F D D D"
_symmetry_group_IT_number 70
_space_group.IT_coordinate_system_code '2'
_symmetry_cell_setting 'orthorhombic'
loop_
_space_group_symop_operation_xyz
x,y,z
1/4-x,1/4-y,z
x,1/4-y,1/4-z
1/4-x,y,1/4-z
-x,-y,-z
3/4+x,3/4+y,-z
-x,3/4+y,3/4+z
3/4+x,-y,3/4+z
x,1/2+y,1/2+z
1/4-x,3/4-y,1/2+z
x,3/4-y,3/4-z
1/4-x,1/2+y,3/4-z
-x,1/2-y,1/2-z
3/4+x,1/4+y,1/2-z
-x,1/4+y,1/4+z
3/4+x,1/2-y,1/4+z
1/2+x,y,1/2+z
3/4-x,1/4-y,1/2+z
1/2+x,1/4-y,3/4-z
3/4-x,y,3/4-z
1/2-x,-y,1/2-z
1/4+x,3/4+y,1/2-z
1/2-x,3/4+y,1/4+z
1/4+x,-y,1/4+z
1/2+x,1/2+y,z
3/4-x,3/4-y,z
1/2+x,3/4-y,1/4-z
3/4-x,1/2+y,1/4-z
1/2-x,1/2-y,-z
1/4+x,1/4+y,-z
1/2-x,1/4+y,3/4+z
1/4+x,1/2-y,3/4+z
loop_
_atom_site_type_symbol
_atom_site_label
_atom_site_fract_x
_atom_site_fract_y
_atom_site_fract_z
Si Si1 0.247362 0.201129 0.575283
Si Si2 0.743625 0.807119 0.821136
Si Si3 0.888747 0.128897 0.473947
O O1 0.235165 0.125000 0.625000
O O2 0.372926 0.245423 0.581075
O O3 0.260958 0.136431 0.518952
O O4 0.156898 0.284961 0.565608
O O5 0.758529 0.875000 0.875000
O O6 0.718444 0.868298 0.763907
O O7 0.838925 0.728565 0.808670
#
# Coordination Sequence:
#
# PCOD9517149 Si02
#       3
#    32  32  32
#     4   8  16  27  47  78 107 140 176 229 285 329
#     4   9  17  30  50  80 108 146 181 232 288 333
#     4   9  16  29  49  75 111 141 183 230 276 336
#
# _framework density 24.600280000000001
#
# number of rings (size 3 to 8) (size 9 to 14) (size 15 to 20)
#    2.000    1.333    0.000    1.000    0.000    0.000 
#    0.000    5.000    0.000    2.000    0.000    0.000 
#    0.000    0.000    0.000    0.000    0.000    0.667 
#
# Total GULP energy -133849.620750 kJ/mol
# GULP energy per Si atom -5577.067531 kJ/mol
# Density = 2.454429 g / cm^3
# Si number density = 24.600280 Si / 1000 Ang^3
#
#
#
# Elastic Constant Matrix: (Units=GPa)
#
#
# Indices 1 2 3 4 5 6 
#
# 1 58.4764 31.8429 6.8923 0.0000 0.0000 0.0000
# 2 31.8429 142.2211 99.7274 0.0000 0.0000 0.0000
# 3 6.8923 99.7274 189.4424 0.0000 0.0000 0.0000
# 4 0.0000 0.0000 0.0000 34.3139 0.0000 0.0000
# 5 0.0000 0.0000 0.0000 0.0000 12.6325 0.0000
# 6 0.0000 0.0000 0.0000 0.0000 0.0000 20.4235
#
#
#
# Elastic Compliance Matrix: (Units=1/GPa)
#
#
# Indices 1 2 3 4 5 6 
#
# 1 0.020262 -0.006372 0.002617 0.000000 0.000000 0.000000
# 2 -0.006372 0.013149 -0.006690 0.000000 0.000000 0.000000
# 3 0.002617 -0.006690 0.008705 0.000000 0.000000 0.000000
# 4 0.000000 0.000000 0.000000 0.029143 0.000000 0.000000
# 5 0.000000 0.000000 0.000000 0.000000 0.079161 0.000000
# 6 0.000000 0.000000 0.000000 0.000000 0.000000 0.048963
#
#
# Mechanical properties :
#
#
# Convention : Reuss Voigt Hill
#
# Bulk Modulus (GPa) = 47.11019 74.11834 60.61427
# Shear Modulus (GPa) = 21.99258 30.25245 26.12252
#
# Velocity S-wave (km/s) = 2.99322 3.51060 3.26218
# Velocity P-wave (km/s) = 5.58011 6.82839 6.23557
#
# Compressibility (1/GPa) = 0.02122683
#
# Stress axis : x y z
#
# Youngs Moduli (GPa) = 49.35307 76.04983 114.87142
#
# Poissons Ratio (x) = 0.48457 -0.30063
# Poissons Ratio (y) = 0.31447 0.76852
# Poissons Ratio (z) = -0.12916 0.50880
#
# Static dielectric constant tensor:
#      x y z
#    x 1.990320 0.000000 0.000000 
#    y 0.000000 1.941180 0.000000 
#    z 0.000000 0.000000 1.995520 
# 
# From -- ./inp_files/20122.got.cif
#   From: 2010.05.17/outbox.cif.g08.bks.cpg/sg70_11_cif.got.tgz:20122.got - 2010.06.03 15:57:51.
