data_PCOD9517589
_publ_section_title
;
Structure prediction by ZEFSAII (Michael W. Deem and Ramdas Pophale) SiO2 
 PCOD9517589
Probable space group: I M M M
;
_chemical_formula_sum "Si O2"
_cell_formula_units_Z 112
_cell_length_a 31.180852
_cell_length_b 7.356810
_cell_length_c 24.366112
_cell_angle_alpha 90.000000
_cell_angle_beta 90.000000
_cell_angle_gamma 90.000000
_cell_volume 5589.381510
_symmetry_space_group_name_H-M "I M M M"
_symmetry_group_IT_number 71
_symmetry_cell_setting 'orthorhombic'
loop_
_space_group_symop_operation_xyz
x,y,z
-x,-y,z
x,-y,-z
-x,y,-z
-x,-y,-z
x,y,-z
-x,y,z
x,-y,z
1/2+x,1/2+y,1/2+z
1/2-x,1/2-y,1/2+z
1/2+x,1/2-y,1/2-z
1/2-x,1/2+y,1/2-z
1/2-x,1/2-y,1/2-z
1/2+x,1/2+y,1/2-z
1/2-x,1/2+y,1/2+z
1/2+x,1/2-y,1/2+z
loop_
_atom_site_type_symbol
_atom_site_label
_atom_site_fract_x
_atom_site_fract_y
_atom_site_fract_z
Si Si1 0.126050 0.277278 0.936386
Si Si2 0.219228 0.291667 0.933564
Si Si3 0.047412 0.281788 0.862381
Si Si4 0.950244 0.280992 0.560589
Si Si5 0.048088 0.784009 0.732919
Si Si6 0.685259 0.276808 0.063639
Si Si7 0.384192 0.702456 0.150262
O O1 0.127369 0.500000 0.935582
O O2 0.173201 0.214108 0.916523
O O3 0.086885 0.215776 0.898786
O O4 0.119857 0.225178 0.000000
O O5 0.220447 0.500000 0.913718
O O6 0.266306 0.215324 0.922288
O O7 0.216876 0.295847 0.000000
O O8 0.046945 0.500000 0.867946
O O9 0.052625 0.241328 0.797990
O O10 0.000000 0.215310 0.879093
O O11 0.934868 0.229576 0.500000
O O12 0.947017 0.500000 0.565327
O O13 0.922596 0.191811 0.606691
O O14 0.000000 0.233780 0.565036
O O15 0.090028 0.710489 0.701227
O O16 0.000000 0.714212 0.717153
O O17 0.047506 0.000000 0.721699
O O18 0.684377 0.500000 0.062996
O O19 0.653231 0.215771 0.111917
O O20 0.675231 0.222711 0.000000
O O21 0.369356 0.500000 0.166968
#
# Coordination Sequence:
#
# PCOD9517589 Si02
#       7
#    16  16  16  16  16  16  16
#     4   8  13  22  39  64  90 111 130 156 194 240
#     4   7  10  18  33  55  84 112 131 151 190 244
#     4   9  17  28  43  64  86 107 134 167 201 237
#     4   9  18  30  40  53  78 109 135 162 206 263
#     4   9  18  31  43  55  76 108 142 172 204 244
#     4   8  13  21  35  58  85 106 127 164 211 250
#     4  10  18  27  42  62  79  99 136 183 218 238
#
# _framework density 20.037996
#
# number of rings (size 3 to 8) (size 9 to 14) (size 15 to 20)
#    0.000    3.429    0.000    3.000    0.000    2.571 
#    0.000    3.571    0.000    1.286    0.000    3.000 
#    0.000    3.429    0.000    0.000    0.000    0.000 
#
# Total GULP energy -311830.996688 kJ/mol
# GULP energy per Si atom -5568.410655 kJ/mol
# Density = 1.999239 g / cm^3
# Si number density = 20.037996 Si / 1000 Ang^3
#
#
#
# Elastic Constant Matrix: (Units=GPa)
#
#
# Indices 1 2 3 4 5 6 
#
# 1 178.6757 9.2546 81.3490 0.0000 0.0000 0.0000
# 2 9.2546 71.7190 0.7910 0.0000 0.0000 0.0000
# 3 81.3490 0.7910 68.7184 0.0000 0.0000 0.0000
# 4 0.0000 0.0000 0.0000 8.5479 0.0000 0.0000
# 5 0.0000 0.0000 0.0000 0.0000 43.7979 0.0000
# 6 0.0000 0.0000 0.0000 0.0000 0.0000 -38.4618
#
#
#
# Elastic Compliance Matrix: (Units=1/GPa)
#
#
# Indices 1 2 3 4 5 6 
#
# 1 0.012284 -0.001425 -0.014525 0.000000 0.000000 0.000000
# 2 -0.001425 0.014110 0.001524 0.000000 0.000000 0.000000
# 3 -0.014525 0.001524 0.031729 0.000000 0.000000 0.000000
# 4 0.000000 0.000000 0.000000 0.116988 0.000000 0.000000
# 5 0.000000 0.000000 0.000000 0.000000 0.022832 0.000000
# 6 0.000000 0.000000 0.000000 0.000000 0.000000 -0.026000
#
#
# Mechanical properties :
#
#
# Convention : Reuss Voigt Hill
#
# Bulk Modulus (GPa) = 34.16201 55.76692 44.96447
# Shear Modulus (GPa) = 23.74716 17.95802 20.85259
#
# Velocity S-wave (km/s) = 3.44627 2.99691 3.22941
# Velocity P-wave (km/s) = 5.73771 6.31397 6.03273
#
# Compressibility (1/GPa) = 0.02927228
#
# Stress axis : x y z
#
# Youngs Moduli (GPa) = 81.40976 70.86988 31.51676
#
# Poissons Ratio (x) = 0.10098 0.45778
# Poissons Ratio (y) = 0.11600 -0.04804
# Poissons Ratio (z) = 1.18247 -0.10803
#
# Static dielectric constant tensor:
#      x y z
#    x 1.754380 0.000000 0.000000 
#    y 0.000000 1.786470 0.000000 
#    z 0.000000 0.000000 1.677910 
# 
# From -- ./inp_files/62139.got.cif
#   From: 2010.05.17/outbox.cif.g08.bks.cpg/sg71_32_cif.got.tgz:62139.got - 2010.06.03 16:22:01.
