data_PCOD9517927
_publ_section_title
;
Structure prediction by ZEFSAII (Michael W. Deem and Ramdas Pophale) SiO2 
 PCOD9517927
Probable space group: I M M M
;
_chemical_formula_sum "Si O2"
_cell_formula_units_Z 72
_cell_length_a 14.142768
_cell_length_b 26.083076
_cell_length_c 10.238981
_cell_angle_alpha 90.000000
_cell_angle_beta 90.000000
_cell_angle_gamma 90.000000
_cell_volume 3777.025884
_symmetry_space_group_name_H-M "I M M M"
_symmetry_group_IT_number 71
_symmetry_cell_setting 'orthorhombic'
loop_
_space_group_symop_operation_xyz
x,y,z
-x,-y,z
x,-y,-z
-x,y,-z
-x,-y,-z
x,y,-z
-x,y,z
x,-y,z
1/2+x,1/2+y,1/2+z
1/2-x,1/2-y,1/2+z
1/2+x,1/2-y,1/2-z
1/2-x,1/2+y,1/2-z
1/2-x,1/2-y,1/2-z
1/2+x,1/2+y,1/2-z
1/2-x,1/2+y,1/2+z
1/2+x,1/2-y,1/2+z
loop_
_atom_site_type_symbol
_atom_site_label
_atom_site_fract_x
_atom_site_fract_y
_atom_site_fract_z
Si Si1 0.391020 0.220256 0.500000
Si Si2 0.754243 0.313810 0.500000
Si Si3 0.891478 0.657963 0.731316
Si Si4 0.394969 0.594973 0.500000
Si Si5 0.602728 0.559360 0.209294
Si Si6 0.311063 0.939503 0.649538
O O1 0.500000 0.239971 0.500000
O O2 0.313294 0.264639 0.500000
O O3 0.379870 0.185886 0.370702
O O4 0.820601 0.318090 0.373379
O O5 0.685493 0.362852 0.500000
O O6 0.867955 0.598180 0.756849
O O7 0.000000 0.663759 0.689170
O O8 0.500000 0.619101 0.500000
O O9 0.389068 0.563155 0.633624
O O10 0.500000 0.582593 0.173103
O O11 0.599397 0.500000 0.169743
O O12 0.701427 0.579280 0.154005
O O13 0.345211 0.935688 0.500000
O O14 0.313507 0.000000 0.686133
#
# Coordination Sequence:
#
# PCOD9517927 Si02
#       6
#     8   8  16   8  16  16
#     4  10  23  43  67  88 113 150 199 248 297 357
#     4  12  22  39  62  89 117 153 188 242 303 352
#     4  11  23  41  62  88 120 156 197 244 296 347
#     4  10  18  29  51  80 109 141 185 231 281 347
#     4   9  17  30  49  76 112 151 188 232 288 345
#     4  10  20  35  58  86 116 158 205 241 285 350
#
# _framework density 19.062616999999999
#
# number of rings (size 3 to 8) (size 9 to 14) (size 15 to 20)
#    0.000    1.778    3.333    1.667    0.000    2.222 
#    0.000    3.889    0.000    2.667    0.000    0.000 
#    0.000    0.000    0.000    0.000    0.000    0.000 
#
# Total GULP energy -200790.382398 kJ/mol
# GULP energy per Si atom -5577.510622 kJ/mol
# Density = 1.901923 g / cm^3
# Si number density = 19.062617 Si / 1000 Ang^3
#
#
#
# Elastic Constant Matrix: (Units=GPa)
#
#
# Indices 1 2 3 4 5 6 
#
# 1 118.1206 47.0052 39.7056 0.0000 0.0000 0.0000
# 2 47.0052 73.0006 21.5571 -0.0001 0.0000 0.0000
# 3 39.7056 21.5571 87.0422 -0.0010 0.0000 0.0002
# 4 0.0000 -0.0001 -0.0010 15.8489 -0.0001 0.0001
# 5 0.0000 0.0000 0.0000 -0.0001 20.4456 0.0000
# 6 0.0000 0.0000 0.0002 0.0001 0.0000 29.8225
#
#
#
# Elastic Compliance Matrix: (Units=1/GPa)
#
#
# Indices 1 2 3 4 5 6 
#
# 1 0.012565 -0.006903 -0.004022 0.000000 0.000000 0.000000
# 2 -0.006903 0.018572 -0.001451 0.000000 0.000000 0.000000
# 3 -0.004022 -0.001451 0.013683 0.000001 0.000000 0.000000
# 4 0.000000 0.000000 0.000001 0.063096 0.000000 0.000000
# 5 0.000000 0.000000 0.000000 0.000000 0.048910 0.000000
# 6 0.000000 0.000000 0.000000 0.000000 0.000000 0.033532
#
#
# Mechanical properties :
#
#
# Convention : Reuss Voigt Hill
#
# Bulk Modulus (GPa) = 49.83047 54.96658 52.39852
# Shear Modulus (GPa) = 22.54310 24.54978 23.54644
#
# Velocity S-wave (km/s) = 3.44260 3.59255 3.51838
# Velocity P-wave (km/s) = 6.48067 6.79014 6.63721
#
# Compressibility (1/GPa) = 0.02006804
#
# Stress axis : x y z
#
# Youngs Moduli (GPa) = 79.58722 53.84557 73.08508
#
# Poissons Ratio (x) = 0.37168 0.29395
# Poissons Ratio (y) = 0.54937 0.10602
# Poissons Ratio (z) = 0.32011 0.07811
#
# Static dielectric constant tensor:
#      x y z
#    x 1.698260 0.000000 0.000000 
#    y 0.000000 1.637970 0.000000 
#    z 0.000000 0.000000 1.660050 
# 
# From -- ./inp_files/19904.got.cif
#   From: 2010.05.17/outbox.cif.g08.bks.cpg/sg71_10_cif.got.tgz:19904.got - 2010.06.03 16:22:01.
