data_PCOD9517100
_publ_section_title
;
Structure prediction by ZEFSAII (Michael W. Deem and Ramdas Pophale) SiO2 
 PCOD9517100
Probable space group: F D D D
;
_chemical_formula_sum "Si O2"
_cell_formula_units_Z 160
_cell_length_a 10.024584
_cell_length_b 24.585214
_cell_length_c 27.902101
_cell_angle_alpha 90.000000
_cell_angle_beta 90.000000
_cell_angle_gamma 90.000000
_cell_volume 6876.655352
_symmetry_space_group_name_H-M "F D D D"
_symmetry_group_IT_number 70
_space_group.IT_coordinate_system_code '2'
_symmetry_cell_setting 'orthorhombic'
loop_
_space_group_symop_operation_xyz
x,y,z
1/4-x,1/4-y,z
x,1/4-y,1/4-z
1/4-x,y,1/4-z
-x,-y,-z
3/4+x,3/4+y,-z
-x,3/4+y,3/4+z
3/4+x,-y,3/4+z
x,1/2+y,1/2+z
1/4-x,3/4-y,1/2+z
x,3/4-y,3/4-z
1/4-x,1/2+y,3/4-z
-x,1/2-y,1/2-z
3/4+x,1/4+y,1/2-z
-x,1/4+y,1/4+z
3/4+x,1/2-y,1/4+z
1/2+x,y,1/2+z
3/4-x,1/4-y,1/2+z
1/2+x,1/4-y,3/4-z
3/4-x,y,3/4-z
1/2-x,-y,1/2-z
1/4+x,3/4+y,1/2-z
1/2-x,3/4+y,1/4+z
1/4+x,-y,1/4+z
1/2+x,1/2+y,z
3/4-x,3/4-y,z
1/2+x,3/4-y,1/4-z
3/4-x,1/2+y,1/4-z
1/2-x,1/2-y,-z
1/4+x,1/4+y,-z
1/2-x,1/4+y,3/4+z
1/4+x,1/2-y,3/4+z
loop_
_atom_site_type_symbol
_atom_site_label
_atom_site_fract_x
_atom_site_fract_y
_atom_site_fract_z
Si Si1 0.125000 0.792815 0.625000
Si Si2 0.061384 0.801976 0.890393
Si Si3 0.739712 0.582705 0.562687
Si Si4 0.125000 0.625000 0.712092
Si Si5 0.047253 0.259349 0.696485
Si Si6 0.869303 0.132252 0.282615
O O1 0.246565 0.751929 0.618975
O O2 0.133700 0.827984 0.672582
O O3 0.128164 0.834062 0.845476
O O4 0.184865 0.775887 0.919165
O O5 0.949419 0.831118 0.925438
O O6 0.625000 0.625000 0.577515
O O7 0.682762 0.522231 0.565332
O O8 0.767148 0.598027 0.507922
O O9 0.244478 0.614632 0.750911
O O10 0.078080 0.323509 0.695489
O O11 0.000000 0.250000 0.750000
#
# Coordination Sequence:
#
# PCOD9517100 Si02
#       6
#    16  32  32  16  32  32
#     4  12  32  49  78 116 161 214 258 340 398 482
#     4  12  29  50  82 119 163 206 271 326 410 471
#     4  12  27  50  82 117 156 210 269 330 396 480
#     4  12  28  53  82 118 160 212 262 337 392 492
#     4  12  25  50  78 111 154 213 261 330 389 484
#     4  12  30  51  78 113 163 208 273 322 410 472
#
# _framework density 23.267126000000001
#
# number of rings (size 3 to 8) (size 9 to 14) (size 15 to 20)
#    0.000    0.000    4.000    3.000    5.600   11.600 
#    0.000    0.000    0.000    0.000    0.000    0.000 
#    0.000    0.000    0.000    0.000    0.000    0.000 
#
# Total GULP energy -223251.556023 kJ/mol
# GULP energy per Si atom -5581.288901 kJ/mol
# Density = 2.321417 g / cm^3
# Si number density = 23.267126 Si / 1000 Ang^3
#
#
#
# Elastic Constant Matrix: (Units=GPa)
#
#
# Indices 1 2 3 4 5 6 
#
# 1 105.3381 55.4974 48.9630 0.0000 0.0000 0.0000
# 2 55.4974 161.3220 69.9461 0.0000 0.0000 0.0000
# 3 48.9630 69.9461 171.1657 0.0000 0.0000 0.0000
# 4 0.0000 0.0000 0.0000 35.3349 0.0000 0.0000
# 5 0.0000 0.0000 0.0000 0.0000 2324.3698 0.0000
# 6 0.0000 0.0000 0.0000 0.0000 0.0000 150.2580
#
#
#
# Elastic Compliance Matrix: (Units=1/GPa)
#
#
# Indices 1 2 3 4 5 6 
#
# 1 0.012218 -0.003267 -0.002160 0.000000 0.000000 0.000000
# 2 -0.003267 0.008407 -0.002501 0.000000 0.000000 0.000000
# 3 -0.002160 -0.002501 0.007482 0.000000 0.000000 0.000000
# 4 0.000000 0.000000 0.000000 0.028301 0.000000 0.000000
# 5 0.000000 0.000000 0.000000 0.000000 0.000430 0.000000
# 6 0.000000 0.000000 0.000000 0.000000 0.000000 0.006655
#
#
# Mechanical properties :
#
#
# Convention : Reuss Voigt Hill
#
# Bulk Modulus (GPa) = 81.62085 87.40431 84.51258
# Shear Modulus (GPa) = 59.92794 519.55383 289.74089
#
# Velocity S-wave (km/s) = 5.08059 14.95942 11.17132
# Velocity P-wave (km/s) = 8.34102 18.33102 14.24076
#
# Compressibility (1/GPa) = 0.01225177
#
# Stress axis : x y z
#
# Youngs Moduli (GPa) = 81.84363 118.94890 133.64933
#
# Poissons Ratio (x) = 0.38857 0.28871
# Poissons Ratio (y) = 0.26736 0.33426
# Poissons Ratio (z) = 0.17680 0.29749
#
# Static dielectric constant tensor:
#      x y z
#    x 2.020250 0.000000 0.000000 
#    y 0.000000 1.833400 0.000000 
#    z 0.000000 0.000000 1.850320 
# 
# From -- ./inp_files/57559.got.cif
#   From: 2010.05.17/outbox.cif.g08.bks.cpg/sg70_29_cif.got.tgz:57559.got - 2010.06.03 15:57:51.
