data_PCOD9517311
_publ_section_title
;
Structure prediction by ZEFSAII (Michael W. Deem and Ramdas Pophale) SiO2 
 PCOD9517311
Probable space group: I M M M
;
_chemical_formula_sum "Si O2"
_cell_formula_units_Z 88
_cell_length_a 8.124736
_cell_length_b 23.875157
_cell_length_c 37.662129
_cell_angle_alpha 90.000000
_cell_angle_beta 90.000000
_cell_angle_gamma 90.000000
_cell_volume 7305.675212
_symmetry_space_group_name_H-M "I M M M"
_symmetry_group_IT_number 71
_symmetry_cell_setting 'orthorhombic'
loop_
_space_group_symop_operation_xyz
x,y,z
-x,-y,z
x,-y,-z
-x,y,-z
-x,-y,-z
x,y,-z
-x,y,z
x,-y,z
1/2+x,1/2+y,1/2+z
1/2-x,1/2-y,1/2+z
1/2+x,1/2-y,1/2-z
1/2-x,1/2+y,1/2-z
1/2-x,1/2-y,1/2-z
1/2+x,1/2+y,1/2-z
1/2-x,1/2+y,1/2+z
1/2+x,1/2-y,1/2+z
loop_
_atom_site_type_symbol
_atom_site_label
_atom_site_fract_x
_atom_site_fract_y
_atom_site_fract_z
Si Si1 0.194318 0.881407 0.340091
Si Si2 0.500000 0.431916 0.040746
Si Si3 0.804491 0.724350 0.195380
Si Si4 0.301415 0.563796 0.765173
Si Si5 0.314744 0.067377 0.412512
Si Si6 0.304218 0.170861 0.770122
O O1 0.223486 0.815224 0.333962
O O2 0.252173 0.912354 0.303809
O O3 0.286055 0.904647 0.374315
O O4 0.000000 0.892695 0.344236
O O5 0.500000 0.500000 0.040267
O O6 0.665843 0.415026 0.061591
O O7 0.500000 0.412754 0.000000
O O8 0.765340 0.790091 0.198663
O O9 0.742294 0.698178 0.232907
O O10 0.000000 0.716779 0.193359
O O11 0.500000 0.564557 0.765458
O O12 0.245509 0.500000 0.760679
O O13 0.243626 0.606316 0.734591
O O14 0.500000 0.079910 0.425535
O O15 0.302819 0.000000 0.408271
O O16 0.500000 0.175804 0.771055
#
# Coordination Sequence:
#
# PCOD9517311 Si02
#       6
#    16   8  16  16  16  16
#     4  10  17  26  39  54  73  93 114 143 183 225
#     4   9  18  32  46  58  74  96 120 146 177 215
#     4   9  16  25  36  49  65  86 112 141 174 215
#     4   9  17  26  36  49  66  90 116 144 181 222
#     4  10  19  29  42  59  77  96 118 146 181 220
#     4   9  16  25  35  47  63  84 112 143 175 212
#
# _framework density 12.04543
#
# number of rings (size 3 to 8) (size 9 to 14) (size 15 to 20)
#    0.000    2.636    0.909    2.182    0.000    6.545 
#    0.000    1.818    0.000    0.000    0.000    0.000 
#    0.000    0.000    0.000    0.000    0.000    0.000 
#
# Total GULP energy -244936.318101 kJ/mol
# GULP energy per Si atom -5566.734502 kJ/mol
# Density = 1.201801 g / cm^3
# Si number density = 12.045430 Si / 1000 Ang^3
#
#
#
# Elastic Constant Matrix: (Units=GPa)
#
#
# Indices 1 2 3 4 5 6 
#
# 1 52.8314 15.4043 20.9504 0.0000 0.0000 0.0000
# 2 15.4043 60.0353 22.3152 0.0000 0.0000 0.0000
# 3 20.9504 22.3152 29.4674 0.0000 0.0000 0.0000
# 4 0.0000 0.0000 0.0000 9.3715 0.0000 0.0000
# 5 0.0000 0.0000 0.0000 0.0000 9.0995 0.0000
# 6 0.0000 0.0000 0.0000 0.0000 0.0000 17.0285
#
#
#
# Elastic Compliance Matrix: (Units=1/GPa)
#
#
# Indices 1 2 3 4 5 6 
#
# 1 0.026363 0.000282 -0.018957 0.000000 0.000000 0.000000
# 2 0.000282 0.023185 -0.017758 0.000000 0.000000 0.000000
# 3 -0.018957 -0.017758 0.060862 0.000000 0.000000 0.000000
# 4 0.000000 0.000000 0.000000 0.106707 0.000000 0.000000
# 5 0.000000 0.000000 0.000000 0.000000 0.109897 0.000000
# 6 0.000000 0.000000 0.000000 0.000000 0.000000 0.058725
#
#
# Mechanical properties :
#
#
# Convention : Reuss Voigt Hill
#
# Bulk Modulus (GPa) = 26.63572 28.85266 27.74419
# Shear Modulus (GPa) = 10.61300 12.67751 11.64525
#
# Velocity S-wave (km/s) = 2.97152 3.24771 3.11268
# Velocity P-wave (km/s) = 5.82529 6.16998 6.00011
#
# Compressibility (1/GPa) = 0.03754357
#
# Stress axis : x y z
#
# Youngs Moduli (GPa) = 37.93135 43.13069 16.43067
#
# Poissons Ratio (x) = -0.01216 0.31148
# Poissons Ratio (y) = -0.01069 0.29178
# Poissons Ratio (z) = 0.71907 0.76593
#
# Static dielectric constant tensor:
#      x y z
#    x 1.419470 0.000000 0.000000 
#    y 0.000000 1.411300 0.000000 
#    z 0.000000 0.000000 1.367250 
# 
# From -- ./inp_files/13509.got.cif
#   From: 2010.05.17/outbox.cif.g08.bks.cpg/sg71_7_cif.got.tgz:13509.got - 2010.06.03 16:22:01.
