data_PCOD9517804
_publ_section_title
;
Structure prediction by ZEFSAII (Michael W. Deem and Ramdas Pophale) SiO2 
 PCOD9517804
Probable space group: I M M M
;
_chemical_formula_sum "Si O2"
_cell_formula_units_Z 112
_cell_length_a 14.024324
_cell_length_b 14.774498
_cell_length_c 32.604710
_cell_angle_alpha 90.000000
_cell_angle_beta 90.000000
_cell_angle_gamma 90.000000
_cell_volume 6755.772432
_symmetry_space_group_name_H-M "I M M M"
_symmetry_group_IT_number 71
_symmetry_cell_setting 'orthorhombic'
loop_
_space_group_symop_operation_xyz
x,y,z
-x,-y,z
x,-y,-z
-x,y,-z
-x,-y,-z
x,y,-z
-x,y,z
x,-y,z
1/2+x,1/2+y,1/2+z
1/2-x,1/2-y,1/2+z
1/2+x,1/2-y,1/2-z
1/2-x,1/2+y,1/2-z
1/2-x,1/2-y,1/2-z
1/2+x,1/2+y,1/2-z
1/2-x,1/2+y,1/2+z
1/2+x,1/2-y,1/2+z
loop_
_atom_site_type_symbol
_atom_site_label
_atom_site_fract_x
_atom_site_fract_y
_atom_site_fract_z
Si Si1 0.614719 0.721541 0.954731
Si Si2 0.116309 0.104854 0.784872
Si Si3 0.794482 0.605115 0.579679
Si Si4 0.116161 0.104485 0.376192
Si Si5 0.616356 0.712835 0.205416
Si Si6 0.392043 0.609809 0.376396
Si Si7 0.614930 0.099788 0.829851
O O1 0.500000 0.727446 0.952266
O O2 0.656806 0.821609 0.948933
O O3 0.646688 0.659100 0.916747
O O4 0.639345 0.685757 0.000000
O O5 0.148913 0.166866 0.747446
O O6 0.141916 0.136846 0.830732
O O7 0.000000 0.104958 0.784908
O O8 0.144479 0.000000 0.778845
O O9 0.799211 0.500000 0.566197
O O10 0.685423 0.632165 0.589482
O O11 0.846476 0.610247 0.624020
O O12 0.146096 0.155605 0.334666
O O13 0.000000 0.104723 0.376193
O O14 0.146716 0.000000 0.376603
O O15 0.500000 0.710546 0.206033
O O16 0.644797 0.816610 0.198225
O O17 0.500000 0.641519 0.383749
O O18 0.394538 0.500000 0.374591
O O19 0.500000 0.101967 0.832267
O O20 0.644221 0.000000 0.815106
#
# Coordination Sequence:
#
# PCOD9517804 Si02
#       7
#    16  16  16  16  16  16  16
#     4  10  20  32  45  64  90 117 146 178 209 249
#     4   8  13  22  38  61  86 110 140 179 219 255
#     4  10  18  29  46  63  84 115 147 179 216 256
#     4   9  16  26  41  61  86 117 148 174 207 251
#     4   9  14  22  38  60  85 113 146 181 212 244
#     4   8  15  28  45  65  87 111 142 180 221 264
#     4   9  16  25  38  56  81 117 155 181 204 243
#
# _framework density 16.578416000000001
#
# number of rings (size 3 to 8) (size 9 to 14) (size 15 to 20)
#    0.000    3.000    1.429    1.714    0.000    3.143 
#    0.000    2.857    0.000    0.429    0.000    2.000 
#    0.000    0.571    0.000    1.286    0.000    0.143 
#
# Total GULP energy -311992.991615 kJ/mol
# GULP energy per Si atom -5571.303422 kJ/mol
# Density = 1.654068 g / cm^3
# Si number density = 16.578416 Si / 1000 Ang^3
#
#
#
# Elastic Constant Matrix: (Units=GPa)
#
#
# Indices 1 2 3 4 5 6 
#
# 1 30.6418 5.4610 7.3374 0.0000 0.0000 0.0000
# 2 5.4610 71.0496 14.2004 0.0000 0.0000 0.0000
# 3 7.3374 14.2004 38.8763 0.0000 0.0000 0.0000
# 4 0.0000 0.0000 0.0000 -6.0803 0.0000 0.0000
# 5 0.0000 0.0000 0.0000 0.0000 14.4801 0.0000
# 6 0.0000 0.0000 0.0000 0.0000 0.0000 4.1163
#
#
#
# Elastic Compliance Matrix: (Units=1/GPa)
#
#
# Indices 1 2 3 4 5 6 
#
# 1 0.034318 -0.001449 -0.005948 0.000000 0.000000 0.000000
# 2 -0.001449 0.015244 -0.005295 0.000000 0.000000 0.000000
# 3 -0.005948 -0.005295 0.028779 0.000000 0.000000 0.000000
# 4 0.000000 0.000000 0.000000 -0.164466 0.000000 0.000000
# 5 0.000000 0.000000 0.000000 0.000000 0.069060 0.000000
# 6 0.000000 0.000000 0.000000 0.000000 0.000000 0.242939
#
#
# Mechanical properties :
#
#
# Convention : Reuss Voigt Hill
#
# Bulk Modulus (GPa) = 18.88286 21.61837 20.25062
# Shear Modulus (GPa) = 18.59356 10.07447 14.33401
#
# Velocity S-wave (km/s) = 3.35259 2.46780 2.94363
# Velocity P-wave (km/s) = 5.13821 4.60309 4.87800
#
# Compressibility (1/GPa) = 0.05295807
#
# Stress axis : x y z
#
# Youngs Moduli (GPa) = 29.13951 65.59830 34.74734
#
# Poissons Ratio (x) = 0.09505 0.20667
# Poissons Ratio (y) = 0.04222 0.18398
# Poissons Ratio (z) = 0.17331 0.34733
#
# Static dielectric constant tensor:
#      x y z
#    x 1.580350 0.000000 0.000000 
#    y 0.000000 1.562120 0.000000 
#    z 0.000000 0.000000 1.559730 
# 
# From -- ./inp_files/35328.got.cif
#   From: 2010.05.17/outbox.cif.g08.bks.cpg/sg71_18_cif.got.tgz:35328.got - 2010.06.03 16:22:01.
