data_PCOD9517226
_publ_section_title
;
Structure prediction by ZEFSAII (Michael W. Deem and Ramdas Pophale) SiO2 
 PCOD9517226
Probable space group: I M M M
;
_chemical_formula_sum "Si O2"
_cell_formula_units_Z 96
_cell_length_a 7.443964
_cell_length_b 25.615581
_cell_length_c 22.782815
_cell_angle_alpha 90.000000
_cell_angle_beta 90.000000
_cell_angle_gamma 90.000000
_cell_volume 4344.260491
_symmetry_space_group_name_H-M "I M M M"
_symmetry_group_IT_number 71
_symmetry_cell_setting 'orthorhombic'
loop_
_space_group_symop_operation_xyz
x,y,z
-x,-y,z
x,-y,-z
-x,y,-z
-x,-y,-z
x,y,-z
-x,y,z
x,-y,z
1/2+x,1/2+y,1/2+z
1/2-x,1/2-y,1/2+z
1/2+x,1/2-y,1/2-z
1/2-x,1/2+y,1/2-z
1/2-x,1/2-y,1/2-z
1/2+x,1/2+y,1/2-z
1/2-x,1/2+y,1/2+z
1/2+x,1/2-y,1/2+z
loop_
_atom_site_type_symbol
_atom_site_label
_atom_site_fract_x
_atom_site_fract_y
_atom_site_fract_z
Si Si1 0.796696 0.684336 0.500000
Si Si2 0.784884 0.266778 0.619423
Si Si3 0.216332 0.558226 0.630822
Si Si4 0.248055 0.561012 0.500000
Si Si5 0.780933 0.346496 0.285291
Si Si6 0.780767 0.559244 0.932883
Si Si7 0.714562 0.150031 0.347948
O O1 0.714323 0.705486 0.439577
O O2 0.813132 0.621868 0.500000
O O3 0.000000 0.705606 0.500000
O O4 0.718910 0.296249 0.677837
O O5 0.746987 0.205762 0.622117
O O6 0.000000 0.274198 0.619946
O O7 0.241975 0.500000 0.655118
O O8 0.311440 0.561314 0.567749
O O9 0.267858 0.602902 0.676093
O O10 0.000000 0.564282 0.617777
O O11 0.176963 0.500000 0.500000
O O12 0.715526 0.348567 0.218691
O O13 0.000000 0.345774 0.282993
O O14 0.726561 0.500000 0.918201
O O15 0.716375 0.602564 0.887440
O O16 0.000000 0.559929 0.932531
O O17 0.726219 0.570507 0.000000
O O18 0.500000 0.143042 0.343957
#
# Coordination Sequence:
#
# PCOD9517226 Si02
#       7
#     8  16  16   8  16  16  16
#     4  10  18  29  45  67  95 129 161 191 232 281
#     4  10  20  33  48  67  97 131 158 188 231 279
#     4   9  15  22  36  61  93 125 156 193 236 279
#     4  10  16  23  40  65  94 129 164 196 235 281
#     4   9  17  29  43  63  94 128 157 189 233 280
#     4   8  15  29  48  69  93 119 147 186 238 285
#     4  10  20  32  50  73  94 121 159 196 229 276
#
# _framework density 22.098122
#
# number of rings (size 3 to 8) (size 9 to 14) (size 15 to 20)
#    0.000    2.667    1.667    1.750    1.167    2.500 
#    0.000    3.333    0.000    0.500    0.000    1.167 
#    0.000    4.667    0.000    0.000    0.000    0.000 
#
# Total GULP energy -267461.922306 kJ/mol
# GULP energy per Si atom -5572.123381 kJ/mol
# Density = 2.204783 g / cm^3
# Si number density = 22.098122 Si / 1000 Ang^3
#
#
#
# Elastic Constant Matrix: (Units=GPa)
#
#
# Indices 1 2 3 4 5 6 
#
# 1 69.1199 2.9947 11.5567 0.0000 0.0000 0.0000
# 2 2.9947 183.4746 119.8826 0.0000 0.0000 0.0000
# 3 11.5567 119.8826 172.0974 -0.0001 0.0000 0.0000
# 4 0.0000 0.0000 -0.0001 19.5255 0.0000 0.0000
# 5 0.0000 0.0000 0.0000 0.0000 0.1269 0.0000
# 6 0.0000 0.0000 0.0000 0.0000 0.0000 34.3557
#
#
#
# Elastic Compliance Matrix: (Units=1/GPa)
#
#
# Indices 1 2 3 4 5 6 
#
# 1 0.014687 0.000743 -0.001504 0.000000 0.000000 0.000000
# 2 0.000743 0.010041 -0.007044 0.000000 0.000000 0.000000
# 3 -0.001504 -0.007044 0.010819 0.000000 0.000000 0.000000
# 4 0.000000 0.000000 0.000000 0.051215 0.000001 0.000000
# 5 0.000000 0.000000 0.000000 0.000001 7.877299 0.000001
# 6 0.000000 0.000000 0.000000 0.000000 0.000001 0.029107
#
#
# Mechanical properties :
#
#
# Convention : Reuss Voigt Hill
#
# Bulk Modulus (GPa) = 50.16050 77.06220 63.61135
# Shear Modulus (GPa) = 0.62380 30.15217 15.38798
#
# Velocity S-wave (km/s) = 0.53188 3.69788 2.64170
# Velocity P-wave (km/s) = 4.80889 7.29252 6.17682
#
# Compressibility (1/GPa) = 0.01993600
#
# Stress axis : x y z
#
# Youngs Moduli (GPa) = 68.08815 99.59070 92.43167
#
# Poissons Ratio (x) = -0.07397 0.13899
# Poissons Ratio (y) = -0.05057 0.65113
# Poissons Ratio (z) = 0.10238 0.70156
#
# Static dielectric constant tensor:
#      x y z
#    x 1.588000 0.000000 0.000000 
#    y 0.000000 1.750600 0.000000 
#    z 0.000000 0.000000 1.782510 
# 
# From -- ./inp_files/25998.got.cif
#   From: 2010.05.17/outbox.cif.g08.bks.cpg/sg71_13_cif.got.tgz:25998.got - 2010.06.03 16:22:01.
