data_PCOD9517810
_publ_section_title
;
Structure prediction by ZEFSAII (Michael W. Deem and Ramdas Pophale) SiO2 
 PCOD9517810
Probable space group: I M M M
;
_chemical_formula_sum "Si O2"
_cell_formula_units_Z 96
_cell_length_a 24.626181
_cell_length_b 7.352454
_cell_length_c 26.137967
_cell_angle_alpha 90.000000
_cell_angle_beta 90.000000
_cell_angle_gamma 90.000000
_cell_volume 4732.615138
_symmetry_space_group_name_H-M "I M M M"
_symmetry_group_IT_number 71
_symmetry_cell_setting 'orthorhombic'
loop_
_space_group_symop_operation_xyz
x,y,z
-x,-y,z
x,-y,-z
-x,y,-z
-x,-y,-z
x,y,-z
-x,y,z
x,-y,z
1/2+x,1/2+y,1/2+z
1/2-x,1/2-y,1/2+z
1/2+x,1/2-y,1/2-z
1/2-x,1/2+y,1/2-z
1/2-x,1/2-y,1/2-z
1/2+x,1/2+y,1/2-z
1/2-x,1/2+y,1/2+z
1/2+x,1/2-y,1/2+z
loop_
_atom_site_type_symbol
_atom_site_label
_atom_site_fract_x
_atom_site_fract_y
_atom_site_fract_z
Si Si1 0.061975 0.278503 0.193463
Si Si2 0.438969 0.218188 0.809674
Si Si3 0.437716 0.778322 0.500000
Si Si4 0.867799 0.277960 0.901672
Si Si5 0.365391 0.285382 0.905722
Si Si6 0.751200 0.278112 0.940188
Si Si7 0.937878 0.222734 0.500000
O O1 0.062806 0.500000 0.193408
O O2 0.072782 0.219501 0.251769
O O3 0.104787 0.217793 0.151152
O O4 0.000000 0.226006 0.180140
O O5 0.500000 0.282211 0.824297
O O6 0.393766 0.263664 0.851151
O O7 0.441466 0.000000 0.807803
O O8 0.500000 0.718546 0.500000
O O9 0.405346 0.722559 0.449382
O O10 0.438117 0.000000 0.500000
O O11 0.867619 0.500000 0.901184
O O12 0.806344 0.218828 0.912514
O O13 0.361153 0.500000 0.915324
O O14 0.304336 0.215419 0.913371
O O15 0.405506 0.215317 0.949828
O O16 0.752212 0.500000 0.939750
O O17 0.751198 0.225048 0.000000
O O18 0.000000 0.282426 0.500000
O O19 0.938761 0.000000 0.500000
#
# Coordination Sequence:
#
# PCOD9517810 Si02
#       7
#    16  16   8  16  16  16   8
#     4   8  14  25  40  57  81 117 153 179 212 263
#     4   9  18  32  47  63  87 118 149 182 221 263
#     4   9  14  17  27  53  86 114 142 181 222 258
#     4   9  14  21  35  56  83 114 148 181 216 260
#     4  10  18  29  46  66  88 114 148 184 218 263
#     4   9  15  25  39  58  85 116 145 177 220 264
#     4   9  16  25  40  62  83 103 132 174 220 261
#
# _framework density 20.284769000000001
#
# number of rings (size 3 to 8) (size 9 to 14) (size 15 to 20)
#    0.000    3.000    1.667    2.000    0.000    3.000 
#    0.000    1.250    0.000    1.500    0.000    0.000 
#    0.000    0.000    0.000    0.167    0.000    9.333 
#
# Total GULP energy -267923.801390 kJ/mol
# GULP energy per Si atom -5581.745862 kJ/mol
# Density = 2.023860 g / cm^3
# Si number density = 20.284769 Si / 1000 Ang^3
#
#
#
# Elastic Constant Matrix: (Units=GPa)
#
#
# Indices 1 2 3 4 5 6 
#
# 1 241.2597 6.5736 138.4065 0.0000 0.0000 0.0000
# 2 6.5736 72.5262 -2.1336 0.0000 0.0000 0.0000
# 3 138.4065 -2.1336 156.6094 0.0000 0.0000 0.0000
# 4 0.0000 0.0000 0.0000 5.9369 0.0000 0.0000
# 5 0.0000 0.0000 0.0000 0.0000 26.2575 0.0000
# 6 0.0000 0.0000 0.0000 0.0000 0.0000 -4.0241
#
#
#
# Elastic Compliance Matrix: (Units=1/GPa)
#
#
# Indices 1 2 3 4 5 6 
#
# 1 0.008478 -0.000989 -0.007506 0.000000 0.000000 0.000000
# 2 -0.000989 0.013909 0.001064 0.000000 0.000000 0.000000
# 3 -0.007506 0.001064 0.013033 0.000000 0.000000 0.000000
# 4 0.000000 0.000000 0.000000 0.168439 0.000000 0.000000
# 5 0.000000 0.000000 0.000000 0.000000 0.038084 0.000000
# 6 0.000000 0.000000 0.000000 0.000000 0.000000 -0.248506
#
#
# Mechanical properties :
#
#
# Convention : Reuss Voigt Hill
#
# Bulk Modulus (GPa) = 48.64428 84.00981 66.32704
# Shear Modulus (GPa) = 329.95488 27.47065 178.71277
#
# Velocity S-wave (km/s) = 12.76771 3.68401 9.39645
# Velocity P-wave (km/s) = 15.53658 7.72017 12.26757
#
# Compressibility (1/GPa) = 0.02055740
#
# Stress axis : x y z
#
# Youngs Moduli (GPa) = 117.95331 71.89546 76.72610
#
# Poissons Ratio (x) = 0.07112 0.57591
# Poissons Ratio (y) = 0.11668 -0.08162
# Poissons Ratio (z) = 0.88536 -0.07648
#
# Static dielectric constant tensor:
#      x y z
#    x 1.698150 0.000000 0.000000 
#    y 0.000000 1.815080 0.000000 
#    z 0.000000 0.000000 1.682030 
# 
# From -- ./inp_files/61642.got.cif
#   From: 2010.05.17/outbox.cif.g08.bks.cpg/sg71_31_cif.got.tgz:61642.got - 2010.06.03 16:22:01.
