data_PCOD9517829
_publ_section_title
;
Structure prediction by ZEFSAII (Michael W. Deem and Ramdas Pophale) SiO2 
 PCOD9517829
Probable space group: I M M M
;
_chemical_formula_sum "Si O2"
_cell_formula_units_Z 128
_cell_length_a 20.158839
_cell_length_b 24.189045
_cell_length_c 17.125294
_cell_angle_alpha 90.000000
_cell_angle_beta 90.000000
_cell_angle_gamma 90.000000
_cell_volume 8350.688327
_symmetry_space_group_name_H-M "I M M M"
_symmetry_group_IT_number 71
_symmetry_cell_setting 'orthorhombic'
loop_
_space_group_symop_operation_xyz
x,y,z
-x,-y,z
x,-y,-z
-x,y,-z
-x,-y,-z
x,y,-z
-x,y,z
x,-y,z
1/2+x,1/2+y,1/2+z
1/2-x,1/2-y,1/2+z
1/2+x,1/2-y,1/2-z
1/2-x,1/2+y,1/2-z
1/2-x,1/2-y,1/2-z
1/2+x,1/2+y,1/2-z
1/2-x,1/2+y,1/2+z
1/2+x,1/2-y,1/2+z
loop_
_atom_site_type_symbol
_atom_site_label
_atom_site_fract_x
_atom_site_fract_y
_atom_site_fract_z
Si Si1 0.923161 0.236560 0.851472
Si Si2 0.224329 0.296323 0.312530
Si Si3 0.333647 0.157306 0.666690
Si Si4 0.077075 0.565634 0.092799
Si Si5 0.164236 0.855810 0.912562
Si Si6 0.805345 0.193092 0.407455
Si Si7 0.575474 0.660584 0.800281
Si Si8 0.923586 0.935552 0.176148
O O1 0.879166 0.290880 0.858222
O O2 0.893935 0.189937 0.907863
O O3 0.916717 0.209132 0.764906
O O4 0.000000 0.247724 0.865933
O O5 0.250000 0.250000 0.250000
O O6 0.178112 0.334935 0.259509
O O7 0.282050 0.332942 0.350867
O O8 0.195445 0.257425 0.380216
O O9 0.371744 0.102497 0.641024
O O10 0.262308 0.165034 0.624991
O O11 0.086103 0.500000 0.105318
O O12 0.000000 0.579074 0.111612
O O13 0.086150 0.576177 0.000000
O O14 0.129776 0.912106 0.884573
O O15 0.191001 0.859178 0.000000
O O16 0.807700 0.188491 0.500000
O O17 0.868527 0.166665 0.364749
O O18 0.500000 0.663482 0.830234
O O19 0.583111 0.603767 0.751751
O O20 0.000000 0.927595 0.148241
O O21 0.914389 0.000000 0.192847
#
# Coordination Sequence:
#
# PCOD9517829 Si02
#       8
#    16  16  16  16  16  16  16  16
#     4  10  18  29  46  70  97 127 160 199 241 288
#     4  10  18  32  48  66  96 131 164 196 240 292
#     4  11  18  31  51  72  97 131 169 199 235 292
#     4   9  19  35  52  73 104 136 162 196 245 293
#     4  11  20  31  46  70 100 128 158 201 251 295
#     4  11  20  31  49  74 102 132 161 198 252 306
#     4   9  18  34  52  71  95 125 166 210 246 289
#     4   9  18  33  52  70  91 128 170 201 237 289
#
# _framework density 15.328078
#
# number of rings (size 3 to 8) (size 9 to 14) (size 15 to 20)
#    0.000    2.000    3.750    4.875    0.000    2.000 
#    0.000    3.125    0.000    1.125    0.000    1.750 
#    0.000    0.000    0.000    5.500    0.000    0.000 
#
# Total GULP energy -356666.910888 kJ/mol
# GULP energy per Si atom -5572.920483 kJ/mol
# Density = 1.529319 g / cm^3
# Si number density = 15.328078 Si / 1000 Ang^3
#
#
#
# Elastic Constant Matrix: (Units=GPa)
#
#
# Indices 1 2 3 4 5 6 
#
# 1 92.1662 47.3511 35.8942 0.0000 0.0000 0.0000
# 2 47.3511 71.1232 27.8033 0.0000 0.0000 0.0000
# 3 35.8942 27.8033 60.0115 0.0000 0.0000 0.0000
# 4 0.0000 0.0000 0.0000 13.8200 0.0000 0.0000
# 5 0.0000 0.0000 0.0000 0.0000 16.5116 0.0000
# 6 0.0000 0.0000 0.0000 0.0000 0.0000 26.6936
#
#
#
# Elastic Compliance Matrix: (Units=1/GPa)
#
#
# Indices 1 2 3 4 5 6 
#
# 1 0.018351 -0.009680 -0.006492 0.000000 0.000000 0.000000
# 2 -0.009680 0.022276 -0.004531 0.000000 0.000000 0.000000
# 3 -0.006492 -0.004531 0.022645 0.000000 0.000000 0.000000
# 4 0.000000 0.000000 0.000000 0.072359 0.000000 0.000000
# 5 0.000000 0.000000 0.000000 0.000000 0.060564 0.000000
# 6 0.000000 0.000000 0.000000 0.000000 0.000000 0.037462
#
#
# Mechanical properties :
#
#
# Convention : Reuss Voigt Hill
#
# Bulk Modulus (GPa) = 45.72874 49.48868 47.60871
# Shear Modulus (GPa) = 17.70852 18.88852 18.29852
#
# Velocity S-wave (km/s) = 3.40266 3.51420 3.45888
# Velocity P-wave (km/s) = 6.73316 6.98731 6.86141
#
# Compressibility (1/GPa) = 0.02186809
#
# Stress axis : x y z
#
# Youngs Moduli (GPa) = 54.49221 44.89201 44.15942
#
# Poissons Ratio (x) = 0.43455 0.28666
# Poissons Ratio (y) = 0.52748 0.20007
# Poissons Ratio (z) = 0.35374 0.20339
#
# Static dielectric constant tensor:
#      x y z
#    x 1.526230 0.000000 0.000000 
#    y 0.000000 1.504190 0.000000 
#    z 0.000000 0.000000 1.518070 
# 
# From -- ./inp_files/47799.got.cif
#   From: 2010.05.17/outbox.cif.g08.bks.cpg/sg71_24_cif.got.tgz:47799.got - 2010.06.03 16:22:01.
