data_PCOD9517399
_publ_section_title
;
Structure prediction by ZEFSAII (Michael W. Deem and Ramdas Pophale) SiO2 
 PCOD9517399
Probable space group: I M M M
;
_chemical_formula_sum "Si O2"
_cell_formula_units_Z 120
_cell_length_a 26.353635
_cell_length_b 7.438667
_cell_length_c 27.789278
_cell_angle_alpha 90.000000
_cell_angle_beta 90.000000
_cell_angle_gamma 90.000000
_cell_volume 5447.696540
_symmetry_space_group_name_H-M "I M M M"
_symmetry_group_IT_number 71
_symmetry_cell_setting 'orthorhombic'
loop_
_space_group_symop_operation_xyz
x,y,z
-x,-y,z
x,-y,-z
-x,y,-z
-x,-y,-z
x,y,-z
-x,y,z
x,-y,z
1/2+x,1/2+y,1/2+z
1/2-x,1/2-y,1/2+z
1/2+x,1/2-y,1/2-z
1/2-x,1/2+y,1/2-z
1/2-x,1/2-y,1/2-z
1/2+x,1/2+y,1/2-z
1/2-x,1/2+y,1/2+z
1/2+x,1/2-y,1/2+z
loop_
_atom_site_type_symbol
_atom_site_label
_atom_site_fract_x
_atom_site_fract_y
_atom_site_fract_z
Si Si1 0.794450 0.786901 0.713572
Si Si2 0.442086 0.785871 0.000000
Si Si3 0.147636 0.287064 0.881134
Si Si4 0.127086 0.787623 0.407653
Si Si5 0.889226 0.783328 0.227695
Si Si6 0.237083 0.219261 0.608384
Si Si7 0.555495 0.780745 0.555821
Si Si8 0.443569 0.719542 0.180277
O O1 0.750000 0.750000 0.750000
O O2 0.843832 0.714999 0.738692
O O3 0.778630 0.722346 0.661892
O O4 0.802208 0.000000 0.708262
O O5 0.410377 0.734693 0.047444
O O6 0.500000 0.714658 0.000000
O O7 0.445287 0.000000 0.000000
O O8 0.150816 0.500000 0.889781
O O9 0.126867 0.269471 0.826316
O O10 0.204140 0.217606 0.894883
O O11 0.103088 0.212758 0.914532
O O12 0.185075 0.723570 0.419052
O O13 0.098733 0.719103 0.358921
O O14 0.133235 0.000000 0.398948
O O15 0.935274 0.729593 0.263293
O O16 0.890464 0.000000 0.225439
O O17 0.240164 0.000000 0.604449
O O18 0.559176 0.730651 0.500000
O O19 0.500000 0.724208 0.574425
O O20 0.555978 0.000000 0.557619
O O21 0.500000 0.774188 0.164578
O O22 0.441579 0.500000 0.179355
#
# Coordination Sequence:
#
# PCOD9517399 Si02
#       8
#    16   8  16  16  16  16  16  16
#     4  10  17  28  46  68  98 136 171 201 239 292
#     4  11  25  43  59  79 109 139 170 215 270 320
#     4  10  19  31  50  77 106 136 170 210 261 312
#     4  10  19  36  60  82 101 131 177 223 262 307
#     4  10  19  30  46  71 104 137 168 204 249 299
#     4   9  17  30  49  76 106 130 164 217 261 297
#     4   8  15  30  51  73  97 128 171 218 258 301
#     4   9  17  30  50  74  99 131 174 219 257 297
#
# _framework density 22.027659
#
# number of rings (size 3 to 8) (size 9 to 14) (size 15 to 20)
#    0.000    2.467    2.667    1.000    0.000    1.600 
#    1.200    2.000    0.000    1.200    0.000    0.933 
#    0.000    0.000    0.000    0.000    0.000    0.000 
#
# Total GULP energy -334077.644095 kJ/mol
# GULP energy per Si atom -5567.960735 kJ/mol
# Density = 2.197752 g / cm^3
# Si number density = 22.027659 Si / 1000 Ang^3
#
#
#
# Elastic Constant Matrix: (Units=GPa)
#
#
# Indices 1 2 3 4 5 6 
#
# 1 220.4860 8.9303 93.8046 0.0000 0.0000 0.0000
# 2 8.9303 66.1400 -5.3846 0.0000 0.0000 0.0000
# 3 93.8046 -5.3846 81.2434 0.0000 0.0000 0.0000
# 4 0.0000 0.0000 0.0000 13.5840 0.0000 0.0000
# 5 0.0000 0.0000 0.0000 0.0000 45.3033 0.0000
# 6 0.0000 0.0000 0.0000 0.0000 0.0000 -0.1997
#
#
#
# Elastic Compliance Matrix: (Units=1/GPa)
#
#
# Indices 1 2 3 4 5 6 
#
# 1 0.009200 -0.002119 -0.010763 0.000000 0.000000 0.000000
# 2 -0.002119 0.015689 0.003486 0.000000 0.000000 0.000000
# 3 -0.010763 0.003486 0.024967 0.000000 0.000000 0.000000
# 4 0.000000 0.000000 0.000000 0.073616 0.000000 0.000000
# 5 0.000000 0.000000 0.000000 0.000000 0.022073 0.000000
# 6 0.000000 0.000000 0.000000 0.000000 0.000000 -5.006926
#
#
# Mechanical properties :
#
#
# Convention : Reuss Voigt Hill
#
# Bulk Modulus (GPa) = 32.19050 62.50777 47.34914
# Shear Modulus (GPa) = -1.03472 29.77213 14.36871
#
# Velocity S-wave (km/s) = -0.68612 3.68037 2.55679
# Velocity P-wave (km/s) = 3.74403 6.81900 5.50075
#
# Compressibility (1/GPa) = 0.03106506
#
# Stress axis : x y z
#
# Youngs Moduli (GPa) = 108.69022 63.73772 40.05248
#
# Poissons Ratio (x) = 0.13503 0.43110
# Poissons Ratio (y) = 0.23026 -0.13962
# Poissons Ratio (z) = 1.16987 -0.22219
#
# Static dielectric constant tensor:
#      x y z
#    x 1.863600 0.000000 0.000000 
#    y 0.000000 1.879920 0.000000 
#    z 0.000000 0.000000 1.779320 
# 
# From -- ./inp_files/67149.got.cif
#   From: 2010.05.17/outbox.cif.g08.bks.cpg/sg71_34_cif.got.tgz:67149.got - 2010.06.03 16:22:01.
