data_PCOD9517150
_publ_section_title
;
Structure prediction by ZEFSAII (Michael W. Deem and Ramdas Pophale) SiO2 
 PCOD9517150
Probable space group: F D D D
;
_chemical_formula_sum "Si O2"
_cell_formula_units_Z 80
_cell_length_a 7.116201
_cell_length_b 37.748885
_cell_length_c 15.304286
_cell_angle_alpha 90.000000
_cell_angle_beta 90.000000
_cell_angle_gamma 90.000000
_cell_volume 4111.169736
_symmetry_space_group_name_H-M "F D D D"
_symmetry_group_IT_number 70
_space_group.IT_coordinate_system_code '2'
_symmetry_cell_setting 'orthorhombic'
loop_
_space_group_symop_operation_xyz
x,y,z
1/4-x,1/4-y,z
x,1/4-y,1/4-z
1/4-x,y,1/4-z
-x,-y,-z
3/4+x,3/4+y,-z
-x,3/4+y,3/4+z
3/4+x,-y,3/4+z
x,1/2+y,1/2+z
1/4-x,3/4-y,1/2+z
x,3/4-y,3/4-z
1/4-x,1/2+y,3/4-z
-x,1/2-y,1/2-z
3/4+x,1/4+y,1/2-z
-x,1/4+y,1/4+z
3/4+x,1/2-y,1/4+z
1/2+x,y,1/2+z
3/4-x,1/4-y,1/2+z
1/2+x,1/4-y,3/4-z
3/4-x,y,3/4-z
1/2-x,-y,1/2-z
1/4+x,3/4+y,1/2-z
1/2-x,3/4+y,1/4+z
1/4+x,-y,1/4+z
1/2+x,1/2+y,z
3/4-x,3/4-y,z
1/2+x,3/4-y,1/4-z
3/4-x,1/2+y,1/4-z
1/2-x,1/2-y,-z
1/4+x,1/4+y,-z
1/2-x,1/4+y,3/4+z
1/4+x,1/2-y,3/4+z
loop_
_atom_site_type_symbol
_atom_site_label
_atom_site_fract_x
_atom_site_fract_y
_atom_site_fract_z
Si Si1 0.613242 0.046458 0.246875
Si Si2 0.842029 0.582858 0.134908
Si Si3 0.875000 0.518583 0.875000
O O1 0.432846 0.070144 0.226266
O O2 0.781271 0.063797 0.188846
O O3 0.698224 0.041138 0.342264
O O4 0.573746 0.007826 0.204531
O O5 0.861079 0.625000 0.125000
O O6 0.625000 0.573120 0.125000
#
# Coordination Sequence:
#
# PCOD9517150 Si02
#       3
#    32  32  16
#     4   9  16  31  48  71  97 133 157 215 247 305
#     4   9  17  30  51  69  93 131 176 203 251 302
#     4   8  16  30  49  70 102 126 166 196 268 296
#
# _framework density 19.459181999999998
#
# number of rings (size 3 to 8) (size 9 to 14) (size 15 to 20)
#    0.000    3.600    0.000    2.400    0.000    0.000 
#    0.000   34.000   17.600    0.000    0.000    0.000 
#    0.000    0.000    0.000    0.000    0.000    0.000 
#
# Total GULP energy -111359.781460 kJ/mol
# GULP energy per Si atom -5567.989073 kJ/mol
# Density = 1.941489 g / cm^3
# Si number density = 19.459182 Si / 1000 Ang^3
#
#
#
# Elastic Constant Matrix: (Units=GPa)
#
#
# Indices 1 2 3 4 5 6 
#
# 1 157.6771 57.5660 45.6718 0.0000 0.0000 0.0000
# 2 57.5660 68.4979 23.5859 0.0000 0.0000 0.0000
# 3 45.6718 23.5859 58.3513 0.0000 0.0000 0.0000
# 4 0.0000 0.0000 0.0000 0.2356 0.0000 0.0000
# 5 0.0000 0.0000 0.0000 0.0000 29.0065 0.0000
# 6 0.0000 0.0000 0.0000 0.0000 0.0000 -276.2092
#
#
#
# Elastic Compliance Matrix: (Units=1/GPa)
#
#
# Indices 1 2 3 4 5 6 
#
# 1 0.010417 -0.006909 -0.005361 0.000000 0.000000 0.000000
# 2 -0.006909 0.021541 -0.003300 0.000000 0.000000 0.000000
# 3 -0.005361 -0.003300 0.022667 0.000000 0.000000 0.000000
# 4 0.000000 0.000000 0.000000 4.244577 0.000000 0.000000
# 5 0.000000 0.000000 0.000000 0.000000 0.034475 0.000000
# 6 0.000000 0.000000 0.000000 0.000000 0.000000 -0.003620
#
#
# Mechanical properties :
#
#
# Convention : Reuss Voigt Hill
#
# Bulk Modulus (GPa) = 42.57654 59.79708 51.18681
# Shear Modulus (GPa) = 1.14442 -38.87991 -18.86774
#
# Velocity S-wave (km/s) = 0.76772 -4.47478 -3.11723
# Velocity P-wave (km/s) = 4.76584 2.02437 3.66137
#
# Compressibility (1/GPa) = 0.02348711
#
# Stress axis : x y z
#
# Youngs Moduli (GPa) = 95.99505 46.42255 44.11620
#
# Poissons Ratio (x) = 0.32072 0.23651
# Poissons Ratio (y) = 0.66320 0.14557
# Poissons Ratio (z) = 0.51463 0.15318
#
# Static dielectric constant tensor:
#      x y z
#    x 1.709140 0.000000 0.000000 
#    y 0.000000 1.695880 0.000000 
#    z 0.000000 0.000000 1.743560 
# 
# From -- ./inp_files/32251.got.cif
#   From: 2010.05.17/outbox.cif.g08.bks.cpg/sg70_17_cif.got.tgz:32251.got - 2010.06.03 15:57:51.
