data_PCOD9517839
_publ_section_title
;
Structure prediction by ZEFSAII (Michael W. Deem and Ramdas Pophale) SiO2 
 PCOD9517839
Probable space group: I M M M
;
_chemical_formula_sum "Si O2"
_cell_formula_units_Z 64
_cell_length_a 7.341494
_cell_length_b 24.309380
_cell_length_c 17.483952
_cell_angle_alpha 90.000000
_cell_angle_beta 90.000000
_cell_angle_gamma 90.000000
_cell_volume 3120.311389
_symmetry_space_group_name_H-M "I M M M"
_symmetry_group_IT_number 71
_symmetry_cell_setting 'orthorhombic'
loop_
_space_group_symop_operation_xyz
x,y,z
-x,-y,z
x,-y,-z
-x,y,-z
-x,-y,-z
x,y,-z
-x,y,z
x,-y,z
1/2+x,1/2+y,1/2+z
1/2-x,1/2-y,1/2+z
1/2+x,1/2-y,1/2-z
1/2-x,1/2+y,1/2-z
1/2-x,1/2-y,1/2-z
1/2+x,1/2+y,1/2-z
1/2-x,1/2+y,1/2+z
1/2+x,1/2-y,1/2+z
loop_
_atom_site_type_symbol
_atom_site_label
_atom_site_fract_x
_atom_site_fract_y
_atom_site_fract_z
Si Si1 0.222960 0.936357 0.000000
Si Si2 0.000000 0.065332 0.409841
Si Si3 0.778802 0.754342 0.587613
Si Si4 0.711112 0.368283 0.644647
Si Si5 0.208773 0.854292 0.311241
O O1 0.287959 0.905275 0.923687
O O2 0.000000 0.932980 0.000000
O O3 0.272892 0.000000 0.000000
O O4 0.828529 0.094678 0.368192
O O5 0.000000 0.078298 0.500000
O O6 0.000000 0.000000 0.399587
O O7 0.719558 0.762007 0.500000
O O8 0.721897 0.694790 0.617529
O O9 0.711760 0.803079 0.642686
O O10 0.000000 0.756094 0.587058
O O11 0.500000 0.385844 0.651313
O O12 0.791279 0.370725 0.730072
O O13 0.000000 0.835819 0.291709
#
# Coordination Sequence:
#
# PCOD9517839 Si02
#       5
#     8   8  16  16  16
#     4   9  18  30  45  65  93 125 155 196 238 274
#     4   9  16  28  46  69  99 125 153 194 238 285
#     4  10  18  29  47  66  94 129 157 192 239 289
#     4  10  18  31  46  68  93 123 162 199 233 280
#     4   8  17  28  43  66  92 120 155 188 236 280
#
# _framework density 20.510774000000001
#
# number of rings (size 3 to 8) (size 9 to 14) (size 15 to 20)
#    0.750    2.000    1.250    1.500    0.000    1.000 
#    0.000    0.000    0.000    1.500    0.000    0.000 
#    0.000    3.000    0.000   13.750    0.000    0.000 
#
# Total GULP energy -178293.611357 kJ/mol
# GULP energy per Si atom -5571.675355 kJ/mol
# Density = 2.046409 g / cm^3
# Si number density = 20.510774 Si / 1000 Ang^3
#
#
#
# Elastic Constant Matrix: (Units=GPa)
#
#
# Indices 1 2 3 4 5 6 
#
# 1 70.2249 -4.9164 5.3867 0.0000 0.0000 0.0000
# 2 -4.9164 153.0723 111.5137 0.0000 0.0000 0.0000
# 3 5.3867 111.5137 230.2102 -0.0002 0.0000 0.0000
# 4 0.0000 0.0000 -0.0002 -0.4813 0.0000 0.0000
# 5 0.0000 0.0000 0.0000 0.0000 -0.5306 0.0000
# 6 0.0000 0.0000 0.0000 0.0000 0.0000 16.4606
#
#
#
# Elastic Compliance Matrix: (Units=1/GPa)
#
#
# Indices 1 2 3 4 5 6 
#
# 1 0.014383 0.001093 -0.000866 0.000000 0.000000 0.000000
# 2 0.001093 0.010178 -0.004956 0.000001 0.000000 0.000000
# 3 -0.000866 -0.004956 0.006765 -0.000003 0.000000 0.000000
# 4 0.000000 0.000001 -0.000003 -2.077901 -0.000121 0.000000
# 5 0.000000 0.000000 0.000000 -0.000121 -1.884611 -0.000001
# 6 0.000000 0.000000 0.000000 0.000000 -0.000001 0.060751
#
#
# Mechanical properties :
#
#
# Convention : Reuss Voigt Hill
#
# Bulk Modulus (GPa) = 45.72921 75.27503 60.50212
# Shear Modulus (GPa) = -1.29746 25.85796 12.28025
#
# Velocity S-wave (km/s) = -0.79621 3.55449 2.44953
# Velocity P-wave (km/s) = 4.63663 7.32296 6.12879
#
# Compressibility (1/GPa) = 0.02186786
#
# Stress axis : x y z
#
# Youngs Moduli (GPa) = 69.52710 98.24714 147.82413
#
# Poissons Ratio (x) = -0.10736 0.12800
# Poissons Ratio (y) = -0.07598 0.73261
# Poissons Ratio (z) = 0.06020 0.48691
#
# Static dielectric constant tensor:
#      x y z
#    x 1.713130 0.000000 0.000000 
#    y 0.000000 1.673210 0.000000 
#    z 0.000000 0.000000 1.759330 
# 
# From -- ./inp_files/31375.got.cif
#   From: 2010.05.17/outbox.cif.g08.bks.cpg/sg71_16_cif.got.tgz:31375.got - 2010.06.03 16:22:01.
