data_PCOD9517837
_publ_section_title
;
Structure prediction by ZEFSAII (Michael W. Deem and Ramdas Pophale) SiO2 
 PCOD9517837
Probable space group: I M M M
;
_chemical_formula_sum "Si O2"
_cell_formula_units_Z 88
_cell_length_a 13.477619
_cell_length_b 19.984065
_cell_length_c 18.575580
_cell_angle_alpha 90.000000
_cell_angle_beta 90.000000
_cell_angle_gamma 90.000000
_cell_volume 5003.102398
_symmetry_space_group_name_H-M "I M M M"
_symmetry_group_IT_number 71
_symmetry_cell_setting 'orthorhombic'
loop_
_space_group_symop_operation_xyz
x,y,z
-x,-y,z
x,-y,-z
-x,y,-z
-x,-y,-z
x,y,-z
-x,y,z
x,-y,z
1/2+x,1/2+y,1/2+z
1/2-x,1/2-y,1/2+z
1/2+x,1/2-y,1/2-z
1/2-x,1/2+y,1/2-z
1/2-x,1/2-y,1/2-z
1/2+x,1/2+y,1/2-z
1/2-x,1/2+y,1/2+z
1/2+x,1/2-y,1/2+z
loop_
_atom_site_type_symbol
_atom_site_label
_atom_site_fract_x
_atom_site_fract_y
_atom_site_fract_z
Si Si1 0.279267 0.081068 0.415257
Si Si2 0.807023 0.144304 0.279720
Si Si3 0.119326 0.073818 0.140904
Si Si4 0.884592 0.280702 0.228018
Si Si5 0.879629 0.786842 0.922024
Si Si6 0.500000 0.079803 0.414858
O O1 0.266144 0.097414 0.500000
O O2 0.204561 0.113963 0.358983
O O3 0.391473 0.102623 0.390956
O O4 0.274946 0.000000 0.410219
O O5 0.852709 0.092917 0.222577
O O6 0.868661 0.213374 0.275140
O O7 0.696597 0.164469 0.251706
O O8 0.152177 0.136613 0.092417
O O9 0.000000 0.072796 0.135675
O O10 0.156509 0.000000 0.121354
O O11 0.853283 0.255584 0.147862
O O12 0.000000 0.300339 0.229009
O O13 0.000000 0.785734 0.922999
O O14 0.844714 0.762680 0.000000
O O15 0.500000 0.093223 0.500000
O O16 0.500000 0.000000 0.404826
#
# Coordination Sequence:
#
# PCOD9517837 Si02
#       6
#    16  16  16  16  16   8
#     4   9  17  28  43  66  94 119 144 178 222 271
#     4  10  18  29  47  64  86 121 155 187 214 263
#     4   9  17  29  46  68  93 120 147 177 222 273
#     4   9  19  32  44  63  89 120 154 186 224 259
#     4   8  14  26  43  64  91 116 139 172 216 271
#     4   7  12  24  38  56  88 120 137 159 208 269
#
# _framework density 17.589086999999999
#
# number of rings (size 3 to 8) (size 9 to 14) (size 15 to 20)
#    0.000    3.182    0.000    3.273    1.273    1.091 
#    0.000    1.818    0.000    2.182    0.000    6.364 
#    0.000    0.000    0.000   14.727    0.000    1.636 
#
# Total GULP energy -245010.536745 kJ/mol
# GULP energy per Si atom -5568.421290 kJ/mol
# Density = 1.754905 g / cm^3
# Si number density = 17.589087 Si / 1000 Ang^3
#
#
#
# Elastic Constant Matrix: (Units=GPa)
#
#
# Indices 1 2 3 4 5 6 
#
# 1 21.6055 -2.0417 -2.4792 0.0000 0.0000 0.0000
# 2 -2.0417 62.7022 5.9560 0.0000 0.0000 0.0000
# 3 -2.4792 5.9560 67.9700 0.0000 0.0000 0.0000
# 4 0.0000 0.0000 0.0000 10.8688 0.0000 0.0000
# 5 0.0000 0.0000 0.0000 0.0000 22.8287 0.0000
# 6 0.0000 0.0000 0.0000 0.0000 0.0000 23.4891
#
#
#
# Elastic Compliance Matrix: (Units=1/GPa)
#
#
# Indices 1 2 3 4 5 6 
#
# 1 0.046595 0.001367 0.001580 0.000000 0.000000 0.000000
# 2 0.001367 0.016122 -0.001363 0.000000 0.000000 0.000000
# 3 0.001580 -0.001363 0.014889 0.000000 0.000000 0.000000
# 4 0.000000 0.000000 0.000000 0.092007 0.000000 0.000000
# 5 0.000000 0.000000 0.000000 0.000000 0.043804 0.000000
# 6 0.000000 0.000000 0.000000 0.000000 0.000000 0.042573
#
#
# Mechanical properties :
#
#
# Convention : Reuss Voigt Hill
#
# Bulk Modulus (GPa) = 12.38009 17.23867 14.80938
# Shear Modulus (GPa) = 17.87324 21.49349 19.68337
#
# Velocity S-wave (km/s) = 3.19118 3.49947 3.34888
# Velocity P-wave (km/s) = 4.54224 5.11375 4.83645
#
# Compressibility (1/GPa) = 0.08077485
#
# Stress axis : x y z
#
# Youngs Moduli (GPa) = 21.46150 62.02560 67.16176
#
# Poissons Ratio (x) = -0.08480 -0.10610
# Poissons Ratio (y) = -0.02934 0.09153
# Poissons Ratio (z) = -0.03390 0.08453
#
# Static dielectric constant tensor:
#      x y z
#    x 1.609890 0.000000 0.000000 
#    y 0.000000 1.659880 0.000000 
#    z 0.000000 0.000000 1.622330 
# 
# From -- ./inp_files/36858.got.cif
#   From: 2010.05.17/outbox.cif.g08.bks.cpg/sg71_19_cif.got.tgz:36858.got - 2010.06.03 16:22:01.
