data_PCOD9517965
_publ_section_title
;
Structure prediction by ZEFSAII (Michael W. Deem and Ramdas Pophale) SiO2 
 PCOD9517965
Probable space group: I M M M
;
_chemical_formula_sum "Si O2"
_cell_formula_units_Z 72
_cell_length_a 8.121955
_cell_length_b 19.918496
_cell_length_c 28.420106
_cell_angle_alpha 90.000000
_cell_angle_beta 90.000000
_cell_angle_gamma 90.000000
_cell_volume 4597.723131
_symmetry_space_group_name_H-M "I M M M"
_symmetry_group_IT_number 71
_symmetry_cell_setting 'orthorhombic'
loop_
_space_group_symop_operation_xyz
x,y,z
-x,-y,z
x,-y,-z
-x,y,-z
-x,-y,-z
x,y,-z
-x,y,z
x,-y,z
1/2+x,1/2+y,1/2+z
1/2-x,1/2-y,1/2+z
1/2+x,1/2-y,1/2-z
1/2-x,1/2+y,1/2-z
1/2-x,1/2-y,1/2-z
1/2+x,1/2+y,1/2-z
1/2-x,1/2+y,1/2+z
1/2+x,1/2-y,1/2+z
loop_
_atom_site_type_symbol
_atom_site_label
_atom_site_fract_x
_atom_site_fract_y
_atom_site_fract_z
Si Si1 0.304942 0.378333 0.397912
Si Si2 0.299956 0.647249 0.228761
Si Si3 0.809862 0.000000 0.267575
Si Si4 0.200397 0.078271 0.000000
Si Si5 0.186859 0.500000 0.665222
Si Si6 0.803395 0.720591 0.323835
O O1 0.500000 0.392207 0.396742
O O2 0.247887 0.385850 0.451745
O O3 0.218542 0.435446 0.366877
O O4 0.271304 0.308700 0.371507
O O5 0.500000 0.645889 0.229771
O O6 0.238177 0.572228 0.218023
O O7 0.243602 0.671816 0.280301
O O8 0.248114 0.705280 0.192421
O O9 0.802048 0.000000 0.210728
O O10 0.000000 0.000000 0.283062
O O11 0.000000 0.077889 0.000000
O O12 0.252732 0.000000 0.000000
O O13 0.000000 0.500000 0.682796
O O14 0.000000 0.720802 0.328147
#
# Coordination Sequence:
#
# PCOD9517965 Si02
#       6
#    16  16   8   8   8  16
#     4  11  20  33  49  62  83 118 154 187 221 263
#     4   9  18  30  45  63  87 118 150 182 216 260
#     4  10  18  30  47  65  84 117 158 184 211 257
#     4   9  18  32  48  64  82 111 154 191 215 252
#     4  12  22  29  41  66  91 116 147 187 226 261
#     4  10  19  30  43  64  91 116 145 183 224 261
#
# _framework density 15.659924999999999
#
# number of rings (size 3 to 8) (size 9 to 14) (size 15 to 20)
#    0.000    1.889    3.333    2.333    0.000    0.889 
#    0.000    2.778    0.000    0.000    0.000    0.000 
#    0.000    0.889    0.000   11.111    0.000    0.889 
#
# Total GULP energy -200779.595757 kJ/mol
# GULP energy per Si atom -5577.210993 kJ/mol
# Density = 1.562428 g / cm^3
# Si number density = 15.659925 Si / 1000 Ang^3
#
#
#
# Elastic Constant Matrix: (Units=GPa)
#
#
# Indices 1 2 3 4 5 6 
#
# 1 21.7964 2.2243 -0.4893 0.0000 0.0000 0.0000
# 2 2.2243 125.4507 46.3135 0.0000 0.0000 0.0000
# 3 -0.4893 46.3135 85.9173 0.0000 0.0000 0.0000
# 4 0.0000 0.0000 0.0000 24.6661 0.0000 0.0000
# 5 0.0000 0.0000 0.0000 0.0000 13.1734 0.0000
# 6 0.0000 0.0000 0.0000 0.0000 0.0000 17.6872
#
#
#
# Elastic Compliance Matrix: (Units=1/GPa)
#
#
# Indices 1 2 3 4 5 6 
#
# 1 0.046015 -0.001139 0.000876 0.000000 0.000000 0.000000
# 2 -0.001139 0.009980 -0.005386 0.000000 0.000000 0.000000
# 3 0.000876 -0.005386 0.014547 0.000000 0.000000 0.000000
# 4 0.000000 0.000000 0.000000 0.040541 0.000000 0.000000
# 5 0.000000 0.000000 0.000000 0.000000 0.075911 0.000000
# 6 0.000000 0.000000 0.000000 0.000000 0.000000 0.056538
#
#
# Mechanical properties :
#
#
# Convention : Reuss Voigt Hill
#
# Bulk Modulus (GPa) = 16.87941 36.58461 26.73201
# Shear Modulus (GPa) = 18.20969 23.44639 20.82804
#
# Velocity S-wave (km/s) = 3.41372 3.87359 3.65090
# Velocity P-wave (km/s) = 5.13226 6.58931 5.90589
#
# Compressibility (1/GPa) = 0.05924379
#
# Stress axis : x y z
#
# Youngs Moduli (GPa) = 21.73206 100.20151 68.74050
#
# Poissons Ratio (x) = 0.11416 -0.06023
# Poissons Ratio (y) = 0.02476 0.37024
# Poissons Ratio (z) = -0.01904 0.53970
#
# Static dielectric constant tensor:
#      x y z
#    x 1.551670 0.000000 0.000000 
#    y 0.000000 1.562910 0.000000 
#    z 0.000000 0.000000 1.501120 
# 
# From -- ./inp_files/10697.got.cif
#   From: 2010.05.17/outbox.cif.g08.bks.cpg/sg71_6_cif.got.tgz:10697.got - 2010.06.03 16:22:01.
