data_PCOD9517953
_publ_section_title
;
Structure prediction by ZEFSAII (Michael W. Deem and Ramdas Pophale) SiO2 
 PCOD9517953
Probable space group: I M M M
;
_chemical_formula_sum "Si O2"
_cell_formula_units_Z 116
_cell_length_a 7.771333
_cell_length_b 33.919751
_cell_length_c 28.671118
_cell_angle_alpha 90.000000
_cell_angle_beta 90.000000
_cell_angle_gamma 90.000000
_cell_volume 7557.754881
_symmetry_space_group_name_H-M "I M M M"
_symmetry_group_IT_number 71
_symmetry_cell_setting 'orthorhombic'
loop_
_space_group_symop_operation_xyz
x,y,z
-x,-y,z
x,-y,-z
-x,y,-z
-x,-y,-z
x,y,-z
-x,y,z
x,-y,z
1/2+x,1/2+y,1/2+z
1/2-x,1/2-y,1/2+z
1/2+x,1/2-y,1/2-z
1/2-x,1/2+y,1/2-z
1/2-x,1/2-y,1/2-z
1/2+x,1/2+y,1/2-z
1/2-x,1/2+y,1/2+z
1/2+x,1/2-y,1/2+z
loop_
_atom_site_type_symbol
_atom_site_label
_atom_site_fract_x
_atom_site_fract_y
_atom_site_fract_z
Si Si1 0.797689 0.126884 0.187140
Si Si2 0.700449 0.807286 0.250533
Si Si3 0.702124 0.932610 0.949807
Si Si4 0.792557 0.848776 0.084664
Si Si5 0.000000 0.765805 0.500000
Si Si6 0.708409 0.956620 0.848131
Si Si7 0.800666 0.753608 0.672368
Si Si8 0.800742 0.241331 0.931228
O O1 0.719237 0.148722 0.231438
O O2 0.730974 0.145522 0.138201
O O3 0.767097 0.080381 0.182196
O O4 0.000000 0.134414 0.188898
O O5 0.500000 0.797969 0.256233
O O6 0.787466 0.794066 0.298411
O O7 0.768823 0.779392 0.208511
O O8 0.500000 0.942910 0.950598
O O9 0.719280 0.885387 0.944083
O O10 0.772585 0.949983 0.901458
O O11 0.776679 0.944553 0.000000
O O12 0.753861 0.805420 0.066044
O O13 0.000000 0.852890 0.084656
O O14 0.845750 0.763577 0.540199
O O15 0.500000 0.955228 0.849441
O O16 0.761218 0.000000 0.832038
O O17 0.707085 0.752619 0.623313
O O18 0.000000 0.744332 0.663185
O O19 0.000000 0.246025 0.946528
#
# Coordination Sequence:
#
# PCOD9517953 Si02
#       8
#    16  16  16  16   4  16  16  16
#     4  10  18  30  46  65  87 111 142 182 226 286
#     4  10  19  29  48  73  96 120 149 182 233 293
#     4   9  18  28  42  59  75  99 135 181 232 285
#     4   9  19  30  42  58  82 110 140 183 235 283
#     4  12  26  36  48  66  88 128 167 202 237 284
#     4   9  18  32  46  60  80 107 139 179 230 283
#     4  10  19  32  49  70  97 125 149 188 236 286
#     4  11  22  36  50  66  91 123 161 201 240 285
#
# _framework density 15.348473
#
# number of rings (size 3 to 8) (size 9 to 14) (size 15 to 20)
#    0.000    2.207    2.069    1.448    1.931    2.483 
#    0.000    1.379    0.000    0.000    0.000    3.862 
#    0.000    0.000    0.000    0.000    0.000    0.000 
#
# Total GULP energy -322988.537993 kJ/mol
# GULP energy per Si atom -5568.767896 kJ/mol
# Density = 1.531354 g / cm^3
# Si number density = 15.348473 Si / 1000 Ang^3
#
#
#
# Elastic Constant Matrix: (Units=GPa)
#
#
# Indices 1 2 3 4 5 6 
#
# 1 53.3506 1.5233 14.1904 0.0000 0.0000 0.0000
# 2 1.5233 50.0336 18.9317 0.0000 0.0000 0.0000
# 3 14.1904 18.9317 59.0095 0.0000 0.0000 0.0000
# 4 0.0000 0.0000 0.0000 -6.3827 0.0000 0.0000
# 5 0.0000 0.0000 0.0000 0.0000 76.2633 0.0000
# 6 0.0000 0.0000 0.0000 0.0000 0.0000 13.7219
#
#
#
# Elastic Compliance Matrix: (Units=1/GPa)
#
#
# Indices 1 2 3 4 5 6 
#
# 1 0.020109 0.001386 -0.005280 0.000000 0.000000 0.000000
# 2 0.001386 0.022844 -0.007662 0.000000 0.000000 0.000000
# 3 -0.005280 -0.007662 0.020674 0.000000 0.000000 0.000000
# 4 0.000000 0.000000 0.000000 -0.156674 0.000000 0.000000
# 5 0.000000 0.000000 0.000000 0.000000 0.013112 0.000000
# 6 0.000000 0.000000 0.000000 0.000000 0.000000 0.072876
#
#
# Mechanical properties :
#
#
# Convention : Reuss Voigt Hill
#
# Bulk Modulus (GPa) = 24.68306 25.74272 25.21289
# Shear Modulus (GPa) = 169.15206 25.23707 97.19456
#
# Velocity S-wave (km/s) = 10.50938 4.05936 7.96635
# Velocity P-wave (km/s) = 12.78199 6.22734 10.05383
#
# Compressibility (1/GPa) = 0.04051361
#
# Stress axis : x y z
#
# Youngs Moduli (GPa) = 49.72944 43.77604 48.36905
#
# Poissons Ratio (x) = -0.06066 0.25540
# Poissons Ratio (y) = -0.06891 0.37060
# Poissons Ratio (z) = 0.26258 0.33541
#
# Static dielectric constant tensor:
#      x y z
#    x 1.551890 0.000000 0.000000 
#    y 0.000000 1.519840 0.000000 
#    z 0.000000 0.000000 1.524400 
# 
# From -- ./inp_files/63985.got.cif
#   From: 2010.05.17/outbox.cif.g08.bks.cpg/sg71_32_cif.got.tgz:63985.got - 2010.06.03 16:22:01.
