data_PCOD9517654
_publ_section_title
;
Structure prediction by ZEFSAII (Michael W. Deem and Ramdas Pophale) SiO2 
 PCOD9517654
Probable space group: I M M M
;
_chemical_formula_sum "Si O2"
_cell_formula_units_Z 120
_cell_length_a 20.758739
_cell_length_b 13.835475
_cell_length_c 27.393653
_cell_angle_alpha 90.000000
_cell_angle_beta 90.000000
_cell_angle_gamma 90.000000
_cell_volume 7867.649293
_symmetry_space_group_name_H-M "I M M M"
_symmetry_group_IT_number 71
_symmetry_cell_setting 'orthorhombic'
loop_
_space_group_symop_operation_xyz
x,y,z
-x,-y,z
x,-y,-z
-x,y,-z
-x,-y,-z
x,y,-z
-x,y,z
x,-y,z
1/2+x,1/2+y,1/2+z
1/2-x,1/2-y,1/2+z
1/2+x,1/2-y,1/2-z
1/2-x,1/2+y,1/2-z
1/2-x,1/2-y,1/2-z
1/2+x,1/2+y,1/2-z
1/2-x,1/2+y,1/2+z
1/2+x,1/2-y,1/2+z
loop_
_atom_site_type_symbol
_atom_site_label
_atom_site_fract_x
_atom_site_fract_y
_atom_site_fract_z
Si Si1 0.256552 0.109042 0.289010
Si Si2 0.926605 0.740686 0.908498
Si Si3 0.571200 0.197840 0.790123
Si Si4 0.422058 0.890418 0.500000
Si Si5 0.404014 0.890457 0.684093
Si Si6 0.573372 0.388461 0.730468
Si Si7 0.665423 0.386035 0.637770
Si Si8 0.291371 0.187089 0.181920
O O1 0.326379 0.112118 0.314464
O O2 0.269855 0.134772 0.232398
O O3 0.216872 0.197958 0.310431
O O4 0.230435 0.000000 0.292869
O O5 0.927030 0.679990 0.858174
O O6 0.876544 0.827019 0.900951
O O7 0.000000 0.773701 0.918288
O O8 0.905083 0.669278 0.951676
O O9 0.500000 0.183440 0.811216
O O10 0.574851 0.142301 0.738049
O O11 0.578667 0.309603 0.772908
O O12 0.632499 0.167501 0.822301
O O13 0.500000 0.896436 0.500000
O O14 0.396938 0.000000 0.500000
O O15 0.424587 0.000000 0.674721
O O16 0.500000 0.378013 0.710000
O O17 0.579882 0.500000 0.746207
O O18 0.626940 0.369481 0.689239
O O19 0.664963 0.500000 0.628906
O O20 0.738364 0.348346 0.643494
#
# Coordination Sequence:
#
# PCOD9517654 Si02
#       8
#    16  16  16   8  16  16  16  16
#     4   9  16  26  41  60  83 112 147 187 228 264
#     4  11  20  33  49  68  90 113 146 184 220 262
#     4  10  19  29  40  59  85 115 155 193 226 262
#     4   9  20  36  53  71  93 121 145 172 218 270
#     4  10  18  28  43  62  85 113 148 188 223 254
#     4   9  16  26  40  58  81 110 145 187 229 261
#     4  11  20  31  46  64  84 112 148 187 231 270
#     4  10  18  29  40  57  85 115 147 186 229 266
#
# _framework density 15.252333
#
# number of rings (size 3 to 8) (size 9 to 14) (size 15 to 20)
#    0.000    2.067    2.667    3.200    0.000    4.533 
#    0.000    0.333    0.000    1.200    0.000    0.000 
#    0.000    0.000    0.000    0.600    0.000    2.200 
#
# Total GULP energy -334541.436183 kJ/mol
# GULP energy per Si atom -5575.690603 kJ/mol
# Density = 1.521762 g / cm^3
# Si number density = 15.252333 Si / 1000 Ang^3
#
#
#
# Elastic Constant Matrix: (Units=GPa)
#
#
# Indices 1 2 3 4 5 6 
#
# 1 116.7747 38.0377 25.0480 0.0000 0.0000 0.0000
# 2 38.0377 91.7266 21.3433 0.0000 0.0000 0.0000
# 3 25.0480 21.3433 24.8250 0.0000 0.0000 0.0000
# 4 0.0000 0.0000 0.0000 9.7902 0.0000 0.0000
# 5 0.0000 0.0000 0.0000 0.0000 6.2658 0.0000
# 6 0.0000 0.0000 0.0000 0.0000 0.0000 13.4708
#
#
#
# Elastic Compliance Matrix: (Units=1/GPa)
#
#
# Indices 1 2 3 4 5 6 
#
# 1 0.011391 -0.002562 -0.009291 0.000000 0.000000 0.000000
# 2 -0.002562 0.014204 -0.009627 0.000000 0.000000 0.000000
# 3 -0.009291 -0.009627 0.057933 0.000000 0.000000 0.000000
# 4 0.000000 0.000000 0.000000 0.102143 0.000000 0.000000
# 5 0.000000 0.000000 0.000000 0.000000 0.159596 0.000000
# 6 0.000000 0.000000 0.000000 0.000000 0.000000 0.074235
#
#
# Mechanical properties :
#
#
# Convention : Reuss Voigt Hill
#
# Bulk Modulus (GPa) = 24.64951 44.68717 34.66834
# Shear Modulus (GPa) = 10.50453 15.83184 13.16819
#
# Velocity S-wave (km/s) = 2.62719 3.22529 2.94148
# Velocity P-wave (km/s) = 5.03975 6.57512 5.85795
#
# Compressibility (1/GPa) = 0.04056875
#
# Stress axis : x y z
#
# Youngs Moduli (GPa) = 87.79014 70.40036 17.26123
#
# Poissons Ratio (x) = 0.18035 0.16037
# Poissons Ratio (y) = 0.22490 0.16618
# Poissons Ratio (z) = 0.81562 0.67778
#
# Static dielectric constant tensor:
#      x y z
#    x 1.561560 0.000000 0.000000 
#    y 0.000000 1.544480 0.000000 
#    z 0.000000 0.000000 1.467470 
# 
# From -- ./inp_files/66677.got.cif
#   From: 2010.05.17/outbox.cif.g08.bks.cpg/sg71_34_cif.got.tgz:66677.got - 2010.06.03 16:22:01.
