data_PCOD9517493
_publ_section_title
;
Structure prediction by ZEFSAII (Michael W. Deem and Ramdas Pophale) SiO2 
 PCOD9517493
Probable space group: I M M M
;
_chemical_formula_sum "Si O2"
_cell_formula_units_Z 120
_cell_length_a 13.003081
_cell_length_b 19.391641
_cell_length_c 31.883667
_cell_angle_alpha 90.000000
_cell_angle_beta 90.000000
_cell_angle_gamma 90.000000
_cell_volume 8039.501025
_symmetry_space_group_name_H-M "I M M M"
_symmetry_group_IT_number 71
_symmetry_cell_setting 'orthorhombic'
loop_
_space_group_symop_operation_xyz
x,y,z
-x,-y,z
x,-y,-z
-x,y,-z
-x,-y,-z
x,y,-z
-x,y,z
x,-y,z
1/2+x,1/2+y,1/2+z
1/2-x,1/2-y,1/2+z
1/2+x,1/2-y,1/2-z
1/2-x,1/2+y,1/2-z
1/2-x,1/2-y,1/2-z
1/2+x,1/2+y,1/2-z
1/2-x,1/2+y,1/2+z
1/2+x,1/2-y,1/2+z
loop_
_atom_site_type_symbol
_atom_site_label
_atom_site_fract_x
_atom_site_fract_y
_atom_site_fract_z
Si Si1 0.324621 0.850724 0.894337
Si Si2 0.683969 0.421143 0.729259
Si Si3 0.876751 0.198531 0.293186
Si Si4 0.881610 0.354633 0.296688
Si Si5 0.616619 0.417690 0.633539
Si Si6 0.375032 0.577858 0.952193
Si Si7 0.500000 0.917350 0.950901
Si Si8 0.874744 0.803171 0.389319
O O1 0.371684 0.857638 0.847251
O O2 0.209288 0.880202 0.890641
O O3 0.399433 0.888993 0.926750
O O4 0.328531 0.769498 0.903578
O O5 0.658641 0.500000 0.741299
O O6 0.652840 0.362789 0.762253
O O7 0.805552 0.411005 0.721933
O O8 0.633637 0.406799 0.683604
O O9 0.844356 0.277540 0.283390
O O10 0.844272 0.183980 0.341079
O O11 0.000000 0.202000 0.293438
O O12 0.000000 0.363669 0.284904
O O13 0.500000 0.396688 0.622513
O O14 0.626238 0.500000 0.626807
O O15 0.500000 0.577777 0.951788
O O16 0.342109 0.500000 0.941711
O O17 0.342090 0.634854 0.919204
O O18 0.343772 0.593407 0.000000
O O19 0.500000 0.000000 0.948610
O O20 0.500000 0.896887 0.000000
O O21 0.000000 0.796690 0.390728
#
# Coordination Sequence:
#
# PCOD9517493 Si02
#       8
#    16  16  16  16  16  16   8  16
#     4  10  17  32  48  67  93 120 152 192 230 271
#     4  10  19  28  42  66  90 113 147 193 234 265
#     4   9  17  28  42  57  84 118 149 187 226 272
#     4   9  17  31  47  63  84 117 153 184 226 274
#     4   9  18  31  47  66  88 119 159 196 228 264
#     4   8  14  24  38  59  88 119 149 178 211 263
#     4  11  22  32  46  72 101 123 145 181 236 292
#     4   9  16  27  43  64  88 120 154 182 226 280
#
# _framework density 14.926299999999999
#
# number of rings (size 3 to 8) (size 9 to 14) (size 15 to 20)
#    0.000    2.733    1.333    2.400    0.000    2.667 
#    0.000    1.333    0.000    0.400    0.000    1.867 
#    0.000    0.533    0.000    1.467    0.000    0.933 
#
# Total GULP energy -334075.847518 kJ/mol
# GULP energy per Si atom -5567.930792 kJ/mol
# Density = 1.489233 g / cm^3
# Si number density = 14.926300 Si / 1000 Ang^3
#
#
#
# Elastic Constant Matrix: (Units=GPa)
#
#
# Indices 1 2 3 4 5 6 
#
# 1 70.8321 29.4837 24.2828 0.0000 0.0000 0.0000
# 2 29.4837 75.6665 46.1185 0.0000 0.0000 0.0000
# 3 24.2828 46.1185 51.7012 0.0000 0.0000 0.0000
# 4 0.0000 0.0000 0.0000 25.4804 0.0000 0.0000
# 5 0.0000 0.0000 0.0000 0.0000 12.3340 0.0000
# 6 0.0000 0.0000 0.0000 0.0000 0.0000 18.5723
#
#
#
# Elastic Compliance Matrix: (Units=1/GPa)
#
#
# Indices 1 2 3 4 5 6 
#
# 1 0.017345 -0.003930 -0.004641 0.000000 0.000000 0.000000
# 2 -0.003930 0.029852 -0.024783 0.000000 0.000000 0.000000
# 3 -0.004641 -0.024783 0.043629 0.000000 0.000000 0.000000
# 4 0.000000 0.000000 0.000000 0.039246 0.000000 0.000000
# 5 0.000000 0.000000 0.000000 0.000000 0.081077 0.000000
# 6 0.000000 0.000000 0.000000 0.000000 0.000000 0.053844
#
#
# Mechanical properties :
#
#
# Convention : Reuss Voigt Hill
#
# Bulk Modulus (GPa) = 41.46283 44.21885 42.84084
# Shear Modulus (GPa) = 14.71715 17.83164 16.27440
#
# Velocity S-wave (km/s) = 3.14345 3.46011 3.30558
# Velocity P-wave (km/s) = 6.40420 6.75665 6.58278
#
# Compressibility (1/GPa) = 0.02411799
#
# Stress axis : x y z
#
# Youngs Moduli (GPa) = 57.65456 33.49810 22.92064
#
# Poissons Ratio (x) = 0.13164 0.10637
# Poissons Ratio (y) = 0.22657 0.56805
# Poissons Ratio (z) = 0.26757 0.83019
#
# Static dielectric constant tensor:
#      x y z
#    x 1.490490 0.000000 0.000000 
#    y 0.000000 1.501510 0.000000 
#    z 0.000000 0.000000 1.489750 
# 
# From -- ./inp_files/56467.got.cif
#   From: 2010.05.17/outbox.cif.g08.bks.cpg/sg71_29_cif.got.tgz:56467.got - 2010.06.03 16:22:01.
