data_PCOD9517395
_publ_section_title
;
Structure prediction by ZEFSAII (Michael W. Deem and Ramdas Pophale) SiO2 
 PCOD9517395
Probable space group: I M M M
;
_chemical_formula_sum "Si O2"
_cell_formula_units_Z 80
_cell_length_a 16.457598
_cell_length_b 7.328191
_cell_length_c 30.397013
_cell_angle_alpha 90.000000
_cell_angle_beta 90.000000
_cell_angle_gamma 90.000000
_cell_volume 3666.014170
_symmetry_space_group_name_H-M "I M M M"
_symmetry_group_IT_number 71
_symmetry_cell_setting 'orthorhombic'
loop_
_space_group_symop_operation_xyz
x,y,z
-x,-y,z
x,-y,-z
-x,y,-z
-x,-y,-z
x,y,-z
-x,y,z
x,-y,z
1/2+x,1/2+y,1/2+z
1/2-x,1/2-y,1/2+z
1/2+x,1/2-y,1/2-z
1/2-x,1/2+y,1/2-z
1/2-x,1/2-y,1/2-z
1/2+x,1/2+y,1/2-z
1/2-x,1/2+y,1/2+z
1/2+x,1/2-y,1/2+z
loop_
_atom_site_type_symbol
_atom_site_label
_atom_site_fract_x
_atom_site_fract_y
_atom_site_fract_z
Si Si1 0.833441 0.780672 0.209615
Si Si2 0.000000 0.705697 0.936825
Si Si3 0.286861 0.292927 0.868922
Si Si4 0.318364 0.777528 0.548847
Si Si5 0.000000 0.782159 0.162882
Si Si6 0.594132 0.276394 0.799932
O O1 0.772405 0.703338 0.173506
O O2 0.920956 0.735529 0.189701
O O3 0.845065 0.719245 0.260129
O O4 0.822749 0.000000 0.209714
O O5 0.087766 0.787583 0.948574
O O6 0.000000 0.696851 0.884498
O O7 0.000000 0.500000 0.954419
O O8 0.306761 0.500000 0.882113
O O9 0.237029 0.213131 0.910239
O O10 0.368268 0.214679 0.846523
O O11 0.286731 0.733562 0.500000
O O12 0.322433 0.000000 0.552601
O O13 0.000000 0.000000 0.156327
O O14 0.500000 0.222562 0.793403
O O15 0.594673 0.500000 0.799029
#
# Coordination Sequence:
#
# PCOD9517395 Si02
#       6
#    16   8  16  16   8  16
#     4  10  18  30  47  65  92 126 151 174 214 267
#     4  10  17  28  46  64  88 120 152 183 215 258
#     4  10  19  30  48  70  89 114 151 193 223 252
#     4   9  17  28  43  65  90 116 147 183 225 267
#     4  10  18  27  43  65  92 126 149 172 214 259
#     4   9  17  30  47  67  91 120 151 179 218 273
#
# _framework density 21.822067000000001
#
# number of rings (size 3 to 8) (size 9 to 14) (size 15 to 20)
#    0.000    2.400    3.000    0.900    0.000    1.200 
#    0.000    0.000    0.000    5.400    0.000    4.200 
#    0.000    0.000    0.000    1.800    0.000    2.000 
#
# Total GULP energy -223110.866384 kJ/mol
# GULP energy per Si atom -5577.771660 kJ/mol
# Density = 2.177240 g / cm^3
# Si number density = 21.822067 Si / 1000 Ang^3
#
#
#
# Elastic Constant Matrix: (Units=GPa)
#
#
# Indices 1 2 3 4 5 6 
#
# 1 53.0168 -1.2784 49.4339 0.0000 0.0000 0.0000
# 2 -1.2784 70.4172 6.4953 0.0000 0.0000 0.0000
# 3 49.4339 6.4953 185.1355 0.0000 0.0000 0.0000
# 4 0.0000 0.0000 0.0000 5.3193 0.0000 0.0000
# 5 0.0000 0.0000 0.0000 0.0000 44.9991 0.0000
# 6 0.0000 0.0000 0.0000 0.0000 0.0000 17.8881
#
#
#
# Elastic Compliance Matrix: (Units=1/GPa)
#
#
# Indices 1 2 3 4 5 6 
#
# 1 0.025197 0.001082 -0.006766 0.000000 0.000000 0.000000
# 2 0.001082 0.014294 -0.000790 0.000000 0.000000 0.000000
# 3 -0.006766 -0.000790 0.007236 0.000000 0.000000 0.000000
# 4 0.000000 0.000000 0.000000 0.187994 0.000000 0.000000
# 5 0.000000 0.000000 0.000000 0.000000 0.022223 0.000000
# 6 0.000000 0.000000 0.000000 0.000000 0.000000 0.055903
#
#
# Mechanical properties :
#
#
# Convention : Reuss Voigt Hill
#
# Bulk Modulus (GPa) = 29.60607 46.43013 38.01810
# Shear Modulus (GPa) = 14.83444 30.56921 22.70182
#
# Velocity S-wave (km/s) = 2.61011 3.74684 3.22889
# Velocity P-wave (km/s) = 4.76236 6.32782 5.60006
#
# Compressibility (1/GPa) = 0.03377686
#
# Stress axis : x y z
#
# Youngs Moduli (GPa) = 39.68789 69.96137 138.20275
#
# Poissons Ratio (x) = -0.07567 0.93505
# Poissons Ratio (y) = -0.04292 0.10922
# Poissons Ratio (z) = 0.26852 0.05529
#
# Static dielectric constant tensor:
#      x y z
#    x 1.806060 0.000000 0.000000 
#    y 0.000000 1.840920 0.000000 
#    z 0.000000 0.000000 1.791470 
# 
# From -- ./inp_files/16570.got.cif
#   From: 2010.05.17/outbox.cif.g08.bks.cpg/sg71_9_cif.got.tgz:16570.got - 2010.06.03 16:22:01.
