data_PCOD9517684
_publ_section_title
;
Structure prediction by ZEFSAII (Michael W. Deem and Ramdas Pophale) SiO2 
 PCOD9517684
Probable space group: I M M M
;
_chemical_formula_sum "Si O2"
_cell_formula_units_Z 120
_cell_length_a 23.481077
_cell_length_b 23.140607
_cell_length_c 13.336310
_cell_angle_alpha 90.000000
_cell_angle_beta 90.000000
_cell_angle_gamma 90.000000
_cell_volume 7246.502418
_symmetry_space_group_name_H-M "I M M M"
_symmetry_group_IT_number 71
_symmetry_cell_setting 'orthorhombic'
loop_
_space_group_symop_operation_xyz
x,y,z
-x,-y,z
x,-y,-z
-x,y,-z
-x,-y,-z
x,y,-z
-x,y,z
x,-y,z
1/2+x,1/2+y,1/2+z
1/2-x,1/2-y,1/2+z
1/2+x,1/2-y,1/2-z
1/2-x,1/2+y,1/2-z
1/2-x,1/2-y,1/2-z
1/2+x,1/2+y,1/2-z
1/2-x,1/2+y,1/2+z
1/2+x,1/2-y,1/2+z
loop_
_atom_site_type_symbol
_atom_site_label
_atom_site_fract_x
_atom_site_fract_y
_atom_site_fract_z
Si Si1 0.137498 0.568252 0.189791
Si Si2 0.671804 0.627769 0.617272
Si Si3 0.934525 0.070024 0.500000
Si Si4 0.857179 0.930346 0.307893
Si Si5 0.295119 0.931620 0.111556
Si Si6 0.754965 0.367535 0.884893
Si Si7 0.063615 0.332644 0.121090
Si Si8 0.674083 0.761680 0.378153
O O1 0.129988 0.500000 0.178994
O O2 0.160434 0.582113 0.301467
O O3 0.189240 0.591880 0.121530
O O4 0.082465 0.605128 0.162279
O O5 0.653499 0.624413 0.500000
O O6 0.631921 0.593757 0.695894
O O7 0.735239 0.600840 0.621657
O O8 0.676774 0.694781 0.648266
O O9 0.900811 0.085792 0.602426
O O10 0.000000 0.090469 0.500000
O O11 0.935652 0.000000 0.500000
O O12 0.797008 0.900441 0.334377
O O13 0.851987 0.000000 0.306328
O O14 0.282644 0.000000 0.120111
O O15 0.317765 0.920137 0.000000
O O16 0.776530 0.305719 0.842526
O O17 0.738673 0.358856 0.000000
O O18 0.113465 0.288774 0.152895
O O19 0.000000 0.316464 0.152455
O O20 0.064808 0.334973 0.000000
O O21 0.676477 0.764300 0.500000
#
# Coordination Sequence:
#
# PCOD9517684 Si02
#       8
#    16  16   8  16  16  16  16  16
#     4  10  18  28  44  70 102 131 162 202 248 301
#     4  10  19  32  50  77 107 134 167 209 253 309
#     4   9  20  38  56  74 100 134 171 207 246 304
#     4  11  20  31  52  78 101 134 169 204 254 306
#     4   9  17  29  45  67 101 138 163 193 245 305
#     4  10  18  29  45  71 105 132 164 206 248 298
#     4   9  18  33  50  68  94 129 167 206 251 301
#     4   8  17  32  48  70 100 133 166 207 255 298
#
# _framework density 16.559712999999999
#
# number of rings (size 3 to 8) (size 9 to 14) (size 15 to 20)
#    0.000    2.467    2.000    2.000    0.000    3.200 
#    0.000    1.333    0.000    1.600    0.000    3.733 
#    0.000    0.000    0.000    0.000    0.000    0.000 
#
# Total GULP energy -334126.296431 kJ/mol
# GULP energy per Si atom -5568.771607 kJ/mol
# Density = 1.652202 g / cm^3
# Si number density = 16.559713 Si / 1000 Ang^3
#
#
#
# Elastic Constant Matrix: (Units=GPa)
#
#
# Indices 1 2 3 4 5 6 
#
# 1 65.0230 31.3736 29.4991 0.0000 0.0000 0.0000
# 2 31.3736 70.4356 37.7423 0.0000 0.0000 0.0000
# 3 29.4991 37.7423 77.6165 0.0000 0.0000 0.0000
# 4 0.0000 0.0000 0.0000 21.1678 0.0000 0.0000
# 5 0.0000 0.0000 0.0000 0.0000 13.4117 0.0000
# 6 0.0000 0.0000 0.0000 0.0000 0.0000 10.4273
#
#
#
# Elastic Compliance Matrix: (Units=1/GPa)
#
#
# Indices 1 2 3 4 5 6 
#
# 1 0.020728 -0.006777 -0.004582 0.000000 0.000000 0.000000
# 2 -0.006777 0.021416 -0.007838 0.000000 0.000000 0.000000
# 3 -0.004582 -0.007838 0.018437 0.000000 0.000000 0.000000
# 4 0.000000 0.000000 0.000000 0.047242 0.000000 0.000000
# 5 0.000000 0.000000 0.000000 0.000000 0.074562 0.000000
# 6 0.000000 0.000000 0.000000 0.000000 0.000000 0.095902
#
#
# Mechanical properties :
#
#
# Convention : Reuss Voigt Hill
#
# Bulk Modulus (GPa) = 45.07468 45.58947 45.33207
# Shear Modulus (GPa) = 15.42843 16.63204 16.03024
#
# Velocity S-wave (km/s) = 3.05566 3.17261 3.11469
# Velocity P-wave (km/s) = 6.30301 6.40396 6.35369
#
# Compressibility (1/GPa) = 0.02218541
#
# Stress axis : x y z
#
# Youngs Moduli (GPa) = 48.24359 46.69373 54.23915
#
# Poissons Ratio (x) = 0.31646 0.24854
# Poissons Ratio (y) = 0.32696 0.42513
# Poissons Ratio (z) = 0.22107 0.36599
#
# Static dielectric constant tensor:
#      x y z
#    x 1.537380 0.000000 0.000000 
#    y 0.000000 1.563840 0.000000 
#    z 0.000000 0.000000 1.623350 
# 
# From -- ./inp_files/39658.got.cif
#   From: 2010.05.17/outbox.cif.g08.bks.cpg/sg71_20_cif.got.tgz:39658.got - 2010.06.03 16:22:01.
