data_PCOD9517873
_publ_section_title
;
Structure prediction by ZEFSAII (Michael W. Deem and Ramdas Pophale) SiO2 
 PCOD9517873
Probable space group: I M M M
;
_chemical_formula_sum "Si O2"
_cell_formula_units_Z 104
_cell_length_a 9.005692
_cell_length_b 28.872555
_cell_length_c 24.573835
_cell_angle_alpha 90.000000
_cell_angle_beta 90.000000
_cell_angle_gamma 90.000000
_cell_volume 6389.623151
_symmetry_space_group_name_H-M "I M M M"
_symmetry_group_IT_number 71
_symmetry_cell_setting 'orthorhombic'
loop_
_space_group_symop_operation_xyz
x,y,z
-x,-y,z
x,-y,-z
-x,y,-z
-x,-y,-z
x,y,-z
-x,y,z
x,-y,z
1/2+x,1/2+y,1/2+z
1/2-x,1/2-y,1/2+z
1/2+x,1/2-y,1/2-z
1/2-x,1/2+y,1/2-z
1/2-x,1/2-y,1/2-z
1/2+x,1/2+y,1/2-z
1/2-x,1/2+y,1/2+z
1/2+x,1/2-y,1/2+z
loop_
_atom_site_type_symbol
_atom_site_label
_atom_site_fract_x
_atom_site_fract_y
_atom_site_fract_z
Si Si1 0.821655 0.818646 0.563758
Si Si2 0.177337 0.054287 0.855148
Si Si3 0.329438 0.277173 0.566063
Si Si4 0.176856 0.626960 0.435480
Si Si5 0.680586 0.500000 0.062230
Si Si6 0.176918 0.554735 0.761085
Si Si7 0.679478 0.590124 0.868664
O O1 0.783576 0.827067 0.500000
O O2 0.745223 0.771158 0.582486
O O3 0.780695 0.862661 0.600267
O O4 0.000000 0.813027 0.566065
O O5 0.245991 0.086940 0.900960
O O6 0.248577 0.065877 0.796678
O O7 0.000000 0.059808 0.852796
O O8 0.209928 0.000000 0.866030
O O9 0.327810 0.276743 0.500000
O O10 0.500000 0.280042 0.583982
O O11 0.239785 0.322973 0.582240
O O12 0.208427 0.621471 0.500000
O O13 0.000000 0.625657 0.428221
O O14 0.500000 0.500000 0.060750
O O15 0.724934 0.453853 0.094379
O O16 0.733018 0.500000 0.000000
O O17 0.207318 0.500000 0.771869
O O18 0.246114 0.583765 0.810211
O O19 0.000000 0.560798 0.757972
O O20 0.500000 0.588793 0.863036
#
# Coordination Sequence:
#
# PCOD9517873 Si02
#       7
#    16  16  16  16   8  16  16
#     4   9  17  29  46  71 101 132 169 213 259 304
#     4  10  21  36  55  78 104 134 169 207 244 289
#     4   9  17  30  49  72  99 133 171 208 246 294
#     4  10  20  34  54  80 109 138 165 197 242 295
#     4   9  16  26  43  69  99 131 168 211 258 305
#     4  10  20  34  51  70  96 131 173 215 255 300
#     4  10  18  29  48  71  97 131 172 216 257 303
#
# _framework density 16.276389999999999
#
# number of rings (size 3 to 8) (size 9 to 14) (size 15 to 20)
#    0.000    2.385    0.769    2.308    0.000    7.077 
#    0.000    1.538    0.000    2.769    0.000    0.000 
#    0.000    0.000    0.000    0.000    0.000    0.000 
#
# Total GULP energy -290041.764071 kJ/mol
# GULP energy per Si atom -5577.726232 kJ/mol
# Density = 1.623934 g / cm^3
# Si number density = 16.276390 Si / 1000 Ang^3
#
#
#
# Elastic Constant Matrix: (Units=GPa)
#
#
# Indices 1 2 3 4 5 6 
#
# 1 60.9499 65.9390 56.4685 0.0000 0.0000 0.0000
# 2 65.9390 138.2629 83.8006 0.0000 0.0000 0.0000
# 3 56.4685 83.8006 92.7337 0.0000 0.0000 0.0000
# 4 0.0000 0.0000 0.0000 8.1723 0.0000 0.0000
# 5 0.0000 0.0000 0.0000 0.0000 23.8502 0.0000
# 6 0.0000 0.0000 0.0000 0.0000 0.0000 27.2480
#
#
#
# Elastic Compliance Matrix: (Units=1/GPa)
#
#
# Indices 1 2 3 4 5 6 
#
# 1 0.043461 -0.010362 -0.017100 0.000000 0.000000 0.000000
# 2 -0.010362 0.018462 -0.010373 0.000000 0.000000 0.000000
# 3 -0.017100 -0.010373 0.030571 0.000000 0.000000 0.000000
# 4 0.000000 0.000000 0.000000 0.122365 0.000000 0.000000
# 5 0.000000 0.000000 0.000000 0.000000 0.041928 0.000000
# 6 0.000000 0.000000 0.000000 0.000000 0.000000 0.036700
#
#
# Mechanical properties :
#
#
# Convention : Reuss Voigt Hill
#
# Bulk Modulus (GPa) = 59.45031 78.26252 68.85641
# Shear Modulus (GPa) = 13.34167 17.56997 15.45582
#
# Velocity S-wave (km/s) = 2.86614 3.28910 3.08488
# Velocity P-wave (km/s) = 6.89621 7.91278 7.42192
#
# Compressibility (1/GPa) = 0.01682077
#
# Stress axis : x y z
#
# Youngs Moduli (GPa) = 23.00940 54.16596 32.71110
#
# Poissons Ratio (x) = 0.56128 0.55937
# Poissons Ratio (y) = 0.23843 0.33933
# Poissons Ratio (z) = 0.39347 0.56189
#
# Static dielectric constant tensor:
#      x y z
#    x 1.544310 0.000000 0.000000 
#    y 0.000000 1.531500 0.000000 
#    z 0.000000 0.000000 1.521980 
# 
# From -- ./inp_files/15527.got.cif
#   From: 2010.05.17/outbox.cif.g08.bks.cpg/sg71_8_cif.got.tgz:15527.got - 2010.06.03 16:22:01.
