data_PCOD9517367
_publ_section_title
;
Structure prediction by ZEFSAII (Michael W. Deem and Ramdas Pophale) SiO2 
 PCOD9517367
Probable space group: I M M M
;
_chemical_formula_sum "Si O2"
_cell_formula_units_Z 72
_cell_length_a 17.951978
_cell_length_b 8.277262
_cell_length_c 20.466922
_cell_angle_alpha 90.000000
_cell_angle_beta 90.000000
_cell_angle_gamma 90.000000
_cell_volume 3041.245952
_symmetry_space_group_name_H-M "I M M M"
_symmetry_group_IT_number 71
_symmetry_cell_setting 'orthorhombic'
loop_
_space_group_symop_operation_xyz
x,y,z
-x,-y,z
x,-y,-z
-x,y,-z
-x,-y,-z
x,y,-z
-x,y,z
x,-y,z
1/2+x,1/2+y,1/2+z
1/2-x,1/2-y,1/2+z
1/2+x,1/2-y,1/2-z
1/2-x,1/2+y,1/2-z
1/2-x,1/2-y,1/2-z
1/2+x,1/2+y,1/2-z
1/2-x,1/2+y,1/2+z
1/2+x,1/2-y,1/2+z
loop_
_atom_site_type_symbol
_atom_site_label
_atom_site_fract_x
_atom_site_fract_y
_atom_site_fract_z
Si Si1 0.085933 0.314938 0.920460
Si Si2 0.334033 0.683924 0.251505
Si Si3 0.182190 0.000000 0.079083
Si Si4 0.146037 0.500000 0.394244
Si Si5 0.587748 0.000000 0.256090
Si Si6 0.588200 0.674607 0.109834
O O1 0.108294 0.500000 0.903660
O O2 0.000000 0.289305 0.899050
O O3 0.138583 0.164364 0.903209
O O4 0.084262 0.312480 0.000000
O O5 0.337525 0.500000 0.277292
O O6 0.250000 0.750000 0.250000
O O7 0.381171 0.830257 0.282781
O O8 0.366845 0.670476 0.178049
O O9 0.265407 0.000000 0.106714
O O10 0.189317 0.000000 0.000000
O O11 0.113339 0.500000 0.320238
O O12 0.116479 0.665218 0.425101
O O13 0.500000 0.000000 0.259480
O O14 0.500000 0.690326 0.123340
O O15 0.599946 0.500000 0.077639
#
# Coordination Sequence:
#
# PCOD9517367 Si02
#       6
#    16  16   8   8   8  16
#     4   8  14  26  44  65  89 116 147 185 232 285
#     4  10  17  27  45  73 102 119 142 187 241 282
#     4  10  19  28  42  69 100 123 151 200 253 290
#     4  10  18  29  46  67  95 124 158 193 240 284
#     4  10  20  34  51  70  94 126 166 204 238 276
#     4   9  18  32  50  69  90 119 159 199 232 270
#
# _framework density 23.674509
#
# number of rings (size 3 to 8) (size 9 to 14) (size 15 to 20)
#    0.000    2.667    1.111    4.000    0.000    3.556 
#    0.000    0.000    0.000    3.000    0.000   26.444 
#    0.000    0.000    0.000    0.000    0.000    0.000 
#
# Total GULP energy -201198.404143 kJ/mol
# GULP energy per Si atom -5588.844560 kJ/mol
# Density = 2.362062 g / cm^3
# Si number density = 23.674509 Si / 1000 Ang^3
#
#
#
# Elastic Constant Matrix: (Units=GPa)
#
#
# Indices 1 2 3 4 5 6 
#
# 1 202.0321 136.4128 33.7155 0.0000 0.0000 0.0000
# 2 136.4128 308.6577 43.4203 0.0000 0.0000 0.0000
# 3 33.7155 43.4203 86.0349 0.0000 0.0000 0.0000
# 4 0.0000 0.0000 0.0000 7.7272 0.0000 0.0000
# 5 0.0000 0.0000 0.0000 0.0000 -76.4496 0.0000
# 6 0.0000 0.0000 0.0000 0.0000 0.0000 41.7976
#
#
#
# Elastic Compliance Matrix: (Units=1/GPa)
#
#
# Indices 1 2 3 4 5 6 
#
# 1 0.007189 -0.002993 -0.001306 0.000000 0.000000 0.000000
# 2 -0.002993 0.004734 -0.001216 0.000000 0.000000 0.000000
# 3 -0.001306 -0.001216 0.012749 0.000000 0.000000 0.000000
# 4 0.000000 0.000000 0.000000 0.129414 0.000000 0.000000
# 5 0.000000 0.000000 0.000000 0.000000 -0.013081 0.000000
# 6 0.000000 0.000000 0.000000 0.000000 0.000000 0.023925
#
#
# Mechanical properties :
#
#
# Convention : Reuss Voigt Hill
#
# Bulk Modulus (GPa) = 73.31477 113.75797 93.53637
# Shear Modulus (GPa) = 27.69959 20.16009 23.92984
#
# Velocity S-wave (km/s) = 3.42426 2.92130 3.18273
# Velocity P-wave (km/s) = 6.83148 7.71582 7.28708
#
# Compressibility (1/GPa) = 0.01363982
#
# Stress axis : x y z
#
# Youngs Moduli (GPa) = 139.10394 211.24529 78.43818
#
# Poissons Ratio (x) = 0.63233 0.10248
# Poissons Ratio (y) = 0.41639 0.09538
# Poissons Ratio (z) = 0.18174 0.25688
#
# Static dielectric constant tensor:
#      x y z
#    x 1.814730 0.000000 0.000000 
#    y 0.000000 1.960730 0.000000 
#    z 0.000000 0.000000 2.102070 
# 
# From -- ./inp_files/31514.got.cif
#   From: 2010.05.17/outbox.cif.g08.bks.cpg/sg71_16_cif.got.tgz:31514.got - 2010.06.03 16:22:01.
