data_PCOD9517731
_publ_section_title
;
Structure prediction by ZEFSAII (Michael W. Deem and Ramdas Pophale) SiO2 
 PCOD9517731
Probable space group: I M M M
;
_chemical_formula_sum "Si O2"
_cell_formula_units_Z 104
_cell_length_a 23.567286
_cell_length_b 22.044064
_cell_length_c 13.173395
_cell_angle_alpha 90.000000
_cell_angle_beta 90.000000
_cell_angle_gamma 90.000000
_cell_volume 6843.825847
_symmetry_space_group_name_H-M "I M M M"
_symmetry_group_IT_number 71
_symmetry_cell_setting 'orthorhombic'
loop_
_space_group_symop_operation_xyz
x,y,z
-x,-y,z
x,-y,-z
-x,y,-z
-x,-y,-z
x,y,-z
-x,y,z
x,-y,z
1/2+x,1/2+y,1/2+z
1/2-x,1/2-y,1/2+z
1/2+x,1/2-y,1/2-z
1/2-x,1/2+y,1/2-z
1/2-x,1/2-y,1/2-z
1/2+x,1/2+y,1/2-z
1/2-x,1/2+y,1/2+z
1/2+x,1/2-y,1/2+z
loop_
_atom_site_type_symbol
_atom_site_label
_atom_site_fract_x
_atom_site_fract_y
_atom_site_fract_z
Si Si1 0.721827 0.801414 0.112616
Si Si2 0.334104 0.766520 0.319680
Si Si3 0.365138 0.568192 0.618764
Si Si4 0.758668 0.432422 0.307422
Si Si5 0.835964 0.593847 0.881390
Si Si6 0.434229 0.000000 0.377782
Si Si7 0.564182 0.314466 0.621969
O O1 0.685395 0.773390 0.203419
O O2 0.785426 0.774416 0.126970
O O3 0.720984 0.873951 0.129858
O O4 0.702150 0.786363 0.000000
O O5 0.338675 0.833599 0.367269
O O6 0.393414 0.733391 0.330162
O O7 0.346974 0.576585 0.500000
O O8 0.387817 0.500000 0.627173
O O9 0.309448 0.573282 0.688180
O O10 0.410821 0.618956 0.642371
O O11 0.772050 0.500000 0.348211
O O12 0.786996 0.427174 0.196451
O O13 0.894395 0.558382 0.852221
O O14 0.824605 0.579977 0.000000
O O15 0.500000 0.000000 0.339500
O O16 0.438622 0.000000 0.500000
O O17 0.565604 0.306065 0.500000
O O18 0.500000 0.308241 0.656784
#
# Coordination Sequence:
#
# PCOD9517731 Si02
#       7
#    16  16  16  16  16   8  16
#     4  10  19  32  50  71  99 129 157 196 247 293
#     4  10  20  32  48  72 100 127 160 201 241 291
#     4   9  17  29  45  67  98 130 159 195 237 284
#     4  10  18  28  47  72  98 128 160 195 240 282
#     4  10  19  31  47  69 100 130 160 199 241 289
#     4   9  18  32  48  66  93 129 162 195 239 287
#     4  10  19  31  48  70  99 132 164 198 237 286
#
# _framework density 15.196178
#
# number of rings (size 3 to 8) (size 9 to 14) (size 15 to 20)
#    0.000    2.231    2.308    1.846    0.000    1.846 
#    0.000    3.077    0.000    0.462    0.000    0.000 
#    0.000    7.077    0.000    4.769    0.000    0.308 
#
# Total GULP energy -289598.754996 kJ/mol
# GULP energy per Si atom -5569.206827 kJ/mol
# Density = 1.516159 g / cm^3
# Si number density = 15.196178 Si / 1000 Ang^3
#
#
#
# Elastic Constant Matrix: (Units=GPa)
#
#
# Indices 1 2 3 4 5 6 
#
# 1 108.8794 49.7622 32.6297 0.0000 0.0000 0.0000
# 2 49.7622 98.4329 23.1663 0.0000 0.0000 0.0000
# 3 32.6297 23.1663 61.1907 0.0000 0.0000 0.0000
# 4 0.0000 0.0000 0.0000 3.7038 0.0000 0.0000
# 5 0.0000 0.0000 0.0000 0.0000 17.6975 0.0000
# 6 0.0000 0.0000 0.0000 0.0000 0.0000 14.2903
#
#
#
# Elastic Compliance Matrix: (Units=1/GPa)
#
#
# Indices 1 2 3 4 5 6 
#
# 1 0.013180 -0.005499 -0.004946 0.000000 0.000000 0.000000
# 2 -0.005499 0.013447 -0.002159 0.000000 0.000000 0.000000
# 3 -0.004946 -0.002159 0.019797 0.000000 0.000000 0.000000
# 4 0.000000 0.000000 0.000000 0.269996 0.000000 0.000000
# 5 0.000000 0.000000 0.000000 0.000000 0.056505 0.000000
# 6 0.000000 0.000000 0.000000 0.000000 0.000000 0.069978
#
#
# Mechanical properties :
#
#
# Convention : Reuss Voigt Hill
#
# Bulk Modulus (GPa) = 47.13317 53.29105 50.21211
# Shear Modulus (GPa) = 10.52225 18.00130 14.26177
#
# Velocity S-wave (km/s) = 2.63426 3.44553 3.06684
# Velocity P-wave (km/s) = 6.35108 7.13959 6.75685
#
# Compressibility (1/GPa) = 0.02121648
#
# Stress axis : x y z
#
# Youngs Moduli (GPa) = 75.87200 74.36465 50.51207
#
# Poissons Ratio (x) = 0.40893 0.24985
# Poissons Ratio (y) = 0.41722 0.10904
# Poissons Ratio (z) = 0.37529 0.16053
#
# Static dielectric constant tensor:
#      x y z
#    x 1.488040 0.000000 0.000000 
#    y 0.000000 1.540660 0.000000 
#    z 0.000000 0.000000 1.493690 
# 
# From -- ./inp_files/27670.got.cif
#   From: 2010.05.17/outbox.cif.g08.bks.cpg/sg71_14_cif.got.tgz:27670.got - 2010.06.03 16:22:01.
