data_PCOD9517827
_publ_section_title
;
Structure prediction by ZEFSAII (Michael W. Deem and Ramdas Pophale) SiO2 
 PCOD9517827
Probable space group: I M M M
;
_chemical_formula_sum "Si O2"
_cell_formula_units_Z 112
_cell_length_a 11.590443
_cell_length_b 26.359745
_cell_length_c 23.000839
_cell_angle_alpha 90.000000
_cell_angle_beta 90.000000
_cell_angle_gamma 90.000000
_cell_volume 7027.242136
_symmetry_space_group_name_H-M "I M M M"
_symmetry_group_IT_number 71
_symmetry_cell_setting 'orthorhombic'
loop_
_space_group_symop_operation_xyz
x,y,z
-x,-y,z
x,-y,-z
-x,y,-z
-x,-y,-z
x,y,-z
-x,y,z
x,-y,z
1/2+x,1/2+y,1/2+z
1/2-x,1/2-y,1/2+z
1/2+x,1/2-y,1/2-z
1/2-x,1/2+y,1/2-z
1/2-x,1/2-y,1/2-z
1/2+x,1/2+y,1/2-z
1/2-x,1/2+y,1/2+z
1/2+x,1/2-y,1/2+z
loop_
_atom_site_type_symbol
_atom_site_label
_atom_site_fract_x
_atom_site_fract_y
_atom_site_fract_z
Si Si1 0.298293 0.864523 0.850012
Si Si2 0.368934 0.132907 0.654869
Si Si3 0.000000 0.758650 0.569257
Si Si4 0.363004 0.694553 0.566466
Si Si5 0.258745 0.698838 0.930718
Si Si6 0.137863 0.440036 0.744168
Si Si7 0.000000 0.363377 0.432515
Si Si8 0.868340 0.282667 0.743898
O O1 0.190854 0.842268 0.885441
O O2 0.288271 0.909660 0.803602
O O3 0.388310 0.881999 0.898769
O O4 0.352049 0.818016 0.812772
O O5 0.500000 0.126729 0.633623
O O6 0.287497 0.150520 0.603242
O O7 0.336194 0.083877 0.692753
O O8 0.368310 0.179018 0.701449
O O9 0.883481 0.783414 0.592282
O O10 0.000000 0.768321 0.500000
O O11 0.000000 0.698036 0.573614
O O12 0.321116 0.683048 0.500000
O O13 0.500000 0.691783 0.567027
O O14 0.323137 0.752183 0.578697
O O15 0.263002 0.690288 0.000000
O O16 0.153967 0.500000 0.741922
O O17 0.000000 0.428951 0.733658
O O18 0.000000 0.375866 0.500000
O O19 0.750000 0.250000 0.750000
O O20 0.000000 0.259529 0.741868
#
# Coordination Sequence:
#
# PCOD9517827 Si02
#       8
#    16  16   8  16  16  16   8  16
#     4  11  18  31  50  71  94 126 167 203 243 294
#     4   9  18  31  46  68  96 126 159 196 241 293
#     4   9  18  28  42  67 101 139 165 187 228 277
#     4  10  20  31  46  71 104 141 170 192 228 288
#     4  10  18  29  46  70 102 136 165 194 229 280
#     4   9  18  34  55  74  92 119 156 204 260 305
#     4  11  18  28  47  72 101 131 161 197 240 284
#     4  10  20  31  43  65  99 133 165 203 244 289
#
# _framework density 15.937973
#
# number of rings (size 3 to 8) (size 9 to 14) (size 15 to 20)
#    0.000    2.143    2.857    2.571    0.000    2.571 
#    0.000    0.000    1.571    3.000    0.000    3.000 
#    0.000    1.714    0.000    0.000    0.000    0.000 
#
# Total GULP energy -312040.256591 kJ/mol
# GULP energy per Si atom -5572.147439 kJ/mol
# Density = 1.590170 g / cm^3
# Si number density = 15.937973 Si / 1000 Ang^3
#
#
#
# Elastic Constant Matrix: (Units=GPa)
#
#
# Indices 1 2 3 4 5 6 
#
# 1 62.5863 23.3571 22.1277 0.0000 0.0000 0.0000
# 2 23.3571 65.9325 30.2342 0.0000 0.0000 0.0000
# 3 22.1277 30.2342 59.7756 0.0000 0.0000 0.0000
# 4 0.0000 0.0000 0.0000 17.0299 0.0000 0.0000
# 5 0.0000 0.0000 0.0000 0.0000 23.5554 0.0000
# 6 0.0000 0.0000 0.0000 0.0000 0.0000 14.1128
#
#
#
# Elastic Compliance Matrix: (Units=1/GPa)
#
#
# Indices 1 2 3 4 5 6 
#
# 1 0.019428 -0.004667 -0.004831 0.000000 0.000000 0.000000
# 2 -0.004667 0.020868 -0.008827 0.000000 0.000000 0.000000
# 3 -0.004831 -0.008827 0.022983 0.000000 0.000000 0.000000
# 4 0.000000 0.000000 0.000000 0.058720 0.000000 0.000000
# 5 0.000000 0.000000 0.000000 0.000000 0.042453 0.000000
# 6 0.000000 0.000000 0.000000 0.000000 0.000000 0.070858
#
#
# Mechanical properties :
#
#
# Convention : Reuss Voigt Hill
#
# Bulk Modulus (GPa) = 37.55551 37.74803 37.65177
# Shear Modulus (GPa) = 17.80394 18.44465 18.12429
#
# Velocity S-wave (km/s) = 3.34590 3.40557 3.37586
# Velocity P-wave (km/s) = 6.20817 6.26096 6.23462
#
# Compressibility (1/GPa) = 0.02662725
#
# Stress axis : x y z
#
# Youngs Moduli (GPa) = 51.47272 47.91957 43.51130
#
# Poissons Ratio (x) = 0.22364 0.21021
# Poissons Ratio (y) = 0.24022 0.38409
# Poissons Ratio (z) = 0.24867 0.42301
#
# Static dielectric constant tensor:
#      x y z
#    x 1.561330 0.000000 0.000000 
#    y 0.000000 1.507660 0.000000 
#    z 0.000000 0.000000 1.572730 
# 
# From -- ./inp_files/59159.got.cif
#   From: 2010.05.17/outbox.cif.g08.bks.cpg/sg71_30_cif.got.tgz:59159.got - 2010.06.03 16:22:01.
