data_PCOD9517158
_publ_section_title
;
Structure prediction by ZEFSAII (Michael W. Deem and Ramdas Pophale) SiO2 
 PCOD9517158
Probable space group: F D D D
;
_chemical_formula_sum "Si O2"
_cell_formula_units_Z 54
_cell_length_a 12.000000
_cell_length_b 30.000000
_cell_length_c 30.000000
_cell_angle_alpha 90.000000
_cell_angle_beta 90.000000
_cell_angle_gamma 90.000000
_cell_volume 10800.000000
_symmetry_space_group_name_H-M "F D D D"
_symmetry_group_IT_number 70
_space_group.IT_coordinate_system_code '2'
_symmetry_cell_setting 'orthorhombic'
loop_
_space_group_symop_operation_xyz
x,y,z
1/4-x,1/4-y,z
x,1/4-y,1/4-z
1/4-x,y,1/4-z
-x,-y,-z
3/4+x,3/4+y,-z
-x,3/4+y,3/4+z
3/4+x,-y,3/4+z
x,1/2+y,1/2+z
1/4-x,3/4-y,1/2+z
x,3/4-y,3/4-z
1/4-x,1/2+y,3/4-z
-x,1/2-y,1/2-z
3/4+x,1/4+y,1/2-z
-x,1/4+y,1/4+z
3/4+x,1/2-y,1/4+z
1/2+x,y,1/2+z
3/4-x,1/4-y,1/2+z
1/2+x,1/4-y,3/4-z
3/4-x,y,3/4-z
1/2-x,-y,1/2-z
1/4+x,3/4+y,1/2-z
1/2-x,3/4+y,1/4+z
1/4+x,-y,1/4+z
1/2+x,1/2+y,z
3/4-x,3/4-y,z
1/2+x,3/4-y,1/4-z
3/4-x,1/2+y,1/4-z
1/2-x,1/2-y,-z
1/4+x,1/4+y,-z
1/2-x,1/4+y,3/4+z
1/4+x,1/2-y,3/4+z
loop_
_atom_site_type_symbol
_atom_site_label
_atom_site_fract_x
_atom_site_fract_y
_atom_site_fract_z
Si Si1 0.375000 0.375000 0.133703
Si Si2 0.241483 0.370349 0.298462
Si Si3 0.780427 0.190988 0.837041
Si Si4 0.301291 0.558171 0.578334
Si Si5 0.863133 0.525814 0.579691
Si Si6 0.610173 0.492460 0.070759
Si Si7 0.625000 0.125000 0.625000
Si Si8 0.329004 0.608328 0.949006
O O1 0.329486 0.416710 0.106211
O O2 0.266980 0.360567 0.161678
O O3 0.375000 0.375000 0.311153
O O4 0.154599 0.411471 0.309396
O O5 0.186303 0.324622 0.317543
O O6 0.232721 0.364495 0.245586
O O7 0.875000 0.200655 0.875000
O O8 0.729106 0.237582 0.819100
O O9 0.838533 0.151040 0.808121
O O10 0.360510 0.529830 0.617522
O O11 0.216834 0.522494 0.553836
O O12 0.209191 0.593390 0.597295
O O13 0.987610 0.513920 0.560421
O O14 0.625000 0.492129 0.125000
O O15 0.616238 0.440959 0.054472
#
# Coordination Sequence:
#
# PCOD9517158 Si02
#       8
#    16  32  32  32  32  32   8  32
#     4  10  18  42  65  88 123 168 213 268 314 387
#     4  12  27  43  60  91 142 178 206 260 329 404
#     4  10  22  37  65  94 122 165 225 273 315 377
#     4  11  21  40  71  97 126 171 228 270 325 378
#     4  11  22  40  64  97 124 164 225 273 316 380
#     4  10  20  40  71  98 120 162 223 281 324 374
#     4  12  16  44  68 100 120 164 220 282 312 374
#     4  11  23  42  62  94 134 173 208 261 338 392
#
# _framework density 5.0
#
# number of rings (size 3 to 8) (size 9 to 14) (size 15 to 20)
#    0.000    1.185    4.444    4.000    2.074    2.370 
#    0.000    6.667    0.000    0.000    0.000    0.000 
#    0.000    0.000    0.000    0.000    0.000    0.000 
#
# Total GULP energy -301103.784719 kJ/mol
# GULP energy per Si atom -5575.996013 kJ/mol
# Density = 0.498862 g / cm^3
# Si number density = 5.000000 Si / 1000 Ang^3
#
#
#
# Elastic Constant Matrix: (Units=GPa)
#
#
# Indices 1 2 3 4 5 6 
#
# 1 153.2310 58.4887 11.0311 0.0000 0.0000 0.0000
# 2 58.4887 138.5800 7.4199 0.0000 0.0000 0.0000
# 3 11.0311 7.4199 22.9062 0.0000 0.0000 0.0000
# 4 0.0000 0.0000 0.0000 10.6806 0.0000 0.0000
# 5 0.0000 0.0000 0.0000 0.0000 24.1397 0.0000
# 6 0.0000 0.0000 0.0000 0.0000 0.0000 56.5665
#
#
#
# Elastic Compliance Matrix: (Units=1/GPa)
#
#
# Indices 1 2 3 4 5 6 
#
# 1 0.007951 -0.003206 -0.002790 0.000000 0.000000 0.000000
# 2 -0.003206 0.008636 -0.001253 0.000000 0.000000 0.000000
# 3 -0.002790 -0.001253 0.045406 0.000000 0.000000 0.000000
# 4 0.000000 0.000000 0.000000 0.093628 0.000000 0.000000
# 5 0.000000 0.000000 0.000000 0.000000 0.041426 0.000000
# 6 0.000000 0.000000 0.000000 0.000000 0.000000 0.017678
#
#
# Mechanical properties :
#
#
# Convention : Reuss Voigt Hill
#
# Bulk Modulus (GPa) = 21.05568 52.06630 36.56099
# Shear Modulus (GPa) = 20.40347 34.12918 27.26632
#
# Velocity S-wave (km/s) = 3.19748 4.13541 3.69632
# Velocity P-wave (km/s) = 4.91757 6.99227 6.04460
#
# Compressibility (1/GPa) = 0.04749313
#
# Stress axis : x y z
#
# Youngs Moduli (GPa) = 125.77316 115.78892 22.02348
#
# Poissons Ratio (x) = 0.37125 0.06145
# Poissons Ratio (y) = 0.40327 0.02761
# Poissons Ratio (z) = 0.35095 0.14514
#
# Static dielectric constant tensor:
#      x y z
#    x 1.698820 0.000000 0.000000 
#    y 0.000000 1.740180 0.000000 
#    z 0.000000 0.000000 1.760660 
# 
# From -- ./inp_files/65184.got.cif
#   From: 2010.05.17/outbox.ucp.g08.bks.cvg/sg70_33_cif.got.tgz:65184.got - 2010.06.11 16:26:41.
