data_PCOD9517391
_publ_section_title
;
Structure prediction by ZEFSAII (Michael W. Deem and Ramdas Pophale) SiO2 
 PCOD9517391
Probable space group: I M M M
;
_chemical_formula_sum "Si O2"
_cell_formula_units_Z 104
_cell_length_a 25.134105
_cell_length_b 29.051576
_cell_length_c 7.448465
_cell_angle_alpha 90.000000
_cell_angle_beta 90.000000
_cell_angle_gamma 90.000000
_cell_volume 5438.760109
_symmetry_space_group_name_H-M "I M M M"
_symmetry_group_IT_number 71
_symmetry_cell_setting 'orthorhombic'
loop_
_space_group_symop_operation_xyz
x,y,z
-x,-y,z
x,-y,-z
-x,y,-z
-x,-y,-z
x,y,-z
-x,y,z
x,-y,z
1/2+x,1/2+y,1/2+z
1/2-x,1/2-y,1/2+z
1/2+x,1/2-y,1/2-z
1/2-x,1/2+y,1/2-z
1/2-x,1/2-y,1/2-z
1/2+x,1/2+y,1/2-z
1/2-x,1/2+y,1/2+z
1/2+x,1/2-y,1/2+z
loop_
_atom_site_type_symbol
_atom_site_label
_atom_site_fract_x
_atom_site_fract_y
_atom_site_fract_z
Si Si1 0.104310 0.144567 0.782523
Si Si2 0.180095 0.307292 0.293020
Si Si3 0.000000 0.800593 0.218686
Si Si4 0.000000 0.695303 0.782676
Si Si5 0.408427 0.874673 0.205380
Si Si6 0.500000 0.945454 0.780531
Si Si7 0.701060 0.706946 0.206838
Si Si8 0.561458 0.550527 0.718689
O O1 0.052693 0.173031 0.723384
O O2 0.156748 0.168764 0.717197
O O3 0.097156 0.092421 0.721561
O O4 0.105040 0.145275 0.000000
O O5 0.161972 0.304764 0.500000
O O6 0.145487 0.350217 0.216760
O O7 0.244094 0.311839 0.288666
O O8 0.176285 0.254888 0.216130
O O9 0.000000 0.747883 0.274925
O O10 0.000000 0.801221 0.000000
O O11 0.949050 0.668077 0.713180
O O12 0.000000 0.693260 0.000000
O O13 0.446492 0.916669 0.278147
O O14 0.396262 0.888556 0.000000
O O15 0.500000 0.000000 0.731068
O O16 0.500000 0.943268 0.000000
O O17 0.714345 0.717426 0.000000
O O18 0.561506 0.550533 0.500000
O O19 0.500000 0.558323 0.770857
O O20 0.577820 0.500000 0.778810
#
# Coordination Sequence:
#
# PCOD9517391 Si02
#       8
#    16  16   8   8  16   8  16  16
#     4  10  17  28  45  65  90 119 150 186 229 273
#     4   9  18  33  49  65  86 120 160 192 224 266
#     4   9  17  26  39  63  92 120 149 181 220 267
#     4  10  18  26  39  64  96 124 147 173 212 265
#     4   9  17  30  48  67  90 119 151 184 221 268
#     4   8  14  26  47  75  99 116 139 179 230 275
#     4  10  20  31  45  66  92 119 153 193 230 271
#     4   8  13  23  42  66  87 109 144 188 226 260
#
# _framework density 19.122005999999999
#
# number of rings (size 3 to 8) (size 9 to 14) (size 15 to 20)
#    0.000    2.846    0.769    2.538    0.000    1.231 
#    0.000    1.154    0.000    5.077    0.000    5.385 
#    0.000    0.000    0.000    0.000    0.000    0.000 
#
# Total GULP energy -289527.818429 kJ/mol
# GULP energy per Si atom -5567.842662 kJ/mol
# Density = 1.907848 g / cm^3
# Si number density = 19.122006 Si / 1000 Ang^3
#
#
#
# Elastic Constant Matrix: (Units=GPa)
#
#
# Indices 1 2 3 4 5 6 
#
# 1 110.5203 82.1156 -0.9927 0.0000 0.0000 0.0000
# 2 82.1156 163.9974 2.0052 0.0000 0.0000 0.0000
# 3 -0.9927 2.0052 59.9136 0.0000 0.0000 0.0000
# 4 0.0000 0.0000 0.0000 10.3649 0.0000 0.0000
# 5 0.0000 0.0000 0.0000 0.0000 6.0432 0.0000
# 6 0.0000 0.0000 0.0000 0.0000 0.0000 41.6162
#
#
#
# Elastic Compliance Matrix: (Units=1/GPa)
#
#
# Indices 1 2 3 4 5 6 
#
# 1 0.014422 -0.007227 0.000481 0.000000 0.000000 0.000000
# 2 -0.007227 0.009722 -0.000445 0.000000 0.000000 0.000000
# 3 0.000481 -0.000445 0.016714 0.000000 0.000000 0.000000
# 4 0.000000 0.000000 0.000000 0.096479 0.000000 0.000000
# 5 0.000000 0.000000 0.000000 0.000000 0.165477 0.000000
# 6 0.000000 0.000000 0.000000 0.000000 0.000000 0.024029
#
#
# Mechanical properties :
#
#
# Convention : Reuss Voigt Hill
#
# Bulk Modulus (GPa) = 37.77207 55.63194 46.70201
# Shear Modulus (GPa) = 14.28365 28.35840 21.32103
#
# Velocity S-wave (km/s) = 2.73605 3.85518 3.34278
# Velocity P-wave (km/s) = 5.45686 6.99806 6.27496
#
# Compressibility (1/GPa) = 0.02647459
#
# Stress axis : x y z
#
# Youngs Moduli (GPa) = 69.33738 102.86063 59.83161
#
# Poissons Ratio (x) = 0.74340 -0.02877
# Poissons Ratio (y) = 0.50112 0.02663
# Poissons Ratio (z) = -0.03334 0.04579
#
# Static dielectric constant tensor:
#      x y z
#    x 1.655520 0.000000 0.000000 
#    y 0.000000 1.675330 0.000000 
#    z 0.000000 0.000000 1.790130 
# 
# From -- ./inp_files/13663.got.cif
#   From: 2010.05.17/outbox.cif.g08.bks.cpg/sg71_7_cif.got.tgz:13663.got - 2010.06.03 16:22:01.
