data_PCOD9517844
_publ_section_title
;
Structure prediction by ZEFSAII (Michael W. Deem and Ramdas Pophale) SiO2 
 PCOD9517844
Probable space group: I M M M
;
_chemical_formula_sum "Si O2"
_cell_formula_units_Z 96
_cell_length_a 31.202018
_cell_length_b 19.405356
_cell_length_c 7.344584
_cell_angle_alpha 90.000000
_cell_angle_beta 90.000000
_cell_angle_gamma 90.000000
_cell_volume 4447.044750
_symmetry_space_group_name_H-M "I M M M"
_symmetry_group_IT_number 71
_symmetry_cell_setting 'orthorhombic'
loop_
_space_group_symop_operation_xyz
x,y,z
-x,-y,z
x,-y,-z
-x,y,-z
-x,-y,-z
x,y,-z
-x,y,z
x,-y,z
1/2+x,1/2+y,1/2+z
1/2-x,1/2-y,1/2+z
1/2+x,1/2-y,1/2-z
1/2-x,1/2+y,1/2-z
1/2-x,1/2-y,1/2-z
1/2+x,1/2+y,1/2-z
1/2-x,1/2+y,1/2+z
1/2+x,1/2-y,1/2+z
loop_
_atom_site_type_symbol
_atom_site_label
_atom_site_fract_x
_atom_site_fract_y
_atom_site_fract_z
Si Si1 0.272735 0.175592 0.718005
Si Si2 0.951855 0.580820 0.778618
Si Si3 0.451055 0.424840 0.778541
Si Si4 0.380351 0.678465 0.779153
Si Si5 0.802773 0.078851 0.277986
Si Si6 0.630890 0.835905 0.707844
O O1 0.275788 0.171703 0.500000
O O2 0.250000 0.250000 0.750000
O O3 0.241181 0.115084 0.780052
O O4 0.320978 0.164094 0.789739
O O5 0.947309 0.500000 0.731941
O O6 0.910197 0.623378 0.713920
O O7 0.000000 0.603457 0.719378
O O8 0.952258 0.585450 0.000000
O O9 0.500000 0.419521 0.720114
O O10 0.433828 0.500000 0.723936
O O11 0.422225 0.362413 0.719282
O O12 0.450826 0.424428 0.000000
O O13 0.340430 0.630938 0.723273
O O14 0.379567 0.755078 0.706852
O O15 0.379468 0.682887 0.000000
O O16 0.803415 0.077475 0.500000
O O17 0.807909 0.000000 0.217822
O O18 0.635004 0.861801 0.500000
#
# Coordination Sequence:
#
# PCOD9517844 Si02
#       6
#    16  16  16  16  16  16
#     4  10  19  32  49  69  96 128 158 196 244 290
#     4   8  15  30  51  73  98 128 162 202 248 294
#     4   8  14  25  42  65  91 118 153 198 237 266
#     4  10  18  29  47  69  94 126 158 190 233 286
#     4   9  17  29  47  70  91 117 158 200 233 271
#     4  10  20  31  48  74  99 124 157 197 240 287
#
# _framework density 21.587368000000001
#
# number of rings (size 3 to 8) (size 9 to 14) (size 15 to 20)
#    0.000    2.833    1.667    1.500    0.000    3.333 
#    0.000    3.333    0.000    4.000    0.000    4.667 
#    0.000    0.000    0.000    0.000    0.000    0.000 
#
# Total GULP energy -267782.239826 kJ/mol
# GULP energy per Si atom -5578.796663 kJ/mol
# Density = 2.153823 g / cm^3
# Si number density = 21.587368 Si / 1000 Ang^3
#
#
#
# Elastic Constant Matrix: (Units=GPa)
#
#
# Indices 1 2 3 4 5 6 
#
# 1 172.5157 81.3567 5.6554 0.0000 0.0000 0.0000
# 2 81.3567 113.4419 -3.7374 0.0000 0.0000 0.0000
# 3 5.6554 -3.7374 82.3524 0.0000 0.0000 0.0000
# 4 0.0000 0.0000 0.0000 17.8829 0.0000 0.0000
# 5 0.0000 0.0000 0.0000 0.0000 -2.8341 0.0000
# 6 0.0000 0.0000 0.0000 0.0000 0.0000 47.6173
#
#
#
# Elastic Compliance Matrix: (Units=1/GPa)
#
#
# Indices 1 2 3 4 5 6 
#
# 1 0.008824 -0.006358 -0.000895 0.000000 0.000000 0.000000
# 2 -0.006358 0.013409 0.001045 0.000000 0.000000 0.000000
# 3 -0.000895 0.001045 0.012252 0.000000 0.000000 0.000000
# 4 0.000000 0.000000 0.000000 0.055919 0.000000 0.000000
# 5 0.000000 0.000000 0.000000 0.000000 -0.352847 0.000000
# 6 0.000000 0.000000 0.000000 0.000000 0.000000 0.021001
#
#
# Mechanical properties :
#
#
# Convention : Reuss Voigt Hill
#
# Bulk Modulus (GPa) = 45.30898 59.42883 52.36890
# Shear Modulus (GPa) = -22.55597 31.53559 4.48981
#
# Velocity S-wave (km/s) = -3.23595 3.82623 1.44373
# Velocity P-wave (km/s) = 2.65940 6.86362 5.20489
#
# Compressibility (1/GPa) = 0.02207068
#
# Stress axis : x y z
#
# Youngs Moduli (GPa) = 113.32438 74.57568 81.62069
#
# Poissons Ratio (x) = 0.47415 0.07301
# Poissons Ratio (y) = 0.72051 -0.08531
# Poissons Ratio (z) = 0.10137 -0.07794
#
# Static dielectric constant tensor:
#      x y z
#    x 1.798980 0.000000 0.000000 
#    y 0.000000 1.719790 0.000000 
#    z 0.000000 0.000000 1.937870 
# 
# From -- ./inp_files/28784.got.cif
#   From: 2010.05.17/outbox.cif.g08.bks.cpg/sg71_15_cif.got.tgz:28784.got - 2010.06.03 16:22:01.
