data_PCOD9517987
_publ_section_title
;
Structure prediction by ZEFSAII (Michael W. Deem and Ramdas Pophale) SiO2 
 PCOD9517987
Probable space group: I M M M
;
_chemical_formula_sum "Si O2"
_cell_formula_units_Z 96
_cell_length_a 7.293176
_cell_length_b 34.266984
_cell_length_c 16.486118
_cell_angle_alpha 90.000000
_cell_angle_beta 90.000000
_cell_angle_gamma 90.000000
_cell_volume 4120.130575
_symmetry_space_group_name_H-M "I M M M"
_symmetry_group_IT_number 71
_symmetry_cell_setting 'orthorhombic'
loop_
_space_group_symop_operation_xyz
x,y,z
-x,-y,z
x,-y,-z
-x,y,-z
-x,-y,-z
x,y,-z
-x,y,z
x,-y,z
1/2+x,1/2+y,1/2+z
1/2-x,1/2-y,1/2+z
1/2+x,1/2-y,1/2-z
1/2-x,1/2+y,1/2-z
1/2-x,1/2-y,1/2-z
1/2+x,1/2+y,1/2-z
1/2-x,1/2+y,1/2+z
1/2+x,1/2-y,1/2+z
loop_
_atom_site_type_symbol
_atom_site_label
_atom_site_fract_x
_atom_site_fract_y
_atom_site_fract_z
Si Si1 0.276424 0.423417 0.588543
Si Si2 0.786632 0.840844 0.147106
Si Si3 0.776832 0.044355 0.736742
Si Si4 0.223076 0.100758 0.409481
Si Si5 0.723873 0.321493 0.175397
Si Si6 0.720408 0.754549 0.089954
O O1 0.216293 0.438294 0.500000
O O2 0.500000 0.425715 0.587315
O O3 0.217664 0.378088 0.598365
O O4 0.218246 0.443820 0.672269
O O5 0.709141 0.835298 0.236983
O O6 0.775267 0.798929 0.105451
O O7 0.000000 0.850104 0.159356
O O8 0.716842 0.073441 0.665151
O O9 0.000000 0.046104 0.737433
O O10 0.723425 0.000000 0.719266
O O11 0.282809 0.089366 0.500000
O O12 0.273911 0.145374 0.389107
O O13 0.000000 0.099351 0.409365
O O14 0.500000 0.320267 0.177608
O O15 0.785890 0.278059 0.152805
O O16 0.500000 0.754310 0.092527
O O17 0.777910 0.742525 0.000000
#
# Coordination Sequence:
#
# PCOD9517987 Si02
#       6
#    16  16  16  16  16  16
#     4   9  16  26  40  58  81 112 149 184 220 267
#     4  10  18  30  48  66  87 119 158 192 223 265
#     4   9  16  25  36  54  82 113 146 184 224 267
#     4   9  15  24  39  57  80 114 152 184 219 269
#     4   9  16  28  44  61  83 114 151 187 223 267
#     4  10  20  31  43  64  92 119 152 192 229 267
#
# _framework density 23.300232999999999
#
# number of rings (size 3 to 8) (size 9 to 14) (size 15 to 20)
#    0.000    2.667    1.667    1.500    0.000    3.667 
#    0.000    3.333    0.000    0.000    0.000    0.000 
#    0.000    0.667    0.000    3.500    0.000    5.833 
#
# Total GULP energy -268087.274557 kJ/mol
# GULP energy per Si atom -5585.151553 kJ/mol
# Density = 2.324720 g / cm^3
# Si number density = 23.300233 Si / 1000 Ang^3
#
#
#
# Elastic Constant Matrix: (Units=GPa)
#
#
# Indices 1 2 3 4 5 6 
#
# 1 91.8629 -13.8085 -7.0570 0.0000 0.0000 0.0000
# 2 -13.8085 68.0806 -3.9394 -0.0001 0.0001 0.0000
# 3 -7.0570 -3.9394 107.1133 -0.0002 0.0001 0.0000
# 4 0.0000 -0.0001 -0.0002 3.2276 0.0001 0.0000
# 5 0.0000 0.0001 0.0001 0.0001 -30.8868 0.0000
# 6 0.0000 0.0000 0.0000 0.0000 0.0000 -5.3427
#
#
#
# Elastic Compliance Matrix: (Units=1/GPa)
#
#
# Indices 1 2 3 4 5 6 
#
# 1 0.011301 0.002340 0.000831 0.000000 0.000000 0.000000
# 2 0.002340 0.015204 0.000713 0.000000 0.000000 0.000000
# 3 0.000831 0.000713 0.009417 0.000001 0.000000 0.000000
# 4 0.000000 0.000000 0.000001 0.309827 0.000001 0.000001
# 5 0.000000 0.000000 0.000000 0.000001 -0.032376 0.000000
# 6 0.000000 0.000000 0.000000 0.000001 0.000000 -0.187173
#
#
# Mechanical properties :
#
#
# Convention : Reuss Voigt Hill
#
# Bulk Modulus (GPa) = 22.88788 24.16078 23.52433
# Shear Modulus (GPa) = 37.59515 12.85707 25.22611
#
# Velocity S-wave (km/s) = 4.02121 2.35159 3.29394
# Velocity P-wave (km/s) = 5.60397 4.21487 4.95831
#
# Compressibility (1/GPa) = 0.04369125
#
# Stress axis : x y z
#
# Youngs Moduli (GPa) = 88.48472 65.77035 106.19240
#
# Poissons Ratio (x) = -0.15392 -0.08821
# Poissons Ratio (y) = -0.20708 -0.07575
# Poissons Ratio (z) = -0.07350 -0.04692
#
# Static dielectric constant tensor:
#      x y z
#    x 1.910130 0.000000 0.000000 
#    y 0.000000 1.827620 0.000000 
#    z 0.000000 0.000000 1.856130 
# 
# From -- ./inp_files/43708.got.cif
#   From: 2010.05.17/outbox.cif.g08.bks.cpg/sg71_22_cif.got.tgz:43708.got - 2010.06.03 16:22:01.
