data_PCOD9517542
_publ_section_title
;
Structure prediction by ZEFSAII (Michael W. Deem and Ramdas Pophale) SiO2 
 PCOD9517542
Probable space group: I M M M
;
_chemical_formula_sum "Si O2"
_cell_formula_units_Z 96
_cell_length_a 17.400624
_cell_length_b 14.151348
_cell_length_c 26.783967
_cell_angle_alpha 90.000000
_cell_angle_beta 90.000000
_cell_angle_gamma 90.000000
_cell_volume 6595.345253
_symmetry_space_group_name_H-M "I M M M"
_symmetry_group_IT_number 71
_symmetry_cell_setting 'orthorhombic'
loop_
_space_group_symop_operation_xyz
x,y,z
-x,-y,z
x,-y,-z
-x,y,-z
-x,-y,-z
x,y,-z
-x,y,z
x,-y,z
1/2+x,1/2+y,1/2+z
1/2-x,1/2-y,1/2+z
1/2+x,1/2-y,1/2-z
1/2-x,1/2+y,1/2-z
1/2-x,1/2-y,1/2-z
1/2+x,1/2+y,1/2-z
1/2-x,1/2+y,1/2+z
1/2+x,1/2-y,1/2+z
loop_
_atom_site_type_symbol
_atom_site_label
_atom_site_fract_x
_atom_site_fract_y
_atom_site_fract_z
Si Si1 0.357186 0.609408 0.793499
Si Si2 0.092121 0.720844 0.769225
Si Si3 0.223976 0.112278 0.443409
Si Si4 0.911447 0.213342 0.390934
Si Si5 0.689956 0.890192 0.656449
Si Si6 0.093170 0.393341 0.669867
O O1 0.374685 0.500000 0.784213
O O2 0.375225 0.677847 0.747518
O O3 0.405070 0.649262 0.840804
O O4 0.268758 0.617106 0.811414
O O5 0.128629 0.678667 0.818953
O O6 0.114456 0.649791 0.723682
O O7 0.000000 0.725081 0.771466
O O8 0.249227 0.130009 0.500000
O O9 0.146988 0.169453 0.430300
O O10 0.285569 0.133692 0.400150
O O11 0.207086 0.000000 0.438258
O O12 0.885248 0.317198 0.372237
O O13 0.000000 0.216300 0.407292
O O14 0.664753 0.000000 0.658364
O O15 0.121604 0.500000 0.663250
O O16 0.000000 0.395593 0.669178
#
# Coordination Sequence:
#
# PCOD9517542 Si02
#       6
#    16  16  16  16  16  16
#     4   9  17  28  41  60  90 123 145 162 195 248
#     4  10  18  26  41  65  89 113 142 175 207 241
#     4   9  18  31  45  60  78 104 137 172 214 258
#     4   9  16  25  40  62  85 110 139 170 204 242
#     4   9  17  29  44  60  82 113 143 171 205 248
#     4   8  14  24  37  56  84 113 136 159 192 236
#
# _framework density 14.555720000000001
#
# number of rings (size 3 to 8) (size 9 to 14) (size 15 to 20)
#    0.000    3.000    0.000    4.000    0.000    3.667 
#    0.000    0.833    0.000    1.000    0.000    4.667 
#    0.000    0.000    0.000    1.500    0.000    0.000 
#
# Total GULP energy -267319.845016 kJ/mol
# GULP energy per Si atom -5569.163438 kJ/mol
# Density = 1.452259 g / cm^3
# Si number density = 14.555720 Si / 1000 Ang^3
#
#
#
# Elastic Constant Matrix: (Units=GPa)
#
#
# Indices 1 2 3 4 5 6 
#
# 1 20.0038 26.8506 28.3729 0.0000 0.0000 0.0000
# 2 26.8506 102.2876 45.1001 0.0000 0.0000 0.0000
# 3 28.3729 45.1001 84.2618 0.0000 0.0000 0.0000
# 4 0.0000 0.0000 0.0000 18.0147 0.0000 0.0000
# 5 0.0000 0.0000 0.0000 0.0000 10.0374 0.0000
# 6 0.0000 0.0000 0.0000 0.0000 0.0000 12.4016
#
#
#
# Elastic Compliance Matrix: (Units=1/GPa)
#
#
# Indices 1 2 3 4 5 6 
#
# 1 0.114823 -0.017138 -0.029491 0.000000 0.000000 0.000000
# 2 -0.017138 0.015354 -0.002447 0.000000 0.000000 0.000000
# 3 -0.029491 -0.002447 0.023108 0.000000 0.000000 0.000000
# 4 0.000000 0.000000 0.000000 0.055510 0.000000 0.000000
# 5 0.000000 0.000000 0.000000 0.000000 0.099628 0.000000
# 6 0.000000 0.000000 0.000000 0.000000 0.000000 0.080635
#
#
# Mechanical properties :
#
#
# Convention : Reuss Voigt Hill
#
# Bulk Modulus (GPa) = 18.13797 45.24450 31.69124
# Shear Modulus (GPa) = 9.88947 15.17270 12.53109
#
# Velocity S-wave (km/s) = 2.60940 3.23211 2.93730
# Velocity P-wave (km/s) = 4.64400 6.71415 5.77263
#
# Compressibility (1/GPa) = 0.05513296
#
# Stress axis : x y z
#
# Youngs Moduli (GPa) = 8.70902 65.12855 43.27542
#
# Poissons Ratio (x) = 1.11620 1.27622
# Poissons Ratio (y) = 0.14926 0.10591
# Poissons Ratio (z) = 0.25683 0.15939
#
# Static dielectric constant tensor:
#      x y z
#    x 1.480560 0.000000 0.000000 
#    y 0.000000 1.495910 0.000000 
#    z 0.000000 0.000000 1.477230 
# 
# From -- ./inp_files/65950.got.cif
#   From: 2010.05.17/outbox.cif.g08.bks.cpg/sg71_33_cif.got.tgz:65950.got - 2010.06.03 16:22:01.
