data_PCOD9517972
_publ_section_title
;
Structure prediction by ZEFSAII (Michael W. Deem and Ramdas Pophale) SiO2 
 PCOD9517972
Probable space group: I M M M
;
_chemical_formula_sum "Si O2"
_cell_formula_units_Z 96
_cell_length_a 28.482565
_cell_length_b 8.161956
_cell_length_c 21.808790
_cell_angle_alpha 90.000000
_cell_angle_beta 90.000000
_cell_angle_gamma 90.000000
_cell_volume 5069.964484
_symmetry_space_group_name_H-M "I M M M"
_symmetry_group_IT_number 71
_symmetry_cell_setting 'orthorhombic'
loop_
_space_group_symop_operation_xyz
x,y,z
-x,-y,z
x,-y,-z
-x,y,-z
-x,-y,-z
x,y,-z
-x,y,z
x,-y,z
1/2+x,1/2+y,1/2+z
1/2-x,1/2-y,1/2+z
1/2+x,1/2-y,1/2-z
1/2-x,1/2+y,1/2-z
1/2-x,1/2-y,1/2-z
1/2+x,1/2+y,1/2-z
1/2-x,1/2+y,1/2+z
1/2+x,1/2-y,1/2+z
loop_
_atom_site_type_symbol
_atom_site_label
_atom_site_fract_x
_atom_site_fract_y
_atom_site_fract_z
Si Si1 0.855647 0.808983 0.674989
Si Si2 0.447255 0.300138 0.760117
Si Si3 0.897959 0.800163 0.866229
Si Si4 0.767642 0.310093 0.613538
Si Si5 0.105981 0.808928 0.000000
Si Si6 0.709944 0.815090 0.500000
Si Si7 0.308441 0.192502 0.702141
O O1 0.907515 0.743689 0.691763
O O2 0.822408 0.724261 0.625301
O O3 0.828659 0.788482 0.739786
O O4 0.858805 0.000000 0.659381
O O5 0.500000 0.244873 0.772791
O O6 0.446461 0.500000 0.762008
O O7 0.431411 0.255783 0.690838
O O8 0.847597 0.723341 0.850073
O O9 0.893465 0.000000 0.866304
O O10 0.911643 0.743812 0.934435
O O11 0.760060 0.500000 0.601503
O O12 0.743000 0.214028 0.558625
O O13 0.739696 0.259864 0.674998
O O14 0.162938 0.794091 0.000000
O O15 0.093266 0.000000 0.000000
O O16 0.692164 0.000000 0.500000
O O17 0.304910 0.000000 0.716435
#
# Coordination Sequence:
#
# PCOD9517972 Si02
#       7
#    16  16  16  16   8   8  16
#     4  10  20  34  52  75 102 133 170 213 258 308
#     4   8  15  30  52  76 101 130 167 215 267 311
#     4   9  17  29  47  70  99 136 177 217 258 303
#     4  12  23  36  51  72 104 138 171 208 251 302
#     4  10  18  30  47  68 100 141 180 215 252 293
#     4  12  24  36  52  75 102 140 179 211 244 296
#     4  11  20  31  48  72 102 135 173 212 254 304
#
# _framework density 18.935044000000001
#
# number of rings (size 3 to 8) (size 9 to 14) (size 15 to 20)
#    0.000    1.833    1.667    5.750    0.000    0.000 
#    0.000    0.417    0.000   15.000    0.000    0.583 
#    0.000   10.667    0.000    0.000    0.000    0.000 
#
# Total GULP energy -267833.462034 kJ/mol
# GULP energy per Si atom -5579.863792 kJ/mol
# Density = 1.889195 g / cm^3
# Si number density = 18.935044 Si / 1000 Ang^3
#
#
#
# Elastic Constant Matrix: (Units=GPa)
#
#
# Indices 1 2 3 4 5 6 
#
# 1 97.6119 -3.5813 -1.7902 0.0000 0.0000 0.0000
# 2 -3.5813 33.0384 -12.0979 0.0000 0.0000 0.0000
# 3 -1.7902 -12.0979 15.9232 0.0000 0.0000 0.0000
# 4 0.0000 0.0000 0.0000 16.3685 0.0000 0.0000
# 5 0.0000 0.0000 0.0000 0.0000 17.0136 0.0000
# 6 0.0000 0.0000 0.0000 0.0000 0.0000 14.7740
#
#
#
# Elastic Compliance Matrix: (Units=1/GPa)
#
#
# Indices 1 2 3 4 5 6 
#
# 1 0.010375 0.002150 0.002800 0.000000 0.000000 0.000000
# 2 0.002150 0.042380 0.032440 0.000000 0.000000 0.000000
# 3 0.002800 0.032440 0.087763 0.000000 0.000000 0.000000
# 4 0.000000 0.000000 0.000000 0.061093 0.000000 0.000000
# 5 0.000000 0.000000 0.000000 0.000000 0.058776 0.000000
# 6 0.000000 0.000000 0.000000 0.000000 0.000000 0.067686
#
#
# Mechanical properties :
#
#
# Convention : Reuss Voigt Hill
#
# Bulk Modulus (GPa) = 4.64473 12.40385 8.52429
# Shear Modulus (GPa) = 15.38179 20.56741 17.97460
#
# Velocity S-wave (km/s) = 2.85326 3.29934 3.08438
# Velocity P-wave (km/s) = 3.64871 4.59121 4.14682
#
# Compressibility (1/GPa) = 0.21529757
#
# Stress axis : x y z
#
# Youngs Moduli (GPa) = 96.38665 23.59616 11.39431
#
# Poissons Ratio (x) = -0.05073 -0.03190
# Poissons Ratio (y) = -0.20721 -0.36963
# Poissons Ratio (z) = -0.26986 -0.76547
#
# Static dielectric constant tensor:
#      x y z
#    x 1.705960 0.000000 0.000000 
#    y 0.000000 1.647020 0.000000 
#    z 0.000000 0.000000 1.709660 
# 
# From -- ./inp_files/61871.got.cif
#   From: 2010.05.17/outbox.cif.g08.bks.cpg/sg71_31_cif.got.tgz:61871.got - 2010.06.03 16:22:01.
