data_PCOD9517194
_publ_section_title
;
Structure prediction by ZEFSAII (Michael W. Deem and Ramdas Pophale) SiO2 
 PCOD9517194
Probable space group: F D D D
;
_chemical_formula_sum "Si O2"
_cell_formula_units_Z 42
_cell_length_a 15.000000
_cell_length_b 21.000000
_cell_length_c 27.000000
_cell_angle_alpha 90.000000
_cell_angle_beta 90.000000
_cell_angle_gamma 90.000000
_cell_volume 8505.000000
_symmetry_space_group_name_H-M "F D D D"
_symmetry_group_IT_number 70
_space_group.IT_coordinate_system_code '2'
_symmetry_cell_setting 'orthorhombic'
loop_
_space_group_symop_operation_xyz
x,y,z
1/4-x,1/4-y,z
x,1/4-y,1/4-z
1/4-x,y,1/4-z
-x,-y,-z
3/4+x,3/4+y,-z
-x,3/4+y,3/4+z
3/4+x,-y,3/4+z
x,1/2+y,1/2+z
1/4-x,3/4-y,1/2+z
x,3/4-y,3/4-z
1/4-x,1/2+y,3/4-z
-x,1/2-y,1/2-z
3/4+x,1/4+y,1/2-z
-x,1/4+y,1/4+z
3/4+x,1/2-y,1/4+z
1/2+x,y,1/2+z
3/4-x,1/4-y,1/2+z
1/2+x,1/4-y,3/4-z
3/4-x,y,3/4-z
1/2-x,-y,1/2-z
1/4+x,3/4+y,1/2-z
1/2-x,3/4+y,1/4+z
1/4+x,-y,1/4+z
1/2+x,1/2+y,z
3/4-x,3/4-y,z
1/2+x,3/4-y,1/4-z
3/4-x,1/2+y,1/4-z
1/2-x,1/2-y,-z
1/4+x,1/4+y,-z
1/2-x,1/4+y,3/4+z
1/4+x,1/2-y,3/4+z
loop_
_atom_site_type_symbol
_atom_site_label
_atom_site_fract_x
_atom_site_fract_y
_atom_site_fract_z
Si Si1 0.875000 0.875000 0.875000
Si Si2 0.463769 0.621501 0.444271
Si Si3 0.441323 0.533973 0.285164
Si Si4 0.806322 0.489935 0.631478
Si Si5 0.697582 0.076908 0.203468
Si Si6 0.748423 0.481887 0.424060
O O1 0.810718 0.824130 0.847023
O O2 0.363415 0.594098 0.443734
O O3 0.524877 0.575887 0.409004
O O4 0.502307 0.609193 0.500032
O O5 0.464141 0.695848 0.430692
O O6 0.515003 0.513479 0.326027
O O7 0.362866 0.481809 0.278221
O O8 0.476513 0.541508 0.229882
O O9 0.759415 0.547105 0.661766
O O10 0.910457 0.504906 0.640092
O O11 0.625000 0.125000 0.182728
#
# Coordination Sequence:
#
# PCOD9517194 Si02
#       6
#     8  32  32  32  32  32
#     4  12  36  52  72  88 138 208 238 320 340 418
#     4  11  20  42  73 105 145 186 223 302 359 421
#     4  11  23  40  72 111 143 178 241 289 361 437
#     4  11  23  40  72 108 143 184 233 294 352 436
#     4  11  18  35  65 114 149 182 215 285 373 418
#     4  12  26  53  68  98 140 190 250 289 369 424
#
# _framework density 4.9382720000000004
#
# number of rings (size 3 to 8) (size 9 to 14) (size 15 to 20)
#    0.000    0.762    5.714    4.000    2.667    4.571 
#    3.429    1.905    0.000    0.000    0.000    0.000 
#    0.000    0.000    0.000    0.000    0.000    0.000 
#
# Total GULP energy -234571.479047 kJ/mol
# GULP energy per Si atom -5585.035215 kJ/mol
# Density = 0.492703 g / cm^3
# Si number density = 4.938272 Si / 1000 Ang^3
#
#
#
# Elastic Constant Matrix: (Units=GPa)
#
#
# Indices 1 2 3 4 5 6 
#
# 1 122.5721 67.8620 70.0416 0.0000 0.0000 0.0000
# 2 67.8620 151.3934 27.8835 0.0000 0.0000 0.0000
# 3 70.0416 27.8835 111.1343 0.0000 0.0000 0.0000
# 4 0.0000 0.0000 0.0000 23.2409 0.0000 0.0000
# 5 0.0000 0.0000 0.0000 0.0000 17.0954 0.0000
# 6 0.0000 0.0000 0.0000 0.0000 0.0000 29.1520
#
#
#
# Elastic Compliance Matrix: (Units=1/GPa)
#
#
# Indices 1 2 3 4 5 6 
#
# 1 0.016416 -0.005717 -0.008912 0.000000 0.000000 0.000000
# 2 -0.005717 0.008916 0.001366 0.000000 0.000000 0.000000
# 3 -0.008912 0.001366 0.014272 0.000000 0.000000 0.000000
# 4 0.000000 0.000000 0.000000 0.043028 0.000000 0.000000
# 5 0.000000 0.000000 0.000000 0.000000 0.058495 0.000000
# 6 0.000000 0.000000 0.000000 0.000000 0.000000 0.034303
#
#
# Mechanical properties :
#
#
# Convention : Reuss Voigt Hill
#
# Bulk Modulus (GPa) = 76.45921 79.63044 78.04483
# Shear Modulus (GPa) = 24.23466 28.51850 26.37658
#
# Velocity S-wave (km/s) = 3.50648 3.80379 3.65816
# Velocity P-wave (km/s) = 7.42869 7.72607 7.57884
#
# Compressibility (1/GPa) = 0.01307887
#
# Stress axis : x y z
#
# Youngs Moduli (GPa) = 60.91506 112.15236 70.06738
#
# Poissons Ratio (x) = 0.64120 0.62443
# Poissons Ratio (y) = 0.34827 -0.09572
# Poissons Ratio (z) = 0.54286 -0.15321
#
# Static dielectric constant tensor:
#      x y z
#    x 1.728510 0.000000 0.000000 
#    y 0.000000 1.750870 0.000000 
#    z 0.000000 0.000000 1.711930 
# 
# From -- ./inp_files/42828.got.cif
#   From: 2010.05.17/outbox.ucp.g08.bks.cvg/sg70_22_cif.got.tgz:42828.got - 2010.06.11 16:26:41.
