data_PCOD9517828
_publ_section_title
;
Structure prediction by ZEFSAII (Michael W. Deem and Ramdas Pophale) SiO2 
 PCOD9517828
Probable space group: I M M M
;
_chemical_formula_sum "Si O2"
_cell_formula_units_Z 120
_cell_length_a 35.454061
_cell_length_b 7.401982
_cell_length_c 22.960013
_cell_angle_alpha 90.000000
_cell_angle_beta 90.000000
_cell_angle_gamma 90.000000
_cell_volume 6025.403590
_symmetry_space_group_name_H-M "I M M M"
_symmetry_group_IT_number 71
_symmetry_cell_setting 'orthorhombic'
loop_
_space_group_symop_operation_xyz
x,y,z
-x,-y,z
x,-y,-z
-x,y,-z
-x,-y,-z
x,y,-z
-x,y,z
x,-y,z
1/2+x,1/2+y,1/2+z
1/2-x,1/2-y,1/2+z
1/2+x,1/2-y,1/2-z
1/2-x,1/2+y,1/2-z
1/2-x,1/2-y,1/2-z
1/2+x,1/2+y,1/2-z
1/2-x,1/2+y,1/2+z
1/2+x,1/2-y,1/2+z
loop_
_atom_site_type_symbol
_atom_site_label
_atom_site_fract_x
_atom_site_fract_y
_atom_site_fract_z
Si Si1 0.392238 0.220953 0.781863
Si Si2 0.454287 0.792954 0.000000
Si Si3 0.391451 0.792756 0.349860
Si Si4 0.956494 0.218144 0.935459
Si Si5 0.769412 0.716189 0.837235
Si Si6 0.174832 0.721097 0.066522
Si Si7 0.191727 0.714200 0.718493
Si Si8 0.956374 0.278567 0.628368
O O1 0.396097 0.282416 0.714767
O O2 0.349768 0.278585 0.799097
O O3 0.426139 0.280460 0.823609
O O4 0.394065 0.000000 0.783340
O O5 0.444570 0.715936 0.936672
O O6 0.500000 0.797399 0.000000
O O7 0.440444 0.000000 0.000000
O O8 0.430274 0.787918 0.384762
O O9 0.360087 0.715620 0.393496
O O10 0.379336 0.000000 0.340407
O O11 0.000000 0.272643 0.929254
O O12 0.955394 0.000000 0.934132
O O13 0.943153 0.275415 0.000000
O O14 0.772860 0.500000 0.835990
O O15 0.788088 0.776157 0.897374
O O16 0.793143 0.785789 0.781061
O O17 0.725730 0.756937 0.826336
O O18 0.173605 0.500000 0.064326
O O19 0.173055 0.783290 0.000000
O O20 0.187817 0.500000 0.726136
O O21 0.956625 0.500000 0.626895
O O22 0.000000 0.225104 0.639787
#
# Coordination Sequence:
#
# PCOD9517828 Si02
#       8
#    16   8  16  16  16  16  16  16
#     4   9  16  26  41  62  92 120 141 175 228 274
#     4   7  10  18  32  50  74 106 147 183 201 235
#     4  10  18  29  46  70  93 113 146 191 232 272
#     4   9  19  35  49  60  83 123 162 191 227 275
#     4   9  16  28  46  65  83 110 149 182 211 258
#     4   9  16  27  45  67  89 114 146 186 229 267
#     4   9  16  28  45  64  88 116 141 173 218 265
#     4   8  13  21  35  56  81 112 148 180 211 255
#
# _framework density 19.915676999999999
#
# number of rings (size 3 to 8) (size 9 to 14) (size 15 to 20)
#    0.000    3.133    1.333    1.600    0.000    1.600 
#    0.000    3.333    1.467    1.200    0.000    0.000 
#    0.000    0.000    0.000    0.000    0.000   12.333 
#
# Total GULP energy -334460.345353 kJ/mol
# GULP energy per Si atom -5574.339089 kJ/mol
# Density = 1.987035 g / cm^3
# Si number density = 19.915677 Si / 1000 Ang^3
#
#
#
# Elastic Constant Matrix: (Units=GPa)
#
#
# Indices 1 2 3 4 5 6 
#
# 1 143.4604 2.4983 111.6365 0.0000 0.0000 0.0000
# 2 2.4983 64.2500 6.3765 0.0000 0.0000 0.0000
# 3 111.6365 6.3765 186.0218 0.0000 0.0000 0.0000
# 4 0.0000 0.0000 0.0000 -0.6846 0.0000 0.0000
# 5 0.0000 0.0000 0.0000 0.0000 33.3245 0.0000
# 6 0.0000 0.0000 0.0000 0.0000 0.0000 9.3208
#
#
#
# Elastic Compliance Matrix: (Units=1/GPa)
#
#
# Indices 1 2 3 4 5 6 
#
# 1 0.013083 0.000271 -0.007861 0.000000 0.000000 0.000000
# 2 0.000271 0.015623 -0.000698 0.000000 0.000000 0.000000
# 3 -0.007861 -0.000698 0.010117 0.000000 0.000000 0.000000
# 4 0.000000 0.000000 0.000000 -1.460685 0.000000 0.000000
# 5 0.000000 0.000000 0.000000 0.000000 0.030008 0.000000
# 6 0.000000 0.000000 0.000000 0.000000 0.000000 0.107287
#
#
# Mechanical properties :
#
#
# Convention : Reuss Voigt Hill
#
# Bulk Modulus (GPa) = 44.94881 70.52828 57.73854
# Shear Modulus (GPa) = -3.96644 26.60685 11.32021
#
# Velocity S-wave (km/s) = -1.41278 3.65907 2.38671
# Velocity P-wave (km/s) = 4.46736 7.30356 6.05390
#
# Compressibility (1/GPa) = 0.02224753
#
# Stress axis : x y z
#
# Youngs Moduli (GPa) = 76.43692 64.00830 98.84374
#
# Poissons Ratio (x) = -0.01737 0.77697
# Poissons Ratio (y) = -0.02075 0.06903
# Poissons Ratio (z) = 0.60084 0.04470
#
# Static dielectric constant tensor:
#      x y z
#    x 1.688340 0.000000 0.000000 
#    y 0.000000 1.699550 0.000000 
#    z 0.000000 0.000000 1.696020 
# 
# From -- ./inp_files/56828.got.cif
#   From: 2010.05.17/outbox.cif.g08.bks.cpg/sg71_29_cif.got.tgz:56828.got - 2010.06.03 16:22:01.
