data_PCOD9517203
_publ_section_title
;
Structure prediction by ZEFSAII (Michael W. Deem and Ramdas Pophale) SiO2 
 PCOD9517203
Probable space group: F D D D
;
_chemical_formula_sum "Si O2"
_cell_formula_units_Z 28
_cell_length_a 30.000000
_cell_length_b 6.000000
_cell_length_c 30.000000
_cell_angle_alpha 90.000000
_cell_angle_beta 90.000000
_cell_angle_gamma 90.000000
_cell_volume 5400.000000
_symmetry_space_group_name_H-M "F D D D"
_symmetry_group_IT_number 70
_space_group.IT_coordinate_system_code '2'
_symmetry_cell_setting 'orthorhombic'
loop_
_space_group_symop_operation_xyz
x,y,z
1/4-x,1/4-y,z
x,1/4-y,1/4-z
1/4-x,y,1/4-z
-x,-y,-z
3/4+x,3/4+y,-z
-x,3/4+y,3/4+z
3/4+x,-y,3/4+z
x,1/2+y,1/2+z
1/4-x,3/4-y,1/2+z
x,3/4-y,3/4-z
1/4-x,1/2+y,3/4-z
-x,1/2-y,1/2-z
3/4+x,1/4+y,1/2-z
-x,1/4+y,1/4+z
3/4+x,1/2-y,1/4+z
1/2+x,y,1/2+z
3/4-x,1/4-y,1/2+z
1/2+x,1/4-y,3/4-z
3/4-x,y,3/4-z
1/2-x,-y,1/2-z
1/4+x,3/4+y,1/2-z
1/2-x,3/4+y,1/4+z
1/4+x,-y,1/4+z
1/2+x,1/2+y,z
3/4-x,3/4-y,z
1/2+x,3/4-y,1/4-z
3/4-x,1/2+y,1/4-z
1/2-x,1/2-y,-z
1/4+x,1/4+y,-z
1/2-x,1/4+y,3/4+z
1/4+x,1/2-y,3/4+z
loop_
_atom_site_type_symbol
_atom_site_label
_atom_site_fract_x
_atom_site_fract_y
_atom_site_fract_z
Si Si1 0.217517 0.625000 0.625000
Si Si2 0.830497 0.244977 0.936235
Si Si3 0.997785 0.835713 0.044656
Si Si4 0.850621 0.133693 0.215364
O O1 0.188444 0.435235 0.599131
O O2 0.246596 0.750860 0.587249
O O3 0.875000 0.375000 0.921305
O O4 0.790368 0.415952 0.951069
O O5 0.846998 0.124520 0.981282
O O6 0.951808 0.687292 0.047813
O O7 0.000000 0.000000 0.000000
O O8 0.875000 0.375000 0.202754
O O9 0.875000 0.875000 0.204172
#
# Coordination Sequence:
#
# PCOD9517203 Si02
#       4
#    16  32  32  32
#     4  12  28  43  76 110 162 198 260 320 411 470
#     4  11  26  46  72 113 154 193 250 319 402 477
#     4  12  25  48  76 109 153 202 257 322 391 471
#     4  11  25  47  81 108 145 206 260 313 383 464
#
# _framework density 5.1851849999999997
#
# number of rings (size 3 to 8) (size 9 to 14) (size 15 to 20)
#    0.000    0.571    2.857    5.143    4.000    3.429 
#    0.000    0.000    6.286    0.000    0.000    0.000 
#    0.000    0.000    0.000    0.000    0.000    0.000 
#
# Total GULP energy -156081.632313 kJ/mol
# GULP energy per Si atom -5574.344011 kJ/mol
# Density = 0.517338 g / cm^3
# Si number density = 5.185185 Si / 1000 Ang^3
#
#
#
# Elastic Constant Matrix: (Units=GPa)
#
#
# Indices 1 2 3 4 5 6 
#
# 1 177.5549 73.4536 28.4911 0.0007 -0.0003 -0.0067
# 2 73.4536 167.2212 43.1706 -0.0003 0.0022 -0.0069
# 3 28.4911 43.1706 87.8042 0.0001 -0.0003 0.0026
# 4 0.0007 -0.0003 0.0001 47.8093 0.0007 0.0017
# 5 -0.0003 0.0022 -0.0003 0.0007 29.8635 0.0007
# 6 -0.0067 -0.0069 0.0026 0.0017 0.0007 64.3320
#
#
#
# Elastic Compliance Matrix: (Units=1/GPa)
#
#
# Indices 1 2 3 4 5 6 
#
# 1 0.006939 -0.002826 -0.000862 0.000000 0.000000 0.000000
# 2 -0.002826 0.008000 -0.003017 0.000000 -0.000001 0.000001
# 3 -0.000862 -0.003017 0.013152 0.000000 0.000000 -0.000001
# 4 0.000000 0.000000 0.000000 0.020916 -0.000001 -0.000001
# 5 0.000000 -0.000001 0.000000 -0.000001 0.033486 0.000000
# 6 0.000000 0.000001 -0.000001 -0.000001 0.000000 0.015544
#
#
# Mechanical properties :
#
#
# Convention : Reuss Voigt Hill
#
# Bulk Modulus (GPa) = 68.10935 80.31233 74.21084
# Shear Modulus (GPa) = 42.97712 47.56529 45.27121
#
# Velocity S-wave (km/s) = 4.55698 4.79406 4.67703
# Velocity P-wave (km/s) = 7.78446 8.33368 8.06375
#
# Compressibility (1/GPa) = 0.01468227
#
# Stress axis : x y z
#
# Youngs Moduli (GPa) = 144.10543 125.00003 76.03428
#
# Poissons Ratio (x) = 0.35319 0.06558
# Poissons Ratio (y) = 0.40717 0.22936
# Poissons Ratio (z) = 0.12429 0.37706
#
# Static dielectric constant tensor:
#      x y z
#    x 1.803760 0.000000 0.000000 
#    y 0.000000 1.837400 0.000000 
#    z 0.000000 0.000000 1.769170 
# 
# From -- ./inp_files/68626.got.cif
#   From: 2010.05.17/outbox.ucp.g08.bks.cvg/sg70_35_cif.got.tgz:68626.got - 2010.06.11 16:26:41.
