data_PCOD9517346
_publ_section_title
;
Structure prediction by ZEFSAII (Michael W. Deem and Ramdas Pophale) SiO2 
 PCOD9517346
Probable space group: I M M M
;
_chemical_formula_sum "Si O2"
_cell_formula_units_Z 88
_cell_length_a 13.172174
_cell_length_b 19.573313
_cell_length_c 18.064725
_cell_angle_alpha 90.000000
_cell_angle_beta 90.000000
_cell_angle_gamma 90.000000
_cell_volume 4657.503122
_symmetry_space_group_name_H-M "I M M M"
_symmetry_group_IT_number 71
_symmetry_cell_setting 'orthorhombic'
loop_
_space_group_symop_operation_xyz
x,y,z
-x,-y,z
x,-y,-z
-x,y,-z
-x,-y,-z
x,y,-z
-x,y,z
x,-y,z
1/2+x,1/2+y,1/2+z
1/2-x,1/2-y,1/2+z
1/2+x,1/2-y,1/2-z
1/2-x,1/2+y,1/2-z
1/2-x,1/2-y,1/2-z
1/2+x,1/2+y,1/2-z
1/2-x,1/2+y,1/2+z
1/2+x,1/2-y,1/2+z
loop_
_atom_site_type_symbol
_atom_site_label
_atom_site_fract_x
_atom_site_fract_y
_atom_site_fract_z
Si Si1 0.000000 0.918618 0.415163
Si Si2 0.388456 0.734172 0.265702
Si Si3 0.384317 0.897529 0.756629
Si Si4 0.711181 0.630859 0.844496
Si Si5 0.791215 0.754378 0.919692
Si Si6 0.119545 0.632005 0.417584
O O1 0.105039 0.898609 0.373843
O O2 0.000000 0.890537 0.500000
O O3 0.000000 0.000000 0.419690
O O4 0.500000 0.707151 0.250690
O O5 0.389347 0.814575 0.247999
O O6 0.315697 0.690377 0.214626
O O7 0.360933 0.725458 0.351243
O O8 0.500000 0.921303 0.740280
O O9 0.294874 0.915288 0.698497
O O10 0.359183 0.911458 0.843148
O O11 0.764024 0.674720 0.909158
O O12 0.689736 0.800737 0.915249
O O13 0.837532 0.766309 0.000000
O O14 0.135375 0.600725 0.500000
O O15 0.000000 0.650092 0.412793
#
# Coordination Sequence:
#
# PCOD9517346 Si02
#       6
#     8  16  16  16  16  16
#     4  11  26  42  56  74  93 119 169 233 273 292
#     4  10  17  27  41  64  97 133 166 196 235 298
#     4   9  16  27  44  70 103 133 163 197 232 297
#     4  11  18  32  49  69  94 132 171 204 254 302
#     4  10  18  26  39  65  98 132 167 194 227 292
#     4   9  15  21  33  59 100 134 159 188 217 263
#
# _framework density 18.894244
#
# number of rings (size 3 to 8) (size 9 to 14) (size 15 to 20)
#    0.000    2.091    4.545    1.636    1.273    0.364 
#    0.000    0.000    0.000    2.182    0.000    1.273 
#    0.000    5.818    0.000    4.545    0.000    0.000 
#
# Total GULP energy -244969.843659 kJ/mol
# GULP energy per Si atom -5567.496447 kJ/mol
# Density = 1.885124 g / cm^3
# Si number density = 18.894244 Si / 1000 Ang^3
#
#
#
# Elastic Constant Matrix: (Units=GPa)
#
#
# Indices 1 2 3 4 5 6 
#
# 1 94.0717 8.3469 31.1235 0.0000 0.0000 0.0000
# 2 8.3469 37.6699 9.6052 0.0000 0.0000 0.0000
# 3 31.1235 9.6052 122.1960 0.0000 0.0000 0.0000
# 4 0.0000 0.0000 0.0000 -0.8239 0.0000 0.0000
# 5 0.0000 0.0000 0.0000 0.0000 29.1363 0.0000
# 6 0.0000 0.0000 0.0000 0.0000 0.0000 -1.4246
#
#
#
# Elastic Compliance Matrix: (Units=1/GPa)
#
#
# Indices 1 2 3 4 5 6 
#
# 1 0.011737 -0.001876 -0.002842 0.000000 0.000000 0.000000
# 2 -0.001876 0.027389 -0.001675 0.000000 0.000000 0.000000
# 3 -0.002842 -0.001675 0.009039 0.000000 0.000000 0.000000
# 4 0.000000 0.000000 0.000000 -1.213766 0.000000 0.000000
# 5 0.000000 0.000000 0.000000 0.000000 0.034321 0.000000
# 6 0.000000 0.000000 0.000000 0.000000 0.000000 -0.701934
#
#
# Mechanical properties :
#
#
# Convention : Reuss Voigt Hill
#
# Bulk Modulus (GPa) = 28.26526 39.12096 33.69311
# Shear Modulus (GPa) = -2.76452 19.03503 8.13526
#
# Velocity S-wave (km/s) = -1.21092 3.17748 2.07726
# Velocity P-wave (km/s) = 3.61069 5.84910 4.86051
#
# Compressibility (1/GPa) = 0.03537913
#
# Stress axis : x y z
#
# Youngs Moduli (GPa) = 85.20139 36.51069 110.63056
#
# Poissons Ratio (x) = 0.06849 0.31441
# Poissons Ratio (y) = 0.15984 0.18532
# Poissons Ratio (z) = 0.24214 0.06116
#
# Static dielectric constant tensor:
#      x y z
#    x 1.707020 0.000000 0.000000 
#    y 0.000000 1.645150 0.000000 
#    z 0.000000 0.000000 1.706780 
# 
# From -- ./inp_files/44889.got.cif
#   From: 2010.05.17/outbox.cif.g08.bks.cpg/sg71_23_cif.got.tgz:44889.got - 2010.06.03 16:22:01.
