data_PCOD9517851
_publ_section_title
;
Structure prediction by ZEFSAII (Michael W. Deem and Ramdas Pophale) SiO2 
 PCOD9517851
Probable space group: I M M M
;
_chemical_formula_sum "Si O2"
_cell_formula_units_Z 120
_cell_length_a 22.246114
_cell_length_b 18.585573
_cell_length_c 18.132981
_cell_angle_alpha 90.000000
_cell_angle_beta 90.000000
_cell_angle_gamma 90.000000
_cell_volume 7497.203858
_symmetry_space_group_name_H-M "I M M M"
_symmetry_group_IT_number 71
_symmetry_cell_setting 'orthorhombic'
loop_
_space_group_symop_operation_xyz
x,y,z
-x,-y,z
x,-y,-z
-x,y,-z
-x,-y,-z
x,y,-z
-x,y,z
x,-y,z
1/2+x,1/2+y,1/2+z
1/2-x,1/2-y,1/2+z
1/2+x,1/2-y,1/2-z
1/2-x,1/2+y,1/2-z
1/2-x,1/2-y,1/2-z
1/2+x,1/2+y,1/2-z
1/2-x,1/2+y,1/2+z
1/2+x,1/2-y,1/2+z
loop_
_atom_site_type_symbol
_atom_site_label
_atom_site_fract_x
_atom_site_fract_y
_atom_site_fract_z
Si Si1 0.783002 0.579131 0.762742
Si Si2 0.169631 0.612787 0.085449
Si Si3 0.570589 0.276268 0.913036
Si Si4 0.700017 0.277688 0.414265
Si Si5 0.176648 0.718664 0.679549
Si Si6 0.339113 0.358138 0.282527
Si Si7 0.067847 0.500000 0.088578
Si Si8 0.928367 0.919239 0.328217
O O1 0.806748 0.500000 0.744621
O O2 0.784446 0.588510 0.851187
O O3 0.818702 0.644588 0.724828
O O4 0.715613 0.588368 0.733649
O O5 0.169139 0.699105 0.089671
O O6 0.108193 0.570451 0.105655
O O7 0.184477 0.594085 0.000000
O O8 0.500000 0.264003 0.895418
O O9 0.616169 0.226542 0.867848
O O10 0.585724 0.358360 0.888926
O O11 0.578732 0.267483 0.000000
O O12 0.707382 0.296162 0.500000
O O13 0.765043 0.274749 0.373543
O O14 0.661456 0.334353 0.367142
O O15 0.176562 0.785159 0.736731
O O16 0.398038 0.391815 0.246933
O O17 0.000000 0.500000 0.119142
O O18 0.062653 0.500000 0.000000
O O19 0.000000 0.920702 0.320810
O O20 0.907705 0.000000 0.346719
#
# Coordination Sequence:
#
# PCOD9517851 Si02
#       8
#    16  16  16  16  16  16   8  16
#     4  11  19  30  49  72 100 131 163 202 249 296
#     4  10  18  29  47  71  96 125 160 200 244 294
#     4   9  18  32  52  75  99 131 166 199 239 290
#     4  10  18  30  50  73  95 124 163 208 249 286
#     4  10  18  32  49  71 100 134 163 203 243 299
#     4  10  18  32  49  71 100 133 164 200 246 297
#     4   9  18  32  46  62  96 138 162 186 238 299
#     4   9  18  32  50  73 102 132 160 192 238 298
#
# _framework density 16.005967999999999
#
# number of rings (size 3 to 8) (size 9 to 14) (size 15 to 20)
#    0.000    2.200    3.333    1.600    0.000    0.267 
#    0.000    2.667    0.000   16.400    0.000    1.867 
#    0.000    0.000    0.000    0.000    0.000    0.000 
#
# Total GULP energy -334125.258736 kJ/mol
# GULP energy per Si atom -5568.754312 kJ/mol
# Density = 1.596954 g / cm^3
# Si number density = 16.005968 Si / 1000 Ang^3
#
#
#
# Elastic Constant Matrix: (Units=GPa)
#
#
# Indices 1 2 3 4 5 6 
#
# 1 30.2905 22.9342 24.4214 0.0000 0.0000 0.0000
# 2 22.9342 81.7960 29.4523 0.0000 0.0000 0.0000
# 3 24.4214 29.4523 85.1347 0.0000 0.0000 0.0000
# 4 0.0000 0.0000 0.0000 15.2073 0.0000 0.0000
# 5 0.0000 0.0000 0.0000 0.0000 21.4214 0.0000
# 6 0.0000 0.0000 0.0000 0.0000 0.0000 19.2254
#
#
#
# Elastic Compliance Matrix: (Units=1/GPa)
#
#
# Indices 1 2 3 4 5 6 
#
# 1 0.049129 -0.009938 -0.010655 0.000000 0.000000 0.000000
# 2 -0.009938 0.015976 -0.002676 0.000000 0.000000 0.000000
# 3 -0.010655 -0.002676 0.015728 0.000000 0.000000 0.000000
# 4 0.000000 0.000000 0.000000 0.065758 0.000000 0.000000
# 5 0.000000 0.000000 0.000000 0.000000 0.046682 0.000000
# 6 0.000000 0.000000 0.000000 0.000000 0.000000 0.052014
#
#
# Mechanical properties :
#
#
# Convention : Reuss Voigt Hill
#
# Bulk Modulus (GPa) = 29.15916 38.98187 34.07051
# Shear Modulus (GPa) = 16.48771 19.19839 17.84305
#
# Velocity S-wave (km/s) = 3.21300 3.46707 3.34245
# Velocity P-wave (km/s) = 5.65877 6.35884 6.01899
#
# Compressibility (1/GPa) = 0.03429454
#
# Stress axis : x y z
#
# Youngs Moduli (GPa) = 20.35476 62.59548 63.58035
#
# Poissons Ratio (x) = 0.62210 0.67742
# Poissons Ratio (y) = 0.20229 0.17013
# Poissons Ratio (z) = 0.21687 0.16750
#
# Static dielectric constant tensor:
#      x y z
#    x 1.544700 0.000000 0.000000 
#    y 0.000000 1.551960 0.000000 
#    z 0.000000 0.000000 1.534110 
# 
# From -- ./inp_files/48410.got.cif
#   From: 2010.05.17/outbox.cif.g08.bks.cpg/sg71_25_cif.got.tgz:48410.got - 2010.06.03 16:22:01.
