data_PCOD9517445
_publ_section_title
;
Structure prediction by ZEFSAII (Michael W. Deem and Ramdas Pophale) SiO2 
 PCOD9517445
Probable space group: I M M M
;
_chemical_formula_sum "Si O2"
_cell_formula_units_Z 76
_cell_length_a 8.075340
_cell_length_b 25.917429
_cell_length_c 19.439176
_cell_angle_alpha 90.000000
_cell_angle_beta 90.000000
_cell_angle_gamma 90.000000
_cell_volume 4068.465017
_symmetry_space_group_name_H-M "I M M M"
_symmetry_group_IT_number 71
_symmetry_cell_setting 'orthorhombic'
loop_
_space_group_symop_operation_xyz
x,y,z
-x,-y,z
x,-y,-z
-x,y,-z
-x,-y,-z
x,y,-z
-x,y,z
x,-y,z
1/2+x,1/2+y,1/2+z
1/2-x,1/2-y,1/2+z
1/2+x,1/2-y,1/2-z
1/2-x,1/2+y,1/2-z
1/2-x,1/2-y,1/2-z
1/2+x,1/2+y,1/2-z
1/2-x,1/2+y,1/2+z
1/2+x,1/2-y,1/2+z
loop_
_atom_site_type_symbol
_atom_site_label
_atom_site_fract_x
_atom_site_fract_y
_atom_site_fract_z
Si Si1 0.196544 0.116591 0.713104
Si Si2 0.251324 0.718010 0.000000
Si Si3 0.500000 0.061056 0.641451
Si Si4 0.697488 0.840746 0.848266
Si Si5 0.816420 0.225679 0.343130
Si Si6 0.500000 0.124682 0.500000
Si Si7 0.816173 0.162449 0.000000
O O1 0.331437 0.077811 0.681453
O O2 0.215778 0.120956 0.795276
O O3 0.257430 0.173206 0.686091
O O4 0.000000 0.109144 0.694912
O O5 0.332689 0.718449 0.925174
O O6 0.149746 0.665287 0.000000
O O7 0.171481 0.775034 0.000000
O O8 0.500000 0.090409 0.568298
O O9 0.500000 0.000000 0.631488
O O10 0.500000 0.841319 0.836494
O O11 0.762212 0.782006 0.833529
O O12 0.728280 0.851511 0.928600
O O13 0.000000 0.228751 0.312365
O O14 0.000000 0.140532 0.000000
#
# Coordination Sequence:
#
# PCOD9517445 Si02
#       7
#    16   8   8  16  16   4   8
#     4  11  22  39  61  86 116 155 200 254 316 369
#     4  10  17  29  50  75 115 165 199 243 293 353
#     4  12  27  46  66  87 116 155 213 276 319 358
#     4  10  19  33  53  83 124 166 199 239 293 364
#     4   9  18  30  50  81 119 159 202 241 289 365
#     4  12  21  40  62  84 114 162 212 258 319 350
#     4  10  19  29  47  84 126 164 207 231 274 357
#
# _framework density 18.680263
#
# number of rings (size 3 to 8) (size 9 to 14) (size 15 to 20)
#    0.000    1.684    3.684    2.053    0.000    2.947 
#    1.895    0.526    0.000    1.263    0.000    1.474 
#    0.000    2.526    0.000    0.000    0.000    0.000 
#
# Total GULP energy -211591.557226 kJ/mol
# GULP energy per Si atom -5568.198874 kJ/mol
# Density = 1.863775 g / cm^3
# Si number density = 18.680263 Si / 1000 Ang^3
#
#
#
# Elastic Constant Matrix: (Units=GPa)
#
#
# Indices 1 2 3 4 5 6 
#
# 1 91.9366 31.6410 32.0311 0.0000 0.0000 0.0000
# 2 31.6410 61.5217 35.9395 0.0000 0.0000 0.0000
# 3 32.0311 35.9395 109.0056 0.0000 0.0000 0.0000
# 4 0.0000 0.0000 0.0000 13.1074 0.0000 0.0000
# 5 0.0000 0.0000 0.0000 0.0000 25.4862 0.0000
# 6 0.0000 0.0000 0.0000 0.0000 0.0000 19.6051
#
#
#
# Elastic Compliance Matrix: (Units=1/GPa)
#
#
# Indices 1 2 3 4 5 6 
#
# 1 0.013591 -0.005768 -0.002092 0.000000 0.000000 0.000000
# 2 -0.005768 0.022580 -0.005750 0.000000 0.000000 0.000000
# 3 -0.002092 -0.005750 0.011684 0.000000 0.000000 0.000000
# 4 0.000000 0.000000 0.000000 0.076293 0.000000 0.000000
# 5 0.000000 0.000000 0.000000 0.000000 0.039237 0.000000
# 6 0.000000 0.000000 0.000000 0.000000 0.000000 0.051007
#
#
# Mechanical properties :
#
#
# Convention : Reuss Voigt Hill
#
# Bulk Modulus (GPa) = 48.45942 51.29857 49.87899
# Shear Modulus (GPa) = 20.12155 22.49655 21.30905
#
# Velocity S-wave (km/s) = 3.28557 3.47406 3.38113
# Velocity P-wave (km/s) = 6.35540 6.60402 6.48090
#
# Compressibility (1/GPa) = 0.02063582
#
# Stress axis : x y z
#
# Youngs Moduli (GPa) = 73.57812 44.28747 85.58509
#
# Poissons Ratio (x) = 0.25544 0.17904
# Poissons Ratio (y) = 0.42439 0.49209
# Poissons Ratio (z) = 0.15393 0.25464
#
# Static dielectric constant tensor:
#      x y z
#    x 1.703410 0.000000 0.000000 
#    y 0.000000 1.617560 0.000000 
#    z 0.000000 0.000000 1.684270 
# 
# From -- ./inp_files/42324.got.cif
#   From: 2010.05.17/outbox.cif.g08.bks.cpg/sg71_22_cif.got.tgz:42324.got - 2010.06.03 16:22:01.
