data_PCOD9517721
_publ_section_title
;
Structure prediction by ZEFSAII (Michael W. Deem and Ramdas Pophale) SiO2 
 PCOD9517721
Probable space group: I M M M
;
_chemical_formula_sum "Si O2"
_cell_formula_units_Z 72
_cell_length_a 26.047086
_cell_length_b 10.058484
_cell_length_c 14.315055
_cell_angle_alpha 90.000000
_cell_angle_beta 90.000000
_cell_angle_gamma 90.000000
_cell_volume 3750.461351
_symmetry_space_group_name_H-M "I M M M"
_symmetry_group_IT_number 71
_symmetry_cell_setting 'orthorhombic'
loop_
_space_group_symop_operation_xyz
x,y,z
-x,-y,z
x,-y,-z
-x,y,-z
-x,-y,-z
x,y,-z
-x,y,z
x,-y,z
1/2+x,1/2+y,1/2+z
1/2-x,1/2-y,1/2+z
1/2+x,1/2-y,1/2-z
1/2-x,1/2+y,1/2-z
1/2-x,1/2-y,1/2-z
1/2+x,1/2+y,1/2-z
1/2-x,1/2+y,1/2+z
1/2+x,1/2-y,1/2+z
loop_
_atom_site_type_symbol
_atom_site_label
_atom_site_fract_x
_atom_site_fract_y
_atom_site_fract_z
Si Si1 0.940597 0.500000 0.248102
Si Si2 0.332796 0.000000 0.702411
Si Si3 0.885057 0.000000 0.107645
Si Si4 0.782481 0.500000 0.609768
Si Si5 0.061739 0.000000 0.301803
Si Si6 0.699538 0.271030 0.608785
Si Si7 0.061588 0.733394 0.603975
O O1 0.893338 0.500000 0.176536
O O2 0.932877 0.625190 0.315986
O O3 0.000000 0.500000 0.213744
O O4 0.327049 0.000000 0.814626
O O5 0.306903 0.135346 0.665496
O O6 0.849254 0.869603 0.119357
O O7 0.924310 0.000000 0.192916
O O8 0.904418 0.000000 0.000000
O O9 0.796345 0.500000 0.500000
O O10 0.747596 0.368714 0.628109
O O11 0.082347 0.871192 0.355781
O O12 0.000000 0.000000 0.308773
O O13 0.702809 0.233926 0.500000
O O14 0.081467 0.700175 0.500000
O O15 0.000000 0.747774 0.594317
#
# Coordination Sequence:
#
# PCOD9517721 Si02
#       7
#     8   8   8   8   8  16  16
#     4  10  21  33  47  73 110 147 180 215 252 302
#     4  12  20  32  58  84 105 138 182 218 260 312
#     4   9  18  34  50  65  95 137 169 203 260 316
#     4   9  20  37  55  81 113 138 165 213 271 324
#     4  10  18  28  46  72  94 119 169 227 264 299
#     4   9  19  36  56  77 103 135 174 216 261 316
#     4   9  17  30  46  64  92 131 170 208 254 305
#
# _framework density 19.197638000000001
#
# number of rings (size 3 to 8) (size 9 to 14) (size 15 to 20)
#    0.000    2.444    0.000    4.333    0.000    3.778 
#    0.000    0.000    0.000    2.667    0.000    9.333 
#    0.000    0.000    0.000    0.000    0.000    0.000 
#
# Total GULP energy -200601.977838 kJ/mol
# GULP energy per Si atom -5572.277162 kJ/mol
# Density = 1.915394 g / cm^3
# Si number density = 19.197638 Si / 1000 Ang^3
#
#
#
# Elastic Constant Matrix: (Units=GPa)
#
#
# Indices 1 2 3 4 5 6 
#
# 1 50.6815 10.0044 17.2723 0.0000 0.0000 0.0000
# 2 10.0044 113.3726 14.0657 0.0000 0.0000 0.0000
# 3 17.2723 14.0657 41.8888 0.0000 0.0000 0.0000
# 4 0.0000 0.0000 0.0000 15.1664 0.0000 0.0000
# 5 0.0000 0.0000 0.0000 0.0000 25.0689 0.0000
# 6 0.0000 0.0000 0.0000 0.0000 0.0000 8.1361
#
#
#
# Elastic Compliance Matrix: (Units=1/GPa)
#
#
# Indices 1 2 3 4 5 6 
#
# 1 0.023043 -0.000892 -0.009202 0.000000 0.000000 0.000000
# 2 -0.000892 0.009238 -0.002734 0.000000 0.000000 0.000000
# 3 -0.009202 -0.002734 0.028585 0.000000 0.000000 0.000000
# 4 0.000000 0.000000 0.000000 0.065935 0.000000 0.000000
# 5 0.000000 0.000000 0.000000 0.000000 0.039890 0.000000
# 6 0.000000 0.000000 0.000000 0.000000 0.000000 0.122909
#
#
# Mechanical properties :
#
#
# Convention : Reuss Voigt Hill
#
# Bulk Modulus (GPa) = 28.40079 32.06975 30.23527
# Shear Modulus (GPa) = 15.29077 20.64765 17.96921
#
# Velocity S-wave (km/s) = 2.82528 3.28309 3.06275
# Velocity P-wave (km/s) = 5.04668 5.57789 5.31892
#
# Compressibility (1/GPa) = 0.03521029
#
# Stress axis : x y z
#
# Youngs Moduli (GPa) = 43.39674 108.24371 34.98300
#
# Poissons Ratio (x) = 0.09652 0.32192
# Poissons Ratio (y) = 0.03870 0.09566
# Poissons Ratio (z) = 0.39934 0.29599
#
# Static dielectric constant tensor:
#      x y z
#    x 1.681510 0.000000 0.000000 
#    y 0.000000 1.676310 0.000000 
#    z 0.000000 0.000000 1.657060 
# 
# From -- ./inp_files/14415.got.cif
#   From: 2010.05.17/outbox.cif.g08.bks.cpg/sg71_8_cif.got.tgz:14415.got - 2010.06.03 16:22:01.
