data_PCOD9517118
_publ_section_title
;
Structure prediction by ZEFSAII (Michael W. Deem and Ramdas Pophale) SiO2 
 PCOD9517118
Probable space group: F D D D
;
_chemical_formula_sum "Si O2"
_cell_formula_units_Z 120
_cell_length_a 29.077634
_cell_length_b 8.548924
_cell_length_c 21.306421
_cell_angle_alpha 90.000000
_cell_angle_beta 90.000000
_cell_angle_gamma 90.000000
_cell_volume 5296.403040
_symmetry_space_group_name_H-M "F D D D"
_symmetry_group_IT_number 70
_space_group.IT_coordinate_system_code '2'
_symmetry_cell_setting 'orthorhombic'
loop_
_space_group_symop_operation_xyz
x,y,z
1/4-x,1/4-y,z
x,1/4-y,1/4-z
1/4-x,y,1/4-z
-x,-y,-z
3/4+x,3/4+y,-z
-x,3/4+y,3/4+z
3/4+x,-y,3/4+z
x,1/2+y,1/2+z
1/4-x,3/4-y,1/2+z
x,3/4-y,3/4-z
1/4-x,1/2+y,3/4-z
-x,1/2-y,1/2-z
3/4+x,1/4+y,1/2-z
-x,1/4+y,1/4+z
3/4+x,1/2-y,1/4+z
1/2+x,y,1/2+z
3/4-x,1/4-y,1/2+z
1/2+x,1/4-y,3/4-z
3/4-x,y,3/4-z
1/2-x,-y,1/2-z
1/4+x,3/4+y,1/2-z
1/2-x,3/4+y,1/4+z
1/4+x,-y,1/4+z
1/2+x,1/2+y,z
3/4-x,3/4-y,z
1/2+x,3/4-y,1/4-z
3/4-x,1/2+y,1/4-z
1/2-x,1/2-y,-z
1/4+x,1/4+y,-z
1/2-x,1/4+y,3/4+z
1/4+x,1/2-y,3/4+z
loop_
_atom_site_type_symbol
_atom_site_label
_atom_site_fract_x
_atom_site_fract_y
_atom_site_fract_z
Si Si1 0.887609 0.554656 0.692183
Si Si2 0.125000 0.125000 0.125000
Si Si3 0.789969 0.875000 0.375000
Si Si4 0.316429 0.104384 0.460497
Si Si5 0.733044 0.926668 0.011846
O O1 0.899538 0.625000 0.625000
O O2 0.875000 0.375000 0.683900
O O3 0.843733 0.636103 0.724287
O O4 0.930596 0.570418 0.738945
O O5 0.092854 0.232229 0.082627
O O6 0.817284 0.771076 0.425554
O O7 0.764151 0.744563 0.332729
O O8 0.264922 0.044588 0.472126
O O9 0.750000 0.750000 0.000000
#
# Coordination Sequence:
#
# PCOD9517118 Si02
#       5
#    32   8  16  32  32
#     4  12  30  49  76 113 157 204 261 323 398 476
#     4  12  28  46  80 110 156 200 268 326 384 478
#     4  12  26  49  80 105 160 201 272 328 400 481
#     4  12  27  50  76 115 149 212 257 332 395 468
#     4  12  29  48  80 116 156 208 267 331 404 481
#
# _framework density 22.656884999999999
#
# number of rings (size 3 to 8) (size 9 to 14) (size 15 to 20)
#    0.000    0.000    2.667    5.600   13.067    1.067 
#    0.000    0.000    0.000    0.000    0.000    0.000 
#    0.000    0.000    0.000    0.000    0.000    0.000 
#
# Total GULP energy -168052.386054 kJ/mol
# GULP energy per Si atom -5601.746202 kJ/mol
# Density = 2.260532 g / cm^3
# Si number density = 22.656885 Si / 1000 Ang^3
#
#
#
# Elastic Constant Matrix: (Units=GPa)
#
#
# Indices 1 2 3 4 5 6 
#
# 1 61.8962 18.1236 -4.1959 0.0000 0.0000 0.0000
# 2 18.1236 124.9885 37.8988 0.0000 0.0000 0.0000
# 3 -4.1959 37.8988 104.1655 0.0000 0.0000 0.0000
# 4 0.0000 0.0000 0.0000 44.8499 0.0000 0.0000
# 5 0.0000 0.0000 0.0000 0.0000 36.4701 0.0000
# 6 0.0000 0.0000 0.0000 0.0000 0.0000 54.2561
#
#
#
# Elastic Compliance Matrix: (Units=1/GPa)
#
#
# Indices 1 2 3 4 5 6 
#
# 1 0.017166 -0.003033 0.001795 0.000000 0.000000 0.000000
# 2 -0.003033 0.009529 -0.003589 0.000000 0.000000 0.000000
# 3 0.001795 -0.003589 0.010978 0.000000 0.000000 0.000000
# 4 0.000000 0.000000 0.000000 0.022297 0.000000 0.000000
# 5 0.000000 0.000000 0.000000 0.000000 0.027420 0.000000
# 6 0.000000 0.000000 0.000000 0.000000 0.000000 0.018431
#
#
# Mechanical properties :
#
#
# Convention : Reuss Voigt Hill
#
# Bulk Modulus (GPa) = 35.69097 43.85591 39.77344
# Shear Modulus (GPa) = 40.05938 43.06348 41.56143
#
# Velocity S-wave (km/s) = 4.20943 4.36441 4.28762
# Velocity P-wave (km/s) = 6.27795 6.69298 6.48879
#
# Compressibility (1/GPa) = 0.02801829
#
# Stress axis : x y z
#
# Youngs Moduli (GPa) = 58.25479 104.94421 91.08923
#
# Poissons Ratio (x) = 0.31834 -0.16352
# Poissons Ratio (y) = 0.17671 0.32693
# Poissons Ratio (z) = -0.10457 0.37666
#
# Static dielectric constant tensor:
#      x y z
#    x 1.797060 0.000000 0.000000 
#    y 0.000000 1.785730 0.000000 
#    z 0.000000 0.000000 1.847540 
# 
# From -- ./inp_files/60847.got.cif
#   From: 2010.05.17/outbox.cif.g08.bks.cpg/sg70_31_cif.got.tgz:60847.got - 2010.06.03 15:57:51.
