data_PCOD9517511
_publ_section_title
;
Structure prediction by ZEFSAII (Michael W. Deem and Ramdas Pophale) SiO2 
 PCOD9517511
Probable space group: I M M M
;
_chemical_formula_sum "Si O2"
_cell_formula_units_Z 60
_cell_length_a 7.685845
_cell_length_b 19.816470
_cell_length_c 20.639830
_cell_angle_alpha 90.000000
_cell_angle_beta 90.000000
_cell_angle_gamma 90.000000
_cell_volume 3143.576488
_symmetry_space_group_name_H-M "I M M M"
_symmetry_group_IT_number 71
_symmetry_cell_setting 'orthorhombic'
loop_
_space_group_symop_operation_xyz
x,y,z
-x,-y,z
x,-y,-z
-x,y,-z
-x,-y,-z
x,y,-z
-x,y,z
x,-y,z
1/2+x,1/2+y,1/2+z
1/2-x,1/2-y,1/2+z
1/2+x,1/2-y,1/2-z
1/2-x,1/2+y,1/2-z
1/2-x,1/2-y,1/2-z
1/2+x,1/2+y,1/2-z
1/2-x,1/2+y,1/2+z
1/2+x,1/2-y,1/2+z
loop_
_atom_site_type_symbol
_atom_site_label
_atom_site_fract_x
_atom_site_fract_y
_atom_site_fract_z
Si Si1 0.705797 0.757932 0.923776
Si Si2 0.806877 0.500000 0.765972
Si Si3 0.500000 0.500000 0.336735
Si Si4 0.196594 0.920844 0.500000
Si Si5 0.210534 0.880448 0.637690
Si Si6 0.500000 0.632247 0.575904
O O1 0.500000 0.773455 0.920236
O O2 0.742256 0.699688 0.870203
O O3 0.831143 0.820886 0.912225
O O4 0.738632 0.736121 0.000000
O O5 0.665392 0.500000 0.710225
O O6 0.782302 0.568002 0.809268
O O7 0.000000 0.500000 0.738961
O O8 0.500000 0.433382 0.380330
O O9 0.280102 0.903716 0.567770
O O10 0.000000 0.889524 0.500000
O O11 0.175243 0.000000 0.500000
O O12 0.000000 0.889582 0.639942
O O13 0.500000 0.613714 0.500000
#
# Coordination Sequence:
#
# PCOD9517511 Si02
#       6
#    16   8   4   8  16   8
#     4   9  18  34  62 100 133 156 190 251 321 377
#     4  12  26  40  60  86 126 179 227 250 285 357
#     4  12  27  52  66  83 120 166 210 268 318 367
#     4   9  14  22  48  84 120 170 213 237 288 343
#     4  10  17  33  57  88 131 176 207 248 297 360
#     4  10  23  44  74  99 115 144 201 270 334 383
#
# _framework density 19.086539999999999
#
# number of rings (size 3 to 8) (size 9 to 14) (size 15 to 20)
#    0.000    2.000    4.000    0.200    1.867    1.067 
#    0.000    2.667    0.000    4.000    0.000    0.000 
#    0.000    0.000    0.000    0.000    0.000    0.000 
#
# Total GULP energy -167154.340176 kJ/mol
# GULP energy per Si atom -5571.811339 kJ/mol
# Density = 1.904310 g / cm^3
# Si number density = 19.086540 Si / 1000 Ang^3
#
#
#
# Elastic Constant Matrix: (Units=GPa)
#
#
# Indices 1 2 3 4 5 6 
#
# 1 106.2989 69.8865 55.1789 0.0000 0.0000 0.0000
# 2 69.8865 141.2148 77.7701 0.0000 0.0000 0.0000
# 3 55.1789 77.7701 88.2137 0.0000 0.0000 0.0000
# 4 0.0000 0.0000 0.0000 19.7161 0.0000 0.0000
# 5 0.0000 0.0000 0.0000 0.0000 -2.6980 0.0000
# 6 0.0000 0.0000 0.0000 0.0000 0.0000 1.5368
#
#
#
# Elastic Compliance Matrix: (Units=1/GPa)
#
#
# Indices 1 2 3 4 5 6 
#
# 1 0.015250 -0.004458 -0.005608 0.000000 0.000000 0.000000
# 2 -0.004458 0.015068 -0.010495 0.000000 0.000000 0.000000
# 3 -0.005608 -0.010495 0.024097 0.000000 0.000000 0.000000
# 4 0.000000 0.000000 0.000000 0.050720 0.000000 0.000000
# 5 0.000000 0.000000 0.000000 0.000000 -0.370639 0.000000
# 6 0.000000 0.000000 0.000000 0.000000 0.000000 0.650719
#
#
# Mechanical properties :
#
#
# Convention : Reuss Voigt Hill
#
# Bulk Modulus (GPa) = 75.24103 82.37760 78.80932
# Shear Modulus (GPa) = 11.60716 12.57042 12.08879
#
# Velocity S-wave (km/s) = 2.46871 2.56911 2.51941
# Velocity P-wave (km/s) = 6.90164 7.21486 7.05998
#
# Compressibility (1/GPa) = 0.01329062
#
# Stress axis : x y z
#
# Youngs Moduli (GPa) = 65.57400 66.36706 41.49923
#
# Poissons Ratio (x) = 0.29589 0.23275
# Poissons Ratio (y) = 0.29236 0.43554
# Poissons Ratio (z) = 0.36777 0.69653
#
# Static dielectric constant tensor:
#      x y z
#    x 1.693990 0.000000 0.000000 
#    y 0.000000 1.683860 0.000000 
#    z 0.000000 0.000000 1.656460 
# 
# From -- ./inp_files/41897.got.cif
#   From: 2010.05.17/outbox.cif.g08.bks.cpg/sg71_21_cif.got.tgz:41897.got - 2010.06.03 16:22:01.
