data_PCOD9517274
_publ_section_title
;
Structure prediction by ZEFSAII (Michael W. Deem and Ramdas Pophale) SiO2 
 PCOD9517274
Probable space group: I M M M
;
_chemical_formula_sum "Si O2"
_cell_formula_units_Z 72
_cell_length_a 25.388868
_cell_length_b 10.429309
_cell_length_c 16.082840
_cell_angle_alpha 90.000000
_cell_angle_beta 90.000000
_cell_angle_gamma 90.000000
_cell_volume 4258.548659
_symmetry_space_group_name_H-M "I M M M"
_symmetry_group_IT_number 71
_symmetry_cell_setting 'orthorhombic'
loop_
_space_group_symop_operation_xyz
x,y,z
-x,-y,z
x,-y,-z
-x,y,-z
-x,-y,-z
x,y,-z
-x,y,z
x,-y,z
1/2+x,1/2+y,1/2+z
1/2-x,1/2-y,1/2+z
1/2+x,1/2-y,1/2-z
1/2-x,1/2+y,1/2-z
1/2-x,1/2-y,1/2-z
1/2+x,1/2+y,1/2-z
1/2-x,1/2+y,1/2+z
1/2+x,1/2-y,1/2+z
loop_
_atom_site_type_symbol
_atom_site_label
_atom_site_fract_x
_atom_site_fract_y
_atom_site_fract_z
Si Si1 0.918896 0.259998 0.731096
Si Si2 0.942170 0.500000 0.149664
Si Si3 0.057610 0.000000 0.828323
Si Si4 0.173265 0.500000 0.906316
Si Si5 0.000000 0.654710 0.598072
Si Si6 0.668935 0.500000 0.403149
Si Si7 0.805040 0.748641 0.797152
O O1 0.936867 0.374870 0.792092
O O2 0.936508 0.125616 0.770905
O O3 0.855271 0.258449 0.734543
O O4 0.948854 0.287892 0.645183
O O5 0.890545 0.500000 0.093286
O O6 0.000000 0.500000 0.110045
O O7 0.105565 0.000000 0.892658
O O8 0.000000 0.000000 0.867717
O O9 0.190866 0.375023 0.856059
O O10 0.193260 0.500000 0.000000
O O11 0.000000 0.500000 0.609139
O O12 0.000000 0.681903 0.500000
O O13 0.683465 0.500000 0.500000
O O14 0.688616 0.625362 0.354115
O O15 0.750000 0.750000 0.750000
#
# Coordination Sequence:
#
# PCOD9517274 Si02
#       7
#    16   8   8   8   8   8  16
#     4  10  18  33  53  76 105 136 182 217 259 326
#     4  10  16  30  54  75 106 143 165 204 259 324
#     4  10  18  30  54  79 104 147 171 204 259 324
#     4  10  21  34  54  83 108 136 176 226 270 305
#     4  11  20  33  55  81 110 139 175 233 285 311
#     4  10  21  36  54  83 114 138 174 226 272 311
#     4  10  21  37  59  77 104 148 188 217 267 332
#
# _framework density 16.907169
#
# number of rings (size 3 to 8) (size 9 to 14) (size 15 to 20)
#    0.000    1.889    3.333    1.333    0.000    0.444 
#    0.000    3.333    0.000    8.000    0.000    0.000 
#    0.000    0.000    0.000    0.000    0.000    0.000 
#
# Total GULP energy -200781.074707 kJ/mol
# GULP energy per Si atom -5577.252075 kJ/mol
# Density = 1.686869 g / cm^3
# Si number density = 16.907169 Si / 1000 Ang^3
#
#
#
# Elastic Constant Matrix: (Units=GPa)
#
#
# Indices 1 2 3 4 5 6 
#
# 1 159.8447 41.6433 63.6608 0.0000 0.0000 0.0000
# 2 41.6433 146.7503 50.3545 0.0000 0.0000 0.0000
# 3 63.6608 50.3545 118.2124 0.0000 0.0000 0.0000
# 4 0.0000 0.0000 0.0000 17.0584 0.0000 0.0000
# 5 0.0000 0.0000 0.0000 0.0000 15.0993 0.0000
# 6 0.0000 0.0000 0.0000 0.0000 0.0000 -181.0404
#
#
#
# Elastic Compliance Matrix: (Units=1/GPa)
#
#
# Indices 1 2 3 4 5 6 
#
# 1 0.008072 -0.000936 -0.003949 0.000000 0.000000 0.000000
# 2 -0.000936 0.008089 -0.002942 0.000000 0.000000 0.000000
# 3 -0.003949 -0.002942 0.011839 0.000000 0.000000 0.000000
# 4 0.000000 0.000000 0.000000 0.058622 0.000000 0.000000
# 5 0.000000 0.000000 0.000000 0.000000 0.066228 0.000000
# 6 0.000000 0.000000 0.000000 0.000000 0.000000 -0.005524
#
#
# Mechanical properties :
#
#
# Convention : Reuss Voigt Hill
#
# Bulk Modulus (GPa) = 80.98370 81.79161 81.38766
# Shear Modulus (GPa) = 29.92290 -11.83329 9.04480
#
# Velocity S-wave (km/s) = 4.21150 -2.64843 2.31545
# Velocity P-wave (km/s) = 8.46475 6.25537 7.44250
#
# Compressibility (1/GPa) = 0.01234816
#
# Stress axis : x y z
#
# Youngs Moduli (GPa) = 123.87750 123.62054 84.46723
#
# Poissons Ratio (x) = 0.11569 0.33353
# Poissons Ratio (y) = 0.11593 0.24848
# Poissons Ratio (z) = 0.48915 0.36366
#
# Static dielectric constant tensor:
#      x y z
#    x 1.588750 0.000000 0.000000 
#    y 0.000000 1.558450 0.000000 
#    z 0.000000 0.000000 1.527760 
# 
# From -- ./inp_files/40024.got.cif
#   From: 2010.05.17/outbox.cif.g08.bks.cpg/sg71_21_cif.got.tgz:40024.got - 2010.06.03 16:22:01.
