data_PCOD9517068
_publ_section_title
;
Structure prediction by ZEFSAII (Michael W. Deem and Ramdas Pophale) SiO2 
 PCOD9517068
Probable space group: F D D D
;
_chemical_formula_sum "Si O2"
_cell_formula_units_Z 136
_cell_length_a 26.647193
_cell_length_b 14.469065
_cell_length_c 14.536674
_cell_angle_alpha 90.000000
_cell_angle_beta 90.000000
_cell_angle_gamma 90.000000
_cell_volume 5604.759556
_symmetry_space_group_name_H-M "F D D D"
_symmetry_group_IT_number 70
_space_group.IT_coordinate_system_code '2'
_symmetry_cell_setting 'orthorhombic'
loop_
_space_group_symop_operation_xyz
x,y,z
1/4-x,1/4-y,z
x,1/4-y,1/4-z
1/4-x,y,1/4-z
-x,-y,-z
3/4+x,3/4+y,-z
-x,3/4+y,3/4+z
3/4+x,-y,3/4+z
x,1/2+y,1/2+z
1/4-x,3/4-y,1/2+z
x,3/4-y,3/4-z
1/4-x,1/2+y,3/4-z
-x,1/2-y,1/2-z
3/4+x,1/4+y,1/2-z
-x,1/4+y,1/4+z
3/4+x,1/2-y,1/4+z
1/2+x,y,1/2+z
3/4-x,1/4-y,1/2+z
1/2+x,1/4-y,3/4-z
3/4-x,y,3/4-z
1/2-x,-y,1/2-z
1/4+x,3/4+y,1/2-z
1/2-x,3/4+y,1/4+z
1/4+x,-y,1/4+z
1/2+x,1/2+y,z
3/4-x,3/4-y,z
1/2+x,3/4-y,1/4-z
3/4-x,1/2+y,1/4-z
1/2-x,1/2-y,-z
1/4+x,1/4+y,-z
1/2-x,1/4+y,3/4+z
1/4+x,1/2-y,3/4+z
loop_
_atom_site_type_symbol
_atom_site_label
_atom_site_fract_x
_atom_site_fract_y
_atom_site_fract_z
Si Si1 0.062600 0.273557 0.016937
Si Si2 0.125000 0.625000 0.956426
Si Si3 0.801477 0.239224 0.727928
Si Si4 0.373173 0.125000 0.625000
Si Si5 0.698387 0.986710 0.191487
Si Si6 0.625000 0.125000 0.625000
O O1 0.062919 0.377363 0.058074
O O2 0.096325 0.195676 0.059820
O O3 0.085124 0.297060 0.915033
O O4 0.007219 0.234655 0.037581
O O5 0.171841 0.568618 0.915527
O O6 0.153947 0.703430 0.014615
O O7 0.837010 0.152768 0.704689
O O8 0.800088 0.266304 0.835434
O O9 0.750000 0.000000 0.250000
#
# Coordination Sequence:
#
# PCOD9517068 Si02
#       6
#    32  16  32  16  32   8
#     4  12  27  49  75 108 154 207 263 312 391 474
#     4  12  25  43  77 112 144 183 254 337 395 435
#     4  12  26  44  74 113 148 194 256 321 393 466
#     4  12  27  48  76 112 154 206 255 318 390 470
#     4  12  24  46  78 111 150 194 256 337 393 454
#     4  12  30  54  74 106 164 226 258 316 382 482
#
# _framework density 24.265091000000002
#
# number of rings (size 3 to 8) (size 9 to 14) (size 15 to 20)
#    0.000    0.000    4.706    5.647    0.000    2.824 
#    0.000    4.706    0.000    0.000    0.000    0.000 
#    0.000    0.000    0.000    0.000    0.000    0.000 
#
# Total GULP energy -189734.425719 kJ/mol
# GULP energy per Si atom -5580.424286 kJ/mol
# Density = 2.420986 g / cm^3
# Si number density = 24.265091 Si / 1000 Ang^3
#
#
#
# Elastic Constant Matrix: (Units=GPa)
#
#
# Indices 1 2 3 4 5 6 
#
# 1 198.5013 54.1150 41.2994 0.0000 0.0000 0.0000
# 2 54.1150 112.1347 16.3362 0.0000 0.0000 0.0000
# 3 41.2994 16.3362 69.6645 0.0000 0.0000 0.0000
# 4 0.0000 0.0000 0.0000 38.8217 0.0000 0.0000
# 5 0.0000 0.0000 0.0000 0.0000 284.1202 0.0000
# 6 0.0000 0.0000 0.0000 0.0000 0.0000 31.6634
#
#
#
# Elastic Compliance Matrix: (Units=1/GPa)
#
#
# Indices 1 2 3 4 5 6 
#
# 1 0.006419 -0.002633 -0.003188 0.000000 0.000000 0.000000
# 2 -0.002633 0.010314 -0.000857 0.000000 0.000000 0.000000
# 3 -0.003188 -0.000857 0.016445 0.000000 0.000000 0.000000
# 4 0.000000 0.000000 0.000000 0.025759 0.000000 0.000000
# 5 0.000000 0.000000 0.000000 0.000000 0.003520 0.000000
# 6 0.000000 0.000000 0.000000 0.000000 0.000000 0.031582
#
#
# Mechanical properties :
#
#
# Convention : Reuss Voigt Hill
#
# Bulk Modulus (GPa) = 50.45203 67.08909 58.77056
# Shear Modulus (GPa) = 43.85870 88.82438 66.34154
#
# Velocity S-wave (km/s) = 4.25606 6.05684 5.23447
# Velocity P-wave (km/s) = 6.70740 8.75341 7.79780
#
# Compressibility (1/GPa) = 0.01982081
#
# Stress axis : x y z
#
# Youngs Moduli (GPa) = 155.79068 96.95995 60.80722
#
# Poissons Ratio (x) = 0.25532 0.19384
# Poissons Ratio (y) = 0.41024 0.05214
# Poissons Ratio (z) = 0.49663 0.08314
#
# Static dielectric constant tensor:
#      x y z
#    x 2.047670 0.000000 0.000000 
#    y 0.000000 2.006170 0.000000 
#    z 0.000000 0.000000 2.014400 
# 
# From -- ./inp_files/38355.got.cif
#   From: 2010.05.17/outbox.cif.g08.bks.cpg/sg70_20_cif.got.tgz:38355.got - 2010.06.03 15:57:51.
