data_PCOD9517591
_publ_section_title
;
Structure prediction by ZEFSAII (Michael W. Deem and Ramdas Pophale) SiO2 
 PCOD9517591
Probable space group: I M M M
;
_chemical_formula_sum "Si O2"
_cell_formula_units_Z 72
_cell_length_a 7.391548
_cell_length_b 14.892285
_cell_length_c 38.693385
_cell_angle_alpha 90.000000
_cell_angle_beta 90.000000
_cell_angle_gamma 90.000000
_cell_volume 4259.253265
_symmetry_space_group_name_H-M "I M M M"
_symmetry_group_IT_number 71
_symmetry_cell_setting 'orthorhombic'
loop_
_space_group_symop_operation_xyz
x,y,z
-x,-y,z
x,-y,-z
-x,y,-z
-x,-y,-z
x,y,-z
-x,y,z
x,-y,z
1/2+x,1/2+y,1/2+z
1/2-x,1/2-y,1/2+z
1/2+x,1/2-y,1/2-z
1/2-x,1/2+y,1/2-z
1/2-x,1/2-y,1/2-z
1/2+x,1/2+y,1/2-z
1/2-x,1/2+y,1/2+z
1/2+x,1/2-y,1/2+z
loop_
_atom_site_type_symbol
_atom_site_label
_atom_site_fract_x
_atom_site_fract_y
_atom_site_fract_z
Si Si1 0.208485 0.273176 0.159731
Si Si2 0.000000 0.891561 0.539036
Si Si3 0.718295 0.603465 0.224362
Si Si4 0.721171 0.397276 0.697312
Si Si5 0.217202 0.394616 0.903436
O O1 0.213239 0.332235 0.194544
O O2 0.287353 0.176949 0.170415
O O3 0.281273 0.332544 0.128297
O O4 0.000000 0.256681 0.150423
O O5 0.824724 0.868503 0.562008
O O6 0.000000 0.855793 0.500000
O O7 0.000000 0.000000 0.536595
O O8 0.500000 0.606867 0.223589
O O9 0.771848 0.500000 0.217897
O O10 0.776087 0.626978 0.263388
O O11 0.500000 0.395776 0.697287
O O12 0.775195 0.500000 0.690515
O O13 0.256162 0.500000 0.895820
O O14 0.000000 0.387557 0.907597
#
# Coordination Sequence:
#
# PCOD9517591 Si02
#       5
#    16   8  16  16  16
#     4  10  18  27  42  62  84 112 145 184 230 269
#     4   9  18  32  50  70  93 125 153 171 212 274
#     4   9  17  27  40  58  80 112 151 186 223 267
#     4   8  15  28  42  57  80 111 150 191 227 266
#     4   9  18  30  44  68  97 119 147 185 219 260
#
# _framework density 16.904371000000001
#
# number of rings (size 3 to 8) (size 9 to 14) (size 15 to 20)
#    0.000    3.000    0.000    2.667    1.556    1.778 
#    0.000    2.222    0.000    2.000    0.000    0.000 
#    0.000    1.778    0.000    8.667    0.000    0.222 
#
# Total GULP energy -200699.642289 kJ/mol
# GULP energy per Si atom -5574.990064 kJ/mol
# Density = 1.686590 g / cm^3
# Si number density = 16.904371 Si / 1000 Ang^3
#
#
#
# Elastic Constant Matrix: (Units=GPa)
#
#
# Indices 1 2 3 4 5 6 
#
# 1 60.5467 14.9159 25.5150 0.0000 0.0000 0.0000
# 2 14.9159 74.4675 78.2467 0.0000 0.0000 0.0000
# 3 25.5150 78.2467 130.0692 0.0000 0.0000 0.0000
# 4 0.0000 0.0000 0.0000 16.6282 0.0000 0.0000
# 5 0.0000 0.0000 0.0000 0.0000 12.2014 0.0000
# 6 0.0000 0.0000 0.0000 0.0000 0.0000 3.4953
#
#
#
# Elastic Compliance Matrix: (Units=1/GPa)
#
#
# Indices 1 2 3 4 5 6 
#
# 1 0.018007 0.000285 -0.003704 0.000000 0.000000 0.000000
# 2 0.000285 0.036506 -0.022017 0.000000 0.000000 0.000000
# 3 -0.003704 -0.022017 0.021660 0.000000 0.000000 0.000000
# 4 0.000000 0.000000 0.000000 0.060139 0.000000 0.000000
# 5 0.000000 0.000000 0.000000 0.000000 0.081958 0.000000
# 6 0.000000 0.000000 0.000000 0.000000 0.000000 0.286095
#
#
# Mechanical properties :
#
#
# Convention : Reuss Voigt Hill
#
# Bulk Modulus (GPa) = 39.52450 55.82650 47.67550
# Shear Modulus (GPa) = 8.87044 16.22538 12.54791
#
# Velocity S-wave (km/s) = 2.29321 3.10148 2.72745
# Velocity P-wave (km/s) = 5.51759 6.77659 6.17923
#
# Compressibility (1/GPa) = 0.02530076
#
# Stress axis : x y z
#
# Youngs Moduli (GPa) = 55.53465 27.39269 46.16858
#
# Poissons Ratio (x) = -0.00780 0.17099
# Poissons Ratio (y) = -0.01582 1.01650
# Poissons Ratio (z) = 0.20568 0.60311
#
# Static dielectric constant tensor:
#      x y z
#    x 1.608960 0.000000 0.000000 
#    y 0.000000 1.582950 0.000000 
#    z 0.000000 0.000000 1.549270 
# 
# From -- ./inp_files/6042.got.cif
#   From: 2010.05.17/outbox.cif.g08.bks.cpg/sg71_4_cif.got.tgz:6042.got - 2010.06.03 16:22:01.
