data_PCOD9517446
_publ_section_title
;
Structure prediction by ZEFSAII (Michael W. Deem and Ramdas Pophale) SiO2 
 PCOD9517446
Probable space group: I M M M
;
_chemical_formula_sum "Si O2"
_cell_formula_units_Z 128
_cell_length_a 19.281020
_cell_length_b 19.947594
_cell_length_c 20.804477
_cell_angle_alpha 90.000000
_cell_angle_beta 90.000000
_cell_angle_gamma 90.000000
_cell_volume 8001.609043
_symmetry_space_group_name_H-M "I M M M"
_symmetry_group_IT_number 71
_symmetry_cell_setting 'orthorhombic'
loop_
_space_group_symop_operation_xyz
x,y,z
-x,-y,z
x,-y,-z
-x,y,-z
-x,-y,-z
x,y,-z
-x,y,z
x,-y,z
1/2+x,1/2+y,1/2+z
1/2-x,1/2-y,1/2+z
1/2+x,1/2-y,1/2-z
1/2-x,1/2+y,1/2-z
1/2-x,1/2-y,1/2-z
1/2+x,1/2+y,1/2-z
1/2-x,1/2+y,1/2+z
1/2+x,1/2-y,1/2+z
loop_
_atom_site_type_symbol
_atom_site_label
_atom_site_fract_x
_atom_site_fract_y
_atom_site_fract_z
Si Si1 0.419215 0.282284 0.422935
Si Si2 0.420238 0.580068 0.806618
Si Si3 0.857011 0.926411 0.922787
Si Si4 0.216889 0.145842 0.744241
Si Si5 0.707791 0.924696 0.147050
Si Si6 0.581879 0.329508 0.927678
Si Si7 0.293183 0.238140 0.649728
Si Si8 0.830979 0.700379 0.424212
O O1 0.407902 0.275047 0.500000
O O2 0.500000 0.271021 0.409899
O O3 0.399266 0.359639 0.405467
O O4 0.368444 0.234433 0.382397
O O5 0.500000 0.598418 0.787576
O O6 0.415966 0.500000 0.806590
O O7 0.357060 0.610724 0.766238
O O8 0.407901 0.610999 0.877468
O O9 0.780391 0.922742 0.892737
O O10 0.886722 0.000000 0.903965
O O11 0.851114 0.925996 0.000000
O O12 0.269310 0.097080 0.781807
O O13 0.254216 0.174168 0.680227
O O14 0.204110 0.208543 0.791882
O O15 0.660118 0.867674 0.115730
O O16 0.680423 0.000000 0.144130
O O17 0.500000 0.317929 0.930818
O O18 0.617306 0.260398 0.906139
O O19 0.607273 0.344858 0.000000
O O20 0.244040 0.270788 0.595516
O O21 0.835577 0.687590 0.500000
#
# Coordination Sequence:
#
# PCOD9517446 Si02
#       8
#    16  16  16  16  16  16  16  16
#     4  10  19  31  47  68  96 126 157 203 254 289
#     4  10  20  33  49  71 101 133 162 194 234 283
#     4   9  16  27  42  62  92 129 165 196 229 278
#     4  10  19  32  47  65  94 133 169 200 236 278
#     4  10  19  30  47  70  96 125 163 206 245 284
#     4   9  18  32  50  72  96 124 157 193 238 291
#     4  10  19  31  48  67  93 125 169 209 238 278
#     4  10  17  29  51  72  93 123 161 204 245 288
#
# _framework density 15.996783000000001
#
# number of rings (size 3 to 8) (size 9 to 14) (size 15 to 20)
#    0.000    2.250    3.750    1.125    0.000    1.750 
#    0.000    2.500    0.000    0.375    0.000    1.750 
#    0.000    1.500    0.000    5.500    0.000    0.000 
#
# Total GULP energy -356456.491117 kJ/mol
# GULP energy per Si atom -5569.632674 kJ/mol
# Density = 1.596037 g / cm^3
# Si number density = 15.996783 Si / 1000 Ang^3
#
#
#
# Elastic Constant Matrix: (Units=GPa)
#
#
# Indices 1 2 3 4 5 6 
#
# 1 38.0232 22.0782 15.3232 0.0000 0.0000 0.0000
# 2 22.0782 59.1106 16.7472 0.0000 0.0000 0.0000
# 3 15.3232 16.7472 24.2570 0.0000 0.0000 0.0000
# 4 0.0000 0.0000 0.0000 12.1596 0.0000 0.0000
# 5 0.0000 0.0000 0.0000 0.0000 21.0510 0.0000
# 6 0.0000 0.0000 0.0000 0.0000 0.0000 23.9505
#
#
#
# Elastic Compliance Matrix: (Units=1/GPa)
#
#
# Indices 1 2 3 4 5 6 
#
# 1 0.039120 -0.009461 -0.018180 0.000000 0.000000 0.000000
# 2 -0.009461 0.023319 -0.010123 0.000000 0.000000 0.000000
# 3 -0.018180 -0.010123 0.059699 0.000000 0.000000 0.000000
# 4 0.000000 0.000000 0.000000 0.082240 0.000000 0.000000
# 5 0.000000 0.000000 0.000000 0.000000 0.047504 0.000000
# 6 0.000000 0.000000 0.000000 0.000000 0.000000 0.041753
#
#
# Mechanical properties :
#
#
# Convention : Reuss Voigt Hill
#
# Bulk Modulus (GPa) = 21.45500 25.52090 23.48795
# Shear Modulus (GPa) = 12.99716 15.91502 14.45609
#
# Velocity S-wave (km/s) = 2.85351 3.15761 3.00940
# Velocity P-wave (km/s) = 4.92929 5.41132 5.17592
#
# Compressibility (1/GPa) = 0.04660917
#
# Stress axis : x y z
#
# Youngs Moduli (GPa) = 25.56258 42.88309 16.75067
#
# Poissons Ratio (x) = 0.40570 0.30453
# Poissons Ratio (y) = 0.24184 0.16957
# Poissons Ratio (z) = 0.46474 0.43412
#
# Static dielectric constant tensor:
#      x y z
#    x 1.533790 0.000000 0.000000 
#    y 0.000000 1.547740 0.000000 
#    z 0.000000 0.000000 1.568190 
# 
# From -- ./inp_files/60918.got.cif
#   From: 2010.05.17/outbox.cif.g08.bks.cpg/sg71_31_cif.got.tgz:60918.got - 2010.06.03 16:22:01.
