data_PCOD9517561
_publ_section_title
;
Structure prediction by ZEFSAII (Michael W. Deem and Ramdas Pophale) SiO2 
 PCOD9517561
Probable space group: I M M M
;
_chemical_formula_sum "Si O2"
_cell_formula_units_Z 96
_cell_length_a 25.028879
_cell_length_b 14.482246
_cell_length_c 18.472881
_cell_angle_alpha 90.000000
_cell_angle_beta 90.000000
_cell_angle_gamma 90.000000
_cell_volume 6695.946139
_symmetry_space_group_name_H-M "I M M M"
_symmetry_group_IT_number 71
_symmetry_cell_setting 'orthorhombic'
loop_
_space_group_symop_operation_xyz
x,y,z
-x,-y,z
x,-y,-z
-x,y,-z
-x,-y,-z
x,y,-z
-x,y,z
x,-y,z
1/2+x,1/2+y,1/2+z
1/2-x,1/2-y,1/2+z
1/2+x,1/2-y,1/2-z
1/2-x,1/2+y,1/2-z
1/2-x,1/2-y,1/2-z
1/2+x,1/2+y,1/2-z
1/2-x,1/2+y,1/2+z
1/2+x,1/2-y,1/2+z
loop_
_atom_site_type_symbol
_atom_site_label
_atom_site_fract_x
_atom_site_fract_y
_atom_site_fract_z
Si Si1 0.276199 0.607905 0.277394
Si Si2 0.146753 0.226434 0.327420
Si Si3 0.650822 0.104825 0.734988
Si Si4 0.245792 0.282453 0.417505
Si Si5 0.820117 0.604972 0.919922
Si Si6 0.937180 0.890279 0.584382
O O1 0.290610 0.500000 0.279080
O O2 0.315808 0.665862 0.226417
O O3 0.215352 0.614358 0.246947
O O4 0.273300 0.652258 0.357511
O O5 0.125983 0.314360 0.282304
O O6 0.185882 0.265243 0.389818
O O7 0.100732 0.166159 0.362877
O O8 0.642242 0.117373 0.649306
O O9 0.636502 0.000000 0.755773
O O10 0.247888 0.317320 0.500000
O O11 0.275322 0.183389 0.416189
O O12 0.797951 0.500000 0.913259
O O13 0.845067 0.611755 0.000000
O O14 0.925388 0.868855 0.500000
O O15 0.000000 0.871821 0.596568
O O16 0.928700 0.000000 0.593897
#
# Coordination Sequence:
#
# PCOD9517561 Si02
#       6
#    16  16  16  16  16  16
#     4  10  18  27  38  57  86 117 145 176 212 252
#     4  11  17  28  44  65  81 114 150 183 213 260
#     4   9  16  27  40  59  89 116 142 176 211 250
#     4  10  18  27  38  58  86 116 148 176 204 248
#     4   9  15  23  36  55  83 115 142 170 203 238
#     4   9  19  34  49  66  87 109 138 183 232 265
#
# _framework density 14.337033
#
# number of rings (size 3 to 8) (size 9 to 14) (size 15 to 20)
#    0.000    2.333    3.333    2.500    0.000    1.000 
#    0.000    1.667    0.000    2.000    0.000    1.167 
#    0.000    2.667    0.000   13.333    0.000    0.000 
#
# Total GULP energy -267276.264991 kJ/mol
# GULP energy per Si atom -5568.255521 kJ/mol
# Density = 1.430440 g / cm^3
# Si number density = 14.337033 Si / 1000 Ang^3
#
#
#
# Elastic Constant Matrix: (Units=GPa)
#
#
# Indices 1 2 3 4 5 6 
#
# 1 29.4846 24.9333 31.6206 0.0000 0.0000 0.0000
# 2 24.9333 76.1553 47.5617 0.0000 0.0000 0.0000
# 3 31.6206 47.5617 114.3312 0.0000 0.0000 0.0000
# 4 0.0000 0.0000 0.0000 29.4233 0.0000 0.0000
# 5 0.0000 0.0000 0.0000 0.0000 17.4534 0.0000
# 6 0.0000 0.0000 0.0000 0.0000 0.0000 18.1412
#
#
#
# Elastic Compliance Matrix: (Units=1/GPa)
#
#
# Indices 1 2 3 4 5 6 
#
# 1 0.054711 -0.011433 -0.010375 0.000000 0.000000 0.000000
# 2 -0.011433 0.020129 -0.005212 0.000000 0.000000 0.000000
# 3 -0.010375 -0.005212 0.013784 0.000000 0.000000 0.000000
# 4 0.000000 0.000000 0.000000 0.033987 0.000000 0.000000
# 5 0.000000 0.000000 0.000000 0.000000 0.057295 0.000000
# 6 0.000000 0.000000 0.000000 0.000000 0.000000 0.055123
#
#
# Mechanical properties :
#
#
# Convention : Reuss Voigt Hill
#
# Bulk Modulus (GPa) = 28.91466 47.57804 38.24635
# Shear Modulus (GPa) = 16.63356 20.72728 18.68042
#
# Velocity S-wave (km/s) = 3.40984 3.80638 3.61355
# Velocity P-wave (km/s) = 5.97614 7.25090 6.64416
#
# Compressibility (1/GPa) = 0.03458453
#
# Stress axis : x y z
#
# Youngs Moduli (GPa) = 18.27788 49.67943 72.54715
#
# Poissons Ratio (x) = 0.56797 0.75271
# Poissons Ratio (y) = 0.20896 0.37810
# Poissons Ratio (z) = 0.18964 0.25892
#
# Static dielectric constant tensor:
#      x y z
#    x 1.433370 0.000000 0.000000 
#    y 0.000000 1.487860 0.000000 
#    z 0.000000 0.000000 1.505520 
# 
# From -- ./inp_files/55002.got.cif
#   From: 2010.05.17/outbox.cif.g08.bks.cpg/sg71_28_cif.got.tgz:55002.got - 2010.06.03 16:22:01.
