data_PCOD9517218
_publ_section_title
;
Structure prediction by ZEFSAII (Michael W. Deem and Ramdas Pophale) SiO2 
 PCOD9517218
Probable space group: I M M M
;
_chemical_formula_sum "Si O2"
_cell_formula_units_Z 88
_cell_length_a 31.706277
_cell_length_b 25.116894
_cell_length_c 7.395748
_cell_angle_alpha 90.000000
_cell_angle_beta 90.000000
_cell_angle_gamma 90.000000
_cell_volume 5889.701533
_symmetry_space_group_name_H-M "I M M M"
_symmetry_group_IT_number 71
_symmetry_cell_setting 'orthorhombic'
loop_
_space_group_symop_operation_xyz
x,y,z
-x,-y,z
x,-y,-z
-x,y,-z
-x,-y,-z
x,y,-z
-x,y,z
x,-y,z
1/2+x,1/2+y,1/2+z
1/2-x,1/2-y,1/2+z
1/2+x,1/2-y,1/2-z
1/2-x,1/2+y,1/2-z
1/2-x,1/2-y,1/2-z
1/2+x,1/2+y,1/2-z
1/2-x,1/2+y,1/2+z
1/2+x,1/2-y,1/2+z
loop_
_atom_site_type_symbol
_atom_site_label
_atom_site_fract_x
_atom_site_fract_y
_atom_site_fract_z
Si Si1 0.643520 0.500000 0.781458
Si Si2 0.000000 0.937552 0.720937
Si Si3 0.753357 0.117622 0.218343
Si Si4 0.840182 0.181823 0.715799
Si Si5 0.793365 0.718236 0.284402
Si Si6 0.240680 0.000000 0.205945
Si Si7 0.090134 0.896505 0.720371
O O1 0.689931 0.500000 0.702934
O O2 0.617478 0.551914 0.729368
O O3 0.647677 0.500000 0.000000
O O4 0.957574 0.907404 0.779306
O O5 0.000000 0.938514 0.500000
O O6 0.000000 0.000000 0.775817
O O7 0.799607 0.142835 0.257875
O O8 0.717732 0.159250 0.283637
O O9 0.748124 0.057510 0.287546
O O10 0.751342 0.115613 0.000000
O O11 0.844536 0.186852 0.500000
O O12 0.828385 0.240636 0.786970
O O13 0.882712 0.154008 0.783765
O O14 0.799623 0.713632 0.500000
O O15 0.750000 0.750000 0.250000
O O16 0.256984 0.000000 0.000000
O O17 0.089207 0.894715 0.500000
#
# Coordination Sequence:
#
# PCOD9517218 Si02
#       7
#     8   8  16  16  16   8  16
#     4  10  16  23  34  46  60  78 102 130 153 175
#     4   9  14  20  28  42  64  82  94 117 153 185
#     4   9  16  24  32  44  61  80  99 120 148 180
#     4   9  15  23  35  48  59  74  98 127 152 175
#     4   8  14  23  33  44  59  76  95 120 149 176
#     4  10  18  24  31  45  63  82 102 123 150 182
#     4   9  15  21  31  46  61  77  99 125 154 182
#
# _framework density 14.941333999999999
#
# number of rings (size 3 to 8) (size 9 to 14) (size 15 to 20)
#    0.000    3.000    2.727    0.000    0.000    0.000 
#    0.000    0.000    0.000    0.000    0.000    3.182 
#    0.000    0.000    0.000    0.000    0.000    0.909 
#
# Total GULP energy -244968.521115 kJ/mol
# GULP energy per Si atom -5567.466389 kJ/mol
# Density = 1.490733 g / cm^3
# Si number density = 14.941334 Si / 1000 Ang^3
#
#
#
# Elastic Constant Matrix: (Units=GPa)
#
#
# Indices 1 2 3 4 5 6 
#
# 1 81.6745 69.7423 3.8532 0.0000 0.0000 0.0000
# 2 69.7423 141.7788 5.1486 0.0000 0.0000 0.0000
# 3 3.8532 5.1486 52.4005 0.0000 0.0000 0.0000
# 4 0.0000 0.0000 0.0000 0.6748 0.0000 0.0000
# 5 0.0000 0.0000 0.0000 0.0000 3.8903 0.0000
# 6 0.0000 0.0000 0.0000 0.0000 0.0000 20.4295
#
#
#
# Elastic Compliance Matrix: (Units=1/GPa)
#
#
# Indices 1 2 3 4 5 6 
#
# 1 0.021126 -0.010373 -0.000534 0.000000 0.000000 0.000000
# 2 -0.010373 0.012171 -0.000433 0.000000 0.000000 0.000000
# 3 -0.000534 -0.000433 0.019166 0.000000 0.000000 0.000000
# 4 0.000000 0.000000 0.000000 1.481929 0.000000 0.000000
# 5 0.000000 0.000000 0.000000 0.000000 0.257048 0.000000
# 6 0.000000 0.000000 0.000000 0.000000 0.000000 0.048949
#
#
# Mechanical properties :
#
#
# Convention : Reuss Voigt Hill
#
# Bulk Modulus (GPa) = 33.57636 48.14909 40.86273
# Shear Modulus (GPa) = 2.66952 18.13957 10.40454
#
# Velocity S-wave (km/s) = 1.33811 3.48811 2.64173
# Velocity P-wave (km/s) = 4.99082 6.96548 6.05913
#
# Compressibility (1/GPa) = 0.02978286
#
# Stress axis : x y z
#
# Youngs Moduli (GPa) = 47.33423 82.15937 52.17669
#
# Poissons Ratio (x) = 0.85223 0.02788
# Poissons Ratio (y) = 0.49099 0.02260
# Poissons Ratio (z) = 0.02529 0.03559
#
# Static dielectric constant tensor:
#      x y z
#    x 1.475930 0.000000 0.000000 
#    y 0.000000 1.545640 0.000000 
#    z 0.000000 0.000000 1.605510 
# 
# From -- ./inp_files/17401.got.cif
#   From: 2010.05.17/outbox.cif.g08.bks.cpg/sg71_9_cif.got.tgz:17401.got - 2010.06.03 16:22:01.
