data_PCOD9517680
_publ_section_title
;
Structure prediction by ZEFSAII (Michael W. Deem and Ramdas Pophale) SiO2 
 PCOD9517680
Probable space group: I M M M
;
_chemical_formula_sum "Si O2"
_cell_formula_units_Z 112
_cell_length_a 7.351843
_cell_length_b 24.004327
_cell_length_c 30.335143
_cell_angle_alpha 90.000000
_cell_angle_beta 90.000000
_cell_angle_gamma 90.000000
_cell_volume 5353.426013
_symmetry_space_group_name_H-M "I M M M"
_symmetry_group_IT_number 71
_symmetry_cell_setting 'orthorhombic'
loop_
_space_group_symop_operation_xyz
x,y,z
-x,-y,z
x,-y,-z
-x,y,-z
-x,-y,-z
x,y,-z
-x,y,z
x,-y,z
1/2+x,1/2+y,1/2+z
1/2-x,1/2-y,1/2+z
1/2+x,1/2-y,1/2-z
1/2-x,1/2+y,1/2-z
1/2-x,1/2-y,1/2-z
1/2+x,1/2+y,1/2-z
1/2-x,1/2+y,1/2+z
1/2+x,1/2-y,1/2+z
loop_
_atom_site_type_symbol
_atom_site_label
_atom_site_fract_x
_atom_site_fract_y
_atom_site_fract_z
Si Si1 0.283655 0.937107 0.295242
Si Si2 0.278277 0.938772 0.112010
Si Si3 0.281912 0.338898 0.138924
Si Si4 0.716689 0.762770 0.801157
Si Si5 0.221658 0.211305 0.550096
Si Si6 0.278859 0.837995 0.050690
Si Si7 0.277913 0.112218 0.202463
O O1 0.500000 0.941338 0.289328
O O2 0.256147 0.896540 0.336555
O O3 0.214286 0.908003 0.250361
O O4 0.213351 0.000000 0.300622
O O5 0.500000 0.938143 0.110570
O O6 0.215975 0.887075 0.082432
O O7 0.226517 0.928090 0.162655
O O8 0.219748 0.000000 0.097033
O O9 0.500000 0.334240 0.137831
O O10 0.212217 0.287468 0.168877
O O11 0.218245 0.329742 0.088883
O O12 0.500000 0.764460 0.808593
O O13 0.750000 0.750000 0.750000
O O14 0.784198 0.825297 0.809045
O O15 0.281529 0.199567 0.500000
O O16 0.275600 0.274826 0.562200
O O17 0.000000 0.210809 0.549030
O O18 0.500000 0.838083 0.052272
O O19 0.226506 0.848198 0.000000
O O20 0.500000 0.113735 0.203824
#
# Coordination Sequence:
#
# PCOD9517680 Si02
#       7
#    16  16  16  16  16  16  16
#     4  10  20  33  48  65  89 124 159 185 219 273
#     4   9  15  21  31  49  75 111 153 189 217 249
#     4  10  19  30  48  73  95 117 150 191 231 269
#     4  10  18  28  44  67  93 119 149 186 227 269
#     4   8  14  26  44  65  88 113 143 181 228 278
#     4   8  13  21  33  51  78 111 144 180 223 266
#     4   9  16  27  41  57  82 115 151 186 216 257
#
# _framework density 20.921182999999999
#
# number of rings (size 3 to 8) (size 9 to 14) (size 15 to 20)
#    0.000    2.857    1.429    2.143    0.000    5.714 
#    0.000    1.429    0.000    0.857    0.000    3.000 
#    0.000    0.000    0.000    0.000    0.000    0.571 
#
# Total GULP energy -312615.600399 kJ/mol
# GULP energy per Si atom -5582.421436 kJ/mol
# Density = 2.087357 g / cm^3
# Si number density = 20.921183 Si / 1000 Ang^3
#
#
#
# Elastic Constant Matrix: (Units=GPa)
#
#
# Indices 1 2 3 4 5 6 
#
# 1 77.6349 4.2919 -1.8732 0.0000 0.0000 0.0000
# 2 4.2919 139.8864 70.2804 0.0000 0.0000 0.0000
# 3 -1.8732 70.2804 109.3450 0.0000 0.0000 0.0000
# 4 0.0000 0.0000 0.0000 25.1100 0.0000 0.0000
# 5 0.0000 0.0000 0.0000 0.0000 -5.6284 0.0000
# 6 0.0000 0.0000 0.0000 0.0000 0.0000 -2.8396
#
#
#
# Elastic Compliance Matrix: (Units=1/GPa)
#
#
# Indices 1 2 3 4 5 6 
#
# 1 0.012939 -0.000751 0.000704 0.000000 0.000000 0.000000
# 2 -0.000751 0.010602 -0.006827 0.000000 0.000000 0.000000
# 3 0.000704 -0.006827 0.013545 0.000000 0.000000 0.000000
# 4 0.000000 0.000000 0.000000 0.039825 0.000000 0.000000
# 5 0.000000 0.000000 0.000000 0.000000 -0.177669 0.000000
# 6 0.000000 0.000000 0.000000 0.000000 0.000000 -0.352167
#
#
# Mechanical properties :
#
#
# Convention : Reuss Voigt Hill
#
# Bulk Modulus (GPa) = 42.84626 52.47386 47.66006
# Shear Modulus (GPa) = -11.59024 20.27287 4.34132
#
# Velocity S-wave (km/s) = -2.35626 3.11627 1.44208
# Velocity P-wave (km/s) = 3.62238 6.17125 5.05994
#
# Compressibility (1/GPa) = 0.02333926
#
# Stress axis : x y z
#
# Youngs Moduli (GPa) = 77.28389 94.32513 73.82589
#
# Poissons Ratio (x) = 0.07082 -0.05199
# Poissons Ratio (y) = 0.05803 0.50401
# Poissons Ratio (z) = -0.05443 0.64395
#
# Static dielectric constant tensor:
#      x y z
#    x 1.734490 0.000000 0.000000 
#    y 0.000000 1.735430 0.000000 
#    z 0.000000 0.000000 1.731660 
# 
# From -- ./inp_files/64809.got.cif
#   From: 2010.05.17/outbox.cif.g08.bks.cpg/sg71_33_cif.got.tgz:64809.got - 2010.06.03 16:22:01.
