data_PCOD9517599
_publ_section_title
;
Structure prediction by ZEFSAII (Michael W. Deem and Ramdas Pophale) SiO2 
 PCOD9517599
Probable space group: I M M M
;
_chemical_formula_sum "Si O2"
_cell_formula_units_Z 96
_cell_length_a 20.862517
_cell_length_b 7.338241
_cell_length_c 28.589467
_cell_angle_alpha 90.000000
_cell_angle_beta 90.000000
_cell_angle_gamma 90.000000
_cell_volume 4376.880939
_symmetry_space_group_name_H-M "I M M M"
_symmetry_group_IT_number 71
_symmetry_cell_setting 'orthorhombic'
loop_
_space_group_symop_operation_xyz
x,y,z
-x,-y,z
x,-y,-z
-x,y,-z
-x,-y,-z
x,y,-z
-x,y,z
x,-y,z
1/2+x,1/2+y,1/2+z
1/2-x,1/2-y,1/2+z
1/2+x,1/2-y,1/2-z
1/2-x,1/2+y,1/2-z
1/2-x,1/2-y,1/2-z
1/2+x,1/2+y,1/2-z
1/2-x,1/2+y,1/2+z
1/2+x,1/2-y,1/2+z
loop_
_atom_site_type_symbol
_atom_site_label
_atom_site_fract_x
_atom_site_fract_y
_atom_site_fract_z
Si Si1 0.605072 0.221533 0.500000
Si Si2 0.798545 0.222854 0.603949
Si Si3 0.572220 0.282246 0.258228
Si Si4 0.746509 0.721784 0.000000
Si Si5 0.071244 0.778126 0.650420
Si Si6 0.320642 0.783013 0.665213
Si Si7 0.067242 0.277649 0.899562
O O1 0.679004 0.274204 0.500000
O O2 0.571928 0.279816 0.547181
O O3 0.603255 0.000000 0.500000
O O4 0.781532 0.279605 0.550638
O O5 0.869400 0.280930 0.619075
O O6 0.747988 0.281792 0.644870
O O7 0.796873 0.000000 0.603290
O O8 0.500000 0.215160 0.273557
O O9 0.567693 0.500000 0.258510
O O10 0.580267 0.222319 0.204503
O O11 0.637442 0.244144 0.287415
O O12 0.743469 0.500000 0.000000
O O13 0.000000 0.721343 0.635238
O O14 0.071800 0.000000 0.650377
O O15 0.371337 0.712895 0.627371
O O16 0.314900 0.000000 0.662467
O O17 0.068872 0.500000 0.898064
O O18 0.000000 0.218082 0.878665
#
# Coordination Sequence:
#
# PCOD9517599 Si02
#       7
#     8  16  16   8  16  16  16
#     4   9  13  20  31  47  76 112 143 170 208 260
#     4   9  16  26  42  64  90 117 145 184 231 273
#     4   9  18  32  47  62  86 123 161 191 220 261
#     4   9  14  23  37  57  89 119 141 177 230 274
#     4   8  15  29  46  61  81 115 155 187 221 273
#     4  10  18  27  42  67  95 119 147 186 231 268
#     4   9  15  21  31  51  80 111 142 175 210 253
#
# _framework density 21.933429
#
# number of rings (size 3 to 8) (size 9 to 14) (size 15 to 20)
#    0.000    3.000    1.667    1.750    0.000    2.667 
#    0.000    0.417    0.000    2.500    0.000    2.333 
#    0.000    6.667    0.000    0.000    0.000    7.500 
#
# Total GULP energy -267379.699291 kJ/mol
# GULP energy per Si atom -5570.410402 kJ/mol
# Density = 2.188351 g / cm^3
# Si number density = 21.933429 Si / 1000 Ang^3
#
#
#
# Elastic Constant Matrix: (Units=GPa)
#
#
# Indices 1 2 3 4 5 6 
#
# 1 201.2811 5.9372 81.1585 0.0000 0.0000 0.0000
# 2 5.9372 84.7860 -0.4217 0.0000 0.0000 0.0000
# 3 81.1585 -0.4217 98.9571 0.0000 0.0000 0.0000
# 4 0.0000 0.0000 0.0000 7.0390 0.0000 0.0000
# 5 0.0000 0.0000 0.0000 0.0000 21.7870 0.0000
# 6 0.0000 0.0000 0.0000 0.0000 0.0000 -2.6806
#
#
#
# Elastic Compliance Matrix: (Units=1/GPa)
#
#
# Indices 1 2 3 4 5 6 
#
# 1 0.007449 -0.000552 -0.006111 0.000000 0.000000 0.000000
# 2 -0.000552 0.011836 0.000503 0.000000 0.000000 0.000000
# 3 -0.006111 0.000503 0.015120 0.000000 0.000000 0.000000
# 4 0.000000 0.000000 0.000000 0.142065 0.000000 0.000000
# 5 0.000000 0.000000 0.000000 0.000000 0.045899 0.000000
# 6 0.000000 0.000000 0.000000 0.000000 0.000000 -0.373056
#
#
# Mechanical properties :
#
#
# Convention : Reuss Voigt Hill
#
# Bulk Modulus (GPa) = 45.28252 62.04137 53.66195
# Shear Modulus (GPa) = -38.16574 25.11911 -6.52331
#
# Velocity S-wave (km/s) = -4.17594 3.38782 -1.72644
# Velocity P-wave (km/s) = 1.60033 6.60687 4.53264
#
# Compressibility (1/GPa) = 0.02208358
#
# Stress axis : x y z
#
# Youngs Moduli (GPa) = 134.25437 84.49118 66.13954
#
# Poissons Ratio (x) = 0.04664 0.40419
# Poissons Ratio (y) = 0.07411 -0.03328
# Poissons Ratio (z) = 0.82045 -0.04251
#
# Static dielectric constant tensor:
#      x y z
#    x 1.787040 0.000000 0.000000 
#    y 0.000000 1.879270 0.000000 
#    z 0.000000 0.000000 1.800690 
# 
# From -- ./inp_files/66544.got.cif
#   From: 2010.05.17/outbox.cif.g08.bks.cpg/sg71_34_cif.got.tgz:66544.got - 2010.06.03 16:22:01.
