data_PCOD9517764
_publ_section_title
;
Structure prediction by ZEFSAII (Michael W. Deem and Ramdas Pophale) SiO2 
 PCOD9517764
Probable space group: I M M M
;
_chemical_formula_sum "Si O2"
_cell_formula_units_Z 88
_cell_length_a 7.551147
_cell_length_b 30.385943
_cell_length_c 19.191910
_cell_angle_alpha 90.000000
_cell_angle_beta 90.000000
_cell_angle_gamma 90.000000
_cell_volume 4403.559229
_symmetry_space_group_name_H-M "I M M M"
_symmetry_group_IT_number 71
_symmetry_cell_setting 'orthorhombic'
loop_
_space_group_symop_operation_xyz
x,y,z
-x,-y,z
x,-y,-z
-x,y,-z
-x,-y,-z
x,y,-z
-x,y,z
x,-y,z
1/2+x,1/2+y,1/2+z
1/2-x,1/2-y,1/2+z
1/2+x,1/2-y,1/2-z
1/2-x,1/2+y,1/2-z
1/2-x,1/2-y,1/2-z
1/2+x,1/2+y,1/2-z
1/2-x,1/2+y,1/2+z
1/2+x,1/2-y,1/2+z
loop_
_atom_site_type_symbol
_atom_site_label
_atom_site_fract_x
_atom_site_fract_y
_atom_site_fract_z
Si Si1 0.211596 0.793457 0.794175
Si Si2 0.711042 0.449998 0.346993
Si Si3 0.217939 0.884314 0.727052
Si Si4 0.208972 0.859717 0.578665
Si Si5 0.214514 0.741965 0.921824
Si Si6 0.710117 0.949767 0.000000
O O1 0.250000 0.750000 0.750000
O O2 0.278697 0.837678 0.759040
O O3 0.278569 0.779577 0.870025
O O4 0.000000 0.798922 0.798451
O O5 0.500000 0.452648 0.338689
O O6 0.782959 0.500000 0.346844
O O7 0.776267 0.421446 0.281791
O O8 0.739725 0.430263 0.424671
O O9 0.277284 0.885988 0.646256
O O10 0.000000 0.884621 0.725597
O O11 0.283330 0.866361 0.500000
O O12 0.228237 0.807750 0.596355
O O13 0.000000 0.868974 0.574079
O O14 0.000000 0.741434 0.920010
O O15 0.273818 0.750223 0.000000
O O16 0.500000 0.952326 0.000000
O O17 0.785272 0.000000 0.000000
#
# Coordination Sequence:
#
# PCOD9517764 Si02
#       6
#    16  16  16  16  16   8
#     4  10  18  29  44  63  89 118 148 183 224 267
#     4   9  17  31  51  71  91 120 158 193 225 271
#     4   9  17  29  45  68  92 117 152 191 229 269
#     4   9  16  27  45  65  86 116 152 186 222 268
#     4   9  17  28  41  59  84 114 149 185 219 258
#     4   9  17  31  51  73  97 121 147 187 235 277
#
# _framework density 19.983834000000002
#
# number of rings (size 3 to 8) (size 9 to 14) (size 15 to 20)
#    0.000    2.818    1.818    0.273    0.000    1.091 
#    1.636    1.818    0.000    0.545    0.000    3.818 
#    0.000    0.000    0.000    9.091    0.000    9.455 
#
# Total GULP energy -245122.126294 kJ/mol
# GULP energy per Si atom -5570.957416 kJ/mol
# Density = 1.993835 g / cm^3
# Si number density = 19.983834 Si / 1000 Ang^3
#
#
#
# Elastic Constant Matrix: (Units=GPa)
#
#
# Indices 1 2 3 4 5 6 
#
# 1 49.0680 1.3003 5.5874 0.0000 0.0000 0.0000
# 2 1.3003 64.4787 69.5012 0.0000 0.0000 0.0000
# 3 5.5874 69.5012 198.8490 0.0000 0.0000 0.0000
# 4 0.0000 0.0000 0.0000 34.3919 0.0000 0.0000
# 5 0.0000 0.0000 0.0000 0.0000 2.6943 0.0000
# 6 0.0000 0.0000 0.0000 0.0000 0.0000 11.0431
#
#
#
# Elastic Compliance Matrix: (Units=1/GPa)
#
#
# Indices 1 2 3 4 5 6 
#
# 1 0.020450 0.000332 -0.000691 0.000000 0.000000 0.000000
# 2 0.000332 0.024889 -0.008709 0.000000 0.000000 0.000000
# 3 -0.000691 -0.008709 0.008092 0.000000 0.000000 0.000000
# 4 0.000000 0.000000 0.000000 0.029077 0.000000 0.000000
# 5 0.000000 0.000000 0.000000 0.000000 0.371158 0.000000
# 6 0.000000 0.000000 0.000000 0.000000 0.000000 0.090554
#
#
# Mechanical properties :
#
#
# Convention : Reuss Voigt Hill
#
# Bulk Modulus (GPa) = 28.33118 51.68594 40.00856
# Shear Modulus (GPa) = 8.70899 25.35965 17.03432
#
# Velocity S-wave (km/s) = 2.08985 3.56618 2.92276
# Velocity P-wave (km/s) = 4.47562 6.54804 5.60839
#
# Compressibility (1/GPa) = 0.03529679
#
# Stress axis : x y z
#
# Youngs Moduli (GPa) = 48.90043 40.17807 123.57677
#
# Poissons Ratio (x) = -0.01334 0.08535
# Poissons Ratio (y) = -0.01624 1.07617
# Poissons Ratio (z) = 0.03377 0.34989
#
# Static dielectric constant tensor:
#      x y z
#    x 1.700440 0.000000 0.000000 
#    y 0.000000 1.678970 0.000000 
#    z 0.000000 0.000000 1.782040 
# 
# From -- ./inp_files/16713.got.cif
#   From: 2010.05.17/outbox.cif.g08.bks.cpg/sg71_9_cif.got.tgz:16713.got - 2010.06.03 16:22:01.
