data_PCOD9517949
_publ_section_title
;
Structure prediction by ZEFSAII (Michael W. Deem and Ramdas Pophale) SiO2 
 PCOD9517949
Probable space group: I M M M
;
_chemical_formula_sum "Si O2"
_cell_formula_units_Z 104
_cell_length_a 23.313628
_cell_length_b 31.406389
_cell_length_c 7.482633
_cell_angle_alpha 90.000000
_cell_angle_beta 90.000000
_cell_angle_gamma 90.000000
_cell_volume 5478.760462
_symmetry_space_group_name_H-M "I M M M"
_symmetry_group_IT_number 71
_symmetry_cell_setting 'orthorhombic'
loop_
_space_group_symop_operation_xyz
x,y,z
-x,-y,z
x,-y,-z
-x,y,-z
-x,-y,-z
x,y,-z
-x,y,z
x,-y,z
1/2+x,1/2+y,1/2+z
1/2-x,1/2-y,1/2+z
1/2+x,1/2-y,1/2-z
1/2-x,1/2+y,1/2-z
1/2-x,1/2-y,1/2-z
1/2+x,1/2+y,1/2-z
1/2-x,1/2+y,1/2+z
1/2+x,1/2-y,1/2+z
loop_
_atom_site_type_symbol
_atom_site_label
_atom_site_fract_x
_atom_site_fract_y
_atom_site_fract_z
Si Si1 0.887184 0.395704 0.788678
Si Si2 0.933993 0.784732 0.714239
Si Si3 0.934493 0.692149 0.212772
Si Si4 0.651955 0.451495 0.218077
Si Si5 0.217326 0.548576 0.218203
Si Si6 0.000000 0.548875 0.286153
Si Si7 0.566762 0.622001 0.781797
O O1 0.901122 0.348805 0.715279
O O2 0.831430 0.419613 0.715523
O O3 0.943355 0.425276 0.769559
O O4 0.876655 0.390673 0.000000
O O5 0.935530 0.786323 0.500000
O O6 0.907912 0.738960 0.760022
O O7 0.911640 0.830849 0.774033
O O8 0.000000 0.782891 0.779979
O O9 0.000000 0.691999 0.284755
O O10 0.938971 0.686392 0.000000
O O11 0.638532 0.500000 0.273227
O O12 0.717407 0.441543 0.271949
O O13 0.606850 0.416323 0.279780
O O14 0.651067 0.451331 0.000000
O O15 0.204170 0.500000 0.272008
O O16 0.216670 0.548931 0.000000
O O17 0.000000 0.500000 0.219609
O O18 0.000000 0.547449 0.500000
O O19 0.500000 0.617392 0.728926
O O20 0.567173 0.621233 0.000000
#
# Coordination Sequence:
#
# PCOD9517949 Si02
#       7
#    16  16  16  16  16   8  16
#     4  10  18  30  46  62  81 109 144 181 218 256
#     4   8  14  24  38  56  79 110 141 166 199 249
#     4   9  16  26  39  58  80 100 132 177 216 250
#     4   8  13  21  34  56  85 111 138 175 212 245
#     4   8  14  24  39  58  77 102 139 177 211 250
#     4  11  23  33  41  61  91 115 137 173 220 263
#     4   8  13  21  34  55  84 115 143 168 201 253
#
# _framework density 18.982396999999999
#
# number of rings (size 3 to 8) (size 9 to 14) (size 15 to 20)
#    0.000    3.308    0.769    2.538    0.000    2.154 
#    0.000    1.538    0.000    0.923    0.000    1.077 
#    0.000    1.846    0.000    6.000    0.000    6.154 
#
# Total GULP energy -289674.901162 kJ/mol
# GULP energy per Si atom -5570.671176 kJ/mol
# Density = 1.893919 g / cm^3
# Si number density = 18.982397 Si / 1000 Ang^3
#
#
#
# Elastic Constant Matrix: (Units=GPa)
#
#
# Indices 1 2 3 4 5 6 
#
# 1 96.2595 110.2690 1.3172 0.0000 0.0000 0.0000
# 2 110.2690 218.1441 3.3204 0.0000 0.0000 0.0000
# 3 1.3172 3.3204 51.4359 0.0000 0.0000 0.0000
# 4 0.0000 0.0000 0.0000 40.3466 0.0000 0.0000
# 5 0.0000 0.0000 0.0000 0.0000 -14.9963 0.0000
# 6 0.0000 0.0000 0.0000 0.0000 0.0000 28.7020
#
#
#
# Elastic Compliance Matrix: (Units=1/GPa)
#
#
# Indices 1 2 3 4 5 6 
#
# 1 0.024681 -0.012478 0.000173 0.000000 0.000000 0.000000
# 2 -0.012478 0.010898 -0.000384 0.000000 0.000000 0.000000
# 3 0.000173 -0.000384 0.019462 0.000000 0.000000 0.000000
# 4 0.000000 0.000000 0.000000 0.024785 0.000000 0.000000
# 5 0.000000 0.000000 0.000000 0.000000 -0.066683 0.000000
# 6 0.000000 0.000000 0.000000 0.000000 0.000000 0.034841
#
#
# Mechanical properties :
#
#
# Convention : Reuss Voigt Hill
#
# Bulk Modulus (GPa) = 33.71244 66.18364 49.94804
# Shear Modulus (GPa) = 60.06095 27.53931 43.80013
#
# Velocity S-wave (km/s) = 5.63108 3.81304 4.80876
# Velocity P-wave (km/s) = 7.75094 7.37070 7.56321
#
# Compressibility (1/GPa) = 0.02966264
#
# Stress axis : x y z
#
# Youngs Moduli (GPa) = 40.51738 91.76276 51.38217
#
# Poissons Ratio (x) = 1.14506 -0.00891
# Poissons Ratio (y) = 0.50559 0.01973
# Poissons Ratio (z) = -0.00703 0.03523
#
# Static dielectric constant tensor:
#      x y z
#    x 1.632900 0.000000 0.000000 
#    y 0.000000 1.694660 0.000000 
#    z 0.000000 0.000000 1.745570 
# 
# From -- ./inp_files/13599.got.cif
#   From: 2010.05.17/outbox.cif.g08.bks.cpg/sg71_7_cif.got.tgz:13599.got - 2010.06.03 16:22:01.
