data_PCOD9517682
_publ_section_title
;
Structure prediction by ZEFSAII (Michael W. Deem and Ramdas Pophale) SiO2 
 PCOD9517682
Probable space group: I M M M
;
_chemical_formula_sum "Si O2"
_cell_formula_units_Z 72
_cell_length_a 19.180128
_cell_length_b 20.004008
_cell_length_c 7.477392
_cell_angle_alpha 90.000000
_cell_angle_beta 90.000000
_cell_angle_gamma 90.000000
_cell_volume 2868.921530
_symmetry_space_group_name_H-M "I M M M"
_symmetry_group_IT_number 71
_symmetry_cell_setting 'orthorhombic'
loop_
_space_group_symop_operation_xyz
x,y,z
-x,-y,z
x,-y,-z
-x,y,-z
-x,-y,-z
x,y,-z
-x,y,z
x,-y,z
1/2+x,1/2+y,1/2+z
1/2-x,1/2-y,1/2+z
1/2+x,1/2-y,1/2-z
1/2-x,1/2+y,1/2-z
1/2-x,1/2-y,1/2-z
1/2+x,1/2+y,1/2-z
1/2-x,1/2+y,1/2+z
1/2+x,1/2-y,1/2+z
loop_
_atom_site_type_symbol
_atom_site_label
_atom_site_fract_x
_atom_site_fract_y
_atom_site_fract_z
Si Si1 0.919371 0.500000 0.780865
Si Si2 0.349781 0.390389 0.220901
Si Si3 0.200297 0.596743 0.205586
Si Si4 0.500000 0.249541 0.713645
Si Si5 0.151058 0.736519 0.293858
Si Si6 0.500000 0.594761 0.205029
O O1 0.869724 0.562146 0.722943
O O2 0.000000 0.500000 0.719045
O O3 0.924208 0.500000 0.000000
O O4 0.276414 0.420758 0.281410
O O5 0.347583 0.312100 0.277953
O O6 0.423592 0.421242 0.281626
O O7 0.351785 0.391320 0.000000
O O8 0.194230 0.677043 0.208843
O O9 0.203125 0.575955 0.000000
O O10 0.500000 0.254252 0.500000
O O11 0.570460 0.215390 0.775220
O O12 0.500000 0.324177 0.793596
O O13 0.171341 0.739465 0.500000
O O14 0.500000 0.572201 0.000000
#
# Coordination Sequence:
#
# PCOD9517682 Si02
#       6
#     8  16  16   8  16   8
#     4   9  20  36  51  70  98 134 178 224 256 286
#     4   8  15  28  48  73 100 131 161 199 255 316
#     4  10  19  32  51  71  94 130 176 216 254 300
#     4  10  18  28  44  69 100 133 165 196 238 302
#     4  10  19  31  47  72 103 132 163 207 262 310
#     4   8  14  28  46  67  99 129 154 192 247 304
#
# _framework density 25.096539
#
# number of rings (size 3 to 8) (size 9 to 14) (size 15 to 20)
#    0.000    2.778    0.000    3.667    1.556    0.000 
#    0.000    5.000    0.000    1.333    0.000    4.667 
#    0.000    0.000    0.000   18.000    0.000   20.000 
#
# Total GULP energy -200876.114693 kJ/mol
# GULP energy per Si atom -5579.892075 kJ/mol
# Density = 2.503942 g / cm^3
# Si number density = 25.096539 Si / 1000 Ang^3
#
#
#
# Elastic Constant Matrix: (Units=GPa)
#
#
# Indices 1 2 3 4 5 6 
#
# 1 298.9651 52.5422 -0.0676 0.0000 0.0000 0.0000
# 2 52.5422 113.8071 14.9646 0.0000 0.0000 0.0000
# 3 -0.0676 14.9646 81.4312 0.0000 0.0000 0.0000
# 4 0.0000 0.0000 0.0000 19.3048 0.0000 0.0000
# 5 0.0000 0.0000 0.0000 0.0000 -1.6295 0.0000
# 6 0.0000 0.0000 0.0000 0.0000 0.0000 10.4640
#
#
#
# Elastic Compliance Matrix: (Units=1/GPa)
#
#
# Indices 1 2 3 4 5 6 
#
# 1 0.003648 -0.001726 0.000320 0.000000 0.000000 0.000000
# 2 -0.001726 0.009821 -0.001806 0.000000 0.000000 0.000000
# 3 0.000320 -0.001806 0.012613 0.000000 0.000000 0.000000
# 4 0.000000 0.000000 0.000000 0.051801 0.000000 0.000000
# 5 0.000000 0.000000 0.000000 0.000000 -0.613684 0.000000
# 6 0.000000 0.000000 0.000000 0.000000 0.000000 0.095566
#
#
# Mechanical properties :
#
#
# Convention : Reuss Voigt Hill
#
# Bulk Modulus (GPa) = 50.87169 69.89797 60.38483
# Shear Modulus (GPa) = -11.70253 34.07881 11.18814
#
# Velocity S-wave (km/s) = -2.16174 3.68898 2.11370
# Velocity P-wave (km/s) = 3.75281 6.78652 5.48363
#
# Compressibility (1/GPa) = 0.01965730
#
# Stress axis : x y z
#
# Youngs Moduli (GPa) = 274.09504 101.81860 79.28634
#
# Poissons Ratio (x) = 0.17579 -0.02540
# Poissons Ratio (y) = 0.47322 0.14322
# Poissons Ratio (z) = -0.08779 0.18392
#
# Static dielectric constant tensor:
#      x y z
#    x 2.046050 0.000000 0.000000 
#    y 0.000000 1.948440 0.000000 
#    z 0.000000 0.000000 1.924690 
# 
# From -- ./inp_files/8032.got.cif
#   From: 2010.05.17/outbox.cif.g08.bks.cpg/sg71_5_cif.got.tgz:8032.got - 2010.06.03 16:22:01.
