data_PCOD9517894
_publ_section_title
;
Structure prediction by ZEFSAII (Michael W. Deem and Ramdas Pophale) SiO2 
 PCOD9517894
Probable space group: I M M M
;
_chemical_formula_sum "Si O2"
_cell_formula_units_Z 120
_cell_length_a 21.953039
_cell_length_b 21.624452
_cell_length_c 15.578291
_cell_angle_alpha 90.000000
_cell_angle_beta 90.000000
_cell_angle_gamma 90.000000
_cell_volume 7395.364285
_symmetry_space_group_name_H-M "I M M M"
_symmetry_group_IT_number 71
_symmetry_cell_setting 'orthorhombic'
loop_
_space_group_symop_operation_xyz
x,y,z
-x,-y,z
x,-y,-z
-x,y,-z
-x,-y,-z
x,y,-z
-x,y,z
x,-y,z
1/2+x,1/2+y,1/2+z
1/2-x,1/2-y,1/2+z
1/2+x,1/2-y,1/2-z
1/2-x,1/2+y,1/2-z
1/2-x,1/2-y,1/2-z
1/2+x,1/2+y,1/2-z
1/2-x,1/2+y,1/2+z
1/2+x,1/2-y,1/2+z
loop_
_atom_site_type_symbol
_atom_site_label
_atom_site_fract_x
_atom_site_fract_y
_atom_site_fract_z
Si Si1 0.386005 0.809008 0.099111
Si Si2 0.688362 0.429400 0.328377
Si Si3 0.762704 0.237734 0.647832
Si Si4 0.820237 0.429906 0.400148
Si Si5 0.139489 0.801045 0.903370
Si Si6 0.343687 0.375599 0.153666
Si Si7 0.431676 0.275980 0.240463
Si Si8 0.072346 0.925891 0.500000
O O1 0.319545 0.778055 0.114135
O O2 0.373577 0.881150 0.112250
O O3 0.426923 0.780813 0.174164
O O4 0.405194 0.796597 0.000000
O O5 0.674861 0.500000 0.358039
O O6 0.759989 0.417845 0.344869
O O7 0.653800 0.372278 0.374592
O O8 0.674751 0.423563 0.227309
O O9 0.750000 0.250000 0.750000
O O10 0.702457 0.262791 0.602690
O O11 0.784615 0.167013 0.630937
O O12 0.800625 0.423918 0.500000
O O13 0.840023 0.500000 0.385563
O O14 0.094611 0.768469 0.835642
O O15 0.116436 0.801170 0.000000
O O16 0.387403 0.326213 0.199375
O O17 0.386116 0.403261 0.079655
O O18 0.500000 0.298876 0.244342
O O19 0.000000 0.904503 0.500000
O O20 0.069826 0.000000 0.500000
#
# Coordination Sequence:
#
# PCOD9517894 Si02
#       8
#    16  16  16  16  16  16  16   8
#     4  10  18  29  49  74 104 134 164 205 251 305
#     4  10  18  30  49  74 104 133 165 204 249 303
#     4  11  17  32  50  76 105 132 162 211 267 310
#     4   9  16  26  44  74 109 138 161 191 242 313
#     4  11  21  33  52  75 103 136 169 208 263 313
#     4  10  21  34  53  74 100 133 175 218 260 303
#     4  10  22  36  51  73  99 130 174 220 258 306
#     4  11  24  40  54  72 104 148 190 220 254 301
#
# _framework density 16.226381
#
# number of rings (size 3 to 8) (size 9 to 14) (size 15 to 20)
#    0.000    1.800    5.333    1.600    4.667    1.333 
#    0.000    0.000    0.000    4.000    0.000    5.600 
#    0.000    0.000    0.000    1.200    0.000    0.000 
#
# Total GULP energy -334033.236156 kJ/mol
# GULP energy per Si atom -5567.220603 kJ/mol
# Density = 1.618945 g / cm^3
# Si number density = 16.226381 Si / 1000 Ang^3
#
#
#
# Elastic Constant Matrix: (Units=GPa)
#
#
# Indices 1 2 3 4 5 6 
#
# 1 23.1316 18.3868 14.7635 0.0000 0.0000 0.0000
# 2 18.3868 64.7198 35.7298 0.0000 0.0000 0.0000
# 3 14.7635 35.7298 107.8514 0.0000 0.0000 0.0000
# 4 0.0000 0.0000 0.0000 18.2130 0.0000 0.0000
# 5 0.0000 0.0000 0.0000 0.0000 339.5105 0.0000
# 6 0.0000 0.0000 0.0000 0.0000 0.0000 14.1524
#
#
#
# Elastic Compliance Matrix: (Units=1/GPa)
#
#
# Indices 1 2 3 4 5 6 
#
# 1 0.056605 -0.014446 -0.002963 0.000000 0.000000 0.000000
# 2 -0.014446 0.022596 -0.005508 0.000000 0.000000 0.000000
# 3 -0.002963 -0.005508 0.011502 0.000000 0.000000 0.000000
# 4 0.000000 0.000000 0.000000 0.054906 0.000000 0.000000
# 5 0.000000 0.000000 0.000000 0.000000 0.002945 0.000000
# 6 0.000000 0.000000 0.000000 0.000000 0.000000 0.070659
#
#
# Mechanical properties :
#
#
# Convention : Reuss Voigt Hill
#
# Bulk Modulus (GPa) = 22.28684 37.05146 29.66915
# Shear Modulus (GPa) = 17.85688 82.83002 50.34345
#
# Velocity S-wave (km/s) = 3.32095 7.15244 5.57611
# Velocity P-wave (km/s) = 5.33570 9.54429 7.73186
#
# Compressibility (1/GPa) = 0.04486954
#
# Stress axis : x y z
#
# Youngs Moduli (GPa) = 17.66643 44.25514 86.93789
#
# Poissons Ratio (x) = 0.63929 0.25758
# Poissons Ratio (y) = 0.25520 0.47889
# Poissons Ratio (z) = 0.05234 0.24378
#
# Static dielectric constant tensor:
#      x y z
#    x 1.524510 0.000000 0.000000 
#    y 0.000000 1.582920 0.000000 
#    z 0.000000 0.000000 1.590010 
# 
# From -- ./inp_files/38521.got.cif
#   From: 2010.05.17/outbox.cif.g08.bks.cpg/sg71_20_cif.got.tgz:38521.got - 2010.06.03 16:22:01.
