data_PCOD9517903
_publ_section_title
;
Structure prediction by ZEFSAII (Michael W. Deem and Ramdas Pophale) SiO2 
 PCOD9517903
Probable space group: I M M M
;
_chemical_formula_sum "Si O2"
_cell_formula_units_Z 90
_cell_length_a 7.622495
_cell_length_b 25.141223
_cell_length_c 27.043212
_cell_angle_alpha 90.000000
_cell_angle_beta 90.000000
_cell_angle_gamma 90.000000
_cell_volume 5182.529956
_symmetry_space_group_name_H-M "I M M M"
_symmetry_group_IT_number 71
_symmetry_cell_setting 'orthorhombic'
loop_
_space_group_symop_operation_xyz
x,y,z
-x,-y,z
x,-y,-z
-x,y,-z
-x,-y,-z
x,y,-z
-x,y,z
x,-y,z
1/2+x,1/2+y,1/2+z
1/2-x,1/2-y,1/2+z
1/2+x,1/2-y,1/2-z
1/2-x,1/2+y,1/2-z
1/2-x,1/2-y,1/2-z
1/2+x,1/2+y,1/2-z
1/2-x,1/2+y,1/2+z
1/2+x,1/2-y,1/2+z
loop_
_atom_site_type_symbol
_atom_site_label
_atom_site_fract_x
_atom_site_fract_y
_atom_site_fract_z
Si Si1 0.500000 0.563647 0.303138
Si Si2 0.215209 0.500000 0.943312
Si Si3 0.789117 0.797097 0.443642
Si Si4 0.000000 0.095660 0.917132
Si Si5 0.700599 0.179283 0.059636
Si Si6 0.790777 0.600280 0.120076
Si Si7 0.293412 0.064169 0.273383
Si Si8 0.500000 0.500000 0.500000
O O1 0.500000 0.500000 0.301504
O O2 0.500000 0.579007 0.360055
O O3 0.327879 0.580607 0.272392
O O4 0.275503 0.552453 0.914492
O O5 0.000000 0.500000 0.943493
O O6 0.271950 0.500000 0.000000
O O7 0.724571 0.807623 0.500000
O O8 0.732265 0.738312 0.426430
O O9 0.743623 0.844010 0.406387
O O10 0.000000 0.794058 0.446540
O O11 0.170114 0.132548 0.925593
O O12 0.000000 0.047094 0.956153
O O13 0.500000 0.171515 0.077295
O O14 0.694762 0.180489 0.000000
O O15 0.729641 0.592308 0.176232
O O16 0.000000 0.593212 0.123071
O O17 0.500000 0.075191 0.264976
O O18 0.278205 0.000000 0.280996
#
# Coordination Sequence:
#
# PCOD9517903 Si02
#       8
#     8   8  16   8  16  16  16   2
#     4  10  22  36  58  86 110 144 182 226 277 342
#     4   9  16  26  40  67 110 146 175 232 299 344
#     4   9  19  33  49  77 111 144 195 242 274 328
#     4  12  22  40  64  90 128 143 173 217 284 339
#     4   9  19  37  59  83 115 158 189 215 264 331
#     4  10  18  29  49  75 103 145 196 241 290 334
#     4   9  18  35  54  76 107 146 196 237 278 329
#     4  12  24  40  62 104 132 142 160 238 260 352
#
# _framework density 17.366036000000001
#
# number of rings (size 3 to 8) (size 9 to 14) (size 15 to 20)
#    0.000    2.400    2.222    1.600    2.489    1.778 
#    0.000    1.333    0.000    2.667    0.000    0.000 
#    0.000    0.000    0.000    0.000    0.000    0.000 
#
# Total GULP energy -250619.411625 kJ/mol
# GULP energy per Si atom -5569.320258 kJ/mol
# Density = 1.732651 g / cm^3
# Si number density = 17.366036 Si / 1000 Ang^3
#
#
#
# Elastic Constant Matrix: (Units=GPa)
#
#
# Indices 1 2 3 4 5 6 
#
# 1 66.4769 40.7826 44.8070 0.0000 0.0000 0.0000
# 2 40.7826 115.7030 73.5670 0.0000 0.0000 0.0000
# 3 44.8070 73.5670 144.8112 0.0000 0.0000 0.0000
# 4 0.0000 0.0000 0.0000 21.1328 0.0000 0.0000
# 5 0.0000 0.0000 0.0000 0.0000 21.7627 0.0000
# 6 0.0000 0.0000 0.0000 0.0000 0.0000 25.6001
#
#
#
# Elastic Compliance Matrix: (Units=1/GPa)
#
#
# Indices 1 2 3 4 5 6 
#
# 1 0.020632 -0.004746 -0.003973 0.000000 0.000000 0.000000
# 2 -0.004746 0.013859 -0.005572 0.000000 0.000000 0.000000
# 3 -0.003973 -0.005572 0.010965 0.000000 0.000000 0.000000
# 4 0.000000 0.000000 0.000000 0.047320 0.000000 0.000000
# 5 0.000000 0.000000 0.000000 0.000000 0.045950 0.000000
# 6 0.000000 0.000000 0.000000 0.000000 0.000000 0.039062
#
#
# Mechanical properties :
#
#
# Convention : Reuss Voigt Hill
#
# Bulk Modulus (GPa) = 59.26155 71.70047 65.48101
# Shear Modulus (GPa) = 23.58542 24.88808 24.23675
#
# Velocity S-wave (km/s) = 3.68929 3.78980 3.73988
# Velocity P-wave (km/s) = 7.23511 7.77994 7.51247
#
# Compressibility (1/GPa) = 0.01687435
#
# Stress axis : x y z
#
# Youngs Moduli (GPa) = 48.46746 72.15779 91.19651
#
# Poissons Ratio (x) = 0.34250 0.36230
# Poissons Ratio (y) = 0.23005 0.50813
# Poissons Ratio (z) = 0.19255 0.40205
#
# Static dielectric constant tensor:
#      x y z
#    x 1.632750 0.000000 0.000000 
#    y 0.000000 1.588010 0.000000 
#    z 0.000000 0.000000 1.579370 
# 
# From -- ./inp_files/57670.got.cif
#   From: 2010.05.17/outbox.cif.g08.bks.cpg/sg71_29_cif.got.tgz:57670.got - 2010.06.03 16:22:01.
