data_PCOD9517793
_publ_section_title
;
Structure prediction by ZEFSAII (Michael W. Deem and Ramdas Pophale) SiO2 
 PCOD9517793
Probable space group: I M M M
;
_chemical_formula_sum "Si O2"
_cell_formula_units_Z 96
_cell_length_a 24.053430
_cell_length_b 7.414388
_cell_length_c 26.808590
_cell_angle_alpha 90.000000
_cell_angle_beta 90.000000
_cell_angle_gamma 90.000000
_cell_volume 4781.083155
_symmetry_space_group_name_H-M "I M M M"
_symmetry_group_IT_number 71
_symmetry_cell_setting 'orthorhombic'
loop_
_space_group_symop_operation_xyz
x,y,z
-x,-y,z
x,-y,-z
-x,y,-z
-x,-y,-z
x,y,-z
-x,y,z
x,-y,z
1/2+x,1/2+y,1/2+z
1/2-x,1/2-y,1/2+z
1/2+x,1/2-y,1/2-z
1/2-x,1/2+y,1/2-z
1/2-x,1/2-y,1/2-z
1/2+x,1/2+y,1/2-z
1/2-x,1/2+y,1/2+z
1/2+x,1/2-y,1/2+z
loop_
_atom_site_type_symbol
_atom_site_label
_atom_site_fract_x
_atom_site_fract_y
_atom_site_fract_z
Si Si1 0.367784 0.719260 0.344475
Si Si2 0.690906 0.282797 0.056701
Si Si3 0.869811 0.201824 0.650202
Si Si4 0.564682 0.279939 0.247117
Si Si5 0.178814 0.215684 0.943912
Si Si6 0.753671 0.287187 0.692062
O O1 0.372732 0.500000 0.344964
O O2 0.407759 0.780968 0.299561
O O3 0.365391 0.780036 0.402285
O O4 0.305613 0.768619 0.328396
O O5 0.686215 0.500000 0.057054
O O6 0.645060 0.213975 0.096285
O O7 0.755743 0.244069 0.069831
O O8 0.682611 0.218833 0.000000
O O9 0.904990 0.283343 0.696106
O O10 0.807453 0.190514 0.671561
O O11 0.892877 0.000000 0.641734
O O12 0.500000 0.233531 0.246041
O O13 0.569862 0.500000 0.246765
O O14 0.172474 0.000000 0.945904
O O15 0.171324 0.287833 0.000000
O O16 0.760765 0.500000 0.682227
O O17 0.750000 0.250000 0.750000
#
# Coordination Sequence:
#
# PCOD9517793 Si02
#       6
#    16  16  16  16  16  16
#     4   9  16  26  41  63  89 113 143 178 213 259
#     4   9  17  27  40  62  93 120 140 171 217 266
#     4  10  18  29  45  66  90 116 150 184 220 267
#     4   9  17  29  45  63  83 113 153 191 222 258
#     4   9  16  26  41  62  90 119 143 171 211 263
#     4  11  19  28  43  67  95 119 144 176 224 275
#
# _framework density 20.079131
#
# number of rings (size 3 to 8) (size 9 to 14) (size 15 to 20)
#    0.000    2.500    3.333    0.500    0.000    0.000 
#    0.000    0.000    0.000    1.500    0.000    7.000 
#    0.000    0.000    0.000    9.833    0.000   10.333 
#
# Total GULP energy -267293.432164 kJ/mol
# GULP energy per Si atom -5568.613170 kJ/mol
# Density = 2.003343 g / cm^3
# Si number density = 20.079131 Si / 1000 Ang^3
#
#
#
# Elastic Constant Matrix: (Units=GPa)
#
#
# Indices 1 2 3 4 5 6 
#
# 1 95.0512 7.5299 74.1471 0.0000 0.0000 0.0000
# 2 7.5299 66.6130 2.0024 0.0000 0.0000 0.0000
# 3 74.1471 2.0024 197.6572 0.0000 0.0000 0.0000
# 4 0.0000 0.0000 0.0000 -12.2701 0.0000 0.0000
# 5 0.0000 0.0000 0.0000 0.0000 13.8961 0.0000
# 6 0.0000 0.0000 0.0000 0.0000 0.0000 11.4421
#
#
#
# Elastic Compliance Matrix: (Units=1/GPa)
#
#
# Indices 1 2 3 4 5 6 
#
# 1 0.015027 -0.001530 -0.005622 0.000000 0.000000 0.000000
# 2 -0.001530 0.015172 0.000420 0.000000 0.000000 0.000000
# 3 -0.005622 0.000420 0.007164 0.000000 0.000000 0.000000
# 4 0.000000 0.000000 0.000000 -0.081499 0.000000 0.000000
# 5 0.000000 0.000000 0.000000 0.000000 0.071963 0.000000
# 6 0.000000 0.000000 0.000000 0.000000 0.000000 0.087397
#
#
# Mechanical properties :
#
#
# Convention : Reuss Voigt Hill
#
# Bulk Modulus (GPa) = 41.83928 58.52002 50.17965
# Shear Modulus (GPa) = 36.58901 20.98974 28.78938
#
# Velocity S-wave (km/s) = 4.27340 3.23670 3.79066
# Velocity P-wave (km/s) = 6.72545 6.57086 6.64861
#
# Compressibility (1/GPa) = 0.02390099
#
# Stress axis : x y z
#
# Youngs Moduli (GPa) = 66.54631 65.90932 139.58971
#
# Poissons Ratio (x) = 0.10082 0.78472
# Poissons Ratio (y) = 0.10179 -0.05864
# Poissons Ratio (z) = 0.37410 -0.02769
#
# Static dielectric constant tensor:
#      x y z
#    x 1.649710 0.000000 0.000000 
#    y 0.000000 1.799230 0.000000 
#    z 0.000000 0.000000 1.816390 
# 
# From -- ./inp_files/10827.got.cif
#   From: 2010.05.17/outbox.cif.g08.bks.cpg/sg71_6_cif.got.tgz:10827.got - 2010.06.03 16:22:01.
