data_PCOD9517172
_publ_section_title
;
Structure prediction by ZEFSAII (Michael W. Deem and Ramdas Pophale) SiO2 
 PCOD9517172
Probable space group: F D D D
;
_chemical_formula_sum "Si O2"
_cell_formula_units_Z 28
_cell_length_a 27.000000
_cell_length_b 18.000000
_cell_length_c 12.000000
_cell_angle_alpha 90.000000
_cell_angle_beta 90.000000
_cell_angle_gamma 90.000000
_cell_volume 5832.000000
_symmetry_space_group_name_H-M "F D D D"
_symmetry_group_IT_number 70
_space_group.IT_coordinate_system_code '2'
_symmetry_cell_setting 'orthorhombic'
loop_
_space_group_symop_operation_xyz
x,y,z
1/4-x,1/4-y,z
x,1/4-y,1/4-z
1/4-x,y,1/4-z
-x,-y,-z
3/4+x,3/4+y,-z
-x,3/4+y,3/4+z
3/4+x,-y,3/4+z
x,1/2+y,1/2+z
1/4-x,3/4-y,1/2+z
x,3/4-y,3/4-z
1/4-x,1/2+y,3/4-z
-x,1/2-y,1/2-z
3/4+x,1/4+y,1/2-z
-x,1/4+y,1/4+z
3/4+x,1/2-y,1/4+z
1/2+x,y,1/2+z
3/4-x,1/4-y,1/2+z
1/2+x,1/4-y,3/4-z
3/4-x,y,3/4-z
1/2-x,-y,1/2-z
1/4+x,3/4+y,1/2-z
1/2-x,3/4+y,1/4+z
1/4+x,-y,1/4+z
1/2+x,1/2+y,z
3/4-x,3/4-y,z
1/2+x,3/4-y,1/4-z
3/4-x,1/2+y,1/4-z
1/2-x,1/2-y,-z
1/4+x,1/4+y,-z
1/2-x,1/4+y,3/4+z
1/4+x,1/2-y,3/4+z
loop_
_atom_site_type_symbol
_atom_site_label
_atom_site_fract_x
_atom_site_fract_y
_atom_site_fract_z
Si Si1 0.797064 0.311421 0.295076
Si Si2 0.875000 0.690772 0.375000
Si Si3 0.132542 0.288584 0.369372
Si Si4 0.792460 0.669619 0.954237
O O1 0.821334 0.375000 0.375000
O O2 0.832817 0.269225 0.202873
O O3 0.779894 0.242017 0.376542
O O4 0.752393 0.363706 0.242822
O O5 0.873003 0.731409 0.497480
O O6 0.828121 0.635615 0.365010
O O7 0.152027 0.375000 0.375000
O O8 0.079447 0.299378 0.303574
#
# Coordination Sequence:
#
# PCOD9517172 Si02
#       4
#    32  16  32  32
#     4  12  24  41  72 107 133 181 242 285 338 422
#     4  10  20  44  69  93 144 188 216 288 358 400
#     4  10  21  44  69 100 140 187 226 285 357 405
#     4  11  23  44  70 102 140 181 232 288 347 409
#
# _framework density 4.8010970000000004
#
# number of rings (size 3 to 8) (size 9 to 14) (size 15 to 20)
#    0.000    1.143    5.714    3.429    0.000    3.429 
#    0.000    0.000    0.000    8.571    0.000    0.000 
#    0.000    0.000    0.000    0.000    0.000    0.000 
#
# Total GULP energy -155897.209333 kJ/mol
# GULP energy per Si atom -5567.757476 kJ/mol
# Density = 0.479017 g / cm^3
# Si number density = 4.801097 Si / 1000 Ang^3
#
#
#
# Elastic Constant Matrix: (Units=GPa)
#
#
# Indices 1 2 3 4 5 6 
#
# 1 134.4079 65.8096 60.8833 0.0000 0.0000 0.0000
# 2 65.8096 146.4123 61.9777 0.0000 0.0000 0.0000
# 3 60.8833 61.9777 186.4280 0.0000 0.0000 0.0000
# 4 0.0000 0.0000 0.0000 57.1751 0.0000 0.0000
# 5 0.0000 0.0000 0.0000 0.0000 40.3593 0.0000
# 6 0.0000 0.0000 0.0000 0.0000 0.0000 38.7619
#
#
#
# Elastic Compliance Matrix: (Units=1/GPa)
#
#
# Indices 1 2 3 4 5 6 
#
# 1 0.010202 -0.003695 -0.002103 0.000000 0.000000 0.000000
# 2 -0.003695 0.009287 -0.001881 0.000000 0.000000 0.000000
# 3 -0.002103 -0.001881 0.006676 0.000000 0.000000 0.000000
# 4 0.000000 0.000000 0.000000 0.017490 0.000000 0.000000
# 5 0.000000 0.000000 0.000000 0.000000 0.024777 0.000000
# 6 0.000000 0.000000 0.000000 0.000000 0.000000 0.025799
#
#
# Mechanical properties :
#
#
# Convention : Reuss Voigt Hill
#
# Bulk Modulus (GPa) = 92.53452 93.84327 93.18889
# Shear Modulus (GPa) = 44.17265 45.83110 45.00187
#
# Velocity S-wave (km/s) = 4.80117 4.89047 4.84603
# Velocity P-wave (km/s) = 8.88953 8.99225 8.94104
#
# Compressibility (1/GPa) = 0.01080678
#
# Stress axis : x y z
#
# Youngs Moduli (GPa) = 98.01911 107.67615 149.78780
#
# Poissons Ratio (x) = 0.39790 0.31505
# Poissons Ratio (y) = 0.36221 0.28170
# Poissons Ratio (z) = 0.20616 0.20250
#
# Static dielectric constant tensor:
#      x y z
#    x 1.744170 0.000000 0.000000 
#    y 0.000000 1.673920 0.000000 
#    z 0.000000 0.000000 1.774260 
# 
# From -- ./inp_files/20254.got.cif
#   From: 2010.05.17/outbox.ucp.g08.bks.cvg/sg70_11_cif.got.tgz:20254.got - 2010.06.11 16:26:41.
