data_PCOD9517505
_publ_section_title
;
Structure prediction by ZEFSAII (Michael W. Deem and Ramdas Pophale) SiO2 
 PCOD9517505
Probable space group: I M M M
;
_chemical_formula_sum "Si O2"
_cell_formula_units_Z 92
_cell_length_a 15.261216
_cell_length_b 19.421969
_cell_length_c 15.413511
_cell_angle_alpha 90.000000
_cell_angle_beta 90.000000
_cell_angle_gamma 90.000000
_cell_volume 4568.608806
_symmetry_space_group_name_H-M "I M M M"
_symmetry_group_IT_number 71
_symmetry_cell_setting 'orthorhombic'
loop_
_space_group_symop_operation_xyz
x,y,z
-x,-y,z
x,-y,-z
-x,y,-z
-x,-y,-z
x,y,-z
-x,y,z
x,-y,z
1/2+x,1/2+y,1/2+z
1/2-x,1/2-y,1/2+z
1/2+x,1/2-y,1/2-z
1/2-x,1/2+y,1/2-z
1/2-x,1/2-y,1/2-z
1/2+x,1/2+y,1/2-z
1/2-x,1/2+y,1/2+z
1/2+x,1/2-y,1/2+z
loop_
_atom_site_type_symbol
_atom_site_label
_atom_site_fract_x
_atom_site_fract_y
_atom_site_fract_z
Si Si1 0.249867 0.576964 0.602698
Si Si2 0.336395 0.673556 0.104905
Si Si3 0.500000 0.881014 0.500000
Si Si4 0.901956 0.174886 0.895322
Si Si5 0.000000 0.921145 0.605773
Si Si6 0.636968 0.165323 0.357126
Si Si7 0.600406 0.175526 0.157915
O O1 0.266755 0.571228 0.500000
O O2 0.245743 0.500000 0.639404
O O3 0.329112 0.623015 0.639862
O O4 0.160804 0.619194 0.612533
O O5 0.413225 0.621128 0.131124
O O6 0.239950 0.650367 0.133776
O O7 0.358759 0.748899 0.142426
O O8 0.335874 0.679546 0.000000
O O9 0.423283 0.875464 0.424326
O O10 0.876104 0.253601 0.878690
O O11 0.000000 0.162350 0.861324
O O12 0.905319 0.168113 0.000000
O O13 0.000000 0.922622 0.500000
O O14 0.000000 0.000000 0.636372
O O15 0.605510 0.157426 0.259228
O O16 0.500000 0.176311 0.127968
#
# Coordination Sequence:
#
# PCOD9517505 Si02
#       7
#    16  16   4  16   8  16  16
#     4  10  23  40  58  84 122 167 212 256 310 377
#     4  11  21  36  62  91 123 164 204 247 304 370
#     4  12  20  38  64  96 128 150 204 254 316 362
#     4  10  17  32  58  87 122 159 200 249 308 366
#     4   9  20  39  62  91 122 152 193 244 305 378
#     4  12  21  37  61  95 124 158 202 261 311 360
#     4  12  24  37  60  91 122 157 209 265 307 360
#
# _framework density 20.137421
#
# number of rings (size 3 to 8) (size 9 to 14) (size 15 to 20)
#    0.000    1.130    6.087    1.043    0.000    1.739 
#    0.000    3.478    0.000    0.000    0.000    2.435 
#    0.000    0.000    0.000    0.000    0.000    0.000 
#
# Total GULP energy -256515.569178 kJ/mol
# GULP energy per Si atom -5576.425417 kJ/mol
# Density = 2.009159 g / cm^3
# Si number density = 20.137421 Si / 1000 Ang^3
#
#
#
# Elastic Constant Matrix: (Units=GPa)
#
#
# Indices 1 2 3 4 5 6 
#
# 1 169.1939 14.6160 -5.8223 0.0000 0.0000 0.0000
# 2 14.6160 28.5527 -5.3563 0.0002 0.0000 0.0000
# 3 -5.8223 -5.3563 32.7389 0.0005 0.0000 0.0000
# 4 0.0000 0.0002 0.0005 294.2778 0.0000 0.0000
# 5 0.0000 0.0000 0.0000 0.0000 21.3782 0.0000
# 6 0.0000 0.0000 0.0000 0.0000 0.0000 7.1023
#
#
#
# Elastic Compliance Matrix: (Units=1/GPa)
#
#
# Indices 1 2 3 4 5 6 
#
# 1 0.006195 -0.003059 0.000601 0.000000 0.000000 0.000000
# 2 -0.003059 0.037642 0.005615 0.000000 0.000000 0.000000
# 3 0.000601 0.005615 0.031570 0.000000 0.000000 0.000000
# 4 0.000000 0.000000 0.000000 0.003398 0.000000 0.000000
# 5 0.000000 0.000000 0.000000 0.000000 0.046777 0.000000
# 6 0.000000 0.000000 0.000000 0.000000 0.000000 0.140800
#
#
# Mechanical properties :
#
#
# Convention : Reuss Voigt Hill
#
# Bulk Modulus (GPa) = 12.23659 26.37337 19.30498
# Shear Modulus (GPa) = 17.40292 79.68819 48.54556
#
# Velocity S-wave (km/s) = 2.94293 6.29747 4.91523
# Velocity P-wave (km/s) = 4.19970 8.12420 6.46684
#
# Compressibility (1/GPa) = 0.08172213
#
# Stress axis : x y z
#
# Youngs Moduli (GPa) = 161.41298 26.56613 31.67543
#
# Poissons Ratio (x) = 0.08125 -0.01905
# Poissons Ratio (y) = 0.49369 -0.17784
# Poissons Ratio (z) = -0.09707 -0.14916
#
# Static dielectric constant tensor:
#      x y z
#    x 1.716890 0.000000 0.000000 
#    y 0.000000 1.692100 0.000000 
#    z 0.000000 0.000000 1.719480 
# 
# From -- ./inp_files/34554.got.cif
#   From: 2010.05.17/outbox.cif.g08.bks.cpg/sg71_18_cif.got.tgz:34554.got - 2010.06.03 16:22:01.
