data_PCOD9517582
_publ_section_title
;
Structure prediction by ZEFSAII (Michael W. Deem and Ramdas Pophale) SiO2 
 PCOD9517582
Probable space group: I M M M
;
_chemical_formula_sum "Si O2"
_cell_formula_units_Z 112
_cell_length_a 22.538215
_cell_length_b 7.295091
_cell_length_c 28.444948
_cell_angle_alpha 90.000000
_cell_angle_beta 90.000000
_cell_angle_gamma 90.000000
_cell_volume 4676.870830
_symmetry_space_group_name_H-M "I M M M"
_symmetry_group_IT_number 71
_symmetry_cell_setting 'orthorhombic'
loop_
_space_group_symop_operation_xyz
x,y,z
-x,-y,z
x,-y,-z
-x,y,-z
-x,-y,-z
x,y,-z
-x,y,z
x,-y,z
1/2+x,1/2+y,1/2+z
1/2-x,1/2-y,1/2+z
1/2+x,1/2-y,1/2-z
1/2-x,1/2+y,1/2-z
1/2-x,1/2-y,1/2-z
1/2+x,1/2+y,1/2-z
1/2-x,1/2+y,1/2+z
1/2+x,1/2-y,1/2+z
loop_
_atom_site_type_symbol
_atom_site_label
_atom_site_fract_x
_atom_site_fract_y
_atom_site_fract_z
Si Si1 0.434555 0.292030 0.095815
Si Si2 0.381583 0.223325 0.699271
Si Si3 0.748294 0.782718 0.305359
Si Si4 0.932287 0.282349 0.704712
Si Si5 0.685443 0.776996 0.554380
Si Si6 0.935508 0.723284 0.104746
Si Si7 0.692085 0.724356 0.895851
O O1 0.500000 0.209902 0.085789
O O2 0.436444 0.500000 0.077598
O O3 0.429138 0.299395 0.152825
O O4 0.370487 0.210493 0.082762
O O5 0.317278 0.281395 0.680739
O O6 0.392314 0.287153 0.752473
O O7 0.428174 0.275008 0.659552
O O8 0.382021 0.000000 0.701929
O O9 0.750000 0.750000 0.250000
O O10 0.797869 0.714587 0.341422
O O11 0.749140 0.000000 0.311526
O O12 0.922991 0.500000 0.698916
O O13 0.000000 0.256405 0.721387
O O14 0.685865 0.726018 0.500000
O O15 0.623763 0.715874 0.577942
O O16 0.747402 0.720550 0.578280
O O17 0.685297 0.000000 0.557662
O O18 0.934882 0.500000 0.102961
O O19 0.000000 0.782324 0.086667
O O20 0.688779 0.500000 0.897268
#
# Coordination Sequence:
#
# PCOD9517582 Si02
#       7
#    16  16  16  16  16  16  16
#     4   9  17  28  42  59  81 113 149 180 212 252
#     4   9  15  24  36  53  79 111 144 176 211 253
#     4  10  18  27  41  60  85 116 147 178 213 254
#     4   9  16  25  38  58  84 113 145 179 212 248
#     4   9  16  26  40  58  81 112 148 180 216 265
#     4   9  15  23  36  55  81 112 144 177 214 257
#     4   9  16  28  42  57  81 112 144 179 218 260
#
# _framework density 23.947635999999999
#
# number of rings (size 3 to 8) (size 9 to 14) (size 15 to 20)
#    0.000    2.857    1.429    1.286    0.000    2.000 
#    0.000    1.429    0.000    0.429    0.000    3.000 
#    0.000    2.286    0.000    3.571    0.000    6.571 
#
# Total GULP energy -312465.755285 kJ/mol
# GULP energy per Si atom -5579.745630 kJ/mol
# Density = 2.389313 g / cm^3
# Si number density = 23.947636 Si / 1000 Ang^3
#
#
#
# Elastic Constant Matrix: (Units=GPa)
#
#
# Indices 1 2 3 4 5 6 
#
# 1 203.5400 4.5231 30.3196 0.0000 0.0000 0.0000
# 2 4.5231 94.4635 -10.6437 0.0000 0.0000 0.0000
# 3 30.3196 -10.6437 49.9682 0.0000 0.0000 0.0000
# 4 0.0000 0.0000 0.0000 -4.8227 0.0000 0.0000
# 5 0.0000 0.0000 0.0000 0.0000 18.6359 0.0000
# 6 0.0000 0.0000 0.0000 0.0000 0.0000 -11.7513
#
#
#
# Elastic Compliance Matrix: (Units=1/GPa)
#
#
# Indices 1 2 3 4 5 6 
#
# 1 0.005440 -0.000648 -0.003439 0.000000 0.000000 0.000000
# 2 -0.000648 0.010924 0.002720 0.000000 0.000000 0.000000
# 3 -0.003439 0.002720 0.022679 0.000000 0.000000 0.000000
# 4 0.000000 0.000000 0.000000 -0.207352 0.000000 0.000000
# 5 0.000000 0.000000 0.000000 0.000000 0.053660 0.000000
# 6 0.000000 0.000000 0.000000 0.000000 0.000000 -0.085097
#
#
# Mechanical properties :
#
#
# Convention : Reuss Voigt Hill
#
# Bulk Modulus (GPa) = 27.54166 44.04109 35.79138
# Shear Modulus (GPa) = -27.03996 21.99723 -2.52136
#
# Velocity S-wave (km/s) = -3.36390 3.03406 -1.02721
# Velocity P-wave (km/s) = 1.88732 5.54116 3.68392
#
# Compressibility (1/GPa) = 0.03630863
#
# Stress axis : x y z
#
# Youngs Moduli (GPa) = 183.83471 91.54495 44.09437
#
# Poissons Ratio (x) = 0.05931 0.15163
# Poissons Ratio (y) = 0.11911 -0.11994
# Poissons Ratio (z) = 0.63215 -0.24900
#
# Static dielectric constant tensor:
#      x y z
#    x 1.942560 0.000000 0.000000 
#    y 0.000000 1.899670 0.000000 
#    z 0.000000 0.000000 1.471040 
# 
# From -- ./inp_files/66575.got.cif
#   From: 2010.05.17/outbox.cif.g08.bks.cpg/sg71_34_cif.got.tgz:66575.got - 2010.06.03 16:22:01.
