data_PCOD9517067
_publ_section_title
;
Structure prediction by ZEFSAII (Michael W. Deem and Ramdas Pophale) SiO2 
 PCOD9517067
Probable space group: F D D D
;
_chemical_formula_sum "Si O2"
_cell_formula_units_Z 88
_cell_length_a 4.926344
_cell_length_b 34.565091
_cell_length_c 22.890041
_cell_angle_alpha 90.000000
_cell_angle_beta 90.000000
_cell_angle_gamma 90.000000
_cell_volume 3897.705392
_symmetry_space_group_name_H-M "F D D D"
_symmetry_group_IT_number 70
_space_group.IT_coordinate_system_code '2'
_symmetry_cell_setting 'orthorhombic'
loop_
_space_group_symop_operation_xyz
x,y,z
1/4-x,1/4-y,z
x,1/4-y,1/4-z
1/4-x,y,1/4-z
-x,-y,-z
3/4+x,3/4+y,-z
-x,3/4+y,3/4+z
3/4+x,-y,3/4+z
x,1/2+y,1/2+z
1/4-x,3/4-y,1/2+z
x,3/4-y,3/4-z
1/4-x,1/2+y,3/4-z
-x,1/2-y,1/2-z
3/4+x,1/4+y,1/2-z
-x,1/4+y,1/4+z
3/4+x,1/2-y,1/4+z
1/2+x,y,1/2+z
3/4-x,1/4-y,1/2+z
1/2+x,1/4-y,3/4-z
3/4-x,y,3/4-z
1/2-x,-y,1/2-z
1/4+x,3/4+y,1/2-z
1/2-x,3/4+y,1/4+z
1/4+x,-y,1/4+z
1/2+x,1/2+y,z
3/4-x,3/4-y,z
1/2+x,3/4-y,1/4-z
3/4-x,1/2+y,1/4-z
1/2-x,1/2-y,-z
1/4+x,1/4+y,-z
1/2-x,1/4+y,3/4+z
1/4+x,1/2-y,3/4+z
loop_
_atom_site_type_symbol
_atom_site_label
_atom_site_fract_x
_atom_site_fract_y
_atom_site_fract_z
Si Si1 0.015456 0.954465 0.010480
Si Si2 0.256337 0.414366 0.280963
Si Si3 0.875000 0.094863 0.875000
Si Si4 0.625000 0.625000 0.125000
O O1 0.131303 0.934953 0.069766
O O2 0.713355 0.937556 0.005913
O O3 0.224294 0.939348 0.960711
O O4 0.000000 0.000000 0.000000
O O5 0.375000 0.375000 0.253516
O O6 0.077998 0.400080 0.335359
O O7 0.625000 0.125000 0.868780
#
# Coordination Sequence:
#
# PCOD9517067 Si02
#       4
#    32  32  16   8
#     4  12  27  47  74 110 155 194 250 325 385 446
#     4  12  24  46  73 107 145 199 250 311 366 464
#     4  12  26  47  78 106 141 208 255 296 378 474
#     4  12  26  42  78 108 142 192 258 312 362 434
#
# _framework density 22.577387999999999
#
# number of rings (size 3 to 8) (size 9 to 14) (size 15 to 20)
#    0.000    0.000    3.636    7.091    0.000    1.455 
#    0.000    0.000    0.000    0.000    0.000    0.000 
#    0.000    0.000    0.000    0.000    0.000    0.000 
#
# Total GULP energy -122845.183294 kJ/mol
# GULP energy per Si atom -5583.871968 kJ/mol
# Density = 2.252600 g / cm^3
# Si number density = 22.577388 Si / 1000 Ang^3
#
#
#
# Elastic Constant Matrix: (Units=GPa)
#
#
# Indices 1 2 3 4 5 6 
#
# 1 185.7947 88.7501 15.2413 0.0000 0.0000 0.0000
# 2 88.7501 230.0006 62.7853 0.0000 0.0000 0.0000
# 3 15.2413 62.7853 83.0894 0.0000 0.0000 0.0000
# 4 0.0000 0.0000 0.0000 10.9156 0.0000 0.0000
# 5 0.0000 0.0000 0.0000 0.0000 34.5341 0.0000
# 6 0.0000 0.0000 0.0000 0.0000 0.0000 38.4113
#
#
#
# Elastic Compliance Matrix: (Units=1/GPa)
#
#
# Indices 1 2 3 4 5 6 
#
# 1 0.006652 -0.002814 0.000906 0.000000 0.000000 0.000000
# 2 -0.002814 0.006668 -0.004523 0.000000 0.000000 0.000000
# 3 0.000906 -0.004523 0.015286 0.000000 0.000000 0.000000
# 4 0.000000 0.000000 0.000000 0.091612 0.000000 0.000000
# 5 0.000000 0.000000 0.000000 0.000000 0.028957 0.000000
# 6 0.000000 0.000000 0.000000 0.000000 0.000000 0.026034
#
#
# Mechanical properties :
#
#
# Convention : Reuss Voigt Hill
#
# Bulk Modulus (GPa) = 63.50857 92.49311 78.00084
# Shear Modulus (GPa) = 25.86386 38.91273 32.38829
#
# Velocity S-wave (km/s) = 3.38829 4.15604 3.79165
# Velocity P-wave (km/s) = 6.59528 8.00539 7.33430
#
# Compressibility (1/GPa) = 0.01574591
#
# Stress axis : x y z
#
# Youngs Moduli (GPa) = 150.32448 149.96210 65.41757
#
# Poissons Ratio (x) = 0.42204 -0.05929
# Poissons Ratio (y) = 0.42306 0.29586
# Poissons Ratio (z) = -0.13625 0.67822
#
# Static dielectric constant tensor:
#      x y z
#    x 1.843930 0.000000 0.000000 
#    y 0.000000 1.834880 0.000000 
#    z 0.000000 0.000000 1.958890 
# 
# From -- ./inp_files/48349.got.cif
#   From: 2010.05.17/outbox.cif.g08.bks.cpg/sg70_25_cif.got.tgz:48349.got - 2010.06.03 15:57:51.
