data_PCOD9517865
_publ_section_title
;
Structure prediction by ZEFSAII (Michael W. Deem and Ramdas Pophale) SiO2 
 PCOD9517865
Probable space group: I M M M
;
_chemical_formula_sum "Si O2"
_cell_formula_units_Z 80
_cell_length_a 30.609637
_cell_length_b 10.871848
_cell_length_c 13.130363
_cell_angle_alpha 90.000000
_cell_angle_beta 90.000000
_cell_angle_gamma 90.000000
_cell_volume 4369.565802
_symmetry_space_group_name_H-M "I M M M"
_symmetry_group_IT_number 71
_symmetry_cell_setting 'orthorhombic'
loop_
_space_group_symop_operation_xyz
x,y,z
-x,-y,z
x,-y,-z
-x,y,-z
-x,-y,-z
x,y,-z
-x,y,z
x,-y,z
1/2+x,1/2+y,1/2+z
1/2-x,1/2-y,1/2+z
1/2+x,1/2-y,1/2-z
1/2-x,1/2+y,1/2-z
1/2-x,1/2-y,1/2-z
1/2+x,1/2+y,1/2-z
1/2-x,1/2+y,1/2+z
1/2+x,1/2-y,1/2+z
loop_
_atom_site_type_symbol
_atom_site_label
_atom_site_fract_x
_atom_site_fract_y
_atom_site_fract_z
Si Si1 0.948895 0.500000 0.884743
Si Si2 0.550466 0.644374 0.500000
Si Si3 0.758864 0.638329 0.623013
Si Si4 0.600446 0.228852 0.317040
Si Si5 0.196170 0.640165 0.879494
Si Si6 0.637523 0.145961 0.879618
O O1 0.932713 0.382924 0.825829
O O2 0.000000 0.500000 0.893488
O O3 0.929757 0.500000 0.000000
O O4 0.545555 0.500000 0.500000
O O5 0.500000 0.698468 0.500000
O O6 0.578165 0.678641 0.601953
O O7 0.755780 0.635423 0.500000
O O8 0.744881 0.500000 0.656682
O O9 0.728982 0.752797 0.656208
O O10 0.810507 0.656688 0.643586
O O11 0.646980 0.184854 0.360906
O O12 0.611547 0.237141 0.196413
O O13 0.201770 0.500000 0.840544
O O14 0.202910 0.632267 0.000000
O O15 0.626866 0.000000 0.861838
O O16 0.630986 0.170076 0.000000
#
# Coordination Sequence:
#
# PCOD9517865 Si02
#       6
#     8   8  16  16  16  16
#     4  11  20  32  55  87 113 139 176 223 295 371
#     4  11  26  45  63  87 117 148 187 239 303 369
#     4   8  16  31  49  72 109 161 204 236 282 341
#     4  12  20  35  58  84 113 149 186 234 295 352
#     4  10  18  29  47  78 117 148 191 248 298 342
#     4   9  18  34  56  83 118 158 200 238 280 338
#
# _framework density 18.308456
#
# number of rings (size 3 to 8) (size 9 to 14) (size 15 to 20)
#    0.000    2.000    4.000    1.800    0.000    1.600 
#    0.000    1.000    0.000    4.800    0.000    1.400 
#    0.000    0.000    0.000    0.000    0.000    0.000 
#
# Total GULP energy -222685.445526 kJ/mol
# GULP energy per Si atom -5567.136138 kJ/mol
# Density = 1.826678 g / cm^3
# Si number density = 18.308456 Si / 1000 Ang^3
#
#
#
# Elastic Constant Matrix: (Units=GPa)
#
#
# Indices 1 2 3 4 5 6 
#
# 1 93.8455 50.2774 51.5804 0.0000 0.0000 0.0000
# 2 50.2774 89.1288 42.4759 0.0000 0.0000 0.0000
# 3 51.5804 42.4759 117.7317 0.0000 0.0000 0.0000
# 4 0.0000 0.0000 0.0000 7.4764 0.0000 0.0000
# 5 0.0000 0.0000 0.0000 0.0000 15.2967 0.0000
# 6 0.0000 0.0000 0.0000 0.0000 0.0000 42.9284
#
#
#
# Elastic Compliance Matrix: (Units=1/GPa)
#
#
# Indices 1 2 3 4 5 6 
#
# 1 0.017343 -0.007442 -0.004914 0.000000 0.000000 0.000000
# 2 -0.007442 0.016742 -0.002780 0.000000 0.000000 0.000000
# 3 -0.004914 -0.002780 0.011650 0.000000 0.000000 0.000000
# 4 0.000000 0.000000 0.000000 0.133753 0.000000 0.000000
# 5 0.000000 0.000000 0.000000 0.000000 0.065374 0.000000
# 6 0.000000 0.000000 0.000000 0.000000 0.000000 0.023295
#
#
# Mechanical properties :
#
#
# Convention : Reuss Voigt Hill
#
# Bulk Modulus (GPa) = 64.66342 65.48596 65.07469
# Shear Modulus (GPa) = 16.46998 23.56513 20.01756
#
# Velocity S-wave (km/s) = 3.00256 3.59153 3.31017
# Velocity P-wave (km/s) = 6.88593 7.28317 7.08734
#
# Compressibility (1/GPa) = 0.01546469
#
# Stress axis : x y z
#
# Youngs Moduli (GPa) = 57.65909 59.72835 85.83964
#
# Poissons Ratio (x) = 0.44448 0.42178
# Poissons Ratio (y) = 0.42908 0.23864
# Poissons Ratio (z) = 0.28331 0.16605
#
# Static dielectric constant tensor:
#      x y z
#    x 1.606980 0.000000 0.000000 
#    y 0.000000 1.547720 0.000000 
#    z 0.000000 0.000000 1.752500 
# 
# From -- ./inp_files/40116.got.cif
#   From: 2010.05.17/outbox.cif.g08.bks.cpg/sg71_21_cif.got.tgz:40116.got - 2010.06.03 16:22:01.
