data_PCOD9517484
_publ_section_title
;
Structure prediction by ZEFSAII (Michael W. Deem and Ramdas Pophale) SiO2 
 PCOD9517484
Probable space group: I M M M
;
_chemical_formula_sum "Si O2"
_cell_formula_units_Z 88
_cell_length_a 14.818499
_cell_length_b 20.125069
_cell_length_c 18.468734
_cell_angle_alpha 90.000000
_cell_angle_beta 90.000000
_cell_angle_gamma 90.000000
_cell_volume 5507.807075
_symmetry_space_group_name_H-M "I M M M"
_symmetry_group_IT_number 71
_symmetry_cell_setting 'orthorhombic'
loop_
_space_group_symop_operation_xyz
x,y,z
-x,-y,z
x,-y,-z
-x,y,-z
-x,-y,-z
x,y,-z
-x,y,z
x,-y,z
1/2+x,1/2+y,1/2+z
1/2-x,1/2-y,1/2+z
1/2+x,1/2-y,1/2-z
1/2-x,1/2+y,1/2-z
1/2-x,1/2-y,1/2-z
1/2+x,1/2+y,1/2-z
1/2-x,1/2+y,1/2+z
1/2+x,1/2-y,1/2+z
loop_
_atom_site_type_symbol
_atom_site_label
_atom_site_fract_x
_atom_site_fract_y
_atom_site_fract_z
Si Si1 0.901099 0.728762 0.148211
Si Si2 0.662310 0.376971 0.320042
Si Si3 0.707401 0.304092 0.084720
Si Si4 0.824396 0.705713 0.706582
Si Si5 0.393692 0.421607 0.840858
Si Si6 0.608319 0.500000 0.583834
O O1 0.885691 0.808432 0.155536
O O2 0.813904 0.701423 0.105375
O O3 0.897381 0.699938 0.230575
O O4 0.000000 0.715712 0.116651
O O5 0.768580 0.359678 0.313309
O O6 0.625931 0.398831 0.241596
O O7 0.643866 0.434945 0.375981
O O8 0.657256 0.248923 0.135213
O O9 0.666689 0.374689 0.108640
O O10 0.695413 0.292084 0.000000
O O11 0.750000 0.750000 0.750000
O O12 0.500000 0.411720 0.855917
O O13 0.373890 0.500000 0.847968
O O14 0.500000 0.500000 0.589758
O O15 0.633425 0.500000 0.500000
#
# Coordination Sequence:
#
# PCOD9517484 Si02
#       6
#    16  16  16  16  16   8
#     4  10  18  32  55  76  97 131 175 213 250 299
#     4  10  17  31  49  72 102 135 168 201 241 294
#     4  10  20  34  48  72 105 132 165 212 258 298
#     4   8  16  31  49  72  94 128 172 210 242 289
#     4  11  20  31  52  76  99 134 172 200 241 302
#     4  11  22  30  42  74 112 138 163 198 244 302
#
# _framework density 15.977321
#
# number of rings (size 3 to 8) (size 9 to 14) (size 15 to 20)
#    0.000    2.455    6.364    1.636    0.000    4.000 
#    0.000    0.909    0.000    0.545    0.000    1.273 
#    0.000    0.727    0.000    0.000    0.000    0.727 
#
# Total GULP energy -244958.714337 kJ/mol
# GULP energy per Si atom -5567.243508 kJ/mol
# Density = 1.594096 g / cm^3
# Si number density = 15.977321 Si / 1000 Ang^3
#
#
#
# Elastic Constant Matrix: (Units=GPa)
#
#
# Indices 1 2 3 4 5 6 
#
# 1 41.7765 38.5144 9.5238 0.0000 0.0000 0.0000
# 2 38.5144 78.8957 43.5889 0.0000 0.0000 0.0000
# 3 9.5238 43.5889 109.1260 0.0000 0.0000 0.0000
# 4 0.0000 0.0000 0.0000 15.0090 0.0000 0.0000
# 5 0.0000 0.0000 0.0000 0.0000 12.9727 0.0000
# 6 0.0000 0.0000 0.0000 0.0000 0.0000 19.5718
#
#
#
# Elastic Compliance Matrix: (Units=1/GPa)
#
#
# Indices 1 2 3 4 5 6 
#
# 1 0.046838 -0.026442 0.006474 0.000000 0.000000 0.000000
# 2 -0.026442 0.031191 -0.010151 0.000000 0.000000 0.000000
# 3 0.006474 -0.010151 0.012654 0.000000 0.000000 0.000000
# 4 0.000000 0.000000 0.000000 0.066627 0.000000 0.000000
# 5 0.000000 0.000000 0.000000 0.000000 0.077085 0.000000
# 6 0.000000 0.000000 0.000000 0.000000 0.000000 0.051094
#
#
# Mechanical properties :
#
#
# Convention : Reuss Voigt Hill
#
# Bulk Modulus (GPa) = 32.84606 45.89474 39.37040
# Shear Modulus (GPa) = 14.04987 18.72211 16.38599
#
# Velocity S-wave (km/s) = 2.96862 3.42686 3.20594
# Velocity P-wave (km/s) = 5.68796 6.66672 6.19669
#
# Compressibility (1/GPa) = 0.03044505
#
# Stress axis : x y z
#
# Youngs Moduli (GPa) = 21.35013 32.06003 79.02940
#
# Poissons Ratio (x) = 0.84772 -0.51164
# Poissons Ratio (y) = 0.56453 0.80225
# Poissons Ratio (z) = -0.13822 0.32545
#
# Static dielectric constant tensor:
#      x y z
#    x 1.578220 0.000000 0.000000 
#    y 0.000000 1.532400 0.000000 
#    z 0.000000 0.000000 1.555140 
# 
# From -- ./inp_files/44893.got.cif
#   From: 2010.05.17/outbox.cif.g08.bks.cpg/sg71_23_cif.got.tgz:44893.got - 2010.06.03 16:22:01.
