data_PCOD9517133
_publ_section_title
;
Structure prediction by ZEFSAII (Michael W. Deem and Ramdas Pophale) SiO2 
 PCOD9517133
Probable space group: F D D D
;
_chemical_formula_sum "Si O2"
_cell_formula_units_Z 72
_cell_length_a 9.212564
_cell_length_b 12.717330
_cell_length_c 23.348451
_cell_angle_alpha 90.000000
_cell_angle_beta 90.000000
_cell_angle_gamma 90.000000
_cell_volume 2735.486226
_symmetry_space_group_name_H-M "F D D D"
_symmetry_group_IT_number 70
_space_group.IT_coordinate_system_code '2'
_symmetry_cell_setting 'orthorhombic'
loop_
_space_group_symop_operation_xyz
x,y,z
1/4-x,1/4-y,z
x,1/4-y,1/4-z
1/4-x,y,1/4-z
-x,-y,-z
3/4+x,3/4+y,-z
-x,3/4+y,3/4+z
3/4+x,-y,3/4+z
x,1/2+y,1/2+z
1/4-x,3/4-y,1/2+z
x,3/4-y,3/4-z
1/4-x,1/2+y,3/4-z
-x,1/2-y,1/2-z
3/4+x,1/4+y,1/2-z
-x,1/4+y,1/4+z
3/4+x,1/2-y,1/4+z
1/2+x,y,1/2+z
3/4-x,1/4-y,1/2+z
1/2+x,1/4-y,3/4-z
3/4-x,y,3/4-z
1/2-x,-y,1/2-z
1/4+x,3/4+y,1/2-z
1/2-x,3/4+y,1/4+z
1/4+x,-y,1/4+z
1/2+x,1/2+y,z
3/4-x,3/4-y,z
1/2+x,3/4-y,1/4-z
3/4-x,1/2+y,1/4-z
1/2-x,1/2-y,-z
1/4+x,1/4+y,-z
1/2-x,1/4+y,3/4+z
1/4+x,1/2-y,3/4+z
loop_
_atom_site_type_symbol
_atom_site_label
_atom_site_fract_x
_atom_site_fract_y
_atom_site_fract_z
Si Si1 0.990876 0.041899 0.285571
Si Si2 0.994039 0.554459 0.334044
Si Si3 0.625000 0.125000 0.125000
O O1 0.125000 0.125000 0.280358
O O2 0.857448 0.108636 0.306420
O O3 0.956777 0.010133 0.220418
O O4 0.979454 0.944141 0.331695
O O5 0.125000 0.625000 0.359150
O O6 0.875000 0.499017 0.375000
#
# Coordination Sequence:
#
# PCOD9517133 Si02
#       3
#    32  32   8
#     4  12  28  52  86 127 168 228 292 356 435 519
#     4  12  27  50  82 123 174 223 288 357 435 518
#     4  12  28  52  92 124 180 224 290 358 444 498
#
# _framework density 26.320733000000001
#
# number of rings (size 3 to 8) (size 9 to 14) (size 15 to 20)
#    0.000    0.000    4.444    4.000    0.000    0.889 
#    0.000    0.000    0.000    0.000    0.000    0.000 
#    0.000    0.000    0.000    0.000    0.000    0.000 
#
# Total GULP energy -100362.989449 kJ/mol
# GULP energy per Si atom -5575.721636 kJ/mol
# Density = 2.626083 g / cm^3
# Si number density = 26.320733 Si / 1000 Ang^3
#
#
#
# Elastic Constant Matrix: (Units=GPa)
#
#
# Indices 1 2 3 4 5 6 
#
# 1 115.0714 14.1398 -31.9328 0.0000 0.0000 0.0000
# 2 14.1398 92.8942 16.4192 0.0000 0.0000 0.0000
# 3 -31.9328 16.4192 108.1476 0.0000 0.0000 0.0000
# 4 0.0000 0.0000 0.0000 -131.9510 0.0000 0.0000
# 5 0.0000 0.0000 0.0000 0.0000 -118.3796 0.0000
# 6 0.0000 0.0000 0.0000 0.0000 0.0000 58.3367
#
#
#
# Elastic Compliance Matrix: (Units=1/GPa)
#
#
# Indices 1 2 3 4 5 6 
#
# 1 0.009837 -0.002066 0.003218 0.000000 0.000000 0.000000
# 2 -0.002066 0.011496 -0.002355 0.000000 0.000000 0.000000
# 3 0.003218 -0.002355 0.010555 0.000000 0.000000 0.000000
# 4 0.000000 0.000000 0.000000 -0.007579 0.000000 0.000000
# 5 0.000000 0.000000 0.000000 0.000000 -0.008447 0.000000
# 6 0.000000 0.000000 0.000000 0.000000 0.000000 0.017142
#
#
# Mechanical properties :
#
#
# Convention : Reuss Voigt Hill
#
# Bulk Modulus (GPa) = 33.92017 34.81840 34.36928
# Shear Modulus (GPa) = 110.52905 -17.23297 46.64804
#
# Velocity S-wave (km/s) = 6.48724 -2.56155 4.21443
# Velocity P-wave (km/s) = 8.30829 2.12333 6.06367
#
# Compressibility (1/GPa) = 0.02948099
#
# Stress axis : x y z
#
# Youngs Moduli (GPa) = 101.65431 86.98856 94.74621
#
# Poissons Ratio (x) = 0.17974 -0.30493
# Poissons Ratio (y) = 0.21004 0.22317
# Poissons Ratio (z) = -0.32716 0.20489
#
# Static dielectric constant tensor:
#      x y z
#    x 2.045900 0.000000 0.000000 
#    y 0.000000 2.010710 0.000000 
#    z 0.000000 0.000000 -5.524820 
# 
# From -- ./inp_files/49499.got.cif
#   From: 2010.05.17/outbox.cif.g08.bks.cpg/sg70_25_cif.got.tgz:49499.got - 2010.06.03 15:57:51.
