data_PCOD9517947
_publ_section_title
;
Structure prediction by ZEFSAII (Michael W. Deem and Ramdas Pophale) SiO2 
 PCOD9517947
Probable space group: I M M M
;
_chemical_formula_sum "Si O2"
_cell_formula_units_Z 80
_cell_length_a 19.697087
_cell_length_b 8.962967
_cell_length_c 33.760953
_cell_angle_alpha 90.000000
_cell_angle_beta 90.000000
_cell_angle_gamma 90.000000
_cell_volume 5960.305191
_symmetry_space_group_name_H-M "I M M M"
_symmetry_group_IT_number 71
_symmetry_cell_setting 'orthorhombic'
loop_
_space_group_symop_operation_xyz
x,y,z
-x,-y,z
x,-y,-z
-x,y,-z
-x,-y,-z
x,y,-z
-x,y,z
x,-y,z
1/2+x,1/2+y,1/2+z
1/2-x,1/2-y,1/2+z
1/2+x,1/2-y,1/2-z
1/2-x,1/2+y,1/2-z
1/2-x,1/2-y,1/2-z
1/2+x,1/2+y,1/2-z
1/2-x,1/2+y,1/2+z
1/2+x,1/2-y,1/2+z
loop_
_atom_site_type_symbol
_atom_site_label
_atom_site_fract_x
_atom_site_fract_y
_atom_site_fract_z
Si Si1 0.500000 0.320354 0.255459
Si Si2 0.000000 0.677843 0.669345
Si Si3 0.362907 0.178007 0.121414
Si Si4 0.775104 0.821954 0.312244
Si Si5 0.579212 0.320621 0.045672
Si Si6 0.649842 0.679432 0.269935
O O1 0.500000 0.500000 0.254610
O O2 0.500000 0.262516 0.210652
O O3 0.428469 0.273817 0.274602
O O4 0.933029 0.714737 0.644421
O O5 0.000000 0.500000 0.676707
O O6 0.303951 0.248944 0.148029
O O7 0.372906 0.243921 0.077722
O O8 0.355649 0.000000 0.119967
O O9 0.702229 0.758716 0.299189
O O10 0.825015 0.785476 0.274965
O O11 0.773201 0.000000 0.316031
O O12 0.500000 0.277633 0.052607
O O13 0.582922 0.500000 0.049735
O O14 0.595204 0.283199 0.000000
O O15 0.655136 0.500000 0.274571
#
# Coordination Sequence:
#
# PCOD9517947 Si02
#       6
#     8   8  16  16  16  16
#     4  10  18  30  46  61  79 108 143 178 216 254
#     4  10  20  28  37  59  84 107 140 179 215 248
#     4  11  20  30  43  61  84 110 142 180 217 252
#     4  10  19  30  44  60  81 110 141 174 213 254
#     4   9  18  31  45  61  82 109 141 176 213 253
#     4   9  18  30  43  60  82 107 138 176 215 253
#
# _framework density 13.422131
#
# number of rings (size 3 to 8) (size 9 to 14) (size 15 to 20)
#    0.000    2.200    3.000    1.800    0.000    2.800 
#    0.000    1.000    0.000    0.000    0.000    0.000 
#    0.000    0.000    0.000    0.900    0.000   17.400 
#
# Total GULP energy -223040.589397 kJ/mol
# GULP energy per Si atom -5576.014735 kJ/mol
# Density = 1.339158 g / cm^3
# Si number density = 13.422131 Si / 1000 Ang^3
#
#
#
# Elastic Constant Matrix: (Units=GPa)
#
#
# Indices 1 2 3 4 5 6 
#
# 1 98.3737 33.0074 51.4130 0.0000 0.0000 0.0000
# 2 33.0074 25.6216 40.0352 0.0000 0.0000 0.0000
# 3 51.4130 40.0352 98.5670 0.0000 0.0000 0.0000
# 4 0.0000 0.0000 0.0000 22.0663 0.0000 0.0000
# 5 0.0000 0.0000 0.0000 0.0000 24.4412 0.0000
# 6 0.0000 0.0000 0.0000 0.0000 0.0000 17.7674
#
#
#
# Elastic Compliance Matrix: (Units=1/GPa)
#
#
# Indices 1 2 3 4 5 6 
#
# 1 0.017905 -0.023193 0.000081 0.000000 0.000000 0.000000
# 2 -0.023193 0.136875 -0.043497 0.000000 0.000000 0.000000
# 3 0.000081 -0.043497 0.027771 0.000000 0.000000 0.000000
# 4 0.000000 0.000000 0.000000 0.045318 0.000000 0.000000
# 5 0.000000 0.000000 0.000000 0.000000 0.040914 0.000000
# 6 0.000000 0.000000 0.000000 0.000000 0.000000 0.056283
#
#
# Mechanical properties :
#
#
# Convention : Reuss Voigt Hill
#
# Bulk Modulus (GPa) = 20.27080 52.38595 36.32837
# Shear Modulus (GPa) = 10.53236 19.39542 14.96389
#
# Velocity S-wave (km/s) = 2.80429 3.80548 3.34258
# Velocity P-wave (km/s) = 5.06169 7.64351 6.48243
#
# Compressibility (1/GPa) = 0.04933205
#
# Stress axis : x y z
#
# Youngs Moduli (GPa) = 55.85084 7.30596 36.00931
#
# Poissons Ratio (x) = 0.16944 -0.00291
# Poissons Ratio (y) = 1.29532 1.56631
# Poissons Ratio (z) = -0.00452 0.31779
#
# Static dielectric constant tensor:
#      x y z
#    x 1.439430 0.000000 0.000000 
#    y 0.000000 1.441170 0.000000 
#    z 0.000000 0.000000 1.420080 
# 
# From -- ./inp_files/8670.got.cif
#   From: 2010.05.17/outbox.cif.g08.bks.cpg/sg71_5_cif.got.tgz:8670.got - 2010.06.03 16:22:01.
