data_PCOD9517308
_publ_section_title
;
Structure prediction by ZEFSAII (Michael W. Deem and Ramdas Pophale) SiO2 
 PCOD9517308
Probable space group: I M M M
;
_chemical_formula_sum "Si O2"
_cell_formula_units_Z 80
_cell_length_a 7.419182
_cell_length_b 24.855264
_cell_length_c 27.306998
_cell_angle_alpha 90.000000
_cell_angle_beta 90.000000
_cell_angle_gamma 90.000000
_cell_volume 5035.566826
_symmetry_space_group_name_H-M "I M M M"
_symmetry_group_IT_number 71
_symmetry_cell_setting 'orthorhombic'
loop_
_space_group_symop_operation_xyz
x,y,z
-x,-y,z
x,-y,-z
-x,y,-z
-x,-y,-z
x,y,-z
-x,y,z
x,-y,z
1/2+x,1/2+y,1/2+z
1/2-x,1/2-y,1/2+z
1/2+x,1/2-y,1/2-z
1/2-x,1/2+y,1/2-z
1/2-x,1/2-y,1/2-z
1/2+x,1/2+y,1/2-z
1/2-x,1/2+y,1/2+z
1/2+x,1/2-y,1/2+z
loop_
_atom_site_type_symbol
_atom_site_label
_atom_site_fract_x
_atom_site_fract_y
_atom_site_fract_z
Si Si1 0.214832 0.812939 0.857507
Si Si2 0.788065 0.500000 0.280965
Si Si3 0.215284 0.284746 0.201011
Si Si4 0.717443 0.117431 0.240217
Si Si5 0.282378 0.500000 0.603527
Si Si6 0.279406 0.387514 0.444068
O O1 0.286051 0.754014 0.841974
O O2 0.242411 0.853054 0.811400
O O3 0.283119 0.841800 0.906250
O O4 0.000000 0.807312 0.863232
O O5 0.713082 0.556560 0.261474
O O6 0.772099 0.500000 0.339811
O O7 0.000000 0.500000 0.268924
O O8 0.250000 0.250000 0.250000
O O9 0.283466 0.343831 0.215892
O O10 0.000000 0.289310 0.194325
O O11 0.500000 0.115612 0.243413
O O12 0.500000 0.500000 0.602624
O O13 0.222484 0.554298 0.576571
O O14 0.223107 0.379833 0.500000
O O15 0.500000 0.387483 0.443475
#
# Coordination Sequence:
#
# PCOD9517308 Si02
#       6
#    16   8  16  16   8  16
#     4   9  15  24  38  52  64  81 108 139 167 196
#     4  10  18  25  35  49  68  92 113 136 166 195
#     4   8  14  23  35  50  65  81 103 132 164 197
#     4   9  16  25  35  48  67  88 108 132 164 198
#     4  10  17  26  38  48  62  88 118 145 167 190
#     4   9  16  24  35  51  67  84 110 143 174 198
#
# _framework density 15.886991
#
# number of rings (size 3 to 8) (size 9 to 14) (size 15 to 20)
#    0.000    3.000    2.000    0.300    0.000    1.200 
#    0.000    0.000    0.000    3.000    0.000    0.000 
#    0.000    0.000    0.000    0.900    0.000   28.800 
#
# Total GULP energy -222779.093191 kJ/mol
# GULP energy per Si atom -5569.477330 kJ/mol
# Density = 1.585083 g / cm^3
# Si number density = 15.886991 Si / 1000 Ang^3
#
#
#
# Elastic Constant Matrix: (Units=GPa)
#
#
# Indices 1 2 3 4 5 6 
#
# 1 52.5386 3.2180 2.9630 0.0000 0.0000 0.0000
# 2 3.2180 156.8506 86.6910 0.0000 0.0000 0.0000
# 3 2.9630 86.6910 81.0254 0.0000 0.0000 0.0000
# 4 0.0000 0.0000 0.0000 14.7482 0.0000 0.0000
# 5 0.0000 0.0000 0.0000 0.0000 7.2844 0.0000
# 6 0.0000 0.0000 0.0000 0.0000 0.0000 -4.6320
#
#
#
# Elastic Compliance Matrix: (Units=1/GPa)
#
#
# Indices 1 2 3 4 5 6 
#
# 1 0.019073 -0.000014 -0.000682 0.000000 0.000000 0.000000
# 2 -0.000014 0.015601 -0.016692 0.000000 0.000000 0.000000
# 3 -0.000682 -0.016692 0.030225 0.000000 0.000000 0.000000
# 4 0.000000 0.000000 0.000000 0.067805 0.000000 0.000000
# 5 0.000000 0.000000 0.000000 0.000000 0.137279 0.000000
# 6 0.000000 0.000000 0.000000 0.000000 0.000000 -0.215890
#
#
# Mechanical properties :
#
#
# Convention : Reuss Voigt Hill
#
# Bulk Modulus (GPa) = 33.19664 52.90652 43.05158
# Shear Modulus (GPa) = 50.55065 16.64963 33.60014
#
# Velocity S-wave (km/s) = 5.64694 3.24080 4.60384
# Velocity P-wave (km/s) = 7.96606 6.88315 7.44433
#
# Compressibility (1/GPa) = 0.03012353
#
# Stress axis : x y z
#
# Youngs Moduli (GPa) = 52.43017 64.09772 33.08467
#
# Poissons Ratio (x) = 0.00091 0.02257
# Poissons Ratio (y) = 0.00075 0.55223
# Poissons Ratio (z) = 0.03577 1.06989
#
# Static dielectric constant tensor:
#      x y z
#    x 1.598340 0.000000 0.000000 
#    y 0.000000 1.578450 0.000000 
#    z 0.000000 0.000000 1.505630 
# 
# From -- ./inp_files/13060.got.cif
#   From: 2010.05.17/outbox.cif.g08.bks.cpg/sg71_7_cif.got.tgz:13060.got - 2010.06.03 16:22:01.
