data_PCOD9517532
_publ_section_title
;
Structure prediction by ZEFSAII (Michael W. Deem and Ramdas Pophale) SiO2 
 PCOD9517532
Probable space group: I M M M
;
_chemical_formula_sum "Si O2"
_cell_formula_units_Z 88
_cell_length_a 7.952668
_cell_length_b 31.221196
_cell_length_c 25.041071
_cell_angle_alpha 90.000000
_cell_angle_beta 90.000000
_cell_angle_gamma 90.000000
_cell_volume 6217.492752
_symmetry_space_group_name_H-M "I M M M"
_symmetry_group_IT_number 71
_symmetry_cell_setting 'orthorhombic'
loop_
_space_group_symop_operation_xyz
x,y,z
-x,-y,z
x,-y,-z
-x,y,-z
-x,-y,-z
x,y,-z
-x,y,z
x,-y,z
1/2+x,1/2+y,1/2+z
1/2-x,1/2-y,1/2+z
1/2+x,1/2-y,1/2-z
1/2-x,1/2+y,1/2-z
1/2-x,1/2-y,1/2-z
1/2+x,1/2+y,1/2-z
1/2-x,1/2+y,1/2+z
1/2+x,1/2-y,1/2+z
loop_
_atom_site_type_symbol
_atom_site_label
_atom_site_fract_x
_atom_site_fract_y
_atom_site_fract_z
Si Si1 0.701327 0.840041 0.178540
Si Si2 0.198345 0.907192 0.903564
Si Si3 0.204470 0.751979 0.117809
Si Si4 0.797806 0.706220 0.219875
Si Si5 0.187109 0.349407 0.500000
Si Si6 0.795277 0.000000 0.937635
Si Si7 0.308249 0.742515 0.500000
O O1 0.500000 0.843345 0.179038
O O2 0.773100 0.882578 0.151684
O O3 0.745338 0.798361 0.142082
O O4 0.762564 0.830097 0.238952
O O5 0.258112 0.956103 0.909061
O O6 0.000000 0.906689 0.915971
O O7 0.286902 0.878764 0.948611
O O8 0.260926 0.715249 0.159562
O O9 0.267907 0.745714 0.057500
O O10 0.000000 0.752292 0.116300
O O11 0.750000 0.750000 0.250000
O O12 0.000000 0.702744 0.217819
O O13 0.309914 0.309233 0.500000
O O14 0.000000 0.331017 0.500000
O O15 0.000000 0.000000 0.937696
O O16 0.742636 0.000000 0.000000
O O17 0.500000 0.758844 0.500000
#
# Coordination Sequence:
#
# PCOD9517532 Si02
#       7
#    16  16  16  16   8   8   8
#     4  10  18  27  39  56  75  94 120 156 190 221
#     4  11  20  32  46  56  69  93 125 156 191 231
#     4   9  16  26  39  54  73  99 126 152 183 220
#     4   8  15  26  38  52  72  96 121 149 183 218
#     4  12  22  29  39  56  77  96 120 154 193 229
#     4   9  18  32  46  56  68  92 124 155 186 227
#     4  10  18  26  39  57  76  98 127 157 185 218
#
# _framework density 14.153615
#
# number of rings (size 3 to 8) (size 9 to 14) (size 15 to 20)
#    0.000    2.273    2.727    1.909    0.000    0.727 
#    0.000    2.273    0.000    0.000    0.000    0.000 
#    0.000    0.000    0.000    0.000    0.000    0.909 
#
# Total GULP energy -245022.056696 kJ/mol
# GULP energy per Si atom -5568.683107 kJ/mol
# Density = 1.412140 g / cm^3
# Si number density = 14.153615 Si / 1000 Ang^3
#
#
#
# Elastic Constant Matrix: (Units=GPa)
#
#
# Indices 1 2 3 4 5 6 
#
# 1 23.9608 -0.8723 0.9590 0.0000 0.0000 0.0000
# 2 -0.8723 61.6947 49.7817 0.0000 0.0000 0.0000
# 3 0.9590 49.7817 120.6263 0.0000 0.0000 0.0000
# 4 0.0000 0.0000 0.0000 19.2293 0.0000 0.0000
# 5 0.0000 0.0000 0.0000 0.0000 12.5525 0.0000
# 6 0.0000 0.0000 0.0000 0.0000 0.0000 7.1895
#
#
#
# Elastic Compliance Matrix: (Units=1/GPa)
#
#
# Indices 1 2 3 4 5 6 
#
# 1 0.041816 0.001289 -0.000864 0.000000 0.000000 0.000000
# 2 0.001289 0.024341 -0.010056 0.000000 0.000000 0.000000
# 3 -0.000864 -0.010056 0.012447 0.000000 0.000000 0.000000
# 4 0.000000 0.000000 0.000000 0.052004 0.000000 0.000000
# 5 0.000000 0.000000 0.000000 0.000000 0.079665 0.000000
# 6 0.000000 0.000000 0.000000 0.000000 0.000000 0.139092
#
#
# Mechanical properties :
#
#
# Convention : Reuss Voigt Hill
#
# Bulk Modulus (GPa) = 16.85155 34.00207 25.42681
# Shear Modulus (GPa) = 12.87305 18.22182 15.54743
#
# Velocity S-wave (km/s) = 3.01910 3.59197 3.31792
# Velocity P-wave (km/s) = 4.90768 6.42486 5.71682
#
# Compressibility (1/GPa) = 0.05934172
#
# Stress axis : x y z
#
# Youngs Moduli (GPa) = 23.91405 41.08298 80.34175
#
# Poissons Ratio (x) = -0.05294 0.06944
# Poissons Ratio (y) = -0.03082 0.80789
# Poissons Ratio (z) = 0.02067 0.41311
#
# Static dielectric constant tensor:
#      x y z
#    x 1.503860 0.000000 0.000000 
#    y 0.000000 1.446000 0.000000 
#    z 0.000000 0.000000 1.520240 
# 
# From -- ./inp_files/15731.got.cif
#   From: 2010.05.17/outbox.cif.g08.bks.cpg/sg71_8_cif.got.tgz:15731.got - 2010.06.03 16:22:01.
