data_PCOD9517806
_publ_section_title
;
Structure prediction by ZEFSAII (Michael W. Deem and Ramdas Pophale) SiO2 
 PCOD9517806
Probable space group: I M M M
;
_chemical_formula_sum "Si O2"
_cell_formula_units_Z 128
_cell_length_a 30.129231
_cell_length_b 25.933834
_cell_length_c 7.349476
_cell_angle_alpha 90.000000
_cell_angle_beta 90.000000
_cell_angle_gamma 90.000000
_cell_volume 5742.634157
_symmetry_space_group_name_H-M "I M M M"
_symmetry_group_IT_number 71
_symmetry_cell_setting 'orthorhombic'
loop_
_space_group_symop_operation_xyz
x,y,z
-x,-y,z
x,-y,-z
-x,y,-z
-x,-y,-z
x,y,-z
-x,y,z
x,-y,z
1/2+x,1/2+y,1/2+z
1/2-x,1/2-y,1/2+z
1/2+x,1/2-y,1/2-z
1/2-x,1/2+y,1/2-z
1/2-x,1/2-y,1/2-z
1/2+x,1/2+y,1/2-z
1/2-x,1/2+y,1/2+z
1/2+x,1/2-y,1/2+z
loop_
_atom_site_type_symbol
_atom_site_label
_atom_site_fract_x
_atom_site_fract_y
_atom_site_fract_z
Si Si1 0.619523 0.139361 0.714256
Si Si2 0.550911 0.056993 0.278177
Si Si3 0.308447 0.944608 0.781105
Si Si4 0.785842 0.090777 0.778012
Si Si5 0.383149 0.256341 0.722761
Si Si6 0.384973 0.441446 0.278210
Si Si7 0.286878 0.706783 0.283242
Si Si8 0.051425 0.152762 0.221900
O O1 0.611073 0.144711 0.500000
O O2 0.582492 0.101336 0.790899
O O3 0.664866 0.106867 0.730332
O O4 0.615977 0.197172 0.786120
O O5 0.552434 0.057011 0.500000
O O6 0.500000 0.064997 0.226839
O O7 0.564774 0.000000 0.218589
O O8 0.257321 0.940818 0.721918
O O9 0.327339 0.000000 0.716977
O O10 0.309149 0.945298 0.000000
O O11 0.834572 0.072185 0.720425
O O12 0.776806 0.149417 0.717989
O O13 0.786756 0.089067 0.000000
O O14 0.383403 0.256453 0.500000
O O15 0.335508 0.277730 0.782976
O O16 0.422314 0.295275 0.777772
O O17 0.384913 0.440603 0.500000
O O18 0.396169 0.500000 0.222946
O O19 0.419622 0.397157 0.221133
O O20 0.290394 0.702692 0.500000
O O21 0.250000 0.750000 0.250000
O O22 0.000000 0.151318 0.279964
O O23 0.051248 0.152451 0.000000
#
# Coordination Sequence:
#
# PCOD9517806 Si02
#       8
#    16  16  16  16  16  16  16  16
#     4  10  19  30  47  68  92 123 158 193 234 284
#     4   8  14  25  41  61  83 107 141 185 225 263
#     4  10  20  32  46  67  94 123 158 200 242 282
#     4   9  16  28  44  61  85 121 162 197 232 279
#     4   9  17  29  42  62  91 121 153 192 235 281
#     4   9  15  24  40  61  87 123 165 201 233 279
#     4  10  18  29  46  65  90 123 157 192 232 276
#     4   9  16  26  40  61  93 129 160 195 242 288
#
# _framework density 22.289421999999998
#
# number of rings (size 3 to 8) (size 9 to 14) (size 15 to 20)
#    0.000    2.750    1.250    1.875    0.000    3.000 
#    0.000    3.750    0.000    0.375    0.000    1.750 
#    0.000    1.500    0.000    0.000    0.000    2.500 
#
# Total GULP energy -357336.809478 kJ/mol
# GULP energy per Si atom -5583.387648 kJ/mol
# Density = 2.223869 g / cm^3
# Si number density = 22.289422 Si / 1000 Ang^3
#
#
#
# Elastic Constant Matrix: (Units=GPa)
#
#
# Indices 1 2 3 4 5 6 
#
# 1 164.6014 101.1925 -5.5231 0.0000 0.0000 0.0000
# 2 101.1925 208.6323 1.5772 0.0000 0.0000 0.0000
# 3 -5.5231 1.5772 81.8257 0.0000 0.0000 0.0000
# 4 0.0000 0.0000 0.0000 -1.6183 0.0000 0.0000
# 5 0.0000 0.0000 0.0000 0.0000 2.4110 0.0000
# 6 0.0000 0.0000 0.0000 0.0000 0.0000 38.8101
#
#
#
# Elastic Compliance Matrix: (Units=1/GPa)
#
#
# Indices 1 2 3 4 5 6 
#
# 1 0.008693 -0.004221 0.000668 0.000000 0.000000 0.000000
# 2 -0.004221 0.006844 -0.000417 0.000000 0.000000 0.000000
# 3 0.000668 -0.000417 0.012274 0.000000 0.000000 0.000000
# 4 0.000000 0.000000 0.000000 -0.617939 0.000000 0.000000
# 5 0.000000 0.000000 0.000000 0.000000 0.414770 0.000000
# 6 0.000000 0.000000 0.000000 0.000000 0.000000 0.025766
#
#
# Mechanical properties :
#
#
# Convention : Reuss Voigt Hill
#
# Bulk Modulus (GPa) = 50.32532 72.17252 61.24892
# Shear Modulus (GPa) = -37.02935 31.77474 -2.62730
#
# Velocity S-wave (km/s) = -4.08032 3.77974 -1.08687
# Velocity P-wave (km/s) = 0.65454 7.17626 5.09544
#
# Compressibility (1/GPa) = 0.01987071
#
# Stress axis : x y z
#
# Youngs Moduli (GPa) = 115.03692 146.11895 81.47147
#
# Poissons Ratio (x) = 0.61682 -0.05443
# Poissons Ratio (y) = 0.48561 0.03396
# Poissons Ratio (z) = -0.07686 0.06091
#
# Static dielectric constant tensor:
#      x y z
#    x 1.782060 0.000000 0.000000 
#    y 0.000000 1.825760 0.000000 
#    z 0.000000 0.000000 1.906140 
# 
# From -- ./inp_files/29265.got.cif
#   From: 2010.05.17/outbox.cif.g08.bks.cpg/sg71_15_cif.got.tgz:29265.got - 2010.06.03 16:22:01.
