data_PCOD9517291
_publ_section_title
;
Structure prediction by ZEFSAII (Michael W. Deem and Ramdas Pophale) SiO2 
 PCOD9517291
Probable space group: I M M M
;
_chemical_formula_sum "Si O2"
_cell_formula_units_Z 96
_cell_length_a 30.122904
_cell_length_b 12.747944
_cell_length_c 19.166597
_cell_angle_alpha 90.000000
_cell_angle_beta 90.000000
_cell_angle_gamma 90.000000
_cell_volume 7360.070869
_symmetry_space_group_name_H-M "I M M M"
_symmetry_group_IT_number 71
_symmetry_cell_setting 'orthorhombic'
loop_
_space_group_symop_operation_xyz
x,y,z
-x,-y,z
x,-y,-z
-x,y,-z
-x,-y,-z
x,y,-z
-x,y,z
x,-y,z
1/2+x,1/2+y,1/2+z
1/2-x,1/2-y,1/2+z
1/2+x,1/2-y,1/2-z
1/2-x,1/2+y,1/2-z
1/2-x,1/2-y,1/2-z
1/2+x,1/2+y,1/2-z
1/2-x,1/2+y,1/2+z
1/2+x,1/2-y,1/2+z
loop_
_atom_site_type_symbol
_atom_site_label
_atom_site_fract_x
_atom_site_fract_y
_atom_site_fract_z
Si Si1 0.321056 0.254610 0.291395
Si Si2 0.689119 0.878782 0.419124
Si Si3 0.629725 0.377047 0.179298
Si Si4 0.050813 0.127462 0.420666
Si Si5 0.731988 0.123705 0.821399
Si Si6 0.709688 0.691319 0.081397
O O1 0.332825 0.199297 0.363882
O O2 0.359643 0.309345 0.247570
O O3 0.297880 0.166542 0.242450
O O4 0.282342 0.340393 0.304822
O O5 0.679443 0.853837 0.500000
O O6 0.742456 0.864158 0.409964
O O7 0.677902 0.000000 0.406156
O O8 0.624773 0.500000 0.195862
O O9 0.586952 0.339253 0.135807
O O10 0.672279 0.362630 0.128425
O O11 0.061983 0.160796 0.500000
O O12 0.000000 0.158961 0.405675
O O13 0.051716 0.000000 0.421016
O O14 0.716643 0.191620 0.888231
O O15 0.728505 0.000000 0.829870
O O16 0.697946 0.689396 0.000000
#
# Coordination Sequence:
#
# PCOD9517291 Si02
#       6
#    16  16  16  16  16  16
#     4   9  17  25  35  52  71  91 124 157 179 216
#     4   9  16  26  39  52  70  97 124 153 188 217
#     4  10  17  24  37  54  74 100 124 150 182 212
#     4   8  14  24  37  54  76 100 123 146 176 213
#     4   9  16  25  35  46  68 100 124 151 191 219
#     4   9  17  25  34  52  72  94 131 164 180 207
#
# _framework density 13.043353
#
# number of rings (size 3 to 8) (size 9 to 14) (size 15 to 20)
#    0.000    3.000    0.000    3.500    0.000    2.000 
#    0.000    0.000    0.000    1.500    0.000    0.000 
#    0.000   17.333    0.000   59.500    0.000    4.167 
#
# Total GULP energy -267267.950704 kJ/mol
# GULP energy per Si atom -5568.082306 kJ/mol
# Density = 1.301367 g / cm^3
# Si number density = 13.043353 Si / 1000 Ang^3
#
#
#
# Elastic Constant Matrix: (Units=GPa)
#
#
# Indices 1 2 3 4 5 6 
#
# 1 47.4735 16.2246 36.7170 0.0000 0.0000 0.0000
# 2 16.2246 65.9244 33.0409 0.0000 0.0000 0.0000
# 3 36.7170 33.0409 90.0398 0.0000 0.0000 0.0000
# 4 0.0000 0.0000 0.0000 17.8812 0.0000 0.0000
# 5 0.0000 0.0000 0.0000 0.0000 21.0209 0.0000
# 6 0.0000 0.0000 0.0000 0.0000 0.0000 8.1481
#
#
#
# Elastic Compliance Matrix: (Units=1/GPa)
#
#
# Indices 1 2 3 4 5 6 
#
# 1 0.030902 -0.001580 -0.012022 0.000000 0.000000 0.000000
# 2 -0.001580 0.018668 -0.006206 0.000000 0.000000 0.000000
# 3 -0.012022 -0.006206 0.018286 0.000000 0.000000 0.000000
# 4 0.000000 0.000000 0.000000 0.055925 0.000000 0.000000
# 5 0.000000 0.000000 0.000000 0.000000 0.047572 0.000000
# 6 0.000000 0.000000 0.000000 0.000000 0.000000 0.122729
#
#
# Mechanical properties :
#
#
# Convention : Reuss Voigt Hill
#
# Bulk Modulus (GPa) = 35.41016 41.71141 38.56078
# Shear Modulus (GPa) = 14.57257 17.24039 15.90648
#
# Velocity S-wave (km/s) = 3.34614 3.63957 3.49594
# Velocity P-wave (km/s) = 6.49122 7.05056 6.77666
#
# Compressibility (1/GPa) = 0.02824048
#
# Stress axis : x y z
#
# Youngs Moduli (GPa) = 32.36015 53.56690 54.68712
#
# Poissons Ratio (x) = 0.08464 0.65743
# Poissons Ratio (y) = 0.05113 0.33939
# Poissons Ratio (z) = 0.38902 0.33244
#
# Static dielectric constant tensor:
#      x y z
#    x 1.410120 0.000000 0.000000 
#    y 0.000000 1.417170 0.000000 
#    z 0.000000 0.000000 1.446700 
# 
# From -- ./inp_files/24442.got.cif
#   From: 2010.05.17/outbox.cif.g08.bks.cpg/sg71_13_cif.got.tgz:24442.got - 2010.06.03 16:22:01.
