data_PCOD9517768
_publ_section_title
;
Structure prediction by ZEFSAII (Michael W. Deem and Ramdas Pophale) SiO2 
 PCOD9517768
Probable space group: I M M M
;
_chemical_formula_sum "Si O2"
_cell_formula_units_Z 88
_cell_length_a 30.541306
_cell_length_b 20.277761
_cell_length_c 7.444171
_cell_angle_alpha 90.000000
_cell_angle_beta 90.000000
_cell_angle_gamma 90.000000
_cell_volume 4610.244359
_symmetry_space_group_name_H-M "I M M M"
_symmetry_group_IT_number 71
_symmetry_cell_setting 'orthorhombic'
loop_
_space_group_symop_operation_xyz
x,y,z
-x,-y,z
x,-y,-z
-x,y,-z
-x,-y,-z
x,y,-z
-x,y,z
x,-y,z
1/2+x,1/2+y,1/2+z
1/2-x,1/2-y,1/2+z
1/2+x,1/2-y,1/2-z
1/2-x,1/2+y,1/2-z
1/2-x,1/2-y,1/2-z
1/2+x,1/2+y,1/2-z
1/2-x,1/2+y,1/2+z
1/2+x,1/2-y,1/2+z
loop_
_atom_site_type_symbol
_atom_site_label
_atom_site_fract_x
_atom_site_fract_y
_atom_site_fract_z
Si Si1 0.256345 0.073321 0.216249
Si Si2 0.653273 0.573250 0.785911
Si Si3 0.293542 0.207973 0.785197
Si Si4 0.446721 0.075058 0.500000
Si Si5 0.621849 0.288242 0.219386
Si Si6 0.051789 0.317772 0.287712
O O1 0.205107 0.085578 0.257608
O O2 0.285012 0.134195 0.284357
O O3 0.267493 0.000000 0.282923
O O4 0.259957 0.072321 0.000000
O O5 0.643369 0.500000 0.713129
O O6 0.626880 0.636529 0.717168
O O7 0.646371 0.570476 0.000000
O O8 0.250000 0.250000 0.750000
O O9 0.335917 0.246650 0.718265
O O10 0.298755 0.203180 0.000000
O O11 0.500000 0.071654 0.500000
O O12 0.434217 0.118700 0.672750
O O13 0.430402 0.000000 0.500000
O O14 0.579192 0.246445 0.268058
O O15 0.623017 0.290616 0.000000
O O16 0.059047 0.329152 0.500000
O O17 0.000000 0.307580 0.259302
#
# Coordination Sequence:
#
# PCOD9517768 Si02
#       6
#    16  16  16   8  16  16
#     4   9  17  28  41  60  88 120 155 194 236 285
#     4   9  16  27  45  66  91 124 160 201 246 287
#     4  10  18  29  44  65  92 121 157 199 242 290
#     4   9  18  34  56  82 109 133 165 211 256 306
#     4   9  17  30  47  70  97 126 164 207 249 301
#     4   9  18  34  55  78 104 136 172 211 257 305
#
# _framework density 19.087926
#
# number of rings (size 3 to 8) (size 9 to 14) (size 15 to 20)
#    0.000    2.818    1.818    0.000    0.000    0.364 
#    3.273    2.727    0.000    3.818    0.000    3.818 
#    0.000    2.182    0.000    0.182    0.000    0.000 
#
# Total GULP energy -245341.543585 kJ/mol
# GULP energy per Si atom -5575.944172 kJ/mol
# Density = 1.904448 g / cm^3
# Si number density = 19.087926 Si / 1000 Ang^3
#
#
#
# Elastic Constant Matrix: (Units=GPa)
#
#
# Indices 1 2 3 4 5 6 
#
# 1 52.4164 62.8068 19.7064 0.0000 0.0000 0.0000
# 2 62.8068 212.0808 36.0757 0.0000 0.0000 0.0000
# 3 19.7064 36.0757 66.7229 0.0000 0.0000 0.0000
# 4 0.0000 0.0000 0.0000 13.0182 0.0000 0.0000
# 5 0.0000 0.0000 0.0000 0.0000 12.3419 0.0000
# 6 0.0000 0.0000 0.0000 0.0000 0.0000 28.8167
#
#
#
# Elastic Compliance Matrix: (Units=1/GPa)
#
#
# Indices 1 2 3 4 5 6 
#
# 1 0.030795 -0.008340 -0.004586 0.000000 0.000000 0.000000
# 2 -0.008340 0.007451 -0.001566 0.000000 0.000000 0.000000
# 3 -0.004586 -0.001566 0.017188 0.000000 0.000000 0.000000
# 4 0.000000 0.000000 0.000000 0.076815 0.000000 0.000000
# 5 0.000000 0.000000 0.000000 0.000000 0.081025 0.000000
# 6 0.000000 0.000000 0.000000 0.000000 0.000000 0.034702
#
#
# Mechanical properties :
#
#
# Convention : Reuss Voigt Hill
#
# Bulk Modulus (GPa) = 37.80468 63.15533 50.48001
# Shear Modulus (GPa) = 17.49613 25.01076 21.25345
#
# Velocity S-wave (km/s) = 3.03084 3.62372 3.34046
# Velocity P-wave (km/s) = 5.66538 7.11807 6.43286
#
# Compressibility (1/GPa) = 0.02645175
#
# Stress axis : x y z
#
# Youngs Moduli (GPa) = 32.47272 134.20530 58.17892
#
# Poissons Ratio (x) = 1.11923 0.26682
# Poissons Ratio (y) = 0.27081 0.09109
# Poissons Ratio (z) = 0.14892 0.21012
#
# Static dielectric constant tensor:
#      x y z
#    x 1.583690 0.000000 0.000000 
#    y 0.000000 1.687970 0.000000 
#    z 0.000000 0.000000 1.704570 
# 
# From -- ./inp_files/11356.got.cif
#   From: 2010.05.17/outbox.cif.g08.bks.cpg/sg71_6_cif.got.tgz:11356.got - 2010.06.03 16:22:01.
