data_PCOD9517388
_publ_section_title
;
Structure prediction by ZEFSAII (Michael W. Deem and Ramdas Pophale) SiO2 
 PCOD9517388
Probable space group: I M M M
;
_chemical_formula_sum "Si O2"
_cell_formula_units_Z 84
_cell_length_a 19.859349
_cell_length_b 11.726419
_cell_length_c 22.141908
_cell_angle_alpha 90.000000
_cell_angle_beta 90.000000
_cell_angle_gamma 90.000000
_cell_volume 5156.386444
_symmetry_space_group_name_H-M "I M M M"
_symmetry_group_IT_number 71
_symmetry_cell_setting 'orthorhombic'
loop_
_space_group_symop_operation_xyz
x,y,z
-x,-y,z
x,-y,-z
-x,y,-z
-x,-y,-z
x,y,-z
-x,y,z
x,-y,z
1/2+x,1/2+y,1/2+z
1/2-x,1/2-y,1/2+z
1/2+x,1/2-y,1/2-z
1/2-x,1/2+y,1/2-z
1/2-x,1/2-y,1/2-z
1/2+x,1/2+y,1/2-z
1/2-x,1/2+y,1/2+z
1/2+x,1/2-y,1/2+z
loop_
_atom_site_type_symbol
_atom_site_label
_atom_site_fract_x
_atom_site_fract_y
_atom_site_fract_z
Si Si1 0.396459 0.000000 0.000000
Si Si2 0.075787 0.234860 0.500000
Si Si3 0.658406 0.363531 0.112628
Si Si4 0.921893 0.636889 0.838824
Si Si5 0.193922 0.638470 0.930629
Si Si6 0.920952 0.500000 0.627353
Si Si7 0.921354 0.728641 0.705809
O O1 0.426952 0.872159 0.000000
O O2 0.371292 0.000000 0.930213
O O3 0.114428 0.191036 0.441063
O O4 0.000000 0.190228 0.500000
O O5 0.654183 0.500000 0.108676
O O6 0.735752 0.329149 0.100726
O O7 0.627955 0.318860 0.175201
O O8 0.914462 0.500000 0.828773
O O9 0.869901 0.672762 0.890518
O O10 0.908648 0.699929 0.775630
O O11 0.000000 0.656066 0.855713
O O12 0.193081 0.500000 0.932824
O O13 0.191950 0.678915 0.000000
O O14 0.913043 0.611571 0.668004
O O15 0.000000 0.500000 0.605598
O O16 0.000000 0.763119 0.699287
#
# Coordination Sequence:
#
# PCOD9517388 Si02
#       7
#     4   8  16  16  16   8  16
#     4  12  21  30  48  76  98 124 171 218 257 290
#     4  12  22  32  49  71  99 134 173 213 250 289
#     4  11  22  34  47  68 102 143 177 202 239 295
#     4   9  17  31  53  78 100 124 163 213 265 314
#     4   9  18  33  50  71 102 136 166 203 255 308
#     4  10  17  28  44  66  97 126 159 206 255 289
#     4  10  19  31  49  72  99 132 168 209 251 295
#
# _framework density 16.290478
#
# number of rings (size 3 to 8) (size 9 to 14) (size 15 to 20)
#    0.000    1.905    3.810    1.714    0.000    3.048 
#    0.000    1.905    0.000    0.000    0.000    0.000 
#    0.000    0.000    0.000    5.048    0.000    0.571 
#
# Total GULP energy -233983.772037 kJ/mol
# GULP energy per Si atom -5571.042191 kJ/mol
# Density = 1.625340 g / cm^3
# Si number density = 16.290478 Si / 1000 Ang^3
#
#
#
# Elastic Constant Matrix: (Units=GPa)
#
#
# Indices 1 2 3 4 5 6 
#
# 1 119.6823 32.7234 82.2805 0.0000 0.0000 0.0000
# 2 32.7234 50.7276 24.3383 0.0000 0.0000 0.0000
# 3 82.2805 24.3383 104.8115 0.0000 0.0000 0.0000
# 4 0.0000 0.0000 0.0000 17.1238 0.0000 0.0000
# 5 0.0000 0.0000 0.0000 0.0000 25.4867 0.0000
# 6 0.0000 0.0000 0.0000 0.0000 0.0000 12.2941
#
#
#
# Elastic Compliance Matrix: (Units=1/GPa)
#
#
# Indices 1 2 3 4 5 6 
#
# 1 0.019617 -0.005926 -0.014024 0.000000 0.000000 0.000000
# 2 -0.005926 0.023975 -0.000915 0.000000 0.000000 0.000000
# 3 -0.014024 -0.000915 0.020763 0.000000 0.000000 0.000000
# 4 0.000000 0.000000 0.000000 0.058398 0.000000 0.000000
# 5 0.000000 0.000000 0.000000 0.000000 0.039236 0.000000
# 6 0.000000 0.000000 0.000000 0.000000 0.000000 0.081340
#
#
# Mechanical properties :
#
#
# Convention : Reuss Voigt Hill
#
# Bulk Modulus (GPa) = 44.19980 61.54509 52.87244
# Shear Modulus (GPa) = 17.08812 20.03954 18.56383
#
# Velocity S-wave (km/s) = 3.24228 3.51114 3.37939
# Velocity P-wave (km/s) = 6.41933 7.36880 6.91039
#
# Compressibility (1/GPa) = 0.02262454
#
# Stress axis : x y z
#
# Youngs Moduli (GPa) = 50.97579 41.71008 48.16323
#
# Poissons Ratio (x) = 0.24718 0.67544
# Poissons Ratio (y) = 0.30209 0.04407
# Poissons Ratio (z) = 0.71488 0.03817
#
# Static dielectric constant tensor:
#      x y z
#    x 1.545210 0.000000 0.000000 
#    y 0.000000 1.532340 0.000000 
#    z 0.000000 0.000000 1.554620 
# 
# From -- ./inp_files/54862.got.cif
#   From: 2010.05.17/outbox.cif.g08.bks.cpg/sg71_28_cif.got.tgz:54862.got - 2010.06.03 16:22:01.
