data_PCOD9517094
_publ_section_title
;
Structure prediction by ZEFSAII (Michael W. Deem and Ramdas Pophale) SiO2 
 PCOD9517094
Probable space group: F D D D
;
_chemical_formula_sum "Si O2"
_cell_formula_units_Z 176
_cell_length_a 24.466144
_cell_length_b 25.386794
_cell_length_c 12.486120
_cell_angle_alpha 90.000000
_cell_angle_beta 90.000000
_cell_angle_gamma 90.000000
_cell_volume 7755.340868
_symmetry_space_group_name_H-M "F D D D"
_symmetry_group_IT_number 70
_space_group.IT_coordinate_system_code '2'
_symmetry_cell_setting 'orthorhombic'
loop_
_space_group_symop_operation_xyz
x,y,z
1/4-x,1/4-y,z
x,1/4-y,1/4-z
1/4-x,y,1/4-z
-x,-y,-z
3/4+x,3/4+y,-z
-x,3/4+y,3/4+z
3/4+x,-y,3/4+z
x,1/2+y,1/2+z
1/4-x,3/4-y,1/2+z
x,3/4-y,3/4-z
1/4-x,1/2+y,3/4-z
-x,1/2-y,1/2-z
3/4+x,1/4+y,1/2-z
-x,1/4+y,1/4+z
3/4+x,1/2-y,1/4+z
1/2+x,y,1/2+z
3/4-x,1/4-y,1/2+z
1/2+x,1/4-y,3/4-z
3/4-x,y,3/4-z
1/2-x,-y,1/2-z
1/4+x,3/4+y,1/2-z
1/2-x,3/4+y,1/4+z
1/4+x,-y,1/4+z
1/2+x,1/2+y,z
3/4-x,3/4-y,z
1/2+x,3/4-y,1/4-z
3/4-x,1/2+y,1/4-z
1/2-x,1/2-y,-z
1/4+x,1/4+y,-z
1/2-x,1/4+y,3/4+z
1/4+x,1/2-y,3/4+z
loop_
_atom_site_type_symbol
_atom_site_label
_atom_site_fract_x
_atom_site_fract_y
_atom_site_fract_z
Si Si1 0.257369 0.434747 0.533734
Si Si2 0.624616 0.186542 0.913951
Si Si3 0.701658 0.513126 0.667972
Si Si4 0.820374 0.966847 0.942677
Si Si5 0.759515 0.625000 0.125000
Si Si6 0.437353 0.645709 0.902364
O O1 0.310763 0.448638 0.604510
O O2 0.279646 0.441303 0.413322
O O3 0.211016 0.478494 0.547133
O O4 0.230198 0.380211 0.569259
O O5 0.625000 0.125000 0.942057
O O6 0.661102 0.196224 0.809347
O O7 0.650309 0.219685 0.010564
O O8 0.750000 0.500000 0.750000
O O9 0.692608 0.458886 0.603154
O O10 0.875000 0.972509 0.875000
O O11 0.780019 0.924971 0.888437
O O12 0.796033 0.624234 0.231403
O O13 0.375000 0.631826 0.875000
#
# Coordination Sequence:
#
# PCOD9517094 Si02
#       6
#    32  32  32  32  16  32
#     4  12  26  46  75 111 147 204 256 319 392 466
#     4  12  26  48  77 109 151 204 263 320 390 464
#     4  12  25  50  75 109 157 200 257 326 391 465
#     4  12  25  46  74 112 151 200 260 325 378 468
#     4  12  25  50  78 104 152 204 257 322 396 462
#     4  12  28  49  73 114 156 203 253 322 399 465
#
# _framework density 22.694037999999999
#
# number of rings (size 3 to 8) (size 9 to 14) (size 15 to 20)
#    0.000    0.000    3.636    6.818    0.000    9.455 
#    0.000    0.000    0.000    0.000    0.000    0.000 
#    0.000    0.000    0.000    0.000    0.000    0.000 
#
# Total GULP energy -246658.184531 kJ/mol
# GULP energy per Si atom -5605.867830 kJ/mol
# Density = 2.264239 g / cm^3
# Si number density = 22.694038 Si / 1000 Ang^3
#
#
#
# Elastic Constant Matrix: (Units=GPa)
#
#
# Indices 1 2 3 4 5 6 
#
# 1 167.2577 39.3087 64.0335 0.0000 0.0000 0.0000
# 2 39.3087 103.2358 46.7360 0.0000 0.0000 0.0000
# 3 64.0335 46.7360 129.1560 0.0000 0.0000 0.0000
# 4 0.0000 0.0000 0.0000 34.4826 0.0000 0.0000
# 5 0.0000 0.0000 0.0000 0.0000 52.4095 0.0000
# 6 0.0000 0.0000 0.0000 0.0000 0.0000 33.3380
#
#
#
# Elastic Compliance Matrix: (Units=1/GPa)
#
#
# Indices 1 2 3 4 5 6 
#
# 1 0.007548 -0.001411 -0.003231 0.000000 0.000000 0.000000
# 2 -0.001411 0.011848 -0.003588 0.000000 0.000000 0.000000
# 3 -0.003231 -0.003588 0.010643 0.000000 0.000000 0.000000
# 4 0.000000 0.000000 0.000000 0.029000 0.000000 0.000000
# 5 0.000000 0.000000 0.000000 0.000000 0.019081 0.000000
# 6 0.000000 0.000000 0.000000 0.000000 0.000000 0.029996
#
#
# Mechanical properties :
#
#
# Convention : Reuss Voigt Hill
#
# Bulk Modulus (GPa) = 73.64719 77.75621 75.70170
# Shear Modulus (GPa) = 38.72932 40.68410 39.70671
#
# Velocity S-wave (km/s) = 4.13557 4.23865 4.18742
# Velocity P-wave (km/s) = 7.43818 7.63492 7.53719
#
# Compressibility (1/GPa) = 0.01357825
#
# Stress axis : x y z
#
# Youngs Moduli (GPa) = 132.49411 84.40222 93.95943
#
# Poissons Ratio (x) = 0.11909 0.30362
# Poissons Ratio (y) = 0.18694 0.33710
# Poissons Ratio (z) = 0.42814 0.30282
#
# Static dielectric constant tensor:
#      x y z
#    x 1.849780 0.000000 0.000000 
#    y 0.000000 1.820300 0.000000 
#    z 0.000000 0.000000 1.837070 
# 
# From -- ./inp_files/20966.got.cif
#   From: 2010.05.17/outbox.cif.g08.bks.cpg/sg70_11_cif.got.tgz:20966.got - 2010.06.03 15:57:51.
