data_PCOD9517456
_publ_section_title
;
Structure prediction by ZEFSAII (Michael W. Deem and Ramdas Pophale) SiO2 
 PCOD9517456
Probable space group: I M M M
;
_chemical_formula_sum "Si O2"
_cell_formula_units_Z 120
_cell_length_a 16.137862
_cell_length_b 20.633771
_cell_length_c 17.799289
_cell_angle_alpha 90.000000
_cell_angle_beta 90.000000
_cell_angle_gamma 90.000000
_cell_volume 5926.895339
_symmetry_space_group_name_H-M "I M M M"
_symmetry_group_IT_number 71
_symmetry_cell_setting 'orthorhombic'
loop_
_space_group_symop_operation_xyz
x,y,z
-x,-y,z
x,-y,-z
-x,y,-z
-x,-y,-z
x,y,-z
-x,y,z
x,-y,z
1/2+x,1/2+y,1/2+z
1/2-x,1/2-y,1/2+z
1/2+x,1/2-y,1/2-z
1/2-x,1/2+y,1/2-z
1/2-x,1/2-y,1/2-z
1/2+x,1/2+y,1/2-z
1/2-x,1/2+y,1/2+z
1/2+x,1/2-y,1/2+z
loop_
_atom_site_type_symbol
_atom_site_label
_atom_site_fract_x
_atom_site_fract_y
_atom_site_fract_z
Si Si1 0.595177 0.575936 0.000000
Si Si2 0.676491 0.665887 0.707223
Si Si3 0.399958 0.075280 0.410481
Si Si4 0.591509 0.109924 0.089969
Si Si5 0.852340 0.757606 0.411403
Si Si6 0.909508 0.881255 0.654691
Si Si7 0.812322 0.303699 0.827494
Si Si8 0.732551 0.570219 0.410275
O O1 0.636250 0.593120 0.920241
O O2 0.586949 0.500000 0.000000
O O3 0.500000 0.604703 0.000000
O O4 0.629800 0.617795 0.764127
O O5 0.763367 0.676489 0.751621
O O6 0.638670 0.737607 0.693762
O O7 0.688348 0.629150 0.629866
O O8 0.381934 0.083233 0.500000
O O9 0.500000 0.079831 0.401541
O O10 0.357253 0.134163 0.363994
O O11 0.376385 0.000000 0.390379
O O12 0.500000 0.096658 0.121718
O O13 0.617986 0.184622 0.100089
O O14 0.671521 0.071076 0.116227
O O15 0.586004 0.098801 0.000000
O O16 0.858976 0.771199 0.500000
O O17 0.910391 0.805222 0.364753
O O18 0.760282 0.775743 0.382618
O O19 0.000000 0.911556 0.655896
O O20 0.732583 0.578981 0.500000
O O21 0.695965 0.500000 0.392762
#
# Coordination Sequence:
#
# PCOD9517456 Si02
#       8
#     8  16  16  16  16  16  16  16
#     4   9  18  34  54  78 112 150 184 224 290 370
#     4  10  22  37  55  85 116 152 198 253 295 350
#     4   9  19  37  61  90 124 162 204 250 301 358
#     4   9  17  29  50  81 111 143 186 235 288 342
#     4  10  17  29  53  83 112 145 185 230 280 341
#     4  10  20  34  55  83 114 147 184 232 290 350
#     4  10  20  35  56  80 116 158 194 238 297 349
#     4  10  21  38  58  79 109 155 200 245 302 354
#
# _framework density 20.246689
#
# number of rings (size 3 to 8) (size 9 to 14) (size 15 to 20)
#    0.000    2.333    2.000    1.200    0.000    2.933 
#    0.000    4.000    0.000    0.400    0.000    0.933 
#    0.000    0.000    0.000    0.000    0.000    0.000 
#
# Total GULP energy -334035.635784 kJ/mol
# GULP energy per Si atom -5567.260596 kJ/mol
# Density = 2.020061 g / cm^3
# Si number density = 20.246689 Si / 1000 Ang^3
#
#
#
# Elastic Constant Matrix: (Units=GPa)
#
#
# Indices 1 2 3 4 5 6 
#
# 1 25.7944 13.0042 17.6393 0.0000 0.0000 0.0000
# 2 13.0042 106.1974 43.6676 0.0000 0.0000 0.0000
# 3 17.6393 43.6676 61.9800 0.0001 0.0000 0.0000
# 4 0.0000 0.0000 0.0001 22.6247 0.0000 0.0000
# 5 0.0000 0.0000 0.0000 0.0000 16.6944 0.0000
# 6 0.0000 0.0000 0.0000 0.0000 0.0000 22.7448
#
#
#
# Elastic Compliance Matrix: (Units=1/GPa)
#
#
# Indices 1 2 3 4 5 6 
#
# 1 0.048147 -0.000368 -0.013443 0.000000 0.000000 0.000000
# 2 -0.000368 0.013260 -0.009237 0.000000 0.000000 0.000000
# 3 -0.013443 -0.009237 0.026468 0.000000 0.000000 0.000000
# 4 0.000000 0.000000 0.000000 0.044200 0.000000 0.000000
# 5 0.000000 0.000000 0.000000 0.000000 0.059900 0.000000
# 6 0.000000 0.000000 0.000000 0.000000 0.000000 0.043966
#
#
# Mechanical properties :
#
#
# Convention : Reuss Voigt Hill
#
# Bulk Modulus (GPa) = 23.93622 38.06600 31.00111
# Shear Modulus (GPa) = 16.89397 20.39014 18.64205
#
# Velocity S-wave (km/s) = 2.89174 3.17690 3.03767
# Velocity P-wave (km/s) = 4.79557 5.68321 5.25816
#
# Compressibility (1/GPa) = 0.04177768
#
# Stress axis : x y z
#
# Youngs Moduli (GPa) = 20.76991 75.41564 37.78111
#
# Poissons Ratio (x) = 0.02775 0.50789
# Poissons Ratio (y) = 0.00764 0.34900
# Poissons Ratio (z) = 0.27921 0.69664
#
# Static dielectric constant tensor:
#      x y z
#    x 1.808080 0.000000 0.000000 
#    y 0.000000 1.758210 0.000000 
#    z 0.000000 0.000000 1.752990 
# 
# From -- ./inp_files/46473.got.cif
#   From: 2010.05.17/outbox.cif.g08.bks.cpg/sg71_24_cif.got.tgz:46473.got - 2010.06.03 16:22:01.
