data_PCOD9517631
_publ_section_title
;
Structure prediction by ZEFSAII (Michael W. Deem and Ramdas Pophale) SiO2 
 PCOD9517631
Probable space group: I M M M
;
_chemical_formula_sum "Si O2"
_cell_formula_units_Z 72
_cell_length_a 15.255148
_cell_length_b 37.163466
_cell_length_c 7.623017
_cell_angle_alpha 90.000000
_cell_angle_beta 90.000000
_cell_angle_gamma 90.000000
_cell_volume 4321.748846
_symmetry_space_group_name_H-M "I M M M"
_symmetry_group_IT_number 71
_symmetry_cell_setting 'orthorhombic'
loop_
_space_group_symop_operation_xyz
x,y,z
-x,-y,z
x,-y,-z
-x,y,-z
-x,-y,-z
x,y,-z
-x,y,z
x,-y,z
1/2+x,1/2+y,1/2+z
1/2-x,1/2-y,1/2+z
1/2+x,1/2-y,1/2-z
1/2-x,1/2+y,1/2-z
1/2-x,1/2-y,1/2-z
1/2+x,1/2+y,1/2-z
1/2-x,1/2+y,1/2+z
1/2+x,1/2-y,1/2+z
loop_
_atom_site_type_symbol
_atom_site_label
_atom_site_fract_x
_atom_site_fract_y
_atom_site_fract_z
Si Si1 0.000000 0.726008 0.796593
Si Si2 0.893590 0.000000 0.201842
Si Si3 0.500000 0.691118 0.786373
Si Si4 0.823178 0.847564 0.289700
Si Si5 0.805875 0.286305 0.211780
Si Si6 0.600293 0.578249 0.710575
O O1 0.905621 0.714998 0.719512
O O2 0.000000 0.769052 0.786919
O O3 0.000000 0.714226 0.000000
O O4 0.871026 0.038949 0.279967
O O5 0.000000 0.000000 0.197303
O O6 0.861702 0.000000 0.000000
O O7 0.586381 0.670416 0.727847
O O8 0.500000 0.693130 0.000000
O O9 0.821611 0.844926 0.500000
O O10 0.745331 0.821881 0.224998
O O11 0.833228 0.889505 0.247820
O O12 0.750000 0.250000 0.250000
O O13 0.810760 0.287614 0.000000
O O14 0.594042 0.574961 0.500000
O O15 0.500000 0.586330 0.774116
#
# Coordination Sequence:
#
# PCOD9517631 Si02
#       6
#     8   8   8  16  16  16
#     4  10  20  32  46  62  79 104 145 186 212 244
#     4   7  12  24  39  57  81 108 135 164 200 237
#     4  10  18  28  42  59  83 112 138 171 216 252
#     4  10  19  29  40  58  85 112 137 168 209 249
#     4  10  20  32  45  61  82 109 141 178 215 250
#     4   9  16  26  42  61  82 109 140 170 198 236
#
# _framework density 16.659922999999999
#
# number of rings (size 3 to 8) (size 9 to 14) (size 15 to 20)
#    0.000    2.556    3.333    1.333    0.000    1.778 
#    0.000    0.556    0.000    2.000    0.000    0.000 
#    0.000    0.889    0.000   11.111    0.000    0.889 
#
# Total GULP energy -200511.576468 kJ/mol
# GULP energy per Si atom -5569.766013 kJ/mol
# Density = 1.662200 g / cm^3
# Si number density = 16.659923 Si / 1000 Ang^3
#
#
#
# Elastic Constant Matrix: (Units=GPa)
#
#
# Indices 1 2 3 4 5 6 
#
# 1 117.3614 72.9249 8.9672 0.0000 0.0030 -0.0007
# 2 72.9249 159.3576 0.3348 -0.0030 -0.0009 0.0033
# 3 8.9672 0.3348 33.2982 -0.0109 0.0120 0.0053
# 4 0.0000 -0.0030 -0.0109 13.9396 -0.0027 0.0019
# 5 0.0030 -0.0009 0.0120 -0.0027 2.8861 0.0018
# 6 -0.0007 0.0033 0.0053 0.0019 0.0018 11.8151
#
#
#
# Elastic Compliance Matrix: (Units=1/GPa)
#
#
# Indices 1 2 3 4 5 6 
#
# 1 0.012246 -0.005597 -0.003242 -0.000004 -0.000001 0.000004
# 2 -0.005597 0.008834 0.001419 0.000003 0.000003 -0.000003
# 3 -0.003242 0.001419 0.030890 0.000025 -0.000124 -0.000014
# 4 -0.000004 0.000003 0.000025 0.071738 0.000067 -0.000011
# 5 -0.000001 0.000003 -0.000124 0.000067 0.346494 -0.000054
# 6 0.000004 -0.000003 -0.000014 -0.000011 -0.000054 0.084637
#
#
# Mechanical properties :
#
#
# Convention : Reuss Voigt Hill
#
# Bulk Modulus (GPa) = 26.93279 52.71901 39.82590
# Shear Modulus (GPa) = 8.59022 20.91418 14.75220
#
# Velocity S-wave (km/s) = 2.27319 3.54695 2.97895
# Velocity P-wave (km/s) = 4.80533 6.96329 5.98241
#
# Compressibility (1/GPa) = 0.03712947
#
# Stress axis : x y z
#
# Youngs Moduli (GPa) = 81.65659 113.20327 32.37253
#
# Poissons Ratio (x) = 0.63364 0.10494
# Poissons Ratio (y) = 0.45706 -0.04592
# Poissons Ratio (z) = 0.26470 -0.16058
#
# Static dielectric constant tensor:
#      x y z
#    x 1.572770 0.000000 0.000000 
#    y 0.000000 1.598020 0.000000 
#    z 0.000000 0.000000 1.633040 
# 
# From -- ./inp_files/6582.got.cif
#   From: 2010.05.17/outbox.cif.g08.bks.cpg/sg71_4_cif.got.tgz:6582.got - 2010.06.03 16:22:01.
