data_PCOD9517271
_publ_section_title
;
Structure prediction by ZEFSAII (Michael W. Deem and Ramdas Pophale) SiO2 
 PCOD9517271
Probable space group: I M M M
;
_chemical_formula_sum "Si O2"
_cell_formula_units_Z 104
_cell_length_a 14.540109
_cell_length_b 16.303581
_cell_length_c 19.788378
_cell_angle_alpha 90.000000
_cell_angle_beta 90.000000
_cell_angle_gamma 90.000000
_cell_volume 4690.950665
_symmetry_space_group_name_H-M "I M M M"
_symmetry_group_IT_number 71
_symmetry_cell_setting 'orthorhombic'
loop_
_space_group_symop_operation_xyz
x,y,z
-x,-y,z
x,-y,-z
-x,y,-z
-x,-y,-z
x,y,-z
-x,y,z
x,-y,z
1/2+x,1/2+y,1/2+z
1/2-x,1/2-y,1/2+z
1/2+x,1/2-y,1/2-z
1/2-x,1/2+y,1/2-z
1/2-x,1/2-y,1/2-z
1/2+x,1/2+y,1/2-z
1/2-x,1/2+y,1/2+z
1/2+x,1/2-y,1/2+z
loop_
_atom_site_type_symbol
_atom_site_label
_atom_site_fract_x
_atom_site_fract_y
_atom_site_fract_z
Si Si1 0.602063 0.705301 0.309522
Si Si2 0.392985 0.000000 0.208117
Si Si3 0.139945 0.500000 0.867754
Si Si4 0.366319 0.829258 0.574894
Si Si5 0.388454 0.596481 0.574534
Si Si6 0.845807 0.000000 0.417606
Si Si7 0.143734 0.817835 0.423008
Si Si8 0.891619 0.315285 0.688726
O O1 0.500000 0.676264 0.287397
O O2 0.594569 0.772305 0.368018
O O3 0.648270 0.634977 0.355512
O O4 0.646222 0.754776 0.247651
O O5 0.355722 0.909393 0.186140
O O6 0.500000 0.000000 0.186405
O O7 0.386146 0.000000 0.289559
O O8 0.107059 0.420432 0.906192
O O9 0.250558 0.500000 0.876634
O O10 0.395426 0.807655 0.500000
O O11 0.255062 0.823139 0.578103
O O12 0.355241 0.626896 0.500000
O O13 0.500000 0.608229 0.575295
O O14 0.371452 0.500000 0.575735
O O15 0.889192 0.910374 0.402721
O O16 0.828362 0.000000 0.500000
O O17 0.114387 0.804656 0.500000
O O18 0.116600 0.740862 0.377477
O O19 0.000000 0.324695 0.705855
#
# Coordination Sequence:
#
# PCOD9517271 Si02
#       8
#    16   8   8  16  16   8  16  16
#     4  10  19  31  47  73 107 141 178 218 260 310
#     4  10  20  36  53  73 109 148 179 221 273 314
#     4  10  16  30  50  75 104 145 176 205 249 318
#     4  10  19  31  52  79 107 139 177 218 260 309
#     4   8  14  26  44  63  89 132 178 212 246 294
#     4   8  16  34  57  81 109 137 167 212 270 325
#     4   9  19  37  59  80 105 135 172 221 274 328
#     4  10  21  37  56  77 105 141 178 222 274 324
#
# _framework density 22.170347
#
# number of rings (size 3 to 8) (size 9 to 14) (size 15 to 20)
#    0.000    2.615    1.538    2.538    0.000    1.846 
#    1.385    0.769    1.692    5.308    0.000    0.000 
#    0.000    0.000    0.000    0.000    0.000    0.000 
#
# Total GULP energy -289725.196523 kJ/mol
# GULP energy per Si atom -5571.638395 kJ/mol
# Density = 2.211989 g / cm^3
# Si number density = 22.170347 Si / 1000 Ang^3
#
#
#
# Elastic Constant Matrix: (Units=GPa)
#
#
# Indices 1 2 3 4 5 6 
#
# 1 69.9855 1.6712 -2.2209 0.0000 0.0000 0.0000
# 2 1.6712 169.0934 74.1765 0.0000 0.0000 0.0000
# 3 -2.2209 74.1765 94.8913 0.0000 0.0000 0.0000
# 4 0.0000 0.0000 0.0000 32.8341 0.0000 0.0000
# 5 0.0000 0.0000 0.0000 0.0000 12.6028 0.0000
# 6 0.0000 0.0000 0.0000 0.0000 0.0000 26.6889
#
#
#
# Elastic Compliance Matrix: (Units=1/GPa)
#
#
# Indices 1 2 3 4 5 6 
#
# 1 0.014321 -0.000439 0.000678 0.000000 0.000000 0.000000
# 2 -0.000439 0.009014 -0.007056 0.000000 0.000000 0.000000
# 3 0.000678 -0.007056 0.016070 0.000000 0.000000 0.000000
# 4 0.000000 0.000000 0.000000 0.030456 0.000000 0.000000
# 5 0.000000 0.000000 0.000000 0.000000 0.079347 0.000000
# 6 0.000000 0.000000 0.000000 0.000000 0.000000 0.037469
#
#
# Mechanical properties :
#
#
# Convention : Reuss Voigt Hill
#
# Bulk Modulus (GPa) = 38.80395 53.46931 46.13663
# Shear Modulus (GPa) = 23.93482 31.78138 27.85810
#
# Velocity S-wave (km/s) = 3.28927 3.79028 3.54863
# Velocity P-wave (km/s) = 5.65388 6.58216 6.13560
#
# Compressibility (1/GPa) = 0.02577057
#
# Stress axis : x y z
#
# Youngs Moduli (GPa) = 69.82901 110.94358 62.22740
#
# Poissons Ratio (x) = 0.04872 -0.04222
# Poissons Ratio (y) = 0.03067 0.43909
# Poissons Ratio (z) = -0.04738 0.78284
#
# Static dielectric constant tensor:
#      x y z
#    x 2.209050 0.000000 0.000000 
#    y 0.000000 1.927360 0.000000 
#    z 0.000000 0.000000 1.782830 
# 
# From -- ./inp_files/47357.got.cif
#   From: 2010.05.17/outbox.cif.g08.bks.cpg/sg71_24_cif.got.tgz:47357.got - 2010.06.03 16:22:01.
