data_PCOD9517063
_publ_section_title
;
Structure prediction by ZEFSAII (Michael W. Deem and Ramdas Pophale) SiO2 
 PCOD9517063
Probable space group: F D D D
;
_chemical_formula_sum "Si O2"
_cell_formula_units_Z 176
_cell_length_a 29.491670
_cell_length_b 23.643402
_cell_length_c 11.280591
_cell_angle_alpha 90.000000
_cell_angle_beta 90.000000
_cell_angle_gamma 90.000000
_cell_volume 7865.768953
_symmetry_space_group_name_H-M "F D D D"
_symmetry_group_IT_number 70
_space_group.IT_coordinate_system_code '2'
_symmetry_cell_setting 'orthorhombic'
loop_
_space_group_symop_operation_xyz
x,y,z
1/4-x,1/4-y,z
x,1/4-y,1/4-z
1/4-x,y,1/4-z
-x,-y,-z
3/4+x,3/4+y,-z
-x,3/4+y,3/4+z
3/4+x,-y,3/4+z
x,1/2+y,1/2+z
1/4-x,3/4-y,1/2+z
x,3/4-y,3/4-z
1/4-x,1/2+y,3/4-z
-x,1/2-y,1/2-z
3/4+x,1/4+y,1/2-z
-x,1/4+y,1/4+z
3/4+x,1/2-y,1/4+z
1/2+x,y,1/2+z
3/4-x,1/4-y,1/2+z
1/2+x,1/4-y,3/4-z
3/4-x,y,3/4-z
1/2-x,-y,1/2-z
1/4+x,3/4+y,1/2-z
1/2-x,3/4+y,1/4+z
1/4+x,-y,1/4+z
1/2+x,1/2+y,z
3/4-x,3/4-y,z
1/2+x,3/4-y,1/4-z
3/4-x,1/2+y,1/4-z
1/2-x,1/2-y,-z
1/4+x,1/4+y,-z
1/2-x,1/4+y,3/4+z
1/4+x,1/2-y,3/4+z
loop_
_atom_site_type_symbol
_atom_site_label
_atom_site_fract_x
_atom_site_fract_y
_atom_site_fract_z
Si Si1 0.871786 0.125000 0.125000
Si Si2 0.488161 0.594807 0.314509
Si Si3 0.924534 0.685608 0.917482
Si Si4 0.836857 0.019269 0.474767
Si Si5 0.577241 0.657426 0.363947
Si Si6 0.721714 0.713124 0.095559
O O1 0.837808 0.147516 0.223620
O O2 0.898293 0.070892 0.184177
O O3 0.453735 0.647779 0.327108
O O4 0.457272 0.541220 0.347337
O O5 0.533874 0.615209 0.381352
O O6 0.501155 0.577301 0.181583
O O7 0.875000 0.702781 0.875000
O O8 0.951198 0.742321 0.937674
O O9 0.875000 0.011407 0.375000
O O10 0.828018 0.961776 0.548357
O O11 0.625000 0.625000 0.369914
O O12 0.566137 0.682079 0.232898
O O13 0.750000 0.750000 0.000000
#
# Coordination Sequence:
#
# PCOD9517063 Si02
#       6
#    16  32  32  32  32  32
#     4  12  24  44  78 108 150 190 268 302 376 462
#     4  12  24  48  74 115 151 197 252 315 383 449
#     4  12  25  43  73 111 140 198 253 305 374 456
#     4  12  26  51  80 110 156 207 252 321 390 456
#     4  12  30  48  74 115 157 200 250 319 393 458
#     4  12  26  44  77 109 154 192 249 316 389 447
#
# _framework density 22.375433999999998
#
# number of rings (size 3 to 8) (size 9 to 14) (size 15 to 20)
#    0.000    0.000    7.273    1.636    7.636    1.091 
#    0.000    5.455    0.000    0.000    0.000    0.000 
#    0.000    0.000    0.000    0.000    0.000    0.000 
#
# Total GULP energy -245454.115199 kJ/mol
# GULP energy per Si atom -5578.502618 kJ/mol
# Density = 2.232451 g / cm^3
# Si number density = 22.375434 Si / 1000 Ang^3
#
#
#
# Elastic Constant Matrix: (Units=GPa)
#
#
# Indices 1 2 3 4 5 6 
#
# 1 166.5985 84.4750 38.2157 0.0000 0.0000 0.0000
# 2 84.4750 118.8123 43.9311 -0.0001 0.0000 0.0000
# 3 38.2157 43.9311 66.9508 -0.0003 0.0001 0.0000
# 4 0.0000 -0.0001 -0.0003 19.0271 0.0000 0.0000
# 5 0.0000 0.0000 0.0001 0.0000 38.1700 0.0000
# 6 0.0000 0.0000 0.0000 0.0000 0.0000 36.7437
#
#
#
# Elastic Compliance Matrix: (Units=1/GPa)
#
#
# Indices 1 2 3 4 5 6 
#
# 1 0.009472 -0.006252 -0.001304 0.000000 0.000000 0.000000
# 2 -0.006252 0.015240 -0.006431 0.000000 0.000000 0.000000
# 3 -0.001304 -0.006431 0.019901 0.000000 0.000000 0.000000
# 4 0.000000 0.000000 0.000000 0.052557 0.000000 0.000000
# 5 0.000000 0.000000 0.000000 0.000000 0.026199 0.000000
# 6 0.000000 0.000000 0.000000 0.000000 0.000000 0.027216
#
#
# Mechanical properties :
#
#
# Convention : Reuss Voigt Hill
#
# Bulk Modulus (GPa) = 60.10523 76.17836 68.14179
# Shear Modulus (GPa) = 27.15862 31.17083 29.16472
#
# Velocity S-wave (km/s) = 3.48770 3.73645 3.61422
# Velocity P-wave (km/s) = 6.56804 7.26183 6.92363
#
# Compressibility (1/GPa) = 0.01663749
#
# Stress axis : x y z
#
# Youngs Moduli (GPa) = 105.57613 65.61723 50.24977
#
# Poissons Ratio (x) = 0.41026 0.06553
# Poissons Ratio (y) = 0.66009 0.32316
# Poissons Ratio (z) = 0.13767 0.42199
#
# Static dielectric constant tensor:
#      x y z
#    x 1.861990 0.000000 0.000000 
#    y 0.000000 1.847910 0.000000 
#    z 0.000000 0.000000 1.809280 
# 
# From -- ./inp_files/20990.got.cif
#   From: 2010.05.17/outbox.cif.g08.bks.cpg/sg70_11_cif.got.tgz:20990.got - 2010.06.03 15:57:51.
