data_PCOD9517762
_publ_section_title
;
Structure prediction by ZEFSAII (Michael W. Deem and Ramdas Pophale) SiO2 
 PCOD9517762
Probable space group: I M M M
;
_chemical_formula_sum "Si O2"
_cell_formula_units_Z 88
_cell_length_a 20.607558
_cell_length_b 7.603582
_cell_length_c 31.779677
_cell_angle_alpha 90.000000
_cell_angle_beta 90.000000
_cell_angle_gamma 90.000000
_cell_volume 4979.597538
_symmetry_space_group_name_H-M "I M M M"
_symmetry_group_IT_number 71
_symmetry_cell_setting 'orthorhombic'
loop_
_space_group_symop_operation_xyz
x,y,z
-x,-y,z
x,-y,-z
-x,y,-z
-x,-y,-z
x,y,-z
-x,y,z
x,-y,z
1/2+x,1/2+y,1/2+z
1/2-x,1/2-y,1/2+z
1/2+x,1/2-y,1/2-z
1/2-x,1/2+y,1/2-z
1/2-x,1/2-y,1/2-z
1/2+x,1/2+y,1/2-z
1/2-x,1/2+y,1/2+z
1/2+x,1/2-y,1/2+z
loop_
_atom_site_type_symbol
_atom_site_label
_atom_site_fract_x
_atom_site_fract_y
_atom_site_fract_z
Si Si1 0.854406 0.791821 0.047445
Si Si2 0.928605 0.287782 0.170316
Si Si3 0.500000 0.200438 0.448979
Si Si4 0.788429 0.712242 0.293344
Si Si5 0.429293 0.786538 0.230299
Si Si6 0.705126 0.702415 0.629264
O O1 0.929526 0.774764 0.062063
O O2 0.806515 0.717070 0.083038
O O3 0.842038 0.000000 0.044911
O O4 0.848726 0.718424 0.000000
O O5 0.923721 0.500000 0.166161
O O6 0.926029 0.246451 0.219985
O O7 0.866863 0.204286 0.148877
O O8 0.000000 0.234627 0.154381
O O9 0.500000 0.208175 0.500000
O O10 0.500000 0.000000 0.434517
O O11 0.789748 0.500000 0.296219
O O12 0.750000 0.750000 0.250000
O O13 0.862553 0.776645 0.290172
O O14 0.751094 0.781128 0.334644
O O15 0.500000 0.725205 0.214535
O O16 0.429340 0.000000 0.227212
O O17 0.726060 0.500000 0.623346
#
# Coordination Sequence:
#
# PCOD9517762 Si02
#       6
#    16  16   8  16  16  16
#     4   9  18  32  44  54  77 111 140 168 210 255
#     4   9  17  28  41  58  80 110 144 169 198 244
#     4   9  17  29  45  63  79  99 137 185 219 241
#     4  10  18  29  44  62  85 107 133 169 204 242
#     4   8  14  26  43  59  78 107 137 162 193 239
#     4  10  20  29  41  62  81 104 139 177 210 241
#
# _framework density 17.67211
#
# number of rings (size 3 to 8) (size 9 to 14) (size 15 to 20)
#    0.000    2.818    1.818    1.364    1.273    2.182 
#    0.000    0.000    0.000    0.545    0.000    0.000 
#    0.000    0.727    0.000   10.182    0.000    0.000 
#
# Total GULP energy -245206.692154 kJ/mol
# GULP energy per Si atom -5572.879367 kJ/mol
# Density = 1.763189 g / cm^3
# Si number density = 17.672110 Si / 1000 Ang^3
#
#
#
# Elastic Constant Matrix: (Units=GPa)
#
#
# Indices 1 2 3 4 5 6 
#
# 1 121.0280 1.4287 70.5032 0.0000 0.0000 0.0000
# 2 1.4287 36.3783 4.2060 0.0000 0.0000 0.0000
# 3 70.5032 4.2060 113.2863 0.0000 0.0000 0.0000
# 4 0.0000 0.0000 0.0000 5.6827 0.0000 0.0000
# 5 0.0000 0.0000 0.0000 0.0000 33.3252 0.0000
# 6 0.0000 0.0000 0.0000 0.0000 0.0000 4.6425
#
#
#
# Elastic Compliance Matrix: (Units=1/GPa)
#
#
# Indices 1 2 3 4 5 6 
#
# 1 0.012968 0.000426 -0.008087 0.000000 0.000000 0.000000
# 2 0.000426 0.027621 -0.001290 0.000000 0.000000 0.000000
# 3 -0.008087 -0.001290 0.013908 0.000000 0.000000 0.000000
# 4 0.000000 0.000000 0.000000 0.175974 0.000000 0.000000
# 5 0.000000 0.000000 0.000000 0.000000 0.030007 0.000000
# 6 0.000000 0.000000 0.000000 0.000000 0.000000 0.215403
#
#
# Mechanical properties :
#
#
# Convention : Reuss Voigt Hill
#
# Bulk Modulus (GPa) = 27.32635 46.99652 37.16143
# Shear Modulus (GPa) = 9.88177 21.70037 15.79107
#
# Velocity S-wave (km/s) = 2.36725 3.50801 2.99249
# Velocity P-wave (km/s) = 4.79253 6.56197 5.74577
#
# Compressibility (1/GPa) = 0.03659472
#
# Stress axis : x y z
#
# Youngs Moduli (GPa) = 77.11159 36.20386 71.90258
#
# Poissons Ratio (x) = -0.01541 0.58144
# Poissons Ratio (y) = -0.03282 0.09278
# Poissons Ratio (z) = 0.62356 0.04672
#
# Static dielectric constant tensor:
#      x y z
#    x 1.613580 0.000000 0.000000 
#    y 0.000000 1.689900 0.000000 
#    z 0.000000 0.000000 1.659260 
# 
# From -- ./inp_files/11325.got.cif
#   From: 2010.05.17/outbox.cif.g08.bks.cpg/sg71_6_cif.got.tgz:11325.got - 2010.06.03 16:22:01.
