data_PCOD9517610
_publ_section_title
;
Structure prediction by ZEFSAII (Michael W. Deem and Ramdas Pophale) SiO2 
 PCOD9517610
Probable space group: I M M M
;
_chemical_formula_sum "Si O2"
_cell_formula_units_Z 80
_cell_length_a 7.375278
_cell_length_b 22.278515
_cell_length_c 20.137329
_cell_angle_alpha 90.000000
_cell_angle_beta 90.000000
_cell_angle_gamma 90.000000
_cell_volume 3308.769392
_symmetry_space_group_name_H-M "I M M M"
_symmetry_group_IT_number 71
_symmetry_cell_setting 'orthorhombic'
loop_
_space_group_symop_operation_xyz
x,y,z
-x,-y,z
x,-y,-z
-x,y,-z
-x,-y,-z
x,y,-z
-x,y,z
x,-y,z
1/2+x,1/2+y,1/2+z
1/2-x,1/2-y,1/2+z
1/2+x,1/2-y,1/2-z
1/2-x,1/2+y,1/2-z
1/2-x,1/2-y,1/2-z
1/2+x,1/2+y,1/2-z
1/2-x,1/2+y,1/2+z
1/2+x,1/2-y,1/2+z
loop_
_atom_site_type_symbol
_atom_site_label
_atom_site_fract_x
_atom_site_fract_y
_atom_site_fract_z
Si Si1 0.279182 0.433663 0.924901
Si Si2 0.220962 0.898199 0.072126
Si Si3 0.716002 0.740996 0.573319
Si Si4 0.283743 0.662224 0.179611
Si Si5 0.278374 0.566179 0.284162
O O1 0.500000 0.432408 0.924054
O O2 0.224835 0.500000 0.903714
O O3 0.215325 0.382337 0.877510
O O4 0.220983 0.424400 0.000000
O O5 0.274651 0.828160 0.076396
O O6 0.278998 0.929761 0.139372
O O7 0.000000 0.900060 0.072361
O O8 0.279015 0.921657 0.000000
O O9 0.782491 0.765623 0.500000
O O10 0.500000 0.741306 0.568652
O O11 0.752564 0.774013 0.643590
O O12 0.500000 0.660048 0.185616
O O13 0.218318 0.626870 0.245482
O O14 0.500000 0.566545 0.281877
O O15 0.225099 0.500000 0.257089
#
# Coordination Sequence:
#
# PCOD9517610 Si02
#       5
#    16  16  16  16  16
#     4   8  13  21  34  53  78 110 146 180 216 260
#     4   8  15  29  47  66  91 124 159 194 235 283
#     4   9  18  32  48  66  92 128 165 196 228 272
#     4  10  18  27  43  69  98 123 150 190 237 281
#     4   9  17  28  44  69  97 122 153 196 241 282
#
# _framework density 24.178173999999999
#
# number of rings (size 3 to 8) (size 9 to 14) (size 15 to 20)
#    0.000    3.200    0.000    3.000    0.000    4.800 
#    0.000    2.000    0.000    2.400    0.000    7.000 
#    0.000    0.000    0.000    6.200    0.000    6.400 
#
# Total GULP energy -222852.718393 kJ/mol
# GULP energy per Si atom -5571.317960 kJ/mol
# Density = 2.412314 g / cm^3
# Si number density = 24.178174 Si / 1000 Ang^3
#
#
#
# Elastic Constant Matrix: (Units=GPa)
#
#
# Indices 1 2 3 4 5 6 
#
# 1 83.6970 -0.8324 3.8099 0.0000 0.0000 0.0000
# 2 -0.8324 66.7972 45.4282 0.0000 0.0000 0.0000
# 3 3.8099 45.4282 142.2721 0.0000 0.0000 0.0000
# 4 0.0000 0.0000 0.0000 39.4177 0.0000 0.0000
# 5 0.0000 0.0000 0.0000 0.0000 0.8525 0.0000
# 6 0.0000 0.0000 0.0000 0.0000 0.0000 8.2298
#
#
#
# Elastic Compliance Matrix: (Units=1/GPa)
#
#
# Indices 1 2 3 4 5 6 
#
# 1 0.011974 0.000469 -0.000470 0.000000 0.000000 0.000000
# 2 0.000469 0.019142 -0.006125 0.000000 0.000000 0.000000
# 3 -0.000470 -0.006125 0.008997 0.000000 0.000000 0.000000
# 4 0.000000 0.000000 0.000000 0.025369 0.000000 0.000000
# 5 0.000000 0.000000 0.000000 0.000000 1.172969 0.000000
# 6 0.000000 0.000000 0.000000 0.000000 0.000000 0.121509
#
#
# Mechanical properties :
#
#
# Convention : Reuss Voigt Hill
#
# Bulk Modulus (GPa) = 35.89255 43.28640 39.58947
# Shear Modulus (GPa) = 3.61926 25.99073 14.80499
#
# Velocity S-wave (km/s) = 1.22481 3.28223 2.47721
# Velocity P-wave (km/s) = 4.10822 5.68383 4.95900
#
# Compressibility (1/GPa) = 0.02786094
#
# Stress axis : x y z
#
# Youngs Moduli (GPa) = 83.51465 52.24155 111.14797
#
# Poissons Ratio (x) = -0.02451 0.05229
# Poissons Ratio (y) = -0.03918 0.68074
# Poissons Ratio (z) = 0.03929 0.31996
#
# Static dielectric constant tensor:
#      x y z
#    x 1.959990 0.000000 0.000000 
#    y 0.000000 1.945400 0.000000 
#    z 0.000000 0.000000 1.954530 
# 
# From -- ./inp_files/42232.got.cif
#   From: 2010.05.17/outbox.cif.g08.bks.cpg/sg71_22_cif.got.tgz:42232.got - 2010.06.03 16:22:01.
