data_PCOD9517079
_publ_section_title
;
Structure prediction by ZEFSAII (Michael W. Deem and Ramdas Pophale) SiO2 
 PCOD9517079
Probable space group: F D D D
;
_chemical_formula_sum "Si O2"
_cell_formula_units_Z 88
_cell_length_a 4.746077
_cell_length_b 43.319626
_cell_length_c 17.394399
_cell_angle_alpha 90.000000
_cell_angle_beta 90.000000
_cell_angle_gamma 90.000000
_cell_volume 3576.258527
_symmetry_space_group_name_H-M "F D D D"
_symmetry_group_IT_number 70
_space_group.IT_coordinate_system_code '2'
_symmetry_cell_setting 'orthorhombic'
loop_
_space_group_symop_operation_xyz
x,y,z
1/4-x,1/4-y,z
x,1/4-y,1/4-z
1/4-x,y,1/4-z
-x,-y,-z
3/4+x,3/4+y,-z
-x,3/4+y,3/4+z
3/4+x,-y,3/4+z
x,1/2+y,1/2+z
1/4-x,3/4-y,1/2+z
x,3/4-y,3/4-z
1/4-x,1/2+y,3/4-z
-x,1/2-y,1/2-z
3/4+x,1/4+y,1/2-z
-x,1/4+y,1/4+z
3/4+x,1/2-y,1/4+z
1/2+x,y,1/2+z
3/4-x,1/4-y,1/2+z
1/2+x,1/4-y,3/4-z
3/4-x,y,3/4-z
1/2-x,-y,1/2-z
1/4+x,3/4+y,1/2-z
1/2-x,3/4+y,1/4+z
1/4+x,-y,1/4+z
1/2+x,1/2+y,z
3/4-x,3/4-y,z
1/2+x,3/4-y,1/4-z
3/4-x,1/2+y,1/4-z
1/2-x,1/2-y,-z
1/4+x,1/4+y,-z
1/2-x,1/4+y,3/4+z
1/4+x,1/2-y,3/4+z
loop_
_atom_site_type_symbol
_atom_site_label
_atom_site_fract_x
_atom_site_fract_y
_atom_site_fract_z
Si Si1 0.125000 0.855093 0.625000
Si Si2 0.997085 0.574532 0.006634
Si Si3 0.742878 0.716761 0.038877
Si Si4 0.875000 0.875000 0.375000
O O1 0.375000 0.875000 0.583536
O O2 0.322989 0.837497 0.685398
O O3 0.201707 0.548310 0.040196
O O4 0.957770 0.601913 0.068622
O O5 0.707665 0.556856 0.991740
O O6 0.625000 0.718790 0.125000
O O7 0.750000 0.750000 0.000000
#
# Coordination Sequence:
#
# PCOD9517079 Si02
#       4
#    16  32  32   8
#     4  12  26  46  72 119 158 198 242 313 400 479
#     4  12  27  47  79 111 157 201 256 323 395 472
#     4  12  27  51  75 109 147 206 267 320 387 456
#     4  12  24  50  80 112 156 196 264 318 392 478
#
# _framework density 24.606721
#
# number of rings (size 3 to 8) (size 9 to 14) (size 15 to 20)
#    0.000    0.000    5.455    3.273    2.545    1.455 
#    0.000    0.000    0.000    0.000    0.000    0.000 
#    0.000    0.000    0.000    0.000    0.000    0.000 
#
# Total GULP energy -123240.152558 kJ/mol
# GULP energy per Si atom -5601.825116 kJ/mol
# Density = 2.455072 g / cm^3
# Si number density = 24.606721 Si / 1000 Ang^3
#
#
#
# Elastic Constant Matrix: (Units=GPa)
#
#
# Indices 1 2 3 4 5 6 
#
# 1 149.6168 39.3799 14.6441 0.0000 0.0000 0.0000
# 2 39.3799 161.6375 39.0734 0.0000 0.0000 0.0000
# 3 14.6441 39.0734 111.8617 0.0000 0.0000 0.0000
# 4 0.0000 0.0000 0.0000 25.3455 0.0000 0.0000
# 5 0.0000 0.0000 0.0000 0.0000 41.1929 0.0000
# 6 0.0000 0.0000 0.0000 0.0000 0.0000 20.1303
#
#
#
# Elastic Compliance Matrix: (Units=1/GPa)
#
#
# Indices 1 2 3 4 5 6 
#
# 1 0.007155 -0.001657 -0.000358 0.000000 0.000000 0.000000
# 2 -0.001657 0.007141 -0.002277 0.000000 0.000000 0.000000
# 3 -0.000358 -0.002277 0.009782 0.000000 0.000000 0.000000
# 4 0.000000 0.000000 0.000000 0.039455 0.000000 0.000000
# 5 0.000000 0.000000 0.000000 0.000000 0.024276 0.000000
# 6 0.000000 0.000000 0.000000 0.000000 0.000000 0.049676
#
#
# Mechanical properties :
#
#
# Convention : Reuss Voigt Hill
#
# Bulk Modulus (GPa) = 64.54295 67.70121 66.12208
# Shear Modulus (GPa) = 33.06150 39.33497 36.19823
#
# Velocity S-wave (km/s) = 3.66949 4.00252 3.83962
# Velocity P-wave (km/s) = 6.65133 6.99523 6.82545
#
# Compressibility (1/GPa) = 0.01549356
#
# Stress axis : x y z
#
# Youngs Moduli (GPa) = 139.76618 140.04011 102.22876
#
# Poissons Ratio (x) = 0.23199 0.03660
# Poissons Ratio (y) = 0.23154 0.23282
# Poissons Ratio (z) = 0.05004 0.31893
#
# Static dielectric constant tensor:
#      x y z
#    x 1.984480 0.000000 0.000000 
#    y 0.000000 1.987890 0.000000 
#    z 0.000000 0.000000 2.023910 
# 
# From -- ./inp_files/48362.got.cif
#   From: 2010.05.17/outbox.cif.g08.bks.cpg/sg70_25_cif.got.tgz:48362.got - 2010.06.03 15:57:51.
