data_PCOD9517215
_publ_section_title
;
Structure prediction by ZEFSAII (Michael W. Deem and Ramdas Pophale) SiO2 
 PCOD9517215
Probable space group: I M M M
;
_chemical_formula_sum "Si O2"
_cell_formula_units_Z 56
_cell_length_a 28.617868
_cell_length_b 20.906227
_cell_length_c 5.219655
_cell_angle_alpha 90.000000
_cell_angle_beta 90.000000
_cell_angle_gamma 90.000000
_cell_volume 3122.875975
_symmetry_space_group_name_H-M "I M M M"
_symmetry_group_IT_number 71
_symmetry_cell_setting 'orthorhombic'
loop_
_space_group_symop_operation_xyz
x,y,z
-x,-y,z
x,-y,-z
-x,y,-z
-x,-y,-z
x,y,-z
-x,y,z
x,-y,z
1/2+x,1/2+y,1/2+z
1/2-x,1/2-y,1/2+z
1/2+x,1/2-y,1/2-z
1/2-x,1/2+y,1/2-z
1/2-x,1/2-y,1/2-z
1/2+x,1/2+y,1/2-z
1/2-x,1/2+y,1/2+z
1/2+x,1/2-y,1/2+z
loop_
_atom_site_type_symbol
_atom_site_label
_atom_site_fract_x
_atom_site_fract_y
_atom_site_fract_z
Si Si1 0.906241 0.702987 0.500000
Si Si2 0.190019 0.604329 0.000000
Si Si3 0.269496 0.500000 0.000000
Si Si4 0.553238 0.333401 0.000000
Si Si5 0.385854 0.366331 0.500000
Si Si6 0.154559 0.264589 0.000000
Si Si7 0.166435 0.000000 0.000000
Si Si8 0.372262 0.927325 0.000000
O O1 0.946424 0.755630 0.500000
O O2 0.875465 0.718489 0.250511
O O3 0.912512 0.626793 0.500000
O O4 0.195479 0.681990 0.000000
O O5 0.160082 0.584618 0.749531
O O6 0.236631 0.562691 0.000000
O O7 0.301250 0.500000 0.250226
O O8 0.581980 0.355103 0.250252
O O9 0.500000 0.356601 0.000000
O O10 0.344211 0.312514 0.500000
O O11 0.364656 0.436425 0.500000
O O12 0.388954 0.000000 0.000000
#
# Coordination Sequence:
#
# PCOD9517215 Si02
#       8
#     8   8   4   8   8   8   4   8
#     4   8  16  26  46  76 104 131 165 203 254 303
#     4  10  18  30  49  76 102 131 180 225 243 276
#     4  12  22  36  52  78 105 140 177 220 256 294
#     4  10  19  36  61  83 101 127 169 219 257 305
#     4  10  21  40  56  78 106 138 169 202 261 331
#     4   8  16  31  52  71 100 135 169 209 248 297
#     4  12  26  40  55  72 106 144 168 208 275 328
#     4  10  15  26  45  73 106 140 171 210 247 290
#
# _framework density 17.932186999999999
#
# number of rings (size 3 to 8) (size 9 to 14) (size 15 to 20)
#    0.000    2.286    1.429    2.143    0.000    0.000 
#    0.000    3.571    0.000    0.429    0.000    0.000 
#    0.000   13.714    0.000    0.000    0.000    2.286 
#
# Total GULP energy -155911.208227 kJ/mol
# GULP energy per Si atom -5568.257437 kJ/mol
# Density = 1.789137 g / cm^3
# Si number density = 17.932187 Si / 1000 Ang^3
#
#
#
# Elastic Constant Matrix: (Units=GPa)
#
#
# Indices 1 2 3 4 5 6 
#
# 1 75.6708 61.4440 35.3281 0.0000 0.0000 0.0000
# 2 61.4440 192.8729 27.5295 0.0000 0.0000 0.0000
# 3 35.3281 27.5295 155.0969 0.0000 0.0000 0.0000
# 4 0.0000 0.0000 0.0000 12.9013 0.0000 0.0000
# 5 0.0000 0.0000 0.0000 0.0000 15.4961 0.0000
# 6 0.0000 0.0000 0.0000 0.0000 0.0000 22.2043
#
#
#
# Elastic Compliance Matrix: (Units=1/GPa)
#
#
# Indices 1 2 3 4 5 6 
#
# 1 0.019444 -0.005707 -0.003416 0.000000 0.000000 0.000000
# 2 -0.005707 0.006994 0.000058 0.000000 0.000000 0.000000
# 3 -0.003416 0.000058 0.007215 0.000000 0.000000 0.000000
# 4 0.000000 0.000000 0.000000 0.077511 0.000000 0.000000
# 5 0.000000 0.000000 0.000000 0.000000 0.064532 0.000000
# 6 0.000000 0.000000 0.000000 0.000000 0.000000 0.045036
#
#
# Mechanical properties :
#
#
# Convention : Reuss Voigt Hill
#
# Bulk Modulus (GPa) = 64.41268 74.69377 69.55323
# Shear Modulus (GPa) = 20.48871 30.07628 25.28250
#
# Velocity S-wave (km/s) = 3.38385 4.09983 3.75893
# Velocity P-wave (km/s) = 7.15999 8.00971 7.59674
#
# Compressibility (1/GPa) = 0.01552489
#
# Stress axis : x y z
#
# Youngs Moduli (GPa) = 51.43059 142.97135 138.59407
#
# Poissons Ratio (x) = 0.81589 0.47343
# Poissons Ratio (y) = 0.29350 -0.00809
# Poissons Ratio (z) = 0.17569 -0.00834
#
# Static dielectric constant tensor:
#      x y z
#    x 1.559260 0.000000 0.000000 
#    y 0.000000 1.674440 0.000000 
#    z 0.000000 0.000000 1.597140 
# 
# From -- ./inp_files/1275.got.cif
#   From: 2010.05.17/outbox.cif.g08.bks.cpg/sg71_1_cif.got.tgz:1275.got - 2010.06.03 16:22:01.
