data_PCOD9517078
_publ_section_title
;
Structure prediction by ZEFSAII (Michael W. Deem and Ramdas Pophale) SiO2 
 PCOD9517078
Probable space group: F D D D
;
_chemical_formula_sum "Si O2"
_cell_formula_units_Z 144
_cell_length_a 28.011975
_cell_length_b 23.809892
_cell_length_c 9.669497
_cell_angle_alpha 90.000000
_cell_angle_beta 90.000000
_cell_angle_gamma 90.000000
_cell_volume 6449.188020
_symmetry_space_group_name_H-M "F D D D"
_symmetry_group_IT_number 70
_space_group.IT_coordinate_system_code '2'
_symmetry_cell_setting 'orthorhombic'
loop_
_space_group_symop_operation_xyz
x,y,z
1/4-x,1/4-y,z
x,1/4-y,1/4-z
1/4-x,y,1/4-z
-x,-y,-z
3/4+x,3/4+y,-z
-x,3/4+y,3/4+z
3/4+x,-y,3/4+z
x,1/2+y,1/2+z
1/4-x,3/4-y,1/2+z
x,3/4-y,3/4-z
1/4-x,1/2+y,3/4-z
-x,1/2-y,1/2-z
3/4+x,1/4+y,1/2-z
-x,1/4+y,1/4+z
3/4+x,1/2-y,1/4+z
1/2+x,y,1/2+z
3/4-x,1/4-y,1/2+z
1/2+x,1/4-y,3/4-z
3/4-x,y,3/4-z
1/2-x,-y,1/2-z
1/4+x,3/4+y,1/2-z
1/2-x,3/4+y,1/4+z
1/4+x,-y,1/4+z
1/2+x,1/2+y,z
3/4-x,3/4-y,z
1/2+x,3/4-y,1/4-z
3/4-x,1/2+y,1/4-z
1/2-x,1/2-y,-z
1/4+x,1/4+y,-z
1/2-x,1/4+y,3/4+z
1/4+x,1/2-y,3/4+z
loop_
_atom_site_type_symbol
_atom_site_label
_atom_site_fract_x
_atom_site_fract_y
_atom_site_fract_z
Si Si1 0.966628 0.143790 0.349638
Si Si2 0.694751 0.233305 0.972164
Si Si3 0.539515 0.125000 0.625000
Si Si4 0.125000 0.819326 0.125000
Si Si5 0.525992 0.625000 0.625000
Si Si6 0.071950 0.507697 0.644848
O O1 0.917132 0.111059 0.325724
O O2 0.960338 0.210180 0.324464
O O3 0.004278 0.113929 0.251417
O O4 0.989504 0.141788 0.502240
O O5 0.687757 0.233816 0.807467
O O6 0.750000 0.250000 0.000000
O O7 0.655515 0.277780 0.026614
O O8 0.692116 0.174808 0.058110
O O9 0.568209 0.069936 0.583502
O O10 0.125000 0.486082 0.625000
#
# Coordination Sequence:
#
# PCOD9517078 Si02
#       6
#    32  32  16  16  16  32
#     4  12  25  44  76 108 144 195 246 311 371 461
#     4  12  25  48  77 108 149 199 251 319 378 461
#     4  12  27  47  70 106 150 200 244 302 388 446
#     4  12  26  45  76 113 142 186 264 306 380 448
#     4  12  24  50  78 104 150 194 254 307 385 448
#     4  12  26  47  72 109 153 194 250 316 382 451
#
# _framework density 22.328392000000001
#
# number of rings (size 3 to 8) (size 9 to 14) (size 15 to 20)
#    0.000    0.000    7.778    1.000    3.111    3.111 
#    4.000    0.000    0.000    0.000    0.000    0.000 
#    0.000    0.000    0.000    0.000    0.000    0.000 
#
# Total GULP energy -200920.257957 kJ/mol
# GULP energy per Si atom -5581.118277 kJ/mol
# Density = 2.227757 g / cm^3
# Si number density = 22.328392 Si / 1000 Ang^3
#
#
#
# Elastic Constant Matrix: (Units=GPa)
#
#
# Indices 1 2 3 4 5 6 
#
# 1 78.0886 23.6363 22.1967 0.0000 0.0002 -0.0001
# 2 23.6363 152.0872 -7.1322 0.0007 0.0002 -0.0013
# 3 22.1967 -7.1322 47.1385 0.0013 0.0004 -0.0027
# 4 0.0000 0.0007 0.0013 23.1630 0.0003 -0.0017
# 5 0.0002 0.0002 0.0004 0.0003 28.0770 0.0006
# 6 -0.0001 -0.0013 -0.0027 -0.0017 0.0006 52.8111
#
#
#
# Elastic Compliance Matrix: (Units=1/GPa)
#
#
# Indices 1 2 3 4 5 6 
#
# 1 0.015921 -0.002846 -0.007927 0.000001 0.000000 0.000000
# 2 -0.002846 0.007131 0.002419 0.000000 0.000000 0.000000
# 3 -0.007927 0.002419 0.025313 -0.000001 0.000000 0.000001
# 4 0.000001 0.000000 -0.000001 0.043172 -0.000001 0.000001
# 5 0.000000 0.000000 0.000000 -0.000001 0.035616 0.000000
# 6 0.000000 0.000000 0.000001 0.000001 0.000000 0.018935
#
#
# Mechanical properties :
#
#
# Convention : Reuss Voigt Hill
#
# Bulk Modulus (GPa) = 31.58969 39.41288 35.50129
# Shear Modulus (GPa) = 28.84344 36.71778 32.78061
#
# Velocity S-wave (km/s) = 3.59804 4.05957 3.83575
# Velocity P-wave (km/s) = 5.60711 6.29788 5.96251
#
# Compressibility (1/GPa) = 0.03165590
#
# Stress axis : x y z
#
# Youngs Moduli (GPa) = 62.81081 140.23400 39.50538
#
# Poissons Ratio (x) = 0.39912 0.31318
# Poissons Ratio (y) = 0.17876 -0.09557
# Poissons Ratio (z) = 0.49793 -0.33924
#
# Static dielectric constant tensor:
#      x y z
#    x 1.871890 0.000000 0.000000 
#    y 0.000000 1.873820 0.000000 
#    z 0.000000 0.000000 1.821470 
# 
# From -- ./inp_files/20694.got.cif
#   From: 2010.05.17/outbox.cif.g08.bks.cpg/sg70_11_cif.got.tgz:20694.got - 2010.06.03 15:57:51.
