data_PCOD9517968
_publ_section_title
;
Structure prediction by ZEFSAII (Michael W. Deem and Ramdas Pophale) SiO2 
 PCOD9517968
Probable space group: I M M M
;
_chemical_formula_sum "Si O2"
_cell_formula_units_Z 104
_cell_length_a 27.485411
_cell_length_b 8.006331
_cell_length_c 28.984471
_cell_angle_alpha 90.000000
_cell_angle_beta 90.000000
_cell_angle_gamma 90.000000
_cell_volume 6378.244376
_symmetry_space_group_name_H-M "I M M M"
_symmetry_group_IT_number 71
_symmetry_cell_setting 'orthorhombic'
loop_
_space_group_symop_operation_xyz
x,y,z
-x,-y,z
x,-y,-z
-x,y,-z
-x,-y,-z
x,y,-z
-x,y,z
x,-y,z
1/2+x,1/2+y,1/2+z
1/2-x,1/2-y,1/2+z
1/2+x,1/2-y,1/2-z
1/2-x,1/2+y,1/2-z
1/2-x,1/2-y,1/2-z
1/2+x,1/2+y,1/2-z
1/2-x,1/2+y,1/2+z
1/2+x,1/2-y,1/2+z
loop_
_atom_site_type_symbol
_atom_site_label
_atom_site_fract_x
_atom_site_fract_y
_atom_site_fract_z
Si Si1 0.315393 0.798688 0.947149
Si Si2 0.056092 0.696264 0.291547
Si Si3 0.500000 0.704185 0.052981
Si Si4 0.863213 0.500000 0.055563
Si Si5 0.205207 0.808924 0.944007
Si Si6 0.407231 0.301976 0.887845
Si Si7 0.558649 0.000000 0.630675
Si Si8 0.059108 0.816380 0.807595
O O1 0.260463 0.757926 0.931613
O O2 0.357047 0.734643 0.913604
O O3 0.317813 0.000000 0.948417
O O4 0.322800 0.737928 0.000000
O O5 0.054705 0.500000 0.280565
O O6 0.087115 0.725449 0.337221
O O7 0.073973 0.787463 0.245496
O O8 0.000000 0.750312 0.301412
O O9 0.500000 0.500000 0.052364
O O10 0.451890 0.759518 0.080179
O O11 0.500000 0.760232 0.000000
O O12 0.832816 0.666004 0.069110
O O13 0.913924 0.500000 0.082251
O O14 0.868697 0.500000 0.000000
O O15 0.195342 0.000000 0.928169
O O16 0.205255 0.814949 0.000000
O O17 0.413006 0.500000 0.882663
O O18 0.573499 0.163864 0.659819
O O19 0.500000 0.000000 0.625812
O O20 0.000000 0.812728 0.806625
O O21 0.074570 0.000000 0.823666
#
# Coordination Sequence:
#
# PCOD9517968 Si02
#       8
#    16  16   8   8  16  16   8  16
#     4   9  18  32  47  65  93 126 166 220 273 309
#     4  10  18  30  47  66  95 128 168 221 266 306
#     4   9  18  30  37  51  89 135 173 209 255 319
#     4  10  20  33  56  84 110 143 174 198 235 289
#     4   8  16  32  52  74 101 131 170 220 258 288
#     4  11  20  28  42  65  93 127 170 215 265 323
#     4  10  20  35  52  82 118 142 169 199 232 290
#     4   9  17  31  52  74 101 137 172 211 253 288
#
# _framework density 16.305429
#
# number of rings (size 3 to 8) (size 9 to 14) (size 15 to 20)
#    0.000    2.538    1.538    2.308    1.077    2.308 
#    0.000    0.000    0.000    1.846    0.000    5.385 
#    0.000    0.000    0.000    0.000    0.000    0.000 
#
# Total GULP energy -289832.992125 kJ/mol
# GULP energy per Si atom -5573.711387 kJ/mol
# Density = 1.626832 g / cm^3
# Si number density = 16.305429 Si / 1000 Ang^3
#
#
#
# Elastic Constant Matrix: (Units=GPa)
#
#
# Indices 1 2 3 4 5 6 
#
# 1 55.4891 30.2602 32.7869 0.0000 0.0000 0.0000
# 2 30.2602 79.0503 32.2254 0.0000 0.0000 0.0000
# 3 32.7869 32.2254 61.8003 0.0000 0.0000 0.0000
# 4 0.0000 0.0000 0.0000 9.7537 0.0000 0.0000
# 5 0.0000 0.0000 0.0000 0.0000 4.6295 0.0000
# 6 0.0000 0.0000 0.0000 0.0000 0.0000 10.0989
#
#
#
# Elastic Compliance Matrix: (Units=1/GPa)
#
#
# Indices 1 2 3 4 5 6 
#
# 1 0.028320 -0.005989 -0.011902 0.000000 0.000000 0.000000
# 2 -0.005989 0.017332 -0.005860 0.000000 0.000000 0.000000
# 3 -0.011902 -0.005860 0.025551 0.000000 0.000000 0.000000
# 4 0.000000 0.000000 0.000000 0.102526 0.000000 0.000000
# 5 0.000000 0.000000 0.000000 0.000000 0.216005 0.000000
# 6 0.000000 0.000000 0.000000 0.000000 0.000000 0.099021
#
#
# Mechanical properties :
#
#
# Convention : Reuss Voigt Hill
#
# Bulk Modulus (GPa) = 42.19215 42.98718 42.58967
# Shear Modulus (GPa) = 9.18854 11.63422 10.41138
#
# Velocity S-wave (km/s) = 2.37645 2.67407 2.52964
# Velocity P-wave (km/s) = 5.78466 5.99626 5.89141
#
# Compressibility (1/GPa) = 0.02370109
#
# Stress axis : x y z
#
# Youngs Moduli (GPa) = 35.31085 57.69786 39.13728
#
# Poissons Ratio (x) = 0.34555 0.46580
# Poissons Ratio (y) = 0.21148 0.22935
# Poissons Ratio (z) = 0.42026 0.33812
#
# Static dielectric constant tensor:
#      x y z
#    x 1.530560 0.000000 0.000000 
#    y 0.000000 1.583040 0.000000 
#    z 0.000000 0.000000 1.528800 
# 
# From -- ./inp_files/62345.got.cif
#   From: 2010.05.17/outbox.cif.g08.bks.cpg/sg71_32_cif.got.tgz:62345.got - 2010.06.03 16:22:01.
