data_PCOD9517840
_publ_section_title
;
Structure prediction by ZEFSAII (Michael W. Deem and Ramdas Pophale) SiO2 
 PCOD9517840
Probable space group: I M M M
;
_chemical_formula_sum "Si O2"
_cell_formula_units_Z 72
_cell_length_a 20.408458
_cell_length_b 7.318367
_cell_length_c 21.522778
_cell_angle_alpha 90.000000
_cell_angle_beta 90.000000
_cell_angle_gamma 90.000000
_cell_volume 3214.568634
_symmetry_space_group_name_H-M "I M M M"
_symmetry_group_IT_number 71
_symmetry_cell_setting 'orthorhombic'
loop_
_space_group_symop_operation_xyz
x,y,z
-x,-y,z
x,-y,-z
-x,y,-z
-x,-y,-z
x,y,-z
-x,y,z
x,-y,z
1/2+x,1/2+y,1/2+z
1/2-x,1/2-y,1/2+z
1/2+x,1/2-y,1/2-z
1/2-x,1/2+y,1/2-z
1/2-x,1/2-y,1/2-z
1/2+x,1/2+y,1/2-z
1/2-x,1/2+y,1/2+z
1/2+x,1/2-y,1/2+z
loop_
_atom_site_type_symbol
_atom_site_label
_atom_site_fract_x
_atom_site_fract_y
_atom_site_fract_z
Si Si1 0.500000 0.791759 0.593688
Si Si2 0.892559 0.777568 0.335433
Si Si3 0.752497 0.718097 0.175631
Si Si4 0.500000 0.721176 0.262746
Si Si5 0.000000 0.222580 0.431061
Si Si6 0.353801 0.223024 0.430332
O O1 0.500000 0.791622 0.668176
O O2 0.429445 0.713105 0.574727
O O3 0.500000 0.000000 0.570575
O O4 0.819130 0.712768 0.343370
O O5 0.934596 0.722018 0.274828
O O6 0.936675 0.721983 0.392985
O O7 0.890540 0.000000 0.332883
O O8 0.754458 0.500000 0.168489
O O9 0.750000 0.750000 0.250000
O O10 0.809803 0.785081 0.128924
O O11 0.500000 0.500000 0.264285
O O12 0.000000 0.289234 0.500000
O O13 0.000000 0.000000 0.431399
O O14 0.328941 0.270781 0.500000
O O15 0.355225 0.000000 0.427500
#
# Coordination Sequence:
#
# PCOD9517840 Si02
#       6
#     8  16  16   8   8  16
#     4  10  18  29  47  67  87 113 149 190 223 255
#     4   8  15  26  40  61  88 115 142 176 219 263
#     4  10  19  31  48  69  93 120 151 187 225 267
#     4   9  16  28  45  64  90 120 144 172 218 270
#     4   8  13  22  38  61  87 113 141 175 218 265
#     4   9  18  31  47  68  92 119 152 189 228 267
#
# _framework density 22.398029000000001
#
# number of rings (size 3 to 8) (size 9 to 14) (size 15 to 20)
#    0.000    3.000    0.000    3.000    0.000    2.222 
#    0.000    4.444    0.000    3.333    0.000    0.000 
#    0.000   15.111    0.000    0.000    0.000    0.000 
#
# Total GULP energy -200789.043116 kJ/mol
# GULP energy per Si atom -5577.473420 kJ/mol
# Density = 2.234705 g / cm^3
# Si number density = 22.398029 Si / 1000 Ang^3
#
#
#
# Elastic Constant Matrix: (Units=GPa)
#
#
# Indices 1 2 3 4 5 6 
#
# 1 191.7759 8.6596 95.2811 0.0000 0.0000 0.0000
# 2 8.6596 92.4572 0.4456 0.0000 0.0000 0.0000
# 3 95.2811 0.4456 191.9510 0.0000 0.0000 0.0000
# 4 0.0000 0.0000 0.0000 12.5926 0.0000 0.0000
# 5 0.0000 0.0000 0.0000 0.0000 -23.7073 0.0000
# 6 0.0000 0.0000 0.0000 0.0000 0.0000 7.6166
#
#
#
# Elastic Compliance Matrix: (Units=1/GPa)
#
#
# Indices 1 2 3 4 5 6 
#
# 1 0.006958 -0.000635 -0.003453 0.000000 0.000000 0.000000
# 2 -0.000635 0.010874 0.000290 0.000000 0.000000 0.000000
# 3 -0.003453 0.000290 0.006923 0.000000 0.000000 0.000000
# 4 0.000000 0.000000 0.000000 0.079412 0.000000 0.000000
# 5 0.000000 0.000000 0.000000 0.000000 -0.042181 0.000000
# 6 0.000000 0.000000 0.000000 0.000000 0.000000 0.131293
#
#
# Mechanical properties :
#
#
# Convention : Reuss Voigt Hill
#
# Bulk Modulus (GPa) = 58.27570 76.10630 67.19100
# Shear Modulus (GPa) = 24.20203 24.08688 24.14445
#
# Velocity S-wave (km/s) = 3.29073 3.28289 3.28681
# Velocity P-wave (km/s) = 6.36500 6.95863 6.66843
#
# Compressibility (1/GPa) = 0.01715981
#
# Stress axis : x y z
#
# Youngs Moduli (GPa) = 143.70994 91.96332 144.45040
#
# Poissons Ratio (x) = 0.05841 0.49873
# Poissons Ratio (y) = 0.09127 -0.04189
# Poissons Ratio (z) = 0.49617 -0.02667
#
# Static dielectric constant tensor:
#      x y z
#    x 1.841800 0.000000 0.000000 
#    y 0.000000 1.862200 0.000000 
#    z 0.000000 0.000000 1.821930 
# 
# From -- ./inp_files/9977.got.cif
#   From: 2010.05.17/outbox.cif.g08.bks.cpg/sg71_5_cif.got.tgz:9977.got - 2010.06.03 16:22:01.
