data_PCOD9517492
_publ_section_title
;
Structure prediction by ZEFSAII (Michael W. Deem and Ramdas Pophale) SiO2 
 PCOD9517492
Probable space group: I M M M
;
_chemical_formula_sum "Si O2"
_cell_formula_units_Z 52
_cell_length_a 10.358419
_cell_length_b 12.325503
_cell_length_c 21.433201
_cell_angle_alpha 90.000000
_cell_angle_beta 90.000000
_cell_angle_gamma 90.000000
_cell_volume 2736.435166
_symmetry_space_group_name_H-M "I M M M"
_symmetry_group_IT_number 71
_symmetry_cell_setting 'orthorhombic'
loop_
_space_group_symop_operation_xyz
x,y,z
-x,-y,z
x,-y,-z
-x,y,-z
-x,-y,-z
x,y,-z
-x,y,z
x,-y,z
1/2+x,1/2+y,1/2+z
1/2-x,1/2-y,1/2+z
1/2+x,1/2-y,1/2-z
1/2-x,1/2+y,1/2-z
1/2-x,1/2-y,1/2-z
1/2+x,1/2+y,1/2-z
1/2-x,1/2+y,1/2+z
1/2+x,1/2-y,1/2+z
loop_
_atom_site_type_symbol
_atom_site_label
_atom_site_fract_x
_atom_site_fract_y
_atom_site_fract_z
Si Si1 0.500000 0.867068 0.196915
Si Si2 0.845640 0.122623 0.500000
Si Si3 0.000000 0.762637 0.819380
Si Si4 0.273875 0.778805 0.888476
Si Si5 0.296595 0.500000 0.433307
Si Si6 0.000000 0.000000 0.177880
O O1 0.500000 0.832638 0.269154
O O2 0.623847 0.807713 0.165662
O O3 0.500000 0.000000 0.188778
O O4 0.804931 0.183675 0.436660
O O5 0.000000 0.120816 0.500000
O O6 0.795304 0.000000 0.500000
O O7 0.130655 0.760261 0.860385
O O8 0.000000 0.884336 0.788059
O O9 0.279740 0.889149 0.928676
O O10 0.365215 0.500000 0.500000
O O11 0.381692 0.500000 0.370767
#
# Coordination Sequence:
#
# PCOD9517492 Si02
#       6
#     8   8   8  16   8   4
#     4  12  24  41  63  89 123 165 215 257 300 362
#     4  11  24  42  64  93 128 163 201 249 311 380
#     4  10  24  42  62  90 126 166 204 260 305 362
#     4  11  22  41  64  92 124 159 206 254 313 362
#     4  10  17  31  62  91 119 151 187 250 307 354
#     4   8  19  36  54  88 124 155 198 236 308 366
#
# _framework density 19.002825000000001
#
# number of rings (size 3 to 8) (size 9 to 14) (size 15 to 20)
#    0.000    1.385    4.615    1.154    0.000    1.846 
#    2.769    3.077    0.000    0.000    0.000    0.000 
#    0.000    0.000    0.000    0.000    0.000    0.000 
#
# Total GULP energy -144779.522501 kJ/mol
# GULP energy per Si atom -5568.443173 kJ/mol
# Density = 1.895957 g / cm^3
# Si number density = 19.002825 Si / 1000 Ang^3
#
#
#
# Elastic Constant Matrix: (Units=GPa)
#
#
# Indices 1 2 3 4 5 6 
#
# 1 110.1003 35.3047 43.3174 0.0000 0.0000 0.0000
# 2 35.3047 153.1423 54.0804 0.0000 0.0000 0.0000
# 3 43.3174 54.0804 89.8696 0.0000 0.0000 0.0000
# 4 0.0000 0.0000 0.0000 31.9240 0.0000 0.0000
# 5 0.0000 0.0000 0.0000 0.0000 10.3056 0.0000
# 6 0.0000 0.0000 0.0000 0.0000 0.0000 13.1064
#
#
#
# Elastic Compliance Matrix: (Units=1/GPa)
#
#
# Indices 1 2 3 4 5 6 
#
# 1 0.011298 -0.000865 -0.004925 0.000000 0.000000 0.000000
# 2 -0.000865 0.008358 -0.004613 0.000000 0.000000 0.000000
# 3 -0.004925 -0.004613 0.016277 0.000000 0.000000 0.000000
# 4 0.000000 0.000000 0.000000 0.031324 0.000000 0.000000
# 5 0.000000 0.000000 0.000000 0.000000 0.097035 0.000000
# 6 0.000000 0.000000 0.000000 0.000000 0.000000 0.076298
#
#
# Mechanical properties :
#
#
# Convention : Reuss Voigt Hill
#
# Bulk Modulus (GPa) = 66.10631 68.72415 67.41523
# Shear Modulus (GPa) = 18.76606 25.76118 22.26362
#
# Velocity S-wave (km/s) = 3.14593 3.68591 3.42657
# Velocity P-wave (km/s) = 6.93246 7.37281 7.15602
#
# Compressibility (1/GPa) = 0.01512715
#
# Stress axis : x y z
#
# Youngs Moduli (GPa) = 88.51357 119.64212 61.43755
#
# Poissons Ratio (x) = 0.10354 0.30257
# Poissons Ratio (y) = 0.07660 0.28339
# Poissons Ratio (z) = 0.43591 0.55186
#
# Static dielectric constant tensor:
#      x y z
#    x 1.754270 0.000000 0.000000 
#    y 0.000000 1.692230 0.000000 
#    z 0.000000 0.000000 1.658290 
# 
# From -- ./inp_files/25102.got.cif
#   From: 2010.05.17/outbox.cif.g08.bks.cpg/sg71_13_cif.got.tgz:25102.got - 2010.06.03 16:22:01.
