data_PCOD9517458
_publ_section_title
;
Structure prediction by ZEFSAII (Michael W. Deem and Ramdas Pophale) SiO2 
 PCOD9517458
Probable space group: I M M M
;
_chemical_formula_sum "Si O2"
_cell_formula_units_Z 112
_cell_length_a 15.741127
_cell_length_b 15.120929
_cell_length_c 22.211282
_cell_angle_alpha 90.000000
_cell_angle_beta 90.000000
_cell_angle_gamma 90.000000
_cell_volume 5286.739642
_symmetry_space_group_name_H-M "I M M M"
_symmetry_group_IT_number 71
_symmetry_cell_setting 'orthorhombic'
loop_
_space_group_symop_operation_xyz
x,y,z
-x,-y,z
x,-y,-z
-x,y,-z
-x,-y,-z
x,y,-z
-x,y,z
x,-y,z
1/2+x,1/2+y,1/2+z
1/2-x,1/2-y,1/2+z
1/2+x,1/2-y,1/2-z
1/2-x,1/2+y,1/2-z
1/2-x,1/2-y,1/2-z
1/2+x,1/2+y,1/2-z
1/2-x,1/2+y,1/2+z
1/2+x,1/2-y,1/2+z
loop_
_atom_site_type_symbol
_atom_site_label
_atom_site_fract_x
_atom_site_fract_y
_atom_site_fract_z
Si Si1 0.760425 0.294330 0.433376
Si Si2 0.401048 0.896254 0.145931
Si Si3 0.354614 0.661544 0.727757
Si Si4 0.407872 0.396662 0.599734
Si Si5 0.326258 0.133440 0.272319
Si Si6 0.727442 0.903619 0.598382
Si Si7 0.588581 0.400921 0.152941
O O1 0.798123 0.303927 0.500000
O O2 0.831957 0.329743 0.385520
O O3 0.676873 0.353989 0.426094
O O4 0.721522 0.194628 0.428458
O O5 0.500000 0.876234 0.130821
O O6 0.389768 0.890221 0.218684
O O7 0.383764 0.000000 0.129272
O O8 0.400289 0.617979 0.671781
O O9 0.332382 0.762402 0.713774
O O10 0.266130 0.613934 0.743568
O O11 0.404476 0.662244 0.790259
O O12 0.500000 0.360056 0.580084
O O13 0.406934 0.500000 0.586266
O O14 0.324935 0.093804 0.338888
O O15 0.827872 0.899185 0.613981
O O16 0.712019 0.000000 0.568699
O O17 0.500000 0.386029 0.119582
O O18 0.586868 0.500000 0.179410
#
# Coordination Sequence:
#
# PCOD9517458 Si02
#       7
#    16  16  16  16  16  16  16
#     4  12  26  45  66  88 122 171 218 266 318 366
#     4  11  24  41  64  96 132 172 217 261 311 378
#     4  10  17  29  53  87 125 163 197 235 295 369
#     4  11  23  39  63  93 122 155 198 251 313 378
#     4  10  18  34  59  89 128 165 198 248 312 376
#     4  10  21  39  63  91 123 160 207 265 322 382
#     4   9  17  28  48  84 125 160 194 237 298 370
#
# _framework density 21.185081
#
# number of rings (size 3 to 8) (size 9 to 14) (size 15 to 20)
#    0.000    1.571    2.857    3.429    0.000    7.143 
#    0.000    1.429    0.000    0.429    0.000    4.000 
#    0.000    0.000    0.000    0.000    0.000    0.000 
#
# Total GULP energy -312008.716343 kJ/mol
# GULP energy per Si atom -5571.584220 kJ/mol
# Density = 2.113686 g / cm^3
# Si number density = 21.185081 Si / 1000 Ang^3
#
#
#
# Elastic Constant Matrix: (Units=GPa)
#
#
# Indices 1 2 3 4 5 6 
#
# 1 88.0965 24.5073 15.0904 0.0000 0.0000 0.0000
# 2 24.5073 104.7345 19.1028 0.0000 0.0000 0.0000
# 3 15.0904 19.1028 73.7343 0.0000 0.0000 0.0000
# 4 0.0000 0.0000 0.0000 -48.6962 0.0000 0.0000
# 5 0.0000 0.0000 0.0000 0.0000 -32.7501 0.0000
# 6 0.0000 0.0000 0.0000 0.0000 0.0000 17.2722
#
#
#
# Elastic Compliance Matrix: (Units=1/GPa)
#
#
# Indices 1 2 3 4 5 6 
#
# 1 0.012383 -0.002556 -0.001872 0.000000 0.000000 0.000000
# 2 -0.002556 0.010549 -0.002210 0.000000 0.000000 0.000000
# 3 -0.001872 -0.002210 0.014518 0.000000 0.000000 0.000000
# 4 0.000000 0.000000 0.000000 -0.020535 0.000000 0.000000
# 5 0.000000 0.000000 0.000000 0.000000 -0.030534 0.000000
# 6 0.000000 0.000000 0.000000 0.000000 0.000000 0.057897
#
#
# Mechanical properties :
#
#
# Convention : Reuss Voigt Hill
#
# Bulk Modulus (GPa) = 41.36701 42.66291 42.01496
# Shear Modulus (GPa) = 76.20699 1.02283 38.61491
#
# Velocity S-wave (km/s) = 6.00417 0.69560 4.27399
# Velocity P-wave (km/s) = 8.22409 4.56367 6.65067
#
# Compressibility (1/GPa) = 0.02417385
#
# Stress axis : x y z
#
# Youngs Moduli (GPa) = 80.75631 94.79455 68.88058
#
# Poissons Ratio (x) = 0.24230 0.12895
# Poissons Ratio (y) = 0.20642 0.15222
# Poissons Ratio (z) = 0.15118 0.20949
#
# Static dielectric constant tensor:
#      x y z
#    x 1.782150 0.000000 0.000000 
#    y 0.000000 1.840960 0.000000 
#    z 0.000000 0.000000 1.779640 
# 
# From -- ./inp_files/59924.got.cif
#   From: 2010.05.17/outbox.cif.g08.bks.cpg/sg71_30_cif.got.tgz:59924.got - 2010.06.03 16:22:01.
