data_PCOD9517899
_publ_section_title
;
Structure prediction by ZEFSAII (Michael W. Deem and Ramdas Pophale) SiO2 
 PCOD9517899
Probable space group: I M M M
;
_chemical_formula_sum "Si O2"
_cell_formula_units_Z 128
_cell_length_a 18.551249
_cell_length_b 19.365022
_cell_length_c 23.810664
_cell_angle_alpha 90.000000
_cell_angle_beta 90.000000
_cell_angle_gamma 90.000000
_cell_volume 8553.870204
_symmetry_space_group_name_H-M "I M M M"
_symmetry_group_IT_number 71
_symmetry_cell_setting 'orthorhombic'
loop_
_space_group_symop_operation_xyz
x,y,z
-x,-y,z
x,-y,-z
-x,y,-z
-x,-y,-z
x,y,-z
-x,y,z
x,-y,z
1/2+x,1/2+y,1/2+z
1/2-x,1/2-y,1/2+z
1/2+x,1/2-y,1/2-z
1/2-x,1/2+y,1/2-z
1/2-x,1/2-y,1/2-z
1/2+x,1/2+y,1/2-z
1/2-x,1/2+y,1/2+z
1/2+x,1/2-y,1/2+z
loop_
_atom_site_type_symbol
_atom_site_label
_atom_site_fract_x
_atom_site_fract_y
_atom_site_fract_z
Si Si1 0.814187 0.420886 0.606746
Si Si2 0.297205 0.922980 0.758942
Si Si3 0.169113 0.725609 0.766468
Si Si4 0.082502 0.829033 0.837414
Si Si5 0.626639 0.421553 0.766243
Si Si6 0.414246 0.201526 0.064815
Si Si7 0.150068 0.919306 0.933826
Si Si8 0.085877 0.796604 0.665974
O O1 0.835909 0.500000 0.594299
O O2 0.808227 0.413715 0.674182
O O3 0.869336 0.365463 0.582755
O O4 0.734652 0.410563 0.580923
O O5 0.330653 0.856893 0.728209
O O6 0.211620 0.921383 0.747651
O O7 0.323621 0.000000 0.743611
O O8 0.250000 0.750000 0.750000
O O9 0.137356 0.768183 0.818965
O O10 0.119673 0.748139 0.714044
O O11 0.089015 0.884343 0.786502
O O12 0.106334 0.868166 0.893719
O O13 0.000000 0.804746 0.840565
O O14 0.602480 0.500000 0.773286
O O15 0.613122 0.373120 0.819752
O O16 0.500000 0.188568 0.071522
O O17 0.394468 0.264179 0.106251
O O18 0.400348 0.217858 0.000000
O O19 0.132326 0.000000 0.921315
O O20 0.138299 0.907668 0.000000
O O21 0.000000 0.796518 0.671420
#
# Coordination Sequence:
#
# PCOD9517899 Si02
#       8
#    16  16  16  16  16  16  16  16
#     4  10  18  32  50  69  94 125 166 206 236 281
#     4  10  18  29  49  74  99 125 156 195 243 288
#     4  11  17  31  52  70  94 126 157 198 238 282
#     4  11  22  32  47  71  97 129 162 198 238 283
#     4  10  18  30  48  72  96 120 151 191 237 287
#     4  10  21  34  47  65  93 127 163 205 247 285
#     4  10  20  33  49  70  98 134 170 199 234 285
#     4  10  20  31  46  69  95 122 157 197 238 286
#
# _framework density 14.963986999999999
#
# number of rings (size 3 to 8) (size 9 to 14) (size 15 to 20)
#    0.000    1.750    5.000    2.250    0.000    3.000 
#    0.000    1.250    0.000    1.875    0.000    1.750 
#    0.000    0.500    0.000    1.125    0.000    0.000 
#
# Total GULP energy -356880.310066 kJ/mol
# GULP energy per Si atom -5576.254845 kJ/mol
# Density = 1.492993 g / cm^3
# Si number density = 14.963987 Si / 1000 Ang^3
#
#
#
# Elastic Constant Matrix: (Units=GPa)
#
#
# Indices 1 2 3 4 5 6 
#
# 1 30.8552 28.7965 27.3229 0.0000 0.0000 0.0000
# 2 28.7965 109.5201 45.9060 0.0000 0.0000 0.0000
# 3 27.3229 45.9060 78.9073 0.0000 0.0000 0.0000
# 4 0.0000 0.0000 0.0000 22.5762 0.0000 0.0000
# 5 0.0000 0.0000 0.0000 0.0000 16.4213 0.0000
# 6 0.0000 0.0000 0.0000 0.0000 0.0000 14.6913
#
#
#
# Elastic Compliance Matrix: (Units=1/GPa)
#
#
# Indices 1 2 3 4 5 6 
#
# 1 0.051588 -0.008036 -0.013188 0.000000 0.000000 0.000000
# 2 -0.008036 0.013327 -0.004971 0.000000 0.000000 0.000000
# 3 -0.013188 -0.004971 0.020131 0.000000 0.000000 0.000000
# 4 0.000000 0.000000 0.000000 0.044294 0.000000 0.000000
# 5 0.000000 0.000000 0.000000 0.000000 0.060896 0.000000
# 6 0.000000 0.000000 0.000000 0.000000 0.000000 0.068068
#
#
# Mechanical properties :
#
#
# Convention : Reuss Voigt Hill
#
# Bulk Modulus (GPa) = 30.62156 47.03705 38.82931
# Shear Modulus (GPa) = 15.54824 18.55491 17.05157
#
# Velocity S-wave (km/s) = 3.22692 3.52514 3.37932
# Velocity P-wave (km/s) = 5.86446 6.93329 6.42116
#
# Compressibility (1/GPa) = 0.03265673
#
# Stress axis : x y z
#
# Youngs Moduli (GPa) = 19.38447 75.03397 49.67386
#
# Poissons Ratio (x) = 0.60301 0.65508
# Poissons Ratio (y) = 0.15578 0.24691
# Poissons Ratio (z) = 0.25564 0.37297
#
# Static dielectric constant tensor:
#      x y z
#    x 1.500930 0.000000 0.000000 
#    y 0.000000 1.510080 0.000000 
#    z 0.000000 0.000000 1.487570 
# 
# From -- ./inp_files/54475.got.cif
#   From: 2010.05.17/outbox.cif.g08.bks.cpg/sg71_28_cif.got.tgz:54475.got - 2010.06.03 16:22:01.
