data_PCOD9517514
_publ_section_title
;
Structure prediction by ZEFSAII (Michael W. Deem and Ramdas Pophale) SiO2 
 PCOD9517514
Probable space group: I M M M
;
_chemical_formula_sum "Si O2"
_cell_formula_units_Z 90
_cell_length_a 28.788894
_cell_length_b 21.417661
_cell_length_c 7.565591
_cell_angle_alpha 90.000000
_cell_angle_beta 90.000000
_cell_angle_gamma 90.000000
_cell_volume 4664.873597
_symmetry_space_group_name_H-M "I M M M"
_symmetry_group_IT_number 71
_symmetry_cell_setting 'orthorhombic'
loop_
_space_group_symop_operation_xyz
x,y,z
-x,-y,z
x,-y,-z
-x,y,-z
-x,-y,-z
x,y,-z
-x,y,z
x,-y,z
1/2+x,1/2+y,1/2+z
1/2-x,1/2-y,1/2+z
1/2+x,1/2-y,1/2-z
1/2-x,1/2+y,1/2-z
1/2-x,1/2-y,1/2-z
1/2+x,1/2+y,1/2-z
1/2-x,1/2+y,1/2+z
1/2+x,1/2-y,1/2+z
loop_
_atom_site_type_symbol
_atom_site_label
_atom_site_fract_x
_atom_site_fract_y
_atom_site_fract_z
Si Si1 0.082734 0.199043 0.784430
Si Si2 0.000000 0.893893 0.302853
Si Si3 0.053044 0.338760 0.215767
Si Si4 0.000000 0.000000 0.000000
Si Si5 0.714366 0.831173 0.789450
Si Si6 0.314921 0.306647 0.296394
Si Si7 0.135354 0.428944 0.212917
O O1 0.044551 0.150710 0.721573
O O2 0.069211 0.269455 0.730407
O O3 0.134336 0.181823 0.719301
O O4 0.082967 0.198931 0.000000
O O5 0.000000 0.920063 0.500000
O O6 0.000000 0.945723 0.153767
O O7 0.090627 0.389638 0.275910
O O8 0.000000 0.350358 0.272020
O O9 0.053186 0.339437 0.000000
O O10 0.692559 0.768283 0.709035
O O11 0.767420 0.835630 0.721244
O O12 0.681516 0.889752 0.756218
O O13 0.716756 0.820242 0.000000
O O14 0.317176 0.327311 0.500000
O O15 0.136444 0.500000 0.278436
O O16 0.132298 0.431147 0.000000
#
# Coordination Sequence:
#
# PCOD9517514 Si02
#       7
#    16   8  16   2  16  16  16
#     4  10  17  34  60  88 118 152 191 247 310 354
#     4  12  25  41  69  98 122 160 207 240 293 371
#     4   9  16  28  52  81 110 145 190 243 296 349
#     4  12  26  52  68  90 132 168 192 240 296 370
#     4  10  19  31  50  80 110 146 190 242 297 352
#     4   9  18  32  55  81 112 146 186 239 301 353
#     4  10  20  34  52  73 105 154 200 239 293 355
#
# _framework density 19.293127999999999
#
# number of rings (size 3 to 8) (size 9 to 14) (size 15 to 20)
#    0.000    2.133    3.556    0.667    0.000    2.133 
#    0.000    1.778    1.956    0.000    0.000    1.244 
#    0.000    0.000    0.000    0.000    0.000    0.000 
#
# Total GULP energy -250890.501698 kJ/mol
# GULP energy per Si atom -5575.344482 kJ/mol
# Density = 1.924922 g / cm^3
# Si number density = 19.293128 Si / 1000 Ang^3
#
#
#
# Elastic Constant Matrix: (Units=GPa)
#
#
# Indices 1 2 3 4 5 6 
#
# 1 206.6324 86.0223 16.4240 0.0000 0.0000 0.0000
# 2 86.0223 127.3483 16.0171 0.0000 0.0000 0.0000
# 3 16.4240 16.0171 68.6175 0.0000 0.0000 0.0000
# 4 0.0000 0.0000 0.0000 -3.2340 0.0000 0.0000
# 5 0.0000 0.0000 0.0000 0.0000 12.8412 0.0000
# 6 0.0000 0.0000 0.0000 0.0000 0.0000 -9.9141
#
#
#
# Elastic Compliance Matrix: (Units=1/GPa)
#
#
# Indices 1 2 3 4 5 6 
#
# 1 0.006754 -0.004491 -0.000568 0.000000 0.000000 0.000000
# 2 -0.004491 0.011076 -0.001511 0.000000 0.000000 0.000000
# 3 -0.000568 -0.001511 0.015062 0.000000 0.000000 0.000000
# 4 0.000000 0.000000 0.000000 -0.309216 0.000000 0.000000
# 5 0.000000 0.000000 0.000000 0.000000 0.077874 0.000000
# 6 0.000000 0.000000 0.000000 0.000000 0.000000 -0.100867
#
#
# Mechanical properties :
#
#
# Convention : Reuss Voigt Hill
#
# Bulk Modulus (GPa) = 50.62560 71.05835 60.84197
# Shear Modulus (GPa) = -17.88325 18.88094 0.49885
#
# Velocity S-wave (km/s) = -3.04784 3.13171 0.50904
# Velocity P-wave (km/s) = 3.72980 7.07020 5.65239
#
# Compressibility (1/GPa) = 0.01975285
#
# Stress axis : x y z
#
# Youngs Moduli (GPa) = 148.05374 90.28486 66.39146
#
# Poissons Ratio (x) = 0.40547 0.03774
# Poissons Ratio (y) = 0.66490 0.10028
# Poissons Ratio (z) = 0.08415 0.13638
#
# Static dielectric constant tensor:
#      x y z
#    x 1.694850 0.000000 0.000000 
#    y 0.000000 1.614310 0.000000 
#    z 0.000000 0.000000 1.744460 
# 
# From -- ./inp_files/14920.got.cif
#   From: 2010.05.17/outbox.cif.g08.bks.cpg/sg71_8_cif.got.tgz:14920.got - 2010.06.03 16:22:01.
