data_PCOD9517211
_publ_section_title
;
Structure prediction by ZEFSAII (Michael W. Deem and Ramdas Pophale) SiO2 
 PCOD9517211
Probable space group: I M M M
;
_chemical_formula_sum "Si O2"
_cell_formula_units_Z 84
_cell_length_a 7.364464
_cell_length_b 18.330612
_cell_length_c 25.759218
_cell_angle_alpha 90.000000
_cell_angle_beta 90.000000
_cell_angle_gamma 90.000000
_cell_volume 3477.369039
_symmetry_space_group_name_H-M "I M M M"
_symmetry_group_IT_number 71
_symmetry_cell_setting 'orthorhombic'
loop_
_space_group_symop_operation_xyz
x,y,z
-x,-y,z
x,-y,-z
-x,y,-z
-x,-y,-z
x,y,-z
-x,y,z
x,-y,z
1/2+x,1/2+y,1/2+z
1/2-x,1/2-y,1/2+z
1/2+x,1/2-y,1/2-z
1/2-x,1/2+y,1/2-z
1/2-x,1/2-y,1/2-z
1/2+x,1/2+y,1/2-z
1/2-x,1/2+y,1/2+z
1/2+x,1/2-y,1/2+z
loop_
_atom_site_type_symbol
_atom_site_label
_atom_site_fract_x
_atom_site_fract_y
_atom_site_fract_z
Si Si1 0.257278 0.000000 0.000000
Si Si2 0.219603 0.159510 0.000000
Si Si3 0.220608 0.736788 0.095540
Si Si4 0.794573 0.000000 0.876612
Si Si5 0.717660 0.582545 0.219949
Si Si6 0.707254 0.079863 0.599977
Si Si7 0.222086 0.850285 0.823679
O O1 0.318524 0.916811 0.000000
O O2 0.192323 0.000000 0.060974
O O3 0.260737 0.206987 0.949935
O O4 0.000000 0.142962 0.000000
O O5 0.290936 0.656221 0.082775
O O6 0.282139 0.776210 0.148308
O O7 0.000000 0.730314 0.098077
O O8 0.718346 0.076986 0.855668
O O9 0.000000 0.000000 0.855534
O O10 0.500000 0.588230 0.214299
O O11 0.757215 0.500000 0.238822
O O12 0.796508 0.588649 0.162608
O O13 0.778267 0.637984 0.264263
O O14 0.500000 0.077175 0.580580
O O15 0.789130 0.000000 0.588998
O O16 0.000000 0.849283 0.825074
#
# Coordination Sequence:
#
# PCOD9517211 Si02
#       7
#     4   8  16   8  16  16  16
#     4  12  17  20  36  62  92 124 149 172 215 272
#     4  10  17  24  37  60  88 117 147 177 214 266
#     4   9  17  27  39  58  85 116 148 181 218 261
#     4  10  15  20  32  56  89 121 146 170 213 269
#     4   9  16  27  45  67  88 114 148 182 217 261
#     4   9  18  32  46  60  85 121 153 182 219 259
#     4   9  15  23  37  59  88 116 142 177 220 262
#
# _framework density 24.156192000000001
#
# number of rings (size 3 to 8) (size 9 to 14) (size 15 to 20)
#    0.000    2.667    2.857    0.857    0.000    0.762 
#    0.000    0.476    0.000    2.857    0.000    0.667 
#    0.000    3.048    0.000    3.143    0.000    2.952 
#
# Total GULP energy -234224.588110 kJ/mol
# GULP energy per Si atom -5576.775907 kJ/mol
# Density = 2.410121 g / cm^3
# Si number density = 24.156192 Si / 1000 Ang^3
#
#
#
# Elastic Constant Matrix: (Units=GPa)
#
#
# Indices 1 2 3 4 5 6 
#
# 1 85.0423 19.0469 -0.1018 0.0000 0.0000 0.0000
# 2 19.0469 203.9301 8.3922 0.0000 0.0000 0.0000
# 3 -0.1018 8.3922 13.8577 0.0000 0.0000 0.0000
# 4 0.0000 0.0000 0.0000 -11.8405 0.0000 0.0000
# 5 0.0000 0.0000 0.0000 0.0000 -14.0428 0.0000
# 6 0.0000 0.0000 0.0000 0.0000 0.0000 -24.1903
#
#
#
# Elastic Compliance Matrix: (Units=1/GPa)
#
#
# Indices 1 2 3 4 5 6 
#
# 1 0.012018 -0.001155 0.000788 0.000000 0.000000 0.000000
# 2 -0.001155 0.005140 -0.003121 0.000000 0.000000 0.000000
# 3 0.000788 -0.003121 0.074058 0.000000 0.000000 0.000000
# 4 0.000000 0.000000 0.000000 -0.084456 0.000000 0.000000
# 5 0.000000 0.000000 0.000000 0.000000 -0.071211 0.000000
# 6 0.000000 0.000000 0.000000 0.000000 0.000000 -0.041339
#
#
# Mechanical properties :
#
#
# Convention : Reuss Voigt Hill
#
# Bulk Modulus (GPa) = 11.87091 39.72275 25.79683
# Shear Modulus (GPa) = -70.68917 8.35145 -31.16886
#
# Velocity S-wave (km/s) = -5.41543 1.86139 -3.59598
# Velocity P-wave (km/s) = 5.84616 4.59342 2.55716
#
# Compressibility (1/GPa) = 0.08423953
#
# Stress axis : x y z
#
# Youngs Moduli (GPa) = 83.20524 194.55412 13.50292
#
# Poissons Ratio (x) = 0.22470 -0.01064
# Poissons Ratio (y) = 0.09610 0.04215
# Poissons Ratio (z) = -0.06554 0.60725
#
# Static dielectric constant tensor:
#      x y z
#    x 1.919870 0.000000 0.000000 
#    y 0.000000 1.928580 0.000000 
#    z 0.000000 0.000000 1.885820 
# 
# From -- ./inp_files/69243.got.cif
#   From: 2010.05.17/outbox.cif.g08.bks.cpg/sg71_35_cif.got.tgz:69243.got - 2010.06.03 16:22:01.
