data_PCOD9517854
_publ_section_title
;
Structure prediction by ZEFSAII (Michael W. Deem and Ramdas Pophale) SiO2 
 PCOD9517854
Probable space group: I M M M
;
_chemical_formula_sum "Si O2"
_cell_formula_units_Z 80
_cell_length_a 15.811388
_cell_length_b 14.180804
_cell_length_c 23.178568
_cell_angle_alpha 90.000000
_cell_angle_beta 90.000000
_cell_angle_gamma 90.000000
_cell_volume 5197.056661
_symmetry_space_group_name_H-M "I M M M"
_symmetry_group_IT_number 71
_symmetry_cell_setting 'orthorhombic'
loop_
_space_group_symop_operation_xyz
x,y,z
-x,-y,z
x,-y,-z
-x,y,-z
-x,-y,-z
x,y,-z
-x,y,z
x,-y,z
1/2+x,1/2+y,1/2+z
1/2-x,1/2-y,1/2+z
1/2+x,1/2-y,1/2-z
1/2-x,1/2+y,1/2-z
1/2-x,1/2-y,1/2-z
1/2+x,1/2+y,1/2-z
1/2-x,1/2+y,1/2+z
1/2+x,1/2-y,1/2+z
loop_
_atom_site_type_symbol
_atom_site_label
_atom_site_fract_x
_atom_site_fract_y
_atom_site_fract_z
Si Si1 0.403840 0.885746 0.251850
Si Si2 0.898814 0.389044 0.115432
Si Si3 0.500000 0.607847 0.429977
Si Si4 0.173151 0.791309 0.932368
Si Si5 0.000000 0.385985 0.434059
Si Si6 0.327776 0.114373 0.133330
O O1 0.500000 0.853084 0.239940
O O2 0.382361 0.861550 0.317620
O O3 0.342362 0.857978 0.200120
O O4 0.406869 0.000000 0.250413
O O5 0.880454 0.500000 0.107861
O O6 0.844353 0.319346 0.076659
O O7 0.000000 0.377345 0.104863
O O8 0.500000 0.500000 0.410612
O O9 0.500000 0.608912 0.500000
O O10 0.414298 0.659614 0.412342
O O11 0.250104 0.833057 0.896139
O O12 0.186399 0.812383 0.000000
O O13 0.085430 0.360783 0.400262
O O14 0.000000 0.500000 0.435920
O O15 0.000000 0.351311 0.500000
O O16 0.316607 0.000000 0.129691
#
# Coordination Sequence:
#
# PCOD9517854 Si02
#       6
#    16  16   8  16   8  16
#     4   8  14  28  49  71  94 120 154 196 243 286
#     4   9  18  33  52  70  90 119 159 211 254 278
#     4   9  18  32  44  57  89 131 161 186 219 269
#     4  11  21  31  45  69  96 128 166 194 230 288
#     4   9  16  26  41  64  95 127 153 182 224 268
#     4  10  18  29  47  71  99 128 156 190 231 284
#
# _framework density 15.393329
#
# number of rings (size 3 to 8) (size 9 to 14) (size 15 to 20)
#    0.000    2.600    2.000    2.400    0.000    3.200 
#    0.000    1.000    0.000    0.000    0.000    0.700 
#    0.000    2.400    0.000    0.000    0.000    0.000 
#
# Total GULP energy -222782.499690 kJ/mol
# GULP energy per Si atom -5569.562492 kJ/mol
# Density = 1.535829 g / cm^3
# Si number density = 15.393329 Si / 1000 Ang^3
#
#
#
# Elastic Constant Matrix: (Units=GPa)
#
#
# Indices 1 2 3 4 5 6 
#
# 1 83.7012 23.5447 13.3798 0.0000 0.0000 0.0000
# 2 23.5447 45.5937 0.2743 0.0000 0.0000 0.0000
# 3 13.3798 0.2743 16.9963 0.0000 0.0000 0.0000
# 4 0.0000 0.0000 0.0000 18.4673 0.0000 0.0000
# 5 0.0000 0.0000 0.0000 0.0000 20.5293 0.0000
# 6 0.0000 0.0000 0.0000 0.0000 0.0000 16.8368
#
#
#
# Elastic Compliance Matrix: (Units=1/GPa)
#
#
# Indices 1 2 3 4 5 6 
#
# 1 0.016332 -0.008357 -0.012722 0.000000 0.000000 0.000000
# 2 -0.008357 0.026212 0.006156 0.000000 0.000000 0.000000
# 3 -0.012722 0.006156 0.068752 0.000000 0.000000 0.000000
# 4 0.000000 0.000000 0.000000 0.054150 0.000000 0.000000
# 5 0.000000 0.000000 0.000000 0.000000 0.048711 0.000000
# 6 0.000000 0.000000 0.000000 0.000000 0.000000 0.059394
#
#
# Mechanical properties :
#
#
# Convention : Reuss Voigt Hill
#
# Bulk Modulus (GPa) = 12.27764 24.52098 18.39931
# Shear Modulus (GPa) = 15.12654 18.43950 16.78302
#
# Velocity S-wave (km/s) = 3.13816 3.46481 3.30552
# Velocity P-wave (km/s) = 4.59608 5.65427 5.15241
#
# Compressibility (1/GPa) = 0.08144886
#
# Stress axis : x y z
#
# Youngs Moduli (GPa) = 61.23060 38.15116 14.54510
#
# Poissons Ratio (x) = 0.31884 0.18504
# Poissons Ratio (y) = 0.51172 -0.08954
# Poissons Ratio (z) = 0.77896 -0.23486
#
# Static dielectric constant tensor:
#      x y z
#    x 1.494330 0.000000 0.000000 
#    y 0.000000 1.510080 0.000000 
#    z 0.000000 0.000000 1.538870 
# 
# From -- ./inp_files/65288.got.cif
#   From: 2010.05.17/outbox.cif.g08.bks.cpg/sg71_33_cif.got.tgz:65288.got - 2010.06.03 16:22:01.
