data_PCOD9517237
_publ_section_title
;
Structure prediction by ZEFSAII (Michael W. Deem and Ramdas Pophale) SiO2 
 PCOD9517237
Probable space group: I M M M
;
_chemical_formula_sum "Si O2"
_cell_formula_units_Z 104
_cell_length_a 20.769934
_cell_length_b 32.884665
_cell_length_c 7.513772
_cell_angle_alpha 90.000000
_cell_angle_beta 90.000000
_cell_angle_gamma 90.000000
_cell_volume 5131.998858
_symmetry_space_group_name_H-M "I M M M"
_symmetry_group_IT_number 71
_symmetry_cell_setting 'orthorhombic'
loop_
_space_group_symop_operation_xyz
x,y,z
-x,-y,z
x,-y,-z
-x,y,-z
-x,-y,-z
x,y,-z
-x,y,z
x,-y,z
1/2+x,1/2+y,1/2+z
1/2-x,1/2-y,1/2+z
1/2+x,1/2-y,1/2-z
1/2-x,1/2+y,1/2-z
1/2-x,1/2-y,1/2-z
1/2+x,1/2+y,1/2-z
1/2-x,1/2+y,1/2+z
1/2+x,1/2-y,1/2+z
loop_
_atom_site_type_symbol
_atom_site_label
_atom_site_fract_x
_atom_site_fract_y
_atom_site_fract_z
Si Si1 0.000000 0.547384 0.282364
Si Si2 0.756565 0.365644 0.291396
Si Si3 0.861997 0.423497 0.717066
Si Si4 0.374892 0.500000 0.795853
Si Si5 0.225325 0.500000 0.284040
Si Si6 0.871379 0.089031 0.715689
Si Si7 0.572138 0.324504 0.218211
Si Si8 0.696321 0.282269 0.804763
O O1 0.065465 0.568995 0.223356
O O2 0.000000 0.500000 0.229329
O O3 0.000000 0.547423 0.500000
O O4 0.761359 0.355395 0.500000
O O5 0.824135 0.383314 0.226503
O O6 0.701639 0.400211 0.271820
O O7 0.731627 0.325864 0.194398
O O8 0.862611 0.423131 0.500000
O O9 0.817068 0.461254 0.768810
O O10 0.296809 0.500000 0.792860
O O11 0.392649 0.455612 0.718740
O O12 0.398187 0.500000 0.000000
O O13 0.231686 0.500000 0.500000
O O14 0.872308 0.087536 0.500000
O O15 0.911538 0.128873 0.771400
O O16 0.500000 0.313592 0.271406
O O17 0.628373 0.294358 0.286017
O O18 0.574772 0.324661 0.000000
O O19 0.750000 0.250000 0.750000
O O20 0.677071 0.268353 0.000000
#
# Coordination Sequence:
#
# PCOD9517237 Si02
#       8
#     8  16  16   8   8  16  16  16
#     4   9  14  22  36  58  90 124 160 208 254 282
#     4  10  18  29  47  71  97 124 158 200 244 289
#     4   9  16  24  39  63  91 121 159 205 249 287
#     4  10  18  26  38  63  97 130 163 202 246 286
#     4  10  16  25  40  63  89 119 161 208 248 282
#     4   9  17  28  43  67  97 130 166 202 241 282
#     4   8  15  30  52  75  99 127 160 199 240 282
#     4  10  20  35  57  82 103 124 153 192 240 292
#
# _framework density 20.265007000000001
#
# number of rings (size 3 to 8) (size 9 to 14) (size 15 to 20)
#    0.000    2.692    2.308    1.846    0.000    0.000 
#    0.000    0.385    1.692   13.846    0.000    4.846 
#    0.000    5.538    0.000    0.000    0.000    0.000 
#
# Total GULP energy -289783.711433 kJ/mol
# GULP energy per Si atom -5572.763681 kJ/mol
# Density = 2.021888 g / cm^3
# Si number density = 20.265007 Si / 1000 Ang^3
#
#
#
# Elastic Constant Matrix: (Units=GPa)
#
#
# Indices 1 2 3 4 5 6 
#
# 1 139.5958 51.8196 1.5208 0.0000 -0.0001 0.0000
# 2 51.8196 90.7552 1.8892 -0.0001 0.0000 0.0000
# 3 1.5208 1.8892 54.0225 -0.0005 0.0000 0.0001
# 4 0.0000 -0.0001 -0.0005 11.4965 -0.0001 -0.0001
# 5 -0.0001 0.0000 0.0000 -0.0001 11.8872 0.0000
# 6 0.0000 0.0000 0.0001 -0.0001 0.0000 23.0051
#
#
#
# Elastic Compliance Matrix: (Units=1/GPa)
#
#
# Indices 1 2 3 4 5 6 
#
# 1 0.009091 -0.005189 -0.000074 0.000000 0.000000 0.000000
# 2 -0.005189 0.013989 -0.000343 0.000000 0.000000 0.000000
# 3 -0.000074 -0.000343 0.018525 0.000001 0.000000 0.000000
# 4 0.000000 0.000000 0.000001 0.086983 0.000001 0.000000
# 5 0.000000 0.000000 0.000000 0.000001 0.084124 0.000000
# 6 0.000000 0.000000 0.000000 0.000000 0.000000 0.043469
#
#
# Mechanical properties :
#
#
# Convention : Reuss Voigt Hill
#
# Bulk Modulus (GPa) = 32.90454 43.87031 38.38742
# Shear Modulus (GPa) = 18.01651 24.55402 21.28527
#
# Velocity S-wave (km/s) = 2.98492 3.48465 3.24442
# Velocity P-wave (km/s) = 5.30585 6.15513 5.74620
#
# Compressibility (1/GPa) = 0.03039095
#
# Stress axis : x y z
#
# Youngs Moduli (GPa) = 110.00407 71.48668 53.98140
#
# Poissons Ratio (x) = 0.37094 0.00402
# Poissons Ratio (y) = 0.57081 0.01852
# Poissons Ratio (z) = 0.00819 0.02453
#
# Static dielectric constant tensor:
#      x y z
#    x 1.725770 0.000000 0.000000 
#    y 0.000000 1.718760 0.000000 
#    z 0.000000 0.000000 1.776060 
# 
# From -- ./inp_files/11583.got.cif
#   From: 2010.05.17/outbox.cif.g08.bks.cpg/sg71_6_cif.got.tgz:11583.got - 2010.06.03 16:22:01.
