data_PCOD9517656
_publ_section_title
;
Structure prediction by ZEFSAII (Michael W. Deem and Ramdas Pophale) SiO2 
 PCOD9517656
Probable space group: I M M M
;
_chemical_formula_sum "Si O2"
_cell_formula_units_Z 120
_cell_length_a 28.837803
_cell_length_b 9.070733
_cell_length_c 30.245039
_cell_angle_alpha 90.000000
_cell_angle_beta 90.000000
_cell_angle_gamma 90.000000
_cell_volume 7911.497644
_symmetry_space_group_name_H-M "I M M M"
_symmetry_group_IT_number 71
_symmetry_cell_setting 'orthorhombic'
loop_
_space_group_symop_operation_xyz
x,y,z
-x,-y,z
x,-y,-z
-x,y,-z
-x,-y,-z
x,y,-z
-x,y,z
x,-y,z
1/2+x,1/2+y,1/2+z
1/2-x,1/2-y,1/2+z
1/2+x,1/2-y,1/2-z
1/2-x,1/2+y,1/2-z
1/2-x,1/2-y,1/2-z
1/2+x,1/2+y,1/2-z
1/2-x,1/2+y,1/2+z
1/2+x,1/2-y,1/2+z
loop_
_atom_site_type_symbol
_atom_site_label
_atom_site_fract_x
_atom_site_fract_y
_atom_site_fract_z
Si Si1 0.943715 0.830310 0.786906
Si Si2 0.000000 0.179096 0.550442
Si Si3 0.377505 0.321715 0.551908
Si Si4 0.410200 0.678611 0.892580
Si Si5 0.726030 0.330539 0.553650
Si Si6 0.054976 0.324194 0.878368
Si Si7 0.055308 0.324129 0.304462
Si Si8 0.320580 0.322794 0.051267
O O1 0.930011 0.747203 0.831713
O O2 0.929949 0.746636 0.742188
O O3 0.000000 0.830668 0.786813
O O4 0.928126 0.000000 0.786940
O O5 0.046051 0.222232 0.576849
O O6 0.000000 0.232272 0.500000
O O7 0.000000 0.000000 0.548942
O O8 0.383442 0.284446 0.500000
O O9 0.380030 0.500000 0.555284
O O10 0.325293 0.277408 0.566600
O O11 0.415572 0.246497 0.582338
O O12 0.410827 0.500000 0.888165
O O13 0.417684 0.752057 0.845181
O O14 0.363052 0.722182 0.917543
O O15 0.725046 0.330287 0.500000
O O16 0.731484 0.500000 0.567930
O O17 0.770992 0.238509 0.566667
O O18 0.060904 0.500000 0.876925
O O19 0.000000 0.293731 0.884309
O O20 0.060976 0.500000 0.303460
O O21 0.000000 0.293137 0.310460
O O22 0.319060 0.500000 0.051117
O O23 0.328419 0.275736 0.000000
#
# Coordination Sequence:
#
# PCOD9517656 Si02
#       8
#    16   8  16  16  16  16  16  16
#     4   9  17  30  49  68  87 116 154 191 227 267
#     4   9  16  26  41  59  83 119 159 193 224 267
#     4   9  18  32  49  69  94 126 163 195 221 258
#     4  10  18  28  43  63  87 118 156 192 230 279
#     4   8  15  29  47  65  86 115 152 193 234 271
#     4  10  20  32  46  69 101 130 155 184 222 267
#     4  10  19  30  44  63  89 117 149 192 238 278
#     4   9  17  28  43  65  90 115 150 196 238 275
#
# _framework density 15.167797999999999
#
# number of rings (size 3 to 8) (size 9 to 14) (size 15 to 20)
#    0.000    2.733    0.667    2.400    0.000    6.133 
#    0.000    2.667    0.000    1.600    0.000    0.933 
#    0.000    0.000    0.000    0.000    0.000    0.000 
#
# Total GULP energy -334287.005860 kJ/mol
# GULP energy per Si atom -5571.450098 kJ/mol
# Density = 1.513328 g / cm^3
# Si number density = 15.167798 Si / 1000 Ang^3
#
#
#
# Elastic Constant Matrix: (Units=GPa)
#
#
# Indices 1 2 3 4 5 6 
#
# 1 95.1178 46.1445 69.7615 0.0000 0.0000 0.0000
# 2 46.1445 45.7383 50.1379 0.0000 0.0000 0.0000
# 3 69.7615 50.1379 120.9609 0.0000 0.0000 0.0000
# 4 0.0000 0.0000 0.0000 19.3075 0.0000 0.0000
# 5 0.0000 0.0000 0.0000 0.0000 4.9445 0.0000
# 6 0.0000 0.0000 0.0000 0.0000 0.0000 23.3340
#
#
#
# Elastic Compliance Matrix: (Units=1/GPa)
#
#
# Indices 1 2 3 4 5 6 
#
# 1 0.023261 -0.016058 -0.006759 0.000000 0.000000 0.000000
# 2 -0.016058 0.051156 -0.011943 0.000000 0.000000 0.000000
# 3 -0.006759 -0.011943 0.017116 0.000000 0.000000 0.000000
# 4 0.000000 0.000000 0.000000 0.051793 0.000000 0.000000
# 5 0.000000 0.000000 0.000000 0.000000 0.202244 0.000000
# 6 0.000000 0.000000 0.000000 0.000000 0.000000 0.042856
#
#
# Mechanical properties :
#
#
# Convention : Reuss Voigt Hill
#
# Bulk Modulus (GPa) = 45.42948 65.98940 55.70944
# Shear Modulus (GPa) = 10.74617 15.90209 13.32413
#
# Velocity S-wave (km/s) = 2.66463 3.24143 2.96708
# Velocity P-wave (km/s) = 6.28357 7.59012 6.96754
#
# Compressibility (1/GPa) = 0.02201214
#
# Stress axis : x y z
#
# Youngs Moduli (GPa) = 42.99070 19.54821 58.42648
#
# Poissons Ratio (x) = 0.31391 0.39491
# Poissons Ratio (y) = 0.69035 0.69777
# Poissons Ratio (z) = 0.29058 0.23346
#
# Static dielectric constant tensor:
#      x y z
#    x 1.495120 0.000000 0.000000 
#    y 0.000000 1.507660 0.000000 
#    z 0.000000 0.000000 1.486240 
# 
# From -- ./inp_files/67159.got.cif
#   From: 2010.05.17/outbox.cif.g08.bks.cpg/sg71_34_cif.got.tgz:67159.got - 2010.06.03 16:22:01.
