data_PCOD9517140
_publ_section_title
;
Structure prediction by ZEFSAII (Michael W. Deem and Ramdas Pophale) SiO2 
 PCOD9517140
Probable space group: F D D D
;
_chemical_formula_sum "Si O2"
_cell_formula_units_Z 96
_cell_length_a 24.536618
_cell_length_b 8.126357
_cell_length_c 18.392647
_cell_angle_alpha 90.000000
_cell_angle_beta 90.000000
_cell_angle_gamma 90.000000
_cell_volume 3667.370902
_symmetry_space_group_name_H-M "F D D D"
_symmetry_group_IT_number 70
_space_group.IT_coordinate_system_code '2'
_symmetry_cell_setting 'orthorhombic'
loop_
_space_group_symop_operation_xyz
x,y,z
1/4-x,1/4-y,z
x,1/4-y,1/4-z
1/4-x,y,1/4-z
-x,-y,-z
3/4+x,3/4+y,-z
-x,3/4+y,3/4+z
3/4+x,-y,3/4+z
x,1/2+y,1/2+z
1/4-x,3/4-y,1/2+z
x,3/4-y,3/4-z
1/4-x,1/2+y,3/4-z
-x,1/2-y,1/2-z
3/4+x,1/4+y,1/2-z
-x,1/4+y,1/4+z
3/4+x,1/2-y,1/4+z
1/2+x,y,1/2+z
3/4-x,1/4-y,1/2+z
1/2+x,1/4-y,3/4-z
3/4-x,y,3/4-z
1/2-x,-y,1/2-z
1/4+x,3/4+y,1/2-z
1/2-x,3/4+y,1/4+z
1/4+x,-y,1/4+z
1/2+x,1/2+y,z
3/4-x,3/4-y,z
1/2+x,3/4-y,1/4-z
3/4-x,1/2+y,1/4-z
1/2-x,1/2-y,-z
1/4+x,1/4+y,-z
1/2-x,1/4+y,3/4+z
1/4+x,1/2-y,3/4+z
loop_
_atom_site_type_symbol
_atom_site_label
_atom_site_fract_x
_atom_site_fract_y
_atom_site_fract_z
Si Si1 0.572104 0.310435 0.801729
Si Si2 0.090228 0.459127 0.029592
Si Si3 0.017220 0.133117 0.840155
O O1 0.603232 0.375000 0.875000
O O2 0.614963 0.320812 0.737966
O O3 0.543622 0.147207 0.830865
O O4 0.526813 0.455578 0.799975
O O5 0.125000 0.625000 0.039765
O O6 0.051583 0.493054 0.959319
O O7 0.046157 0.424099 0.091390
#
# Coordination Sequence:
#
# PCOD9517140 Si02
#       3
#    32  32  32
#     4   7  14  23  35  62  99 140 175 224 269 311
#     4   9  12  22  41  61  94 140 187 223 264 314
#     4   7  14  22  36  64  91 136 190 215 257 327
#
# _framework density 26.176791000000001
#
# number of rings (size 3 to 8) (size 9 to 14) (size 15 to 20)
#    2.000    2.000    0.000    0.000    0.000    0.000 
#    0.000    0.000    0.000    2.000    0.000    0.000 
#    0.000   96.000    0.000    8.000  168.000  606.000 
#
# Total GULP energy -133755.643396 kJ/mol
# GULP energy per Si atom -5573.151808 kJ/mol
# Density = 2.611721 g / cm^3
# Si number density = 26.176791 Si / 1000 Ang^3
#
#
#
# Elastic Constant Matrix: (Units=GPa)
#
#
# Indices 1 2 3 4 5 6 
#
# 1 204.6914 57.1922 67.4436 0.0000 0.0000 0.0000
# 2 57.1922 95.0936 27.4411 0.0000 0.0000 0.0000
# 3 67.4436 27.4411 62.5228 0.0000 0.0000 0.0000
# 4 0.0000 0.0000 0.0000 14.0941 0.0000 0.0000
# 5 0.0000 0.0000 0.0000 0.0000 13.3695 0.0000
# 6 0.0000 0.0000 0.0000 0.0000 0.0000 13.0291
#
#
#
# Elastic Compliance Matrix: (Units=1/GPa)
#
#
# Indices 1 2 3 4 5 6 
#
# 1 0.008145 -0.002706 -0.007598 0.000000 0.000000 0.000000
# 2 -0.002706 0.012940 -0.002760 0.000000 0.000000 0.000000
# 3 -0.007598 -0.002760 0.025402 0.000000 0.000000 0.000000
# 4 0.000000 0.000000 0.000000 0.070952 0.000000 0.000000
# 5 0.000000 0.000000 0.000000 0.000000 0.074797 0.000000
# 6 0.000000 0.000000 0.000000 0.000000 0.000000 0.076752
#
#
# Mechanical properties :
#
#
# Convention : Reuss Voigt Hill
#
# Bulk Modulus (GPa) = 49.12171 74.05127 61.58649
# Shear Modulus (GPa) = 16.56158 22.11391 19.33775
#
# Velocity S-wave (km/s) = 2.51805 2.90968 2.72092
# Velocity P-wave (km/s) = 5.22113 6.29592 5.78355
#
# Compressibility (1/GPa) = 0.02035760
#
# Stress axis : x y z
#
# Youngs Moduli (GPa) = 122.77308 77.27984 39.36666
#
# Poissons Ratio (x) = 0.20912 0.29913
# Poissons Ratio (y) = 0.33223 0.10867
# Poissons Ratio (z) = 0.93289 0.21332
#
# Static dielectric constant tensor:
#      x y z
#    x 2.000390 0.000000 0.000000 
#    y 0.000000 2.142660 0.000000 
#    z 0.000000 0.000000 2.132980 
# 
# From -- ./inp_files/18397.got.cif
#   From: 2010.05.17/outbox.cif.g08.bks.cpg/sg70_10_cif.got.tgz:18397.got - 2010.06.03 15:57:51.
