data_PCOD9517898
_publ_section_title
;
Structure prediction by ZEFSAII (Michael W. Deem and Ramdas Pophale) SiO2 
 PCOD9517898
Probable space group: I M M M
;
_chemical_formula_sum "Si O2"
_cell_formula_units_Z 104
_cell_length_a 25.009361
_cell_length_b 13.979890
_cell_length_c 15.485975
_cell_angle_alpha 90.000000
_cell_angle_beta 90.000000
_cell_angle_gamma 90.000000
_cell_volume 5414.332260
_symmetry_space_group_name_H-M "I M M M"
_symmetry_group_IT_number 71
_symmetry_cell_setting 'orthorhombic'
loop_
_space_group_symop_operation_xyz
x,y,z
-x,-y,z
x,-y,-z
-x,y,-z
-x,-y,-z
x,y,-z
-x,y,z
x,-y,z
1/2+x,1/2+y,1/2+z
1/2-x,1/2-y,1/2+z
1/2+x,1/2-y,1/2-z
1/2-x,1/2+y,1/2-z
1/2-x,1/2-y,1/2-z
1/2+x,1/2+y,1/2-z
1/2-x,1/2+y,1/2+z
1/2+x,1/2-y,1/2+z
loop_
_atom_site_type_symbol
_atom_site_label
_atom_site_fract_x
_atom_site_fract_y
_atom_site_fract_z
Si Si1 0.718173 0.106996 0.142192
Si Si2 0.059163 0.888592 0.605031
Si Si3 0.436848 0.000000 0.604712
Si Si4 0.273833 0.109059 0.655488
Si Si5 0.880171 0.306193 0.900942
Si Si6 0.844210 0.107923 0.895371
Si Si7 0.167238 0.201757 0.401238
O O1 0.709227 0.112357 0.244799
O O2 0.781508 0.123332 0.126542
O O3 0.681632 0.187101 0.100565
O O4 0.706522 0.000000 0.111596
O O5 0.057618 0.883861 0.500000
O O6 0.109083 0.825204 0.633387
O O7 0.000000 0.860242 0.636067
O O8 0.068312 0.000000 0.627229
O O9 0.410069 0.099813 0.636693
O O10 0.500000 0.000000 0.622005
O O11 0.428998 0.000000 0.500000
O O12 0.317566 0.165873 0.601424
O O13 0.214894 0.151461 0.649735
O O14 0.273235 0.000000 0.625591
O O15 0.879399 0.198200 0.863158
O O16 0.899163 0.298070 0.000000
O O17 0.858556 0.000000 0.865254
O O18 0.847767 0.108341 0.000000
O O19 0.170737 0.166597 0.500000
#
# Coordination Sequence:
#
# PCOD9517898 Si02
#       7
#    16  16   8  16  16  16  16
#     4  10  21  33  45  67 100 139 167 195 240 298
#     4   8  15  29  48  71  98 126 157 198 249 298
#     4   9  18  32  50  74 102 130 162 202 256 312
#     4  11  21  31  45  72 104 133 156 196 257 306
#     4  10  18  29  49  74  98 126 158 205 251 293
#     4   9  17  30  47  68  97 133 170 200 235 289
#     4  11  20  30  49  74  99 129 166 207 246 295
#
# _framework density 19.208278
#
# number of rings (size 3 to 8) (size 9 to 14) (size 15 to 20)
#    0.000    2.231    2.308    2.308    0.000    2.462 
#    0.000    0.000    0.000    1.846    0.000    5.385 
#    0.000    0.000    0.000    0.000    0.000    0.000 
#
# Total GULP energy -289837.835265 kJ/mol
# GULP energy per Si atom -5573.804524 kJ/mol
# Density = 1.916456 g / cm^3
# Si number density = 19.208278 Si / 1000 Ang^3
#
#
#
# Elastic Constant Matrix: (Units=GPa)
#
#
# Indices 1 2 3 4 5 6 
#
# 1 83.5617 55.0710 1.1572 0.0000 0.0000 0.0000
# 2 55.0710 148.0877 0.9920 0.0000 0.0000 0.0000
# 3 1.1572 0.9920 24.7634 0.0000 0.0000 0.0000
# 4 0.0000 0.0000 0.0000 10.3645 0.0000 0.0000
# 5 0.0000 0.0000 0.0000 0.0000 -45.5728 0.0000
# 6 0.0000 0.0000 0.0000 0.0000 0.0000 18.1513
#
#
#
# Elastic Compliance Matrix: (Units=1/GPa)
#
#
# Indices 1 2 3 4 5 6 
#
# 1 0.015859 -0.005894 -0.000505 0.000000 0.000000 0.000000
# 2 -0.005894 0.008945 -0.000083 0.000000 0.000000 0.000000
# 3 -0.000505 -0.000083 0.040409 0.000000 0.000000 0.000000
# 4 0.000000 0.000000 0.000000 0.096483 0.000000 0.000000
# 5 0.000000 0.000000 0.000000 0.000000 -0.021943 0.000000
# 6 0.000000 0.000000 0.000000 0.000000 0.000000 0.055093
#
#
# Mechanical properties :
#
#
# Convention : Reuss Voigt Hill
#
# Bulk Modulus (GPa) = 19.13914 41.20594 30.17254
# Shear Modulus (GPa) = 22.19992 9.86810 16.03401
#
# Velocity S-wave (km/s) = 3.40332 2.26905 2.89233
# Velocity P-wave (km/s) = 5.04272 5.32574 5.18616
#
# Compressibility (1/GPa) = 0.05224896
#
# Stress axis : x y z
#
# Youngs Moduli (GPa) = 63.05675 111.79126 24.74689
#
# Poissons Ratio (x) = 0.65892 0.01250
# Poissons Ratio (y) = 0.37167 0.00205
# Poissons Ratio (z) = 0.03184 0.00927
#
# Static dielectric constant tensor:
#      x y z
#    x 1.644360 0.000000 0.000000 
#    y 0.000000 1.728780 0.000000 
#    z 0.000000 0.000000 1.673900 
# 
# From -- ./inp_files/48228.got.cif
#   From: 2010.05.17/outbox.cif.g08.bks.cpg/sg71_25_cif.got.tgz:48228.got - 2010.06.03 16:22:01.
