data_PCOD9517937
_publ_section_title
;
Structure prediction by ZEFSAII (Michael W. Deem and Ramdas Pophale) SiO2 
 PCOD9517937
Probable space group: I M M M
;
_chemical_formula_sum "Si O2"
_cell_formula_units_Z 72
_cell_length_a 7.778031
_cell_length_b 19.817633
_cell_length_c 31.642913
_cell_angle_alpha 90.000000
_cell_angle_beta 90.000000
_cell_angle_gamma 90.000000
_cell_volume 4877.507079
_symmetry_space_group_name_H-M "I M M M"
_symmetry_group_IT_number 71
_symmetry_cell_setting 'orthorhombic'
loop_
_space_group_symop_operation_xyz
x,y,z
-x,-y,z
x,-y,-z
-x,y,-z
-x,-y,-z
x,y,-z
-x,y,z
x,-y,z
1/2+x,1/2+y,1/2+z
1/2-x,1/2-y,1/2+z
1/2+x,1/2-y,1/2-z
1/2-x,1/2+y,1/2-z
1/2-x,1/2-y,1/2-z
1/2+x,1/2+y,1/2-z
1/2-x,1/2+y,1/2+z
1/2+x,1/2-y,1/2+z
loop_
_atom_site_type_symbol
_atom_site_label
_atom_site_fract_x
_atom_site_fract_y
_atom_site_fract_z
Si Si1 0.303945 0.500000 0.162132
Si Si2 0.192436 0.500000 0.254890
Si Si3 0.706903 0.277387 0.185264
Si Si4 0.709827 0.370260 0.889177
Si Si5 0.000000 0.418798 0.050399
Si Si6 0.203288 0.144035 0.768675
O O1 0.500000 0.500000 0.147970
O O2 0.302448 0.500000 0.212302
O O3 0.236113 0.431681 0.142106
O O4 0.222852 0.429599 0.278325
O O5 0.000000 0.500000 0.238467
O O6 0.500000 0.280511 0.187356
O O7 0.753883 0.304813 0.139143
O O8 0.761402 0.202046 0.197209
O O9 0.770677 0.325769 0.223752
O O10 0.500000 0.370629 0.896784
O O11 0.829925 0.384073 0.929375
O O12 0.000000 0.500000 0.059782
O O13 0.000000 0.411754 0.000000
O O14 0.000000 0.135487 0.764260
#
# Coordination Sequence:
#
# PCOD9517937 Si02
#       6
#     8   8  16  16   8  16
#     4  10  18  30  44  65  88 119 165 201 235 284
#     4  12  22  28  42  62  91 129 163 202 238 275
#     4   9  18  31  45  65  89 117 158 200 238 281
#     4  10  20  34  52  68  92 125 160 205 247 288
#     4  11  24  36  50  74  98 121 163 211 251 300
#     4  10  19  30  43  62  91 121 155 199 239 274
#
# _framework density 14.761639000000001
#
# number of rings (size 3 to 8) (size 9 to 14) (size 15 to 20)
#    0.000    1.889    3.333    1.667    3.111    1.333 
#    0.000    1.111    0.000    0.000    0.000    0.000 
#    0.000    0.000    0.000    2.000    0.000   12.000 
#
# Total GULP energy -200486.019399 kJ/mol
# GULP energy per Si atom -5569.056094 kJ/mol
# Density = 1.472804 g / cm^3
# Si number density = 14.761639 Si / 1000 Ang^3
#
#
#
# Elastic Constant Matrix: (Units=GPa)
#
#
# Indices 1 2 3 4 5 6 
#
# 1 47.0828 20.6942 27.5787 0.0000 0.0000 0.0000
# 2 20.6942 107.7593 39.8860 0.0000 0.0000 0.0000
# 3 27.5787 39.8860 69.1314 0.0000 0.0000 0.0000
# 4 0.0000 0.0000 0.0000 19.2657 0.0000 0.0000
# 5 0.0000 0.0000 0.0000 0.0000 18.5807 0.0000
# 6 0.0000 0.0000 0.0000 0.0000 0.0000 16.3285
#
#
#
# Elastic Compliance Matrix: (Units=1/GPa)
#
#
# Indices 1 2 3 4 5 6 
#
# 1 0.027924 -0.001576 -0.010231 0.000000 0.000000 0.000000
# 2 -0.001576 0.011889 -0.006231 0.000000 0.000000 0.000000
# 3 -0.010231 -0.006231 0.022141 0.000000 0.000000 0.000000
# 4 0.000000 0.000000 0.000000 0.051906 0.000000 0.000000
# 5 0.000000 0.000000 0.000000 0.000000 0.053819 0.000000
# 6 0.000000 0.000000 0.000000 0.000000 0.000000 0.061243
#
#
# Mechanical properties :
#
#
# Convention : Reuss Voigt Hill
#
# Bulk Modulus (GPa) = 38.63971 44.47683 41.55827
# Shear Modulus (GPa) = 18.27327 19.88928 19.08127
#
# Velocity S-wave (km/s) = 3.52218 3.67463 3.59921
# Velocity P-wave (km/s) = 6.54015 6.94257 6.74436
#
# Compressibility (1/GPa) = 0.02588011
#
# Stress axis : x y z
#
# Youngs Moduli (GPa) = 35.81090 84.11279 45.16417
#
# Poissons Ratio (x) = 0.13255 0.46206
# Poissons Ratio (y) = 0.05643 0.28140
# Poissons Ratio (z) = 0.36637 0.52408
#
# Static dielectric constant tensor:
#      x y z
#    x 1.551830 0.000000 0.000000 
#    y 0.000000 1.520330 0.000000 
#    z 0.000000 0.000000 1.461320 
# 
# From -- ./inp_files/57404.got.cif
#   From: 2010.05.17/outbox.cif.g08.bks.cpg/sg71_29_cif.got.tgz:57404.got - 2010.06.03 16:22:01.
