data_PCOD9517224
_publ_section_title
;
Structure prediction by ZEFSAII (Michael W. Deem and Ramdas Pophale) SiO2 
 PCOD9517224
Probable space group: I M M M
;
_chemical_formula_sum "Si O2"
_cell_formula_units_Z 112
_cell_length_a 29.306785
_cell_length_b 7.405416
_cell_length_c 28.365254
_cell_angle_alpha 90.000000
_cell_angle_beta 90.000000
_cell_angle_gamma 90.000000
_cell_volume 6156.080854
_symmetry_space_group_name_H-M "I M M M"
_symmetry_group_IT_number 71
_symmetry_cell_setting 'orthorhombic'
loop_
_space_group_symop_operation_xyz
x,y,z
-x,-y,z
x,-y,-z
-x,y,-z
-x,-y,-z
x,y,-z
-x,y,z
x,-y,z
1/2+x,1/2+y,1/2+z
1/2-x,1/2-y,1/2+z
1/2+x,1/2-y,1/2-z
1/2-x,1/2+y,1/2-z
1/2-x,1/2-y,1/2-z
1/2+x,1/2+y,1/2-z
1/2-x,1/2+y,1/2+z
1/2+x,1/2-y,1/2+z
loop_
_atom_site_type_symbol
_atom_site_label
_atom_site_fract_x
_atom_site_fract_y
_atom_site_fract_z
Si Si1 0.306828 0.218754 0.802772
Si Si2 0.637079 0.293539 0.711445
Si Si3 0.714192 0.720588 0.648156
Si Si4 0.738809 0.779463 0.947802
Si Si5 0.448368 0.279636 0.768239
Si Si6 0.648033 0.214226 0.100693
Si Si7 0.449709 0.284236 0.876371
O O1 0.327421 0.293690 0.755040
O O2 0.255540 0.272348 0.816724
O O3 0.337781 0.279758 0.847120
O O4 0.308364 0.000000 0.799667
O O5 0.626019 0.500000 0.698501
O O6 0.665988 0.214176 0.668291
O O7 0.590967 0.212892 0.733328
O O8 0.713404 0.500000 0.648460
O O9 0.729302 0.776583 0.595812
O O10 0.686976 0.721086 0.935058
O O11 0.739478 0.000000 0.947987
O O12 0.751841 0.719290 0.000000
O O13 0.500000 0.231492 0.754543
O O14 0.445720 0.500000 0.769070
O O15 0.441552 0.218824 0.822498
O O16 0.594752 0.245748 0.092704
O O17 0.654056 0.000000 0.102339
O O18 0.500000 0.219127 0.891679
O O19 0.452343 0.500000 0.873565
#
# Coordination Sequence:
#
# PCOD9517224 Si02
#       7
#    16  16  16  16  16  16  16
#     4   9  16  25  34  50  80 104 118 145 183 221
#     4  10  16  23  38  55  74 100 128 154 177 210
#     4   8  15  24  35  55  76  95 123 154 182 217
#     4   8  14  26  42  57  76  99 120 151 197 236
#     4   8  14  23  34  50  73 101 130 155 177 205
#     4   9  16  25  39  58  75  95 126 159 189 225
#     4   9  16  26  39  54  74 101 131 159 188 223
#
# _framework density 18.193394000000001
#
# number of rings (size 3 to 8) (size 9 to 14) (size 15 to 20)
#    0.000    3.286    1.429    3.000    0.000    0.286 
#    0.000    0.000    0.000    1.286    0.000    3.000 
#    0.000    0.571    0.000    8.000    0.000    0.000 
#
# Total GULP energy -312027.209191 kJ/mol
# GULP energy per Si atom -5571.914450 kJ/mol
# Density = 1.815198 g / cm^3
# Si number density = 18.193394 Si / 1000 Ang^3
#
#
#
# Elastic Constant Matrix: (Units=GPa)
#
#
# Indices 1 2 3 4 5 6 
#
# 1 56.7283 -0.4553 33.8300 0.0000 0.0000 0.0000
# 2 -0.4553 59.4799 -1.3943 0.0000 0.0000 0.0000
# 3 33.8300 -1.3943 73.5932 0.0000 0.0000 0.0000
# 4 0.0000 0.0000 0.0000 15.4776 0.0000 0.0000
# 5 0.0000 0.0000 0.0000 0.0000 14.0574 0.0000
# 6 0.0000 0.0000 0.0000 0.0000 0.0000 0.9056
#
#
#
# Elastic Compliance Matrix: (Units=1/GPa)
#
#
# Indices 1 2 3 4 5 6 
#
# 1 0.024286 -0.000076 -0.011165 0.000000 0.000000 0.000000
# 2 -0.000076 0.016820 0.000354 0.000000 0.000000 0.000000
# 3 -0.011165 0.000354 0.018727 0.000000 0.000000 0.000000
# 4 0.000000 0.000000 0.000000 0.064609 0.000000 0.000000
# 5 0.000000 0.000000 0.000000 0.000000 0.071137 0.000000
# 6 0.000000 0.000000 0.000000 0.000000 0.000000 1.104214
#
#
# Mechanical properties :
#
#
# Convention : Reuss Voigt Hill
#
# Bulk Modulus (GPa) = 26.27563 28.19580 27.23572
# Shear Modulus (GPa) = 3.74741 16.60953 10.17847
#
# Velocity S-wave (km/s) = 1.43675 3.02477 2.36786
# Velocity P-wave (km/s) = 4.15043 5.26597 4.74113
#
# Compressibility (1/GPa) = 0.03805807
#
# Stress axis : x y z
#
# Youngs Moduli (GPa) = 41.17647 59.45269 53.39748
#
# Poissons Ratio (x) = 0.00451 0.59620
# Poissons Ratio (y) = 0.00312 -0.01888
# Poissons Ratio (z) = 0.45975 -0.02102
#
# Static dielectric constant tensor:
#      x y z
#    x 1.671570 0.000000 0.000000 
#    y 0.000000 1.737680 0.000000 
#    z 0.000000 0.000000 1.610300 
# 
# From -- ./inp_files/62123.got.cif
#   From: 2010.05.17/outbox.cif.g08.bks.cpg/sg71_32_cif.got.tgz:62123.got - 2010.06.03 16:22:01.
