data_PCOD9517231
_publ_section_title
;
Structure prediction by ZEFSAII (Michael W. Deem and Ramdas Pophale) SiO2 
 PCOD9517231
Probable space group: I M M M
;
_chemical_formula_sum "Si O2"
_cell_formula_units_Z 72
_cell_length_a 30.406508
_cell_length_b 12.813248
_cell_length_c 11.136359
_cell_angle_alpha 90.000000
_cell_angle_beta 90.000000
_cell_angle_gamma 90.000000
_cell_volume 4338.793708
_symmetry_space_group_name_H-M "I M M M"
_symmetry_group_IT_number 71
_symmetry_cell_setting 'orthorhombic'
loop_
_space_group_symop_operation_xyz
x,y,z
-x,-y,z
x,-y,-z
-x,y,-z
-x,-y,-z
x,y,-z
-x,y,z
x,-y,z
1/2+x,1/2+y,1/2+z
1/2-x,1/2-y,1/2+z
1/2+x,1/2-y,1/2-z
1/2-x,1/2+y,1/2-z
1/2-x,1/2-y,1/2-z
1/2+x,1/2+y,1/2-z
1/2-x,1/2+y,1/2+z
1/2+x,1/2-y,1/2+z
loop_
_atom_site_type_symbol
_atom_site_label
_atom_site_fract_x
_atom_site_fract_y
_atom_site_fract_z
Si Si1 0.137573 0.121918 0.139206
Si Si2 0.299457 0.792474 0.258197
Si Si3 0.049191 0.125557 0.747280
Si Si4 0.900377 0.875168 0.500000
Si Si5 0.270956 0.117884 0.500000
Si Si6 0.685841 0.229623 0.000000
O O1 0.168790 0.194766 0.216344
O O2 0.086990 0.155295 0.158592
O O3 0.141490 0.000000 0.175082
O O4 0.149976 0.130255 0.000000
O O5 0.250000 0.750000 0.250000
O O6 0.298860 0.862459 0.378188
O O7 0.312042 0.833467 0.125640
O O8 0.070165 0.147285 0.617172
O O9 0.000000 0.168451 0.762600
O O10 0.045627 0.000000 0.755791
O O11 0.856894 0.804432 0.500000
O O12 0.889815 0.000000 0.500000
O O13 0.229417 0.196594 0.500000
O O14 0.254311 0.000000 0.500000
#
# Coordination Sequence:
#
# PCOD9517231 Si02
#       6
#    16  16  16   8   8   8
#     4  10  19  31  48  69  96 134 170 203 241 288
#     4  10  20  33  50  71  98 127 167 210 244 286
#     4   9  17  27  40  63  96 132 166 196 231 284
#     4  10  16  24  42  66  95 133 165 188 227 282
#     4  10  21  36  52  69  97 133 169 204 249 296
#     4  10  19  31  51  74  98 125 163 209 243 285
#
# _framework density 16.594474000000002
#
# number of rings (size 3 to 8) (size 9 to 14) (size 15 to 20)
#    0.000    2.222    3.333    0.667    0.000    5.333 
#    0.000    2.778    0.000    0.000    0.000    0.000 
#    0.000    1.778    0.000    2.000    0.000    0.222 
#
# Total GULP energy -200406.431389 kJ/mol
# GULP energy per Si atom -5566.845316 kJ/mol
# Density = 1.655670 g / cm^3
# Si number density = 16.594474 Si / 1000 Ang^3
#
#
#
# Elastic Constant Matrix: (Units=GPa)
#
#
# Indices 1 2 3 4 5 6 
#
# 1 91.6128 2.8730 16.7012 0.0000 0.0000 0.0000
# 2 2.8730 10.8591 13.5017 0.0000 0.0000 0.0000
# 3 16.7012 13.5017 102.3355 0.0000 0.0000 0.0000
# 4 0.0000 0.0000 0.0000 7.3741 0.0000 0.0000
# 5 0.0000 0.0000 0.0000 0.0000 3.8518 0.0000
# 6 0.0000 0.0000 0.0000 0.0000 0.0000 18.5715
#
#
#
# Elastic Compliance Matrix: (Units=1/GPa)
#
#
# Indices 1 2 3 4 5 6 
#
# 1 0.011256 -0.000830 -0.001728 0.000000 0.000000 0.000000
# 2 -0.000830 0.110221 -0.014407 0.000000 0.000000 0.000000
# 3 -0.001728 -0.014407 0.011954 0.000000 0.000000 0.000000
# 4 0.000000 0.000000 0.000000 0.135611 0.000000 0.000000
# 5 0.000000 0.000000 0.000000 0.000000 0.259617 0.000000
# 6 0.000000 0.000000 0.000000 0.000000 0.000000 0.053846
#
#
# Mechanical properties :
#
#
# Convention : Reuss Voigt Hill
#
# Bulk Modulus (GPa) = 10.04994 30.10657 20.07825
# Shear Modulus (GPa) = 7.69703 17.40825 12.55264
#
# Velocity S-wave (km/s) = 2.15601 3.24240 2.75332
# Velocity P-wave (km/s) = 3.50245 5.67446 4.71522
#
# Compressibility (1/GPa) = 0.09950311
#
# Stress axis : x y z
#
# Youngs Moduli (GPa) = 88.83775 9.07270 83.65086
#
# Poissons Ratio (x) = 0.00753 0.14451
# Poissons Ratio (y) = 0.07375 1.20512
# Poissons Ratio (z) = 0.15347 0.13071
#
# Static dielectric constant tensor:
#      x y z
#    x 1.559860 0.000000 0.000000 
#    y 0.000000 1.516650 0.000000 
#    z 0.000000 0.000000 1.654120 
# 
# From -- ./inp_files/29612.got.cif
#   From: 2010.05.17/outbox.cif.g08.bks.cpg/sg71_15_cif.got.tgz:29612.got - 2010.06.03 16:22:01.
