data_PCOD9517220
_publ_section_title
;
Structure prediction by ZEFSAII (Michael W. Deem and Ramdas Pophale) SiO2 
 PCOD9517220
Probable space group: I M M M
;
_chemical_formula_sum "Si O2"
_cell_formula_units_Z 80
_cell_length_a 14.445302
_cell_length_b 29.500321
_cell_length_c 8.134172
_cell_angle_alpha 90.000000
_cell_angle_beta 90.000000
_cell_angle_gamma 90.000000
_cell_volume 3466.304564
_symmetry_space_group_name_H-M "I M M M"
_symmetry_group_IT_number 71
_symmetry_cell_setting 'orthorhombic'
loop_
_space_group_symop_operation_xyz
x,y,z
-x,-y,z
x,-y,-z
-x,y,-z
-x,-y,-z
x,y,-z
-x,y,z
x,-y,z
1/2+x,1/2+y,1/2+z
1/2-x,1/2-y,1/2+z
1/2+x,1/2-y,1/2-z
1/2-x,1/2+y,1/2-z
1/2-x,1/2-y,1/2-z
1/2+x,1/2+y,1/2-z
1/2-x,1/2+y,1/2+z
1/2+x,1/2-y,1/2+z
loop_
_atom_site_type_symbol
_atom_site_label
_atom_site_fract_x
_atom_site_fract_y
_atom_site_fract_z
Si Si1 0.310009 0.450495 0.299082
Si Si2 0.646249 0.352636 0.687541
Si Si3 0.857322 0.755709 0.693076
Si Si4 0.846933 0.663777 0.188506
Si Si5 0.400780 0.069150 0.800885
O O1 0.312296 0.448530 0.500000
O O2 0.347421 0.500000 0.249799
O O3 0.360399 0.403968 0.241947
O O4 0.200734 0.448991 0.250322
O O5 0.614689 0.353864 0.500000
O O6 0.608393 0.306200 0.765485
O O7 0.756727 0.343355 0.697163
O O8 0.863677 0.749801 0.500000
O O9 0.750000 0.750000 0.750000
O O10 0.897418 0.710996 0.777564
O O11 0.903556 0.619406 0.227863
O O12 0.813803 0.663871 0.000000
O O13 0.500000 0.047836 0.755128
O O14 0.398034 0.069871 0.000000
#
# Coordination Sequence:
#
# PCOD9517220 Si02
#       5
#    16  16  16  16  16
#     4   8  14  24  38  55  72  92 122 159 192 219
#     4   9  15  24  37  53  72  91 114 144 179 218
#     4  10  16  23  36  53  72  90 110 137 174 219
#     4  10  17  25  37  52  70  90 114 144 180 221
#     4   9  17  28  40  53  70  93 123 159 194 224
#
# _framework density 23.079333999999999
#
# number of rings (size 3 to 8) (size 9 to 14) (size 15 to 20)
#    0.000    2.800    0.000    7.800    0.000    0.800 
#    0.000    2.000    0.000   15.000    0.000    5.600 
#    0.000    0.000    0.000    0.000    0.000    1.000 
#
# Total GULP energy -222688.399365 kJ/mol
# GULP energy per Si atom -5567.209984 kJ/mol
# Density = 2.302680 g / cm^3
# Si number density = 23.079334 Si / 1000 Ang^3
#
#
#
# Elastic Constant Matrix: (Units=GPa)
#
#
# Indices 1 2 3 4 5 6 
#
# 1 39.2084 2.6370 5.5822 0.0005 0.0005 -0.0001
# 2 2.6370 240.0625 11.2458 -0.0018 0.0006 -0.0001
# 3 5.5822 11.2458 37.7696 -0.0069 0.0067 0.0014
# 4 0.0005 -0.0018 -0.0069 8.5086 0.0002 -0.0001
# 5 0.0005 0.0006 0.0067 0.0002 -8.2163 -0.0008
# 6 -0.0001 -0.0001 0.0014 -0.0001 -0.0008 -15.2172
#
#
#
# Elastic Compliance Matrix: (Units=1/GPa)
#
#
# Indices 1 2 3 4 5 6 
#
# 1 0.026056 -0.000107 -0.003819 -0.000005 -0.000002 -0.000001
# 2 -0.000107 0.004225 -0.001242 0.000000 -0.000001 0.000000
# 3 -0.003819 -0.001242 0.027411 0.000022 0.000022 0.000003
# 4 -0.000005 0.000000 0.000022 0.117528 0.000003 -0.000001
# 5 -0.000002 -0.000001 0.000022 0.000003 -0.121710 0.000006
# 6 -0.000001 0.000000 0.000003 -0.000001 0.000006 -0.065715
#
#
# Mechanical properties :
#
#
# Convention : Reuss Voigt Hill
#
# Bulk Modulus (GPa) = 21.11735 39.55228 30.33482
# Shear Modulus (GPa) = 359.28743 16.85339 188.07041
#
# Velocity S-wave (km/s) = 12.49051 2.70522 9.03690
# Velocity P-wave (km/s) = 14.73726 5.18964 11.04806
#
# Compressibility (1/GPa) = 0.04735443
#
# Stress axis : x y z
#
# Youngs Moduli (GPa) = 38.37939 236.68933 36.48230
#
# Poissons Ratio (x) = 0.02540 0.13932
# Poissons Ratio (y) = 0.00412 0.04531
# Poissons Ratio (z) = 0.14657 0.29399
#
# Static dielectric constant tensor:
#      x y z
#    x 1.872480 0.000000 0.000000 
#    y 0.000000 2.047920 0.000000 
#    z 0.000000 0.000000 1.795140 
# 
# From -- ./inp_files/8588.got.cif
#   From: 2010.05.17/outbox.cif.g08.bks.cpg/sg71_5_cif.got.tgz:8588.got - 2010.06.03 16:22:01.
