data_PCOD9517621
_publ_section_title
;
Structure prediction by ZEFSAII (Michael W. Deem and Ramdas Pophale) SiO2 
 PCOD9517621
Probable space group: I M M M
;
_chemical_formula_sum "Si O2"
_cell_formula_units_Z 80
_cell_length_a 25.174604
_cell_length_b 21.111782
_cell_length_c 7.510021
_cell_angle_alpha 90.000000
_cell_angle_beta 90.000000
_cell_angle_gamma 90.000000
_cell_volume 3991.431605
_symmetry_space_group_name_H-M "I M M M"
_symmetry_group_IT_number 71
_symmetry_cell_setting 'orthorhombic'
loop_
_space_group_symop_operation_xyz
x,y,z
-x,-y,z
x,-y,-z
-x,y,-z
-x,-y,-z
x,y,-z
-x,y,z
x,-y,z
1/2+x,1/2+y,1/2+z
1/2-x,1/2-y,1/2+z
1/2+x,1/2-y,1/2-z
1/2-x,1/2+y,1/2-z
1/2-x,1/2-y,1/2-z
1/2+x,1/2+y,1/2-z
1/2-x,1/2+y,1/2+z
1/2+x,1/2-y,1/2+z
loop_
_atom_site_type_symbol
_atom_site_label
_atom_site_fract_x
_atom_site_fract_y
_atom_site_fract_z
Si Si1 0.639313 0.119102 0.713573
Si Si2 0.000000 0.924603 0.783526
Si Si3 0.186899 0.246686 0.212817
Si Si4 0.614752 0.628053 0.281830
Si Si5 0.166672 0.000000 0.797017
Si Si6 0.712718 0.000000 0.286637
Si Si7 0.937702 0.425694 0.500000
O O1 0.631229 0.117971 0.500000
O O2 0.662589 0.186424 0.769577
O O3 0.680215 0.062883 0.759833
O O4 0.587015 0.105014 0.824453
O O5 0.053400 0.886151 0.730116
O O6 0.000000 0.000000 0.727657
O O7 0.000000 0.926882 0.000000
O O8 0.250000 0.250000 0.250000
O O9 0.149846 0.188548 0.279381
O O10 0.182951 0.243859 0.000000
O O11 0.614890 0.631242 0.500000
O O12 0.645433 0.565104 0.219212
O O13 0.229659 0.000000 0.796425
O O14 0.146150 0.000000 0.000000
O O15 0.719560 0.000000 0.500000
O O16 0.923859 0.500000 0.500000
O O17 0.000000 0.419227 0.500000
#
# Coordination Sequence:
#
# PCOD9517621 Si02
#       7
#    16   8  16  16   8   8   8
#     4  10  22  40  60  88 125 158 200 252 309 370
#     4   9  14  26  50  76 114 147 178 239 293 337
#     4  10  21  36  55  83 120 160 200 246 303 364
#     4   9  17  30  48  79 112 148 193 236 293 354
#     4  10  18  27  50  84 113 143 193 247 290 347
#     4  10  20  34  53  80 111 149 189 235 295 359
#     4  11  24  42  68  94 116 155 207 255 317 375
#
# _framework density 20.042933999999999
#
# number of rings (size 3 to 8) (size 9 to 14) (size 15 to 20)
#    0.000    2.200    2.000    1.200    2.800    0.400 
#    1.800    1.000    0.000    0.000    0.000    2.800 
#    0.000    0.000    0.000    0.000    0.000    0.000 
#
# Total GULP energy -223140.200711 kJ/mol
# GULP energy per Si atom -5578.505018 kJ/mol
# Density = 1.999732 g / cm^3
# Si number density = 20.042934 Si / 1000 Ang^3
#
#
#
# Elastic Constant Matrix: (Units=GPa)
#
#
# Indices 1 2 3 4 5 6 
#
# 1 128.3221 103.1407 31.8480 0.0000 0.0000 0.0000
# 2 103.1407 208.2115 29.0070 0.0000 0.0000 0.0000
# 3 31.8480 29.0070 48.9920 0.0000 0.0000 0.0000
# 4 0.0000 0.0000 0.0000 -13.4648 0.0000 0.0000
# 5 0.0000 0.0000 0.0000 0.0000 -107.2069 0.0000
# 6 0.0000 0.0000 0.0000 0.0000 0.0000 -38.5962
#
#
#
# Elastic Compliance Matrix: (Units=1/GPa)
#
#
# Indices 1 2 3 4 5 6 
#
# 1 0.014198 -0.006264 -0.005521 0.000000 0.000000 0.000000
# 2 -0.006264 0.007998 -0.000664 0.000000 0.000000 0.000000
# 3 -0.005521 -0.000664 0.024393 0.000000 0.000000 0.000000
# 4 0.000000 0.000000 0.000000 -0.074267 0.000000 0.000000
# 5 0.000000 0.000000 0.000000 0.000000 -0.009328 0.000000
# 6 0.000000 0.000000 0.000000 0.000000 0.000000 -0.025909
#
#
# Mechanical properties :
#
#
# Convention : Reuss Voigt Hill
#
# Bulk Modulus (GPa) = 46.09854 79.27966 62.68910
# Shear Modulus (GPa) = -162.40207 -17.08493 -89.74350
#
# Velocity S-wave (km/s) = -9.01127 -2.92278 -6.69872
# Velocity P-wave (km/s) = 9.23151 5.31513 5.33715
#
# Compressibility (1/GPa) = 0.02169266
#
# Stress axis : x y z
#
# Youngs Moduli (GPa) = 70.43322 125.02798 40.99504
#
# Poissons Ratio (x) = 0.78317 0.22632
# Poissons Ratio (y) = 0.44119 0.02720
# Poissons Ratio (z) = 0.38884 0.08296
#
# Static dielectric constant tensor:
#      x y z
#    x 1.682150 0.000000 0.000000 
#    y 0.000000 1.723150 0.000000 
#    z 0.000000 0.000000 1.746640 
# 
# From -- ./inp_files/12433.got.cif
#   From: 2010.05.17/outbox.cif.g08.bks.cpg/sg71_7_cif.got.tgz:12433.got - 2010.06.03 16:22:01.
