data_PCOD9517403
_publ_section_title
;
Structure prediction by ZEFSAII (Michael W. Deem and Ramdas Pophale) SiO2 
 PCOD9517403
Probable space group: I M M M
;
_chemical_formula_sum "Si O2"
_cell_formula_units_Z 90
_cell_length_a 7.377674
_cell_length_b 21.202190
_cell_length_c 29.215679
_cell_angle_alpha 90.000000
_cell_angle_beta 90.000000
_cell_angle_gamma 90.000000
_cell_volume 4569.999654
_symmetry_space_group_name_H-M "I M M M"
_symmetry_group_IT_number 71
_symmetry_cell_setting 'orthorhombic'
loop_
_space_group_symop_operation_xyz
x,y,z
-x,-y,z
x,-y,-z
-x,y,-z
-x,-y,-z
x,y,-z
-x,y,z
x,-y,z
1/2+x,1/2+y,1/2+z
1/2-x,1/2-y,1/2+z
1/2+x,1/2-y,1/2-z
1/2-x,1/2+y,1/2-z
1/2-x,1/2-y,1/2-z
1/2+x,1/2+y,1/2-z
1/2-x,1/2+y,1/2+z
1/2+x,1/2-y,1/2+z
loop_
_atom_site_type_symbol
_atom_site_label
_atom_site_fract_x
_atom_site_fract_y
_atom_site_fract_z
Si Si1 0.779543 0.700115 0.689870
Si Si2 0.000000 0.500000 0.500000
Si Si3 0.278284 0.927269 0.630002
Si Si4 0.211740 0.655045 0.214856
Si Si5 0.780590 0.329512 0.947116
Si Si6 0.797110 0.629030 0.500000
Si Si7 0.710797 0.809606 0.910650
O O1 0.714497 0.659610 0.733392
O O2 0.726545 0.773084 0.697048
O O3 0.713396 0.679992 0.639964
O O4 0.000000 0.699217 0.690463
O O5 0.844728 0.555971 0.500000
O O6 0.500000 0.926116 0.630379
O O7 0.214793 0.891690 0.676168
O O8 0.222562 0.886767 0.585647
O O9 0.222534 0.000000 0.628332
O O10 0.000000 0.638923 0.219216
O O11 0.722104 0.263876 0.924075
O O12 0.000000 0.329027 0.947675
O O13 0.720249 0.333523 0.000000
O O14 0.708934 0.652371 0.453269
O O15 0.000000 0.661576 0.500000
O O16 0.500000 0.828799 0.906952
#
# Coordination Sequence:
#
# PCOD9517403 Si02
#       7
#    16   2  16  16  16   8  16
#     4   9  17  26  43  67  91 110 141 193 231 270
#     4   8  16  32  48  68  94 124 158 168 206 296
#     4   9  17  29  45  62  89 128 161 189 229 278
#     4   9  16  28  44  63  87 117 149 183 231 274
#     4  10  19  29  44  69  95 118 154 200 233 265
#     4   8  16  28  47  65  90 120 146 174 215 270
#     4  10  17  28  46  70  94 118 150 186 235 269
#
# _framework density 19.693655
#
# number of rings (size 3 to 8) (size 9 to 14) (size 15 to 20)
#    0.267    2.489    2.667    0.000    0.000    0.356 
#    0.000    1.778    1.956    2.133    0.000    2.489 
#    0.000    0.000    0.000    0.000    0.000    0.000 
#
# Total GULP energy -250511.268834 kJ/mol
# GULP energy per Si atom -5566.917085 kJ/mol
# Density = 1.964883 g / cm^3
# Si number density = 19.693655 Si / 1000 Ang^3
#
#
#
# Elastic Constant Matrix: (Units=GPa)
#
#
# Indices 1 2 3 4 5 6 
#
# 1 67.3924 -3.8219 5.6518 0.0000 0.0000 0.0000
# 2 -3.8219 86.8784 53.1261 0.0000 0.0000 0.0000
# 3 5.6518 53.1261 203.4162 0.0000 0.0000 0.0000
# 4 0.0000 0.0000 0.0000 16.2973 0.0000 0.0000
# 5 0.0000 0.0000 0.0000 0.0000 -0.0176 0.0000
# 6 0.0000 0.0000 0.0000 0.0000 0.0000 14.1991
#
#
#
# Elastic Compliance Matrix: (Units=1/GPa)
#
#
# Indices 1 2 3 4 5 6 
#
# 1 0.014959 0.001086 -0.000699 0.000000 0.000000 0.000000
# 2 0.001086 0.013777 -0.003628 0.000000 0.000000 0.000000
# 3 -0.000699 -0.003628 0.005883 0.000000 0.000000 0.000000
# 4 0.000000 0.000000 0.000000 0.061360 0.000000 0.000000
# 5 0.000000 0.000000 0.000000 0.000000-56.950642 0.000000
# 6 0.000000 0.000000 0.000000 0.000000 0.000000 0.070427
#
#
# Mechanical properties :
#
#
# Convention : Reuss Voigt Hill
#
# Bulk Modulus (GPa) = 35.54310 51.95547 43.74929
# Shear Modulus (GPa) = -0.08808 26.27782 13.09487
#
# Velocity S-wave (km/s) = -0.21171 3.65681 2.58142
# Velocity P-wave (km/s) = 4.24587 6.65348 5.58105
#
# Compressibility (1/GPa) = 0.02813485
#
# Stress axis : x y z
#
# Youngs Moduli (GPa) = 66.85090 72.58603 169.98025
#
# Poissons Ratio (x) = -0.07880 0.11884
# Poissons Ratio (y) = -0.07257 0.61673
# Poissons Ratio (z) = 0.04674 0.26336
#
# Static dielectric constant tensor:
#      x y z
#    x 1.780370 0.000000 0.000000 
#    y 0.000000 1.619220 0.000000 
#    z 0.000000 0.000000 1.757000 
# 
# From -- ./inp_files/68207.got.cif
#   From: 2010.05.17/outbox.cif.g08.bks.cpg/sg71_35_cif.got.tgz:68207.got - 2010.06.03 16:22:01.
