data_PCOD9517430
_publ_section_title
;
Structure prediction by ZEFSAII (Michael W. Deem and Ramdas Pophale) SiO2 
 PCOD9517430
Probable space group: I M M M
;
_chemical_formula_sum "Si O2"
_cell_formula_units_Z 96
_cell_length_a 26.075314
_cell_length_b 22.404660
_cell_length_c 7.372467
_cell_angle_alpha 90.000000
_cell_angle_beta 90.000000
_cell_angle_gamma 90.000000
_cell_volume 4307.058216
_symmetry_space_group_name_H-M "I M M M"
_symmetry_group_IT_number 71
_symmetry_cell_setting 'orthorhombic'
loop_
_space_group_symop_operation_xyz
x,y,z
-x,-y,z
x,-y,-z
-x,y,-z
-x,-y,-z
x,y,-z
-x,y,z
x,-y,z
1/2+x,1/2+y,1/2+z
1/2-x,1/2-y,1/2+z
1/2+x,1/2-y,1/2-z
1/2-x,1/2+y,1/2-z
1/2-x,1/2-y,1/2-z
1/2+x,1/2+y,1/2-z
1/2-x,1/2+y,1/2+z
1/2+x,1/2-y,1/2+z
loop_
_atom_site_type_symbol
_atom_site_label
_atom_site_fract_x
_atom_site_fract_y
_atom_site_fract_z
Si Si1 0.346699 0.711548 0.281978
Si Si2 0.848212 0.651501 0.222538
Si Si3 0.737413 0.614865 0.212741
Si Si4 0.941217 0.000000 0.754731
Si Si5 0.441901 0.068692 0.720830
Si Si6 0.173672 0.000000 0.724160
Si Si7 0.556632 0.633115 0.280005
O O1 0.348493 0.712963 0.500000
O O2 0.348629 0.779580 0.218922
O O3 0.295801 0.674985 0.232414
O O4 0.396578 0.674359 0.222285
O O5 0.794635 0.622813 0.284986
O O6 0.897666 0.613764 0.280390
O O7 0.848206 0.651553 0.000000
O O8 0.704589 0.558974 0.280414
O O9 0.743475 0.602871 0.000000
O O10 0.881904 0.000000 0.813560
O O11 0.941059 0.068469 0.687954
O O12 0.000000 0.000000 0.828280
O O13 0.441699 0.069336 0.500000
O O14 0.500000 0.084466 0.777158
O O15 0.431738 0.000000 0.774937
O O16 0.166545 0.000000 0.500000
O O17 0.560714 0.622397 0.500000
O O18 0.500000 0.659404 0.248291
#
# Coordination Sequence:
#
# PCOD9517430 Si02
#       7
#    16  16  16   8  16   8  16
#     4  10  19  32  49  71  97 126 161 197 236 282
#     4   9  18  29  46  69  94 128 162 191 232 287
#     4  10  20  34  49  68  97 129 161 196 237 284
#     4  10  17  29  46  63  87 119 161 201 237 277
#     4   8  14  25  42  67  98 127 156 194 239 283
#     4  10  20  32  47  68  91 123 165 201 237 279
#     4   9  17  28  44  66  92 122 155 193 237 283
#
# _framework density 22.288996000000001
#
# number of rings (size 3 to 8) (size 9 to 14) (size 15 to 20)
#    0.000    2.667    1.667    1.250    1.167    1.833 
#    0.000    3.750    0.000    0.500    0.000    0.000 
#    0.000    2.000    0.000    7.333    0.000    6.667 
#
# Total GULP energy -267592.791054 kJ/mol
# GULP energy per Si atom -5574.849814 kJ/mol
# Density = 2.223826 g / cm^3
# Si number density = 22.288996 Si / 1000 Ang^3
#
#
#
# Elastic Constant Matrix: (Units=GPa)
#
#
# Indices 1 2 3 4 5 6 
#
# 1 230.2719 119.0099 8.6302 0.0000 0.0000 0.0000
# 2 119.0099 145.9353 3.8062 0.0000 0.0000 0.0000
# 3 8.6302 3.8062 85.6964 0.0000 0.0000 0.0000
# 4 0.0000 0.0000 0.0000 -3.9839 0.0000 0.0000
# 5 0.0000 0.0000 0.0000 0.0000 5.5798 0.0000
# 6 0.0000 0.0000 0.0000 0.0000 0.0000 20.7342
#
#
#
# Elastic Compliance Matrix: (Units=1/GPa)
#
#
# Indices 1 2 3 4 5 6 
#
# 1 0.007527 -0.006125 -0.000486 0.000000 0.000000 0.000000
# 2 -0.006125 0.011845 0.000091 0.000000 0.000000 0.000000
# 3 -0.000486 0.000091 0.011714 0.000000 0.000000 0.000000
# 4 0.000000 0.000000 0.000000 -0.251011 0.000000 0.000000
# 5 0.000000 0.000000 0.000000 0.000000 0.179218 0.000000
# 6 0.000000 0.000000 0.000000 0.000000 0.000000 0.048230
#
#
# Mechanical properties :
#
#
# Convention : Reuss Voigt Hill
#
# Bulk Modulus (GPa) = 55.41740 80.53290 67.97515
# Shear Modulus (GPa) = 188.13099 26.49651 107.31375
#
# Velocity S-wave (km/s) = 9.19720 3.45160 6.94630
# Velocity P-wave (km/s) = 11.73464 7.21764 9.74157
#
# Compressibility (1/GPa) = 0.01804487
#
# Stress axis : x y z
#
# Youngs Moduli (GPa) = 132.86288 84.42320 85.36787
#
# Poissons Ratio (x) = 0.51711 0.04148
# Poissons Ratio (y) = 0.81381 -0.00775
# Poissons Ratio (z) = 0.06456 -0.00766
#
# Static dielectric constant tensor:
#      x y z
#    x 1.776670 0.000000 0.000000 
#    y 0.000000 1.765060 0.000000 
#    z 0.000000 0.000000 1.951500 
# 
# From -- ./inp_files/26021.got.cif
#   From: 2010.05.17/outbox.cif.g08.bks.cpg/sg71_14_cif.got.tgz:26021.got - 2010.06.03 16:22:01.
