data_PCOD9517930
_publ_section_title
;
Structure prediction by ZEFSAII (Michael W. Deem and Ramdas Pophale) SiO2 
 PCOD9517930
Probable space group: I M M M
;
_chemical_formula_sum "Si O2"
_cell_formula_units_Z 56
_cell_length_a 25.491940
_cell_length_b 8.792908
_cell_length_c 14.662730
_cell_angle_alpha 90.000000
_cell_angle_beta 90.000000
_cell_angle_gamma 90.000000
_cell_volume 3286.625756
_symmetry_space_group_name_H-M "I M M M"
_symmetry_group_IT_number 71
_symmetry_cell_setting 'orthorhombic'
loop_
_space_group_symop_operation_xyz
x,y,z
-x,-y,z
x,-y,-z
-x,y,-z
-x,-y,-z
x,y,-z
-x,y,z
x,-y,z
1/2+x,1/2+y,1/2+z
1/2-x,1/2-y,1/2+z
1/2+x,1/2-y,1/2-z
1/2-x,1/2+y,1/2-z
1/2-x,1/2-y,1/2-z
1/2+x,1/2+y,1/2-z
1/2-x,1/2+y,1/2+z
1/2+x,1/2-y,1/2+z
loop_
_atom_site_type_symbol
_atom_site_label
_atom_site_fract_x
_atom_site_fract_y
_atom_site_fract_z
Si Si1 0.000000 0.314163 0.393355
Si Si2 0.716500 0.177047 0.500000
Si Si3 0.800237 0.819439 0.195784
Si Si4 0.389231 0.176795 0.815470
Si Si5 0.677275 0.831216 0.000000
O O1 0.052427 0.267822 0.339714
O O2 0.000000 0.500000 0.396116
O O3 0.000000 0.265091 0.500000
O O4 0.698179 0.255143 0.406652
O O5 0.779210 0.202746 0.500000
O O6 0.703156 0.000000 0.500000
O O7 0.750000 0.750000 0.250000
O O8 0.853503 0.771276 0.246794
O O9 0.793804 0.000000 0.194953
O O10 0.391846 0.000000 0.784824
O O11 0.358398 0.177671 0.911304
O O12 0.703237 0.000000 0.000000
#
# Coordination Sequence:
#
# PCOD9517930 Si02
#       5
#     8   8  16  16   8
#     4   9  16  30  55  86 115 150 189 229 276 330
#     4  12  24  38  57  82 112 147 189 233 287 341
#     4  12  24  38  56  81 114 151 190 232 284 337
#     4  10  19  33  55  84 117 152 191 230 275 332
#     4  10  18  29  52  82 117 152 187 225 268 325
#
# _framework density 17.038751000000001
#
# number of rings (size 3 to 8) (size 9 to 14) (size 15 to 20)
#    0.000    1.286    4.286    3.857    0.000    0.000 
#    0.000    0.714    0.000    1.714    0.000    6.000 
#    0.000    0.000    0.000    0.000    0.000    0.000 
#
# Total GULP energy -156336.314012 kJ/mol
# GULP energy per Si atom -5583.439786 kJ/mol
# Density = 1.699997 g / cm^3
# Si number density = 17.038751 Si / 1000 Ang^3
#
#
#
# Elastic Constant Matrix: (Units=GPa)
#
#
# Indices 1 2 3 4 5 6 
#
# 1 125.9786 46.6931 64.8301 0.0000 0.0000 0.0000
# 2 46.6931 117.4742 66.5831 0.0000 0.0000 0.0000
# 3 64.8301 66.5831 138.6092 0.0000 0.0000 0.0000
# 4 0.0000 0.0000 0.0000 25.2911 0.0000 0.0000
# 5 0.0000 0.0000 0.0000 0.0000 25.6057 0.0000
# 6 0.0000 0.0000 0.0000 0.0000 0.0000 20.9812
#
#
#
# Elastic Compliance Matrix: (Units=1/GPa)
#
#
# Indices 1 2 3 4 5 6 
#
# 1 0.010773 -0.001960 -0.004097 0.000000 0.000000 0.000000
# 2 -0.001960 0.012054 -0.004874 0.000000 0.000000 0.000000
# 3 -0.004097 -0.004874 0.011472 0.000000 0.000000 0.000000
# 4 0.000000 0.000000 0.000000 0.039540 0.000000 0.000000
# 5 0.000000 0.000000 0.000000 0.000000 0.039054 0.000000
# 6 0.000000 0.000000 0.000000 0.000000 0.000000 0.047662
#
#
# Mechanical properties :
#
#
# Convention : Reuss Voigt Hill
#
# Bulk Modulus (GPa) = 80.40261 82.03054 81.21658
# Shear Modulus (GPa) = 26.80098 27.97265 27.38681
#
# Velocity S-wave (km/s) = 3.97034 4.05619 4.01350
# Velocity P-wave (km/s) = 8.26490 8.37765 8.32147
#
# Compressibility (1/GPa) = 0.01243741
#
# Stress axis : x y z
#
# Youngs Moduli (GPa) = 92.82756 82.96182 87.16846
#
# Poissons Ratio (x) = 0.16257 0.35715
# Poissons Ratio (y) = 0.18190 0.42483
# Poissons Ratio (z) = 0.38034 0.40433
#
# Static dielectric constant tensor:
#      x y z
#    x 1.573990 0.000000 0.000000 
#    y 0.000000 1.597290 0.000000 
#    z 0.000000 0.000000 1.565670 
# 
# From -- ./inp_files/3383.got.cif
#   From: 2010.05.17/outbox.cif.g08.bks.cpg/sg71_2_cif.got.tgz:3383.got - 2010.06.03 16:22:01.
