data_PCOD9517182
_publ_section_title
;
Structure prediction by ZEFSAII (Michael W. Deem and Ramdas Pophale) SiO2 
 PCOD9517182
Probable space group: F D D D
;
_chemical_formula_sum "Si O2"
_cell_formula_units_Z 34
_cell_length_a 12.000000
_cell_length_b 21.000000
_cell_length_c 27.000000
_cell_angle_alpha 90.000000
_cell_angle_beta 90.000000
_cell_angle_gamma 90.000000
_cell_volume 6804.000000
_symmetry_space_group_name_H-M "F D D D"
_symmetry_group_IT_number 70
_space_group.IT_coordinate_system_code '2'
_symmetry_cell_setting 'orthorhombic'
loop_
_space_group_symop_operation_xyz
x,y,z
1/4-x,1/4-y,z
x,1/4-y,1/4-z
1/4-x,y,1/4-z
-x,-y,-z
3/4+x,3/4+y,-z
-x,3/4+y,3/4+z
3/4+x,-y,3/4+z
x,1/2+y,1/2+z
1/4-x,3/4-y,1/2+z
x,3/4-y,3/4-z
1/4-x,1/2+y,3/4-z
-x,1/2-y,1/2-z
3/4+x,1/4+y,1/2-z
-x,1/4+y,1/4+z
3/4+x,1/2-y,1/4+z
1/2+x,y,1/2+z
3/4-x,1/4-y,1/2+z
1/2+x,1/4-y,3/4-z
3/4-x,y,3/4-z
1/2-x,-y,1/2-z
1/4+x,3/4+y,1/2-z
1/2-x,3/4+y,1/4+z
1/4+x,-y,1/4+z
1/2+x,1/2+y,z
3/4-x,3/4-y,z
1/2+x,3/4-y,1/4-z
3/4-x,1/2+y,1/4-z
1/2-x,1/2-y,-z
1/4+x,1/4+y,-z
1/2-x,1/4+y,3/4+z
1/4+x,1/2-y,3/4+z
loop_
_atom_site_type_symbol
_atom_site_label
_atom_site_fract_x
_atom_site_fract_y
_atom_site_fract_z
Si Si1 0.824495 0.539784 0.997599
Si Si2 0.875000 0.375000 0.875000
Si Si3 0.757798 0.802469 0.857916
Si Si4 0.223868 0.256913 0.351938
Si Si5 0.713501 0.179495 0.951382
O O1 0.760941 0.553775 0.048650
O O2 0.892791 0.475872 0.012608
O O3 0.748472 0.528375 0.949531
O O4 0.924075 0.588210 0.981465
O O5 0.791056 0.324247 0.849318
O O6 0.756673 0.875000 0.875000
O O7 0.875000 0.773231 0.875000
O O8 0.655065 0.769674 0.885873
O O9 0.255578 0.217288 0.402117
O O10 0.625000 0.125000 0.937439
#
# Coordination Sequence:
#
# PCOD9517182 Si02
#       5
#    32   8  32  32  32
#     4  10  22  38  65  95 126 177 226 266 351 389
#     4  12  20  36  74 104 136 160 232 288 324 408
#     4  10  23  42  60  89 129 174 230 279 322 412
#     4  11  22  40  68 103 132 173 223 282 343 400
#     4  10  22  38  60 102 140 161 217 283 334 415
#
# _framework density 4.9970610000000004
#
# number of rings (size 3 to 8) (size 9 to 14) (size 15 to 20)
#    0.000    1.647    3.529    0.000    4.941    0.941 
#    4.235    9.412    0.000    0.000    0.000    0.000 
#    0.000    0.000    0.000    0.000    0.000    0.000 
#
# Total GULP energy -189521.424173 kJ/mol
# GULP energy per Si atom -5574.159535 kJ/mol
# Density = 0.498569 g / cm^3
# Si number density = 4.997061 Si / 1000 Ang^3
#
#
#
# Elastic Constant Matrix: (Units=GPa)
#
#
# Indices 1 2 3 4 5 6 
#
# 1 145.3318 20.0838 80.4636 0.0000 0.0000 0.0000
# 2 20.0838 38.6435 17.0826 0.0000 0.0000 0.0000
# 3 80.4636 17.0826 172.3581 0.0000 0.0000 0.0000
# 4 0.0000 0.0000 0.0000 17.6932 0.0000 0.0000
# 5 0.0000 0.0000 0.0000 0.0000 -4.0130 0.0000
# 6 0.0000 0.0000 0.0000 0.0000 0.0000 28.1125
#
#
#
# Elastic Compliance Matrix: (Units=1/GPa)
#
#
# Indices 1 2 3 4 5 6 
#
# 1 0.009634 -0.003157 -0.004185 0.000000 0.000000 0.000000
# 2 -0.003157 0.028098 -0.001311 0.000000 0.000000 0.000000
# 3 -0.004185 -0.001311 0.007885 0.000000 0.000000 0.000000
# 4 0.000000 0.000000 0.000000 0.056519 0.000000 0.000000
# 5 0.000000 0.000000 0.000000 0.000000 -0.249192 0.000000
# 6 0.000000 0.000000 0.000000 0.000000 0.000000 0.035571
#
#
# Mechanical properties :
#
#
# Convention : Reuss Voigt Hill
#
# Bulk Modulus (GPa) = 35.32092 65.73260 50.52676
# Shear Modulus (GPa) = -59.00260 24.27212 -17.36524
#
# Velocity S-wave (km/s) = -5.43900 3.48849 -2.95069
# Velocity P-wave (km/s) = 4.66202 7.01307 3.70464
#
# Compressibility (1/GPa) = 0.02831183
#
# Stress axis : x y z
#
# Youngs Moduli (GPa) = 103.80007 35.58987 126.81774
#
# Poissons Ratio (x) = 0.11236 0.53068
# Poissons Ratio (y) = 0.32771 0.16625
# Poissons Ratio (z) = 0.43436 0.04666
#
# Static dielectric constant tensor:
#      x y z
#    x 1.798280 0.000000 0.000000 
#    y 0.000000 1.730560 0.000000 
#    z 0.000000 0.000000 1.686430 
# 
# From -- ./inp_files/18951.got.cif
#   From: 2010.05.17/outbox.ucp.g08.bks.cvg/sg70_10_cif.got.tgz:18951.got - 2010.06.11 16:26:41.
