data_PCOD9517969
_publ_section_title
;
Structure prediction by ZEFSAII (Michael W. Deem and Ramdas Pophale) SiO2 
 PCOD9517969
Probable space group: I M M M
;
_chemical_formula_sum "Si O2"
_cell_formula_units_Z 96
_cell_length_a 28.043268
_cell_length_b 22.711279
_cell_length_c 7.332952
_cell_angle_alpha 90.000000
_cell_angle_beta 90.000000
_cell_angle_gamma 90.000000
_cell_volume 4670.346009
_symmetry_space_group_name_H-M "I M M M"
_symmetry_group_IT_number 71
_symmetry_cell_setting 'orthorhombic'
loop_
_space_group_symop_operation_xyz
x,y,z
-x,-y,z
x,-y,-z
-x,y,-z
-x,-y,-z
x,y,-z
-x,y,z
x,-y,z
1/2+x,1/2+y,1/2+z
1/2-x,1/2-y,1/2+z
1/2+x,1/2-y,1/2-z
1/2-x,1/2+y,1/2-z
1/2-x,1/2-y,1/2-z
1/2+x,1/2+y,1/2-z
1/2-x,1/2+y,1/2+z
1/2+x,1/2-y,1/2+z
loop_
_atom_site_type_symbol
_atom_site_label
_atom_site_fract_x
_atom_site_fract_y
_atom_site_fract_z
Si Si1 0.592714 0.638596 0.717681
Si Si2 0.945235 0.500000 0.277914
Si Si3 0.183907 0.068069 0.777808
Si Si4 0.389524 0.882427 0.222790
Si Si5 0.554496 0.232572 0.217373
Si Si6 0.708853 0.068137 0.778304
Si Si7 0.500000 0.567813 0.722893
O O1 0.593569 0.630797 0.500000
O O2 0.642278 0.611350 0.785687
O O3 0.582503 0.706884 0.751525
O O4 0.547243 0.601654 0.785043
O O5 0.944921 0.500000 0.500000
O O6 0.918231 0.559152 0.221703
O O7 0.000000 0.500000 0.219470
O O8 0.237630 0.083851 0.719183
O O9 0.174343 0.000000 0.725834
O O10 0.184271 0.068853 0.000000
O O11 0.416387 0.823882 0.285880
O O12 0.334756 0.891092 0.280981
O O13 0.389455 0.881437 0.000000
O O14 0.500000 0.236475 0.287752
O O15 0.550741 0.225221 0.000000
O O16 0.699651 0.000000 0.725898
O O17 0.708961 0.068698 0.000000
O O18 0.500000 0.500000 0.777978
O O19 0.500000 0.568894 0.500000
#
# Coordination Sequence:
#
# PCOD9517969 Si02
#       7
#    16   8  16  16  16  16   8
#     4  10  18  30  47  67  89 116 150 184 221 267
#     4   9  14  20  34  58  85 111 147 192 226 257
#     4   8  14  24  42  67  90 109 138 185 234 269
#     4   9  15  24  39  60  87 119 150 181 223 267
#     4  10  20  32  44  61  91 127 154 179 218 267
#     4   8  12  21  38  62  90 115 139 178 232 275
#     4   9  16  26  45  69  87 104 139 190 230 257
#
# _framework density 20.555222000000001
#
# number of rings (size 3 to 8) (size 9 to 14) (size 15 to 20)
#    0.000    3.000    1.667    2.000    0.000    4.000 
#    0.000    0.833    0.000    2.500    0.000    0.583 
#    0.000    3.333    0.000    0.000    0.000    0.000 
#
# Total GULP energy -267944.709440 kJ/mol
# GULP energy per Si atom -5582.181447 kJ/mol
# Density = 2.050844 g / cm^3
# Si number density = 20.555222 Si / 1000 Ang^3
#
#
#
# Elastic Constant Matrix: (Units=GPa)
#
#
# Indices 1 2 3 4 5 6 
#
# 1 225.0084 131.5679 7.1406 0.0000 0.0000 0.0000
# 2 131.5679 181.1476 -0.9016 0.0000 0.0000 0.0000
# 3 7.1406 -0.9016 79.1465 0.0000 0.0000 0.0000
# 4 0.0000 0.0000 0.0000 8.5515 0.0000 0.0000
# 5 0.0000 0.0000 0.0000 0.0000 -10.6115 0.0000
# 6 0.0000 0.0000 0.0000 0.0000 0.0000 28.9250
#
#
#
# Elastic Compliance Matrix: (Units=1/GPa)
#
#
# Indices 1 2 3 4 5 6 
#
# 1 0.007771 -0.005648 -0.000765 0.000000 0.000000 0.000000
# 2 -0.005648 0.009626 0.000619 0.000000 0.000000 0.000000
# 3 -0.000765 0.000619 0.012711 0.000000 0.000000 0.000000
# 4 0.000000 0.000000 0.000000 0.116939 0.000000 0.000000
# 5 0.000000 0.000000 0.000000 0.000000 -0.094237 0.000000
# 6 0.000000 0.000000 0.000000 0.000000 0.000000 0.034572
#
#
# Mechanical properties :
#
#
# Convention : Reuss Voigt Hill
#
# Bulk Modulus (GPa) = 53.99812 84.54626 69.27219
# Shear Modulus (GPa) = 47.55441 28.53937 38.04689
#
# Velocity S-wave (km/s) = 4.81510 3.73020 4.30695
# Velocity P-wave (km/s) = 7.56574 7.73131 7.64897
#
# Compressibility (1/GPa) = 0.01851916
#
# Stress axis : x y z
#
# Youngs Moduli (GPa) = 128.68257 103.89012 78.67254
#
# Poissons Ratio (x) = 0.58677 0.06022
# Poissons Ratio (y) = 0.72679 -0.04871
# Poissons Ratio (z) = 0.09850 -0.06433
#
# Static dielectric constant tensor:
#      x y z
#    x 1.728130 0.000000 0.000000 
#    y 0.000000 1.676960 0.000000 
#    z 0.000000 0.000000 1.833260 
# 
# From -- ./inp_files/27600.got.cif
#   From: 2010.05.17/outbox.cif.g08.bks.cpg/sg71_14_cif.got.tgz:27600.got - 2010.06.03 16:22:01.
