data_PCOD9517358
_publ_section_title
;
Structure prediction by ZEFSAII (Michael W. Deem and Ramdas Pophale) SiO2 
 PCOD9517358
Probable space group: I M M M
;
_chemical_formula_sum "Si O2"
_cell_formula_units_Z 72
_cell_length_a 7.494496
_cell_length_b 14.984149
_cell_length_c 32.699242
_cell_angle_alpha 90.000000
_cell_angle_beta 90.000000
_cell_angle_gamma 90.000000
_cell_volume 3672.080561
_symmetry_space_group_name_H-M "I M M M"
_symmetry_group_IT_number 71
_symmetry_cell_setting 'orthorhombic'
loop_
_space_group_symop_operation_xyz
x,y,z
-x,-y,z
x,-y,-z
-x,y,-z
-x,-y,-z
x,y,-z
-x,y,z
x,-y,z
1/2+x,1/2+y,1/2+z
1/2-x,1/2-y,1/2+z
1/2+x,1/2-y,1/2-z
1/2-x,1/2+y,1/2-z
1/2-x,1/2-y,1/2-z
1/2+x,1/2+y,1/2-z
1/2-x,1/2+y,1/2+z
1/2+x,1/2-y,1/2+z
loop_
_atom_site_type_symbol
_atom_site_label
_atom_site_fract_x
_atom_site_fract_y
_atom_site_fract_z
Si Si1 0.199025 0.500000 0.048482
Si Si2 0.783897 0.500000 0.258687
Si Si3 0.296595 0.301310 0.045962
Si Si4 0.280036 0.304430 0.866575
Si Si5 0.713419 0.189607 0.210482
Si Si6 0.710645 0.500000 0.837998
O O1 0.297937 0.407694 0.055455
O O2 0.000000 0.500000 0.066645
O O3 0.177174 0.500000 0.000000
O O4 0.718825 0.590345 0.280190
O O5 0.734740 0.500000 0.210833
O O6 0.000000 0.500000 0.259996
O O7 0.500000 0.269462 0.043436
O O8 0.217578 0.268981 0.088961
O O9 0.217811 0.288849 0.000000
O O10 0.500000 0.305203 0.867266
O O11 0.221299 0.240282 0.829845
O O12 0.220717 0.405964 0.855973
O O13 0.500000 0.183060 0.206089
O O14 0.750000 0.250000 0.250000
O O15 0.500000 0.500000 0.846807
#
# Coordination Sequence:
#
# PCOD9517358 Si02
#       6
#     8   8  16  16  16   8
#     4   9  16  25  37  56  85 117 143 172 217 264
#     4  10  20  31  45  67  91 114 145 184 222 258
#     4   9  16  27  43  60  79 109 151 189 213 248
#     4   9  17  28  44  65  87 114 148 183 220 259
#     4  10  19  32  48  66  90 117 147 183 222 266
#     4  10  17  27  44  63  85 118 152 178 212 261
#
# _framework density 19.607413999999999
#
# number of rings (size 3 to 8) (size 9 to 14) (size 15 to 20)
#    0.000    2.556    2.222    1.000    0.000    3.111 
#    0.000    3.333    0.000    0.000    0.000    0.778 
#    0.000    6.222    0.000    0.000    0.000   13.444 
#
# Total GULP energy -200563.469572 kJ/mol
# GULP energy per Si atom -5571.207488 kJ/mol
# Density = 1.956279 g / cm^3
# Si number density = 19.607414 Si / 1000 Ang^3
#
#
#
# Elastic Constant Matrix: (Units=GPa)
#
#
# Indices 1 2 3 4 5 6 
#
# 1 56.2968 3.4837 1.3895 0.0000 0.0000 0.0000
# 2 3.4837 109.3207 76.0283 0.0000 0.0000 0.0000
# 3 1.3895 76.0283 223.9675 0.0000 0.0000 0.0000
# 4 0.0000 0.0000 0.0000 24.7453 0.0000 0.0000
# 5 0.0000 0.0000 0.0000 0.0000 13.5430 0.0000
# 6 0.0000 0.0000 0.0000 0.0000 0.0000 0.7970
#
#
#
# Elastic Compliance Matrix: (Units=1/GPa)
#
#
# Indices 1 2 3 4 5 6 
#
# 1 0.017800 -0.000642 0.000108 0.000000 0.000000 0.000000
# 2 -0.000642 0.011997 -0.004069 0.000000 0.000000 0.000000
# 3 0.000108 -0.004069 0.005845 0.000000 0.000000 0.000000
# 4 0.000000 0.000000 0.000000 0.040412 0.000000 0.000000
# 5 0.000000 0.000000 0.000000 0.000000 0.073839 0.000000
# 6 0.000000 0.000000 0.000000 0.000000 0.000000 1.254735
#
#
# Mechanical properties :
#
#
# Convention : Reuss Voigt Hill
#
# Bulk Modulus (GPa) = 37.82632 61.26532 49.54582
# Shear Modulus (GPa) = 3.51457 28.39595 15.95526
#
# Velocity S-wave (km/s) = 1.34028 3.80968 2.85570
# Velocity P-wave (km/s) = 4.66142 7.11796 6.01641
#
# Compressibility (1/GPa) = 0.02643662
#
# Stress axis : x y z
#
# Youngs Moduli (GPa) = 56.17952 83.35087 171.07373
#
# Poissons Ratio (x) = 0.05351 -0.01839
# Poissons Ratio (y) = 0.03607 0.69605
# Poissons Ratio (z) = -0.00604 0.33913
#
# Static dielectric constant tensor:
#      x y z
#    x 1.794610 0.000000 0.000000 
#    y 0.000000 1.672770 0.000000 
#    z 0.000000 0.000000 1.745290 
# 
# From -- ./inp_files/67869.got.cif
#   From: 2010.05.17/outbox.cif.g08.bks.cpg/sg71_34_cif.got.tgz:67869.got - 2010.06.03 16:22:01.
