data_PCOD9517602
_publ_section_title
;
Structure prediction by ZEFSAII (Michael W. Deem and Ramdas Pophale) SiO2 
 PCOD9517602
Probable space group: I M M M
;
_chemical_formula_sum "Si O2"
_cell_formula_units_Z 72
_cell_length_a 15.002185
_cell_length_b 7.532405
_cell_length_c 34.823724
_cell_angle_alpha 90.000000
_cell_angle_beta 90.000000
_cell_angle_gamma 90.000000
_cell_volume 3935.169031
_symmetry_space_group_name_H-M "I M M M"
_symmetry_group_IT_number 71
_symmetry_cell_setting 'orthorhombic'
loop_
_space_group_symop_operation_xyz
x,y,z
-x,-y,z
x,-y,-z
-x,y,-z
-x,-y,-z
x,y,-z
-x,y,z
x,-y,z
1/2+x,1/2+y,1/2+z
1/2-x,1/2-y,1/2+z
1/2+x,1/2-y,1/2-z
1/2-x,1/2+y,1/2-z
1/2-x,1/2-y,1/2-z
1/2+x,1/2+y,1/2-z
1/2-x,1/2+y,1/2+z
1/2+x,1/2-y,1/2+z
loop_
_atom_site_type_symbol
_atom_site_label
_atom_site_fract_x
_atom_site_fract_y
_atom_site_fract_z
Si Si1 0.898454 0.217183 0.808471
Si Si2 0.601928 0.789724 0.084374
Si Si3 0.101656 0.788409 0.500000
Si Si4 0.772406 0.294479 0.349443
Si Si5 0.897117 0.214487 0.720918
O O1 0.823310 0.282319 0.837652
O O2 0.876418 0.270410 0.764580
O O3 0.000000 0.270880 0.816828
O O4 0.897052 0.000000 0.808470
O O5 0.500000 0.717134 0.086163
O O6 0.668212 0.714420 0.116436
O O7 0.594276 0.000000 0.091646
O O8 0.638851 0.767144 0.041201
O O9 0.000000 0.716710 0.500000
O O10 0.098756 0.000000 0.500000
O O11 0.756050 0.500000 0.359924
O O12 0.831733 0.288625 0.310955
O O13 0.000000 0.263909 0.712826
O O14 0.891890 0.000000 0.719477
#
# Coordination Sequence:
#
# PCOD9517602 Si02
#       5
#    16  16   8  16  16
#     4   8  15  28  43  59  82 113 147 180 214 248
#     4   9  17  28  41  60  87 112 131 159 203 248
#     4   9  17  29  45  63  82 107 136 160 189 241
#     4  10  18  27  43  65  85 109 143 179 211 246
#     4   9  17  28  41  58  84 117 146 174 212 252
#
# _framework density 18.296544000000001
#
# number of rings (size 3 to 8) (size 9 to 14) (size 15 to 20)
#    0.000    3.000    0.000    3.000    0.000    3.556 
#    0.000    2.222    0.000    2.000    0.000    0.778 
#    0.000    6.222    0.000    0.000    0.000    0.000 
#
# Total GULP energy -200694.594686 kJ/mol
# GULP energy per Si atom -5574.849852 kJ/mol
# Density = 1.825490 g / cm^3
# Si number density = 18.296544 Si / 1000 Ang^3
#
#
#
# Elastic Constant Matrix: (Units=GPa)
#
#
# Indices 1 2 3 4 5 6 
#
# 1 94.7151 -1.5306 91.6123 0.0000 0.0000 0.0000
# 2 -1.5306 44.3020 -1.1006 0.0000 0.0000 0.0000
# 3 91.6123 -1.1006 126.3349 0.0000 0.0000 0.0000
# 4 0.0000 0.0000 0.0000 10.0711 0.0000 0.0000
# 5 0.0000 0.0000 0.0000 0.0000 27.6572 0.0000
# 6 0.0000 0.0000 0.0000 0.0000 0.0000 3.8916
#
#
#
# Elastic Compliance Matrix: (Units=1/GPa)
#
#
# Indices 1 2 3 4 5 6 
#
# 1 0.035373 0.000585 -0.025646 0.000000 0.000000 0.000000
# 2 0.000585 0.022587 -0.000227 0.000000 0.000000 0.000000
# 3 -0.025646 -0.000227 0.026511 0.000000 0.000000 0.000000
# 4 0.000000 0.000000 0.000000 0.099294 0.000000 0.000000
# 5 0.000000 0.000000 0.000000 0.000000 0.036157 0.000000
# 6 0.000000 0.000000 0.000000 0.000000 0.000000 0.256962
#
#
# Mechanical properties :
#
#
# Convention : Reuss Voigt Hill
#
# Bulk Modulus (GPa) = 29.50363 49.25712 39.38038
# Shear Modulus (GPa) = 9.28058 20.08204 14.68131
#
# Velocity S-wave (km/s) = 2.25462 3.31658 2.83576
# Velocity P-wave (km/s) = 4.78937 6.45339 5.68262
#
# Compressibility (1/GPa) = 0.03389413
#
# Stress axis : x y z
#
# Youngs Moduli (GPa) = 28.26990 44.27340 37.72045
#
# Poissons Ratio (x) = -0.02590 0.96738
# Poissons Ratio (y) = -0.01654 0.00858
# Poissons Ratio (z) = 0.72501 0.01007
#
# Static dielectric constant tensor:
#      x y z
#    x 1.642810 0.000000 0.000000 
#    y 0.000000 1.672740 0.000000 
#    z 0.000000 0.000000 1.633950 
# 
# From -- ./inp_files/6437.got.cif
#   From: 2010.05.17/outbox.cif.g08.bks.cpg/sg71_4_cif.got.tgz:6437.got - 2010.06.03 16:22:01.
