data_PCOD9517161
_publ_section_title
;
Structure prediction by ZEFSAII (Michael W. Deem and Ramdas Pophale) SiO2 
 PCOD9517161
Probable space group: F D D D
;
_chemical_formula_sum "Si O2"
_cell_formula_units_Z 48
_cell_length_a 18.000000
_cell_length_b 30.000000
_cell_length_c 18.000000
_cell_angle_alpha 90.000000
_cell_angle_beta 90.000000
_cell_angle_gamma 90.000000
_cell_volume 9720.000000
_symmetry_space_group_name_H-M "F D D D"
_symmetry_group_IT_number 70
_space_group.IT_coordinate_system_code '2'
_symmetry_cell_setting 'orthorhombic'
loop_
_space_group_symop_operation_xyz
x,y,z
1/4-x,1/4-y,z
x,1/4-y,1/4-z
1/4-x,y,1/4-z
-x,-y,-z
3/4+x,3/4+y,-z
-x,3/4+y,3/4+z
3/4+x,-y,3/4+z
x,1/2+y,1/2+z
1/4-x,3/4-y,1/2+z
x,3/4-y,3/4-z
1/4-x,1/2+y,3/4-z
-x,1/2-y,1/2-z
3/4+x,1/4+y,1/2-z
-x,1/4+y,1/4+z
3/4+x,1/2-y,1/4+z
1/2+x,y,1/2+z
3/4-x,1/4-y,1/2+z
1/2+x,1/4-y,3/4-z
3/4-x,y,3/4-z
1/2-x,-y,1/2-z
1/4+x,3/4+y,1/2-z
1/2-x,3/4+y,1/4+z
1/4+x,-y,1/4+z
1/2+x,1/2+y,z
3/4-x,3/4-y,z
1/2+x,3/4-y,1/4-z
3/4-x,1/2+y,1/4-z
1/2-x,1/2-y,-z
1/4+x,1/4+y,-z
1/2-x,1/4+y,3/4+z
1/4+x,1/2-y,3/4+z
loop_
_atom_site_type_symbol
_atom_site_label
_atom_site_fract_x
_atom_site_fract_y
_atom_site_fract_z
Si Si1 0.467770 0.741615 0.589260
Si Si2 0.110398 0.177670 0.339353
Si Si3 0.876855 0.694685 0.217278
Si Si4 0.749109 0.016844 0.930583
Si Si5 0.193532 0.696564 0.575484
Si Si6 0.375000 0.522022 0.375000
Si Si7 0.061756 0.375000 0.375000
O O1 0.433743 0.791492 0.596510
O O2 0.432063 0.713506 0.655255
O O3 0.453334 0.724555 0.504966
O O4 0.555080 0.742438 0.603083
O O5 0.125000 0.125000 0.339656
O O6 0.052736 0.193224 0.402806
O O7 0.077342 0.192801 0.259994
O O8 0.804166 0.726007 0.206753
O O9 0.898234 0.699764 0.302713
O O10 0.858171 0.645240 0.192239
O O11 0.789782 0.995453 0.859238
O O12 0.125000 0.679624 0.625000
O O13 0.261723 0.664259 0.592156
#
# Coordination Sequence:
#
# PCOD9517161 Si02
#       7
#    32  32  32  32  32  16  16
#     4  10  20  40  60  83 112 158 196 245 304 353
#     4  11  22  35  58  86 121 156 198 252 296 359
#     4   9  20  37  60  83 115 151 191 250 292 353
#     4   9  20  37  56  84 117 150 198 240 299 362
#     4  11  19  33  60  81 119 159 191 231 296 371
#     4  10  20  36  64  83 104 146 216 238 283 360
#     4  10  21  36  52  91 120 148 188 238 290 353
#
# _framework density 4.9382720000000004
#
# number of rings (size 3 to 8) (size 9 to 14) (size 15 to 20)
#    0.000    2.000    1.667    2.250    4.667    0.000 
#    3.000    0.000    1.833    0.000    0.000    0.000 
#    0.000    0.000    0.000    0.000    0.000    0.000 
#
# Total GULP energy -267506.019351 kJ/mol
# GULP energy per Si atom -5573.042070 kJ/mol
# Density = 0.492703 g / cm^3
# Si number density = 4.938272 Si / 1000 Ang^3
#
#
#
# Elastic Constant Matrix: (Units=GPa)
#
#
# Indices 1 2 3 4 5 6 
#
# 1 40.3161 31.7401 12.1011 0.0000 0.0000 0.0000
# 2 31.7401 61.2654 50.0220 0.0000 0.0000 0.0000
# 3 12.1011 50.0220 121.1482 0.0000 0.0000 0.0000
# 4 0.0000 0.0000 0.0000 21.8069 0.0000 0.0000
# 5 0.0000 0.0000 0.0000 0.0000 24.8363 0.0000
# 6 0.0000 0.0000 0.0000 0.0000 0.0000 6.6767
#
#
#
# Elastic Compliance Matrix: (Units=1/GPa)
#
#
# Indices 1 2 3 4 5 6 
#
# 1 0.046520 -0.030635 0.008002 0.000000 0.000000 0.000000
# 2 -0.030635 0.044797 -0.015437 0.000000 0.000000 0.000000
# 3 0.008002 -0.015437 0.013829 0.000000 0.000000 0.000000
# 4 0.000000 0.000000 0.000000 0.045857 0.000000 0.000000
# 5 0.000000 0.000000 0.000000 0.000000 0.040264 0.000000
# 6 0.000000 0.000000 0.000000 0.000000 0.000000 0.149775
#
#
# Mechanical properties :
#
#
# Convention : Reuss Voigt Hill
#
# Bulk Modulus (GPa) = 34.47323 45.60624 40.03974
# Shear Modulus (GPa) = 11.71371 19.25507 15.48439
#
# Velocity S-wave (km/s) = 2.43781 3.12555 2.80285
# Velocity P-wave (km/s) = 5.04122 6.01362 5.54876
#
# Compressibility (1/GPa) = 0.02900802
#
# Stress axis : x y z
#
# Youngs Moduli (GPa) = 21.49601 22.32268 72.31238
#
# Poissons Ratio (x) = 0.68385 -0.57867
# Poissons Ratio (y) = 0.65853 1.11628
# Poissons Ratio (z) = -0.17202 0.34459
#
# Static dielectric constant tensor:
#      x y z
#    x 1.765900 0.000000 0.000000 
#    y 0.000000 1.666420 0.000000 
#    z 0.000000 0.000000 1.773060 
# 
# From -- ./inp_files/35517.got.cif
#   From: 2010.05.17/outbox.ucp.g08.bks.cvg/sg70_18_cif.got.tgz:35517.got - 2010.06.11 16:26:41.
