data_PCOD9517974
_publ_section_title
;
Structure prediction by ZEFSAII (Michael W. Deem and Ramdas Pophale) SiO2 
 PCOD9517974
Probable space group: I M M M
;
_chemical_formula_sum "Si O2"
_cell_formula_units_Z 88
_cell_length_a 19.716089
_cell_length_b 28.711389
_cell_length_c 9.331318
_cell_angle_alpha 90.000000
_cell_angle_beta 90.000000
_cell_angle_gamma 90.000000
_cell_volume 5282.237975
_symmetry_space_group_name_H-M "I M M M"
_symmetry_group_IT_number 71
_symmetry_cell_setting 'orthorhombic'
loop_
_space_group_symop_operation_xyz
x,y,z
-x,-y,z
x,-y,-z
-x,y,-z
-x,-y,-z
x,y,-z
-x,y,z
x,-y,z
1/2+x,1/2+y,1/2+z
1/2-x,1/2-y,1/2+z
1/2+x,1/2-y,1/2-z
1/2-x,1/2+y,1/2-z
1/2-x,1/2-y,1/2-z
1/2+x,1/2+y,1/2-z
1/2-x,1/2+y,1/2+z
1/2+x,1/2-y,1/2+z
loop_
_atom_site_type_symbol
_atom_site_label
_atom_site_fract_x
_atom_site_fract_y
_atom_site_fract_z
Si Si1 0.374170 0.554800 0.830025
Si Si2 0.000000 0.306729 0.662546
Si Si3 0.500000 0.294084 0.271615
Si Si4 0.273042 0.635300 0.829295
Si Si5 0.862300 0.679593 0.827646
Si Si6 0.000000 0.899107 0.825797
Si Si7 0.345587 0.283656 0.340657
O O1 0.363171 0.500000 0.809395
O O2 0.308386 0.586215 0.797853
O O3 0.434353 0.573119 0.729076
O O4 0.391500 0.561869 0.000000
O O5 0.066938 0.323278 0.745895
O O6 0.000000 0.322922 0.500000
O O7 0.000000 0.249754 0.663503
O O8 0.500000 0.349301 0.243071
O O9 0.427534 0.287000 0.347166
O O10 0.194798 0.642275 0.786440
O O11 0.317291 0.676263 0.759504
O O12 0.274883 0.641966 0.000000
O O13 0.831426 0.730828 0.793508
O O14 0.873706 0.678669 0.000000
O O15 0.000000 0.892234 0.000000
O O16 0.317733 0.290528 0.500000
#
# Coordination Sequence:
#
# PCOD9517974 Si02
#       7
#    16   8   8  16  16   8  16
#     4  10  22  38  53  72 101 134 171 218 264 299
#     4  10  21  34  52  77 103 131 167 202 238 296
#     4  10  20  31  45  69 101 136 170 203 246 289
#     4  10  20  33  50  71  96 130 169 204 251 305
#     4   9  19  34  50  71 101 133 161 199 248 299
#     4  12  22  35  54  73  98 133 180 222 255 294
#     4  10  18  30  47  68  98 131 165 207 250 289
#
# _framework density 16.659604999999999
#
# number of rings (size 3 to 8) (size 9 to 14) (size 15 to 20)
#    0.000    2.000    1.818    2.182    0.000    8.727 
#    0.000    0.000    0.000    0.000    0.000    0.636 
#    0.000    5.091    0.000    0.000    0.000    0.000 
#
# Total GULP energy -245170.636973 kJ/mol
# GULP energy per Si atom -5572.059931 kJ/mol
# Density = 1.662169 g / cm^3
# Si number density = 16.659605 Si / 1000 Ang^3
#
#
#
# Elastic Constant Matrix: (Units=GPa)
#
#
# Indices 1 2 3 4 5 6 
#
# 1 115.2529 57.7665 47.6729 0.0000 0.0000 0.0000
# 2 57.7665 81.7575 26.8337 0.0000 0.0000 0.0000
# 3 47.6729 26.8337 36.1733 0.0000 0.0000 0.0000
# 4 0.0000 0.0000 0.0000 12.4064 0.0000 0.0000
# 5 0.0000 0.0000 0.0000 0.0000 3.5130 0.0000
# 6 0.0000 0.0000 0.0000 0.0000 0.0000 15.3552
#
#
#
# Elastic Compliance Matrix: (Units=1/GPa)
#
#
# Indices 1 2 3 4 5 6 
#
# 1 0.022568 -0.008174 -0.023679 0.000000 0.000000 0.000000
# 2 -0.008174 0.019128 -0.003417 0.000000 0.000000 0.000000
# 3 -0.023679 -0.003417 0.061386 0.000000 0.000000 0.000000
# 4 0.000000 0.000000 0.000000 0.080604 0.000000 0.000000
# 5 0.000000 0.000000 0.000000 0.000000 0.284656 0.000000
# 6 0.000000 0.000000 0.000000 0.000000 0.000000 0.065124
#
#
# Mechanical properties :
#
#
# Convention : Reuss Voigt Hill
#
# Bulk Modulus (GPa) = 30.72911 55.30330 43.01621
# Shear Modulus (GPa) = 8.13203 12.98231 10.55717
#
# Velocity S-wave (km/s) = 2.21176 2.79457 2.52007
# Velocity P-wave (km/s) = 5.00078 6.60915 5.86041
#
# Compressibility (1/GPa) = 0.03254243
#
# Stress axis : x y z
#
# Youngs Moduli (GPa) = 44.31081 52.27906 16.29039
#
# Poissons Ratio (x) = 0.42732 0.38574
# Poissons Ratio (y) = 0.36219 0.05567
# Poissons Ratio (z) = 1.04923 0.17864
#
# Static dielectric constant tensor:
#      x y z
#    x 1.577110 0.000000 0.000000 
#    y 0.000000 1.557310 0.000000 
#    z 0.000000 0.000000 1.566130 
# 
# From -- ./inp_files/8938.got.cif
#   From: 2010.05.17/outbox.cif.g08.bks.cpg/sg71_5_cif.got.tgz:8938.got - 2010.06.03 16:22:01.
