data_PCOD9517891
_publ_section_title
;
Structure prediction by ZEFSAII (Michael W. Deem and Ramdas Pophale) SiO2 
 PCOD9517891
Probable space group: I M M M
;
_chemical_formula_sum "Si O2"
_cell_formula_units_Z 104
_cell_length_a 7.489402
_cell_length_b 21.058282
_cell_length_c 31.596231
_cell_angle_alpha 90.000000
_cell_angle_beta 90.000000
_cell_angle_gamma 90.000000
_cell_volume 4983.166059
_symmetry_space_group_name_H-M "I M M M"
_symmetry_group_IT_number 71
_symmetry_cell_setting 'orthorhombic'
loop_
_space_group_symop_operation_xyz
x,y,z
-x,-y,z
x,-y,-z
-x,y,-z
-x,-y,-z
x,y,-z
-x,y,z
x,-y,z
1/2+x,1/2+y,1/2+z
1/2-x,1/2-y,1/2+z
1/2+x,1/2-y,1/2-z
1/2-x,1/2+y,1/2-z
1/2-x,1/2-y,1/2-z
1/2+x,1/2+y,1/2-z
1/2-x,1/2+y,1/2+z
1/2+x,1/2-y,1/2+z
loop_
_atom_site_type_symbol
_atom_site_label
_atom_site_fract_x
_atom_site_fract_y
_atom_site_fract_z
Si Si1 0.781858 0.572405 0.285895
Si Si2 0.282423 0.073402 0.953493
Si Si3 0.292737 0.142248 0.548257
Si Si4 0.208363 0.291927 0.868337
Si Si5 0.214651 0.315614 0.224776
Si Si6 0.296953 0.500000 0.051009
Si Si7 0.716634 0.855456 0.870527
O O1 0.722984 0.500000 0.279557
O O2 0.721855 0.623649 0.251249
O O3 0.728470 0.600317 0.331479
O O4 0.000000 0.571799 0.285286
O O5 0.500000 0.073985 0.953030
O O6 0.221258 0.115253 0.914673
O O7 0.229390 0.000000 0.948285
O O8 0.225502 0.095485 0.000000
O O9 0.216640 0.148268 0.500000
O O10 0.500000 0.160626 0.544440
O O11 0.213540 0.182293 0.587295
O O12 0.285610 0.068006 0.561782
O O13 0.284905 0.314681 0.823293
O O14 0.219271 0.216102 0.866263
O O15 0.000000 0.311323 0.868856
O O16 0.250000 0.250000 0.250000
O O17 0.000000 0.319831 0.222398
O O18 0.500000 0.500000 0.066268
O O19 0.295473 0.500000 0.000000
O O20 0.500000 0.853875 0.870368
#
# Coordination Sequence:
#
# PCOD9517891 Si02
#       7
#    16  16  16  16  16   8  16
#     4   9  17  30  50  75  97 121 161 208 248 293
#     4   8  14  25  42  67  98 126 156 201 249 287
#     4   9  18  34  53  72  99 136 173 206 247 302
#     4  10  21  34  49  73 101 132 168 204 243 294
#     4  10  19  34  54  75 100 132 166 205 252 301
#     4   9  17  31  53  79 103 129 165 211 259 301
#     4  10  18  29  49  73  95 127 166 202 244 295
#
# _framework density 20.870266999999998
#
# number of rings (size 3 to 8) (size 9 to 14) (size 15 to 20)
#    0.000    2.692    1.538    1.154    0.000    4.000 
#    1.385    0.000    0.000    3.231    0.000    1.077 
#    0.000    0.000    0.000    0.000    0.000    0.000 
#
# Total GULP energy -290026.669876 kJ/mol
# GULP energy per Si atom -5577.435959 kJ/mol
# Density = 2.082277 g / cm^3
# Si number density = 20.870267 Si / 1000 Ang^3
#
#
#
# Elastic Constant Matrix: (Units=GPa)
#
#
# Indices 1 2 3 4 5 6 
#
# 1 57.4865 -5.6395 8.5606 0.0000 0.0000 0.0000
# 2 -5.6395 140.9416 100.8167 0.0000 0.0000 0.0000
# 3 8.5606 100.8167 198.5678 0.0000 0.0000 0.0000
# 4 0.0000 0.0000 0.0000 43.8829 0.0000 0.0000
# 5 0.0000 0.0000 0.0000 0.0000 0.6321 0.0000
# 6 0.0000 0.0000 0.0000 0.0000 0.0000 12.9194
#
#
#
# Elastic Compliance Matrix: (Units=1/GPa)
#
#
# Indices 1 2 3 4 5 6 
#
# 1 0.017855 0.001987 -0.001778 0.000000 0.000000 0.000000
# 2 0.001987 0.011362 -0.005855 0.000000 0.000000 0.000000
# 3 -0.001778 -0.005855 0.008085 0.000000 0.000000 0.000000
# 4 0.000000 0.000000 0.000000 0.022788 0.000000 0.000000
# 5 0.000000 0.000000 0.000000 0.000000 1.582017 0.000000
# 6 0.000000 0.000000 0.000000 0.000000 0.000000 0.077403
#
#
# Mechanical properties :
#
#
# Convention : Reuss Voigt Hill
#
# Bulk Modulus (GPa) = 38.44688 67.16349 52.80519
# Shear Modulus (GPa) = 2.87443 31.03741 16.95592
#
# Velocity S-wave (km/s) = 1.17485 3.86055 2.85343
# Velocity P-wave (km/s) = 4.50580 7.21963 6.01770
#
# Compressibility (1/GPa) = 0.02600991
#
# Stress axis : x y z
#
# Youngs Moduli (GPa) = 56.00641 88.00920 123.68262
#
# Poissons Ratio (x) = -0.17483 0.21995
# Poissons Ratio (y) = -0.11126 0.72411
# Poissons Ratio (z) = 0.09960 0.51526
#
# Static dielectric constant tensor:
#      x y z
#    x 1.826560 0.000000 0.000000 
#    y 0.000000 1.698960 0.000000 
#    z 0.000000 0.000000 1.766450 
# 
# From -- ./inp_files/68293.got.cif
#   From: 2010.05.17/outbox.cif.g08.bks.cpg/sg71_35_cif.got.tgz:68293.got - 2010.06.03 16:22:01.
