data_PCOD9517868
_publ_section_title
;
Structure prediction by ZEFSAII (Michael W. Deem and Ramdas Pophale) SiO2 
 PCOD9517868
Probable space group: I M M M
;
_chemical_formula_sum "Si O2"
_cell_formula_units_Z 112
_cell_length_a 14.641724
_cell_length_b 15.902413
_cell_length_c 26.500565
_cell_angle_alpha 90.000000
_cell_angle_beta 90.000000
_cell_angle_gamma 90.000000
_cell_volume 6170.358219
_symmetry_space_group_name_H-M "I M M M"
_symmetry_group_IT_number 71
_symmetry_cell_setting 'orthorhombic'
loop_
_space_group_symop_operation_xyz
x,y,z
-x,-y,z
x,-y,-z
-x,y,-z
-x,-y,-z
x,y,-z
-x,y,z
x,-y,z
1/2+x,1/2+y,1/2+z
1/2-x,1/2-y,1/2+z
1/2+x,1/2-y,1/2-z
1/2-x,1/2+y,1/2-z
1/2-x,1/2-y,1/2-z
1/2+x,1/2+y,1/2-z
1/2-x,1/2+y,1/2+z
1/2+x,1/2-y,1/2+z
loop_
_atom_site_type_symbol
_atom_site_label
_atom_site_fract_x
_atom_site_fract_y
_atom_site_fract_z
Si Si1 0.106904 0.592093 0.589420
Si Si2 0.846916 0.911160 0.730734
Si Si3 0.250232 0.142242 0.829546
Si Si4 0.255731 0.597750 0.121559
Si Si5 0.903528 0.728219 0.267306
Si Si6 0.106532 0.280007 0.149297
Si Si7 0.105590 0.215394 0.558822
O O1 0.116129 0.500000 0.563052
O O2 0.184065 0.593742 0.632537
O O3 0.121446 0.683399 0.563307
O O4 0.000000 0.594450 0.606043
O O5 0.789728 0.908743 0.782562
O O6 0.786449 0.904346 0.680253
O O7 0.906199 0.828365 0.733726
O O8 0.895937 0.000000 0.727635
O O9 0.319170 0.206366 0.802047
O O10 0.169006 0.195922 0.855363
O O11 0.254576 0.500000 0.104252
O O12 0.158272 0.645056 0.120562
O O13 0.327072 0.657564 0.091716
O O14 0.891105 0.700237 0.209548
O O15 0.000000 0.694013 0.286630
O O16 0.000000 0.268538 0.135814
O O17 0.114786 0.192932 0.500000
O O18 0.000000 0.200841 0.574636
#
# Coordination Sequence:
#
# PCOD9517868 Si02
#       7
#    16  16  16  16  16  16  16
#     4  10  20  33  56  90 121 151 185 222 272 338
#     4  10  19  30  46  72 109 148 185 225 267 317
#     4  11  17  33  51  77 113 154 188 230 271 327
#     4  11  21  36  56  80 110 149 192 232 282 340
#     4  10  18  29  48  70 101 149 190 224 272 327
#     4  10  19  33  52  74 103 146 195 236 277 321
#     4  10  22  41  63  87 116 146 179 229 292 352
#
# _framework density 18.151295999999999
#
# number of rings (size 3 to 8) (size 9 to 14) (size 15 to 20)
#    0.000    1.714    4.286    1.714    0.000    3.143 
#    0.000    3.571    0.000    1.714    0.000    1.000 
#    0.000    1.143    0.000    0.000    0.000    0.000 
#
# Total GULP energy -311758.035429 kJ/mol
# GULP energy per Si atom -5567.107776 kJ/mol
# Density = 1.810998 g / cm^3
# Si number density = 18.151296 Si / 1000 Ang^3
#
#
#
# Elastic Constant Matrix: (Units=GPa)
#
#
# Indices 1 2 3 4 5 6 
#
# 1 132.0743 55.7952 28.4309 0.0000 0.0000 0.0000
# 2 55.7952 134.7122 25.4623 0.0000 0.0000 0.0000
# 3 28.4309 25.4623 37.5177 0.0000 0.0000 0.0000
# 4 0.0000 0.0000 0.0000 2.9068 0.0000 0.0000
# 5 0.0000 0.0000 0.0000 0.0000 -8.3057 0.0000
# 6 0.0000 0.0000 0.0000 0.0000 0.0000 164.5461
#
#
#
# Elastic Compliance Matrix: (Units=1/GPa)
#
#
# Indices 1 2 3 4 5 6 
#
# 1 0.010082 -0.003134 -0.005514 0.000000 0.000000 0.000000
# 2 -0.003134 0.009490 -0.004066 0.000000 0.000000 0.000000
# 3 -0.005514 -0.004066 0.033591 0.000000 0.000000 0.000000
# 4 0.000000 0.000000 0.000000 0.344021 0.000000 0.000000
# 5 0.000000 0.000000 0.000000 0.000000 -0.120399 0.000000
# 6 0.000000 0.000000 0.000000 0.000000 0.000000 0.006077
#
#
# Mechanical properties :
#
#
# Convention : Reuss Voigt Hill
#
# Bulk Modulus (GPa) = 36.05218 58.18676 47.11947
# Shear Modulus (GPa) = 15.74635 44.80383 30.27509
#
# Velocity S-wave (km/s) = 2.94854 4.97364 4.08846
# Velocity P-wave (km/s) = 5.61222 8.06901 6.95003
#
# Compressibility (1/GPa) = 0.02773758
#
# Stress axis : x y z
#
# Youngs Moduli (GPa) = 99.18456 105.37824 29.76946
#
# Poissons Ratio (x) = 0.33023 0.16413
# Poissons Ratio (y) = 0.31082 0.12103
# Poissons Ratio (z) = 0.54685 0.42843
#
# Static dielectric constant tensor:
#      x y z
#    x 1.644210 0.000000 0.000000 
#    y 0.000000 1.664040 0.000000 
#    z 0.000000 0.000000 1.624340 
# 
# From -- ./inp_files/35165.got.cif
#   From: 2010.05.17/outbox.cif.g08.bks.cpg/sg71_18_cif.got.tgz:35165.got - 2010.06.03 16:22:01.
