data_PCOD9517716
_publ_section_title
;
Structure prediction by ZEFSAII (Michael W. Deem and Ramdas Pophale) SiO2 
 PCOD9517716
Probable space group: I M M M
;
_chemical_formula_sum "Si O2"
_cell_formula_units_Z 112
_cell_length_a 31.086222
_cell_length_b 7.355051
_cell_length_c 22.578374
_cell_angle_alpha 90.000000
_cell_angle_beta 90.000000
_cell_angle_gamma 90.000000
_cell_volume 5162.336325
_symmetry_space_group_name_H-M "I M M M"
_symmetry_group_IT_number 71
_symmetry_cell_setting 'orthorhombic'
loop_
_space_group_symop_operation_xyz
x,y,z
-x,-y,z
x,-y,-z
-x,y,-z
-x,-y,-z
x,y,-z
-x,y,z
x,-y,z
1/2+x,1/2+y,1/2+z
1/2-x,1/2-y,1/2+z
1/2+x,1/2-y,1/2-z
1/2-x,1/2+y,1/2-z
1/2-x,1/2-y,1/2-z
1/2+x,1/2+y,1/2-z
1/2-x,1/2+y,1/2+z
1/2+x,1/2-y,1/2+z
loop_
_atom_site_type_symbol
_atom_site_label
_atom_site_fract_x
_atom_site_fract_y
_atom_site_fract_z
Si Si1 0.294124 0.720226 0.810756
Si Si2 0.142283 0.222310 0.934858
Si Si3 0.885819 0.210072 0.668102
Si Si4 0.699130 0.292360 0.324851
Si Si5 0.452636 0.278668 0.737930
Si Si6 0.047545 0.779265 0.099616
Si Si7 0.547608 0.219270 0.067827
O O1 0.289297 0.500000 0.810720
O O2 0.338001 0.780456 0.841899
O O3 0.300859 0.783037 0.742265
O O4 0.249976 0.790247 0.838654
O O5 0.170268 0.284627 0.878130
O O6 0.092224 0.278759 0.929457
O O7 0.143014 0.000000 0.933478
O O8 0.158663 0.276813 0.000000
O O9 0.914004 0.290296 0.721624
O O10 0.915475 0.217711 0.610955
O O11 0.879054 0.000000 0.684791
O O12 0.683866 0.500000 0.317934
O O13 0.500000 0.220519 0.759436
O O14 0.452287 0.500000 0.740196
O O15 0.448927 0.230534 0.669111
O O16 0.000000 0.718821 0.078351
O O17 0.046950 0.000000 0.095690
O O18 0.500000 0.279994 0.087342
O O19 0.547656 0.000000 0.068616
O O20 0.553738 0.276621 0.000000
#
# Coordination Sequence:
#
# PCOD9517716 Si02
#       7
#    16  16  16  16  16  16  16
#     4   9  18  31  48  70  93 116 147 192 239 276
#     4   9  16  25  39  60  86 118 154 185 212 252
#     4  10  18  28  46  71  93 113 146 193 236 272
#     4   9  17  31  49  67  91 123 155 186 225 274
#     4   8  13  21  35  58  87 115 141 172 214 261
#     4   8  13  21  34  56  89 123 148 174 214 259
#     4   9  19  35  50  64  89 125 157 184 221 275
#
# _framework density 21.695603999999999
#
# number of rings (size 3 to 8) (size 9 to 14) (size 15 to 20)
#    0.000    3.143    0.000    2.571    0.000    5.429 
#    0.000    2.857    0.000    3.000    0.000    0.000 
#    0.000    0.571    0.000    1.286    0.000    1.429 
#
# Total GULP energy -312319.368423 kJ/mol
# GULP energy per Si atom -5577.131579 kJ/mol
# Density = 2.164622 g / cm^3
# Si number density = 21.695604 Si / 1000 Ang^3
#
#
#
# Elastic Constant Matrix: (Units=GPa)
#
#
# Indices 1 2 3 4 5 6 
#
# 1 150.4477 -5.6299 62.0630 0.0000 0.0000 0.0000
# 2 -5.6299 78.0789 -3.1497 0.0000 0.0000 0.0000
# 3 62.0630 -3.1497 78.8071 0.0000 0.0000 0.0000
# 4 0.0000 0.0000 0.0000 15.0614 0.0000 0.0000
# 5 0.0000 0.0000 0.0000 0.0000 24.2437 0.0000
# 6 0.0000 0.0000 0.0000 0.0000 0.0000 1.9039
#
#
#
# Elastic Compliance Matrix: (Units=1/GPa)
#
#
# Indices 1 2 3 4 5 6 
#
# 1 0.009858 0.000398 -0.007747 0.000000 0.000000 0.000000
# 2 0.000398 0.012844 0.000200 0.000000 0.000000 0.000000
# 3 -0.007747 0.000200 0.018798 0.000000 0.000000 0.000000
# 4 0.000000 0.000000 0.000000 0.066395 0.000000 0.000000
# 5 0.000000 0.000000 0.000000 0.000000 0.041248 0.000000
# 6 0.000000 0.000000 0.000000 0.000000 0.000000 0.525247
#
#
# Mechanical properties :
#
#
# Convention : Reuss Voigt Hill
#
# Bulk Modulus (GPa) = 36.76229 45.98894 41.37561
# Shear Modulus (GPa) = 7.16583 25.17848 16.17215
#
# Velocity S-wave (km/s) = 1.81936 3.41036 2.73318
# Velocity P-wave (km/s) = 4.62545 6.06224 5.39192
#
# Compressibility (1/GPa) = 0.02720179
#
# Stress axis : x y z
#
# Youngs Moduli (GPa) = 101.44398 77.85537 53.19593
#
# Poissons Ratio (x) = -0.03101 0.41212
# Poissons Ratio (y) = -0.04040 -0.01062
# Poissons Ratio (z) = 0.78592 -0.01555
#
# Static dielectric constant tensor:
#      x y z
#    x 1.804270 0.000000 0.000000 
#    y 0.000000 1.938630 0.000000 
#    z 0.000000 0.000000 1.756230 
# 
# From -- ./inp_files/56411.got.cif
#   From: 2010.05.17/outbox.cif.g08.bks.cpg/sg71_29_cif.got.tgz:56411.got - 2010.06.03 16:22:01.
