data_PCOD9517923
_publ_section_title
;
Structure prediction by ZEFSAII (Michael W. Deem and Ramdas Pophale) SiO2 
 PCOD9517923
Probable space group: I M M M
;
_chemical_formula_sum "Si O2"
_cell_formula_units_Z 104
_cell_length_a 39.532184
_cell_length_b 7.328036
_cell_length_c 16.382431
_cell_angle_alpha 90.000000
_cell_angle_beta 90.000000
_cell_angle_gamma 90.000000
_cell_volume 4745.879966
_symmetry_space_group_name_H-M "I M M M"
_symmetry_group_IT_number 71
_symmetry_cell_setting 'orthorhombic'
loop_
_space_group_symop_operation_xyz
x,y,z
-x,-y,z
x,-y,-z
-x,y,-z
-x,-y,-z
x,y,-z
-x,y,z
x,-y,z
1/2+x,1/2+y,1/2+z
1/2-x,1/2-y,1/2+z
1/2+x,1/2-y,1/2-z
1/2-x,1/2+y,1/2-z
1/2-x,1/2-y,1/2-z
1/2+x,1/2+y,1/2-z
1/2-x,1/2+y,1/2+z
1/2+x,1/2-y,1/2+z
loop_
_atom_site_type_symbol
_atom_site_label
_atom_site_fract_x
_atom_site_fract_y
_atom_site_fract_z
Si Si1 0.603428 0.706802 0.189534
Si Si2 0.168256 0.222939 0.407087
Si Si3 0.962997 0.720181 0.594723
Si Si4 0.710194 0.717000 0.248243
Si Si5 0.328297 0.278103 0.411262
Si Si6 0.904560 0.777580 0.128603
Si Si7 0.539379 0.722606 0.500000
O O1 0.615299 0.500000 0.206491
O O2 0.631909 0.782494 0.129263
O O3 0.568002 0.704860 0.144283
O O4 0.597256 0.788755 0.278301
O O5 0.173769 0.285284 0.500000
O O6 0.194532 0.282880 0.337363
O O7 0.168847 0.000000 0.410975
O O8 0.960373 0.772663 0.500000
O O9 0.961448 0.500000 0.597956
O O10 0.000000 0.776238 0.625317
O O11 0.704587 0.500000 0.248588
O O12 0.750000 0.750000 0.250000
O O13 0.808719 0.713860 0.169923
O O14 0.314401 0.220424 0.500000
O O15 0.327052 0.500000 0.409803
O O16 0.367936 0.227943 0.407418
O O17 0.937415 0.719715 0.077313
O O18 0.906115 0.000000 0.127589
O O19 0.538439 0.500000 0.500000
O O20 0.500000 0.782008 0.500000
#
# Coordination Sequence:
#
# PCOD9517923 Si02
#       7
#    16  16  16  16  16  16   8
#     4  10  18  29  50  78 100 121 160 210 251 289
#     4   9  17  30  49  72  99 130 160 194 244 303
#     4   9  19  35  50  65  93 133 169 198 236 291
#     4  10  20  34  51  73 100 129 162 201 246 296
#     4   9  15  27  49  71  92 127 170 205 237 284
#     4   9  15  25  43  67  97 130 163 199 242 293
#     4   9  16  24  36  62 103 139 161 195 251 301
#
# _framework density 21.913744000000001
#
# number of rings (size 3 to 8) (size 9 to 14) (size 15 to 20)
#    0.000    2.692    2.308    0.923    0.000    2.462 
#    0.000    3.077    0.000    0.923    0.000    0.538 
#    0.000    1.846    0.000    0.000    0.000    0.000 
#
# Total GULP energy -290170.064318 kJ/mol
# GULP energy per Si atom -5580.193545 kJ/mol
# Density = 2.186387 g / cm^3
# Si number density = 21.913744 Si / 1000 Ang^3
#
#
#
# Elastic Constant Matrix: (Units=GPa)
#
#
# Indices 1 2 3 4 5 6 
#
# 1 175.0615 -1.4817 120.5143 0.0000 0.0000 0.0000
# 2 -1.4817 82.6225 9.0008 0.0000 0.0000 0.0000
# 3 120.5143 9.0008 225.9489 0.0000 0.0000 0.0000
# 4 0.0000 0.0000 0.0000 -4.1581 0.0000 0.0000
# 5 0.0000 0.0000 0.0000 0.0000 19.2150 0.0000
# 6 0.0000 0.0000 0.0000 0.0000 0.0000 -0.8496
#
#
#
# Elastic Compliance Matrix: (Units=1/GPa)
#
#
# Indices 1 2 3 4 5 6 
#
# 1 0.009066 0.000692 -0.004863 0.000000 0.000000 0.000000
# 2 0.000692 0.012209 -0.000856 0.000000 0.000000 0.000000
# 3 -0.004863 -0.000856 0.007054 0.000000 0.000000 0.000000
# 4 0.000000 0.000000 0.000000 -0.240494 0.000000 0.000000
# 5 0.000000 0.000000 0.000000 0.000000 0.052043 0.000000
# 6 0.000000 0.000000 0.000000 0.000000 0.000000 -1.177008
#
#
# Mechanical properties :
#
#
# Convention : Reuss Voigt Hill
#
# Bulk Modulus (GPa) = 54.71716 82.18883 68.45300
# Shear Modulus (GPa) = -3.78505 26.54809 11.38152
#
# Velocity S-wave (km/s) = -1.31567 3.48441 2.28146
# Velocity P-wave (km/s) = 4.76608 7.33316 6.18428
#
# Compressibility (1/GPa) = 0.01827580
#
# Stress axis : x y z
#
# Youngs Moduli (GPa) = 110.30306 81.90763 141.76995
#
# Poissons Ratio (x) = -0.05671 0.68944
# Poissons Ratio (y) = -0.07637 0.12130
# Poissons Ratio (z) = 0.53641 0.07008
#
# Static dielectric constant tensor:
#      x y z
#    x 1.745490 0.000000 0.000000 
#    y 0.000000 1.754020 0.000000 
#    z 0.000000 0.000000 1.803660 
# 
# From -- ./inp_files/48827.got.cif
#   From: 2010.05.17/outbox.cif.g08.bks.cpg/sg71_25_cif.got.tgz:48827.got - 2010.06.03 16:22:01.
