data_PCOD9517911
_publ_section_title
;
Structure prediction by ZEFSAII (Michael W. Deem and Ramdas Pophale) SiO2 
 PCOD9517911
Probable space group: I M M M
;
_chemical_formula_sum "Si O2"
_cell_formula_units_Z 104
_cell_length_a 19.253844
_cell_length_b 27.365980
_cell_length_c 12.284223
_cell_angle_alpha 90.000000
_cell_angle_beta 90.000000
_cell_angle_gamma 90.000000
_cell_volume 6472.560905
_symmetry_space_group_name_H-M "I M M M"
_symmetry_group_IT_number 71
_symmetry_cell_setting 'orthorhombic'
loop_
_space_group_symop_operation_xyz
x,y,z
-x,-y,z
x,-y,-z
-x,y,-z
-x,-y,-z
x,y,-z
-x,y,z
x,-y,z
1/2+x,1/2+y,1/2+z
1/2-x,1/2-y,1/2+z
1/2+x,1/2-y,1/2-z
1/2-x,1/2+y,1/2-z
1/2-x,1/2-y,1/2-z
1/2+x,1/2+y,1/2-z
1/2-x,1/2+y,1/2+z
1/2+x,1/2-y,1/2+z
loop_
_atom_site_type_symbol
_atom_site_label
_atom_site_fract_x
_atom_site_fract_y
_atom_site_fract_z
Si Si1 0.327145 0.691711 0.795482
Si Si2 0.695188 0.943162 0.627067
Si Si3 0.579116 0.423076 0.000000
Si Si4 0.675541 0.778912 0.629208
Si Si5 0.420406 0.695540 0.000000
Si Si6 0.082531 0.000000 0.130229
Si Si7 0.578336 0.866808 0.632040
Si Si8 0.156904 0.922608 0.721557
O O1 0.329847 0.728674 0.694856
O O2 0.248542 0.694831 0.841545
O O3 0.346713 0.636078 0.766039
O O4 0.378145 0.709406 0.891871
O O5 0.712550 0.930013 0.500000
O O6 0.631278 0.909666 0.663333
O O7 0.762694 0.935218 0.700760
O O8 0.676080 0.000000 0.628303
O O9 0.618293 0.437604 0.890470
O O10 0.500000 0.440120 0.000000
O O11 0.578849 0.363788 0.000000
O O12 0.673428 0.771026 0.500000
O O13 0.613776 0.815532 0.661571
O O14 0.500000 0.712501 0.000000
O O15 0.120417 0.046945 0.183413
O O16 0.000000 0.000000 0.156778
O O17 0.089373 0.000000 0.000000
O O18 0.575657 0.868010 0.500000
O O19 0.500000 0.872196 0.672985
#
# Coordination Sequence:
#
# PCOD9517911 Si02
#       8
#    16  16   8  16   8   8  16  16
#     4  10  20  32  54  80 105 141 180 224 272 321
#     4  10  18  29  49  79 108 134 165 211 263 314
#     4   9  18  29  50  81 104 126 164 221 278 321
#     4  10  19  33  53  78 110 143 180 221 265 321
#     4   9  18  32  49  74 107 139 174 221 277 322
#     4  11  26  43  55  73 108 150 184 220 265 312
#     4   9  18  31  49  74 109 145 169 204 261 322
#     4  11  19  34  56  77 106 137 180 222 266 320
#
# _framework density 16.067829
#
# number of rings (size 3 to 8) (size 9 to 14) (size 15 to 20)
#    0.000    2.077    3.846    0.462    0.000    2.462 
#    0.000    2.308    0.000    1.846    0.000    0.000 
#    0.000    0.615    0.000    0.000    0.000    0.000 
#
# Total GULP energy -289977.582684 kJ/mol
# GULP energy per Si atom -5576.491975 kJ/mol
# Density = 1.603126 g / cm^3
# Si number density = 16.067829 Si / 1000 Ang^3
#
#
#
# Elastic Constant Matrix: (Units=GPa)
#
#
# Indices 1 2 3 4 5 6 
#
# 1 143.5305 48.4996 46.6042 0.0000 0.0000 0.0000
# 2 48.4996 91.3509 45.2740 0.0000 0.0000 0.0000
# 3 46.6042 45.2740 72.7029 0.0000 0.0000 0.0000
# 4 0.0000 0.0000 0.0000 14.7642 0.0000 0.0000
# 5 0.0000 0.0000 0.0000 0.0000 17.4226 0.0000
# 6 0.0000 0.0000 0.0000 0.0000 0.0000 16.2775
#
#
#
# Elastic Compliance Matrix: (Units=1/GPa)
#
#
# Indices 1 2 3 4 5 6 
#
# 1 0.009289 -0.002865 -0.004171 0.000000 0.000000 0.000000
# 2 -0.002865 0.016717 -0.008574 0.000000 0.000000 0.000000
# 3 -0.004171 -0.008574 0.021767 0.000000 0.000000 0.000000
# 4 0.000000 0.000000 0.000000 0.067731 0.000000 0.000000
# 5 0.000000 0.000000 0.000000 0.000000 0.057397 0.000000
# 6 0.000000 0.000000 0.000000 0.000000 0.000000 0.061434
#
#
# Mechanical properties :
#
#
# Convention : Reuss Voigt Hill
#
# Bulk Modulus (GPa) = 60.40432 65.37110 62.88771
# Shear Modulus (GPa) = 18.44522 20.83996 19.64259
#
# Velocity S-wave (km/s) = 3.39183 3.60529 3.50019
# Velocity P-wave (km/s) = 7.28109 7.62257 7.45379
#
# Compressibility (1/GPa) = 0.01655511
#
# Stress axis : x y z
#
# Youngs Moduli (GPa) = 107.64912 59.81955 45.94073
#
# Poissons Ratio (x) = 0.17138 0.19161
# Poissons Ratio (y) = 0.30840 0.39388
# Poissons Ratio (z) = 0.44897 0.51287
#
# Static dielectric constant tensor:
#      x y z
#    x 1.544590 0.000000 0.000000 
#    y 0.000000 1.542170 0.000000 
#    z 0.000000 0.000000 1.513110 
# 
# From -- ./inp_files/24833.got.cif
#   From: 2010.05.17/outbox.cif.g08.bks.cpg/sg71_13_cif.got.tgz:24833.got - 2010.06.03 16:22:01.
