data_PCOD9517713
_publ_section_title
;
Structure prediction by ZEFSAII (Michael W. Deem and Ramdas Pophale) SiO2 
 PCOD9517713
Probable space group: I M M M
;
_chemical_formula_sum "Si O2"
_cell_formula_units_Z 80
_cell_length_a 9.454231
_cell_length_b 24.402947
_cell_length_c 24.173472
_cell_angle_alpha 90.000000
_cell_angle_beta 90.000000
_cell_angle_gamma 90.000000
_cell_volume 5577.088268
_symmetry_space_group_name_H-M "I M M M"
_symmetry_group_IT_number 71
_symmetry_cell_setting 'orthorhombic'
loop_
_space_group_symop_operation_xyz
x,y,z
-x,-y,z
x,-y,-z
-x,y,-z
-x,-y,-z
x,y,-z
-x,y,z
x,-y,z
1/2+x,1/2+y,1/2+z
1/2-x,1/2-y,1/2+z
1/2+x,1/2-y,1/2-z
1/2-x,1/2+y,1/2-z
1/2-x,1/2-y,1/2-z
1/2+x,1/2+y,1/2-z
1/2-x,1/2+y,1/2+z
1/2+x,1/2-y,1/2+z
loop_
_atom_site_type_symbol
_atom_site_label
_atom_site_fract_x
_atom_site_fract_y
_atom_site_fract_z
Si Si1 0.830909 0.166613 0.562820
Si Si2 0.167273 0.437182 0.762076
Si Si3 0.166584 0.833257 0.774356
Si Si4 0.832920 0.241356 0.334928
Si Si5 0.168013 0.562163 0.894663
O O1 0.801513 0.183984 0.500000
O O2 0.788877 0.211339 0.608677
O O3 0.753688 0.109567 0.575478
O O4 0.000000 0.158696 0.568748
O O5 0.200246 0.500000 0.746563
O O6 0.259286 0.391821 0.731627
O O7 0.189909 0.432631 0.828404
O O8 0.000000 0.427834 0.752534
O O9 0.184644 0.802005 0.715339
O O10 0.242734 0.794349 0.818823
O O11 0.000000 0.837998 0.785009
O O12 0.000000 0.255001 0.337724
O O13 0.208589 0.500000 0.910691
O O14 0.000000 0.568122 0.904770
#
# Coordination Sequence:
#
# PCOD9517713 Si02
#       5
#    16  16  16  16  16
#     4  10  20  33  47  63  85 114 151 191 226 260
#     4   9  17  29  45  65  90 119 147 178 219 263
#     4  10  18  28  46  68  87 112 145 182 221 264
#     4   9  18  31  44  62  87 115 145 180 224 266
#     4   9  18  31  45  61  84 116 153 189 223 259
#
# _framework density 14.344403
#
# number of rings (size 3 to 8) (size 9 to 14) (size 15 to 20)
#    0.000    2.600    2.000    1.800    0.000    3.200 
#    0.000    4.000    0.000    0.000    0.000    0.000 
#    0.000    0.800    0.000    9.200    0.000    2.600 
#
# Total GULP energy -222975.269488 kJ/mol
# GULP energy per Si atom -5574.381737 kJ/mol
# Density = 1.431175 g / cm^3
# Si number density = 14.344403 Si / 1000 Ang^3
#
#
#
# Elastic Constant Matrix: (Units=GPa)
#
#
# Indices 1 2 3 4 5 6 
#
# 1 50.4765 61.8210 40.6476 0.0000 0.0000 0.0000
# 2 61.8210 98.9279 55.2922 0.0000 0.0000 0.0000
# 3 40.6476 55.2922 78.7830 0.0000 0.0000 0.0000
# 4 0.0000 0.0000 0.0000 16.8721 0.0000 0.0000
# 5 0.0000 0.0000 0.0000 0.0000 14.9461 0.0000
# 6 0.0000 0.0000 0.0000 0.0000 0.0000 29.1306
#
#
#
# Elastic Compliance Matrix: (Units=1/GPa)
#
#
# Indices 1 2 3 4 5 6 
#
# 1 0.090349 -0.050032 -0.011501 0.000000 0.000000 0.000000
# 2 -0.050032 0.044338 -0.005304 0.000000 0.000000 0.000000
# 3 -0.011501 -0.005304 0.022350 0.000000 0.000000 0.000000
# 4 0.000000 0.000000 0.000000 0.059270 0.000000 0.000000
# 5 0.000000 0.000000 0.000000 0.000000 0.066907 0.000000
# 6 0.000000 0.000000 0.000000 0.000000 0.000000 0.034328
#
#
# Mechanical properties :
#
#
# Convention : Reuss Voigt Hill
#
# Bulk Modulus (GPa) = 42.80364 60.41212 51.60788
# Shear Modulus (GPa) = 10.89313 16.88487 13.88900
#
# Velocity S-wave (km/s) = 2.75871 3.43462 3.11505
# Velocity P-wave (km/s) = 6.32867 7.61155 6.99956
#
# Compressibility (1/GPa) = 0.02336250
#
# Stress axis : x y z
#
# Youngs Moduli (GPa) = 11.06816 22.55382 44.74289
#
# Poissons Ratio (x) = 1.12841 0.51460
# Poissons Ratio (y) = 0.55376 0.23733
# Poissons Ratio (z) = 0.12730 0.11963
#
# Static dielectric constant tensor:
#      x y z
#    x 1.471730 0.000000 0.000000 
#    y 0.000000 1.456330 0.000000 
#    z 0.000000 0.000000 1.462140 
# 
# From -- ./inp_files/63041.got.cif
#   From: 2010.05.17/outbox.cif.g08.bks.cpg/sg71_32_cif.got.tgz:63041.got - 2010.06.03 16:22:01.
