data_PCOD9517809
_publ_section_title
;
Structure prediction by ZEFSAII (Michael W. Deem and Ramdas Pophale) SiO2 
 PCOD9517809
Probable space group: I M M M
;
_chemical_formula_sum "Si O2"
_cell_formula_units_Z 88
_cell_length_a 12.662154
_cell_length_b 17.005777
_cell_length_c 30.096758
_cell_angle_alpha 90.000000
_cell_angle_beta 90.000000
_cell_angle_gamma 90.000000
_cell_volume 6480.727896
_symmetry_space_group_name_H-M "I M M M"
_symmetry_group_IT_number 71
_symmetry_cell_setting 'orthorhombic'
loop_
_space_group_symop_operation_xyz
x,y,z
-x,-y,z
x,-y,-z
-x,y,-z
-x,-y,-z
x,y,-z
-x,y,z
x,-y,z
1/2+x,1/2+y,1/2+z
1/2-x,1/2-y,1/2+z
1/2+x,1/2-y,1/2-z
1/2-x,1/2+y,1/2-z
1/2-x,1/2-y,1/2-z
1/2+x,1/2+y,1/2-z
1/2-x,1/2+y,1/2+z
1/2+x,1/2-y,1/2+z
loop_
_atom_site_type_symbol
_atom_site_label
_atom_site_fract_x
_atom_site_fract_y
_atom_site_fract_z
Si Si1 0.500000 0.905878 0.647556
Si Si2 0.377115 0.095376 0.500000
Si Si3 0.295654 0.189481 0.212790
Si Si4 0.290670 0.095342 0.404347
Si Si5 0.500000 0.904771 0.247369
Si Si6 0.118952 0.093369 0.245328
Si Si7 0.125964 0.170160 0.659165
O O1 0.392768 0.878344 0.624353
O O2 0.500000 0.891402 0.699716
O O3 0.500000 0.000000 0.641004
O O4 0.500000 0.121945 0.500000
O O5 0.316489 0.117802 0.455055
O O6 0.381903 0.000000 0.500000
O O7 0.250000 0.250000 0.250000
O O8 0.396604 0.139233 0.228675
O O9 0.198932 0.129422 0.209875
O O10 0.330304 0.243637 0.171875
O O11 0.188579 0.133122 0.381757
O O12 0.282200 0.000000 0.402069
O O13 0.500000 0.000000 0.239539
O O14 0.146931 0.118517 0.296005
O O15 0.000000 0.123185 0.237804
O O16 0.120661 0.000000 0.243239
O O17 0.000000 0.171867 0.652561
#
# Coordination Sequence:
#
# PCOD9517809 Si02
#       7
#     8   8  16  16   8  16  16
#     4   9  16  25  40  65  88 107 146 191 220 252
#     4   9  16  30  47  65  91 113 138 186 242 279
#     4  10  19  30  43  58  88 119 153 197 237 265
#     4  10  18  29  46  66  86 115 150 187 229 277
#     4  11  20  30  45  66  90 124 168 202 222 260
#     4   9  17  29  44  61  83 115 153 190 228 267
#     4  10  19  31  42  58  86 120 154 189 224 268
#
# _framework density 13.578721
#
# number of rings (size 3 to 8) (size 9 to 14) (size 15 to 20)
#    0.000    2.273    1.818    3.273    1.273    2.545 
#    1.636    0.455    0.000    1.636    0.000    0.000 
#    0.000    0.000    0.000    4.091    0.000    7.455 
#
# Total GULP energy -244999.367834 kJ/mol
# GULP energy per Si atom -5568.167451 kJ/mol
# Density = 1.354782 g / cm^3
# Si number density = 13.578721 Si / 1000 Ang^3
#
#
#
# Elastic Constant Matrix: (Units=GPa)
#
#
# Indices 1 2 3 4 5 6 
#
# 1 94.2750 34.8041 50.1729 0.0000 0.0000 0.0000
# 2 34.8041 49.8371 31.9139 0.0000 0.0000 0.0000
# 3 50.1729 31.9139 67.0936 0.0000 0.0000 0.0000
# 4 0.0000 0.0000 0.0000 16.4852 0.0000 0.0000
# 5 0.0000 0.0000 0.0000 0.0000 17.0772 0.0000
# 6 0.0000 0.0000 0.0000 0.0000 0.0000 27.2468
#
#
#
# Elastic Compliance Matrix: (Units=1/GPa)
#
#
# Indices 1 2 3 4 5 6 
#
# 1 0.018761 -0.005921 -0.011213 0.000000 0.000000 0.000000
# 2 -0.005921 0.030723 -0.010186 0.000000 0.000000 0.000000
# 3 -0.011213 -0.010186 0.028134 0.000000 0.000000 0.000000
# 4 0.000000 0.000000 0.000000 0.060661 0.000000 0.000000
# 5 0.000000 0.000000 0.000000 0.000000 0.058558 0.000000
# 6 0.000000 0.000000 0.000000 0.000000 0.000000 0.036702
#
#
# Mechanical properties :
#
#
# Convention : Reuss Voigt Hill
#
# Bulk Modulus (GPa) = 43.51895 49.44304 46.48100
# Shear Modulus (GPa) = 16.90116 18.44949 17.67533
#
# Velocity S-wave (km/s) = 3.53183 3.69006 3.61181
# Velocity P-wave (km/s) = 6.98217 7.39233 7.19018
#
# Compressibility (1/GPa) = 0.02297849
#
# Stress axis : x y z
#
# Youngs Moduli (GPa) = 53.30286 32.54861 35.54358
#
# Poissons Ratio (x) = 0.19274 0.39854
# Poissons Ratio (y) = 0.31563 0.36204
# Poissons Ratio (z) = 0.59767 0.33153
#
# Static dielectric constant tensor:
#      x y z
#    x 1.481660 0.000000 0.000000 
#    y 0.000000 1.495290 0.000000 
#    z 0.000000 0.000000 1.427670 
# 
# From -- ./inp_files/24746.got.cif
#   From: 2010.05.17/outbox.cif.g08.bks.cpg/sg71_13_cif.got.tgz:24746.got - 2010.06.03 16:22:01.
