data_PCOD9517405
_publ_section_title
;
Structure prediction by ZEFSAII (Michael W. Deem and Ramdas Pophale) SiO2 
 PCOD9517405
Probable space group: I M M M
;
_chemical_formula_sum "Si O2"
_cell_formula_units_Z 80
_cell_length_a 12.591315
_cell_length_b 17.340124
_cell_length_c 23.291960
_cell_angle_alpha 90.000000
_cell_angle_beta 90.000000
_cell_angle_gamma 90.000000
_cell_volume 5085.449235
_symmetry_space_group_name_H-M "I M M M"
_symmetry_group_IT_number 71
_symmetry_cell_setting 'orthorhombic'
loop_
_space_group_symop_operation_xyz
x,y,z
-x,-y,z
x,-y,-z
-x,y,-z
-x,-y,-z
x,y,-z
-x,y,z
x,-y,z
1/2+x,1/2+y,1/2+z
1/2-x,1/2-y,1/2+z
1/2+x,1/2-y,1/2-z
1/2-x,1/2+y,1/2-z
1/2-x,1/2-y,1/2-z
1/2+x,1/2+y,1/2-z
1/2-x,1/2+y,1/2+z
1/2+x,1/2-y,1/2+z
loop_
_atom_site_type_symbol
_atom_site_label
_atom_site_fract_x
_atom_site_fract_y
_atom_site_fract_z
Si Si1 0.000000 0.412734 0.430419
Si Si2 0.802058 0.306644 0.432597
Si Si3 0.871449 0.000000 0.565758
Si Si4 0.129150 0.843425 0.633056
Si Si5 0.373084 0.409411 0.617056
Si Si6 0.871274 0.087943 0.248850
O O1 0.895659 0.365273 0.414165
O O2 0.000000 0.500000 0.408325
O O3 0.000000 0.416643 0.500000
O O4 0.816291 0.288934 0.500000
O O5 0.815960 0.229227 0.396283
O O6 0.693016 0.351921 0.422099
O O7 0.842450 0.077886 0.599317
O O8 0.833333 0.000000 0.500000
O O9 0.000000 0.000000 0.564316
O O10 0.160349 0.856395 0.699476
O O11 0.000000 0.834105 0.629474
O O12 0.500000 0.399987 0.611529
O O13 0.349616 0.500000 0.605299
O O14 0.341794 0.393209 0.683545
O O15 0.000000 0.086214 0.249680
O O16 0.836285 0.000000 0.261183
#
# Coordination Sequence:
#
# PCOD9517405 Si02
#       6
#     8  16   8  16  16  16
#     4   9  18  32  46  61  91 133 165 188 228 291
#     4  11  21  31  46  71 101 131 162 198 240 289
#     4   9  16  24  40  66  99 135 160 184 230 286
#     4  10  17  28  46  71 102 132 158 192 237 290
#     4   9  19  35  53  71  92 122 165 213 249 279
#     4   8  14  28  49  71  95 124 160 199 242 287
#
# _framework density 15.731157
#
# number of rings (size 3 to 8) (size 9 to 14) (size 15 to 20)
#    0.000    2.600    2.000    2.400    0.000    3.200 
#    0.000    1.000    0.000    0.000    0.000    0.700 
#    0.000    2.400    0.000    0.000    0.000    0.000 
#
# Total GULP energy -222810.256702 kJ/mol
# GULP energy per Si atom -5570.256418 kJ/mol
# Density = 1.569535 g / cm^3
# Si number density = 15.731157 Si / 1000 Ang^3
#
#
#
# Elastic Constant Matrix: (Units=GPa)
#
#
# Indices 1 2 3 4 5 6 
#
# 1 27.8959 20.4566 0.1215 0.0000 0.0000 0.0000
# 2 20.4566 87.1792 10.0377 0.0000 0.0000 0.0000
# 3 0.1215 10.0377 17.2961 0.0000 0.0000 0.0000
# 4 0.0000 0.0000 0.0000 26.1742 0.0000 0.0000
# 5 0.0000 0.0000 0.0000 0.0000 15.8582 0.0000
# 6 0.0000 0.0000 0.0000 0.0000 0.0000 18.5759
#
#
#
# Elastic Compliance Matrix: (Units=1/GPa)
#
#
# Indices 1 2 3 4 5 6 
#
# 1 0.043885 -0.010997 0.006074 0.000000 0.000000 0.000000
# 2 -0.010997 0.015048 -0.008656 0.000000 0.000000 0.000000
# 3 0.006074 -0.008656 0.062797 0.000000 0.000000 0.000000
# 4 0.000000 0.000000 0.000000 0.038206 0.000000 0.000000
# 5 0.000000 0.000000 0.000000 0.000000 0.063059 0.000000
# 6 0.000000 0.000000 0.000000 0.000000 0.000000 0.053833
#
#
# Mechanical properties :
#
#
# Convention : Reuss Voigt Hill
#
# Bulk Modulus (GPa) = 10.57390 21.51145 16.04268
# Shear Modulus (GPa) = 14.90269 18.90534 16.90401
#
# Velocity S-wave (km/s) = 3.08122 3.47043 3.28160
# Velocity P-wave (km/s) = 4.40395 5.45551 4.95769
#
# Compressibility (1/GPa) = 0.09457250
#
# Stress axis : x y z
#
# Youngs Moduli (GPa) = 22.78661 66.45539 15.92430
#
# Poissons Ratio (x) = 0.73081 -0.09672
# Poissons Ratio (y) = 0.25059 0.13783
# Poissons Ratio (z) = -0.13840 0.57521
#
# Static dielectric constant tensor:
#      x y z
#    x 1.510970 0.000000 0.000000 
#    y 0.000000 1.513690 0.000000 
#    z 0.000000 0.000000 1.547920 
# 
# From -- ./inp_files/27354.got.cif
#   From: 2010.05.17/outbox.cif.g08.bks.cpg/sg71_14_cif.got.tgz:27354.got - 2010.06.03 16:22:01.
