data_PCOD9517743
_publ_section_title
;
Structure prediction by ZEFSAII (Michael W. Deem and Ramdas Pophale) SiO2 
 PCOD9517743
Probable space group: I M M M
;
_chemical_formula_sum "Si O2"
_cell_formula_units_Z 104
_cell_length_a 9.338311
_cell_length_b 20.721787
_cell_length_c 28.824803
_cell_angle_alpha 90.000000
_cell_angle_beta 90.000000
_cell_angle_gamma 90.000000
_cell_volume 5577.786496
_symmetry_space_group_name_H-M "I M M M"
_symmetry_group_IT_number 71
_symmetry_cell_setting 'orthorhombic'
loop_
_space_group_symop_operation_xyz
x,y,z
-x,-y,z
x,-y,-z
-x,y,-z
-x,-y,-z
x,y,-z
-x,y,z
x,-y,z
1/2+x,1/2+y,1/2+z
1/2-x,1/2-y,1/2+z
1/2+x,1/2-y,1/2-z
1/2-x,1/2+y,1/2-z
1/2-x,1/2-y,1/2-z
1/2+x,1/2+y,1/2-z
1/2-x,1/2+y,1/2+z
1/2+x,1/2-y,1/2+z
loop_
_atom_site_type_symbol
_atom_site_label
_atom_site_fract_x
_atom_site_fract_y
_atom_site_fract_z
Si Si1 0.167746 0.115608 0.397529
Si Si2 0.838348 0.267596 0.584407
Si Si3 0.161047 0.076428 0.219608
Si Si4 0.661859 0.922677 0.307086
Si Si5 0.826053 0.000000 0.056156
Si Si6 0.166835 0.751131 0.000000
Si Si7 0.331819 0.097221 0.874899
Si Si8 0.828094 0.114723 0.500000
O O1 0.183286 0.193897 0.399462
O O2 0.264016 0.090699 0.356137
O O3 0.205353 0.087317 0.448841
O O4 0.000000 0.101308 0.389022
O O5 0.722795 0.284905 0.545738
O O6 0.829138 0.325180 0.620558
O O7 0.000000 0.269156 0.564284
O O8 0.243368 0.103535 0.264492
O O9 0.254273 0.081870 0.173246
O O10 0.000000 0.103030 0.214030
O O11 0.146440 0.000000 0.228008
O O12 0.500000 0.897051 0.305760
O O13 0.653656 0.000000 0.301766
O O14 0.752324 0.060515 0.083410
O O15 0.000000 0.000000 0.062892
O O16 0.800026 0.000000 0.000000
O O17 0.248533 0.682924 0.000000
O O18 0.000000 0.741602 0.000000
O O19 0.500000 0.078014 0.875437
O O20 0.000000 0.123993 0.500000
#
# Coordination Sequence:
#
# PCOD9517743 Si02
#       8
#    16  16  16  16   8   8  16   8
#     4   9  17  34  57  80 109 143 182 224 269 321
#     4   9  20  36  53  76 108 145 181 223 272 326
#     4  10  20  36  58  81 106 138 179 227 277 327
#     4  10  21  36  56  82 111 140 178 225 272 323
#     4  11  25  41  55  79 119 155 187 234 281 322
#     4  10  18  28  48  76 102 138 184 224 259 309
#     4  11  22  37  59  82 108 144 187 229 277 331
#     4   8  16  32  53  75 107 146 178 215 262 317
#
# _framework density 18.645389000000002
#
# number of rings (size 3 to 8) (size 9 to 14) (size 15 to 20)
#    0.000    2.231    0.769    3.231    1.077    5.846 
#    0.000    1.154    0.000    2.308    0.000    0.000 
#    0.000    0.000    0.000    0.000    0.000    0.000 
#
# Total GULP energy -289634.766125 kJ/mol
# GULP energy per Si atom -5569.899349 kJ/mol
# Density = 1.860295 g / cm^3
# Si number density = 18.645389 Si / 1000 Ang^3
#
#
#
# Elastic Constant Matrix: (Units=GPa)
#
#
# Indices 1 2 3 4 5 6 
#
# 1 112.1452 11.0462 87.7567 0.0000 0.0000 0.0000
# 2 11.0462 15.8365 3.9325 0.0000 0.0000 0.0000
# 3 87.7567 3.9325 141.9951 0.0000 0.0000 0.0000
# 4 0.0000 0.0000 0.0000 14.2826 0.0000 0.0000
# 5 0.0000 0.0000 0.0000 0.0000 341.3530 0.0000
# 6 0.0000 0.0000 0.0000 0.0000 0.0000 11.8852
#
#
#
# Elastic Compliance Matrix: (Units=1/GPa)
#
#
# Indices 1 2 3 4 5 6 
#
# 1 0.018801 -0.010299 -0.011334 0.000000 0.000000 0.000000
# 2 -0.010299 0.069225 0.004448 0.000000 0.000000 0.000000
# 3 -0.011334 0.004448 0.013924 0.000000 0.000000 0.000000
# 4 0.000000 0.000000 0.000000 0.070015 0.000000 0.000000
# 5 0.000000 0.000000 0.000000 0.000000 0.002930 0.000000
# 6 0.000000 0.000000 0.000000 0.000000 0.000000 0.084138
#
#
# Mechanical properties :
#
#
# Convention : Reuss Voigt Hill
#
# Bulk Modulus (GPa) = 14.79757 52.82752 33.81255
# Shear Modulus (GPa) = 15.82634 84.65359 50.23997
#
# Velocity S-wave (km/s) = 2.91659 6.74540 5.19649
# Velocity P-wave (km/s) = 4.39267 9.43724 7.36061
#
# Compressibility (1/GPa) = 0.06757866
#
# Stress axis : x y z
#
# Youngs Moduli (GPa) = 53.18948 14.44575 71.81809
#
# Poissons Ratio (x) = 0.14878 0.81399
# Poissons Ratio (y) = 0.54781 -0.31945
# Poissons Ratio (z) = 0.60285 -0.06426
#
# Static dielectric constant tensor:
#      x y z
#    x 1.645820 0.000000 0.000000 
#    y 0.000000 1.651450 0.000000 
#    z 0.000000 0.000000 1.649280 
# 
# From -- ./inp_files/63371.got.cif
#   From: 2010.05.17/outbox.cif.g08.bks.cpg/sg71_32_cif.got.tgz:63371.got - 2010.06.03 16:22:01.
