data_PCOD9517890
_publ_section_title
;
Structure prediction by ZEFSAII (Michael W. Deem and Ramdas Pophale) SiO2 
 PCOD9517890
Probable space group: I M M M
;
_chemical_formula_sum "Si O2"
_cell_formula_units_Z 80
_cell_length_a 27.082164
_cell_length_b 8.335259
_cell_length_c 17.846757
_cell_angle_alpha 90.000000
_cell_angle_beta 90.000000
_cell_angle_gamma 90.000000
_cell_volume 4028.670730
_symmetry_space_group_name_H-M "I M M M"
_symmetry_group_IT_number 71
_symmetry_cell_setting 'orthorhombic'
loop_
_space_group_symop_operation_xyz
x,y,z
-x,-y,z
x,-y,-z
-x,y,-z
-x,-y,-z
x,y,-z
-x,y,z
x,-y,z
1/2+x,1/2+y,1/2+z
1/2-x,1/2-y,1/2+z
1/2+x,1/2-y,1/2-z
1/2-x,1/2+y,1/2-z
1/2-x,1/2-y,1/2-z
1/2+x,1/2+y,1/2-z
1/2-x,1/2+y,1/2+z
1/2+x,1/2-y,1/2+z
loop_
_atom_site_type_symbol
_atom_site_label
_atom_site_fract_x
_atom_site_fract_y
_atom_site_fract_z
Si Si1 0.157765 0.309428 0.793465
Si Si2 0.842809 0.189686 0.376454
Si Si3 0.734624 0.195927 0.418017
Si Si4 0.446138 0.690837 0.702252
Si Si5 0.946663 0.308560 0.626208
O O1 0.162827 0.500000 0.781710
O O2 0.160496 0.226231 0.712528
O O3 0.200032 0.251157 0.849920
O O4 0.103339 0.274354 0.826553
O O5 0.791230 0.250300 0.409634
O O6 0.894088 0.259984 0.407465
O O7 0.845138 0.000000 0.388068
O O8 0.715648 0.242916 0.500000
O O9 0.735084 0.000000 0.415072
O O10 0.500000 0.743539 0.672766
O O11 0.441910 0.500000 0.692618
O O12 0.446870 0.729561 0.791228
O O13 0.945882 0.500000 0.635388
O O14 0.000000 0.265926 0.590814
#
# Coordination Sequence:
#
# PCOD9517890 Si02
#       5
#    16  16  16  16  16
#     4  10  18  29  49  72  95 122 152 191 231 272
#     4  10  18  29  49  72  95 122 152 191 231 272
#     4   9  19  34  49  67  92 123 158 194 232 271
#     4   9  16  26  42  66  96 124 150 185 227 271
#     4   9  16  26  42  66  96 124 150 185 227 271
#
# _framework density 19.857666999999999
#
# number of rings (size 3 to 8) (size 9 to 14) (size 15 to 20)
#    0.000    2.600    0.000    5.400    0.000    2.400 
#    0.000    3.000    0.000   10.800    0.000    8.400 
#    0.000    0.000    0.000    0.000    0.000    0.000 
#
# Total GULP energy -222929.156309 kJ/mol
# GULP energy per Si atom -5573.228908 kJ/mol
# Density = 1.981247 g / cm^3
# Si number density = 19.857667 Si / 1000 Ang^3
#
#
#
# Elastic Constant Matrix: (Units=GPa)
#
#
# Indices 1 2 3 4 5 6 
#
# 1 119.1398 -7.3572 30.0467 0.0000 0.0000 0.0000
# 2 -7.3572 12.7406 -8.7655 0.0000 0.0000 0.0000
# 3 30.0467 -8.7655 50.6769 0.0000 0.0000 0.0000
# 4 0.0000 0.0000 0.0000 -1.5364 0.0000 0.0000
# 5 0.0000 0.0000 0.0000 0.0000 -10.7618 0.0000
# 6 0.0000 0.0000 0.0000 0.0000 0.0000 29.1120
#
#
#
# Elastic Compliance Matrix: (Units=1/GPa)
#
#
# Indices 1 2 3 4 5 6 
#
# 1 0.009910 0.001907 -0.005546 0.000000 0.000000 0.000000
# 2 0.001907 0.089459 0.014343 0.000000 0.000000 0.000000
# 3 -0.005546 0.014343 0.025502 0.000000 0.000000 0.000000
# 4 0.000000 0.000000 0.000000 -0.650862 0.000000 0.000000
# 5 0.000000 0.000000 0.000000 0.000000 -0.092921 0.000000
# 6 0.000000 0.000000 0.000000 0.000000 0.000000 0.034350
#
#
# Mechanical properties :
#
#
# Convention : Reuss Voigt Hill
#
# Bulk Modulus (GPa) = 6.83627 23.37834 15.10731
# Shear Modulus (GPa) = -8.97326 14.60497 2.81585
#
# Velocity S-wave (km/s) = -2.12805 2.71492 1.19210
# Velocity P-wave (km/s) = 1.60873 4.65040 3.08530
#
# Compressibility (1/GPa) = 0.14627857
#
# Stress axis : x y z
#
# Youngs Moduli (GPa) = 100.90916 11.17836 39.21282
#
# Poissons Ratio (x) = -0.02132 0.21747
# Poissons Ratio (y) = -0.19245 -0.56242
# Poissons Ratio (z) = 0.55962 -0.16033
#
# Static dielectric constant tensor:
#      x y z
#    x 1.776210 0.000000 0.000000 
#    y 0.000000 1.681670 0.000000 
#    z 0.000000 0.000000 1.669210 
# 
# From -- ./inp_files/49133.got.cif
#   From: 2010.05.17/outbox.cif.g08.bks.cpg/sg71_25_cif.got.tgz:49133.got - 2010.06.03 16:22:01.
