data_PCOD9517548
_publ_section_title
;
Structure prediction by ZEFSAII (Michael W. Deem and Ramdas Pophale) SiO2 
 PCOD9517548
Probable space group: I M M M
;
_chemical_formula_sum "Si O2"
_cell_formula_units_Z 88
_cell_length_a 9.272214
_cell_length_b 18.869706
_cell_length_c 29.644468
_cell_angle_alpha 90.000000
_cell_angle_beta 90.000000
_cell_angle_gamma 90.000000
_cell_volume 5186.713281
_symmetry_space_group_name_H-M "I M M M"
_symmetry_group_IT_number 71
_symmetry_cell_setting 'orthorhombic'
loop_
_space_group_symop_operation_xyz
x,y,z
-x,-y,z
x,-y,-z
-x,y,-z
-x,-y,-z
x,y,-z
-x,y,z
x,-y,z
1/2+x,1/2+y,1/2+z
1/2-x,1/2-y,1/2+z
1/2+x,1/2-y,1/2-z
1/2-x,1/2+y,1/2-z
1/2-x,1/2-y,1/2-z
1/2+x,1/2+y,1/2-z
1/2-x,1/2+y,1/2+z
1/2+x,1/2-y,1/2+z
loop_
_atom_site_type_symbol
_atom_site_label
_atom_site_fract_x
_atom_site_fract_y
_atom_site_fract_z
Si Si1 0.830172 0.000000 0.752969
Si Si2 0.165181 0.414739 0.500000
Si Si3 0.669174 0.156442 0.346984
Si Si4 0.172629 0.500000 0.843243
Si Si5 0.834626 0.634686 0.260000
Si Si6 0.831299 0.704086 0.649035
Si Si7 0.673311 0.583759 0.593133
O O1 0.770082 0.071418 0.774291
O O2 0.762017 0.000000 0.702933
O O3 0.000000 0.000000 0.751669
O O4 0.154564 0.500000 0.500000
O O5 0.254800 0.397460 0.544891
O O6 0.000000 0.386976 0.500000
O O7 0.500000 0.170801 0.355008
O O8 0.702698 0.076872 0.364842
O O9 0.689422 0.153091 0.292370
O O10 0.764656 0.220622 0.364755
O O11 0.000000 0.500000 0.833154
O O12 0.819498 0.696250 0.296533
O O13 0.000000 0.608710 0.262873
O O14 0.744769 0.638744 0.627616
O O15 0.000000 0.699051 0.637347
O O16 0.500000 0.591275 0.591920
O O17 0.704218 0.500000 0.602736
#
# Coordination Sequence:
#
# PCOD9517548 Si02
#       7
#     8   8  16   8  16  16  16
#     4  10  18  26  42  64  82 107 154 205 240 280
#     4   9  17  33  57  79  99 126 161 196 239 293
#     4   9  17  32  50  66  89 123 163 204 248 296
#     4   8  16  32  50  64  84 117 154 193 242 294
#     4   9  19  33  45  59  87 128 163 199 248 298
#     4  11  22  32  46  69  97 126 160 203 248 291
#     4  10  21  36  53  74 101 132 166 202 242 288
#
# _framework density 16.966429000000002
#
# number of rings (size 3 to 8) (size 9 to 14) (size 15 to 20)
#    0.000    2.455    0.000    3.818    1.273    6.545 
#    0.000    0.000    0.000    0.000    0.000    0.000 
#    0.000    0.727    0.000    7.818    0.000    3.455 
#
# Total GULP energy -245099.020108 kJ/mol
# GULP energy per Si atom -5570.432275 kJ/mol
# Density = 1.692781 g / cm^3
# Si number density = 16.966429 Si / 1000 Ang^3
#
#
#
# Elastic Constant Matrix: (Units=GPa)
#
#
# Indices 1 2 3 4 5 6 
#
# 1 95.8834 74.1428 21.0274 0.0000 0.0000 0.0000
# 2 74.1428 106.0861 10.3134 0.0000 0.0000 0.0000
# 3 21.0274 10.3134 30.0244 0.0000 0.0000 0.0000
# 4 0.0000 0.0000 0.0000 8.8250 0.0000 0.0000
# 5 0.0000 0.0000 0.0000 0.0000 17.4007 0.0000
# 6 0.0000 0.0000 0.0000 0.0000 0.0000 27.2147
#
#
#
# Elastic Compliance Matrix: (Units=1/GPa)
#
#
# Indices 1 2 3 4 5 6 
#
# 1 0.026677 -0.017410 -0.012703 0.000000 0.000000 0.000000
# 2 -0.017410 0.021113 0.004940 0.000000 0.000000 0.000000
# 3 -0.012703 0.004940 0.040506 0.000000 0.000000 0.000000
# 4 0.000000 0.000000 0.000000 0.113315 0.000000 0.000000
# 5 0.000000 0.000000 0.000000 0.000000 0.057469 0.000000
# 6 0.000000 0.000000 0.000000 0.000000 0.000000 0.036745
#
#
# Mechanical properties :
#
#
# Convention : Reuss Voigt Hill
#
# Bulk Modulus (GPa) = 26.34932 49.21788 37.78360
# Shear Modulus (GPa) = 13.93455 19.12211 16.52833
#
# Velocity S-wave (km/s) = 2.86894 3.36081 3.12457
# Velocity P-wave (km/s) = 5.15155 6.64319 5.94434
#
# Compressibility (1/GPa) = 0.03795164
#
# Stress axis : x y z
#
# Youngs Moduli (GPa) = 37.48502 47.36307 24.68784
#
# Poissons Ratio (x) = 0.82457 0.31361
# Poissons Ratio (y) = 0.65260 -0.12196
# Poissons Ratio (z) = 0.47618 -0.23399
#
# Static dielectric constant tensor:
#      x y z
#    x 1.565300 0.000000 0.000000 
#    y 0.000000 1.608390 0.000000 
#    z 0.000000 0.000000 1.563810 
# 
# From -- ./inp_files/42535.got.cif
#   From: 2010.05.17/outbox.cif.g08.bks.cpg/sg71_22_cif.got.tgz:42535.got - 2010.06.03 16:22:01.
