data_PCOD9517294
_publ_section_title
;
Structure prediction by ZEFSAII (Michael W. Deem and Ramdas Pophale) SiO2 
 PCOD9517294
Probable space group: I M M M
;
_chemical_formula_sum "Si O2"
_cell_formula_units_Z 88
_cell_length_a 15.386028
_cell_length_b 8.215365
_cell_length_c 31.051976
_cell_angle_alpha 90.000000
_cell_angle_beta 90.000000
_cell_angle_gamma 90.000000
_cell_volume 3925.026775
_symmetry_space_group_name_H-M "I M M M"
_symmetry_group_IT_number 71
_symmetry_cell_setting 'orthorhombic'
loop_
_space_group_symop_operation_xyz
x,y,z
-x,-y,z
x,-y,-z
-x,y,-z
-x,-y,-z
x,y,-z
-x,y,z
x,-y,z
1/2+x,1/2+y,1/2+z
1/2-x,1/2-y,1/2+z
1/2+x,1/2-y,1/2-z
1/2-x,1/2+y,1/2-z
1/2-x,1/2-y,1/2-z
1/2+x,1/2+y,1/2-z
1/2-x,1/2+y,1/2+z
1/2+x,1/2-y,1/2+z
loop_
_atom_site_type_symbol
_atom_site_label
_atom_site_fract_x
_atom_site_fract_y
_atom_site_fract_z
Si Si1 0.865588 0.685627 0.789023
Si Si2 0.908265 0.000000 0.157203
Si Si3 0.831740 0.000000 0.929093
Si Si4 0.327102 0.194598 0.193859
Si Si5 0.873550 0.500000 0.450348
Si Si6 0.636627 0.683943 0.899767
Si Si7 0.184053 0.672129 0.951066
O O1 0.890340 0.500000 0.800856
O O2 0.904121 0.836333 0.815010
O O3 0.762289 0.708433 0.797379
O O4 0.881090 0.709634 0.738022
O O5 0.832525 0.000000 0.122240
O O6 0.000000 0.000000 0.132961
O O7 0.732662 0.000000 0.946756
O O8 0.871755 0.832070 0.944473
O O9 0.366629 0.265372 0.150173
O O10 0.310298 0.000000 0.189247
O O11 0.897420 0.500000 0.500000
O O12 0.901647 0.665911 0.426853
O O13 0.603074 0.500000 0.906319
O O14 0.737144 0.677404 0.916771
O O15 0.137987 0.500000 0.945769
O O16 0.220407 0.676525 0.000000
#
# Coordination Sequence:
#
# PCOD9517294 Si02
#       7
#    16   8   8  16   8  16  16
#     4  10  21  35  53  74  99 131 163 212 268 322
#     4  12  26  40  54  73 102 138 179 225 269 318
#     4  10  18  30  48  65  84 120 168 213 248 286
#     4  10  18  31  51  78 105 125 161 214 268 313
#     4  10  18  28  44  67 100 136 172 210 250 312
#     4  10  17  24  39  64  95 130 161 199 241 302
#     4   9  17  28  44  69  97 127 165 205 251 310
#
# _framework density 22.420228999999999
#
# number of rings (size 3 to 8) (size 9 to 14) (size 15 to 20)
#    0.000    2.000    1.818    5.182    2.545    3.636 
#    0.000    0.000    0.000    2.455    0.000    1.273 
#    0.000    0.000    0.000    0.000    0.000    8.182 
#
# Total GULP energy -245438.788481 kJ/mol
# GULP energy per Si atom -5578.154284 kJ/mol
# Density = 2.236920 g / cm^3
# Si number density = 22.420229 Si / 1000 Ang^3
#
#
#
# Elastic Constant Matrix: (Units=GPa)
#
#
# Indices 1 2 3 4 5 6 
#
# 1 28.7699 11.4988 10.8327 0.0000 0.0000 0.0000
# 2 11.4988 260.1492 77.5101 0.0000 0.0000 0.0000
# 3 10.8327 77.5101 146.9445 0.0000 0.0000 0.0000
# 4 0.0000 0.0000 0.0000 35.5219 0.0000 0.0000
# 5 0.0000 0.0000 0.0000 0.0000 -7.6702 0.0000
# 6 0.0000 0.0000 0.0000 0.0000 0.0000 -112.1991
#
#
#
# Elastic Compliance Matrix: (Units=1/GPa)
#
#
# Indices 1 2 3 4 5 6 
#
# 1 0.035947 -0.000948 -0.002150 0.000000 0.000000 0.000000
# 2 -0.000948 0.004586 -0.002349 0.000000 0.000000 0.000000
# 3 -0.002150 -0.002349 0.008203 0.000000 0.000000 0.000000
# 4 0.000000 0.000000 0.000000 0.028152 0.000000 0.000000
# 5 0.000000 0.000000 0.000000 0.000000 -0.130375 0.000000
# 6 0.000000 0.000000 0.000000 0.000000 0.000000 -0.008913
#
#
# Mechanical properties :
#
#
# Convention : Reuss Voigt Hill
#
# Bulk Modulus (GPa) = 26.42611 70.61632 48.52121
# Shear Modulus (GPa) = -128.56021 5.53199 -61.51411
#
# Velocity S-wave (km/s) = -7.58061 1.57250 -5.24370
# Velocity P-wave (km/s) = 8.05038 5.90441 3.86953
#
# Compressibility (1/GPa) = 0.03784136
#
# Stress axis : x y z
#
# Youngs Moduli (GPa) = 27.81870 218.06787 121.90956
#
# Poissons Ratio (x) = 0.20681 0.26208
# Poissons Ratio (y) = 0.02638 0.28636
# Poissons Ratio (z) = 0.05980 0.51223
#
# Static dielectric constant tensor:
#      x y z
#    x 1.806620 0.000000 0.000000 
#    y 0.000000 1.886730 0.000000 
#    z 0.000000 0.000000 1.823330 
# 
# From -- ./inp_files/11407.got.cif
#   From: 2010.05.17/outbox.cif.g08.bks.cpg/sg71_6_cif.got.tgz:11407.got - 2010.06.03 16:22:01.
