data_PCOD9517710
_publ_section_title
;
Structure prediction by ZEFSAII (Michael W. Deem and Ramdas Pophale) SiO2 
 PCOD9517710
Probable space group: I M M M
;
_chemical_formula_sum "Si O2"
_cell_formula_units_Z 88
_cell_length_a 8.547437
_cell_length_b 27.708118
_cell_length_c 20.188412
_cell_angle_alpha 90.000000
_cell_angle_beta 90.000000
_cell_angle_gamma 90.000000
_cell_volume 4781.290113
_symmetry_space_group_name_H-M "I M M M"
_symmetry_group_IT_number 71
_symmetry_cell_setting 'orthorhombic'
loop_
_space_group_symop_operation_xyz
x,y,z
-x,-y,z
x,-y,-z
-x,y,-z
-x,-y,-z
x,y,-z
-x,y,z
x,-y,z
1/2+x,1/2+y,1/2+z
1/2-x,1/2-y,1/2+z
1/2+x,1/2-y,1/2-z
1/2-x,1/2+y,1/2-z
1/2-x,1/2-y,1/2-z
1/2+x,1/2+y,1/2-z
1/2-x,1/2+y,1/2+z
1/2+x,1/2-y,1/2+z
loop_
_atom_site_type_symbol
_atom_site_label
_atom_site_fract_x
_atom_site_fract_y
_atom_site_fract_z
Si Si1 0.810525 0.393644 0.387348
Si Si2 0.190143 0.321155 0.500000
Si Si3 0.812852 0.137477 0.603303
Si Si4 0.686590 0.102798 0.265389
Si Si5 0.814029 0.287108 0.000000
Si Si6 0.683490 0.500000 0.763461
Si Si7 0.690353 0.555756 0.000000
Si Si8 0.189332 0.500000 0.615845
O O1 0.756317 0.351694 0.435845
O O2 0.758145 0.389384 0.310646
O O3 0.773773 0.447712 0.414362
O O4 0.000000 0.391215 0.386000
O O5 0.250439 0.267021 0.500000
O O6 0.000000 0.320402 0.500000
O O7 0.755760 0.136964 0.678591
O O8 0.747204 0.182652 0.562873
O O9 0.763084 0.088722 0.563246
O O10 0.000000 0.138689 0.601204
O O11 0.500000 0.105600 0.265037
O O12 0.739066 0.049208 0.287064
O O13 0.000000 0.286798 0.000000
O O14 0.500000 0.500000 0.777920
O O15 0.719571 0.500000 0.685098
O O16 0.745430 0.500000 0.000000
O O17 0.500000 0.553793 0.000000
O O18 0.000000 0.500000 0.628663
#
# Coordination Sequence:
#
# PCOD9517710 Si02
#       8
#    16   8  16  16   8   8   8   8
#     4   8  16  30  53  82 112 144 179 222 271 326
#     4  10  19  36  60  82 103 136 185 234 277 331
#     4  10  20  35  57  81 106 142 183 223 268 323
#     4  10  19  33  51  78 114 147 179 222 275 326
#     4  11  23  41  59  77 104 141 179 226 285 330
#     4  10  18  28  45  72 106 150 189 216 253 310
#     4   8  16  30  48  75 108 135 167 213 254 301
#     4   8  14  29  48  74 111 143 171 212 269 325
#
# _framework density 18.405075
#
# number of rings (size 3 to 8) (size 9 to 14) (size 15 to 20)
#    0.000    2.636    0.000    4.364    1.273    0.364 
#    0.000    7.273    0.000    1.636    0.000   10.818 
#    0.000    0.000    0.000    0.000    0.000    0.000 
#
# Total GULP energy -245203.924948 kJ/mol
# GULP energy per Si atom -5572.816476 kJ/mol
# Density = 1.836318 g / cm^3
# Si number density = 18.405075 Si / 1000 Ang^3
#
#
#
# Elastic Constant Matrix: (Units=GPa)
#
#
# Indices 1 2 3 4 5 6 
#
# 1 48.2729 31.1480 30.1135 0.0000 0.0000 0.0000
# 2 31.1480 162.5807 85.3032 0.0000 0.0000 0.0000
# 3 30.1135 85.3032 125.9941 0.0000 0.0000 0.0000
# 4 0.0000 0.0000 0.0000 26.7350 0.0000 0.0000
# 5 0.0000 0.0000 0.0000 0.0000 13.8477 0.0000
# 6 0.0000 0.0000 0.0000 0.0000 0.0000 17.7800
#
#
#
# Elastic Compliance Matrix: (Units=1/GPa)
#
#
# Indices 1 2 3 4 5 6 
#
# 1 0.025018 -0.002568 -0.004241 0.000000 0.000000 0.000000
# 2 -0.002568 0.009803 -0.006023 0.000000 0.000000 0.000000
# 3 -0.004241 -0.006023 0.013029 0.000000 0.000000 0.000000
# 4 0.000000 0.000000 0.000000 0.037404 0.000000 0.000000
# 5 0.000000 0.000000 0.000000 0.000000 0.072214 0.000000
# 6 0.000000 0.000000 0.000000 0.000000 0.000000 0.056243
#
#
# Mechanical properties :
#
#
# Convention : Reuss Voigt Hill
#
# Bulk Modulus (GPa) = 45.07486 69.99745 57.53615
# Shear Modulus (GPa) = 20.26174 24.35808 22.30991
#
# Velocity S-wave (km/s) = 3.32155 3.64186 3.48539
# Velocity P-wave (km/s) = 6.26529 7.46983 6.89392
#
# Compressibility (1/GPa) = 0.02218532
#
# Stress axis : x y z
#
# Youngs Moduli (GPa) = 39.97116 102.00832 76.75461
#
# Poissons Ratio (x) = 0.26195 0.32551
# Poissons Ratio (y) = 0.10264 0.46232
# Poissons Ratio (z) = 0.16951 0.61443
#
# Static dielectric constant tensor:
#      x y z
#    x 1.614610 0.000000 0.000000 
#    y 0.000000 1.620420 0.000000 
#    z 0.000000 0.000000 1.687140 
# 
# From -- ./inp_files/50634.got.cif
#   From: 2010.05.17/outbox.cif.g08.bks.cpg/sg71_26_cif.got.tgz:50634.got - 2010.06.03 16:22:01.
