data_PCOD9517722
_publ_section_title
;
Structure prediction by ZEFSAII (Michael W. Deem and Ramdas Pophale) SiO2 
 PCOD9517722
Probable space group: I M M M
;
_chemical_formula_sum "Si O2"
_cell_formula_units_Z 112
_cell_length_a 15.333992
_cell_length_b 24.549440
_cell_length_c 14.497085
_cell_angle_alpha 90.000000
_cell_angle_beta 90.000000
_cell_angle_gamma 90.000000
_cell_volume 5457.295965
_symmetry_space_group_name_H-M "I M M M"
_symmetry_group_IT_number 71
_symmetry_cell_setting 'orthorhombic'
loop_
_space_group_symop_operation_xyz
x,y,z
-x,-y,z
x,-y,-z
-x,y,-z
-x,-y,-z
x,y,-z
-x,y,z
x,-y,z
1/2+x,1/2+y,1/2+z
1/2-x,1/2-y,1/2+z
1/2+x,1/2-y,1/2-z
1/2-x,1/2+y,1/2-z
1/2-x,1/2-y,1/2-z
1/2+x,1/2+y,1/2-z
1/2-x,1/2+y,1/2+z
1/2+x,1/2-y,1/2+z
loop_
_atom_site_type_symbol
_atom_site_label
_atom_site_fract_x
_atom_site_fract_y
_atom_site_fract_z
Si Si1 0.253335 0.560083 0.608006
Si Si2 0.101769 0.618743 0.715237
Si Si3 0.164896 0.720354 0.394374
Si Si4 0.644128 0.668294 0.396959
Si Si5 0.894138 0.939707 0.391831
Si Si6 0.105736 0.438039 0.103285
Si Si7 0.599276 0.672482 0.807636
O O1 0.230967 0.558749 0.500000
O O2 0.280312 0.500000 0.638066
O O3 0.167410 0.580462 0.659336
O O4 0.328504 0.605073 0.614869
O O5 0.116592 0.678977 0.675097
O O6 0.127166 0.607343 0.821380
O O7 0.000000 0.604177 0.704070
O O8 0.132105 0.714961 0.500000
O O9 0.265040 0.701331 0.395511
O O10 0.154029 0.781069 0.357702
O O11 0.605533 0.675618 0.500000
O O12 0.597265 0.682471 0.302065
O O13 0.872867 0.931554 0.500000
O O14 0.865755 0.887783 0.332517
O O15 0.000000 0.941444 0.385602
O O16 0.861892 0.000000 0.364290
O O17 0.132249 0.500000 0.130131
O O18 0.000000 0.439057 0.098644
O O19 0.138748 0.427263 0.000000
O O20 0.500000 0.676157 0.843260
#
# Coordination Sequence:
#
# PCOD9517722 Si02
#       7
#    16  16  16  16  16  16  16
#     4   9  18  32  50  72  99 136 177 212 257 317
#     4  10  18  28  46  74 106 138 175 221 266 302
#     4  10  21  37  55  76 106 143 179 212 256 320
#     4   9  20  38  55  72 102 143 178 211 254 307
#     4   8  15  29  49  76 109 136 160 204 270 333
#     4   8  14  25  41  62  91 130 175 218 257 297
#     4  11  21  33  56  85 106 131 172 220 270 321
#
# _framework density 20.522984000000001
#
# number of rings (size 3 to 8) (size 9 to 14) (size 15 to 20)
#    0.000    2.714    0.000    3.857    0.000    4.286 
#    0.000    1.429    0.000    8.571    0.000   12.000 
#    0.000    0.000    0.000    0.000    0.000    0.000 
#
# Total GULP energy -312270.987300 kJ/mol
# GULP energy per Si atom -5576.267630 kJ/mol
# Density = 2.047627 g / cm^3
# Si number density = 20.522984 Si / 1000 Ang^3
#
#
#
# Elastic Constant Matrix: (Units=GPa)
#
#
# Indices 1 2 3 4 5 6 
#
# 1 25.2764 3.2420 4.6592 0.0000 0.0000 0.0000
# 2 3.2420 124.3638 60.4261 0.0002 0.0000 0.0000
# 3 4.6592 60.4261 124.7391 0.0002 -0.0001 0.0000
# 4 0.0000 0.0002 0.0002 47.7866 0.0000 0.0000
# 5 0.0000 0.0000 -0.0001 0.0000 35.0288 0.0000
# 6 0.0000 0.0000 0.0000 0.0000 0.0000 -4.4374
#
#
#
# Elastic Compliance Matrix: (Units=1/GPa)
#
#
# Indices 1 2 3 4 5 6 
#
# 1 0.039853 -0.000413 -0.001289 0.000000 0.000000 0.000000
# 2 -0.000413 0.010520 -0.005081 0.000000 0.000000 0.000000
# 3 -0.001289 -0.005081 0.010526 0.000000 0.000000 0.000000
# 4 0.000000 0.000000 0.000000 0.020926 0.000000 0.000000
# 5 0.000000 0.000000 0.000000 0.000000 0.028548 0.000000
# 6 0.000000 0.000000 0.000000 0.000000 0.000000 -0.225357
#
#
# Mechanical properties :
#
#
# Convention : Reuss Voigt Hill
#
# Bulk Modulus (GPa) = 21.12599 45.67043 33.39821
# Shear Modulus (GPa) = -58.38360 29.41240 -14.48560
#
# Velocity S-wave (km/s) = -5.33944 3.78980 -2.65962
# Velocity P-wave (km/s) = 5.26277 6.43830 2.62250
#
# Compressibility (1/GPa) = 0.04733505
#
# Stress axis : x y z
#
# Youngs Moduli (GPa) = 25.09217 95.05355 95.00160
#
# Poissons Ratio (x) = 0.03924 0.12242
# Poissons Ratio (y) = 0.01036 0.48269
# Poissons Ratio (z) = 0.03233 0.48295
#
# Static dielectric constant tensor:
#      x y z
#    x 1.730270 0.000000 0.000000 
#    y 0.000000 1.736270 0.000000 
#    z 0.000000 0.000000 1.752320 
# 
# From -- ./inp_files/34914.got.cif
#   From: 2010.05.17/outbox.cif.g08.bks.cpg/sg71_18_cif.got.tgz:34914.got - 2010.06.03 16:22:01.
