data_PCOD9517957
_publ_section_title
;
Structure prediction by ZEFSAII (Michael W. Deem and Ramdas Pophale) SiO2 
 PCOD9517957
Probable space group: I M M M
;
_chemical_formula_sum "Si O2"
_cell_formula_units_Z 116
_cell_length_a 7.806819
_cell_length_b 27.299901
_cell_length_c 31.734277
_cell_angle_alpha 90.000000
_cell_angle_beta 90.000000
_cell_angle_gamma 90.000000
_cell_volume 6763.380029
_symmetry_space_group_name_H-M "I M M M"
_symmetry_group_IT_number 71
_symmetry_cell_setting 'orthorhombic'
loop_
_space_group_symop_operation_xyz
x,y,z
-x,-y,z
x,-y,-z
-x,y,-z
-x,-y,-z
x,y,-z
-x,y,z
x,-y,z
1/2+x,1/2+y,1/2+z
1/2-x,1/2-y,1/2+z
1/2+x,1/2-y,1/2-z
1/2-x,1/2+y,1/2-z
1/2-x,1/2-y,1/2-z
1/2+x,1/2+y,1/2-z
1/2-x,1/2+y,1/2+z
1/2+x,1/2-y,1/2+z
loop_
_atom_site_type_symbol
_atom_site_label
_atom_site_fract_x
_atom_site_fract_y
_atom_site_fract_z
Si Si1 0.206824 0.875065 0.628138
Si Si2 0.500000 0.318110 0.500000
Si Si3 0.203493 0.357357 0.741532
Si Si4 0.295879 0.054826 0.699889
Si Si5 0.301853 0.208073 0.064934
Si Si6 0.207039 0.821796 0.452337
Si Si7 0.200882 0.214375 0.311371
Si Si8 0.805933 0.182717 0.156179
O O1 0.266846 0.922487 0.653501
O O2 0.268137 0.862048 0.581231
O O3 0.257484 0.828489 0.656754
O O4 0.000000 0.876585 0.627739
O O5 0.346053 0.315394 0.536412
O O6 0.271175 0.405352 0.766221
O O7 0.275610 0.309831 0.765774
O O8 0.241646 0.354150 0.692194
O O9 0.000000 0.355412 0.747311
O O10 0.500000 0.052241 0.706387
O O11 0.225396 0.000000 0.703945
O O12 0.500000 0.203157 0.049946
O O13 0.260594 0.266633 0.064057
O O14 0.293396 0.187846 0.112413
O O15 0.273601 0.826246 0.500000
O O16 0.000000 0.826115 0.454097
O O17 0.296374 0.263916 0.321952
O O18 0.000000 0.224398 0.318310
O O19 0.000000 0.170517 0.145732
#
# Coordination Sequence:
#
# PCOD9517957 Si02
#       8
#    16   4  16  16  16  16  16  16
#     4   9  17  29  47  71  93 119 162 207 253 305
#     4  12  22  36  48  78  96 140 196 216 252 302
#     4  10  20  33  48  69  94 128 164 205 258 311
#     4   9  19  36  54  71  91 120 160 207 261 319
#     4  11  21  35  51  70 102 142 178 222 257 295
#     4   9  16  29  48  67  94 129 164 207 257 301
#     4  10  18  30  46  66  96 132 166 205 249 299
#     4  12  22  32  46  70 101 135 173 209 249 300
#
# _framework density 17.151188000000001
#
# number of rings (size 3 to 8) (size 9 to 14) (size 15 to 20)
#    0.000    1.931    2.759    2.690    0.000    1.379 
#    1.241    0.000    0.000    0.414    0.000    2.897 
#    0.000    0.000    0.000    1.241    0.000   10.552 
#
# Total GULP energy -322892.014819 kJ/mol
# GULP energy per Si atom -5567.103704 kJ/mol
# Density = 1.711215 g / cm^3
# Si number density = 17.151188 Si / 1000 Ang^3
#
#
#
# Elastic Constant Matrix: (Units=GPa)
#
#
# Indices 1 2 3 4 5 6 
#
# 1 51.9311 1.7584 10.2221 0.0000 0.0000 0.0000
# 2 1.7584 39.0867 31.0767 0.0000 0.0000 0.0000
# 3 10.2221 31.0767 134.4168 0.0000 0.0000 0.0000
# 4 0.0000 0.0000 0.0000 5.1185 0.0000 0.0000
# 5 0.0000 0.0000 0.0000 0.0000 25.4605 0.0000
# 6 0.0000 0.0000 0.0000 0.0000 0.0000 10.1088
#
#
#
# Elastic Compliance Matrix: (Units=1/GPa)
#
#
# Indices 1 2 3 4 5 6 
#
# 1 0.019553 0.000371 -0.001573 0.000000 0.000000 0.000000
# 2 0.000371 0.031353 -0.007277 0.000000 0.000000 0.000000
# 3 -0.001573 -0.007277 0.009242 0.000000 0.000000 0.000000
# 4 0.000000 0.000000 0.000000 0.195371 0.000000 0.000000
# 5 0.000000 0.000000 0.000000 0.000000 0.039277 0.000000
# 6 0.000000 0.000000 0.000000 0.000000 0.000000 0.098923
#
#
# Mechanical properties :
#
#
# Convention : Reuss Voigt Hill
#
# Bulk Modulus (GPa) = 23.15337 34.61655 28.88496
# Shear Modulus (GPa) = 11.76268 20.29606 16.02937
#
# Velocity S-wave (km/s) = 2.62166 3.44373 3.06043
# Velocity P-wave (km/s) = 4.76372 6.00328 5.41906
#
# Compressibility (1/GPa) = 0.04319027
#
# Stress axis : x y z
#
# Youngs Moduli (GPa) = 51.14222 31.89478 108.20703
#
# Poissons Ratio (x) = -0.01183 0.17018
# Poissons Ratio (y) = -0.01896 0.78741
# Poissons Ratio (z) = 0.08043 0.23210
#
# Static dielectric constant tensor:
#      x y z
#    x 1.622850 0.000000 0.000000 
#    y 0.000000 1.565760 0.000000 
#    z 0.000000 0.000000 1.626150 
# 
# From -- ./inp_files/68610.got.cif
#   From: 2010.05.17/outbox.cif.g08.bks.cpg/sg71_35_cif.got.tgz:68610.got - 2010.06.03 16:22:01.
