data_PCOD9517045
_publ_section_title
;
Structure prediction by ZEFSAII (Michael W. Deem and Ramdas Pophale) SiO2 
 PCOD9517045
Probable space group: F D D D
;
_chemical_formula_sum "Si O2"
_cell_formula_units_Z 176
_cell_length_a 10.926086
_cell_length_b 32.813516
_cell_length_c 22.043542
_cell_angle_alpha 90.000000
_cell_angle_beta 90.000000
_cell_angle_gamma 90.000000
_cell_volume 7903.123373
_symmetry_space_group_name_H-M "F D D D"
_symmetry_group_IT_number 70
_space_group.IT_coordinate_system_code '2'
_symmetry_cell_setting 'orthorhombic'
loop_
_space_group_symop_operation_xyz
x,y,z
1/4-x,1/4-y,z
x,1/4-y,1/4-z
1/4-x,y,1/4-z
-x,-y,-z
3/4+x,3/4+y,-z
-x,3/4+y,3/4+z
3/4+x,-y,3/4+z
x,1/2+y,1/2+z
1/4-x,3/4-y,1/2+z
x,3/4-y,3/4-z
1/4-x,1/2+y,3/4-z
-x,1/2-y,1/2-z
3/4+x,1/4+y,1/2-z
-x,1/4+y,1/4+z
3/4+x,1/2-y,1/4+z
1/2+x,y,1/2+z
3/4-x,1/4-y,1/2+z
1/2+x,1/4-y,3/4-z
3/4-x,y,3/4-z
1/2-x,-y,1/2-z
1/4+x,3/4+y,1/2-z
1/2-x,3/4+y,1/4+z
1/4+x,-y,1/4+z
1/2+x,1/2+y,z
3/4-x,3/4-y,z
1/2+x,3/4-y,1/4-z
3/4-x,1/2+y,1/4-z
1/2-x,1/2-y,-z
1/4+x,1/4+y,-z
1/2-x,1/4+y,3/4+z
1/4+x,1/2-y,3/4+z
loop_
_atom_site_type_symbol
_atom_site_label
_atom_site_fract_x
_atom_site_fract_y
_atom_site_fract_z
Si Si1 0.875000 0.375000 0.551208
Si Si2 0.375000 0.266301 0.875000
Si Si3 0.786683 0.179653 0.537388
Si Si4 0.313171 0.191467 0.314681
Si Si5 0.298998 0.413907 0.256303
Si Si6 0.001818 0.517961 0.268071
Si Si7 0.451762 0.125000 0.125000
O O1 0.784763 0.349227 0.508487
O O2 0.790273 0.408630 0.583602
O O3 0.309331 0.294103 0.924648
O O4 0.270940 0.241501 0.838877
O O5 0.880697 0.208431 0.502560
O O6 0.867067 0.153245 0.583569
O O7 0.375000 0.209157 0.375000
O O8 0.419943 0.169138 0.276732
O O9 0.263627 0.226876 0.271220
O O10 0.375000 0.375000 0.232791
O O11 0.381400 0.453719 0.245568
O O12 0.273618 0.403609 0.327139
#
# Coordination Sequence:
#
# PCOD9517045 Si02
#       7
#    16  16  32  32  32  32  16
#     4  12  24  53  70 110 142 193 266 298 380 450
#     4  12  26  47  76 108 150 198 248 322 368 452
#     4  12  25  47  77 108 143 191 258 312 374 442
#     4  12  29  47  76 110 152 196 247 317 381 466
#     4  12  26  49  71 112 144 199 249 306 385 449
#     4  12  28  47  75 111 152 193 253 307 394 445
#     4  12  23  45  78 106 142 195 249 314 360 458
#
# _framework density 22.269676
#
# number of rings (size 3 to 8) (size 9 to 14) (size 15 to 20)
#    0.000    0.000    5.455    3.545    6.364    0.000 
#    3.273    0.000    0.000    0.000    0.000    0.000 
#    0.000    0.000    0.000    0.000    0.000    0.000 
#
# Total GULP energy -246430.338514 kJ/mol
# GULP energy per Si atom -5600.689512 kJ/mol
# Density = 2.221899 g / cm^3
# Si number density = 22.269676 Si / 1000 Ang^3
#
#
#
# Elastic Constant Matrix: (Units=GPa)
#
#
# Indices 1 2 3 4 5 6 
#
# 1 95.6716 42.2186 15.4395 0.0000 0.0000 0.0000
# 2 42.2186 99.3520 19.7001 0.0000 0.0000 0.0000
# 3 15.4395 19.7001 83.7197 0.0000 0.0000 0.0000
# 4 0.0000 0.0000 0.0000 40.8527 0.0000 0.0000
# 5 0.0000 0.0000 0.0000 0.0000 27.0456 0.0000
# 6 0.0000 0.0000 0.0000 0.0000 0.0000 241.2044
#
#
#
# Elastic Compliance Matrix: (Units=1/GPa)
#
#
# Indices 1 2 3 4 5 6 
#
# 1 0.012969 -0.005283 -0.001149 0.000000 0.000000 0.000000
# 2 -0.005283 0.012710 -0.002016 0.000000 0.000000 0.000000
# 3 -0.001149 -0.002016 0.012631 0.000000 0.000000 0.000000
# 4 0.000000 0.000000 0.000000 0.024478 0.000000 0.000000
# 5 0.000000 0.000000 0.000000 0.000000 0.036975 0.000000
# 6 0.000000 0.000000 0.000000 0.000000 0.000000 0.004146
#
#
# Mechanical properties :
#
#
# Convention : Reuss Voigt Hill
#
# Bulk Modulus (GPa) = 46.69944 48.16219 47.43081
# Shear Modulus (GPa) = 39.07968 75.24622 57.16295
#
# Velocity S-wave (km/s) = 4.19362 5.81911 5.07191
# Velocity P-wave (km/s) = 6.66814 8.17454 7.45946
#
# Compressibility (1/GPa) = 0.02141353
#
# Stress axis : x y z
#
# Youngs Moduli (GPa) = 77.10525 78.67692 79.17069
#
# Poissons Ratio (x) = 0.41568 0.09093
# Poissons Ratio (y) = 0.40738 0.15965
# Poissons Ratio (z) = 0.08856 0.15865
#
# Static dielectric constant tensor:
#      x y z
#    x 1.794090 0.000000 0.000000 
#    y 0.000000 1.789560 0.000000 
#    z 0.000000 0.000000 1.716820 
# 
# From -- ./inp_files/50459.got.cif
#   From: 2010.05.17/outbox.cif.g08.bks.cpg/sg70_26_cif.got.tgz:50459.got - 2010.06.03 15:57:51.
