data_PCOD9517009
_publ_section_title
;
Structure prediction by ZEFSAII (Michael W. Deem and Ramdas Pophale) SiO2 
 PCOD9517009
Probable space group: F D D D
;
_chemical_formula_sum "Si O2"
_cell_formula_units_Z 96
_cell_length_a 24.668144
_cell_length_b 13.990045
_cell_length_c 11.281916
_cell_angle_alpha 90.000000
_cell_angle_beta 90.000000
_cell_angle_gamma 90.000000
_cell_volume 3893.484483
_symmetry_space_group_name_H-M "F D D D"
_symmetry_group_IT_number 70
_space_group.IT_coordinate_system_code '2'
_symmetry_cell_setting 'orthorhombic'
loop_
_space_group_symop_operation_xyz
x,y,z
1/4-x,1/4-y,z
x,1/4-y,1/4-z
1/4-x,y,1/4-z
-x,-y,-z
3/4+x,3/4+y,-z
-x,3/4+y,3/4+z
3/4+x,-y,3/4+z
x,1/2+y,1/2+z
1/4-x,3/4-y,1/2+z
x,3/4-y,3/4-z
1/4-x,1/2+y,3/4-z
-x,1/2-y,1/2-z
3/4+x,1/4+y,1/2-z
-x,1/4+y,1/4+z
3/4+x,1/2-y,1/4+z
1/2+x,y,1/2+z
3/4-x,1/4-y,1/2+z
1/2+x,1/4-y,3/4-z
3/4-x,y,3/4-z
1/2-x,-y,1/2-z
1/4+x,3/4+y,1/2-z
1/2-x,3/4+y,1/4+z
1/4+x,-y,1/4+z
1/2+x,1/2+y,z
3/4-x,3/4-y,z
1/2+x,3/4-y,1/4-z
3/4-x,1/2+y,1/4-z
1/2-x,1/2-y,-z
1/4+x,1/4+y,-z
1/2-x,1/4+y,3/4+z
1/4+x,1/2-y,3/4+z
loop_
_atom_site_type_symbol
_atom_site_label
_atom_site_fract_x
_atom_site_fract_y
_atom_site_fract_z
Si Si1 0.603736 0.875000 0.875000
Si Si2 0.125000 0.427139 0.125000
Si Si3 0.225917 0.705793 0.218467
Si Si4 0.570611 0.670398 0.928926
O O1 0.625274 0.889503 0.741013
O O2 0.587359 0.763862 0.853780
O O3 0.072460 0.492901 0.148974
O O4 0.248564 0.625000 0.125000
O O5 0.271422 0.783462 0.252798
O O6 0.204576 0.654076 0.335163
O O7 0.625000 0.625000 0.981535
#
# Coordination Sequence:
#
# PCOD9517009 Si02
#       4
#    16  16  32  32
#     4  12  24  46  74 113 159 200 254 322 384 458
#     4  12  25  44  79 118 158 200 259 320 393 464
#     4  12  21  41  74 117 149 199 263 324 375 465
#     4  12  24  43  76 117 153 199 264 326 386 456
#
# _framework density 24.656579000000001
#
# number of rings (size 3 to 8) (size 9 to 14) (size 15 to 20)
#    0.000    0.000    8.333    3.500    0.000    0.000 
#    0.000    2.500    0.000    0.000    0.000    0.000 
#    0.000    0.000    0.000    0.000    0.000    0.000 
#
# Total GULP energy -133647.390425 kJ/mol
# GULP energy per Si atom -5568.641268 kJ/mol
# Density = 2.460046 g / cm^3
# Si number density = 24.656579 Si / 1000 Ang^3
#
#
#
# Elastic Constant Matrix: (Units=GPa)
#
#
# Indices 1 2 3 4 5 6 
#
# 1 129.3184 101.1900 17.0847 0.0000 0.0000 0.0000
# 2 101.1900 122.2903 50.2800 0.0000 0.0000 0.0000
# 3 17.0847 50.2800 134.2491 0.0000 0.0000 0.0000
# 4 0.0000 0.0000 0.0000 45.9570 0.0000 0.0000
# 5 0.0000 0.0000 0.0000 0.0000 2.2521 0.0000
# 6 0.0000 0.0000 0.0000 0.0000 0.0000 57.6471
#
#
#
# Elastic Compliance Matrix: (Units=1/GPa)
#
#
# Indices 1 2 3 4 5 6 
#
# 1 0.024817 -0.022738 0.005358 0.000000 0.000000 0.000000
# 2 -0.022738 0.030499 -0.008529 0.000000 0.000000 0.000000
# 3 0.005358 -0.008529 0.009961 0.000000 0.000000 0.000000
# 4 0.000000 0.000000 0.000000 0.021759 0.000000 0.000000
# 5 0.000000 0.000000 0.000000 0.000000 0.444023 0.000000
# 6 0.000000 0.000000 0.000000 0.000000 0.000000 0.017347
#
#
# Mechanical properties :
#
#
# Convention : Reuss Voigt Hill
#
# Bulk Modulus (GPa) = 74.30074 80.32970 77.31522
# Shear Modulus (GPa) = 8.26841 35.65811 21.96326
#
# Velocity S-wave (km/s) = 1.83322 3.80701 2.98781
# Velocity P-wave (km/s) = 5.88902 7.20934 6.58237
#
# Compressibility (1/GPa) = 0.01345882
#
# Stress axis : x y z
#
# Youngs Moduli (GPa) = 40.29441 32.78813 100.38807
#
# Poissons Ratio (x) = 0.74554 -0.53786
# Poissons Ratio (y) = 0.91622 0.85621
# Poissons Ratio (z) = -0.21589 0.27965
#
# Static dielectric constant tensor:
#      x y z
#    x 2.328430 0.000000 0.000000 
#    y 0.000000 1.930820 0.000000 
#    z 0.000000 0.000000 2.055190 
# 
# From -- ./inp_files/21676.got.cif
#   From: 2010.05.17/outbox.cif.g08.bks.cpg/sg70_11_cif.got.tgz:21676.got - 2010.06.03 15:57:51.
