data_PCOD9517792
_publ_section_title
;
Structure prediction by ZEFSAII (Michael W. Deem and Ramdas Pophale) SiO2 
 PCOD9517792
Probable space group: I M M M
;
_chemical_formula_sum "Si O2"
_cell_formula_units_Z 116
_cell_length_a 26.931861
_cell_length_b 7.311618
_cell_length_c 27.511672
_cell_angle_alpha 90.000000
_cell_angle_beta 90.000000
_cell_angle_gamma 90.000000
_cell_volume 5417.474088
_symmetry_space_group_name_H-M "I M M M"
_symmetry_group_IT_number 71
_symmetry_cell_setting 'orthorhombic'
loop_
_space_group_symop_operation_xyz
x,y,z
-x,-y,z
x,-y,-z
-x,y,-z
-x,-y,-z
x,y,-z
-x,y,z
x,-y,z
1/2+x,1/2+y,1/2+z
1/2-x,1/2-y,1/2+z
1/2+x,1/2-y,1/2-z
1/2-x,1/2+y,1/2-z
1/2-x,1/2-y,1/2-z
1/2+x,1/2+y,1/2-z
1/2-x,1/2+y,1/2+z
1/2+x,1/2-y,1/2+z
loop_
_atom_site_type_symbol
_atom_site_label
_atom_site_fract_x
_atom_site_fract_y
_atom_site_fract_z
Si Si1 0.808125 0.208365 0.928138
Si Si2 0.942094 0.223078 0.160118
Si Si3 0.326892 0.275819 0.840719
Si Si4 0.808406 0.781293 0.447066
Si Si5 0.560127 0.717456 0.552483
Si Si6 0.143755 0.500000 0.000000
Si Si7 0.714718 0.781893 0.319122
Si Si8 0.373977 0.707756 0.253128
O O1 0.750647 0.247326 0.941856
O O2 0.842748 0.342302 0.957410
O O3 0.810594 0.232886 0.870307
O O4 0.819107 0.000000 0.940326
O O5 0.925725 0.284714 0.106161
O O6 0.909008 0.289277 0.205110
O O7 0.000000 0.269727 0.166965
O O8 0.938873 0.000000 0.158482
O O9 0.327018 0.500000 0.840422
O O10 0.332648 0.216028 0.896665
O O11 0.271554 0.219129 0.823751
O O12 0.366331 0.213058 0.800570
O O13 0.824616 0.711069 0.500000
O O14 0.814778 0.000000 0.447699
O O15 0.573381 0.810328 0.500000
O O16 0.500000 0.729939 0.553499
O O17 0.571141 0.500000 0.549832
O O18 0.681087 0.704304 0.276495
O O19 0.715164 0.000000 0.313970
O O20 0.391807 0.500000 0.246536
#
# Coordination Sequence:
#
# PCOD9517792 Si02
#       8
#    16  16  16  16  16   4  16  16
#     4  11  19  29  48  69  91 127 169 206 253 297
#     4   8  14  24  40  61  85 112 143 189 245 296
#     4   8  16  27  43  64  88 118 153 196 240 289
#     4   9  14  26  42  61  88 118 154 199 247 285
#     4   7   9  15  30  51  74 102 133 166 214 273
#     4  12  18  32  44  70 100 124 167 214 251 294
#     4  10  19  33  46  61  88 123 162 202 248 288
#     4  10  18  29  45  66  89 116 155 195 240 303
#
# _framework density 21.412194
#
# number of rings (size 3 to 8) (size 9 to 14) (size 15 to 20)
#    0.000    2.897    2.069    3.103    0.000    0.000 
#    0.000    2.759    1.517    0.414    0.000    0.000 
#    0.000    0.552    0.000   11.793    0.000    3.586 
#
# Total GULP energy -323484.398592 kJ/mol
# GULP energy per Si atom -5577.317217 kJ/mol
# Density = 2.136346 g / cm^3
# Si number density = 21.412194 Si / 1000 Ang^3
#
#
#
# Elastic Constant Matrix: (Units=GPa)
#
#
# Indices 1 2 3 4 5 6 
#
# 1 55.4493 -3.4529 73.4645 0.0000 0.0000 0.0000
# 2 -3.4529 86.4684 -0.2773 0.0000 0.0000 0.0000
# 3 73.4645 -0.2773 233.1449 0.0000 0.0000 0.0000
# 4 0.0000 0.0000 0.0000 -1.2537 0.0000 0.0000
# 5 0.0000 0.0000 0.0000 0.0000 45.9278 0.0000
# 6 0.0000 0.0000 0.0000 0.0000 0.0000 20.2404
#
#
#
# Elastic Compliance Matrix: (Units=1/GPa)
#
#
# Indices 1 2 3 4 5 6 
#
# 1 0.031085 0.001210 -0.009794 0.000000 0.000000 0.000000
# 2 0.001210 0.011612 -0.000367 0.000000 0.000000 0.000000
# 3 -0.009794 -0.000367 0.007375 0.000000 0.000000 0.000000
# 4 0.000000 0.000000 0.000000 -0.797664 0.000000 0.000000
# 5 0.000000 0.000000 0.000000 0.000000 0.021773 0.000000
# 6 0.000000 0.000000 0.000000 0.000000 0.000000 0.049406
#
#
# Mechanical properties :
#
#
# Convention : Reuss Voigt Hill
#
# Bulk Modulus (GPa) = 31.08504 57.17013 44.12759
# Shear Modulus (GPa) = -7.71858 33.33814 12.80978
#
# Velocity S-wave (km/s) = -1.90068 3.95013 2.44856
# Velocity P-wave (km/s) = 3.11964 6.89655 5.35232
#
# Compressibility (1/GPa) = 0.03216981
#
# Stress axis : x y z
#
# Youngs Moduli (GPa) = 32.16954 86.11743 135.59819
#
# Poissons Ratio (x) = -0.10419 1.32800
# Poissons Ratio (y) = -0.03892 0.04982
# Poissons Ratio (z) = 0.31506 0.03164
#
# Static dielectric constant tensor:
#      x y z
#    x 1.793400 0.000000 0.000000 
#    y 0.000000 1.654910 0.000000 
#    z 0.000000 0.000000 1.821740 
# 
# From -- ./inp_files/67363.got.cif
#   From: 2010.05.17/outbox.cif.g08.bks.cpg/sg71_34_cif.got.tgz:67363.got - 2010.06.03 16:22:01.
