data_PCOD9517820
_publ_section_title
;
Structure prediction by ZEFSAII (Michael W. Deem and Ramdas Pophale) SiO2 
 PCOD9517820
Probable space group: I M M M
;
_chemical_formula_sum "Si O2"
_cell_formula_units_Z 120
_cell_length_a 14.289199
_cell_length_b 21.691920
_cell_length_c 25.419373
_cell_angle_alpha 90.000000
_cell_angle_beta 90.000000
_cell_angle_gamma 90.000000
_cell_volume 7878.992962
_symmetry_space_group_name_H-M "I M M M"
_symmetry_group_IT_number 71
_symmetry_cell_setting 'orthorhombic'
loop_
_space_group_symop_operation_xyz
x,y,z
-x,-y,z
x,-y,-z
-x,y,-z
-x,-y,-z
x,y,-z
-x,y,z
x,-y,z
1/2+x,1/2+y,1/2+z
1/2-x,1/2-y,1/2+z
1/2+x,1/2-y,1/2-z
1/2-x,1/2+y,1/2-z
1/2-x,1/2-y,1/2-z
1/2+x,1/2+y,1/2-z
1/2-x,1/2+y,1/2+z
1/2+x,1/2-y,1/2+z
loop_
_atom_site_type_symbol
_atom_site_label
_atom_site_fract_x
_atom_site_fract_y
_atom_site_fract_z
Si Si1 0.886094 0.741137 0.560029
Si Si2 0.613489 0.000000 0.939679
Si Si3 0.886689 0.620591 0.626925
Si Si4 0.606752 0.650567 0.867149
Si Si5 0.607115 0.715732 0.754065
Si Si6 0.890752 0.574829 0.057664
Si Si7 0.776735 0.426855 0.839968
Si Si8 0.297413 0.847483 0.764409
O O1 0.854862 0.734549 0.500000
O O2 0.859784 0.682725 0.595586
O O3 0.856456 0.805156 0.586644
O O4 0.000000 0.742060 0.560083
O O5 0.639663 0.938681 0.907820
O O6 0.500000 0.000000 0.942005
O O7 0.647198 0.000000 0.000000
O O8 0.838130 0.621352 0.683489
O O9 0.000000 0.620795 0.633417
O O10 0.500000 0.632717 0.878201
O O11 0.607075 0.693069 0.814776
O O12 0.671842 0.592901 0.855403
O O13 0.500000 0.708875 0.734686
O O14 0.641177 0.786284 0.753040
O O15 0.689937 0.675583 0.727785
O O16 0.885503 0.500000 0.057547
O O17 0.838422 0.594867 0.110260
O O18 0.000000 0.591336 0.060762
O O19 0.854572 0.595424 0.000000
O O20 0.786652 0.500000 0.833356
O O21 0.801145 0.391537 0.786268
#
# Coordination Sequence:
#
# PCOD9517820 Si02
#       8
#    16   8  16  16  16  16  16  16
#     4   9  16  27  46  69  91 119 157 197 232 273
#     4   9  18  30  44  68 103 141 170 188 227 294
#     4  10  18  29  46  68 100 134 159 192 235 281
#     4   9  17  31  48  66  90 120 158 195 235 281
#     4   9  17  32  49  66  90 122 155 193 239 286
#     4   8  15  30  48  61  78 111 153 193 231 273
#     4  10  21  32  45  68  95 123 157 196 239 282
#     4  10  19  29  48  71  94 124 158 192 237 290
#
# _framework density 15.230373
#
# number of rings (size 3 to 8) (size 9 to 14) (size 15 to 20)
#    0.000    2.733    1.333    1.200    0.933    3.467 
#    0.000    0.000    0.000    0.000    0.000    3.733 
#    0.000    2.667    0.000    0.000    0.000    0.000 
#
# Total GULP energy -334043.511762 kJ/mol
# GULP energy per Si atom -5567.391863 kJ/mol
# Density = 1.519571 g / cm^3
# Si number density = 15.230373 Si / 1000 Ang^3
#
#
#
# Elastic Constant Matrix: (Units=GPa)
#
#
# Indices 1 2 3 4 5 6 
#
# 1 58.9629 18.1871 39.2362 0.0000 0.0000 0.0000
# 2 18.1871 43.5093 37.2562 0.0000 0.0000 0.0000
# 3 39.2362 37.2562 116.3156 0.0000 0.0000 0.0000
# 4 0.0000 0.0000 0.0000 18.3062 0.0000 0.0000
# 5 0.0000 0.0000 0.0000 0.0000 15.8332 0.0000
# 6 0.0000 0.0000 0.0000 0.0000 0.0000 10.3689
#
#
#
# Elastic Compliance Matrix: (Units=1/GPa)
#
#
# Indices 1 2 3 4 5 6 
#
# 1 0.022358 -0.003979 -0.006267 0.000000 0.000000 0.000000
# 2 -0.003979 0.032378 -0.009028 0.000000 0.000000 0.000000
# 3 -0.006267 -0.009028 0.013603 0.000000 0.000000 0.000000
# 4 0.000000 0.000000 0.000000 0.054626 0.000000 0.000000
# 5 0.000000 0.000000 0.000000 0.000000 0.063158 0.000000
# 6 0.000000 0.000000 0.000000 0.000000 0.000000 0.096442
#
#
# Mechanical properties :
#
#
# Convention : Reuss Voigt Hill
#
# Bulk Modulus (GPa) = 33.56935 45.34963 39.45949
# Shear Modulus (GPa) = 15.10367 17.17553 16.13960
#
# Velocity S-wave (km/s) = 3.15251 3.36179 3.25883
# Velocity P-wave (km/s) = 5.94475 6.70144 6.33440
#
# Compressibility (1/GPa) = 0.02978908
#
# Stress axis : x y z
#
# Youngs Moduli (GPa) = 44.72736 30.88538 73.51178
#
# Poissons Ratio (x) = 0.12289 0.46072
# Poissons Ratio (y) = 0.17797 0.66370
# Poissons Ratio (z) = 0.28032 0.27885
#
# Static dielectric constant tensor:
#      x y z
#    x 1.508840 0.000000 0.000000 
#    y 0.000000 1.500830 0.000000 
#    z 0.000000 0.000000 1.508320 
# 
# From -- ./inp_files/60208.got.cif
#   From: 2010.05.17/outbox.cif.g08.bks.cpg/sg71_31_cif.got.tgz:60208.got - 2010.06.03 16:22:01.
