data_PCOD9517857
_publ_section_title
;
Structure prediction by ZEFSAII (Michael W. Deem and Ramdas Pophale) SiO2 
 PCOD9517857
Probable space group: I M M M
;
_chemical_formula_sum "Si O2"
_cell_formula_units_Z 120
_cell_length_a 20.740478
_cell_length_b 20.066431
_cell_length_c 17.791712
_cell_angle_alpha 90.000000
_cell_angle_beta 90.000000
_cell_angle_gamma 90.000000
_cell_volume 7404.685837
_symmetry_space_group_name_H-M "I M M M"
_symmetry_group_IT_number 71
_symmetry_cell_setting 'orthorhombic'
loop_
_space_group_symop_operation_xyz
x,y,z
-x,-y,z
x,-y,-z
-x,y,-z
-x,-y,-z
x,y,-z
-x,y,z
x,-y,z
1/2+x,1/2+y,1/2+z
1/2-x,1/2-y,1/2+z
1/2+x,1/2-y,1/2-z
1/2-x,1/2+y,1/2-z
1/2-x,1/2-y,1/2-z
1/2+x,1/2+y,1/2-z
1/2-x,1/2+y,1/2+z
1/2+x,1/2-y,1/2+z
loop_
_atom_site_type_symbol
_atom_site_label
_atom_site_fract_x
_atom_site_fract_y
_atom_site_fract_z
Si Si1 0.878977 0.359590 0.674902
Si Si2 0.843161 0.305476 0.912334
Si Si3 0.791791 0.738458 0.412119
Si Si4 0.296545 0.921814 0.302782
Si Si5 0.000000 0.420148 0.412414
Si Si6 0.926925 0.079609 0.417889
Si Si7 0.075241 0.756694 0.787292
Si Si8 0.838452 0.854000 0.700337
O O1 0.823126 0.327981 0.622333
O O2 0.845773 0.409083 0.734400
O O3 0.936079 0.392087 0.627501
O O4 0.909498 0.299462 0.724267
O O5 0.784804 0.251565 0.906188
O O6 0.819678 0.373433 0.870901
O O7 0.902478 0.275846 0.865588
O O8 0.855761 0.317156 0.000000
O O9 0.808996 0.744850 0.500000
O O10 0.819605 0.796709 0.359509
O O11 0.226620 0.892795 0.278838
O O12 0.292904 0.000000 0.322212
O O13 0.000000 0.500000 0.407309
O O14 0.000000 0.400710 0.500000
O O15 0.901432 0.102271 0.500000
O O16 0.884925 0.099467 0.347705
O O17 0.000000 0.105518 0.410484
O O18 0.929864 0.000000 0.420639
O O19 0.121856 0.818292 0.766245
O O20 0.000000 0.774023 0.785881
#
# Coordination Sequence:
#
# PCOD9517857 Si02
#       8
#    16  16  16  16   8  16  16  16
#     4  10  19  34  50  70  97 128 162 201 241 298
#     4   9  19  34  51  73  99 127 164 211 258 303
#     4   9  17  30  49  71  97 125 155 199 251 292
#     4  10  20  33  51  73  98 133 167 202 251 299
#     4  11  22  34  50  72  97 127 160 196 237 288
#     4   9  17  28  41  61  97 142 176 203 242 292
#     4  10  19  32  51  73  97 130 165 207 256 299
#     4  10  18  29  47  72 100 127 169 208 244 298
#
# _framework density 16.205954999999999
#
# number of rings (size 3 to 8) (size 9 to 14) (size 15 to 20)
#    0.000    2.333    0.667    3.200    0.000    4.267 
#    0.000    0.000    0.000    0.000    0.000    1.867 
#    0.000    1.600    0.000   10.800    0.000    0.000 
#
# Total GULP energy -334279.145640 kJ/mol
# GULP energy per Si atom -5571.319094 kJ/mol
# Density = 1.616907 g / cm^3
# Si number density = 16.205955 Si / 1000 Ang^3
#
#
#
# Elastic Constant Matrix: (Units=GPa)
#
#
# Indices 1 2 3 4 5 6 
#
# 1 73.1566 27.8375 55.0188 0.0000 0.0000 0.0000
# 2 27.8375 54.8204 36.1597 0.0000 0.0000 0.0000
# 3 55.0188 36.1597 99.4029 0.0000 0.0000 0.0000
# 4 0.0000 0.0000 0.0000 13.9528 0.0000 0.0000
# 5 0.0000 0.0000 0.0000 0.0000 27.2269 0.0000
# 6 0.0000 0.0000 0.0000 0.0000 0.0000 20.4243
#
#
#
# Elastic Compliance Matrix: (Units=1/GPa)
#
#
# Indices 1 2 3 4 5 6 
#
# 1 0.024251 -0.004553 -0.011766 0.000000 0.000000 0.000000
# 2 -0.004553 0.024855 -0.006521 0.000000 0.000000 0.000000
# 3 -0.011766 -0.006521 0.018945 0.000000 0.000000 0.000000
# 4 0.000000 0.000000 0.000000 0.071670 0.000000 0.000000
# 5 0.000000 0.000000 0.000000 0.000000 0.036728 0.000000
# 6 0.000000 0.000000 0.000000 0.000000 0.000000 0.048961
#
#
# Mechanical properties :
#
#
# Convention : Reuss Voigt Hill
#
# Bulk Modulus (GPa) = 44.70482 51.71243 48.20862
# Shear Modulus (GPa) = 17.95012 19.54504 18.74758
#
# Velocity S-wave (km/s) = 3.33171 3.47658 3.40491
# Velocity P-wave (km/s) = 6.51504 6.93500 6.72830
#
# Compressibility (1/GPa) = 0.02236895
#
# Stress axis : x y z
#
# Youngs Moduli (GPa) = 41.23516 40.23336 52.78454
#
# Poissons Ratio (x) = 0.18320 0.62109
# Poissons Ratio (y) = 0.18776 0.34422
# Poissons Ratio (z) = 0.48519 0.26237
#
# Static dielectric constant tensor:
#      x y z
#    x 1.549460 0.000000 0.000000 
#    y 0.000000 1.537370 0.000000 
#    z 0.000000 0.000000 1.536720 
# 
# From -- ./inp_files/46503.got.cif
#   From: 2010.05.17/outbox.cif.g08.bks.cpg/sg71_24_cif.got.tgz:46503.got - 2010.06.03 16:22:01.
