data_PCOD9517042
_publ_section_title
;
Structure prediction by ZEFSAII (Michael W. Deem and Ramdas Pophale) SiO2 
 PCOD9517042
Probable space group: F D D D
;
_chemical_formula_sum "Si O2"
_cell_formula_units_Z 192
_cell_length_a 14.399510
_cell_length_b 23.068330
_cell_length_c 27.262399
_cell_angle_alpha 90.000000
_cell_angle_beta 90.000000
_cell_angle_gamma 90.000000
_cell_volume 9055.823281
_symmetry_space_group_name_H-M "F D D D"
_symmetry_group_IT_number 70
_space_group.IT_coordinate_system_code '2'
_symmetry_cell_setting 'orthorhombic'
loop_
_space_group_symop_operation_xyz
x,y,z
1/4-x,1/4-y,z
x,1/4-y,1/4-z
1/4-x,y,1/4-z
-x,-y,-z
3/4+x,3/4+y,-z
-x,3/4+y,3/4+z
3/4+x,-y,3/4+z
x,1/2+y,1/2+z
1/4-x,3/4-y,1/2+z
x,3/4-y,3/4-z
1/4-x,1/2+y,3/4-z
-x,1/2-y,1/2-z
3/4+x,1/4+y,1/2-z
-x,1/4+y,1/4+z
3/4+x,1/2-y,1/4+z
1/2+x,y,1/2+z
3/4-x,1/4-y,1/2+z
1/2+x,1/4-y,3/4-z
3/4-x,y,3/4-z
1/2-x,-y,1/2-z
1/4+x,3/4+y,1/2-z
1/2-x,3/4+y,1/4+z
1/4+x,-y,1/4+z
1/2+x,1/2+y,z
3/4-x,3/4-y,z
1/2+x,3/4-y,1/4-z
3/4-x,1/2+y,1/4-z
1/2-x,1/2-y,-z
1/4+x,1/4+y,-z
1/2-x,1/4+y,3/4+z
1/4+x,1/2-y,3/4+z
loop_
_atom_site_type_symbol
_atom_site_label
_atom_site_fract_x
_atom_site_fract_y
_atom_site_fract_z
Si Si1 0.260268 0.537217 0.074810
Si Si2 0.625000 0.125000 0.919711
Si Si3 0.875000 0.375000 0.875000
Si Si4 0.532812 0.843410 0.595549
Si Si5 0.744324 0.973353 0.540338
Si Si6 0.789735 0.540170 0.129896
Si Si7 0.375000 0.375000 0.875000
Si Si8 0.781495 0.206803 0.454448
O O1 0.187795 0.585349 0.090518
O O2 0.216183 0.474579 0.085632
O O3 0.356898 0.554646 0.102035
O O4 0.274725 0.529961 0.017189
O O5 0.549695 0.098017 0.884040
O O6 0.569592 0.173397 0.949814
O O7 0.625000 0.860582 0.625000
O O8 0.517587 0.886660 0.548657
O O9 0.639237 0.965172 0.558317
O O10 0.780387 0.029000 0.571560
O O11 0.703701 0.581208 0.147653
O O12 0.773675 0.479344 0.157161
O O13 0.750000 0.250000 0.500000
#
# Coordination Sequence:
#
# PCOD9517042 Si02
#       8
#    32  16   8  32  32  32   8  32
#     4  12  27  49  77 107 149 206 258 321 390 455
#     4  12  23  44  79 107 150 201 246 318 380 462
#     4  12  28  56  70  98 158 200 266 336 364 448
#     4  12  23  46  77 107 149 201 251 314 389 464
#     4  12  24  45  74 112 148 193 255 308 390 465
#     4  12  24  46  70 106 153 194 245 321 384 464
#     4  12  26  40  72 102 150 212 234 304 420 446
#     4  12  23  44  74 111 153 190 244 317 387 460
#
# _framework density 21.201827000000002
#
# number of rings (size 3 to 8) (size 9 to 14) (size 15 to 20)
#    0.000    0.000    9.167    1.000    0.000    1.333 
#    3.000    1.667    0.000    0.000    0.000    0.000 
#    0.000    0.000    0.000    0.000    0.000    0.000 
#
# Total GULP energy -267279.531916 kJ/mol
# GULP energy per Si atom -5568.323582 kJ/mol
# Density = 2.115357 g / cm^3
# Si number density = 21.201827 Si / 1000 Ang^3
#
#
#
# Elastic Constant Matrix: (Units=GPa)
#
#
# Indices 1 2 3 4 5 6 
#
# 1 156.0802 44.1137 35.5318 0.0000 0.0000 0.0000
# 2 44.1137 122.4830 23.7577 0.0000 0.0000 0.0000
# 3 35.5318 23.7577 63.4174 0.0000 0.0000 0.0000
# 4 0.0000 0.0000 0.0000 36.6938 0.0000 0.0000
# 5 0.0000 0.0000 0.0000 0.0000 13.4960 0.0000
# 6 0.0000 0.0000 0.0000 0.0000 0.0000 43.3314
#
#
#
# Elastic Compliance Matrix: (Units=1/GPa)
#
#
# Indices 1 2 3 4 5 6 
#
# 1 0.007824 -0.002122 -0.003589 0.000000 0.000000 0.000000
# 2 -0.002122 0.009380 -0.002325 0.000000 0.000000 0.000000
# 3 -0.003589 -0.002325 0.018650 0.000000 0.000000 0.000000
# 4 0.000000 0.000000 0.000000 0.027253 0.000000 0.000000
# 5 0.000000 0.000000 0.000000 0.000000 0.074096 0.000000
# 6 0.000000 0.000000 0.000000 0.000000 0.000000 0.023078
#
#
# Mechanical properties :
#
#
# Convention : Reuss Voigt Hill
#
# Bulk Modulus (GPa) = 50.54939 60.97633 55.76286
# Shear Modulus (GPa) = 27.33064 34.60938 30.97001
#
# Velocity S-wave (km/s) = 3.59426 4.04465 3.82609
# Velocity P-wave (km/s) = 6.41238 7.11580 6.77323
#
# Compressibility (1/GPa) = 0.01978263
#
# Stress axis : x y z
#
# Youngs Moduli (GPa) = 127.81884 106.61518 53.61875
#
# Poissons Ratio (x) = 0.22620 0.19242
# Poissons Ratio (y) = 0.27119 0.12467
# Poissons Ratio (z) = 0.45869 0.24789
#
# Static dielectric constant tensor:
#      x y z
#    x 1.714970 0.000000 0.000000 
#    y 0.000000 2.009760 0.000000 
#    z 0.000000 0.000000 1.599600 
# 
# From -- ./inp_files/29108.got.cif
#   From: 2010.05.17/outbox.cif.g08.bks.cpg/sg70_15_cif.got.tgz:29108.got - 2010.06.03 15:57:51.
