data_PCOD9517192
_publ_section_title
;
Structure prediction by ZEFSAII (Michael W. Deem and Ramdas Pophale) SiO2 
 PCOD9517192
Probable space group: F D D D
;
_chemical_formula_sum "Si O2"
_cell_formula_units_Z 40
_cell_length_a 18.000000
_cell_length_b 21.000000
_cell_length_c 21.000000
_cell_angle_alpha 90.000000
_cell_angle_beta 90.000000
_cell_angle_gamma 90.000000
_cell_volume 7938.000000
_symmetry_space_group_name_H-M "F D D D"
_symmetry_group_IT_number 70
_space_group.IT_coordinate_system_code '2'
_symmetry_cell_setting 'orthorhombic'
loop_
_space_group_symop_operation_xyz
x,y,z
1/4-x,1/4-y,z
x,1/4-y,1/4-z
1/4-x,y,1/4-z
-x,-y,-z
3/4+x,3/4+y,-z
-x,3/4+y,3/4+z
3/4+x,-y,3/4+z
x,1/2+y,1/2+z
1/4-x,3/4-y,1/2+z
x,3/4-y,3/4-z
1/4-x,1/2+y,3/4-z
-x,1/2-y,1/2-z
3/4+x,1/4+y,1/2-z
-x,1/4+y,1/4+z
3/4+x,1/2-y,1/4+z
1/2+x,y,1/2+z
3/4-x,1/4-y,1/2+z
1/2+x,1/4-y,3/4-z
3/4-x,y,3/4-z
1/2-x,-y,1/2-z
1/4+x,3/4+y,1/2-z
1/2-x,3/4+y,1/4+z
1/4+x,-y,1/4+z
1/2+x,1/2+y,z
3/4-x,3/4-y,z
1/2+x,3/4-y,1/4-z
3/4-x,1/2+y,1/4-z
1/2-x,1/2-y,-z
1/4+x,1/4+y,-z
1/2-x,1/4+y,3/4+z
1/4+x,1/2-y,3/4+z
loop_
_atom_site_type_symbol
_atom_site_label
_atom_site_fract_x
_atom_site_fract_y
_atom_site_fract_z
Si Si1 0.625000 0.125000 0.853327
Si Si2 0.509679 0.431493 0.032958
Si Si3 0.591041 0.231821 0.306953
Si Si4 0.691994 0.057677 0.164351
Si Si5 0.484083 0.177971 0.570804
Si Si6 0.375000 0.507167 0.875000
O O1 0.568877 0.168385 0.815256
O O2 0.579565 0.077225 0.896623
O O3 0.577951 0.446567 0.079363
O O4 0.500000 0.500000 0.000000
O O5 0.518787 0.367685 0.990978
O O6 0.587001 0.200076 0.236928
O O7 0.523982 0.278859 0.326326
O O8 0.669175 0.269082 0.316222
O O9 0.700002 0.125000 0.125000
O O10 0.625000 0.023855 0.125000
O O11 0.470093 0.125000 0.625000
O O12 0.563327 0.212601 0.588163
#
# Coordination Sequence:
#
# PCOD9517192 Si02
#       6
#    16  32  32  32  32  16
#     4  12  24  46  66 102 144 178 242 302 354 432
#     4  12  26  44  73 105 143 195 237 303 369 429
#     4  11  25  45  72 104 141 190 241 296 367 437
#     4  10  23  46  71 100 140 188 236 295 366 427
#     4  12  25  47  73 105 148 189 241 303 363 440
#     4  12  25  48  74 110 148 193 250 294 380 439
#
# _framework density 5.039053
#
# number of rings (size 3 to 8) (size 9 to 14) (size 15 to 20)
#    0.000    0.600    4.000    3.300    2.800    3.200 
#    7.200    0.000    0.000    0.000    0.000    0.000 
#    0.000    0.000    0.000    0.000    0.000    0.000 
#
# Total GULP energy -222828.882717 kJ/mol
# GULP energy per Si atom -5570.722068 kJ/mol
# Density = 0.502758 g / cm^3
# Si number density = 5.039053 Si / 1000 Ang^3
#
#
#
# Elastic Constant Matrix: (Units=GPa)
#
#
# Indices 1 2 3 4 5 6 
#
# 1 147.3989 52.8774 62.2283 0.0000 0.0000 0.0000
# 2 52.8774 109.8185 53.5282 0.0000 0.0000 0.0000
# 3 62.2283 53.5282 110.2882 0.0000 0.0000 0.0000
# 4 0.0000 0.0000 0.0000 25.4487 0.0000 0.0000
# 5 0.0000 0.0000 0.0000 0.0000 37.1634 0.0000
# 6 0.0000 0.0000 0.0000 0.0000 0.0000 13.9787
#
#
#
# Elastic Compliance Matrix: (Units=1/GPa)
#
#
# Indices 1 2 3 4 5 6 
#
# 1 0.009420 -0.002548 -0.004079 0.000000 0.000000 0.000000
# 2 -0.002548 0.012617 -0.004686 0.000000 0.000000 0.000000
# 3 -0.004079 -0.004686 0.013643 0.000000 0.000000 0.000000
# 4 0.000000 0.000000 0.000000 0.039295 0.000000 0.000000
# 5 0.000000 0.000000 0.000000 0.000000 0.026908 0.000000
# 6 0.000000 0.000000 0.000000 0.000000 0.000000 0.071537
#
#
# Mechanical properties :
#
#
# Convention : Reuss Voigt Hill
#
# Bulk Modulus (GPa) = 76.59928 78.30815 77.45372
# Shear Modulus (GPa) = 24.95055 28.57628 26.76342
#
# Velocity S-wave (km/s) = 3.52214 3.76937 3.64785
# Velocity P-wave (km/s) = 7.39094 7.60784 7.50017
#
# Compressibility (1/GPa) = 0.01305495
#
# Stress axis : x y z
#
# Youngs Moduli (GPa) = 106.15497 79.25969 73.29886
#
# Poissons Ratio (x) = 0.20194 0.29896
# Poissons Ratio (y) = 0.27046 0.34348
# Poissons Ratio (z) = 0.43297 0.37141
#
# Static dielectric constant tensor:
#      x y z
#    x 2.378670 0.000000 0.000000 
#    y 0.000000 1.532400 0.000000 
#    z 0.000000 0.000000 1.866490 
# 
# From -- ./inp_files/36357.got.cif
#   From: 2010.05.17/outbox.ucp.g08.bks.cvg/sg70_19_cif.got.tgz:36357.got - 2010.06.11 16:26:41.
