data_PCOD9517510
_publ_section_title
;
Structure prediction by ZEFSAII (Michael W. Deem and Ramdas Pophale) SiO2 
 PCOD9517510
Probable space group: I M M M
;
_chemical_formula_sum "Si O2"
_cell_formula_units_Z 104
_cell_length_a 11.208655
_cell_length_b 17.530161
_cell_length_c 30.093792
_cell_angle_alpha 90.000000
_cell_angle_beta 90.000000
_cell_angle_gamma 90.000000
_cell_volume 5913.114948
_symmetry_space_group_name_H-M "I M M M"
_symmetry_group_IT_number 71
_symmetry_cell_setting 'orthorhombic'
loop_
_space_group_symop_operation_xyz
x,y,z
-x,-y,z
x,-y,-z
-x,y,-z
-x,-y,-z
x,y,-z
-x,y,z
x,-y,z
1/2+x,1/2+y,1/2+z
1/2-x,1/2-y,1/2+z
1/2+x,1/2-y,1/2-z
1/2-x,1/2+y,1/2-z
1/2-x,1/2-y,1/2-z
1/2+x,1/2+y,1/2-z
1/2-x,1/2+y,1/2+z
1/2+x,1/2-y,1/2+z
loop_
_atom_site_type_symbol
_atom_site_label
_atom_site_fract_x
_atom_site_fract_y
_atom_site_fract_z
Si Si1 0.137607 0.297309 0.325107
Si Si2 0.862263 0.117144 0.683840
Si Si3 0.132133 0.241212 0.000000
Si Si4 0.132793 0.880997 0.419937
Si Si5 0.694803 0.083414 0.500000
Si Si6 0.000000 0.586298 0.446931
Si Si7 0.300882 0.795322 0.080489
Si Si8 0.862354 0.414160 0.754261
O O1 0.141017 0.208997 0.311484
O O2 0.224084 0.307086 0.367279
O O3 0.161067 0.352615 0.284132
O O4 0.000000 0.312307 0.340194
O O5 0.845537 0.098462 0.631541
O O6 0.747426 0.089052 0.711124
O O7 0.000000 0.093582 0.695829
O O8 0.197968 0.212728 0.955710
O O9 0.131043 0.334124 0.000000
O O10 0.000000 0.211525 0.000000
O O11 0.224710 0.912224 0.455602
O O12 0.137522 0.788401 0.421781
O O13 0.000000 0.905646 0.432021
O O14 0.634532 0.000000 0.500000
O O15 0.113647 0.636005 0.433171
O O16 0.000000 0.500000 0.428790
O O17 0.000000 0.581898 0.500000
O O18 0.863305 0.500000 0.735590
O O19 0.000000 0.400470 0.771437
#
# Coordination Sequence:
#
# PCOD9517510 Si02
#       8
#    16  16   8  16   8   8  16  16
#     4   9  17  32  55  81 104 131 171 223 275 308
#     4   9  18  34  55  77 100 136 184 223 259 315
#     4  10  22  37  56  73 100 152 189 211 254 309
#     4   9  17  30  53  78 104 139 174 218 275 318
#     4  10  21  33  50  78 107 135 175 228 276 313
#     4  11  20  28  50  90 114 128 158 208 276 321
#     4  10  17  33  55  76 109 134 171 220 259 313
#     4  10  21  35  51  76 110 143 173 215 275 328
#
# _framework density 17.588021999999999
#
# number of rings (size 3 to 8) (size 9 to 14) (size 15 to 20)
#    0.000    2.385    2.308    1.615    0.000    2.308 
#    0.000    9.231    0.000    0.923    0.000    0.000 
#    0.000    0.000    0.000    0.000    0.000    0.000 
#
# Total GULP energy -289532.352683 kJ/mol
# GULP energy per Si atom -5567.929859 kJ/mol
# Density = 1.754799 g / cm^3
# Si number density = 17.588022 Si / 1000 Ang^3
#
#
#
# Elastic Constant Matrix: (Units=GPa)
#
#
# Indices 1 2 3 4 5 6 
#
# 1 107.3645 30.1896 56.7648 0.0000 0.0000 0.0000
# 2 30.1896 97.2510 28.3183 0.0000 0.0000 0.0000
# 3 56.7648 28.3183 74.8137 0.0000 0.0000 0.0000
# 4 0.0000 0.0000 0.0000 5.4893 0.0000 0.0000
# 5 0.0000 0.0000 0.0000 0.0000 4.3306 0.0000
# 6 0.0000 0.0000 0.0000 0.0000 0.0000-1026.6405
#
#
#
# Elastic Compliance Matrix: (Units=1/GPa)
#
#
# Indices 1 2 3 4 5 6 
#
# 1 0.015768 -0.001586 -0.011364 0.000000 0.000000 0.000000
# 2 -0.001586 0.011716 -0.003231 0.000000 0.000000 0.000000
# 3 -0.011364 -0.003231 0.023212 0.000000 0.000000 0.000000
# 4 0.000000 0.000000 0.000000 0.182172 0.000000 0.000000
# 5 0.000000 0.000000 0.000000 0.000000 0.230914 0.000000
# 6 0.000000 0.000000 0.000000 0.000000 0.000000 -0.000974
#
#
# Mechanical properties :
#
#
# Convention : Reuss Voigt Hill
#
# Bulk Modulus (GPa) = 54.54383 56.66386 55.60384
# Shear Modulus (GPa) = 9.97443 -192.42036 -91.22297
#
# Velocity S-wave (km/s) = 2.38400 -10.47099 -7.20966
# Velocity P-wave (km/s) = 6.21749 10.67247 6.13370
#
# Compressibility (1/GPa) = 0.01833388
#
# Stress axis : x y z
#
# Youngs Moduli (GPa) = 63.41889 85.35394 43.08127
#
# Poissons Ratio (x) = 0.13536 0.48957
# Poissons Ratio (y) = 0.10058 0.13921
# Poissons Ratio (z) = 0.72068 0.27581
#
# Static dielectric constant tensor:
#      x y z
#    x 1.593030 0.000000 0.000000 
#    y 0.000000 1.614630 0.000000 
#    z 0.000000 0.000000 1.605220 
# 
# From -- ./inp_files/64694.got.cif
#   From: 2010.05.17/outbox.cif.g08.bks.cpg/sg71_33_cif.got.tgz:64694.got - 2010.06.03 16:22:01.
