data_PCOD9517088
_publ_section_title
;
Structure prediction by ZEFSAII (Michael W. Deem and Ramdas Pophale) SiO2 
 PCOD9517088
Probable space group: F D D D
;
_chemical_formula_sum "Si O2"
_cell_formula_units_Z 104
_cell_length_a 28.435273
_cell_length_b 15.577878
_cell_length_c 10.721208
_cell_angle_alpha 90.000000
_cell_angle_beta 90.000000
_cell_angle_gamma 90.000000
_cell_volume 4749.079308
_symmetry_space_group_name_H-M "F D D D"
_symmetry_group_IT_number 70
_space_group.IT_coordinate_system_code '2'
_symmetry_cell_setting 'orthorhombic'
loop_
_space_group_symop_operation_xyz
x,y,z
1/4-x,1/4-y,z
x,1/4-y,1/4-z
1/4-x,y,1/4-z
-x,-y,-z
3/4+x,3/4+y,-z
-x,3/4+y,3/4+z
3/4+x,-y,3/4+z
x,1/2+y,1/2+z
1/4-x,3/4-y,1/2+z
x,3/4-y,3/4-z
1/4-x,1/2+y,3/4-z
-x,1/2-y,1/2-z
3/4+x,1/4+y,1/2-z
-x,1/4+y,1/4+z
3/4+x,1/2-y,1/4+z
1/2+x,y,1/2+z
3/4-x,1/4-y,1/2+z
1/2+x,1/4-y,3/4-z
3/4-x,y,3/4-z
1/2-x,-y,1/2-z
1/4+x,3/4+y,1/2-z
1/2-x,3/4+y,1/4+z
1/4+x,-y,1/4+z
1/2+x,1/2+y,z
3/4-x,3/4-y,z
1/2+x,3/4-y,1/4-z
3/4-x,1/2+y,1/4-z
1/2-x,1/2-y,-z
1/4+x,1/4+y,-z
1/2-x,1/4+y,3/4+z
1/4+x,1/2-y,3/4+z
loop_
_atom_site_type_symbol
_atom_site_label
_atom_site_fract_x
_atom_site_fract_y
_atom_site_fract_z
Si Si1 0.875000 0.375000 0.375000
Si Si2 0.951808 0.292509 0.195380
Si Si3 0.706756 0.687657 0.512677
Si Si4 0.343438 0.125000 0.125000
Si Si5 0.625000 0.440995 0.625000
O O1 0.911321 0.317166 0.294438
O O2 0.934548 0.213531 0.111782
O O3 0.000000 0.250000 0.250000
O O4 0.954489 0.378297 0.110900
O O5 0.717477 0.625000 0.625000
O O6 0.750000 0.750000 0.500000
O O7 0.662294 0.743459 0.559678
O O8 0.367913 0.126014 0.258524
#
# Coordination Sequence:
#
# PCOD9517088 Si02
#       5
#     8  32  32  16  16
#     4  12  28  48  76 112 164 210 256 344 406 472
#     4  12  27  48  76 115 156 207 272 336 411 497
#     4  12  28  49  79 109 154 210 268 335 407 487
#     4  12  25  44  76 107 152 201 260 330 403 486
#     4  12  26  50  75 115 156 210 270 332 412 493
#
# _framework density 21.898980999999999
#
# number of rings (size 3 to 8) (size 9 to 14) (size 15 to 20)
#    0.000    0.000    3.077    6.000    6.462    0.000 
#    0.000    0.000    0.000    0.000    0.000    0.000 
#    0.000    0.000    0.000    0.000    0.000    0.000 
#
# Total GULP energy -144862.291116 kJ/mol
# GULP energy per Si atom -5571.626581 kJ/mol
# Density = 2.184914 g / cm^3
# Si number density = 21.898981 Si / 1000 Ang^3
#
#
#
# Elastic Constant Matrix: (Units=GPa)
#
#
# Indices 1 2 3 4 5 6 
#
# 1 136.0433 58.8652 59.8019 0.0000 0.0000 0.0000
# 2 58.8652 140.7085 43.3307 0.0000 0.0000 0.0000
# 3 59.8019 43.3307 146.2000 0.0000 0.0000 0.0000
# 4 0.0000 0.0000 0.0000 68.4384 0.0000 0.0000
# 5 0.0000 0.0000 0.0000 0.0000 17.1472 0.0000
# 6 0.0000 0.0000 0.0000 0.0000 0.0000 65.1124
#
#
#
# Elastic Compliance Matrix: (Units=1/GPa)
#
#
# Indices 1 2 3 4 5 6 
#
# 1 0.010168 -0.003272 -0.003190 0.000000 0.000000 0.000000
# 2 -0.003272 0.008873 -0.001292 0.000000 0.000000 0.000000
# 3 -0.003190 -0.001292 0.008527 0.000000 0.000000 0.000000
# 4 0.000000 0.000000 0.000000 0.014612 0.000000 0.000000
# 5 0.000000 0.000000 0.000000 0.000000 0.058319 0.000000
# 6 0.000000 0.000000 0.000000 0.000000 0.000000 0.015358
#
#
# Mechanical properties :
#
#
# Convention : Reuss Voigt Hill
#
# Bulk Modulus (GPa) = 82.89617 82.99416 82.94517
# Shear Modulus (GPa) = 36.93191 47.53654 42.23422
#
# Velocity S-wave (km/s) = 4.11112 4.66415 4.39634
# Velocity P-wave (km/s) = 7.77632 8.18454 7.98304
#
# Compressibility (1/GPa) = 0.01206328
#
# Stress axis : x y z
#
# Youngs Moduli (GPa) = 98.34461 112.69703 117.26851
#
# Poissons Ratio (x) = 0.36871 0.37404
# Poissons Ratio (y) = 0.32175 0.15147
# Poissons Ratio (z) = 0.31368 0.14556
#
# Static dielectric constant tensor:
#      x y z
#    x 2.136710 0.000000 0.000000 
#    y 0.000000 1.488350 0.000000 
#    z 0.000000 0.000000 2.115840 
# 
# From -- ./inp_files/20228.got.cif
#   From: 2010.05.17/outbox.cif.g08.bks.cpg/sg70_11_cif.got.tgz:20228.got - 2010.06.03 15:57:51.
