data_PCOD9517177
_publ_section_title
;
Structure prediction by ZEFSAII (Michael W. Deem and Ramdas Pophale) SiO2 
 PCOD9517177
Probable space group: F D D D
;
_chemical_formula_sum "Si O2"
_cell_formula_units_Z 52
_cell_length_a 18.000000
_cell_length_b 21.000000
_cell_length_c 27.000000
_cell_angle_alpha 90.000000
_cell_angle_beta 90.000000
_cell_angle_gamma 90.000000
_cell_volume 10206.000000
_symmetry_space_group_name_H-M "F D D D"
_symmetry_group_IT_number 70
_space_group.IT_coordinate_system_code '2'
_symmetry_cell_setting 'orthorhombic'
loop_
_space_group_symop_operation_xyz
x,y,z
1/4-x,1/4-y,z
x,1/4-y,1/4-z
1/4-x,y,1/4-z
-x,-y,-z
3/4+x,3/4+y,-z
-x,3/4+y,3/4+z
3/4+x,-y,3/4+z
x,1/2+y,1/2+z
1/4-x,3/4-y,1/2+z
x,3/4-y,3/4-z
1/4-x,1/2+y,3/4-z
-x,1/2-y,1/2-z
3/4+x,1/4+y,1/2-z
-x,1/4+y,1/4+z
3/4+x,1/2-y,1/4+z
1/2+x,y,1/2+z
3/4-x,1/4-y,1/2+z
1/2+x,1/4-y,3/4-z
3/4-x,y,3/4-z
1/2-x,-y,1/2-z
1/4+x,3/4+y,1/2-z
1/2-x,3/4+y,1/4+z
1/4+x,-y,1/4+z
1/2+x,1/2+y,z
3/4-x,3/4-y,z
1/2+x,3/4-y,1/4-z
3/4-x,1/2+y,1/4-z
1/2-x,1/2-y,-z
1/4+x,1/4+y,-z
1/2-x,1/4+y,3/4+z
1/4+x,1/2-y,3/4+z
loop_
_atom_site_type_symbol
_atom_site_label
_atom_site_fract_x
_atom_site_fract_y
_atom_site_fract_z
Si Si1 0.882243 0.734103 0.214162
Si Si2 0.625000 0.484955 0.125000
Si Si3 0.962904 0.640174 0.022409
Si Si4 0.246660 0.035956 0.303556
Si Si5 0.390686 0.690888 0.140992
Si Si6 0.960124 0.981521 0.786115
Si Si7 0.375000 0.375000 0.726430
Si Si8 0.125000 0.625000 0.242401
O O1 0.931542 0.679943 0.240859
O O2 0.897336 0.723857 0.156003
O O3 0.796009 0.714160 0.221267
O O4 0.888151 0.808432 0.227998
O O5 0.676689 0.452137 0.167031
O O6 0.682867 0.523880 0.092068
O O7 0.917522 0.668453 0.068043
O O8 0.956312 0.694336 0.980426
O O9 0.048947 0.634771 0.036513
O O10 0.197743 0.099509 0.300947
O O11 0.250000 0.000000 0.250000
O O12 0.197832 0.988276 0.335511
O O13 0.428464 0.625000 0.125000
O O14 0.905440 0.935552 0.756490
#
# Coordination Sequence:
#
# PCOD9517177 Si02
#       8
#    32  16  32  32  32  32  16  16
#     4  10  22  40  67  93 127 172 217 274 337 402
#     4  12  24  43  64  96 138 175 232 286 322 427
#     4  10  21  43  65  91 133 173 216 274 341 397
#     4  12  25  43  65  98 139 179 228 284 346 413
#     4  10  21  39  63  88 130 175 210 270 338 403
#     4  11  24  39  61 100 133 176 225 268 339 413
#     4  12  26  40  68  98 143 187 216 286 352 404
#     4  10  22  41  71  98 119 163 232 277 329 406
#
# _framework density 5.0950420000000003
#
# number of rings (size 3 to 8) (size 9 to 14) (size 15 to 20)
#    0.000    1.231    4.615    0.462    6.462    0.923 
#    0.000    3.462    0.000    0.000    0.000    0.000 
#    0.000    0.000    0.000    0.000    0.000    0.000 
#
# Total GULP energy -289647.058098 kJ/mol
# GULP energy per Si atom -5570.135733 kJ/mol
# Density = 0.508345 g / cm^3
# Si number density = 5.095042 Si / 1000 Ang^3
#
#
#
# Elastic Constant Matrix: (Units=GPa)
#
#
# Indices 1 2 3 4 5 6 
#
# 1 136.0856 37.4403 30.5169 0.0000 0.0000 0.0000
# 2 37.4403 96.5398 13.5322 0.0000 0.0000 0.0000
# 3 30.5169 13.5322 41.0001 0.0000 0.0000 0.0000
# 4 0.0000 0.0000 0.0000 1.7500 0.0000 0.0000
# 5 0.0000 0.0000 0.0000 0.0000 16.9419 0.0000
# 6 0.0000 0.0000 0.0000 0.0000 0.0000 37.5509
#
#
#
# Elastic Compliance Matrix: (Units=1/GPa)
#
#
# Indices 1 2 3 4 5 6 
#
# 1 0.009502 -0.002825 -0.006141 0.000000 0.000000 0.000000
# 2 -0.002825 0.011700 -0.001759 0.000000 0.000000 0.000000
# 3 -0.006141 -0.001759 0.029541 0.000000 0.000000 0.000000
# 4 0.000000 0.000000 0.000000 0.571416 0.000000 0.000000
# 5 0.000000 0.000000 0.000000 0.000000 0.059025 0.000000
# 6 0.000000 0.000000 0.000000 0.000000 0.000000 0.026630
#
#
# Mechanical properties :
#
#
# Convention : Reuss Voigt Hill
#
# Bulk Modulus (GPa) = 34.13522 48.51159 41.32341
# Shear Modulus (GPa) = 6.76563 24.05765 15.41164
#
# Velocity S-wave (km/s) = 1.82398 3.43949 2.75291
# Velocity P-wave (km/s) = 4.60668 6.29511 5.51588
#
# Compressibility (1/GPa) = 0.02929525
#
# Stress axis : x y z
#
# Youngs Moduli (GPa) = 105.23654 85.46675 33.85088
#
# Poissons Ratio (x) = 0.24140 0.20786
# Poissons Ratio (y) = 0.29724 0.05956
# Poissons Ratio (z) = 0.64621 0.15037
#
# Static dielectric constant tensor:
#      x y z
#    x 1.857140 0.000000 0.000000 
#    y 0.000000 1.764960 0.000000 
#    z 0.000000 0.000000 1.784500 
# 
# From -- ./inp_files/36760.got.cif
#   From: 2010.05.17/outbox.ucp.g08.bks.cvg/sg70_19_cif.got.tgz:36760.got - 2010.06.11 16:26:41.
