data_PCOD9517502
_publ_section_title
;
Structure prediction by ZEFSAII (Michael W. Deem and Ramdas Pophale) SiO2 
 PCOD9517502
Probable space group: I M M M
;
_chemical_formula_sum "Si O2"
_cell_formula_units_Z 104
_cell_length_a 8.592015
_cell_length_b 24.403693
_cell_length_c 25.819663
_cell_angle_alpha 90.000000
_cell_angle_beta 90.000000
_cell_angle_gamma 90.000000
_cell_volume 5413.786802
_symmetry_space_group_name_H-M "I M M M"
_symmetry_group_IT_number 71
_symmetry_cell_setting 'orthorhombic'
loop_
_space_group_symop_operation_xyz
x,y,z
-x,-y,z
x,-y,-z
-x,y,-z
-x,-y,-z
x,y,-z
-x,y,z
x,-y,z
1/2+x,1/2+y,1/2+z
1/2-x,1/2-y,1/2+z
1/2+x,1/2-y,1/2-z
1/2-x,1/2+y,1/2-z
1/2-x,1/2-y,1/2-z
1/2+x,1/2+y,1/2-z
1/2-x,1/2+y,1/2+z
1/2+x,1/2-y,1/2+z
loop_
_atom_site_type_symbol
_atom_site_label
_atom_site_fract_x
_atom_site_fract_y
_atom_site_fract_z
Si Si1 0.813564 0.116120 0.754202
Si Si2 0.684810 0.000000 0.725223
Si Si3 0.810165 0.884569 0.558394
Si Si4 0.688352 0.500000 0.108289
Si Si5 0.320788 0.000000 0.937049
Si Si6 0.189689 0.187326 0.345299
Si Si7 0.313689 0.813034 0.151599
Si Si8 0.314208 0.617133 0.560632
O O1 0.746776 0.055155 0.751652
O O2 0.761197 0.150253 0.703311
O O3 0.759413 0.148892 0.804410
O O4 0.000000 0.112938 0.752974
O O5 0.744974 0.000000 0.665976
O O6 0.500000 0.000000 0.725758
O O7 0.756369 0.874046 0.500000
O O8 0.758791 0.840907 0.601286
O O9 0.000000 0.883536 0.557743
O O10 0.765647 0.945118 0.577923
O O11 0.500000 0.500000 0.112585
O O12 0.238735 0.943561 0.921328
O O13 0.500000 0.000000 0.920066
O O14 0.317730 0.000000 0.000000
O O15 0.239829 0.250249 0.341494
O O16 0.000000 0.187189 0.345292
O O17 0.500000 0.814382 0.156121
O O18 0.264420 0.837548 0.096387
O O19 0.270706 0.623008 0.500000
O O20 0.500000 0.620865 0.564614
#
# Coordination Sequence:
#
# PCOD9517502 Si02
#       8
#    16   8  16   8   8  16  16  16
#     4  11  22  41  64  86 114 152 196 242 294 356
#     4  12  24  38  60  91 121 154 192 244 303 356
#     4   9  16  28  53  90 122 152 198 249 290 338
#     4  10  17  32  57  85 119 158 199 243 296 354
#     4   9  17  32  57  86 112 141 179 228 285 337
#     4   9  19  35  57  85 117 154 196 243 293 344
#     4  11  23  38  58  88 119 151 194 245 297 348
#     4  10  21  38  59  84 116 155 195 233 282 348
#
# _framework density 19.210213
#
# number of rings (size 3 to 8) (size 9 to 14) (size 15 to 20)
#    0.000    1.923    1.538    3.000    0.000    4.000 
#    0.000    6.923    0.000    0.923    0.000    0.000 
#    0.000    0.000    0.000    0.000    0.000    0.000 
#
# Total GULP energy -290485.735455 kJ/mol
# GULP energy per Si atom -5586.264143 kJ/mol
# Density = 1.916649 g / cm^3
# Si number density = 19.210213 Si / 1000 Ang^3
#
#
#
# Elastic Constant Matrix: (Units=GPa)
#
#
# Indices 1 2 3 4 5 6 
#
# 1 39.7765 32.0461 23.9521 0.0000 0.0000 0.0000
# 2 32.0461 166.3058 73.2801 0.0000 0.0000 0.0000
# 3 23.9521 73.2801 106.8843 0.0000 0.0000 0.0000
# 4 0.0000 0.0000 0.0000 7.9009 0.0000 0.0000
# 5 0.0000 0.0000 0.0000 0.0000 20.4589 0.0000
# 6 0.0000 0.0000 0.0000 0.0000 0.0000 11.3295
#
#
#
# Elastic Compliance Matrix: (Units=1/GPa)
#
#
# Indices 1 2 3 4 5 6 
#
# 1 0.030954 -0.004167 -0.004080 0.000000 0.000000 0.000000
# 2 -0.004167 0.009177 -0.005358 0.000000 0.000000 0.000000
# 3 -0.004080 -0.005358 0.013944 0.000000 0.000000 0.000000
# 4 0.000000 0.000000 0.000000 0.126567 0.000000 0.000000
# 5 0.000000 0.000000 0.000000 0.000000 0.048878 0.000000
# 6 0.000000 0.000000 0.000000 0.000000 0.000000 0.088265
#
#
# Mechanical properties :
#
#
# Convention : Reuss Voigt Hill
#
# Bulk Modulus (GPa) = 37.22254 63.50255 50.36254
# Shear Modulus (GPa) = 14.12629 20.18377 17.15503
#
# Velocity S-wave (km/s) = 2.71468 3.24493 2.99158
# Velocity P-wave (km/s) = 5.40782 6.86789 6.18112
#
# Compressibility (1/GPa) = 0.02686545
#
# Stress axis : x y z
#
# Youngs Moduli (GPa) = 32.30564 108.97012 71.71797
#
# Poissons Ratio (x) = 0.45408 0.29259
# Poissons Ratio (y) = 0.13462 0.38425
# Poissons Ratio (z) = 0.13180 0.58385
#
# Static dielectric constant tensor:
#      x y z
#    x 1.657940 0.000000 0.000000 
#    y 0.000000 1.647820 0.000000 
#    z 0.000000 0.000000 1.657710 
# 
# From -- ./inp_files/63392.got.cif
#   From: 2010.05.17/outbox.cif.g08.bks.cpg/sg71_32_cif.got.tgz:63392.got - 2010.06.03 16:22:01.
