data_PCOD9517315
_publ_section_title
;
Structure prediction by ZEFSAII (Michael W. Deem and Ramdas Pophale) SiO2 
 PCOD9517315
Probable space group: I M M M
;
_chemical_formula_sum "Si O2"
_cell_formula_units_Z 80
_cell_length_a 26.517416
_cell_length_b 14.684913
_cell_length_c 11.139789
_cell_angle_alpha 90.000000
_cell_angle_beta 90.000000
_cell_angle_gamma 90.000000
_cell_volume 4337.900084
_symmetry_space_group_name_H-M "I M M M"
_symmetry_group_IT_number 71
_symmetry_cell_setting 'orthorhombic'
loop_
_space_group_symop_operation_xyz
x,y,z
-x,-y,z
x,-y,-z
-x,y,-z
-x,-y,-z
x,y,-z
-x,y,z
x,-y,z
1/2+x,1/2+y,1/2+z
1/2-x,1/2-y,1/2+z
1/2+x,1/2-y,1/2-z
1/2-x,1/2+y,1/2-z
1/2-x,1/2-y,1/2-z
1/2+x,1/2+y,1/2-z
1/2-x,1/2+y,1/2+z
1/2+x,1/2-y,1/2+z
loop_
_atom_site_type_symbol
_atom_site_label
_atom_site_fract_x
_atom_site_fract_y
_atom_site_fract_z
Si Si1 0.689484 0.627235 0.000000
Si Si2 0.841546 0.332607 0.500000
Si Si3 0.307125 0.897409 0.500000
Si Si4 0.792361 0.608438 0.744071
Si Si5 0.942528 0.770560 0.500000
Si Si6 0.187467 0.111597 0.862699
Si Si7 0.394166 0.602167 0.193898
O O1 0.746155 0.596065 0.000000
O O2 0.656189 0.595836 0.111829
O O3 0.686947 0.735841 0.000000
O O4 0.824805 0.378883 0.376333
O O5 0.900627 0.308157 0.500000
O O6 0.316127 0.853813 0.631708
O O7 0.329517 0.000000 0.500000
O O8 0.787478 0.500000 0.764157
O O9 0.735964 0.643619 0.713815
O O10 0.930327 0.833105 0.382844
O O11 0.000000 0.741003 0.500000
O O12 0.132174 0.138572 0.814319
O O13 0.187775 0.000000 0.859644
O O14 0.195542 0.139008 0.000000
O O15 0.415013 0.500000 0.208521
#
# Coordination Sequence:
#
# PCOD9517315 Si02
#       7
#     8   8   8  16   8  16  16
#     4  10  17  26  40  64 102 133 164 187 231 274
#     4  10  21  33  48  70 101 138 167 204 251 302
#     4  10  18  28  45  69 103 138 167 201 231 272
#     4  10  18  30  49  73 103 140 171 198 238 295
#     4  10  22  38  53  69  91 122 167 224 275 291
#     4   9  15  24  43  71 103 135 162 190 231 286
#     4   9  16  28  48  72  97 126 165 204 241 290
#
# _framework density 18.442102999999999
#
# number of rings (size 3 to 8) (size 9 to 14) (size 15 to 20)
#    0.000    2.600    3.000    2.100    0.000    1.600 
#    0.000    0.000    0.000    1.800    0.000    2.800 
#    0.000    2.400    0.000    0.000    0.000    0.000 
#
# Total GULP energy -222816.852445 kJ/mol
# GULP energy per Si atom -5570.421311 kJ/mol
# Density = 1.840013 g / cm^3
# Si number density = 18.442103 Si / 1000 Ang^3
#
#
#
# Elastic Constant Matrix: (Units=GPa)
#
#
# Indices 1 2 3 4 5 6 
#
# 1 71.4378 0.4556 18.4430 0.0000 0.0000 0.0000
# 2 0.4556 29.0822 9.2271 0.0000 0.0000 0.0000
# 3 18.4430 9.2271 134.5401 0.0000 0.0000 0.0000
# 4 0.0000 0.0000 0.0000 25.7090 0.0000 0.0000
# 5 0.0000 0.0000 0.0000 0.0000 9.8315 0.0000
# 6 0.0000 0.0000 0.0000 0.0000 0.0000 5.6854
#
#
#
# Elastic Compliance Matrix: (Units=1/GPa)
#
#
# Indices 1 2 3 4 5 6 
#
# 1 0.014517 0.000413 -0.002018 0.000000 0.000000 0.000000
# 2 0.000413 0.035162 -0.002468 0.000000 0.000000 0.000000
# 3 -0.002018 -0.002468 0.007879 0.000000 0.000000 0.000000
# 4 0.000000 0.000000 0.000000 0.038897 0.000000 0.000000
# 5 0.000000 0.000000 0.000000 0.000000 0.101713 0.000000
# 6 0.000000 0.000000 0.000000 0.000000 0.000000 0.175889
#
#
# Mechanical properties :
#
#
# Convention : Reuss Voigt Hill
#
# Bulk Modulus (GPa) = 20.23870 32.36794 26.30332
# Shear Modulus (GPa) = 12.54159 22.04082 17.29120
#
# Velocity S-wave (km/s) = 2.61061 3.46082 3.06534
# Velocity P-wave (km/s) = 4.48163 5.79301 5.17900
#
# Compressibility (1/GPa) = 0.04941030
#
# Stress axis : x y z
#
# Youngs Moduli (GPa) = 68.88661 28.43986 126.92509
#
# Poissons Ratio (x) = -0.01174 0.25617
# Poissons Ratio (y) = -0.02844 0.31326
# Poissons Ratio (z) = 0.13903 0.07019
#
# Static dielectric constant tensor:
#      x y z
#    x 1.586660 0.000000 0.000000 
#    y 0.000000 1.682990 0.000000 
#    z 0.000000 0.000000 1.808130 
# 
# From -- ./inp_files/28552.got.cif
#   From: 2010.05.17/outbox.cif.g08.bks.cpg/sg71_15_cif.got.tgz:28552.got - 2010.06.03 16:22:01.
