data_PCOD9517781
_publ_section_title
;
Structure prediction by ZEFSAII (Michael W. Deem and Ramdas Pophale) SiO2 
 PCOD9517781
Probable space group: I M M M
;
_chemical_formula_sum "Si O2"
_cell_formula_units_Z 96
_cell_length_a 8.654425
_cell_length_b 27.200750
_cell_length_c 29.496581
_cell_angle_alpha 90.000000
_cell_angle_beta 90.000000
_cell_angle_gamma 90.000000
_cell_volume 6943.697243
_symmetry_space_group_name_H-M "I M M M"
_symmetry_group_IT_number 71
_symmetry_cell_setting 'orthorhombic'
loop_
_space_group_symop_operation_xyz
x,y,z
-x,-y,z
x,-y,-z
-x,y,-z
-x,-y,-z
x,y,-z
-x,y,z
x,-y,z
1/2+x,1/2+y,1/2+z
1/2-x,1/2-y,1/2+z
1/2+x,1/2-y,1/2-z
1/2-x,1/2+y,1/2-z
1/2-x,1/2-y,1/2-z
1/2+x,1/2+y,1/2-z
1/2-x,1/2+y,1/2+z
1/2+x,1/2-y,1/2+z
loop_
_atom_site_type_symbol
_atom_site_label
_atom_site_fract_x
_atom_site_fract_y
_atom_site_fract_z
Si Si1 0.184152 0.648486 0.803030
Si Si2 0.814434 0.102826 0.550542
Si Si3 0.315708 0.787253 0.551471
Si Si4 0.683660 0.256833 0.856572
Si Si5 0.813424 0.055755 0.644919
Si Si6 0.315459 0.297455 0.276926
O O1 0.252269 0.692292 0.834582
O O2 0.236888 0.596962 0.823855
O O3 0.249829 0.657682 0.752515
O O4 0.000000 0.653124 0.802772
O O5 0.776673 0.083850 0.500000
O O6 0.734960 0.155768 0.556133
O O7 0.773417 0.068426 0.592622
O O8 0.000000 0.110460 0.552218
O O9 0.275153 0.772264 0.500000
O O10 0.500000 0.784011 0.556951
O O11 0.233383 0.757475 0.591230
O O12 0.500000 0.256781 0.851682
O O13 0.755280 0.212191 0.827536
O O14 0.000000 0.059716 0.648931
O O15 0.768415 0.000000 0.655821
O O16 0.500000 0.297242 0.275718
O O17 0.250000 0.250000 0.250000
#
# Coordination Sequence:
#
# PCOD9517781 Si02
#       6
#    16  16  16  16  16  16
#     4  11  20  31  45  61  82 106 134 170 212 253
#     4   9  17  29  44  59  76 102 136 175 218 261
#     4  10  19  29  42  61  84 110 139 172 210 250
#     4  11  19  29  45  64  85 107 135 167 205 250
#     4  10  20  32  45  61  81 107 139 176 219 263
#     4  10  18  29  45  64  84 104 129 162 205 249
#
# _framework density 13.825487000000001
#
# number of rings (size 3 to 8) (size 9 to 14) (size 15 to 20)
#    0.000    1.833    1.667    7.000    0.000    1.667 
#    0.000    1.667    0.000    0.000    0.000    3.500 
#    0.000    0.000    0.000    0.000    0.000    0.833 
#
# Total GULP energy -267723.316897 kJ/mol
# GULP energy per Si atom -5577.569102 kJ/mol
# Density = 1.379402 g / cm^3
# Si number density = 13.825487 Si / 1000 Ang^3
#
#
#
# Elastic Constant Matrix: (Units=GPa)
#
#
# Indices 1 2 3 4 5 6 
#
# 1 90.8914 33.8522 49.0639 0.0000 0.0000 0.0000
# 2 33.8522 54.0085 52.9184 0.0000 0.0000 0.0000
# 3 49.0639 52.9184 96.5813 0.0000 0.0000 0.0000
# 4 0.0000 0.0000 0.0000 18.4175 0.0000 0.0000
# 5 0.0000 0.0000 0.0000 0.0000 21.7141 0.0000
# 6 0.0000 0.0000 0.0000 0.0000 0.0000 12.8152
#
#
#
# Elastic Compliance Matrix: (Units=1/GPa)
#
#
# Indices 1 2 3 4 5 6 
#
# 1 0.015619 -0.004352 -0.005550 0.000000 0.000000 0.000000
# 2 -0.004352 0.041191 -0.020358 0.000000 0.000000 0.000000
# 3 -0.005550 -0.020358 0.024328 0.000000 0.000000 0.000000
# 4 0.000000 0.000000 0.000000 0.054296 0.000000 0.000000
# 5 0.000000 0.000000 0.000000 0.000000 0.046053 0.000000
# 6 0.000000 0.000000 0.000000 0.000000 0.000000 0.078032
#
#
# Mechanical properties :
#
#
# Convention : Reuss Voigt Hill
#
# Bulk Modulus (GPa) = 48.50285 57.01668 52.75977
# Shear Modulus (GPa) = 15.29464 17.63247 16.46356
#
# Velocity S-wave (km/s) = 3.32966 3.57509 3.45456
# Velocity P-wave (km/s) = 7.06686 7.64012 7.35908
#
# Compressibility (1/GPa) = 0.02061734
#
# Stress axis : x y z
#
# Youngs Moduli (GPa) = 64.02488 24.27740 41.10481
#
# Poissons Ratio (x) = 0.10565 0.22814
# Poissons Ratio (y) = 0.27862 0.83682
# Poissons Ratio (z) = 0.35535 0.49424
#
# Static dielectric constant tensor:
#      x y z
#    x 1.463280 0.000000 0.000000 
#    y 0.000000 1.428090 0.000000 
#    z 0.000000 0.000000 1.494180 
# 
# From -- ./inp_files/15435.got.cif
#   From: 2010.05.17/outbox.cif.g08.bks.cpg/sg71_8_cif.got.tgz:15435.got - 2010.06.03 16:22:01.
