data_PCOD9517225
_publ_section_title
;
Structure prediction by ZEFSAII (Michael W. Deem and Ramdas Pophale) SiO2 
 PCOD9517225
Probable space group: I M M M
;
_chemical_formula_sum "Si O2"
_cell_formula_units_Z 112
_cell_length_a 19.582163
_cell_length_b 15.374265
_cell_length_c 18.699409
_cell_angle_alpha 90.000000
_cell_angle_beta 90.000000
_cell_angle_gamma 90.000000
_cell_volume 5629.669565
_symmetry_space_group_name_H-M "I M M M"
_symmetry_group_IT_number 71
_symmetry_cell_setting 'orthorhombic'
loop_
_space_group_symop_operation_xyz
x,y,z
-x,-y,z
x,-y,-z
-x,y,-z
-x,-y,-z
x,y,-z
-x,y,z
x,-y,z
1/2+x,1/2+y,1/2+z
1/2-x,1/2-y,1/2+z
1/2+x,1/2-y,1/2-z
1/2-x,1/2+y,1/2-z
1/2-x,1/2-y,1/2-z
1/2+x,1/2+y,1/2-z
1/2-x,1/2+y,1/2+z
1/2+x,1/2-y,1/2+z
loop_
_atom_site_type_symbol
_atom_site_label
_atom_site_fract_x
_atom_site_fract_y
_atom_site_fract_z
Si Si1 0.926789 0.644691 0.917943
Si Si2 0.371565 0.596660 0.918307
Si Si3 0.207541 0.664386 0.275522
Si Si4 0.075886 0.836942 0.141046
Si Si5 0.920518 0.220667 0.706016
Si Si6 0.718072 0.873076 0.381061
Si Si7 0.281963 0.335168 0.417549
O O1 0.926148 0.732300 0.871204
O O2 0.855729 0.596285 0.907743
O O3 0.000000 0.600338 0.905013
O O4 0.927020 0.675088 0.000000
O O5 0.397518 0.500000 0.900639
O O6 0.399359 0.668011 0.864184
O O7 0.289161 0.594630 0.911927
O O8 0.389627 0.616910 0.000000
O O9 0.250000 0.750000 0.250000
O O10 0.130593 0.698436 0.285526
O O11 0.216508 0.609026 0.203973
O O12 0.236408 0.631031 0.351093
O O13 0.089902 0.843034 0.225586
O O14 0.140602 0.867775 0.096020
O O15 0.000000 0.870633 0.123521
O O16 0.000000 0.244913 0.705084
O O17 0.718325 0.769716 0.403072
O O18 0.261467 0.351017 0.500000
#
# Coordination Sequence:
#
# PCOD9517225 Si02
#       7
#    16  16  16  16  16  16  16
#     4   9  15  22  38  69 101 121 139 173 232 304
#     4  11  23  36  48  63  88 132 187 222 233 254
#     4  10  16  28  46  67  87 112 144 186 245 308
#     4   9  15  24  39  63  89 110 133 171 228 294
#     4  11  20  32  48  65  88 116 152 201 250 288
#     4  10  16  28  47  64  90 120 156 199 247 288
#     4  10  16  23  40  63  88 115 138 172 228 289
#
# _framework density 19.894596
#
# number of rings (size 3 to 8) (size 9 to 14) (size 15 to 20)
#    0.000    2.000    7.143    2.571    0.000    1.429 
#    0.000    0.714    0.000    0.429    0.000    2.000 
#    0.000   14.286    0.000   32.429    0.000    0.000 
#
# Total GULP energy -311929.857873 kJ/mol
# GULP energy per Si atom -5570.176033 kJ/mol
# Density = 1.984931 g / cm^3
# Si number density = 19.894596 Si / 1000 Ang^3
#
#
#
# Elastic Constant Matrix: (Units=GPa)
#
#
# Indices 1 2 3 4 5 6 
#
# 1 88.9022 -11.3272 20.5112 0.0000 0.0000 0.0000
# 2 -11.3272 7.5104 2.1653 0.0000 0.0000 0.0000
# 3 20.5112 2.1653 138.0097 0.0000 0.0000 0.0000
# 4 0.0000 0.0000 0.0000 -9.8893 0.0000 0.0000
# 5 0.0000 0.0000 0.0000 0.0000 21.1058 0.0000
# 6 0.0000 0.0000 0.0000 0.0000 0.0000 -18.2958
#
#
#
# Elastic Compliance Matrix: (Units=1/GPa)
#
#
# Indices 1 2 3 4 5 6 
#
# 1 0.014770 0.023014 -0.002556 0.000000 0.000000 0.000000
# 2 0.023014 0.169612 -0.006081 0.000000 0.000000 0.000000
# 3 -0.002556 -0.006081 0.007721 0.000000 0.000000 0.000000
# 4 0.000000 0.000000 0.000000 -0.101119 0.000000 0.000000
# 5 0.000000 0.000000 0.000000 0.000000 0.047380 0.000000
# 6 0.000000 0.000000 0.000000 0.000000 0.000000 -0.054657
#
#
# Mechanical properties :
#
#
# Convention : Reuss Voigt Hill
#
# Bulk Modulus (GPa) = 4.52786 28.56900 16.54843
# Shear Modulus (GPa) = 38.88822 13.45566 26.17194
#
# Velocity S-wave (km/s) = 4.42601 2.60349 3.63096
# Velocity P-wave (km/s) = 5.32919 4.84034 5.09064
#
# Compressibility (1/GPa) = 0.22085502
#
# Stress axis : x y z
#
# Youngs Moduli (GPa) = 67.70343 5.89582 129.51362
#
# Poissons Ratio (x) = -0.13568 0.33107
# Poissons Ratio (y) = -1.55810 0.78763
# Poissons Ratio (z) = 0.17307 0.03586
#
# Static dielectric constant tensor:
#      x y z
#    x 1.751410 0.000000 0.000000 
#    y 0.000000 1.775840 0.000000 
#    z 0.000000 0.000000 1.739240 
# 
# From -- ./inp_files/47689.got.cif
#   From: 2010.05.17/outbox.cif.g08.bks.cpg/sg71_24_cif.got.tgz:47689.got - 2010.06.03 16:22:01.
