data_PCOD9517860
_publ_section_title
;
Structure prediction by ZEFSAII (Michael W. Deem and Ramdas Pophale) SiO2 
 PCOD9517860
Probable space group: I M M M
;
_chemical_formula_sum "Si O2"
_cell_formula_units_Z 104
_cell_length_a 20.305480
_cell_length_b 7.546604
_cell_length_c 26.945287
_cell_angle_alpha 90.000000
_cell_angle_beta 90.000000
_cell_angle_gamma 90.000000
_cell_volume 4129.026169
_symmetry_space_group_name_H-M "I M M M"
_symmetry_group_IT_number 71
_symmetry_cell_setting 'orthorhombic'
loop_
_space_group_symop_operation_xyz
x,y,z
-x,-y,z
x,-y,-z
-x,y,-z
-x,-y,-z
x,y,-z
-x,y,z
x,-y,z
1/2+x,1/2+y,1/2+z
1/2-x,1/2-y,1/2+z
1/2+x,1/2-y,1/2-z
1/2-x,1/2+y,1/2-z
1/2-x,1/2-y,1/2-z
1/2+x,1/2+y,1/2-z
1/2-x,1/2+y,1/2+z
1/2+x,1/2-y,1/2+z
loop_
_atom_site_type_symbol
_atom_site_label
_atom_site_fract_x
_atom_site_fract_y
_atom_site_fract_z
Si Si1 0.103174 0.293080 0.316449
Si Si2 0.221522 0.706857 0.554647
Si Si3 0.423095 0.718330 0.500000
Si Si4 0.428875 0.297423 0.076367
Si Si5 0.578217 0.298262 0.603755
Si Si6 0.883536 0.214020 0.209567
Si Si7 0.749290 0.784266 0.164584
O O1 0.101654 0.500000 0.329171
O O2 0.070672 0.203139 0.363508
O O3 0.081874 0.274166 0.259779
O O4 0.178484 0.226838 0.316054
O O5 0.237416 0.782891 0.500000
O O6 0.239937 0.500000 0.552986
O O7 0.141419 0.715323 0.561235
O O8 0.252172 0.775933 0.606681
O O9 0.421462 0.500000 0.500000
O O10 0.500000 0.772336 0.500000
O O11 0.394163 0.778669 0.552478
O O12 0.500000 0.220502 0.060437
O O13 0.426356 0.500000 0.059219
O O14 0.500000 0.310699 0.596417
O O15 0.604835 0.500000 0.607043
O O16 0.587212 0.218736 0.657626
O O17 0.807677 0.270452 0.201013
O O18 0.887666 0.000000 0.210915
O O19 0.749830 0.000000 0.163743
#
# Coordination Sequence:
#
# PCOD9517860 Si02
#       7
#    16  16   8  16  16  16  16
#     4  10  20  34  51  69  96 132 167 204 250 303
#     4   9  18  34  54  75 104 139 171 208 255 306
#     4   7  10  20  36  54  83 119 147 173 216 273
#     4  10  21  36  54  77 103 131 167 210 254 303
#     4   8  14  24  39  62  93 124 152 189 238 287
#     4  10  18  29  47  72  99 127 166 211 253 293
#     4   8  16  31  48  69  96 128 167 207 247 293
#
# _framework density 25.187538
#
# number of rings (size 3 to 8) (size 9 to 14) (size 15 to 20)
#    0.000    3.000    0.000    3.231    0.000    2.462 
#    1.385    6.154    0.000    0.000    0.000    0.538 
#    0.000    1.846    0.000    0.000    0.000    0.000 
#
# Total GULP energy -290068.082173 kJ/mol
# GULP energy per Si atom -5578.232349 kJ/mol
# Density = 2.513021 g / cm^3
# Si number density = 25.187538 Si / 1000 Ang^3
#
#
#
# Elastic Constant Matrix: (Units=GPa)
#
#
# Indices 1 2 3 4 5 6 
#
# 1 61.3166 -3.8514 8.1219 0.0000 0.0000 0.0000
# 2 -3.8514 67.6119 -0.1410 0.0000 0.0000 0.0000
# 3 8.1219 -0.1410 200.4191 0.0000 0.0000 0.0000
# 4 0.0000 0.0000 0.0000 5.0722 0.0000 0.0000
# 5 0.0000 0.0000 0.0000 0.0000 -41.9004 0.0000
# 6 0.0000 0.0000 0.0000 0.0000 0.0000 1.2034
#
#
#
# Elastic Compliance Matrix: (Units=1/GPa)
#
#
# Indices 1 2 3 4 5 6 
#
# 1 0.016456 0.000936 -0.000666 0.000000 0.000000 0.000000
# 2 0.000936 0.014844 -0.000027 0.000000 0.000000 0.000000
# 3 -0.000666 -0.000027 0.005017 0.000000 0.000000 0.000000
# 4 0.000000 0.000000 0.000000 0.197153 0.000000 0.000000
# 5 0.000000 0.000000 0.000000 0.000000 -0.023866 0.000000
# 6 0.000000 0.000000 0.000000 0.000000 0.000000 0.830954
#
#
# Mechanical properties :
#
#
# Convention : Reuss Voigt Hill
#
# Bulk Modulus (GPa) = 27.17353 37.51183 32.34268
# Shear Modulus (GPa) = 4.75132 14.55625 9.65379
#
# Velocity S-wave (km/s) = 1.37495 2.40659 1.95987
# Velocity P-wave (km/s) = 3.65137 4.75895 4.24147
#
# Compressibility (1/GPa) = 0.03680052
#
# Stress axis : x y z
#
# Youngs Moduli (GPa) = 60.76875 67.36926 199.34123
#
# Poissons Ratio (x) = -0.06306 0.13280
# Poissons Ratio (y) = -0.05688 0.00548
# Poissons Ratio (z) = 0.04048 0.00185
#
# Static dielectric constant tensor:
#      x y z
#    x 2.025410 0.000000 0.000000 
#    y 0.000000 1.980680 0.000000 
#    z 0.000000 0.000000 2.042550 
# 
# From -- ./inp_files/66834.got.cif
#   From: 2010.05.17/outbox.cif.g08.bks.cpg/sg71_34_cif.got.tgz:66834.got - 2010.06.03 16:22:01.
