data_PCOD9517753
_publ_section_title
;
Structure prediction by ZEFSAII (Michael W. Deem and Ramdas Pophale) SiO2 
 PCOD9517753
Probable space group: I M M M
;
_chemical_formula_sum "Si O2"
_cell_formula_units_Z 104
_cell_length_a 26.291235
_cell_length_b 18.389151
_cell_length_c 14.223648
_cell_angle_alpha 90.000000
_cell_angle_beta 90.000000
_cell_angle_gamma 90.000000
_cell_volume 6876.756745
_symmetry_space_group_name_H-M "I M M M"
_symmetry_group_IT_number 71
_symmetry_cell_setting 'orthorhombic'
loop_
_space_group_symop_operation_xyz
x,y,z
-x,-y,z
x,-y,-z
-x,y,-z
-x,-y,-z
x,y,-z
-x,y,z
x,-y,z
1/2+x,1/2+y,1/2+z
1/2-x,1/2-y,1/2+z
1/2+x,1/2-y,1/2-z
1/2-x,1/2+y,1/2-z
1/2-x,1/2-y,1/2-z
1/2+x,1/2+y,1/2-z
1/2-x,1/2+y,1/2+z
1/2+x,1/2-y,1/2+z
loop_
_atom_site_type_symbol
_atom_site_label
_atom_site_fract_x
_atom_site_fract_y
_atom_site_fract_z
Si Si1 0.395790 0.155644 0.388328
Si Si2 0.500000 0.086451 0.390987
Si Si3 0.759643 0.911729 0.894032
Si Si4 0.693172 0.588143 0.105224
Si Si5 0.636292 0.412490 0.710400
Si Si6 0.701628 0.912036 0.708347
Si Si7 0.059550 0.185003 0.109503
O O1 0.388265 0.138421 0.500000
O O2 0.446915 0.115574 0.352481
O O3 0.347439 0.128567 0.330683
O O4 0.408718 0.240614 0.380448
O O5 0.500000 0.112672 0.500000
O O6 0.500000 0.000000 0.389670
O O7 0.815990 0.892016 0.857018
O O8 0.719079 0.890837 0.813901
O O9 0.758826 0.000000 0.895633
O O10 0.750535 0.885358 0.000000
O O11 0.690899 0.500000 0.103014
O O12 0.653232 0.610868 0.184982
O O13 0.749653 0.605183 0.142759
O O14 0.684461 0.615524 0.000000
O O15 0.632024 0.500000 0.708424
O O16 0.585729 0.374920 0.673955
O O17 0.694047 0.000000 0.705495
O O18 0.000000 0.198019 0.130400
O O19 0.062731 0.162678 0.000000
#
# Coordination Sequence:
#
# PCOD9517753 Si02
#       7
#    16   8  16  16  16  16  16
#     4  10  18  29  42  61  91 121 145 175 221 268
#     4   9  16  26  42  62  84 114 150 181 208 250
#     4   8  14  26  43  65  94 120 143 179 223 259
#     4   8  14  26  44  68  97 120 138 171 220 264
#     4   9  17  29  48  70  87 112 151 184 213 259
#     4   9  16  25  43  70  92 116 150 180 210 255
#     4  10  20  33  46  61  87 120 147 179 230 273
#
# _framework density 15.123409000000001
#
# number of rings (size 3 to 8) (size 9 to 14) (size 15 to 20)
#    0.000    3.000    0.769    3.231    0.000    2.769 
#    0.000    3.846    0.000    3.231    0.000    2.692 
#    0.000    3.077    0.000    0.000    0.000    0.000 
#
# Total GULP energy -289491.781828 kJ/mol
# GULP energy per Si atom -5567.149651 kJ/mol
# Density = 1.508899 g / cm^3
# Si number density = 15.123409 Si / 1000 Ang^3
#
#
#
# Elastic Constant Matrix: (Units=GPa)
#
#
# Indices 1 2 3 4 5 6 
#
# 1 75.7481 26.9731 51.3305 0.0000 0.0000 0.0000
# 2 26.9731 19.9296 26.8892 0.0000 0.0000 0.0000
# 3 51.3305 26.8892 112.1635 0.0000 0.0000 0.0000
# 4 0.0000 0.0000 0.0000 12.5224 0.0000 0.0000
# 5 0.0000 0.0000 0.0000 0.0000 22.4013 0.0000
# 6 0.0000 0.0000 0.0000 0.0000 0.0000 46.0533
#
#
#
# Elastic Compliance Matrix: (Units=1/GPa)
#
#
# Indices 1 2 3 4 5 6 
#
# 1 0.027547 -0.029966 -0.005423 0.000000 0.000000 0.000000
# 2 -0.029966 0.106763 -0.011881 0.000000 0.000000 0.000000
# 3 -0.005423 -0.011881 0.014245 0.000000 0.000000 0.000000
# 4 0.000000 0.000000 0.000000 0.079857 0.000000 0.000000
# 5 0.000000 0.000000 0.000000 0.000000 0.044640 0.000000
# 6 0.000000 0.000000 0.000000 0.000000 0.000000 0.021714
#
#
# Mechanical properties :
#
#
# Convention : Reuss Voigt Hill
#
# Bulk Modulus (GPa) = 18.51300 46.46966 32.49133
# Shear Modulus (GPa) = 12.27561 23.03863 17.65712
#
# Velocity S-wave (km/s) = 2.85212 3.90728 3.42063
# Velocity P-wave (km/s) = 4.80770 7.15188 6.09358
#
# Compressibility (1/GPa) = 0.05401609
#
# Stress axis : x y z
#
# Youngs Moduli (GPa) = 36.30155 9.36650 70.19781
#
# Poissons Ratio (x) = 0.28068 0.38066
# Poissons Ratio (y) = 1.08782 0.83401
# Poissons Ratio (z) = 0.19685 0.11128
#
# Static dielectric constant tensor:
#      x y z
#    x 1.489480 0.000000 0.000000 
#    y 0.000000 1.506480 0.000000 
#    z 0.000000 0.000000 1.512610 
# 
# From -- ./inp_files/40473.got.cif
#   From: 2010.05.17/outbox.cif.g08.bks.cpg/sg71_21_cif.got.tgz:40473.got - 2010.06.03 16:22:01.
