data_PCOD9517434
_publ_section_title
;
Structure prediction by ZEFSAII (Michael W. Deem and Ramdas Pophale) SiO2 
 PCOD9517434
Probable space group: I M M M
;
_chemical_formula_sum "Si O2"
_cell_formula_units_Z 112
_cell_length_a 27.983408
_cell_length_b 15.621191
_cell_length_c 13.871645
_cell_angle_alpha 90.000000
_cell_angle_beta 90.000000
_cell_angle_gamma 90.000000
_cell_volume 6063.769902
_symmetry_space_group_name_H-M "I M M M"
_symmetry_group_IT_number 71
_symmetry_cell_setting 'orthorhombic'
loop_
_space_group_symop_operation_xyz
x,y,z
-x,-y,z
x,-y,-z
-x,y,-z
-x,-y,-z
x,y,-z
-x,y,z
x,-y,z
1/2+x,1/2+y,1/2+z
1/2-x,1/2-y,1/2+z
1/2+x,1/2-y,1/2-z
1/2-x,1/2+y,1/2-z
1/2-x,1/2-y,1/2-z
1/2+x,1/2+y,1/2-z
1/2-x,1/2+y,1/2+z
1/2+x,1/2-y,1/2+z
loop_
_atom_site_type_symbol
_atom_site_label
_atom_site_fract_x
_atom_site_fract_y
_atom_site_fract_z
Si Si1 0.297896 0.361008 0.815378
Si Si2 0.556893 0.766919 0.884961
Si Si3 0.105144 0.091313 0.388971
Si Si4 0.116249 0.403829 0.728099
Si Si5 0.695084 0.826894 0.107163
Si Si6 0.303789 0.646674 0.603535
Si Si7 0.191352 0.646264 0.111047
O O1 0.337544 0.399705 0.884903
O O2 0.302026 0.257687 0.826788
O O3 0.316598 0.386538 0.709038
O O4 0.242567 0.380478 0.840929
O O5 0.500000 0.759797 0.879501
O O6 0.581948 0.678566 0.851758
O O7 0.576650 0.838873 0.812287
O O8 0.568516 0.783017 0.000000
O O9 0.089785 0.089045 0.500000
O O10 0.091330 0.000000 0.343939
O O11 0.098062 0.500000 0.733673
O O12 0.157223 0.392402 0.647279
O O13 0.145969 0.382135 0.825535
O O14 0.746942 0.867726 0.102844
O O15 0.682756 0.796106 0.000000
O O16 0.323627 0.616249 0.500000
O O17 0.309239 0.749997 0.606252
O O18 0.190206 0.615778 0.000000
#
# Coordination Sequence:
#
# PCOD9517434 Si02
#       7
#    16  16  16  16  16  16  16
#     4  11  16  31  53  78 114 152 187 224 266 317
#     4  10  22  41  62  82 108 140 177 231 291 342
#     4  10  20  33  55  86 114 144 181 221 273 337
#     4  12  23  35  53  78 109 148 188 230 275 325
#     4  10  17  29  48  70  99 141 186 225 264 310
#     4   9  16  27  49  73 101 149 198 230 265 313
#     4  10  19  32  51  78 112 152 191 229 272 319
#
# _framework density 18.470358000000001
#
# number of rings (size 3 to 8) (size 9 to 14) (size 15 to 20)
#    0.000    1.714    4.286    3.429    0.000    2.571 
#    0.000    2.143    0.000    0.857    0.000    1.000 
#    0.000    0.000    0.000    6.000    0.000    0.286 
#
# Total GULP energy -311925.152768 kJ/mol
# GULP energy per Si atom -5570.092014 kJ/mol
# Density = 1.842832 g / cm^3
# Si number density = 18.470358 Si / 1000 Ang^3
#
#
#
# Elastic Constant Matrix: (Units=GPa)
#
#
# Indices 1 2 3 4 5 6 
#
# 1 68.6885 33.6765 14.1098 0.0000 0.0000 0.0000
# 2 33.6765 73.7637 16.5898 0.0000 0.0000 0.0000
# 3 14.1098 16.5898 119.1399 0.0000 0.0000 0.0000
# 4 0.0000 0.0000 0.0000 0.3569 0.0000 0.0000
# 5 0.0000 0.0000 0.0000 0.0000 22.8131 0.0000
# 6 0.0000 0.0000 0.0000 0.0000 0.0000 -13.5686
#
#
#
# Elastic Compliance Matrix: (Units=1/GPa)
#
#
# Indices 1 2 3 4 5 6 
#
# 1 0.018888 -0.008383 -0.001070 0.000000 0.000000 0.000000
# 2 -0.008383 0.017715 -0.001474 0.000000 0.000000 0.000000
# 3 -0.001070 -0.001474 0.008725 0.000000 0.000000 0.000000
# 4 0.000000 0.000000 0.000000 2.802129 0.000000 0.000000
# 5 0.000000 0.000000 0.000000 0.000000 0.043834 0.000000
# 6 0.000000 0.000000 0.000000 0.000000 0.000000 -0.073700
#
#
# Mechanical properties :
#
#
# Convention : Reuss Voigt Hill
#
# Bulk Modulus (GPa) = 42.59650 43.37158 42.98404
# Shear Modulus (GPa) = 1.75607 15.06801 8.41204
#
# Velocity S-wave (km/s) = 0.97612 2.85931 2.13641
# Velocity P-wave (km/s) = 4.93787 5.86801 5.42292
#
# Compressibility (1/GPa) = 0.02347611
#
# Stress axis : x y z
#
# Youngs Moduli (GPa) = 52.94344 56.44804 114.60753
#
# Poissons Ratio (x) = 0.47319 0.12259
# Poissons Ratio (y) = 0.44381 0.16894
# Poissons Ratio (z) = 0.05663 0.08321
#
# Static dielectric constant tensor:
#      x y z
#    x 1.610410 0.000000 0.000000 
#    y 0.000000 1.694390 0.000000 
#    z 0.000000 0.000000 1.725850 
# 
# From -- ./inp_files/40341.got.cif
#   From: 2010.05.17/outbox.cif.g08.bks.cpg/sg71_21_cif.got.tgz:40341.got - 2010.06.03 16:22:01.
