data_PCOD9517859
_publ_section_title
;
Structure prediction by ZEFSAII (Michael W. Deem and Ramdas Pophale) SiO2 
 PCOD9517859
Probable space group: I M M M
;
_chemical_formula_sum "Si O2"
_cell_formula_units_Z 120
_cell_length_a 17.807524
_cell_length_b 20.064941
_cell_length_c 21.190004
_cell_angle_alpha 90.000000
_cell_angle_beta 90.000000
_cell_angle_gamma 90.000000
_cell_volume 7571.335030
_symmetry_space_group_name_H-M "I M M M"
_symmetry_group_IT_number 71
_symmetry_cell_setting 'orthorhombic'
loop_
_space_group_symop_operation_xyz
x,y,z
-x,-y,z
x,-y,-z
-x,y,-z
-x,-y,-z
x,y,-z
-x,y,z
x,-y,z
1/2+x,1/2+y,1/2+z
1/2-x,1/2-y,1/2+z
1/2+x,1/2-y,1/2-z
1/2-x,1/2+y,1/2-z
1/2-x,1/2-y,1/2-z
1/2+x,1/2+y,1/2-z
1/2-x,1/2+y,1/2+z
1/2+x,1/2-y,1/2+z
loop_
_atom_site_type_symbol
_atom_site_label
_atom_site_fract_x
_atom_site_fract_y
_atom_site_fract_z
Si Si1 0.911669 0.228831 0.786988
Si Si2 0.303677 0.164965 0.353574
Si Si3 0.588109 0.816114 0.166563
Si Si4 0.217677 0.276643 0.424570
Si Si5 0.588838 0.500000 0.575146
Si Si6 0.417959 0.923553 0.424485
Si Si7 0.676237 0.617803 0.356973
Si Si8 0.308421 0.922792 0.233014
O O1 0.864120 0.282910 0.825867
O O2 0.903182 0.253501 0.714806
O O3 0.874708 0.159479 0.807735
O O4 0.000000 0.229940 0.802013
O O5 0.240907 0.208162 0.388979
O O6 0.349475 0.119455 0.401430
O O7 0.281631 0.117734 0.295063
O O8 0.500000 0.824939 0.153404
O O9 0.639844 0.802214 0.105977
O O10 0.622645 0.880139 0.203446
O O11 0.215151 0.269753 0.500000
O O12 0.281415 0.330080 0.403337
O O13 0.500000 0.500000 0.587956
O O14 0.600072 0.500000 0.500000
O O15 0.627211 0.435005 0.605155
O O16 0.419531 0.923624 0.500000
O O17 0.500000 0.898604 0.401988
O O18 0.410650 0.000000 0.403173
O O19 0.741728 0.581935 0.317652
O O20 0.326831 0.000000 0.246058
#
# Coordination Sequence:
#
# PCOD9517859 Si02
#       8
#    16  16  16  16   8  16  16  16
#     4   9  17  30  49  71  96 124 154 197 250 291
#     4  10  18  29  47  72  99 125 165 205 242 293
#     4   9  19  34  51  73  99 126 163 211 257 301
#     4  10  20  33  51  72  96 131 169 207 252 294
#     4  11  22  34  50  72  97 127 160 193 229 277
#     4   9  17  28  41  61  96 138 170 197 236 289
#     4  10  19  34  50  70  97 128 160 199 238 294
#     4  10  19  32  51  74  99 131 160 197 252 301
#
# _framework density 15.849252999999999
#
# number of rings (size 3 to 8) (size 9 to 14) (size 15 to 20)
#    0.000    2.333    0.667    3.200    0.000    4.267 
#    0.000    0.000    0.000    6.400    0.000    1.867 
#    0.000    0.000    0.000    8.133    0.000    0.000 
#
# Total GULP energy -334318.941595 kJ/mol
# GULP energy per Si atom -5571.982360 kJ/mol
# Density = 1.581318 g / cm^3
# Si number density = 15.849253 Si / 1000 Ang^3
#
#
#
# Elastic Constant Matrix: (Units=GPa)
#
#
# Indices 1 2 3 4 5 6 
#
# 1 92.2791 47.4360 52.9685 0.0000 0.0000 0.0000
# 2 47.4360 97.5362 44.9858 0.0000 0.0000 0.0000
# 3 52.9685 44.9858 87.5290 0.0000 0.0000 0.0000
# 4 0.0000 0.0000 0.0000 17.3356 0.0000 0.0000
# 5 0.0000 0.0000 0.0000 0.0000 21.2079 0.0000
# 6 0.0000 0.0000 0.0000 0.0000 0.0000 14.2504
#
#
#
# Elastic Compliance Matrix: (Units=1/GPa)
#
#
# Indices 1 2 3 4 5 6 
#
# 1 0.018270 -0.004962 -0.008506 0.000000 0.000000 0.000000
# 2 -0.004962 0.014786 -0.004596 0.000000 0.000000 0.000000
# 3 -0.008506 -0.004596 0.018934 0.000000 0.000000 0.000000
# 4 0.000000 0.000000 0.000000 0.057685 0.000000 0.000000
# 5 0.000000 0.000000 0.000000 0.000000 0.047152 0.000000
# 6 0.000000 0.000000 0.000000 0.000000 0.000000 0.070173
#
#
# Mechanical properties :
#
#
# Convention : Reuss Voigt Hill
#
# Bulk Modulus (GPa) = 63.04590 63.12497 63.08544
# Shear Modulus (GPa) = 18.62781 19.35574 18.99177
#
# Velocity S-wave (km/s) = 3.43200 3.49842 3.46537
# Velocity P-wave (km/s) = 7.45451 7.49889 7.47673
#
# Compressibility (1/GPa) = 0.01586146
#
# Stress axis : x y z
#
# Youngs Moduli (GPa) = 54.73492 67.63184 52.81442
#
# Poissons Ratio (x) = 0.33562 0.44922
# Poissons Ratio (y) = 0.27162 0.24275
# Poissons Ratio (z) = 0.46555 0.31085
#
# Static dielectric constant tensor:
#      x y z
#    x 1.516330 0.000000 0.000000 
#    y 0.000000 1.531800 0.000000 
#    z 0.000000 0.000000 1.524680 
# 
# From -- ./inp_files/46460.got.cif
#   From: 2010.05.17/outbox.cif.g08.bks.cpg/sg71_24_cif.got.tgz:46460.got - 2010.06.03 16:22:01.
