data_PCOD9517634
_publ_section_title
;
Structure prediction by ZEFSAII (Michael W. Deem and Ramdas Pophale) SiO2 
 PCOD9517634
Probable space group: I M M M
;
_chemical_formula_sum "Si O2"
_cell_formula_units_Z 112
_cell_length_a 14.320862
_cell_length_b 17.978178
_cell_length_c 29.427124
_cell_angle_alpha 90.000000
_cell_angle_beta 90.000000
_cell_angle_gamma 90.000000
_cell_volume 7576.395807
_symmetry_space_group_name_H-M "I M M M"
_symmetry_group_IT_number 71
_symmetry_cell_setting 'orthorhombic'
loop_
_space_group_symop_operation_xyz
x,y,z
-x,-y,z
x,-y,-z
-x,y,-z
-x,-y,-z
x,y,-z
-x,y,z
x,-y,z
1/2+x,1/2+y,1/2+z
1/2-x,1/2-y,1/2+z
1/2+x,1/2-y,1/2-z
1/2-x,1/2+y,1/2-z
1/2-x,1/2-y,1/2-z
1/2+x,1/2+y,1/2-z
1/2-x,1/2+y,1/2+z
1/2+x,1/2-y,1/2+z
loop_
_atom_site_type_symbol
_atom_site_label
_atom_site_fract_x
_atom_site_fract_y
_atom_site_fract_z
Si Si1 0.890838 0.797635 0.236486
Si Si2 0.892801 0.182413 0.600326
Si Si3 0.610583 0.144897 0.690072
Si Si4 0.271636 0.913149 0.225628
Si Si5 0.601988 0.356176 0.000000
Si Si6 0.291133 0.910292 0.600699
Si Si7 0.109746 0.301552 0.326042
Si Si8 0.198617 0.584270 0.000000
O O1 0.871177 0.732398 0.199843
O O2 0.823687 0.867133 0.231163
O O3 0.873560 0.756884 0.284791
O O4 0.000000 0.817190 0.234196
O O5 0.891573 0.191155 0.545927
O O6 0.812995 0.121597 0.609755
O O7 0.870513 0.256882 0.627987
O O8 0.000000 0.160658 0.613003
O O9 0.500000 0.132990 0.696367
O O10 0.667557 0.100832 0.728693
O O11 0.643813 0.119396 0.640779
O O12 0.328745 0.872830 0.185343
O O13 0.257534 0.000000 0.218523
O O14 0.688037 0.412572 0.000000
O O15 0.500000 0.393399 0.000000
O O16 0.324261 0.884252 0.550060
O O17 0.289182 0.000000 0.600525
O O18 0.000000 0.320826 0.324570
O O19 0.163724 0.500000 0.000000
#
# Coordination Sequence:
#
# PCOD9517634 Si02
#       8
#    16  16  16  16   8  16  16   8
#     4   9  18  32  47  63  84 111 140 167 203 251
#     4   9  16  27  43  62  85 113 143 174 209 248
#     4  10  20  33  48  62  80 111 147 178 205 239
#     4  11  20  29  45  67  88 108 134 172 211 248
#     4   8  14  23  38  61  82 104 141 179 205 238
#     4  10  18  28  42  60  85 114 144 179 213 245
#     4   9  17  29  44  60  83 115 144 170 202 242
#     4   8  16  27  37  54  82 114 141 169 212 253
#
# _framework density 14.782754000000001
#
# number of rings (size 3 to 8) (size 9 to 14) (size 15 to 20)
#    0.000    2.571    0.000    5.143    0.000    2.714 
#    0.000    3.214    0.000    5.571    0.000    0.500 
#    0.000    2.857    0.000    0.000    0.000   33.714 
#
# Total GULP energy -311854.200766 kJ/mol
# GULP energy per Si atom -5568.825014 kJ/mol
# Density = 1.474911 g / cm^3
# Si number density = 14.782754 Si / 1000 Ang^3
#
#
#
# Elastic Constant Matrix: (Units=GPa)
#
#
# Indices 1 2 3 4 5 6 
#
# 1 61.7685 48.7579 21.9250 0.0000 0.0000 0.0000
# 2 48.7579 94.2728 27.9870 0.0000 0.0000 0.0000
# 3 21.9250 27.9870 63.9533 0.0000 0.0000 0.0000
# 4 0.0000 0.0000 0.0000 15.8080 0.0000 0.0000
# 5 0.0000 0.0000 0.0000 0.0000 20.7508 0.0000
# 6 0.0000 0.0000 0.0000 0.0000 0.0000 3.1725
#
#
#
# Elastic Compliance Matrix: (Units=1/GPa)
#
#
# Indices 1 2 3 4 5 6 
#
# 1 0.028127 -0.013429 -0.003766 0.000000 0.000000 0.000000
# 2 -0.013429 0.018603 -0.003537 0.000000 0.000000 0.000000
# 3 -0.003766 -0.003537 0.018475 0.000000 0.000000 0.000000
# 4 0.000000 0.000000 0.000000 0.063259 0.000000 0.000000
# 5 0.000000 0.000000 0.000000 0.000000 0.048191 0.000000
# 6 0.000000 0.000000 0.000000 0.000000 0.000000 0.315210
#
#
# Mechanical properties :
#
#
# Convention : Reuss Voigt Hill
#
# Bulk Modulus (GPa) = 42.12127 46.37048 44.24587
# Shear Modulus (GPa) = 9.23799 16.03457 12.63628
#
# Velocity S-wave (km/s) = 2.50255 3.29702 2.92687
# Velocity P-wave (km/s) = 6.07501 6.77716 6.43566
#
# Compressibility (1/GPa) = 0.02374097
#
# Stress axis : x y z
#
# Youngs Moduli (GPa) = 35.55342 53.75433 54.12616
#
# Poissons Ratio (x) = 0.72188 0.20383
# Poissons Ratio (y) = 0.47745 0.19145
# Poissons Ratio (z) = 0.13389 0.19014
#
# Static dielectric constant tensor:
#      x y z
#    x 1.516310 0.000000 0.000000 
#    y 0.000000 1.462180 0.000000 
#    z 0.000000 0.000000 1.509960 
# 
# From -- ./inp_files/70217.got.cif
#   From: 2010.05.17/outbox.cif.g08.bks.cpg/sg71_36_cif.got.tgz:70217.got - 2010.06.03 16:22:01.
