data_PCOD9517862
_publ_section_title
;
Structure prediction by ZEFSAII (Michael W. Deem and Ramdas Pophale) SiO2 
 PCOD9517862
Probable space group: I M M M
;
_chemical_formula_sum "Si O2"
_cell_formula_units_Z 72
_cell_length_a 31.643452
_cell_length_b 15.002294
_cell_length_c 7.393922
_cell_angle_alpha 90.000000
_cell_angle_beta 90.000000
_cell_angle_gamma 90.000000
_cell_volume 3510.074964
_symmetry_space_group_name_H-M "I M M M"
_symmetry_group_IT_number 71
_symmetry_cell_setting 'orthorhombic'
loop_
_space_group_symop_operation_xyz
x,y,z
-x,-y,z
x,-y,-z
-x,y,-z
-x,-y,-z
x,y,-z
-x,y,z
x,-y,z
1/2+x,1/2+y,1/2+z
1/2-x,1/2-y,1/2+z
1/2+x,1/2-y,1/2-z
1/2-x,1/2+y,1/2-z
1/2-x,1/2-y,1/2-z
1/2+x,1/2+y,1/2-z
1/2-x,1/2+y,1/2+z
1/2+x,1/2-y,1/2+z
loop_
_atom_site_type_symbol
_atom_site_label
_atom_site_fract_x
_atom_site_fract_y
_atom_site_fract_z
Si Si1 0.266540 0.849517 0.215490
Si Si2 0.860449 0.398854 0.281520
Si Si3 0.178092 0.094563 0.219271
Si Si4 0.449426 0.394189 0.000000
Si Si5 0.397041 0.713919 0.710866
O O1 0.250000 0.750000 0.250000
O O2 0.313017 0.873009 0.285291
O O3 0.226043 0.903063 0.285058
O O4 0.269241 0.864064 0.000000
O O5 0.859530 0.398918 0.500000
O O6 0.870348 0.500000 0.223328
O O7 0.892706 0.320433 0.228673
O O8 0.148525 0.175317 0.276103
O O9 0.158142 0.000000 0.268992
O O10 0.180202 0.099055 0.000000
O O11 0.430699 0.339277 0.829762
O O12 0.437831 0.500000 0.000000
O O13 0.500000 0.390014 0.000000
O O14 0.402552 0.691936 0.500000
#
# Coordination Sequence:
#
# PCOD9517862 Si02
#       5
#    16  16  16   8  16
#     4  10  18  29  47  73 113 165 217 267 311 356
#     4  10  20  35  57  85 123 175 230 274 315 368
#     4   9  17  30  50  77 112 157 207 256 306 363
#     4  11  26  48  73 101 131 161 198 250 321 405
#     4  11  22  39  65  96 128 164 208 261 320 382
#
# _framework density 20.512381999999999
#
# number of rings (size 3 to 8) (size 9 to 14) (size 15 to 20)
#    0.000    1.889    3.333    1.333    0.000    4.889 
#    0.000    1.111    0.000    2.667    0.000    1.556 
#    0.000    0.000    0.000    0.000    0.000    0.000 
#
# Total GULP energy -200852.515322 kJ/mol
# GULP energy per Si atom -5579.236537 kJ/mol
# Density = 2.046570 g / cm^3
# Si number density = 20.512382 Si / 1000 Ang^3
#
#
#
# Elastic Constant Matrix: (Units=GPa)
#
#
# Indices 1 2 3 4 5 6 
#
# 1 91.0114 55.2929 34.2301 0.0000 0.0000 0.0000
# 2 55.2929 174.8394 23.6399 0.0000 0.0000 0.0000
# 3 34.2301 23.6399 109.1605 0.0000 0.0000 0.0000
# 4 0.0000 0.0000 0.0000 14.5060 0.0000 0.0000
# 5 0.0000 0.0000 0.0000 0.0000 8.7255 0.0000
# 6 0.0000 0.0000 0.0000 0.0000 0.0000 29.2675
#
#
#
# Elastic Compliance Matrix: (Units=1/GPa)
#
#
# Indices 1 2 3 4 5 6 
#
# 1 0.014977 -0.004225 -0.003781 0.000000 0.000000 0.000000
# 2 -0.004225 0.007084 -0.000209 0.000000 0.000000 0.000000
# 3 -0.003781 -0.000209 0.010392 0.000000 0.000000 0.000000
# 4 0.000000 0.000000 0.000000 0.068937 0.000000 0.000000
# 5 0.000000 0.000000 0.000000 0.000000 0.114606 0.000000
# 6 0.000000 0.000000 0.000000 0.000000 0.000000 0.034168
#
#
# Mechanical properties :
#
#
# Convention : Reuss Voigt Hill
#
# Bulk Modulus (GPa) = 62.41709 66.81521 64.61615
# Shear Modulus (GPa) = 18.38674 27.95638 23.17156
#
# Velocity S-wave (km/s) = 2.99720 3.69576 3.36465
# Velocity P-wave (km/s) = 6.51710 7.13129 6.83110
#
# Compressibility (1/GPa) = 0.01602125
#
# Stress axis : x y z
#
# Youngs Moduli (GPa) = 66.77016 141.16285 96.22904
#
# Poissons Ratio (x) = 0.59643 0.36388
# Poissons Ratio (y) = 0.28211 0.02013
# Poissons Ratio (z) = 0.25248 0.02954
#
# Static dielectric constant tensor:
#      x y z
#    x 1.696060 0.000000 0.000000 
#    y 0.000000 1.817120 0.000000 
#    z 0.000000 0.000000 1.775980 
# 
# From -- ./inp_files/16360.got.cif
#   From: 2010.05.17/outbox.cif.g08.bks.cpg/sg71_9_cif.got.tgz:16360.got - 2010.06.03 16:22:01.
