data_PCOD9517583
_publ_section_title
;
Structure prediction by ZEFSAII (Michael W. Deem and Ramdas Pophale) SiO2 
 PCOD9517583
Probable space group: I M M M
;
_chemical_formula_sum "Si O2"
_cell_formula_units_Z 96
_cell_length_a 29.770914
_cell_length_b 8.701915
_cell_length_c 27.501123
_cell_angle_alpha 90.000000
_cell_angle_beta 90.000000
_cell_angle_gamma 90.000000
_cell_volume 7124.549914
_symmetry_space_group_name_H-M "I M M M"
_symmetry_group_IT_number 71
_symmetry_cell_setting 'orthorhombic'
loop_
_space_group_symop_operation_xyz
x,y,z
-x,-y,z
x,-y,-z
-x,y,-z
-x,-y,-z
x,y,-z
-x,y,z
x,-y,z
1/2+x,1/2+y,1/2+z
1/2-x,1/2-y,1/2+z
1/2+x,1/2-y,1/2-z
1/2-x,1/2+y,1/2-z
1/2-x,1/2-y,1/2-z
1/2+x,1/2+y,1/2-z
1/2-x,1/2+y,1/2+z
1/2+x,1/2-y,1/2+z
loop_
_atom_site_type_symbol
_atom_site_label
_atom_site_fract_x
_atom_site_fract_y
_atom_site_fract_z
Si Si1 0.949388 0.185031 0.288358
Si Si2 0.143705 0.185791 0.554575
Si Si3 0.803835 0.315151 0.354842
Si Si4 0.950346 0.813235 0.597628
Si Si5 0.358067 0.183395 0.242950
Si Si6 0.778453 0.815969 0.204795
O O1 0.944746 0.228109 0.345500
O O2 0.908937 0.259274 0.258914
O O3 0.000000 0.228204 0.273146
O O4 0.945852 0.000000 0.285901
O O5 0.155523 0.235168 0.500000
O O6 0.176738 0.244272 0.596313
O O7 0.092997 0.238523 0.567908
O O8 0.143593 0.000000 0.555781
O O9 0.806492 0.500000 0.357806
O O10 0.834595 0.267394 0.308387
O O11 0.752337 0.273637 0.341484
O O12 0.000000 0.760989 0.581360
O O13 0.950866 0.000000 0.595608
O O14 0.327983 0.250727 0.286564
O O15 0.355990 0.000000 0.244831
O O16 0.750000 0.750000 0.250000
O O17 0.779601 0.000000 0.207877
#
# Coordination Sequence:
#
# PCOD9517583 Si02
#       6
#    16  16  16  16  16  16
#     4   9  16  26  41  58  76 104 136 163 197 235
#     4  10  19  28  41  59  74  95 129 167 206 242
#     4   9  18  30  41  55  75  99 124 155 197 242
#     4   8  14  25  39  54  71  93 125 165 206 240
#     4  10  18  27  41  61  80 100 127 157 197 239
#     4   9  17  28  42  60  78  96 123 155 193 238
#
# _framework density 13.474534999999999
#
# number of rings (size 3 to 8) (size 9 to 14) (size 15 to 20)
#    0.000    2.833    1.667    3.000    0.000    4.333 
#    0.000    1.667    0.000    0.500    0.000    1.167 
#    0.000    0.000    0.000    0.000    0.000    0.833 
#
# Total GULP energy -267229.532931 kJ/mol
# GULP energy per Si atom -5567.281936 kJ/mol
# Density = 1.344387 g / cm^3
# Si number density = 13.474535 Si / 1000 Ang^3
#
#
#
# Elastic Constant Matrix: (Units=GPa)
#
#
# Indices 1 2 3 4 5 6 
#
# 1 109.3163 30.9756 59.6892 0.0000 0.0000 0.0000
# 2 30.9756 18.6649 18.1812 0.0000 0.0000 0.0000
# 3 59.6892 18.1812 60.8346 0.0000 0.0000 0.0000
# 4 0.0000 0.0000 0.0000 14.4183 0.0000 0.0000
# 5 0.0000 0.0000 0.0000 0.0000 18.1474 0.0000
# 6 0.0000 0.0000 0.0000 0.0000 0.0000 19.8751
#
#
#
# Elastic Compliance Matrix: (Units=1/GPa)
#
#
# Indices 1 2 3 4 5 6 
#
# 1 0.026520 -0.026330 -0.018151 0.000000 0.000000 0.000000
# 2 -0.026330 0.101721 -0.004566 0.000000 0.000000 0.000000
# 3 -0.018151 -0.004566 0.035612 0.000000 0.000000 0.000000
# 4 0.000000 0.000000 0.000000 0.069356 0.000000 0.000000
# 5 0.000000 0.000000 0.000000 0.000000 0.055104 0.000000
# 6 0.000000 0.000000 0.000000 0.000000 0.000000 0.050314
#
#
# Mechanical properties :
#
#
# Convention : Reuss Voigt Hill
#
# Bulk Modulus (GPa) = 15.20743 45.16754 30.18749
# Shear Modulus (GPa) = 10.90177 15.81947 13.36062
#
# Velocity S-wave (km/s) = 2.84749 3.43013 3.15230
# Velocity P-wave (km/s) = 4.70335 7.02005 5.97506
#
# Compressibility (1/GPa) = 0.06575732
#
# Stress axis : x y z
#
# Youngs Moduli (GPa) = 37.70808 9.83086 28.08031
#
# Poissons Ratio (x) = 0.25885 0.50969
# Poissons Ratio (y) = 0.99285 0.12822
# Poissons Ratio (z) = 0.68445 0.04489
#
# Static dielectric constant tensor:
#      x y z
#    x 1.500620 0.000000 0.000000 
#    y 0.000000 1.456130 0.000000 
#    z 0.000000 0.000000 1.419910 
# 
# From -- ./inp_files/15438.got.cif
#   From: 2010.05.17/outbox.cif.g08.bks.cpg/sg71_8_cif.got.tgz:15438.got - 2010.06.03 16:22:01.
