data_PCOD9517825
_publ_section_title
;
Structure prediction by ZEFSAII (Michael W. Deem and Ramdas Pophale) SiO2 
 PCOD9517825
Probable space group: I M M M
;
_chemical_formula_sum "Si O2"
_cell_formula_units_Z 72
_cell_length_a 7.411424
_cell_length_b 20.346750
_cell_length_c 22.695860
_cell_angle_alpha 90.000000
_cell_angle_beta 90.000000
_cell_angle_gamma 90.000000
_cell_volume 3422.499177
_symmetry_space_group_name_H-M "I M M M"
_symmetry_group_IT_number 71
_symmetry_cell_setting 'orthorhombic'
loop_
_space_group_symop_operation_xyz
x,y,z
-x,-y,z
x,-y,-z
-x,y,-z
-x,-y,-z
x,y,-z
-x,y,z
x,-y,z
1/2+x,1/2+y,1/2+z
1/2-x,1/2-y,1/2+z
1/2+x,1/2-y,1/2-z
1/2-x,1/2+y,1/2-z
1/2-x,1/2-y,1/2-z
1/2+x,1/2+y,1/2-z
1/2-x,1/2+y,1/2+z
1/2+x,1/2-y,1/2+z
loop_
_atom_site_type_symbol
_atom_site_label
_atom_site_fract_x
_atom_site_fract_y
_atom_site_fract_z
Si Si1 0.720562 0.804215 0.931619
Si Si2 0.721110 0.424762 0.000000
Si Si3 0.286784 0.662996 0.108675
Si Si4 0.783463 0.573542 0.218410
Si Si5 0.779906 0.425807 0.646904
O O1 0.500000 0.805372 0.930865
O O2 0.781963 0.736893 0.900261
O O3 0.781002 0.868771 0.896679
O O4 0.774533 0.803607 0.000000
O O5 0.782669 0.385580 0.942173
O O6 0.780325 0.500000 0.000000
O O7 0.500000 0.425723 0.000000
O O8 0.500000 0.667778 0.098072
O O9 0.263502 0.629094 0.171641
O O10 0.719753 0.500000 0.200582
O O11 0.723007 0.586299 0.285384
O O12 0.000000 0.570862 0.220102
O O13 0.725005 0.500000 0.630527
O O14 0.000000 0.425256 0.646651
#
# Coordination Sequence:
#
# PCOD9517825 Si02
#       5
#    16   8  16  16  16
#     4   9  16  27  44  67  94 120 151 193 233 271
#     4   9  16  26  41  61  86 118 152 183 221 267
#     4  10  18  29  46  69  94 121 153 191 233 272
#     4   9  18  32  47  65  93 126 157 189 226 271
#     4   8  15  28  45  65  91 123 154 186 230 279
#
# _framework density 21.03726
#
# number of rings (size 3 to 8) (size 9 to 14) (size 15 to 20)
#    0.000    3.000    1.111    2.000    0.000    2.667 
#    0.000    2.778    0.000    2.000    0.000    0.000 
#    0.000    0.000    0.000    6.889    0.000    7.111 
#
# Total GULP energy -200933.927419 kJ/mol
# GULP energy per Si atom -5581.497984 kJ/mol
# Density = 2.098938 g / cm^3
# Si number density = 21.037260 Si / 1000 Ang^3
#
#
#
# Elastic Constant Matrix: (Units=GPa)
#
#
# Indices 1 2 3 4 5 6 
#
# 1 64.6808 6.6779 -1.3325 0.0000 0.0000 0.0000
# 2 6.6779 240.2384 137.2340 0.0000 0.0000 0.0000
# 3 -1.3325 137.2340 127.2002 0.0000 0.0000 0.0000
# 4 0.0000 0.0000 0.0000 29.6217 0.0000 0.0000
# 5 0.0000 0.0000 0.0000 0.0000 11.9679 0.0000
# 6 0.0000 0.0000 0.0000 0.0000 0.0000 2.8722
#
#
#
# Elastic Compliance Matrix: (Units=1/GPa)
#
#
# Indices 1 2 3 4 5 6 
#
# 1 0.015637 -0.001377 0.001649 0.000000 0.000000 0.000000
# 2 -0.001377 0.010970 -0.011849 0.000000 0.000000 0.000000
# 3 0.001649 -0.011849 0.020663 0.000000 0.000000 0.000000
# 4 0.000000 0.000000 0.000000 0.033759 0.000000 0.000000
# 5 0.000000 0.000000 0.000000 0.000000 0.083557 0.000000
# 6 0.000000 0.000000 0.000000 0.000000 0.000000 0.348162
#
#
# Mechanical properties :
#
#
# Convention : Reuss Voigt Hill
#
# Bulk Modulus (GPa) = 41.46739 79.69757 60.58248
# Shear Modulus (GPa) = 9.19220 28.19504 18.69362
#
# Velocity S-wave (km/s) = 2.09260 3.66490 2.98417
# Velocity P-wave (km/s) = 5.05894 7.47495 6.38231
#
# Compressibility (1/GPa) = 0.02411533
#
# Stress axis : x y z
#
# Youngs Moduli (GPa) = 63.95229 91.16057 48.39570
#
# Poissons Ratio (x) = 0.12550 -0.07981
# Poissons Ratio (y) = 0.08804 0.57346
# Poissons Ratio (z) = -0.10546 1.08020
#
# Static dielectric constant tensor:
#      x y z
#    x 1.828170 0.000000 0.000000 
#    y 0.000000 1.737530 0.000000 
#    z 0.000000 0.000000 1.712380 
# 
# From -- ./inp_files/7969.got.cif
#   From: 2010.05.17/outbox.cif.g08.bks.cpg/sg71_4_cif.got.tgz:7969.got - 2010.06.03 16:22:01.
