data_PCOD9517796
_publ_section_title
;
Structure prediction by ZEFSAII (Michael W. Deem and Ramdas Pophale) SiO2 
 PCOD9517796
Probable space group: I M M M
;
_chemical_formula_sum "Si O2"
_cell_formula_units_Z 104
_cell_length_a 24.168334
_cell_length_b 7.722596
_cell_length_c 24.650630
_cell_angle_alpha 90.000000
_cell_angle_beta 90.000000
_cell_angle_gamma 90.000000
_cell_volume 4600.849774
_symmetry_space_group_name_H-M "I M M M"
_symmetry_group_IT_number 71
_symmetry_cell_setting 'orthorhombic'
loop_
_space_group_symop_operation_xyz
x,y,z
-x,-y,z
x,-y,-z
-x,y,-z
-x,-y,-z
x,y,-z
-x,y,z
x,-y,z
1/2+x,1/2+y,1/2+z
1/2-x,1/2-y,1/2+z
1/2+x,1/2-y,1/2-z
1/2-x,1/2+y,1/2-z
1/2-x,1/2-y,1/2-z
1/2+x,1/2+y,1/2-z
1/2-x,1/2+y,1/2+z
1/2+x,1/2-y,1/2+z
loop_
_atom_site_type_symbol
_atom_site_label
_atom_site_fract_x
_atom_site_fract_y
_atom_site_fract_z
Si Si1 0.791933 0.192417 0.204785
Si Si2 0.202487 0.211946 0.439907
Si Si3 0.102801 0.212280 0.634801
Si Si4 0.915464 0.196861 0.246021
Si Si5 0.000000 0.211027 0.561098
Si Si6 0.559766 0.707851 0.372953
Si Si7 0.819832 0.309119 0.909382
O O1 0.750000 0.250000 0.250000
O O2 0.850653 0.184417 0.233821
O O3 0.799104 0.311739 0.152997
O O4 0.778366 0.000000 0.184437
O O5 0.179947 0.254017 0.500000
O O6 0.161701 0.267540 0.391105
O O7 0.266038 0.276970 0.436544
O O8 0.204730 0.000000 0.436545
O O9 0.083301 0.276615 0.694135
O O10 0.055101 0.260857 0.592870
O O11 0.105371 0.000000 0.639003
O O12 0.937294 0.275996 0.189489
O O13 0.938044 0.000000 0.249992
O O14 0.000000 0.274368 0.500000
O O15 0.000000 0.000000 0.560024
O O16 0.500000 0.762617 0.396434
O O17 0.559288 0.500000 0.368136
O O18 0.616922 0.743926 0.404735
O O19 0.824415 0.500000 0.932871
#
# Coordination Sequence:
#
# PCOD9517796 Si02
#       7
#    16  16  16  16   8  16  16
#     4  10  18  29  45  67  97 130 164 201 248 303
#     4   9  17  29  45  65  92 127 167 210 255 303
#     4   9  15  23  37  58  87 123 161 200 240 284
#     4   8  15  25  39  62  89 119 156 192 230 286
#     4   9  16  22  30  50  82 120 159 197 236 275
#     4   9  18  32  50  71 100 133 163 198 248 310
#     4  10  19  31  49  72  96 127 168 210 255 305
#
# _framework density 22.604520999999998
#
# number of rings (size 3 to 8) (size 9 to 14) (size 15 to 20)
#    0.000    2.846    0.000    3.231    1.077    4.615 
#    0.000    0.000    0.000    2.308    0.000    3.231 
#    0.000    0.000    0.000    0.462    0.000   39.385 
#
# Total GULP energy -289617.947969 kJ/mol
# GULP energy per Si atom -5569.575922 kJ/mol
# Density = 2.255307 g / cm^3
# Si number density = 22.604521 Si / 1000 Ang^3
#
#
#
# Elastic Constant Matrix: (Units=GPa)
#
#
# Indices 1 2 3 4 5 6 
#
# 1 143.1679 8.0388 3.3637 0.0000 0.0000 0.0000
# 2 8.0388 43.0350 2.0343 0.0000 0.0000 0.0000
# 3 3.3637 2.0343 53.5913 0.0000 0.0000 0.0000
# 4 0.0000 0.0000 0.0000 -38.1864 0.0000 0.0000
# 5 0.0000 0.0000 0.0000 0.0000 -5.0426 0.0000
# 6 0.0000 0.0000 0.0000 0.0000 0.0000 -3.4516
#
#
#
# Elastic Compliance Matrix: (Units=1/GPa)
#
#
# Indices 1 2 3 4 5 6 
#
# 1 0.007067 -0.001301 -0.000394 0.000000 0.000000 0.000000
# 2 -0.001301 0.023518 -0.000811 0.000000 0.000000 0.000000
# 3 -0.000394 -0.000811 0.018715 0.000000 0.000000 0.000000
# 4 0.000000 0.000000 0.000000 -0.026187 0.000000 0.000000
# 5 0.000000 0.000000 0.000000 0.000000 -0.198311 0.000000
# 6 0.000000 0.000000 0.000000 0.000000 0.000000 -0.289718
#
#
# Mechanical properties :
#
#
# Convention : Reuss Voigt Hill
#
# Bulk Modulus (GPa) = 22.57981 29.62977 26.10479
# Shear Modulus (GPa) = -11.23244 5.75437 -2.73903
#
# Velocity S-wave (km/s) = -2.23157 1.59725 -1.10198
# Velocity P-wave (km/s) = 1.83600 4.06669 3.15506
#
# Compressibility (1/GPa) = 0.04428735
#
# Stress axis : x y z
#
# Youngs Moduli (GPa) = 141.49987 42.51998 53.43231
#
# Poissons Ratio (x) = 0.05534 0.02106
# Poissons Ratio (y) = 0.18416 0.04334
# Poissons Ratio (z) = 0.05578 0.03449
#
# Static dielectric constant tensor:
#      x y z
#    x 1.822970 0.000000 0.000000 
#    y 0.000000 1.891590 0.000000 
#    z 0.000000 0.000000 1.903690 
# 
# From -- ./inp_files/66847.got.cif
#   From: 2010.05.17/outbox.cif.g08.bks.cpg/sg71_34_cif.got.tgz:66847.got - 2010.06.03 16:22:01.
