data_PCOD9517786
_publ_section_title
;
Structure prediction by ZEFSAII (Michael W. Deem and Ramdas Pophale) SiO2 
 PCOD9517786
Probable space group: I M M M
;
_chemical_formula_sum "Si O2"
_cell_formula_units_Z 56
_cell_length_a 18.875154
_cell_length_b 21.591300
_cell_length_c 8.607740
_cell_angle_alpha 90.000000
_cell_angle_beta 90.000000
_cell_angle_gamma 90.000000
_cell_volume 3507.990721
_symmetry_space_group_name_H-M "I M M M"
_symmetry_group_IT_number 71
_symmetry_cell_setting 'orthorhombic'
loop_
_space_group_symop_operation_xyz
x,y,z
-x,-y,z
x,-y,-z
-x,y,-z
-x,-y,-z
x,y,-z
-x,y,z
x,-y,z
1/2+x,1/2+y,1/2+z
1/2-x,1/2-y,1/2+z
1/2+x,1/2-y,1/2-z
1/2-x,1/2+y,1/2-z
1/2-x,1/2-y,1/2-z
1/2+x,1/2+y,1/2-z
1/2-x,1/2+y,1/2+z
1/2+x,1/2-y,1/2+z
loop_
_atom_site_type_symbol
_atom_site_label
_atom_site_fract_x
_atom_site_fract_y
_atom_site_fract_z
Si Si1 0.582382 0.249620 0.686166
Si Si2 0.658141 0.126387 0.186835
Si Si3 0.081456 0.500000 0.310720
Si Si4 0.711705 0.311881 0.185300
O O1 0.589679 0.248388 0.500000
O O2 0.500000 0.256613 0.726619
O O3 0.612183 0.184551 0.752025
O O4 0.632095 0.304031 0.753204
O O5 0.737891 0.134171 0.250705
O O6 0.621808 0.062391 0.236611
O O7 0.659781 0.129548 0.000000
O O8 0.080349 0.500000 0.500000
O O9 0.000000 0.500000 0.257613
O O10 0.750000 0.250000 0.250000
O O11 0.712776 0.311307 0.000000
#
# Coordination Sequence:
#
# PCOD9517786 Si02
#       4
#    16  16   8  16
#     4  10  19  30  45  67  93 118 147 185 228 270
#     4  10  18  30  47  65  90 122 155 187 219 260
#     4   9  18  30  45  67  92 121 156 187 215 254
#     4  10  18  29  45  64  88 117 150 185 224 269
#
# _framework density 15.963554
#
# number of rings (size 3 to 8) (size 9 to 14) (size 15 to 20)
#    0.000    2.143    0.000    8.571    0.000    3.429 
#    0.000    2.857    0.000    5.143    0.000    1.000 
#    0.000    8.000    0.000    0.000    0.000    0.000 
#
# Total GULP energy -156111.017111 kJ/mol
# GULP energy per Si atom -5575.393468 kJ/mol
# Density = 1.592722 g / cm^3
# Si number density = 15.963554 Si / 1000 Ang^3
#
#
#
# Elastic Constant Matrix: (Units=GPa)
#
#
# Indices 1 2 3 4 5 6 
#
# 1 165.5602 73.8356 56.5117 0.0000 0.0000 0.0000
# 2 73.8356 82.2375 25.3759 0.0000 0.0000 0.0000
# 3 56.5117 25.3759 80.6527 0.0000 0.0000 0.0000
# 4 0.0000 0.0000 0.0000 16.3127 0.0000 0.0000
# 5 0.0000 0.0000 0.0000 0.0000 25.4476 0.0000
# 6 0.0000 0.0000 0.0000 0.0000 0.0000 29.1642
#
#
#
# Elastic Compliance Matrix: (Units=1/GPa)
#
#
# Indices 1 2 3 4 5 6 
#
# 1 0.011955 -0.009025 -0.005537 0.000000 0.000000 0.000000
# 2 -0.009025 0.020281 -0.000057 0.000000 0.000000 0.000000
# 3 -0.005537 -0.000057 0.016297 0.000000 0.000000 0.000000
# 4 0.000000 0.000000 0.000000 0.061302 0.000000 0.000000
# 5 0.000000 0.000000 0.000000 0.000000 0.039296 0.000000
# 6 0.000000 0.000000 0.000000 0.000000 0.000000 0.034289
#
#
# Mechanical properties :
#
#
# Convention : Reuss Voigt Hill
#
# Bulk Modulus (GPa) = 51.83112 71.09963 61.46537
# Shear Modulus (GPa) = 22.82175 25.70005 24.26090
#
# Velocity S-wave (km/s) = 3.78513 4.01673 3.90265
# Velocity P-wave (km/s) = 7.18622 8.13312 7.67429
#
# Compressibility (1/GPa) = 0.01929343
#
# Stress axis : x y z
#
# Youngs Moduli (GPa) = 83.64658 49.30823 61.36262
#
# Poissons Ratio (x) = 0.44501 0.33977
# Poissons Ratio (y) = 0.75492 0.00351
# Poissons Ratio (z) = 0.46316 0.00282
#
# Static dielectric constant tensor:
#      x y z
#    x 1.575660 0.000000 0.000000 
#    y 0.000000 1.536360 0.000000 
#    z 0.000000 0.000000 1.540990 
# 
# From -- ./inp_files/7398.got.cif
#   From: 2010.05.17/outbox.cif.g08.bks.cpg/sg71_4_cif.got.tgz:7398.got - 2010.06.03 16:22:01.
