data_PCOD9517102
_publ_section_title
;
Structure prediction by ZEFSAII (Michael W. Deem and Ramdas Pophale) SiO2 
 PCOD9517102
Probable space group: F D D D
;
_chemical_formula_sum "Si O2"
_cell_formula_units_Z 112
_cell_length_a 31.576920
_cell_length_b 12.412978
_cell_length_c 11.101001
_cell_angle_alpha 90.000000
_cell_angle_beta 90.000000
_cell_angle_gamma 90.000000
_cell_volume 4351.188463
_symmetry_space_group_name_H-M "F D D D"
_symmetry_group_IT_number 70
_space_group.IT_coordinate_system_code '2'
_symmetry_cell_setting 'orthorhombic'
loop_
_space_group_symop_operation_xyz
x,y,z
1/4-x,1/4-y,z
x,1/4-y,1/4-z
1/4-x,y,1/4-z
-x,-y,-z
3/4+x,3/4+y,-z
-x,3/4+y,3/4+z
3/4+x,-y,3/4+z
x,1/2+y,1/2+z
1/4-x,3/4-y,1/2+z
x,3/4-y,3/4-z
1/4-x,1/2+y,3/4-z
-x,1/2-y,1/2-z
3/4+x,1/4+y,1/2-z
-x,1/4+y,1/4+z
3/4+x,1/2-y,1/4+z
1/2+x,y,1/2+z
3/4-x,1/4-y,1/2+z
1/2+x,1/4-y,3/4-z
3/4-x,y,3/4-z
1/2-x,-y,1/2-z
1/4+x,3/4+y,1/2-z
1/2-x,3/4+y,1/4+z
1/4+x,-y,1/4+z
1/2+x,1/2+y,z
3/4-x,3/4-y,z
1/2+x,3/4-y,1/4-z
3/4-x,1/2+y,1/4-z
1/2-x,1/2-y,-z
1/4+x,1/4+y,-z
1/2-x,1/4+y,3/4+z
1/4+x,1/2-y,3/4+z
loop_
_atom_site_type_symbol
_atom_site_label
_atom_site_fract_x
_atom_site_fract_y
_atom_site_fract_z
Si Si1 0.594355 0.375000 0.875000
Si Si2 0.327470 0.389535 0.562855
Si Si3 0.488719 0.375000 0.375000
Si Si4 0.205686 0.717400 0.707832
Si Si5 0.375000 0.077006 0.375000
O O1 0.568847 0.266047 0.909380
O O2 0.625045 0.374187 0.758607
O O3 0.375000 0.375000 0.516958
O O4 0.294734 0.330064 0.473649
O O5 0.324053 0.337285 0.692789
O O6 0.515264 0.454757 0.289212
O O7 0.227114 0.625000 0.625000
O O8 0.171827 0.774478 0.621533
#
# Coordination Sequence:
#
# PCOD9517102 Si02
#       5
#    16  32  16  32  16
#     4  12  27  44  88 117 160 213 285 345 420 508
#     4  12  27  52  78 119 161 218 275 343 421 516
#     4  12  32  46  82 125 170 214 278 365 425 506
#     4  12  25  53  82 113 164 216 283 347 418 508
#     4  12  25  50  83 120 152 220 279 338 417 502
#
# _framework density 25.740093000000002
#
# number of rings (size 3 to 8) (size 9 to 14) (size 15 to 20)
#    0.000    0.000    5.714    2.571    6.000    3.429 
#    0.000    0.000    0.000    0.000    0.000    0.000 
#    0.000    0.000    0.000    0.000    0.000    0.000 
#
# Total GULP energy -156117.279705 kJ/mol
# GULP energy per Si atom -5575.617132 kJ/mol
# Density = 2.568151 g / cm^3
# Si number density = 25.740093 Si / 1000 Ang^3
#
#
#
# Elastic Constant Matrix: (Units=GPa)
#
#
# Indices 1 2 3 4 5 6 
#
# 1 148.8822 52.4203 41.2605 0.0000 0.0000 0.0000
# 2 52.4203 90.3810 24.7038 0.0000 0.0000 0.0000
# 3 41.2605 24.7038 172.4384 0.0000 0.0000 0.0000
# 4 0.0000 0.0000 0.0000 38.6706 0.0000 0.0000
# 5 0.0000 0.0000 0.0000 0.0000 249.7686 0.0000
# 6 0.0000 0.0000 0.0000 0.0000 0.0000 39.5917
#
#
#
# Elastic Compliance Matrix: (Units=1/GPa)
#
#
# Indices 1 2 3 4 5 6 
#
# 1 0.008764 -0.004694 -0.001425 0.000000 0.000000 0.000000
# 2 -0.004694 0.014029 -0.000887 0.000000 0.000000 0.000000
# 3 -0.001425 -0.000887 0.006267 0.000000 0.000000 0.000000
# 4 0.000000 0.000000 0.000000 0.025859 0.000000 0.000000
# 5 0.000000 0.000000 0.000000 0.000000 0.004004 0.000000
# 6 0.000000 0.000000 0.000000 0.000000 0.000000 0.025258
#
#
# Mechanical properties :
#
#
# Convention : Reuss Voigt Hill
#
# Bulk Modulus (GPa) = 66.44495 72.05230 69.24862
# Shear Modulus (GPa) = 48.44581 85.16063 66.80322
#
# Velocity S-wave (km/s) = 4.34304 5.75818 5.09993
# Velocity P-wave (km/s) = 7.14277 8.50070 7.85115
#
# Compressibility (1/GPa) = 0.01505005
#
# Stress axis : x y z
#
# Youngs Moduli (GPa) = 114.10094 71.28099 159.56383
#
# Poissons Ratio (x) = 0.33458 0.22732
# Poissons Ratio (y) = 0.53556 0.14149
# Poissons Ratio (z) = 0.16255 0.06321
#
# Static dielectric constant tensor:
#      x y z
#    x 2.024090 0.000000 0.000000 
#    y 0.000000 2.237600 0.000000 
#    z 0.000000 0.000000 2.009550 
# 
# From -- ./inp_files/21775.got.cif
#   From: 2010.05.17/outbox.cif.g08.bks.cpg/sg70_11_cif.got.tgz:21775.got - 2010.06.03 15:57:51.
