data_PCOD9517278
_publ_section_title
;
Structure prediction by ZEFSAII (Michael W. Deem and Ramdas Pophale) SiO2 
 PCOD9517278
Probable space group: I M M M
;
_chemical_formula_sum "Si O2"
_cell_formula_units_Z 88
_cell_length_a 12.200083
_cell_length_b 20.856685
_cell_length_c 19.311738
_cell_angle_alpha 90.000000
_cell_angle_beta 90.000000
_cell_angle_gamma 90.000000
_cell_volume 4913.935233
_symmetry_space_group_name_H-M "I M M M"
_symmetry_group_IT_number 71
_symmetry_cell_setting 'orthorhombic'
loop_
_space_group_symop_operation_xyz
x,y,z
-x,-y,z
x,-y,-z
-x,y,-z
-x,-y,-z
x,y,-z
-x,y,z
x,-y,z
1/2+x,1/2+y,1/2+z
1/2-x,1/2-y,1/2+z
1/2+x,1/2-y,1/2-z
1/2-x,1/2+y,1/2-z
1/2-x,1/2-y,1/2-z
1/2+x,1/2+y,1/2-z
1/2-x,1/2+y,1/2+z
1/2+x,1/2-y,1/2+z
loop_
_atom_site_type_symbol
_atom_site_label
_atom_site_fract_x
_atom_site_fract_y
_atom_site_fract_z
Si Si1 0.754974 0.427614 0.665274
Si Si2 0.869165 0.814364 0.916818
Si Si3 0.000000 0.271174 0.426029
Si Si4 0.223472 0.192795 0.421200
Si Si5 0.000000 0.610528 0.668493
Si Si6 0.000000 0.571716 0.184743
Si Si7 0.255984 0.927702 0.332479
O O1 0.717007 0.500000 0.648133
O O2 0.689638 0.371940 0.625130
O O3 0.746530 0.420084 0.749115
O O4 0.885076 0.422461 0.649359
O O5 0.813395 0.745878 0.898093
O O6 0.000000 0.813893 0.904447
O O7 0.850997 0.822786 0.000000
O O8 0.891415 0.229488 0.423250
O O9 0.000000 0.320940 0.365454
O O10 0.000000 0.306893 0.500000
O O11 0.251991 0.172967 0.500000
O O12 0.206838 0.131684 0.372695
O O13 0.000000 0.618941 0.751147
O O14 0.114727 0.576152 0.147042
O O15 0.000000 0.500000 0.217936
O O16 0.217229 0.000000 0.349120
#
# Coordination Sequence:
#
# PCOD9517278 Si02
#       7
#    16  16   8  16   8   8  16
#     4  10  20  36  57  83 112 143 181 226 271 316
#     4  10  22  39  56  80 113 148 182 219 267 323
#     4  10  20  36  55  77 107 138 175 229 277 314
#     4  10  21  38  58  79 108 144 182 225 273 323
#     4  10  16  32  56  81 106 141 174 221 273 322
#     4   8  16  32  53  79 113 141 165 216 282 321
#     4   9  19  36  56  82 112 141 179 226 273 321
#
# _framework density 17.908252999999998
#
# number of rings (size 3 to 8) (size 9 to 14) (size 15 to 20)
#    0.000    2.364    1.818    1.909    1.273    1.818 
#    1.636    1.364    0.000    6.273    0.000    0.000 
#    0.000    0.000    0.000    0.000    0.000    0.000 
#
# Total GULP energy -245037.189378 kJ/mol
# GULP energy per Si atom -5569.027031 kJ/mol
# Density = 1.786749 g / cm^3
# Si number density = 17.908253 Si / 1000 Ang^3
#
#
#
# Elastic Constant Matrix: (Units=GPa)
#
#
# Indices 1 2 3 4 5 6 
#
# 1 64.3826 23.2254 14.4846 0.0000 0.0000 0.0000
# 2 23.2254 119.5121 57.4655 0.0000 0.0000 0.0000
# 3 14.4846 57.4655 45.1655 0.0000 0.0000 0.0000
# 4 0.0000 0.0000 0.0000 73.9699 0.0000 0.0000
# 5 0.0000 0.0000 0.0000 0.0000 22.2978 0.0000
# 6 0.0000 0.0000 0.0000 0.0000 0.0000 42.2659
#
#
#
# Elastic Compliance Matrix: (Units=1/GPa)
#
#
# Indices 1 2 3 4 5 6 
#
# 1 0.016880 -0.001745 -0.003193 0.000000 0.000000 0.000000
# 2 -0.001745 0.021733 -0.027093 0.000000 0.000000 0.000000
# 3 -0.003193 -0.027093 0.057636 0.000000 0.000000 0.000000
# 4 0.000000 0.000000 0.000000 0.013519 0.000000 0.000000
# 5 0.000000 0.000000 0.000000 0.000000 0.044847 0.000000
# 6 0.000000 0.000000 0.000000 0.000000 0.000000 0.023660
#
#
# Mechanical properties :
#
#
# Convention : Reuss Voigt Hill
#
# Bulk Modulus (GPa) = 31.06796 46.60122 38.83459
# Shear Modulus (GPa) = 19.75768 36.63238 28.19503
#
# Velocity S-wave (km/s) = 3.32516 4.52769 3.97220
# Velocity P-wave (km/s) = 5.66818 7.30835 6.53989
#
# Compressibility (1/GPa) = 0.03218750
#
# Stress axis : x y z
#
# Youngs Moduli (GPa) = 59.24156 46.01193 17.35037
#
# Poissons Ratio (x) = 0.08029 0.05541
# Poissons Ratio (y) = 0.10337 0.47007
# Poissons Ratio (z) = 0.18918 1.24658
#
# Static dielectric constant tensor:
#      x y z
#    x 1.632640 0.000000 0.000000 
#    y 0.000000 1.610840 0.000000 
#    z 0.000000 0.000000 1.615630 
# 
# From -- ./inp_files/24010.got.cif
#   From: 2010.05.17/outbox.cif.g08.bks.cpg/sg71_13_cif.got.tgz:24010.got - 2010.06.03 16:22:01.
