data_PCOD9517341
_publ_section_title
;
Structure prediction by ZEFSAII (Michael W. Deem and Ramdas Pophale) SiO2 
 PCOD9517341
Probable space group: I M M M
;
_chemical_formula_sum "Si O2"
_cell_formula_units_Z 82
_cell_length_a 14.596767
_cell_length_b 9.508438
_cell_length_c 26.215051
_cell_angle_alpha 90.000000
_cell_angle_beta 90.000000
_cell_angle_gamma 90.000000
_cell_volume 3638.451261
_symmetry_space_group_name_H-M "I M M M"
_symmetry_group_IT_number 71
_symmetry_cell_setting 'orthorhombic'
loop_
_space_group_symop_operation_xyz
x,y,z
-x,-y,z
x,-y,-z
-x,y,-z
-x,-y,-z
x,y,-z
-x,y,z
x,-y,z
1/2+x,1/2+y,1/2+z
1/2-x,1/2-y,1/2+z
1/2+x,1/2-y,1/2-z
1/2-x,1/2+y,1/2-z
1/2-x,1/2-y,1/2-z
1/2+x,1/2+y,1/2-z
1/2-x,1/2+y,1/2+z
1/2+x,1/2-y,1/2+z
loop_
_atom_site_type_symbol
_atom_site_label
_atom_site_fract_x
_atom_site_fract_y
_atom_site_fract_z
Si Si1 0.362460 0.256511 0.500000
Si Si2 0.500000 0.000000 0.500000
Si Si3 0.640312 0.839803 0.700790
Si Si4 0.647251 0.329884 0.000000
Si Si5 0.645278 0.651252 0.389871
Si Si6 0.863922 0.837537 0.700958
Si Si7 0.866829 0.336363 0.601769
O O1 0.255715 0.208915 0.500000
O O2 0.383964 0.337052 0.448070
O O3 0.421519 0.119520 0.500000
O O4 0.612239 0.775020 0.646594
O O5 0.752001 0.838989 0.700641
O O6 0.609937 0.740992 0.747045
O O7 0.610797 0.000000 0.707555
O O8 0.610649 0.253369 0.051131
O O9 0.634569 0.500000 0.000000
O O10 0.620006 0.500000 0.367439
O O11 0.755936 0.658319 0.393117
O O12 0.895787 0.747185 0.652390
O O13 0.892676 0.000000 0.698697
O O14 0.896210 0.500000 0.598995
#
# Coordination Sequence:
#
# PCOD9517341 Si02
#       7
#     8   2  16   8  16  16  16
#     4  10  21  32  47  57  74  87 117 150 208 251
#     4  12  24  36  46  64  72  92 110 168 216 270
#     4   9  16  23  36  54  74  95 118 140 174 216
#     4  10  17  27  40  55  71  94 127 161 192 240
#     4   9  17  29  43  57  71  90 114 147 184 237
#     4   9  15  23  33  50  75 100 120 144 173 213
#     4   9  16  24  36  52  73  96 123 153 187 217
#
# _framework density 22.537063
#
# number of rings (size 3 to 8) (size 9 to 14) (size 15 to 20)
#    0.000    2.732    0.488    2.341    1.366    9.366 
#    0.000    0.976    0.000    0.000    0.000    0.000 
#    0.000    0.000    0.000    0.000    0.000    0.000 
#
# Total GULP energy -228787.758697 kJ/mol
# GULP energy per Si atom -5580.189237 kJ/mol
# Density = 2.248577 g / cm^3
# Si number density = 22.537063 Si / 1000 Ang^3
#
#
#
# Elastic Constant Matrix: (Units=GPa)
#
#
# Indices 1 2 3 4 5 6 
#
# 1 86.4698 3.9342 3.6113 0.0000 0.0000 0.0000
# 2 3.9342 228.2618 110.4713 0.0000 0.0000 0.0000
# 3 3.6113 110.4713 193.8596 0.0000 0.0000 0.0000
# 4 0.0000 0.0000 0.0000 53.5020 0.0000 0.0000
# 5 0.0000 0.0000 0.0000 0.0000 -29.0714 0.0000
# 6 0.0000 0.0000 0.0000 0.0000 0.0000 -17.4337
#
#
#
# Elastic Compliance Matrix: (Units=1/GPa)
#
#
# Indices 1 2 3 4 5 6 
#
# 1 0.011577 -0.000131 -0.000141 0.000000 0.000000 0.000000
# 2 -0.000131 0.006051 -0.003446 0.000000 0.000000 0.000000
# 3 -0.000141 -0.003446 0.007124 0.000000 0.000000 0.000000
# 4 0.000000 0.000000 0.000000 0.018691 0.000000 0.000000
# 5 0.000000 0.000000 0.000000 0.000000 -0.034398 0.000000
# 6 0.000000 0.000000 0.000000 0.000000 0.000000 -0.057360
#
#
# Mechanical properties :
#
#
# Convention : Reuss Voigt Hill
#
# Bulk Modulus (GPa) = 57.74908 82.73608 70.24258
# Shear Modulus (GPa) = -142.41853 27.43766 -57.49044
#
# Velocity S-wave (km/s) = -7.95803 3.49298 -5.05615
# Velocity P-wave (km/s) = 7.66555 7.28414 1.68848
#
# Compressibility (1/GPa) = 0.01731629
#
# Stress axis : x y z
#
# Youngs Moduli (GPa) = 86.38123 165.26869 140.36129
#
# Poissons Ratio (x) = 0.02172 0.01976
# Poissons Ratio (y) = 0.01135 0.48363
# Poissons Ratio (z) = 0.01216 0.56945
#
# Static dielectric constant tensor:
#      x y z
#    x 1.851450 0.000000 0.000000 
#    y 0.000000 1.766110 0.000000 
#    z 0.000000 0.000000 1.800430 
# 
# From -- ./inp_files/10309.got.cif
#   From: 2010.05.17/outbox.cif.g08.bks.cpg/sg71_6_cif.got.tgz:10309.got - 2010.06.03 16:22:01.
