data_PCOD9517208
_publ_section_title
;
Structure prediction by ZEFSAII (Michael W. Deem and Ramdas Pophale) SiO2 
 PCOD9517208
Probable space group: I M M M
;
_chemical_formula_sum "Si O2"
_cell_formula_units_Z 84
_cell_length_a 14.943624
_cell_length_b 13.614754
_cell_length_c 20.336013
_cell_angle_alpha 90.000000
_cell_angle_beta 90.000000
_cell_angle_gamma 90.000000
_cell_volume 4137.438402
_symmetry_space_group_name_H-M "I M M M"
_symmetry_group_IT_number 71
_symmetry_cell_setting 'orthorhombic'
loop_
_space_group_symop_operation_xyz
x,y,z
-x,-y,z
x,-y,-z
-x,y,-z
-x,-y,-z
x,y,-z
-x,y,z
x,-y,z
1/2+x,1/2+y,1/2+z
1/2-x,1/2-y,1/2+z
1/2+x,1/2-y,1/2-z
1/2-x,1/2+y,1/2-z
1/2-x,1/2-y,1/2-z
1/2+x,1/2+y,1/2-z
1/2-x,1/2+y,1/2+z
1/2+x,1/2-y,1/2+z
loop_
_atom_site_type_symbol
_atom_site_label
_atom_site_fract_x
_atom_site_fract_y
_atom_site_fract_z
Si Si1 0.711552 0.618583 0.872291
Si Si2 0.598553 0.118865 0.421886
Si Si3 0.000000 0.817752 0.000000
Si Si4 0.153806 0.883028 0.901222
Si Si5 0.397307 0.314967 0.000000
Si Si6 0.396610 0.380678 0.254328
Si Si7 0.686340 0.113492 0.000000
O O1 0.715418 0.500000 0.868048
O O2 0.812920 0.654309 0.885345
O O3 0.653526 0.645400 0.935938
O O4 0.662931 0.655530 0.806622
O O5 0.599943 0.143327 0.500000
O O6 0.500000 0.145691 0.396230
O O7 0.602059 0.000000 0.420000
O O8 0.921769 0.829634 0.942967
O O9 0.146466 0.858011 0.824758
O O10 0.133051 0.000000 0.907706
O O11 0.249104 0.870139 0.936775
O O12 0.387636 0.197049 0.000000
O O13 0.500000 0.345905 0.000000
O O14 0.500000 0.346913 0.250966
O O15 0.399261 0.500000 0.249928
O O16 0.656727 0.000000 0.000000
#
# Coordination Sequence:
#
# PCOD9517208 Si02
#       7
#    16  16   4  16   8  16   8
#     4  10  19  32  52  82 120 155 184 219 264 330
#     4   8  13  24  45  69  96 140 192 232 264 296
#     4  10  13  20  48  84 108 132 175 230 283 330
#     4   9  15  27  51  79 106 136 174 228 288 337
#     4  12  24  37  55  77 106 147 194 236 277 328
#     4   9  16  26  45  79 120 154 180 208 265 347
#     4   9  21  39  58  77  98 132 186 248 298 332
#
# _framework density 20.302416000000001
#
# number of rings (size 3 to 8) (size 9 to 14) (size 15 to 20)
#    0.000    2.667    1.905    2.857    0.000    1.714 
#    0.000    0.952    8.381    1.143    0.000    5.333 
#    0.000    0.000    0.000    0.000    0.000    0.000 
#
# Total GULP energy -234168.669792 kJ/mol
# GULP energy per Si atom -5575.444519 kJ/mol
# Density = 2.025621 g / cm^3
# Si number density = 20.302416 Si / 1000 Ang^3
#
#
#
# Elastic Constant Matrix: (Units=GPa)
#
#
# Indices 1 2 3 4 5 6 
#
# 1 138.0477 11.7767 76.1308 0.0000 0.0000 0.0000
# 2 11.7767 47.5493 3.0488 0.0000 0.0000 0.0000
# 3 76.1308 3.0488 173.5748 0.0000 0.0000 0.0000
# 4 0.0000 0.0000 0.0000 13.3728 0.0000 0.0000
# 5 0.0000 0.0000 0.0000 0.0000 -103.3884 0.0000
# 6 0.0000 0.0000 0.0000 0.0000 0.0000 15.7571
#
#
#
# Elastic Compliance Matrix: (Units=1/GPa)
#
#
# Indices 1 2 3 4 5 6 
#
# 1 0.009769 -0.002147 -0.004247 0.000000 0.000000 0.000000
# 2 -0.002147 0.021526 0.000564 0.000000 0.000000 0.000000
# 3 -0.004247 0.000564 0.007614 0.000000 0.000000 0.000000
# 4 0.000000 0.000000 0.000000 0.074779 0.000000 0.000000
# 5 0.000000 0.000000 0.000000 0.000000 -0.009672 0.000000
# 6 0.000000 0.000000 0.000000 0.000000 0.000000 0.063464
#
#
# Mechanical properties :
#
#
# Convention : Reuss Voigt Hill
#
# Bulk Modulus (GPa) = 36.69932 60.12048 48.40990
# Shear Modulus (GPa) = 26.56410 3.02933 14.79671
#
# Velocity S-wave (km/s) = 3.62113 1.22284 2.70259
# Velocity P-wave (km/s) = 5.96649 5.62766 5.79955
#
# Compressibility (1/GPa) = 0.02724846
#
# Stress axis : x y z
#
# Youngs Moduli (GPa) = 102.36175 46.45442 131.33486
#
# Poissons Ratio (x) = 0.09975 0.55780
# Poissons Ratio (y) = 0.21980 -0.07403
# Poissons Ratio (z) = 0.43474 -0.02619
#
# Static dielectric constant tensor:
#      x y z
#    x 1.709000 0.000000 0.000000 
#    y 0.000000 1.824930 0.000000 
#    z 0.000000 0.000000 1.682110 
# 
# From -- ./inp_files/52943.got.cif
#   From: 2010.05.17/outbox.cif.g08.bks.cpg/sg71_27_cif.got.tgz:52943.got - 2010.06.03 16:22:01.
