data_PCOD9517199
_publ_section_title
;
Structure prediction by ZEFSAII (Michael W. Deem and Ramdas Pophale) SiO2 
 PCOD9517199
Probable space group: F D D D
;
_chemical_formula_sum "Si O2"
_cell_formula_units_Z 44
_cell_length_a 27.000000
_cell_length_b 27.000000
_cell_length_c 12.000000
_cell_angle_alpha 90.000000
_cell_angle_beta 90.000000
_cell_angle_gamma 90.000000
_cell_volume 8748.000000
_symmetry_space_group_name_H-M "F D D D"
_symmetry_group_IT_number 70
_space_group.IT_coordinate_system_code '2'
_symmetry_cell_setting 'orthorhombic'
loop_
_space_group_symop_operation_xyz
x,y,z
1/4-x,1/4-y,z
x,1/4-y,1/4-z
1/4-x,y,1/4-z
-x,-y,-z
3/4+x,3/4+y,-z
-x,3/4+y,3/4+z
3/4+x,-y,3/4+z
x,1/2+y,1/2+z
1/4-x,3/4-y,1/2+z
x,3/4-y,3/4-z
1/4-x,1/2+y,3/4-z
-x,1/2-y,1/2-z
3/4+x,1/4+y,1/2-z
-x,1/4+y,1/4+z
3/4+x,1/2-y,1/4+z
1/2+x,y,1/2+z
3/4-x,1/4-y,1/2+z
1/2+x,1/4-y,3/4-z
3/4-x,y,3/4-z
1/2-x,-y,1/2-z
1/4+x,3/4+y,1/2-z
1/2-x,3/4+y,1/4+z
1/4+x,-y,1/4+z
1/2+x,1/2+y,z
3/4-x,3/4-y,z
1/2+x,3/4-y,1/4-z
3/4-x,1/2+y,1/4-z
1/2-x,1/2-y,-z
1/4+x,1/4+y,-z
1/2-x,1/4+y,3/4+z
1/4+x,1/2-y,3/4+z
loop_
_atom_site_type_symbol
_atom_site_label
_atom_site_fract_x
_atom_site_fract_y
_atom_site_fract_z
Si Si1 0.823656 0.686082 0.422403
Si Si2 0.275307 0.389723 0.246035
Si Si3 0.236982 0.975645 0.472555
Si Si4 0.816486 0.441559 0.167018
Si Si5 0.075994 0.234063 0.864094
Si Si6 0.278252 0.375000 0.875000
O O1 0.875000 0.665051 0.375000
O O2 0.780812 0.646552 0.450788
O O3 0.802741 0.721619 0.323279
O O4 0.832047 0.718393 0.534394
O O5 0.275116 0.375000 0.375000
O O6 0.305224 0.348166 0.179335
O O7 0.300986 0.441872 0.214291
O O8 0.287595 0.993263 0.534085
O O9 0.246848 0.918710 0.434364
O O10 0.218585 0.011689 0.372580
O O11 0.872229 0.462730 0.160532
O O12 0.806737 0.408929 0.280537
#
# Coordination Sequence:
#
# PCOD9517199 Si02
#       6
#    32  32  32  32  32  16
#     4  11  21  43  67  98 141 183 231 293 353 432
#     4  11  23  40  67 107 138 175 236 303 356 418
#     4  11  24  45  68  98 140 185 236 293 356 429
#     4  12  24  44  71 104 140 190 234 292 368 431
#     4  11  23  40  71 102 136 184 236 300 364 425
#     4  12  26  47  68 100 148 180 232 288 353 440
#
# _framework density 5.0297210000000003
#
# number of rings (size 3 to 8) (size 9 to 14) (size 15 to 20)
#    0.000    0.727    5.455    5.455    0.000    2.182 
#    1.636    0.000    0.000    0.000    0.000    0.000 
#    0.000    0.000    0.000    0.000    0.000    0.000 
#
# Total GULP energy -245783.925643 kJ/mol
# GULP energy per Si atom -5585.998310 kJ/mol
# Density = 0.501827 g / cm^3
# Si number density = 5.029721 Si / 1000 Ang^3
#
#
#
# Elastic Constant Matrix: (Units=GPa)
#
#
# Indices 1 2 3 4 5 6 
#
# 1 127.4580 6.6490 42.4879 0.0000 0.0000 0.0000
# 2 6.6490 23.9953 11.3873 -0.0001 0.0001 0.0000
# 3 42.4879 11.3873 120.2669 -0.0004 0.0003 0.0000
# 4 0.0000 -0.0001 -0.0004 41.5278 0.0001 0.0000
# 5 0.0000 0.0001 0.0003 0.0001 25.9589 0.0000
# 6 0.0000 0.0000 0.0000 0.0000 0.0000 30.3848
#
#
#
# Elastic Compliance Matrix: (Units=1/GPa)
#
#
# Indices 1 2 3 4 5 6 
#
# 1 0.008917 -0.001022 -0.003053 0.000000 0.000000 0.000000
# 2 -0.001022 0.043753 -0.003782 0.000000 0.000000 0.000000
# 3 -0.003053 -0.003782 0.009752 0.000000 0.000000 0.000000
# 4 0.000000 0.000000 0.000000 0.024080 0.000000 0.000000
# 5 0.000000 0.000000 0.000000 0.000000 0.038522 0.000000
# 6 0.000000 0.000000 0.000000 0.000000 0.000000 0.032911
#
#
# Mechanical properties :
#
#
# Convention : Reuss Voigt Hill
#
# Bulk Modulus (GPa) = 21.40990 43.64096 32.52543
# Shear Modulus (GPa) = 26.42456 33.65403 30.03929
#
# Velocity S-wave (km/s) = 3.62805 4.09437 3.86824
# Velocity P-wave (km/s) = 5.31179 6.64007 6.01272
#
# Compressibility (1/GPa) = 0.04670736
#
# Stress axis : x y z
#
# Youngs Moduli (GPa) = 112.14698 22.85575 102.54718
#
# Poissons Ratio (x) = 0.02335 0.31312
# Poissons Ratio (y) = 0.11459 0.38780
# Poissons Ratio (z) = 0.34243 0.08643
#
# Static dielectric constant tensor:
#      x y z
#    x 1.738410 0.000000 0.000000 
#    y 0.000000 1.710970 0.000000 
#    z 0.000000 0.000000 1.728500 
# 
# From -- ./inp_files/20994.got.cif
#   From: 2010.05.17/outbox.ucp.g08.bks.cvg/sg70_11_cif.got.tgz:20994.got - 2010.06.11 16:26:41.
