data_PCOD9517916
_publ_section_title
;
Structure prediction by ZEFSAII (Michael W. Deem and Ramdas Pophale) SiO2 
 PCOD9517916
Probable space group: I M M M
;
_chemical_formula_sum "Si O2"
_cell_formula_units_Z 104
_cell_length_a 7.395842
_cell_length_b 27.194948
_cell_length_c 24.171679
_cell_angle_alpha 90.000000
_cell_angle_beta 90.000000
_cell_angle_gamma 90.000000
_cell_volume 4861.638645
_symmetry_space_group_name_H-M "I M M M"
_symmetry_group_IT_number 71
_symmetry_cell_setting 'orthorhombic'
loop_
_space_group_symop_operation_xyz
x,y,z
-x,-y,z
x,-y,-z
-x,y,-z
-x,-y,-z
x,y,-z
-x,y,z
x,-y,z
1/2+x,1/2+y,1/2+z
1/2-x,1/2-y,1/2+z
1/2+x,1/2-y,1/2-z
1/2-x,1/2+y,1/2-z
1/2-x,1/2-y,1/2-z
1/2+x,1/2+y,1/2-z
1/2-x,1/2+y,1/2+z
1/2+x,1/2-y,1/2+z
loop_
_atom_site_type_symbol
_atom_site_label
_atom_site_fract_x
_atom_site_fract_y
_atom_site_fract_z
Si Si1 0.778405 0.442810 0.237748
Si Si2 0.721650 0.000000 0.937422
Si Si3 0.298810 0.134503 0.647424
Si Si4 0.212825 0.413267 0.359910
Si Si5 0.716964 0.325793 0.438902
Si Si6 0.282593 0.446300 0.935453
Si Si7 0.720914 0.211956 0.437722
O O1 0.723163 0.500000 0.227973
O O2 0.716286 0.400595 0.194736
O O3 0.718536 0.425100 0.298663
O O4 0.000000 0.443078 0.234554
O O5 0.783893 0.952342 0.904111
O O6 0.500000 0.000000 0.938581
O O7 0.783504 0.000000 0.000000
O O8 0.500000 0.149266 0.666989
O O9 0.310080 0.096487 0.596959
O O10 0.214220 0.181019 0.615434
O O11 0.232931 0.360134 0.387703
O O12 0.000000 0.422858 0.355079
O O13 0.780585 0.343810 0.500000
O O14 0.500000 0.325438 0.440762
O O15 0.773924 0.269072 0.433027
O O16 0.500000 0.441634 0.930147
O O17 0.230659 0.500000 0.913489
O O18 0.239954 0.444643 0.000000
O O19 0.775863 0.194632 0.500000
O O20 0.500000 0.209395 0.436939
#
# Coordination Sequence:
#
# PCOD9517916 Si02
#       7
#    16   8  16  16  16  16  16
#     4   9  17  30  47  70 100 130 157 195 247 286
#     4   9  16  26  45  71  93 117 152 191 230 280
#     4  10  18  29  50  74  92 119 167 211 235 272
#     4  10  18  31  50  71  97 127 160 195 233 286
#     4   9  18  33  51  70  96 127 155 191 244 295
#     4   9  18  31  44  62  94 130 157 191 249 306
#     4   8  15  29  48  70  96 125 156 195 246 293
#
# _framework density 21.391964000000002
#
# number of rings (size 3 to 8) (size 9 to 14) (size 15 to 20)
#    0.000    2.846    0.769    2.769    0.000    2.769 
#    0.000    3.462    0.000    3.231    0.000    0.000 
#    0.000    0.000    0.000    0.000    0.000    0.000 
#
# Total GULP energy -289937.838448 kJ/mol
# GULP energy per Si atom -5575.727662 kJ/mol
# Density = 2.134327 g / cm^3
# Si number density = 21.391964 Si / 1000 Ang^3
#
#
#
# Elastic Constant Matrix: (Units=GPa)
#
#
# Indices 1 2 3 4 5 6 
#
# 1 66.0426 -3.3709 5.1440 0.0000 0.0000 0.0000
# 2 -3.3709 105.2639 80.7699 0.0000 0.0000 0.0000
# 3 5.1440 80.7699 153.8628 0.0000 0.0000 0.0000
# 4 0.0000 0.0000 0.0000 35.5090 0.0000 0.0000
# 5 0.0000 0.0000 0.0000 0.0000 -15.6129 0.0000
# 6 0.0000 0.0000 0.0000 0.0000 0.0000 8.6711
#
#
#
# Elastic Compliance Matrix: (Units=1/GPa)
#
#
# Indices 1 2 3 4 5 6 
#
# 1 0.015318 0.001479 -0.001289 0.000000 0.000000 0.000000
# 2 0.001479 0.016050 -0.008475 0.000000 0.000000 0.000000
# 3 -0.001289 -0.008475 0.010991 0.000000 0.000000 0.000000
# 4 0.000000 0.000000 0.000000 0.028162 0.000000 0.000000
# 5 0.000000 0.000000 0.000000 0.000000 -0.064050 0.000000
# 6 0.000000 0.000000 0.000000 0.000000 0.000000 0.115326
#
#
# Mechanical properties :
#
#
# Convention : Reuss Voigt Hill
#
# Bulk Modulus (GPa) = 38.77397 54.47282 46.62339
# Shear Modulus (GPa) = 34.02228 21.88853 27.95540
#
# Velocity S-wave (km/s) = 3.99234 3.20224 3.61892
# Velocity P-wave (km/s) = 6.27826 6.26034 6.26931
#
# Compressibility (1/GPa) = 0.02579050
#
# Stress axis : x y z
#
# Youngs Moduli (GPa) = 65.28426 62.30442 90.98105
#
# Poissons Ratio (x) = -0.09217 0.11725
# Poissons Ratio (y) = -0.09658 0.77106
# Poissons Ratio (z) = 0.08413 0.52803
#
# Static dielectric constant tensor:
#      x y z
#    x 1.837070 0.000000 0.000000 
#    y 0.000000 1.777220 0.000000 
#    z 0.000000 0.000000 1.780540 
# 
# From -- ./inp_files/57982.got.cif
#   From: 2010.05.17/outbox.cif.g08.bks.cpg/sg71_29_cif.got.tgz:57982.got - 2010.06.03 16:22:01.
