data_PCOD9517397
_publ_section_title
;
Structure prediction by ZEFSAII (Michael W. Deem and Ramdas Pophale) SiO2 
 PCOD9517397
Probable space group: I M M M
;
_chemical_formula_sum "Si O2"
_cell_formula_units_Z 128
_cell_length_a 16.400399
_cell_length_b 25.809775
_cell_length_c 18.277974
_cell_angle_alpha 90.000000
_cell_angle_beta 90.000000
_cell_angle_gamma 90.000000
_cell_volume 7736.894729
_symmetry_space_group_name_H-M "I M M M"
_symmetry_group_IT_number 71
_symmetry_cell_setting 'orthorhombic'
loop_
_space_group_symop_operation_xyz
x,y,z
-x,-y,z
x,-y,-z
-x,y,-z
-x,-y,-z
x,y,-z
-x,y,z
x,-y,z
1/2+x,1/2+y,1/2+z
1/2-x,1/2-y,1/2+z
1/2+x,1/2-y,1/2-z
1/2-x,1/2+y,1/2-z
1/2-x,1/2-y,1/2-z
1/2+x,1/2+y,1/2-z
1/2-x,1/2+y,1/2+z
1/2+x,1/2-y,1/2+z
loop_
_atom_site_type_symbol
_atom_site_label
_atom_site_fract_x
_atom_site_fract_y
_atom_site_fract_z
Si Si1 0.406322 0.318265 0.236380
Si Si2 0.265836 0.938196 0.657948
Si Si3 0.339210 0.222063 0.679160
Si Si4 0.408835 0.437383 0.914017
Si Si5 0.272799 0.800138 0.915715
Si Si6 0.250424 0.137698 0.218199
Si Si7 0.593045 0.128935 0.586353
Si Si8 0.596816 0.716481 0.921017
O O1 0.500000 0.331789 0.243417
O O2 0.390886 0.261476 0.271235
O O3 0.346842 0.357042 0.277432
O O4 0.382312 0.315407 0.150968
O O5 0.175209 0.923970 0.627408
O O6 0.275344 0.913514 0.738755
O O7 0.337016 0.911424 0.610394
O O8 0.273134 0.000000 0.656909
O O9 0.286156 0.258374 0.624896
O O10 0.284666 0.186378 0.733264
O O11 0.390326 0.181573 0.631324
O O12 0.500000 0.418065 0.889952
O O13 0.412655 0.500000 0.909493
O O14 0.401379 0.424277 0.000000
O O15 0.275684 0.850478 0.864437
O O16 0.359739 0.771636 0.915314
O O17 0.248676 0.808781 0.000000
O O18 0.600532 0.138902 0.500000
O O19 0.500000 0.110997 0.600878
O O20 0.500000 0.721859 0.920680
O O21 0.622611 0.694146 0.000000
#
# Coordination Sequence:
#
# PCOD9517397 Si02
#       8
#    16  16  16  16  16  16  16  16
#     4  10  17  28  46  67  97 129 152 186 232 280
#     4  10  21  35  51  67  91 127 163 207 253 284
#     4  10  17  31  45  71  96 130 155 192 226 288
#     4   8  14  27  48  71  91 112 143 184 233 291
#     4  10  17  29  49  69  94 127 156 191 236 285
#     4  10  19  32  45  68  94 119 162 197 229 284
#     4  10  21  34  49  70  96 128 168 208 241 280
#     4   9  16  25  40  66  97 126 154 182 220 276
#
# _framework density 16.544104000000001
#
# number of rings (size 3 to 8) (size 9 to 14) (size 15 to 20)
#    0.000    2.375    2.500    2.250    0.000    1.500 
#    0.000    1.250    0.000    5.250    0.000    0.000 
#    0.000    0.000    0.000   14.000    0.000    0.000 
#
# Total GULP energy -356666.998344 kJ/mol
# GULP energy per Si atom -5572.921849 kJ/mol
# Density = 1.650645 g / cm^3
# Si number density = 16.544104 Si / 1000 Ang^3
#
#
#
# Elastic Constant Matrix: (Units=GPa)
#
#
# Indices 1 2 3 4 5 6 
#
# 1 63.9888 29.4602 27.5867 0.0000 0.0000 0.0000
# 2 29.4602 66.2671 34.9904 -0.0001 0.0000 0.0000
# 3 27.5867 34.9904 100.1990 -0.0002 0.0000 0.0000
# 4 0.0000 -0.0001 -0.0002 13.9296 0.0000 0.0000
# 5 0.0000 0.0000 0.0000 0.0000 20.3742 0.0000
# 6 0.0000 0.0000 0.0000 0.0000 0.0000 14.8375
#
#
#
# Elastic Compliance Matrix: (Units=1/GPa)
#
#
# Indices 1 2 3 4 5 6 
#
# 1 0.020358 -0.007468 -0.002997 0.000000 0.000000 0.000000
# 2 -0.007468 0.021242 -0.005362 0.000000 0.000000 0.000000
# 3 -0.002997 -0.005362 0.012678 0.000000 0.000000 0.000000
# 4 0.000000 0.000000 0.000000 0.071790 0.000000 0.000000
# 5 0.000000 0.000000 0.000000 0.000000 0.049082 0.000000
# 6 0.000000 0.000000 0.000000 0.000000 0.000000 0.067397
#
#
# Mechanical properties :
#
#
# Convention : Reuss Voigt Hill
#
# Bulk Modulus (GPa) = 44.20133 46.05885 45.13009
# Shear Modulus (GPa) = 17.74685 19.05610 18.40147
#
# Velocity S-wave (km/s) = 3.27876 3.39755 3.33869
# Velocity P-wave (km/s) = 6.41163 6.57964 6.49618
#
# Compressibility (1/GPa) = 0.02262376
#
# Stress axis : x y z
#
# Youngs Moduli (GPa) = 49.12055 47.07755 78.87916
#
# Poissons Ratio (x) = 0.35158 0.23641
# Poissons Ratio (y) = 0.36683 0.42292
# Poissons Ratio (z) = 0.14722 0.25241
#
# Static dielectric constant tensor:
#      x y z
#    x 1.585390 0.000000 0.000000 
#    y 0.000000 1.559090 0.000000 
#    z 0.000000 0.000000 1.582980 
# 
# From -- ./inp_files/46638.got.cif
#   From: 2010.05.17/outbox.cif.g08.bks.cpg/sg71_24_cif.got.tgz:46638.got - 2010.06.03 16:22:01.
