data_PCOD9517801
_publ_section_title
;
Structure prediction by ZEFSAII (Michael W. Deem and Ramdas Pophale) SiO2 
 PCOD9517801
Probable space group: I M M M
;
_chemical_formula_sum "Si O2"
_cell_formula_units_Z 88
_cell_length_a 7.562649
_cell_length_b 20.123336
_cell_length_c 30.749115
_cell_angle_alpha 90.000000
_cell_angle_beta 90.000000
_cell_angle_gamma 90.000000
_cell_volume 4679.576417
_symmetry_space_group_name_H-M "I M M M"
_symmetry_group_IT_number 71
_symmetry_cell_setting 'orthorhombic'
loop_
_space_group_symop_operation_xyz
x,y,z
-x,-y,z
x,-y,-z
-x,y,-z
-x,-y,-z
x,y,-z
-x,y,z
x,-y,z
1/2+x,1/2+y,1/2+z
1/2-x,1/2-y,1/2+z
1/2+x,1/2-y,1/2-z
1/2-x,1/2+y,1/2-z
1/2-x,1/2-y,1/2-z
1/2+x,1/2+y,1/2-z
1/2-x,1/2+y,1/2+z
1/2+x,1/2-y,1/2+z
loop_
_atom_site_type_symbol
_atom_site_label
_atom_site_fract_x
_atom_site_fract_y
_atom_site_fract_z
Si Si1 0.500000 0.424438 0.052879
Si Si2 0.290236 0.181548 0.448544
Si Si3 0.712128 0.790168 0.706066
Si Si4 0.288744 0.713339 0.378561
Si Si5 0.711465 0.926353 0.156415
Si Si6 0.783970 0.574722 0.756168
O O1 0.500000 0.500000 0.069164
O O2 0.672335 0.381471 0.065096
O O3 0.500000 0.427688 0.000000
O O4 0.263987 0.192533 0.500000
O O5 0.500000 0.169401 0.441542
O O6 0.232345 0.245662 0.420855
O O7 0.500000 0.793696 0.701378
O O8 0.750000 0.750000 0.750000
O O9 0.782689 0.750956 0.664342
O O10 0.777313 0.865267 0.713531
O O11 0.500000 0.718635 0.377561
O O12 0.251140 0.635448 0.374336
O O13 0.500000 0.930125 0.159021
O O14 0.773178 0.912702 0.206054
O O15 0.776466 0.000000 0.143574
O O16 0.729409 0.500000 0.768166
O O17 0.000000 0.575541 0.756207
#
# Coordination Sequence:
#
# PCOD9517801 Si02
#       6
#     8  16  16  16  16  16
#     4   9  18  34  58  86 109 137 179 217 262 324
#     4   9  19  36  55  79 111 142 176 222 269 312
#     4  10  18  29  45  69  96 123 163 205 246 302
#     4  10  20  31  48  76 101 131 172 211 258 313
#     4   9  17  29  47  70  93 126 170 206 246 302
#     4   8  14  26  43  62  88 124 161 197 241 293
#
# _framework density 18.805119999999999
#
# number of rings (size 3 to 8) (size 9 to 14) (size 15 to 20)
#    0.000    2.818    1.818    1.091    1.273    0.727 
#    0.000    2.727    0.000    4.364    0.000    3.818 
#    0.000    0.000    0.000    0.000    0.000    0.000 
#
# Total GULP energy -245254.884799 kJ/mol
# GULP energy per Si atom -5573.974655 kJ/mol
# Density = 1.876232 g / cm^3
# Si number density = 18.805120 Si / 1000 Ang^3
#
#
#
# Elastic Constant Matrix: (Units=GPa)
#
#
# Indices 1 2 3 4 5 6 
#
# 1 51.5730 28.4433 23.4467 0.0000 0.0000 0.0000
# 2 28.4433 187.6798 60.5857 0.0000 0.0000 0.0000
# 3 23.4467 60.5857 54.1451 0.0000 0.0000 0.0000
# 4 0.0000 0.0000 0.0000 28.4329 0.0000 0.0000
# 5 0.0000 0.0000 0.0000 0.0000 8.7811 0.0000
# 6 0.0000 0.0000 0.0000 0.0000 0.0000 17.7536
#
#
#
# Elastic Compliance Matrix: (Units=1/GPa)
#
#
# Indices 1 2 3 4 5 6 
#
# 1 0.024167 -0.000445 -0.009967 0.000000 0.000000 0.000000
# 2 -0.000445 0.008349 -0.009150 0.000000 0.000000 0.000000
# 3 -0.009967 -0.009150 0.033023 0.000000 0.000000 0.000000
# 4 0.000000 0.000000 0.000000 0.035171 0.000000 0.000000
# 5 0.000000 0.000000 0.000000 0.000000 0.113881 0.000000
# 6 0.000000 0.000000 0.000000 0.000000 0.000000 0.056327
#
#
# Mechanical properties :
#
#
# Convention : Reuss Voigt Hill
#
# Bulk Modulus (GPa) = 37.85663 57.59438 47.72550
# Shear Modulus (GPa) = 15.68152 23.05500 19.36826
#
# Velocity S-wave (km/s) = 2.89086 3.50522 3.21276
# Velocity P-wave (km/s) = 5.59620 6.86116 6.26071
#
# Compressibility (1/GPa) = 0.02641545
#
# Stress axis : x y z
#
# Youngs Moduli (GPa) = 41.37919 119.76979 30.28180
#
# Poissons Ratio (x) = 0.05330 0.30182
# Poissons Ratio (y) = 0.01841 0.27707
# Poissons Ratio (z) = 0.41243 1.09587
#
# Static dielectric constant tensor:
#      x y z
#    x 1.705050 0.000000 0.000000 
#    y 0.000000 1.693560 0.000000 
#    z 0.000000 0.000000 1.636190 
# 
# From -- ./inp_files/67993.got.cif
#   From: 2010.05.17/outbox.cif.g08.bks.cpg/sg71_34_cif.got.tgz:67993.got - 2010.06.03 16:22:01.
