data_PCOD9517345
_publ_section_title
;
Structure prediction by ZEFSAII (Michael W. Deem and Ramdas Pophale) SiO2 
 PCOD9517345
Probable space group: I M M M
;
_chemical_formula_sum "Si O2"
_cell_formula_units_Z 104
_cell_length_a 8.942465
_cell_length_b 20.711425
_cell_length_c 31.959550
_cell_angle_alpha 90.000000
_cell_angle_beta 90.000000
_cell_angle_gamma 90.000000
_cell_volume 5919.266388
_symmetry_space_group_name_H-M "I M M M"
_symmetry_group_IT_number 71
_symmetry_cell_setting 'orthorhombic'
loop_
_space_group_symop_operation_xyz
x,y,z
-x,-y,z
x,-y,-z
-x,y,-z
-x,-y,-z
x,y,-z
-x,y,z
x,-y,z
1/2+x,1/2+y,1/2+z
1/2-x,1/2-y,1/2+z
1/2+x,1/2-y,1/2-z
1/2-x,1/2+y,1/2-z
1/2-x,1/2-y,1/2-z
1/2+x,1/2+y,1/2-z
1/2-x,1/2+y,1/2+z
1/2+x,1/2-y,1/2+z
loop_
_atom_site_type_symbol
_atom_site_label
_atom_site_fract_x
_atom_site_fract_y
_atom_site_fract_z
Si Si1 0.827757 0.423241 0.000000
Si Si2 0.677885 0.392106 0.592604
Si Si3 0.670555 0.658717 0.069373
Si Si4 0.819879 0.571063 0.680437
Si Si5 0.161243 0.268986 0.500000
Si Si6 0.678243 0.207365 0.786414
Si Si7 0.324055 0.396060 0.500000
Si Si8 0.324625 0.250783 0.371658
O O1 0.744785 0.396102 0.959017
O O2 0.826046 0.500000 0.000000
O O3 0.000000 0.400024 0.000000
O O4 0.500000 0.405396 0.594703
O O5 0.756512 0.421266 0.633372
O O6 0.732886 0.415051 0.546547
O O7 0.696493 0.314527 0.599029
O O8 0.500000 0.642666 0.081348
O O9 0.771292 0.685030 0.106754
O O10 0.664004 0.720840 0.038858
O O11 0.777115 0.500000 0.696439
O O12 0.771428 0.632157 0.708651
O O13 0.000000 0.574226 0.677803
O O14 0.294835 0.319162 0.500000
O O15 0.000000 0.304520 0.500000
O O16 0.500000 0.208117 0.781528
O O17 0.750000 0.250000 0.750000
O O18 0.726796 0.237301 0.830683
O O19 0.500000 0.411014 0.500000
O O20 0.500000 0.248581 0.361255
#
# Coordination Sequence:
#
# PCOD9517345 Si02
#       8
#     8  16  16  16   8  16   8  16
#     4  10  21  35  50  69  96 135 181 223 264 315
#     4   9  18  29  45  71 101 135 173 213 254 294
#     4  10  19  30  46  71  99 130 169 214 262 311
#     4   9  19  36  56  76 101 137 176 212 253 306
#     4   9  17  25  38  63  94 125 162 203 247 295
#     4  10  20  35  56  82 111 135 165 213 266 322
#     4  10  17  27  41  63  97 133 169 211 253 289
#     4  10  18  30  50  75 103 134 167 206 257 312
#
# _framework density 17.569745000000001
#
# number of rings (size 3 to 8) (size 9 to 14) (size 15 to 20)
#    0.000    2.385    1.538    2.077    0.000    4.000 
#    0.000    0.385    0.000    3.231    0.000    2.154 
#    0.000    0.000    0.000    0.000    0.000    0.000 
#
# Total GULP energy -289606.218703 kJ/mol
# GULP energy per Si atom -5569.350360 kJ/mol
# Density = 1.752976 g / cm^3
# Si number density = 17.569745 Si / 1000 Ang^3
#
#
#
# Elastic Constant Matrix: (Units=GPa)
#
#
# Indices 1 2 3 4 5 6 
#
# 1 38.5969 28.0187 15.9209 0.0000 0.0000 0.0000
# 2 28.0187 89.2298 40.5486 0.0000 0.0000 0.0000
# 3 15.9209 40.5486 77.8369 0.0000 0.0000 0.0000
# 4 0.0000 0.0000 0.0000 12.4774 0.0000 0.0000
# 5 0.0000 0.0000 0.0000 0.0000 26.5989 0.0000
# 6 0.0000 0.0000 0.0000 0.0000 0.0000 17.3973
#
#
#
# Elastic Compliance Matrix: (Units=1/GPa)
#
#
# Indices 1 2 3 4 5 6 
#
# 1 0.033752 -0.009775 -0.001811 0.000000 0.000000 0.000000
# 2 -0.009775 0.017514 -0.007124 0.000000 0.000000 0.000000
# 3 -0.001811 -0.007124 0.016929 0.000000 0.000000 0.000000
# 4 0.000000 0.000000 0.000000 0.080145 0.000000 0.000000
# 5 0.000000 0.000000 0.000000 0.000000 0.037596 0.000000
# 6 0.000000 0.000000 0.000000 0.000000 0.000000 0.057480
#
#
# Mechanical properties :
#
#
# Convention : Reuss Voigt Hill
#
# Bulk Modulus (GPa) = 32.49553 41.62667 37.06110
# Shear Modulus (GPa) = 17.17647 19.37308 18.27477
#
# Velocity S-wave (km/s) = 3.13008 3.32420 3.22860
# Velocity P-wave (km/s) = 5.62125 6.20302 5.91929
#
# Compressibility (1/GPa) = 0.03077346
#
# Stress axis : x y z
#
# Youngs Moduli (GPa) = 29.62773 57.09722 59.06933
#
# Poissons Ratio (x) = 0.55814 0.10700
# Poissons Ratio (y) = 0.28962 0.42083
# Poissons Ratio (z) = 0.05367 0.40678
#
# Static dielectric constant tensor:
#      x y z
#    x 1.614710 0.000000 0.000000 
#    y 0.000000 1.615540 0.000000 
#    z 0.000000 0.000000 1.612810 
# 
# From -- ./inp_files/68302.got.cif
#   From: 2010.05.17/outbox.cif.g08.bks.cpg/sg71_35_cif.got.tgz:68302.got - 2010.06.03 16:22:01.
