data_PCOD9517392
_publ_section_title
;
Structure prediction by ZEFSAII (Michael W. Deem and Ramdas Pophale) SiO2 
 PCOD9517392
Probable space group: I M M M
;
_chemical_formula_sum "Si O2"
_cell_formula_units_Z 56
_cell_length_a 23.658908
_cell_length_b 18.790826
_cell_length_c 7.984221
_cell_angle_alpha 90.000000
_cell_angle_beta 90.000000
_cell_angle_gamma 90.000000
_cell_volume 3549.548512
_symmetry_space_group_name_H-M "I M M M"
_symmetry_group_IT_number 71
_symmetry_cell_setting 'orthorhombic'
loop_
_space_group_symop_operation_xyz
x,y,z
-x,-y,z
x,-y,-z
-x,y,-z
-x,-y,-z
x,y,-z
-x,y,z
x,-y,z
1/2+x,1/2+y,1/2+z
1/2-x,1/2-y,1/2+z
1/2+x,1/2-y,1/2-z
1/2-x,1/2+y,1/2-z
1/2-x,1/2-y,1/2-z
1/2+x,1/2+y,1/2-z
1/2-x,1/2+y,1/2+z
1/2+x,1/2-y,1/2+z
loop_
_atom_site_type_symbol
_atom_site_label
_atom_site_fract_x
_atom_site_fract_y
_atom_site_fract_z
Si Si1 0.567543 0.583300 0.000000
Si Si2 0.367358 0.648686 0.312198
Si Si3 0.749178 0.917681 0.699793
Si Si4 0.810265 0.284049 0.301260
O O1 0.593245 0.619533 0.165318
O O2 0.584117 0.500000 0.000000
O O3 0.500000 0.588233 0.000000
O O4 0.387979 0.634927 0.500000
O O5 0.306355 0.610169 0.287822
O O6 0.355600 0.732860 0.285626
O O7 0.758604 0.911152 0.500000
O O8 0.697687 0.865758 0.748807
O O9 0.739290 0.000000 0.740658
O O10 0.817215 0.278288 0.500000
O O11 0.750000 0.250000 0.250000
#
# Coordination Sequence:
#
# PCOD9517392 Si02
#       4
#     8  16  16  16
#     4  11  24  40  54  72  97 125 169 219 253 286
#     4  11  20  34  53  70  96 132 169 203 249 296
#     4  10  18  28  44  71 106 136 165 200 239 290
#     4  10  17  28  45  68  97 129 166 201 235 291
#
# _framework density 15.776654000000001
#
# number of rings (size 3 to 8) (size 9 to 14) (size 15 to 20)
#    0.000    1.571    2.857    7.714    0.000    4.571 
#    0.000    1.429    0.000    0.000    0.000    0.000 
#    0.000    2.286    0.000    6.000    0.000    0.000 
#
# Total GULP energy -156187.553266 kJ/mol
# GULP energy per Si atom -5578.126902 kJ/mol
# Density = 1.574075 g / cm^3
# Si number density = 15.776654 Si / 1000 Ang^3
#
#
#
# Elastic Constant Matrix: (Units=GPa)
#
#
# Indices 1 2 3 4 5 6 
#
# 1 35.4105 25.6739 26.0487 0.0000 0.0000 0.0000
# 2 25.6739 116.2777 36.3971 0.0000 0.0000 0.0000
# 3 26.0487 36.3971 129.5362 0.0000 0.0000 0.0000
# 4 0.0000 0.0000 0.0000 24.0754 0.0000 0.0000
# 5 0.0000 0.0000 0.0000 0.0000 5.7505 0.0000
# 6 0.0000 0.0000 0.0000 0.0000 0.0000 19.6012
#
#
#
# Elastic Compliance Matrix: (Units=1/GPa)
#
#
# Indices 1 2 3 4 5 6 
#
# 1 0.037043 -0.006411 -0.005648 0.000000 0.000000 0.000000
# 2 -0.006411 0.010539 -0.001672 0.000000 0.000000 0.000000
# 3 -0.005648 -0.001672 0.009325 0.000000 0.000000 0.000000
# 4 0.000000 0.000000 0.000000 0.041536 0.000000 0.000000
# 5 0.000000 0.000000 0.000000 0.000000 0.173898 0.000000
# 6 0.000000 0.000000 0.000000 0.000000 0.000000 0.051017
#
#
# Mechanical properties :
#
#
# Convention : Reuss Voigt Hill
#
# Bulk Modulus (GPa) = 33.96081 50.82932 42.39506
# Shear Modulus (GPa) = 13.86441 22.75907 18.31174
#
# Velocity S-wave (km/s) = 2.96766 3.80225 3.41058
# Velocity P-wave (km/s) = 5.77195 7.18082 6.51458
#
# Compressibility (1/GPa) = 0.02944571
#
# Stress axis : x y z
#
# Youngs Moduli (GPa) = 26.99562 94.88509 107.23462
#
# Poissons Ratio (x) = 0.60833 0.60562
# Poissons Ratio (y) = 0.17308 0.17930
# Poissons Ratio (z) = 0.15246 0.15865
#
# Static dielectric constant tensor:
#      x y z
#    x 1.487330 0.000000 0.000000 
#    y 0.000000 1.547700 0.000000 
#    z 0.000000 0.000000 1.540480 
# 
# From -- ./inp_files/9468.got.cif
#   From: 2010.05.17/outbox.cif.g08.bks.cpg/sg71_5_cif.got.tgz:9468.got - 2010.06.03 16:22:01.
