data_PCOD9517508
_publ_section_title
;
Structure prediction by ZEFSAII (Michael W. Deem and Ramdas Pophale) SiO2 
 PCOD9517508
Probable space group: I M M M
;
_chemical_formula_sum "Si O2"
_cell_formula_units_Z 96
_cell_length_a 22.664497
_cell_length_b 16.139040
_cell_length_c 15.673520
_cell_angle_alpha 90.000000
_cell_angle_beta 90.000000
_cell_angle_gamma 90.000000
_cell_volume 5733.110672
_symmetry_space_group_name_H-M "I M M M"
_symmetry_group_IT_number 71
_symmetry_cell_setting 'orthorhombic'
loop_
_space_group_symop_operation_xyz
x,y,z
-x,-y,z
x,-y,-z
-x,y,-z
-x,-y,-z
x,y,-z
-x,y,z
x,-y,z
1/2+x,1/2+y,1/2+z
1/2-x,1/2-y,1/2+z
1/2+x,1/2-y,1/2-z
1/2-x,1/2+y,1/2-z
1/2-x,1/2-y,1/2-z
1/2+x,1/2+y,1/2-z
1/2-x,1/2+y,1/2+z
1/2+x,1/2-y,1/2+z
loop_
_atom_site_type_symbol
_atom_site_label
_atom_site_fract_x
_atom_site_fract_y
_atom_site_fract_z
Si Si1 0.277182 0.176749 0.092674
Si Si2 0.772040 0.402123 0.771781
Si Si3 0.839365 0.288299 0.098060
Si Si4 0.399689 0.500000 0.907154
Si Si5 0.153893 0.168079 0.350449
Si Si6 0.567370 0.500000 0.709764
Si Si7 0.428864 0.682384 0.697536
O O1 0.287748 0.120367 0.174755
O O2 0.212640 0.219268 0.100264
O O3 0.322250 0.254132 0.097637
O O4 0.281613 0.135882 0.000000
O O5 0.767816 0.500000 0.784490
O O6 0.817361 0.359767 0.837870
O O7 0.708880 0.359851 0.791460
O O8 0.898475 0.245732 0.133174
O O9 0.844658 0.316214 0.000000
O O10 0.362985 0.414537 0.901961
O O11 0.431177 0.500000 0.813953
O O12 0.430515 0.500000 0.000000
O O13 0.099419 0.195645 0.291081
O O14 0.500000 0.500000 0.682345
O O15 0.591871 0.412621 0.678286
O O16 0.500000 0.685956 0.698334
#
# Coordination Sequence:
#
# PCOD9517508 Si02
#       7
#    16  16  16   8  16   8  16
#     4  10  19  32  53  76 104 136 169 213 269 319
#     4  11  20  34  55  76 106 139 169 220 275 324
#     4  10  20  35  53  78 108 139 177 222 265 315
#     4  10  18  25  44  73 101 136 173 207 253 306
#     4  10  17  33  48  73 110 138 172 212 259 314
#     4   8  18  31  47  70 100 141 183 217 253 298
#     4  10  18  32  54  76 105 148 184 213 256 312
#
# _framework density 16.744834999999998
#
# number of rings (size 3 to 8) (size 9 to 14) (size 15 to 20)
#    0.000    2.000    4.167    1.500    0.000    1.833 
#    0.000    0.417    0.000    3.500    0.000    1.167 
#    0.000    1.333    0.000    0.000    0.000    0.000 
#
# Total GULP energy -267296.529373 kJ/mol
# GULP energy per Si atom -5568.677695 kJ/mol
# Density = 1.670672 g / cm^3
# Si number density = 16.744835 Si / 1000 Ang^3
#
#
#
# Elastic Constant Matrix: (Units=GPa)
#
#
# Indices 1 2 3 4 5 6 
#
# 1 74.6572 17.4077 26.0386 0.0000 0.0000 0.0000
# 2 17.4077 27.3244 34.7234 0.0000 0.0000 0.0000
# 3 26.0386 34.7234 127.5707 0.0000 0.0000 0.0000
# 4 0.0000 0.0000 0.0000 2.1200 0.0000 0.0000
# 5 0.0000 0.0000 0.0000 0.0000 4.1477 0.0000
# 6 0.0000 0.0000 0.0000 0.0000 0.0000 18.2105
#
#
#
# Elastic Compliance Matrix: (Units=1/GPa)
#
#
# Indices 1 2 3 4 5 6 
#
# 1 0.015777 -0.009110 -0.000741 0.000000 0.000000 0.000000
# 2 -0.009110 0.061210 -0.014801 0.000000 0.000000 0.000000
# 3 -0.000741 -0.014801 0.012019 0.000000 0.000000 0.000000
# 4 0.000000 0.000000 0.000000 0.471688 0.000000 0.000000
# 5 0.000000 0.000000 0.000000 0.000000 0.241099 0.000000
# 6 0.000000 0.000000 0.000000 0.000000 0.000000 0.054913
#
#
# Mechanical properties :
#
#
# Convention : Reuss Voigt Hill
#
# Bulk Modulus (GPa) = 25.18755 42.87684 34.03220
# Shear Modulus (GPa) = 5.43925 14.98783 10.21354
#
# Velocity S-wave (km/s) = 1.80426 2.99502 2.47240
# Velocity P-wave (km/s) = 4.40626 6.13366 5.34027
#
# Compressibility (1/GPa) = 0.03970215
#
# Stress axis : x y z
#
# Youngs Moduli (GPa) = 63.38329 16.33716 83.20358
#
# Poissons Ratio (x) = 0.14883 0.06162
# Poissons Ratio (y) = 0.57742 1.23152
# Poissons Ratio (z) = 0.04694 0.24181
#
# Static dielectric constant tensor:
#      x y z
#    x 1.557690 0.000000 0.000000 
#    y 0.000000 1.557860 0.000000 
#    z 0.000000 0.000000 1.599340 
# 
# From -- ./inp_files/34782.got.cif
#   From: 2010.05.17/outbox.cif.g08.bks.cpg/sg71_18_cif.got.tgz:34782.got - 2010.06.03 16:22:01.
