data_PCOD9517702
_publ_section_title
;
Structure prediction by ZEFSAII (Michael W. Deem and Ramdas Pophale) SiO2 
 PCOD9517702
Probable space group: I M M M
;
_chemical_formula_sum "Si O2"
_cell_formula_units_Z 120
_cell_length_a 19.382648
_cell_length_b 12.824887
_cell_length_c 29.593818
_cell_angle_alpha 90.000000
_cell_angle_beta 90.000000
_cell_angle_gamma 90.000000
_cell_volume 7356.439279
_symmetry_space_group_name_H-M "I M M M"
_symmetry_group_IT_number 71
_symmetry_cell_setting 'orthorhombic'
loop_
_space_group_symop_operation_xyz
x,y,z
-x,-y,z
x,-y,-z
-x,y,-z
-x,-y,-z
x,y,-z
-x,y,z
x,-y,z
1/2+x,1/2+y,1/2+z
1/2-x,1/2-y,1/2+z
1/2+x,1/2-y,1/2-z
1/2-x,1/2+y,1/2-z
1/2-x,1/2-y,1/2-z
1/2+x,1/2+y,1/2-z
1/2-x,1/2+y,1/2+z
1/2+x,1/2-y,1/2+z
loop_
_atom_site_type_symbol
_atom_site_label
_atom_site_fract_x
_atom_site_fract_y
_atom_site_fract_z
Si Si1 0.151824 0.874007 0.447260
Si Si2 0.211668 0.194737 0.638729
Si Si3 0.266186 0.122858 0.797145
Si Si4 0.924394 0.878322 0.690693
Si Si5 0.081953 0.374257 0.049931
Si Si6 0.000000 0.118616 0.445070
Si Si7 0.865448 0.252950 0.767676
Si Si8 0.363097 0.121662 0.647444
O O1 0.163743 0.855673 0.500000
O O2 0.204847 0.818844 0.414559
O O3 0.074542 0.835852 0.434468
O O4 0.154318 0.000000 0.440479
O O5 0.218032 0.311318 0.657621
O O6 0.142333 0.146369 0.660269
O O7 0.280504 0.134292 0.653664
O O8 0.192662 0.166844 0.780207
O O9 0.323428 0.159959 0.760907
O O10 0.265895 0.000000 0.802692
O O11 0.917488 0.804413 0.734234
O O12 0.000000 0.860917 0.668879
O O13 0.920868 0.000000 0.703162
O O14 0.090107 0.500000 0.049089
O O15 0.117467 0.340913 0.096798
O O16 0.000000 0.352795 0.053019
O O17 0.106128 0.336526 0.000000
O O18 0.000000 0.110933 0.500000
O O19 0.000000 0.000000 0.427339
O O20 0.893929 0.306856 0.812822
O O21 0.382545 0.000000 0.651849
#
# Coordination Sequence:
#
# PCOD9517702 Si02
#       8
#    16  16  16  16  16   8  16  16
#     4   9  16  26  41  63  92 121 150 188 230 272
#     4  10  20  30  44  69  94 121 158 189 225 282
#     4   9  17  31  49  64  86 119 150 190 238 275
#     4  10  20  32  46  65  93 125 152 185 227 272
#     4   8  15  28  44  63  90 124 155 179 214 267
#     4   7  12  22  36  56  81 113 147 177 220 268
#     4   9  18  29  46  69  87 112 152 190 224 275
#     4  10  18  28  45  69  96 122 149 186 228 268
#
# _framework density 16.312239999999999
#
# number of rings (size 3 to 8) (size 9 to 14) (size 15 to 20)
#    0.000    2.867    0.000    4.000    0.933    1.067 
#    0.000    1.333    0.000   10.000    0.000    0.000 
#    0.000    3.200    0.000   38.133    0.000    3.333 
#
# Total GULP energy -334067.988424 kJ/mol
# GULP energy per Si atom -5567.799807 kJ/mol
# Density = 1.627511 g / cm^3
# Si number density = 16.312240 Si / 1000 Ang^3
#
#
#
# Elastic Constant Matrix: (Units=GPa)
#
#
# Indices 1 2 3 4 5 6 
#
# 1 32.1440 5.6352 15.6467 0.0000 0.0000 0.0000
# 2 5.6352 71.5389 31.4075 0.0000 0.0000 0.0000
# 3 15.6467 31.4075 99.7473 0.0000 0.0000 0.0000
# 4 0.0000 0.0000 0.0000 20.6248 0.0000 0.0000
# 5 0.0000 0.0000 0.0000 0.0000 28.4637 0.0000
# 6 0.0000 0.0000 0.0000 0.0000 0.0000 11.5660
#
#
#
# Elastic Compliance Matrix: (Units=1/GPa)
#
#
# Indices 1 2 3 4 5 6 
#
# 1 0.033691 -0.000387 -0.005163 0.000000 0.000000 0.000000
# 2 -0.000387 0.016225 -0.005048 0.000000 0.000000 0.000000
# 3 -0.005163 -0.005048 0.012425 0.000000 0.000000 0.000000
# 4 0.000000 0.000000 0.000000 0.048485 0.000000 0.000000
# 5 0.000000 0.000000 0.000000 0.000000 0.035132 0.000000
# 6 0.000000 0.000000 0.000000 0.000000 0.000000 0.086460
#
#
# Mechanical properties :
#
#
# Convention : Reuss Voigt Hill
#
# Bulk Modulus (GPa) = 24.30467 34.31212 29.30839
# Shear Modulus (GPa) = 18.70349 22.18031 20.44190
#
# Velocity S-wave (km/s) = 3.38981 3.69146 3.54384
# Velocity P-wave (km/s) = 5.50028 6.26493 5.89502
#
# Compressibility (1/GPa) = 0.04114436
#
# Stress axis : x y z
#
# Youngs Moduli (GPa) = 29.68150 61.63269 80.48482
#
# Poissons Ratio (x) = 0.02387 0.41554
# Poissons Ratio (y) = 0.01149 0.40629
# Poissons Ratio (z) = 0.15324 0.31113
#
# Static dielectric constant tensor:
#      x y z
#    x 1.596230 0.000000 0.000000 
#    y 0.000000 1.504490 0.000000 
#    z 0.000000 0.000000 1.599790 
# 
# From -- ./inp_files/70871.got.cif
#   From: 2010.05.17/outbox.cif.g08.bks.cpg/sg71_36_cif.got.tgz:70871.got - 2010.06.03 16:22:01.
