data_PCOD9517324
_publ_section_title
;
Structure prediction by ZEFSAII (Michael W. Deem and Ramdas Pophale) SiO2 
 PCOD9517324
Probable space group: I M M M
;
_chemical_formula_sum "Si O2"
_cell_formula_units_Z 112
_cell_length_a 31.133018
_cell_length_b 17.746677
_cell_length_c 13.762173
_cell_angle_alpha 90.000000
_cell_angle_beta 90.000000
_cell_angle_gamma 90.000000
_cell_volume 7603.705374
_symmetry_space_group_name_H-M "I M M M"
_symmetry_group_IT_number 71
_symmetry_cell_setting 'orthorhombic'
loop_
_space_group_symop_operation_xyz
x,y,z
-x,-y,z
x,-y,-z
-x,y,-z
-x,-y,-z
x,y,-z
-x,y,z
x,-y,z
1/2+x,1/2+y,1/2+z
1/2-x,1/2-y,1/2+z
1/2+x,1/2-y,1/2-z
1/2-x,1/2+y,1/2-z
1/2-x,1/2-y,1/2-z
1/2+x,1/2+y,1/2-z
1/2-x,1/2+y,1/2+z
1/2+x,1/2-y,1/2+z
loop_
_atom_site_type_symbol
_atom_site_label
_atom_site_fract_x
_atom_site_fract_y
_atom_site_fract_z
Si Si1 0.548679 0.086224 0.117997
Si Si2 0.204238 0.821154 0.884810
Si Si3 0.871753 0.310989 0.382036
Si Si4 0.342416 0.657806 0.798409
Si Si5 0.753894 0.662140 0.117484
Si Si6 0.656997 0.500000 0.113422
Si Si7 0.790478 0.586584 0.618082
Si Si8 0.261554 0.000000 0.386317
O O1 0.500000 0.105152 0.148702
O O2 0.585675 0.143545 0.147600
O O3 0.558209 0.000000 0.148042
O O4 0.548824 0.086001 0.000000
O O5 0.164817 0.842878 0.816848
O O6 0.218666 0.735835 0.860439
O O7 0.244881 0.874536 0.860375
O O8 0.196324 0.826285 0.000000
O O9 0.870854 0.303880 0.500000
O O10 0.869111 0.228689 0.335602
O O11 0.830100 0.360412 0.352460
O O12 0.294151 0.669979 0.841852
O O13 0.357792 0.577212 0.837168
O O14 0.773975 0.582555 0.152113
O O15 0.749699 0.658496 0.000000
O O16 0.709369 0.500000 0.119736
O O17 0.646134 0.500000 0.000000
O O18 0.792793 0.584146 0.500000
O O19 0.793037 0.500000 0.651837
O O20 0.273947 0.000000 0.500000
#
# Coordination Sequence:
#
# PCOD9517324 Si02
#       8
#    16  16  16  16  16   8  16   8
#     4   8  14  25  42  65  92 118 137 156 195 254
#     4  10  20  30  39  52  77 109 146 185 221 254
#     4  10  17  26  42  62  84 109 137 173 209 249
#     4  11  19  28  42  57  76 105 143 178 218 252
#     4   9  15  26  39  54  73  97 134 181 219 250
#     4   9  18  30  43  59  76  97 133 181 216 240
#     4   9  17  27  38  53  77 108 141 178 218 253
#     4   7  12  22  38  51  65  90 123 165 211 244
#
# _framework density 14.729661
#
# number of rings (size 3 to 8) (size 9 to 14) (size 15 to 20)
#    0.000    2.714    1.429    3.429    1.000    1.714 
#    0.000    0.000    1.571    0.000    0.000    0.500 
#    0.000    3.429    0.000    1.571    0.000    1.571 
#
# Total GULP energy -312128.689430 kJ/mol
# GULP energy per Si atom -5573.726597 kJ/mol
# Density = 1.469614 g / cm^3
# Si number density = 14.729661 Si / 1000 Ang^3
#
#
#
# Elastic Constant Matrix: (Units=GPa)
#
#
# Indices 1 2 3 4 5 6 
#
# 1 47.0745 43.6690 18.9339 0.0000 0.0000 0.0000
# 2 43.6690 141.8574 38.7772 0.0000 0.0000 0.0000
# 3 18.9339 38.7772 46.4181 0.0000 0.0000 0.0000
# 4 0.0000 0.0000 0.0000 16.9269 0.0000 0.0000
# 5 0.0000 0.0000 0.0000 0.0000 7.5297 0.0000
# 6 0.0000 0.0000 0.0000 0.0000 0.0000 17.3281
#
#
#
# Elastic Compliance Matrix: (Units=1/GPa)
#
#
# Indices 1 2 3 4 5 6 
#
# 1 0.030994 -0.007886 -0.006054 0.000000 0.000000 0.000000
# 2 -0.007886 0.011142 -0.006091 0.000000 0.000000 0.000000
# 3 -0.006054 -0.006091 0.029101 0.000000 0.000000 0.000000
# 4 0.000000 0.000000 0.000000 0.059078 0.000000 0.000000
# 5 0.000000 0.000000 0.000000 0.000000 0.132808 0.000000
# 6 0.000000 0.000000 0.000000 0.000000 0.000000 0.057710
#
#
# Mechanical properties :
#
#
# Convention : Reuss Voigt Hill
#
# Bulk Modulus (GPa) = 32.07822 48.67893 40.37858
# Shear Modulus (GPa) = 13.46670 17.28827 15.37748
#
# Velocity S-wave (km/s) = 3.02695 3.42965 3.23457
# Velocity P-wave (km/s) = 5.83454 6.98594 6.43604
#
# Compressibility (1/GPa) = 0.03117380
#
# Stress axis : x y z
#
# Youngs Moduli (GPa) = 32.26480 89.75059 34.36255
#
# Poissons Ratio (x) = 0.70777 0.20804
# Poissons Ratio (y) = 0.25444 0.20931
# Poissons Ratio (z) = 0.19534 0.54669
#
# Static dielectric constant tensor:
#      x y z
#    x 1.447540 0.000000 0.000000 
#    y 0.000000 1.524150 0.000000 
#    z 0.000000 0.000000 1.529500 
# 
# From -- ./inp_files/37180.got.cif
#   From: 2010.05.17/outbox.cif.g08.bks.cpg/sg71_19_cif.got.tgz:37180.got - 2010.06.03 16:22:01.
