data_PCOD9517573
_publ_section_title
;
Structure prediction by ZEFSAII (Michael W. Deem and Ramdas Pophale) SiO2 
 PCOD9517573
Probable space group: I M M M
;
_chemical_formula_sum "Si O2"
_cell_formula_units_Z 74
_cell_length_a 29.679104
_cell_length_b 7.530346
_cell_length_c 19.926124
_cell_angle_alpha 90.000000
_cell_angle_beta 90.000000
_cell_angle_gamma 90.000000
_cell_volume 4453.367605
_symmetry_space_group_name_H-M "I M M M"
_symmetry_group_IT_number 71
_symmetry_cell_setting 'orthorhombic'
loop_
_space_group_symop_operation_xyz
x,y,z
-x,-y,z
x,-y,-z
-x,y,-z
-x,-y,-z
x,y,-z
-x,y,z
x,-y,z
1/2+x,1/2+y,1/2+z
1/2-x,1/2-y,1/2+z
1/2+x,1/2-y,1/2-z
1/2-x,1/2+y,1/2-z
1/2-x,1/2-y,1/2-z
1/2+x,1/2+y,1/2-z
1/2-x,1/2+y,1/2+z
1/2+x,1/2-y,1/2+z
loop_
_atom_site_type_symbol
_atom_site_label
_atom_site_fract_x
_atom_site_fract_y
_atom_site_fract_z
Si Si1 0.500000 0.500000 0.500000
Si Si2 0.761424 0.283810 0.000000
Si Si3 0.500000 0.197409 0.615318
Si Si4 0.231538 0.790436 0.642885
Si Si5 0.632157 0.709498 0.500000
Si Si6 0.096541 0.784315 0.144514
Si Si7 0.180334 0.784741 0.769378
O O1 0.500000 0.345898 0.558227
O O2 0.737689 0.218804 0.931973
O O3 0.761155 0.500000 0.000000
O O4 0.814034 0.231014 0.000000
O O5 0.545955 0.222900 0.656530
O O6 0.500000 0.000000 0.586500
O O7 0.194653 0.719232 0.695490
O O8 0.279384 0.767809 0.680413
O O9 0.222698 0.000000 0.635928
O O10 0.620878 0.500000 0.500000
O O11 0.611716 0.778489 0.430198
O O12 0.133463 0.725221 0.198616
O O13 0.097326 0.000000 0.143520
O O14 0.180049 0.000000 0.767571
#
# Coordination Sequence:
#
# PCOD9517573 Si02
#       7
#     2   8   8  16   8  16  16
#     4  12  22  44  52  70 108 128 162 218 240 290
#     4  10  18  27  40  62  97 123 151 198 231 274
#     4  12  25  37  55  72  93 132 169 206 254 290
#     4   9  17  28  41  64  91 121 155 194 237 286
#     4  10  19  28  44  62  84 120 158 188 230 277
#     4  10  19  33  49  63  90 122 160 212 247 284
#     4   9  17  29  47  63  85 121 158 193 244 286
#
# _framework density 16.616637999999998
#
# number of rings (size 3 to 8) (size 9 to 14) (size 15 to 20)
#    0.000    2.162    3.243    0.811    1.514    1.730 
#    0.000    0.000    0.000    0.000    0.000    0.000 
#    0.000    0.865    0.000   11.027    0.000    1.081 
#
# Total GULP energy -206143.696086 kJ/mol
# GULP energy per Si atom -5571.451246 kJ/mol
# Density = 1.657882 g / cm^3
# Si number density = 16.616638 Si / 1000 Ang^3
#
#
#
# Elastic Constant Matrix: (Units=GPa)
#
#
# Indices 1 2 3 4 5 6 
#
# 1 119.8545 -1.5127 68.3698 0.0000 0.0000 0.0000
# 2 -1.5127 52.0640 -3.7123 0.0000 0.0000 0.0000
# 3 68.3698 -3.7123 127.4629 0.0000 0.0000 0.0000
# 4 0.0000 0.0000 0.0000 -0.0619 0.0000 0.0000
# 5 0.0000 0.0000 0.0000 0.0000 -10.4201 0.0000
# 6 0.0000 0.0000 0.0000 0.0000 0.0000 14.3590
#
#
#
# Elastic Compliance Matrix: (Units=1/GPa)
#
#
# Indices 1 2 3 4 5 6 
#
# 1 0.012023 -0.000111 -0.006452 0.000000 0.000000 0.000000
# 2 -0.000111 0.019248 0.000620 0.000000 0.000000 0.000000
# 3 -0.006452 0.000620 0.011324 0.000000 0.000000 0.000000
# 4 0.000000 0.000000 0.000000-16.158290 0.000000 0.000000
# 5 0.000000 0.000000 0.000000 0.000000 -0.095968 0.000000
# 6 0.000000 0.000000 0.000000 0.000000 0.000000 0.069643
#
#
# Mechanical properties :
#
#
# Convention : Reuss Voigt Hill
#
# Bulk Modulus (GPa) = 32.56331 47.29681 39.93006
# Shear Modulus (GPa) = -0.31018 16.52450 8.10716
#
# Velocity S-wave (km/s) = -0.43252 3.15692 2.21123
# Velocity P-wave (km/s) = 4.40340 6.46634 5.53188
#
# Compressibility (1/GPa) = 0.03070940
#
# Stress axis : x y z
#
# Youngs Moduli (GPa) = 83.17721 51.95316 88.30601
#
# Poissons Ratio (x) = 0.00575 0.56975
# Poissons Ratio (y) = 0.00921 -0.05475
# Poissons Ratio (z) = 0.53666 -0.03221
#
# Static dielectric constant tensor:
#      x y z
#    x 1.566650 0.000000 0.000000 
#    y 0.000000 1.609750 0.000000 
#    z 0.000000 0.000000 1.569950 
# 
# From -- ./inp_files/56061.got.cif
#   From: 2010.05.17/outbox.cif.g08.bks.cpg/sg71_29_cif.got.tgz:56061.got - 2010.06.03 16:22:01.
