data_PCOD9517272
_publ_section_title
;
Structure prediction by ZEFSAII (Michael W. Deem and Ramdas Pophale) SiO2 
 PCOD9517272
Probable space group: I M M M
;
_chemical_formula_sum "Si O2"
_cell_formula_units_Z 104
_cell_length_a 12.747438
_cell_length_b 15.902874
_cell_length_c 29.536815
_cell_angle_alpha 90.000000
_cell_angle_beta 90.000000
_cell_angle_gamma 90.000000
_cell_volume 5987.729730
_symmetry_space_group_name_H-M "I M M M"
_symmetry_group_IT_number 71
_symmetry_cell_setting 'orthorhombic'
loop_
_space_group_symop_operation_xyz
x,y,z
-x,-y,z
x,-y,-z
-x,y,-z
-x,-y,-z
x,y,-z
-x,y,z
x,-y,z
1/2+x,1/2+y,1/2+z
1/2-x,1/2-y,1/2+z
1/2+x,1/2-y,1/2-z
1/2-x,1/2+y,1/2-z
1/2-x,1/2-y,1/2-z
1/2+x,1/2+y,1/2-z
1/2-x,1/2+y,1/2+z
1/2+x,1/2-y,1/2+z
loop_
_atom_site_type_symbol
_atom_site_label
_atom_site_fract_x
_atom_site_fract_y
_atom_site_fract_z
Si Si1 0.000000 0.095548 0.945569
Si Si2 0.884914 0.351479 0.000000
Si Si3 0.703543 0.597381 0.822330
Si Si4 0.380043 0.230385 0.314972
Si Si5 0.618809 0.300412 0.909038
Si Si6 0.662219 0.728072 0.582978
Si Si7 0.844604 0.905535 0.500000
Si Si8 0.378298 0.407234 0.724010
O O1 0.103781 0.141916 0.927793
O O2 0.000000 0.000000 0.930994
O O3 0.000000 0.100958 0.000000
O O4 0.873345 0.291972 0.956207
O O5 0.782137 0.407741 0.000000
O O6 0.000000 0.391180 0.000000
O O7 0.728302 0.500000 0.833207
O O8 0.804833 0.651257 0.806795
O O9 0.652681 0.642708 0.865887
O O10 0.629492 0.597826 0.778352
O O11 0.500000 0.218657 0.298747
O O12 0.379184 0.240596 0.368991
O O13 0.335738 0.319300 0.295782
O O14 0.500000 0.269261 0.902848
O O15 0.711304 0.231605 0.914761
O O16 0.622732 0.356031 0.954787
O O17 0.884298 0.000000 0.500000
O O18 0.500000 0.408123 0.709816
O O19 0.333105 0.500000 0.711261
#
# Coordination Sequence:
#
# PCOD9517272 Si02
#       8
#     8   8  16  16  16  16   8  16
#     4  11  20  32  56  84 106 134 170 212 258 305
#     4  10  16  30  51  64  98 142 164 197 245 305
#     4  10  20  33  50  71  99 136 174 213 257 307
#     4  10  19  31  49  73 101 133 166 211 263 316
#     4  10  21  34  52  73  97 137 175 208 253 299
#     4  10  18  33  51  74 105 132 165 208 250 302
#     4  10  21  31  44  73 101 126 168 216 253 287
#     4   9  18  32  50  72  97 126 163 213 266 309
#
# _framework density 17.368853000000001
#
# number of rings (size 3 to 8) (size 9 to 14) (size 15 to 20)
#    0.000    2.077    2.308    1.615    0.000    3.231 
#    0.000    0.000    0.000    6.000    0.000    1.077 
#    0.000    0.000    0.000    0.000    0.000    0.000 
#
# Total GULP energy -289653.314585 kJ/mol
# GULP energy per Si atom -5570.256050 kJ/mol
# Density = 1.732932 g / cm^3
# Si number density = 17.368853 Si / 1000 Ang^3
#
#
#
# Elastic Constant Matrix: (Units=GPa)
#
#
# Indices 1 2 3 4 5 6 
#
# 1 130.5181 51.9249 -0.6708 0.0000 0.0000 0.0000
# 2 51.9249 103.0250 15.1634 0.0000 0.0000 0.0000
# 3 -0.6708 15.1634 57.5445 0.0000 0.0000 0.0000
# 4 0.0000 0.0000 0.0000 20.0988 0.0000 0.0000
# 5 0.0000 0.0000 0.0000 0.0000 21.6524 0.0000
# 6 0.0000 0.0000 0.0000 0.0000 0.0000 10.5493
#
#
#
# Elastic Compliance Matrix: (Units=1/GPa)
#
#
# Indices 1 2 3 4 5 6 
#
# 1 0.009699 -0.005103 0.001458 0.000000 0.000000 0.000000
# 2 -0.005103 0.012783 -0.003428 0.000000 0.000000 0.000000
# 3 0.001458 -0.003428 0.018298 0.000000 0.000000 0.000000
# 4 0.000000 0.000000 0.000000 0.049754 0.000000 0.000000
# 5 0.000000 0.000000 0.000000 0.000000 0.046184 0.000000
# 6 0.000000 0.000000 0.000000 0.000000 0.000000 0.094793
#
#
# Mechanical properties :
#
#
# Convention : Reuss Voigt Hill
#
# Bulk Modulus (GPa) = 37.54592 47.10251 42.32421
# Shear Modulus (GPa) = 19.64354 25.43811 22.54083
#
# Velocity S-wave (km/s) = 3.36663 3.83114 3.60637
# Velocity P-wave (km/s) = 6.06432 6.83725 6.46235
#
# Compressibility (1/GPa) = 0.02663406
#
# Stress axis : x y z
#
# Youngs Moduli (GPa) = 103.09844 78.22963 54.65041
#
# Poissons Ratio (x) = 0.39921 -0.07967
# Poissons Ratio (y) = 0.52612 0.18733
# Poissons Ratio (z) = -0.15029 0.26816
#
# Static dielectric constant tensor:
#      x y z
#    x 1.630390 0.000000 0.000000 
#    y 0.000000 1.590130 0.000000 
#    z 0.000000 0.000000 1.589620 
# 
# From -- ./inp_files/64704.got.cif
#   From: 2010.05.17/outbox.cif.g08.bks.cpg/sg71_33_cif.got.tgz:64704.got - 2010.06.03 16:22:01.
