data_PCOD9517821
_publ_section_title
;
Structure prediction by ZEFSAII (Michael W. Deem and Ramdas Pophale) SiO2 
 PCOD9517821
Probable space group: I M M M
;
_chemical_formula_sum "Si O2"
_cell_formula_units_Z 104
_cell_length_a 30.951296
_cell_length_b 9.015146
_cell_length_c 23.078961
_cell_angle_alpha 90.000000
_cell_angle_beta 90.000000
_cell_angle_gamma 90.000000
_cell_volume 6439.732927
_symmetry_space_group_name_H-M "I M M M"
_symmetry_group_IT_number 71
_symmetry_cell_setting 'orthorhombic'
loop_
_space_group_symop_operation_xyz
x,y,z
-x,-y,z
x,-y,-z
-x,y,-z
-x,-y,-z
x,y,-z
-x,y,z
x,-y,z
1/2+x,1/2+y,1/2+z
1/2-x,1/2-y,1/2+z
1/2+x,1/2-y,1/2-z
1/2-x,1/2+y,1/2-z
1/2-x,1/2-y,1/2-z
1/2+x,1/2+y,1/2-z
1/2-x,1/2+y,1/2+z
1/2+x,1/2-y,1/2+z
loop_
_atom_site_type_symbol
_atom_site_label
_atom_site_fract_x
_atom_site_fract_y
_atom_site_fract_z
Si Si1 0.374069 0.821128 0.432352
Si Si2 0.804002 0.177870 0.431529
Si Si3 0.450051 0.821533 0.215616
Si Si4 0.784809 0.171029 0.070412
Si Si5 0.450343 0.319418 0.000000
Si Si6 0.548785 0.180559 0.650673
Si Si7 0.603253 0.679300 0.886218
O O1 0.380624 0.780884 0.500000
O O2 0.328492 0.754427 0.411903
O O3 0.414074 0.770045 0.393112
O O4 0.371479 0.000000 0.429575
O O5 0.810447 0.212499 0.500000
O O6 0.759830 0.253048 0.410890
O O7 0.847104 0.222993 0.397574
O O8 0.799449 0.000000 0.427619
O O9 0.500000 0.782652 0.201599
O O10 0.442321 0.778051 0.282585
O O11 0.417854 0.746514 0.170864
O O12 0.446407 0.000000 0.212073
O O13 0.786144 0.000000 0.087964
O O14 0.784314 0.177428 0.000000
O O15 0.424901 0.273777 0.942247
O O16 0.450519 0.500000 0.000000
O O17 0.500000 0.269203 0.000000
O O18 0.500000 0.229227 0.635471
O O19 0.548386 0.000000 0.649103
O O20 0.601841 0.500000 0.883563
#
# Coordination Sequence:
#
# PCOD9517821 Si02
#       7
#    16  16  16  16   8  16  16
#     4   9  16  27  47  74  97 118 148 185 225 266
#     4   9  16  28  45  65  90 117 150 190 232 274
#     4   9  18  32  47  63  88 124 159 187 221 268
#     4   9  17  28  43  65  94 125 151 178 221 275
#     4   9  16  26  41  63  91 119 145 181 234 281
#     4   8  15  29  48  69  94 123 153 185 222 266
#     4  10  18  29  46  68  90 116 152 195 235 271
#
# _framework density 16.149739
#
# number of rings (size 3 to 8) (size 9 to 14) (size 15 to 20)
#    0.000    3.000    0.769    1.846    0.000    3.692 
#    0.000    2.692    0.000    3.692    0.000    2.154 
#    0.000    0.000    0.000    0.000    0.000    0.000 
#
# Total GULP energy -289651.012011 kJ/mol
# GULP energy per Si atom -5570.211769 kJ/mol
# Density = 1.611298 g / cm^3
# Si number density = 16.149739 Si / 1000 Ang^3
#
#
#
# Elastic Constant Matrix: (Units=GPa)
#
#
# Indices 1 2 3 4 5 6 
#
# 1 189.5059 43.5301 89.9322 0.0000 0.0000 0.0000
# 2 43.5301 16.0379 25.8020 0.0000 0.0000 0.0000
# 3 89.9322 25.8020 71.8348 0.0000 0.0000 0.0000
# 4 0.0000 0.0000 0.0000 15.0565 0.0000 0.0000
# 5 0.0000 0.0000 0.0000 0.0000 17.9654 0.0000
# 6 0.0000 0.0000 0.0000 0.0000 0.0000 17.2677
#
#
#
# Elastic Compliance Matrix: (Units=1/GPa)
#
#
# Indices 1 2 3 4 5 6 
#
# 1 0.017154 -0.028448 -0.011257 0.000000 0.000000 0.000000
# 2 -0.028448 0.194883 -0.034385 0.000000 0.000000 0.000000
# 3 -0.011257 -0.034385 0.040365 0.000000 0.000000 0.000000
# 4 0.000000 0.000000 0.000000 0.066417 0.000000 0.000000
# 5 0.000000 0.000000 0.000000 0.000000 0.055663 0.000000
# 6 0.000000 0.000000 0.000000 0.000000 0.000000 0.057912
#
#
# Mechanical properties :
#
#
# Convention : Reuss Voigt Hill
#
# Bulk Modulus (GPa) = 9.59487 66.21192 37.90340
# Shear Modulus (GPa) = 8.12595 17.93219 13.02907
#
# Velocity S-wave (km/s) = 2.24556 3.33584 2.84345
# Velocity P-wave (km/s) = 3.56055 7.47829 5.85672
#
# Compressibility (1/GPa) = 0.10422231
#
# Stress axis : x y z
#
# Youngs Moduli (GPa) = 58.29676 5.13127 24.77421
#
# Poissons Ratio (x) = 0.14597 0.27889
# Poissons Ratio (y) = 1.65841 0.85186
# Poissons Ratio (z) = 0.65626 0.17644
#
# Static dielectric constant tensor:
#      x y z
#    x 1.540230 0.000000 0.000000 
#    y 0.000000 1.542710 0.000000 
#    z 0.000000 0.000000 1.522930 
# 
# From -- ./inp_files/56685.got.cif
#   From: 2010.05.17/outbox.cif.g08.bks.cpg/sg71_29_cif.got.tgz:56685.got - 2010.06.03 16:22:01.
