data_PCOD9517524
_publ_section_title
;
Structure prediction by ZEFSAII (Michael W. Deem and Ramdas Pophale) SiO2 
 PCOD9517524
Probable space group: I M M M
;
_chemical_formula_sum "Si O2"
_cell_formula_units_Z 104
_cell_length_a 17.255843
_cell_length_b 14.143172
_cell_length_c 30.856496
_cell_angle_alpha 90.000000
_cell_angle_beta 90.000000
_cell_angle_gamma 90.000000
_cell_volume 7530.600533
_symmetry_space_group_name_H-M "I M M M"
_symmetry_group_IT_number 71
_symmetry_cell_setting 'orthorhombic'
loop_
_space_group_symop_operation_xyz
x,y,z
-x,-y,z
x,-y,-z
-x,y,-z
-x,-y,-z
x,y,-z
-x,y,z
x,-y,z
1/2+x,1/2+y,1/2+z
1/2-x,1/2-y,1/2+z
1/2+x,1/2-y,1/2-z
1/2-x,1/2+y,1/2-z
1/2-x,1/2-y,1/2-z
1/2+x,1/2+y,1/2-z
1/2-x,1/2+y,1/2+z
1/2+x,1/2-y,1/2+z
loop_
_atom_site_type_symbol
_atom_site_label
_atom_site_fract_x
_atom_site_fract_y
_atom_site_fract_z
Si Si1 0.593561 0.798782 0.909623
Si Si2 0.193286 0.774259 0.210385
Si Si3 0.092218 0.610673 0.765688
Si Si4 0.674127 0.888305 0.827445
Si Si5 0.587597 0.613092 0.771490
Si Si6 0.405609 0.392274 0.132526
Si Si7 0.905678 0.390565 0.500000
O O1 0.500000 0.803973 0.907921
O O2 0.626996 0.859489 0.870005
O O3 0.615783 0.689434 0.900870
O O4 0.619104 0.838421 0.956027
O O5 0.250000 0.750000 0.250000
O O6 0.142038 0.680195 0.203610
O O7 0.248549 0.824140 0.175703
O O8 0.135176 0.849923 0.231321
O O9 0.106612 0.500000 0.775159
O O10 0.122464 0.627754 0.716227
O O11 0.000000 0.627563 0.768149
O O12 0.693018 0.000000 0.827848
O O13 0.500000 0.650108 0.769167
O O14 0.585262 0.500000 0.771394
O O15 0.620732 0.638157 0.819063
O O16 0.500000 0.395190 0.134816
O O17 0.380211 0.500000 0.123449
O O18 0.881326 0.500000 0.500000
O O19 0.000000 0.389764 0.500000
#
# Coordination Sequence:
#
# PCOD9517524 Si02
#       7
#    16  16  16  16  16  16   8
#     4  10  18  29  44  59  76 101 133 168 206 241
#     4  10  18  26  36  53  78 105 131 163 201 234
#     4   9  17  28  41  57  77 105 141 173 199 230
#     4  10  19  28  39  57  80 105 134 169 205 240
#     4   9  16  26  40  55  73 102 137 166 189 219
#     4   8  14  24  38  56  75  96 126 160 190 224
#     4   9  18  30  43  59  75  93 125 170 212 246
#
# _framework density 13.810320000000001
#
# number of rings (size 3 to 8) (size 9 to 14) (size 15 to 20)
#    0.000    2.692    0.000    4.615    0.000    3.385 
#    0.000    1.154    0.000    2.308    0.000    0.000 
#    0.000    0.000    0.000    2.769    0.000   22.154 
#
# Total GULP energy -289505.233796 kJ/mol
# GULP energy per Si atom -5567.408342 kJ/mol
# Density = 1.377889 g / cm^3
# Si number density = 13.810320 Si / 1000 Ang^3
#
#
#
# Elastic Constant Matrix: (Units=GPa)
#
#
# Indices 1 2 3 4 5 6 
#
# 1 46.9794 27.6116 15.0711 0.0000 0.0000 0.0000
# 2 27.6116 82.2859 27.9133 0.0000 0.0000 0.0000
# 3 15.0711 27.9133 46.6651 0.0000 0.0000 0.0000
# 4 0.0000 0.0000 0.0000 17.6200 0.0000 0.0000
# 5 0.0000 0.0000 0.0000 0.0000 12.7600 0.0000
# 6 0.0000 0.0000 0.0000 0.0000 0.0000 20.7713
#
#
#
# Elastic Compliance Matrix: (Units=1/GPa)
#
#
# Indices 1 2 3 4 5 6 
#
# 1 0.027145 -0.007696 -0.004163 0.000000 0.000000 0.000000
# 2 -0.007696 0.017429 -0.007939 0.000000 0.000000 0.000000
# 3 -0.004163 -0.007939 0.027523 0.000000 0.000000 0.000000
# 4 0.000000 0.000000 0.000000 0.056754 0.000000 0.000000
# 5 0.000000 0.000000 0.000000 0.000000 0.078370 0.000000
# 6 0.000000 0.000000 0.000000 0.000000 0.000000 0.048143
#
#
# Mechanical properties :
#
#
# Convention : Reuss Voigt Hill
#
# Bulk Modulus (GPa) = 30.77073 35.23583 33.00328
# Shear Modulus (GPa) = 16.35087 17.25256 16.80172
#
# Velocity S-wave (km/s) = 3.44461 3.53831 3.49177
# Velocity P-wave (km/s) = 6.17655 6.50095 6.34082
#
# Compressibility (1/GPa) = 0.03249842
#
# Stress axis : x y z
#
# Youngs Moduli (GPa) = 36.83922 57.37695 36.33343
#
# Poissons Ratio (x) = 0.44160 0.15126
# Poissons Ratio (y) = 0.28353 0.28847
# Poissons Ratio (z) = 0.15337 0.45554
#
# Static dielectric constant tensor:
#      x y z
#    x 1.446090 0.000000 0.000000 
#    y 0.000000 1.512740 0.000000 
#    z 0.000000 0.000000 1.429570 
# 
# From -- ./inp_files/40471.got.cif
#   From: 2010.05.17/outbox.cif.g08.bks.cpg/sg71_21_cif.got.tgz:40471.got - 2010.06.03 16:22:01.
