data_PCOD9517490
_publ_section_title
;
Structure prediction by ZEFSAII (Michael W. Deem and Ramdas Pophale) SiO2 
 PCOD9517490
Probable space group: I M M M
;
_chemical_formula_sum "Si O2"
_cell_formula_units_Z 74
_cell_length_a 15.448854
_cell_length_b 8.796625
_cell_length_c 26.845839
_cell_angle_alpha 90.000000
_cell_angle_beta 90.000000
_cell_angle_gamma 90.000000
_cell_volume 3648.289797
_symmetry_space_group_name_H-M "I M M M"
_symmetry_group_IT_number 71
_symmetry_cell_setting 'orthorhombic'
loop_
_space_group_symop_operation_xyz
x,y,z
-x,-y,z
x,-y,-z
-x,y,-z
-x,-y,-z
x,y,-z
-x,y,z
x,-y,z
1/2+x,1/2+y,1/2+z
1/2-x,1/2-y,1/2+z
1/2+x,1/2-y,1/2-z
1/2-x,1/2+y,1/2-z
1/2-x,1/2-y,1/2-z
1/2+x,1/2+y,1/2-z
1/2-x,1/2+y,1/2+z
1/2+x,1/2-y,1/2+z
loop_
_atom_site_type_symbol
_atom_site_label
_atom_site_fract_x
_atom_site_fract_y
_atom_site_fract_z
Si Si1 0.000000 0.814997 0.200508
Si Si2 0.682561 0.680716 0.441981
Si Si3 0.338782 0.318742 0.768852
Si Si4 0.000000 0.000000 0.500000
Si Si5 0.500000 0.182317 0.589825
Si Si6 0.155487 0.814320 0.385718
Si Si7 0.000000 0.299421 0.443819
O O1 0.916817 0.770690 0.233118
O O2 0.000000 0.734187 0.147440
O O3 0.000000 0.000000 0.193678
O O4 0.708215 0.700234 0.500000
O O5 0.682390 0.500000 0.430779
O O6 0.586758 0.747613 0.434110
O O7 0.750959 0.768883 0.407491
O O8 0.333576 0.500000 0.765001
O O9 0.250000 0.250000 0.750000
O O10 0.352931 0.285049 0.826980
O O11 0.000000 0.874146 0.457664
O O12 0.500000 0.000000 0.585125
O O13 0.088098 0.696816 0.412458
O O14 0.144166 0.000000 0.393132
O O15 0.000000 0.363893 0.500000
#
# Coordination Sequence:
#
# PCOD9517490 Si02
#       7
#     8  16  16   2   8  16   8
#     4  10  21  40  62  85 121 163 193 233 298 357
#     4  11  25  42  61  86 120 158 195 238 299 363
#     4  10  22  37  57  84 115 151 194 238 283 339
#     4   8  16  28  52  88 122 146 184 224 294 332
#     4  12  25  42  64  91 114 146 198 253 298 351
#     4  11  20  36  61  90 119 155 199 244 287 339
#     4  10  17  31  55  88 121 149 184 232 286 337
#
# _framework density 20.283477999999999
#
# number of rings (size 3 to 8) (size 9 to 14) (size 15 to 20)
#    0.324    1.081    1.081    4.541    0.000   10.811 
#    0.000    0.541    0.000    4.541    0.000    0.000 
#    0.000    0.000    0.000    0.000    0.000    0.000 
#
# Total GULP energy -206050.884982 kJ/mol
# GULP energy per Si atom -5568.942837 kJ/mol
# Density = 2.023731 g / cm^3
# Si number density = 20.283478 Si / 1000 Ang^3
#
#
#
# Elastic Constant Matrix: (Units=GPa)
#
#
# Indices 1 2 3 4 5 6 
#
# 1 78.3822 -1.7570 2.8061 0.0000 0.0000 0.0000
# 2 -1.7570 70.2028 26.5434 0.0000 0.0000 0.0000
# 3 2.8061 26.5434 81.6303 0.0000 0.0000 0.0000
# 4 0.0000 0.0000 0.0000 -6.8587 0.0000 0.0000
# 5 0.0000 0.0000 0.0000 0.0000 37.8316 0.0000
# 6 0.0000 0.0000 0.0000 0.0000 0.0000 129.6829
#
#
#
# Elastic Compliance Matrix: (Units=1/GPa)
#
#
# Indices 1 2 3 4 5 6 
#
# 1 0.012793 0.000555 -0.000620 0.000000 0.000000 0.000000
# 2 0.000555 0.016265 -0.005308 0.000000 0.000000 0.000000
# 3 -0.000620 -0.005308 0.013998 0.000000 0.000000 0.000000
# 4 0.000000 0.000000 0.000000 -0.145800 0.000000 0.000000
# 5 0.000000 0.000000 0.000000 0.000000 0.026433 0.000000
# 6 0.000000 0.000000 0.000000 0.000000 0.000000 0.007711
#
#
# Mechanical properties :
#
#
# Convention : Reuss Voigt Hill
#
# Bulk Modulus (GPa) = 30.95147 31.71114 31.33130
# Shear Modulus (GPa) = -106.19376 45.63935 -30.27721
#
# Velocity S-wave (km/s) = -7.24351 4.74864 -3.86774
# Velocity P-wave (km/s) = 7.39360 6.76269 2.11321
#
# Compressibility (1/GPa) = 0.03230864
#
# Stress axis : x y z
#
# Youngs Moduli (GPa) = 78.16998 61.48075 71.44061
#
# Poissons Ratio (x) = -0.03410 0.04430
# Poissons Ratio (y) = -0.04336 0.37921
# Poissons Ratio (z) = 0.04847 0.32634
#
# Static dielectric constant tensor:
#      x y z
#    x 1.624840 0.000000 0.000000 
#    y 0.000000 1.710540 0.000000 
#    z 0.000000 0.000000 1.725350 
# 
# From -- ./inp_files/65216.got.cif
#   From: 2010.05.17/outbox.cif.g08.bks.cpg/sg71_33_cif.got.tgz:65216.got - 2010.06.03 16:22:01.
