data_PCOD9517318
_publ_section_title
;
Structure prediction by ZEFSAII (Michael W. Deem and Ramdas Pophale) SiO2 
 PCOD9517318
Probable space group: I M M M
;
_chemical_formula_sum "Si O2"
_cell_formula_units_Z 96
_cell_length_a 27.533134
_cell_length_b 8.507373
_cell_length_c 29.908961
_cell_angle_alpha 90.000000
_cell_angle_beta 90.000000
_cell_angle_gamma 90.000000
_cell_volume 7005.714736
_symmetry_space_group_name_H-M "I M M M"
_symmetry_group_IT_number 71
_symmetry_cell_setting 'orthorhombic'
loop_
_space_group_symop_operation_xyz
x,y,z
-x,-y,z
x,-y,-z
-x,y,-z
-x,-y,-z
x,y,-z
-x,y,z
x,-y,z
1/2+x,1/2+y,1/2+z
1/2-x,1/2-y,1/2+z
1/2+x,1/2-y,1/2-z
1/2-x,1/2+y,1/2-z
1/2-x,1/2-y,1/2-z
1/2+x,1/2+y,1/2-z
1/2-x,1/2+y,1/2+z
1/2+x,1/2-y,1/2+z
loop_
_atom_site_type_symbol
_atom_site_label
_atom_site_fract_x
_atom_site_fract_y
_atom_site_fract_z
Si Si1 0.703557 0.688143 0.277720
Si Si2 0.287653 0.810649 0.949910
Si Si3 0.945840 0.189602 0.359485
Si Si4 0.401202 0.810309 0.050396
Si Si5 0.744266 0.312648 0.141651
Si Si6 0.852913 0.191471 0.305112
O O1 0.704943 0.500000 0.278994
O O2 0.750000 0.750000 0.250000
O O3 0.711949 0.751519 0.327410
O O4 0.658475 0.736899 0.246190
O O5 0.344426 0.764823 0.943904
O O6 0.256906 0.743901 0.909155
O O7 0.286105 0.000000 0.948439
O O8 0.272945 0.760887 0.000000
O O9 0.932020 0.238368 0.409769
O O10 0.902937 0.247691 0.326849
O O11 0.000000 0.245541 0.348172
O O12 0.945764 0.000000 0.357246
O O13 0.403664 0.000000 0.052869
O O14 0.416123 0.764217 0.000000
O O15 0.744341 0.500000 0.143311
O O16 0.693279 0.257719 0.164647
O O17 0.853232 0.000000 0.306377
#
# Coordination Sequence:
#
# PCOD9517318 Si02
#       6
#    16  16  16  16  16  16
#     4   9  16  26  40  57  77  96 120 152 189 229
#     4   9  17  28  41  57  76 100 129 158 192 231
#     4  10  19  30  43  57  73  95 125 160 198 236
#     4   9  18  31  43  54  70  94 125 162 202 238
#     4  10  17  26  41  59  78  97 123 154 189 232
#     4   8  15  27  39  54  74  95 119 153 191 228
#
# _framework density 13.703099
#
# number of rings (size 3 to 8) (size 9 to 14) (size 15 to 20)
#    0.000    2.833    1.667    3.000    0.000    1.333 
#    0.000    4.167    0.000    0.000    0.000    0.000 
#    0.000    0.000    0.000    0.000    0.000    0.833 
#
# Total GULP energy -267233.382652 kJ/mol
# GULP energy per Si atom -5567.362139 kJ/mol
# Density = 1.367191 g / cm^3
# Si number density = 13.703099 Si / 1000 Ang^3
#
#
#
# Elastic Constant Matrix: (Units=GPa)
#
#
# Indices 1 2 3 4 5 6 
#
# 1 56.3498 9.7282 56.5684 0.0000 0.0000 0.0000
# 2 9.7282 13.8318 19.3892 0.0000 0.0000 0.0000
# 3 56.5684 19.3892 110.2996 0.0000 0.0000 0.0000
# 4 0.0000 0.0000 0.0000 21.3344 0.0000 0.0000
# 5 0.0000 0.0000 0.0000 0.0000 16.8823 0.0000
# 6 0.0000 0.0000 0.0000 0.0000 0.0000 10.0598
#
#
#
# Elastic Compliance Matrix: (Units=1/GPa)
#
#
# Indices 1 2 3 4 5 6 
#
# 1 0.036585 0.000757 -0.018896 0.000000 0.000000 0.000000
# 2 0.000757 0.095953 -0.017256 0.000000 0.000000 0.000000
# 3 -0.018896 -0.017256 0.021791 0.000000 0.000000 0.000000
# 4 0.000000 0.000000 0.000000 0.046873 0.000000 0.000000
# 5 0.000000 0.000000 0.000000 0.000000 0.059234 0.000000
# 6 0.000000 0.000000 0.000000 0.000000 0.000000 0.099406
#
#
# Mechanical properties :
#
#
# Convention : Reuss Voigt Hill
#
# Bulk Modulus (GPa) = 11.97035 39.09475 25.53255
# Shear Modulus (GPa) = 10.90568 15.97500 13.44034
#
# Velocity S-wave (km/s) = 2.82415 3.41808 3.13521
# Velocity P-wave (km/s) = 4.40328 6.64601 5.63730
#
# Compressibility (1/GPa) = 0.08353977
#
# Stress axis : x y z
#
# Youngs Moduli (GPa) = 27.33359 10.42173 45.89137
#
# Poissons Ratio (x) = -0.00789 0.86717
# Poissons Ratio (y) = -0.02069 0.79188
# Poissons Ratio (z) = 0.51650 0.17983
#
# Static dielectric constant tensor:
#      x y z
#    x 1.442260 0.000000 0.000000 
#    y 0.000000 1.467320 0.000000 
#    z 0.000000 0.000000 1.470260 
# 
# From -- ./inp_files/15430.got.cif
#   From: 2010.05.17/outbox.cif.g08.bks.cpg/sg71_8_cif.got.tgz:15430.got - 2010.06.03 16:22:01.
