data_PCOD9517032
_publ_section_title
;
Structure prediction by ZEFSAII (Michael W. Deem and Ramdas Pophale) SiO2 
 PCOD9517032
Probable space group: F D D D
;
_chemical_formula_sum "Si O2"
_cell_formula_units_Z 160
_cell_length_a 31.927702
_cell_length_b 14.280552
_cell_length_c 16.225942
_cell_angle_alpha 90.000000
_cell_angle_beta 90.000000
_cell_angle_gamma 90.000000
_cell_volume 7398.140511
_symmetry_space_group_name_H-M "F D D D"
_symmetry_group_IT_number 70
_space_group.IT_coordinate_system_code '2'
_symmetry_cell_setting 'orthorhombic'
loop_
_space_group_symop_operation_xyz
x,y,z
1/4-x,1/4-y,z
x,1/4-y,1/4-z
1/4-x,y,1/4-z
-x,-y,-z
3/4+x,3/4+y,-z
-x,3/4+y,3/4+z
3/4+x,-y,3/4+z
x,1/2+y,1/2+z
1/4-x,3/4-y,1/2+z
x,3/4-y,3/4-z
1/4-x,1/2+y,3/4-z
-x,1/2-y,1/2-z
3/4+x,1/4+y,1/2-z
-x,1/4+y,1/4+z
3/4+x,1/2-y,1/4+z
1/2+x,y,1/2+z
3/4-x,1/4-y,1/2+z
1/2+x,1/4-y,3/4-z
3/4-x,y,3/4-z
1/2-x,-y,1/2-z
1/4+x,3/4+y,1/2-z
1/2-x,3/4+y,1/4+z
1/4+x,-y,1/4+z
1/2+x,1/2+y,z
3/4-x,3/4-y,z
1/2+x,3/4-y,1/4-z
3/4-x,1/2+y,1/4-z
1/2-x,1/2-y,-z
1/4+x,1/4+y,-z
1/2-x,1/4+y,3/4+z
1/4+x,1/2-y,3/4+z
loop_
_atom_site_type_symbol
_atom_site_label
_atom_site_fract_x
_atom_site_fract_y
_atom_site_fract_z
Si Si1 0.375000 0.875000 0.875000
Si Si2 0.237380 0.538038 0.840489
Si Si3 0.625000 0.125000 0.625000
Si Si4 0.129626 0.786450 0.013171
Si Si5 0.417243 0.439863 0.642438
Si Si6 0.320593 0.042521 0.449350
Si Si7 0.174801 0.875000 0.375000
O O1 0.355700 0.796942 0.812541
O O2 0.250000 0.500000 0.750000
O O3 0.209416 0.630996 0.842890
O O4 0.276826 0.542358 0.901403
O O5 0.204141 0.463134 0.870172
O O6 0.655008 0.198643 0.670777
O O7 0.158829 0.730101 0.948338
O O8 0.101089 0.854340 0.957548
O O9 0.157538 0.857797 0.066745
O O10 0.375000 0.375000 0.660123
O O11 0.425595 0.527264 0.702845
#
# Coordination Sequence:
#
# PCOD9517032 Si02
#       7
#     8  32   8  32  32  32  16
#     4  12  26  42  72 120 144 188 266 324 362 448
#     4  12  27  43  71 115 152 190 250 327 379 449
#     4  12  24  42  68 106 152 188 238 316 360 446
#     4  12  25  47  79 105 146 208 255 303 390 467
#     4  12  22  50  74 102 150 202 249 310 379 465
#     4  12  26  44  72 110 146 197 256 305 383 456
#     4  12  23  48  74 104 148 206 253 302 383 473
#
# _framework density 21.627056
#
# number of rings (size 3 to 8) (size 9 to 14) (size 15 to 20)
#    0.000    0.000    6.000    3.600    5.600    0.800 
#    3.600    0.000    0.000    0.000    0.000    0.000 
#    0.000    0.000    0.000    0.000    0.000    0.000 
#
# Total GULP energy -222909.603066 kJ/mol
# GULP energy per Si atom -5572.740077 kJ/mol
# Density = 2.157783 g / cm^3
# Si number density = 21.627056 Si / 1000 Ang^3
#
#
#
# Elastic Constant Matrix: (Units=GPa)
#
#
# Indices 1 2 3 4 5 6 
#
# 1 124.6026 56.5216 48.3234 0.0000 0.0000 0.0000
# 2 56.5216 134.9944 32.8852 0.0000 0.0000 0.0000
# 3 48.3234 32.8852 80.8682 0.0000 0.0000 0.0000
# 4 0.0000 0.0000 0.0000 54.4126 0.0000 0.0000
# 5 0.0000 0.0000 0.0000 0.0000 29.8908 0.0000
# 6 0.0000 0.0000 0.0000 0.0000 0.0000 51.4251
#
#
#
# Elastic Compliance Matrix: (Units=1/GPa)
#
#
# Indices 1 2 3 4 5 6 
#
# 1 0.011827 -0.003586 -0.005610 0.000000 0.000000 0.000000
# 2 -0.003586 0.009309 -0.001643 0.000000 0.000000 0.000000
# 3 -0.005610 -0.001643 0.016386 0.000000 0.000000 0.000000
# 4 0.000000 0.000000 0.000000 0.018378 0.000000 0.000000
# 5 0.000000 0.000000 0.000000 0.000000 0.033455 0.000000
# 6 0.000000 0.000000 0.000000 0.000000 0.000000 0.019446
#
#
# Mechanical properties :
#
#
# Convention : Reuss Voigt Hill
#
# Bulk Modulus (GPa) = 63.10581 68.43617 65.77099
# Shear Modulus (GPa) = 36.82970 40.66137 38.74554
#
# Velocity S-wave (km/s) = 4.13115 4.34073 4.23724
# Velocity P-wave (km/s) = 7.21094 7.53891 7.37675
#
# Compressibility (1/GPa) = 0.01584640
#
# Stress axis : x y z
#
# Youngs Moduli (GPa) = 84.54884 107.42020 61.02796
#
# Poissons Ratio (x) = 0.38517 0.34234
# Poissons Ratio (y) = 0.30316 0.10027
# Poissons Ratio (z) = 0.47428 0.17649
#
# Static dielectric constant tensor:
#      x y z
#    x 1.601390 0.000000 0.000000 
#    y 0.000000 1.968350 0.000000 
#    z 0.000000 0.000000 1.857090 
# 
# From -- ./inp_files/39559.got.cif
#   From: 2010.05.17/outbox.cif.g08.bks.cpg/sg70_20_cif.got.tgz:39559.got - 2010.06.03 15:57:51.
