data_PCOD9517647
_publ_section_title
;
Structure prediction by ZEFSAII (Michael W. Deem and Ramdas Pophale) SiO2 
 PCOD9517647
Probable space group: I M M M
;
_chemical_formula_sum "Si O2"
_cell_formula_units_Z 104
_cell_length_a 7.705198
_cell_length_b 25.499614
_cell_length_c 23.704628
_cell_angle_alpha 90.000000
_cell_angle_beta 90.000000
_cell_angle_gamma 90.000000
_cell_volume 4657.475230
_symmetry_space_group_name_H-M "I M M M"
_symmetry_group_IT_number 71
_symmetry_cell_setting 'orthorhombic'
loop_
_space_group_symop_operation_xyz
x,y,z
-x,-y,z
x,-y,-z
-x,y,-z
-x,-y,-z
x,y,-z
-x,y,z
x,-y,z
1/2+x,1/2+y,1/2+z
1/2-x,1/2-y,1/2+z
1/2+x,1/2-y,1/2-z
1/2-x,1/2+y,1/2-z
1/2-x,1/2-y,1/2-z
1/2+x,1/2+y,1/2-z
1/2-x,1/2+y,1/2+z
1/2+x,1/2-y,1/2+z
loop_
_atom_site_type_symbol
_atom_site_label
_atom_site_fract_x
_atom_site_fract_y
_atom_site_fract_z
Si Si1 0.194141 0.084791 0.268263
Si Si2 0.695849 0.167877 0.898233
Si Si3 0.292288 0.442781 0.355220
Si Si4 0.804739 0.307632 0.265872
Si Si5 0.788235 0.939893 0.500000
Si Si6 0.211501 0.777731 0.436077
Si Si7 0.213264 0.116173 0.615062
O O1 0.276517 0.065188 0.209365
O O2 0.185112 0.147399 0.258765
O O3 0.275737 0.083685 0.330295
O O4 0.000000 0.062153 0.271536
O O5 0.500000 0.164449 0.920232
O O6 0.757690 0.107818 0.893986
O O7 0.696400 0.185957 0.833073
O O8 0.780053 0.218416 0.927956
O O9 0.500000 0.443839 0.349579
O O10 0.233553 0.500000 0.375969
O O11 0.750000 0.250000 0.250000
O O12 0.000000 0.318138 0.246004
O O13 0.733888 0.911494 0.557237
O O14 0.000000 0.938262 0.500000
O O15 0.733901 0.000000 0.500000
O O16 0.249229 0.795052 0.500000
O O17 0.267383 0.822678 0.392009
O O18 0.000000 0.775037 0.430886
O O19 0.000000 0.115951 0.618190
#
# Coordination Sequence:
#
# PCOD9517647 Si02
#       7
#    16  16  16  16   8  16  16
#     4   9  17  28  44  65  91 122 156 191 228 274
#     4   9  18  30  46  69  91 116 154 197 236 278
#     4   9  18  32  48  67  93 125 156 186 231 290
#     4  10  18  28  42  64  94 122 151 186 230 281
#     4   9  16  24  36  60  95 131 164 197 236 280
#     4   9  15  25  43  65  90 118 151 192 237 280
#     4   9  15  25  40  62  93 127 159 194 237 277
#
# _framework density 22.329695000000001
#
# number of rings (size 3 to 8) (size 9 to 14) (size 15 to 20)
#    0.000    2.846    0.769    1.385    0.000    4.000 
#    0.000    3.077    0.000    0.923    0.000    3.769 
#    0.000    0.615    0.000    0.000    0.000    0.000 
#
# Total GULP energy -289698.991318 kJ/mol
# GULP energy per Si atom -5571.134448 kJ/mol
# Density = 2.227887 g / cm^3
# Si number density = 22.329695 Si / 1000 Ang^3
#
#
#
# Elastic Constant Matrix: (Units=GPa)
#
#
# Indices 1 2 3 4 5 6 
#
# 1 47.1762 6.3226 0.5883 0.0000 0.0000 0.0000
# 2 6.3226 134.3151 -5.5275 0.0000 0.0000 0.0000
# 3 0.5883 -5.5275 32.0839 0.0000 0.0000 0.0000
# 4 0.0000 0.0000 0.0000 22.2042 0.0000 0.0000
# 5 0.0000 0.0000 0.0000 0.0000 0.0366 0.0000
# 6 0.0000 0.0000 0.0000 0.0000 0.0000 -5.5016
#
#
#
# Elastic Compliance Matrix: (Units=1/GPa)
#
#
# Indices 1 2 3 4 5 6 
#
# 1 0.021342 -0.001028 -0.000568 0.000000 0.000000 0.000000
# 2 -0.001028 0.007548 0.001319 0.000000 0.000000 0.000000
# 3 -0.000568 0.001319 0.031406 0.000000 0.000003 0.000000
# 4 0.000000 0.000000 0.000000 0.045037 0.000001 0.000000
# 5 0.000000 0.000000 0.000003 0.000001 27.350655 -0.000002
# 6 0.000000 0.000000 0.000000 0.000000 -0.000002 -0.181765
#
#
# Mechanical properties :
#
#
# Convention : Reuss Voigt Hill
#
# Bulk Modulus (GPa) = 16.73883 24.03800 20.38841
# Shear Modulus (GPa) = 0.18319 17.49396 8.83857
#
# Velocity S-wave (km/s) = 0.28673 2.80203 1.99168
# Velocity P-wave (km/s) = 2.76082 4.61052 3.79994
#
# Compressibility (1/GPa) = 0.05974134
#
# Stress axis : x y z
#
# Youngs Moduli (GPa) = 46.85602 132.48789 31.84110
#
# Poissons Ratio (x) = 0.13620 0.01810
# Poissons Ratio (y) = 0.04817 -0.04201
# Poissons Ratio (z) = 0.02663 -0.17478
#
# Static dielectric constant tensor:
#      x y z
#    x 1.885440 0.000000 0.000000 
#    y 0.000000 1.844690 0.000000 
#    z 0.000000 0.000000 1.848020 
# 
# From -- ./inp_files/63533.got.cif
#   From: 2010.05.17/outbox.cif.g08.bks.cpg/sg71_32_cif.got.tgz:63533.got - 2010.06.03 16:22:01.
