data_PCOD9517284
_publ_section_title
;
Structure prediction by ZEFSAII (Michael W. Deem and Ramdas Pophale) SiO2 
 PCOD9517284
Probable space group: I M M M
;
_chemical_formula_sum "Si O2"
_cell_formula_units_Z 88
_cell_length_a 23.165924
_cell_length_b 16.913517
_cell_length_c 14.451583
_cell_angle_alpha 90.000000
_cell_angle_beta 90.000000
_cell_angle_gamma 90.000000
_cell_volume 5662.379500
_symmetry_space_group_name_H-M "I M M M"
_symmetry_group_IT_number 71
_symmetry_cell_setting 'orthorhombic'
loop_
_space_group_symop_operation_xyz
x,y,z
-x,-y,z
x,-y,-z
-x,y,-z
-x,-y,-z
x,y,-z
-x,y,z
x,-y,z
1/2+x,1/2+y,1/2+z
1/2-x,1/2-y,1/2+z
1/2+x,1/2-y,1/2-z
1/2-x,1/2+y,1/2-z
1/2-x,1/2-y,1/2-z
1/2+x,1/2+y,1/2-z
1/2-x,1/2+y,1/2+z
1/2+x,1/2-y,1/2+z
loop_
_atom_site_type_symbol
_atom_site_label
_atom_site_fract_x
_atom_site_fract_y
_atom_site_fract_z
Si Si1 0.829886 0.188049 0.177994
Si Si2 0.254760 0.826795 0.345306
Si Si3 0.100041 0.000000 0.387991
Si Si4 0.305111 0.221153 0.000000
Si Si5 0.063484 0.167318 0.686601
Si Si6 0.064714 0.728442 0.500000
Si Si7 0.202043 0.904670 0.000000
Si Si8 0.731958 0.500000 0.108215
O O1 0.775052 0.170703 0.244790
O O2 0.813359 0.276804 0.146675
O O3 0.886499 0.185071 0.240322
O O4 0.829735 0.127749 0.092343
O O5 0.210626 0.779122 0.413368
O O6 0.262340 0.918007 0.369581
O O7 0.071256 0.921791 0.348911
O O8 0.097376 0.000000 0.500000
O O9 0.166623 0.000000 0.352968
O O10 0.371003 0.190796 0.000000
O O11 0.261841 0.146388 0.000000
O O12 0.066700 0.219551 0.593471
O O13 0.000000 0.178534 0.727829
O O14 0.000000 0.689344 0.500000
O O15 0.208332 0.000000 0.000000
O O16 0.722426 0.500000 0.000000
#
# Coordination Sequence:
#
# PCOD9517284 Si02
#       8
#    16  16   8   8  16   8   8   8
#     4  10  21  36  49  67 100 133 176 210 242 278
#     4  10  19  31  52  75 100 131 156 207 256 301
#     4  11  19  28  43  74 114 135 154 195 247 308
#     4  10  16  35  52  74 107 125 155 202 260 303
#     4  11  21  32  49  72 101 136 168 199 245 302
#     4  10  18  29  48  77 105 126 154 193 253 319
#     4  10  24  36  50  68  94 139 181 213 238 277
#     4  11  18  27  52  81 108 127 151 193 265 320
#
# _framework density 15.541169999999999
#
# number of rings (size 3 to 8) (size 9 to 14) (size 15 to 20)
#    0.000    1.636    5.455    0.273    2.545    0.364 
#    0.000    0.455    0.000    0.818    0.000    0.636 
#    0.000    0.727    0.000    0.000    0.000    0.000 
#
# Total GULP energy -244955.027931 kJ/mol
# GULP energy per Si atom -5567.159726 kJ/mol
# Density = 1.550580 g / cm^3
# Si number density = 15.541170 Si / 1000 Ang^3
#
#
#
# Elastic Constant Matrix: (Units=GPa)
#
#
# Indices 1 2 3 4 5 6 
#
# 1 96.5460 35.7691 28.7962 0.0000 0.0000 0.0000
# 2 35.7691 90.5518 23.4671 0.0000 0.0000 0.0000
# 3 28.7962 23.4671 77.4051 0.0000 0.0000 0.0000
# 4 0.0000 0.0000 0.0000 14.8832 0.0000 0.0000
# 5 0.0000 0.0000 0.0000 0.0000 21.0533 0.0000
# 6 0.0000 0.0000 0.0000 0.0000 0.0000 2.7444
#
#
#
# Elastic Compliance Matrix: (Units=1/GPa)
#
#
# Indices 1 2 3 4 5 6 
#
# 1 0.012975 -0.004205 -0.003552 0.000000 0.000000 0.000000
# 2 -0.004205 0.013348 -0.002482 0.000000 0.000000 0.000000
# 3 -0.003552 -0.002482 0.014993 0.000000 0.000000 0.000000
# 4 0.000000 0.000000 0.000000 0.067190 0.000000 0.000000
# 5 0.000000 0.000000 0.000000 0.000000 0.047498 0.000000
# 6 0.000000 0.000000 0.000000 0.000000 0.000000 0.364375
#
#
# Mechanical properties :
#
#
# Convention : Reuss Voigt Hill
#
# Bulk Modulus (GPa) = 47.99118 48.95195 48.47156
# Shear Modulus (GPa) = 9.12736 19.50090 14.31413
#
# Velocity S-wave (km/s) = 2.42606 3.54614 3.03817
# Velocity P-wave (km/s) = 6.22854 6.95223 6.60031
#
# Compressibility (1/GPa) = 0.02083716
#
# Stress axis : x y z
#
# Youngs Moduli (GPa) = 77.07102 74.91958 66.69721
#
# Poissons Ratio (x) = 0.31502 0.23692
# Poissons Ratio (y) = 0.32406 0.16557
# Poissons Ratio (z) = 0.27377 0.18598
#
# Static dielectric constant tensor:
#      x y z
#    x 1.554690 0.000000 0.000000 
#    y 0.000000 1.488670 0.000000 
#    z 0.000000 0.000000 1.555190 
# 
# From -- ./inp_files/38053.got.cif
#   From: 2010.05.17/outbox.cif.g08.bks.cpg/sg71_20_cif.got.tgz:38053.got - 2010.06.03 16:22:01.
