data_PCOD9517885
_publ_section_title
;
Structure prediction by ZEFSAII (Michael W. Deem and Ramdas Pophale) SiO2 
 PCOD9517885
Probable space group: I M M M
;
_chemical_formula_sum "Si O2"
_cell_formula_units_Z 104
_cell_length_a 23.681735
_cell_length_b 27.446811
_cell_length_c 7.655115
_cell_angle_alpha 90.000000
_cell_angle_beta 90.000000
_cell_angle_gamma 90.000000
_cell_volume 4975.733690
_symmetry_space_group_name_H-M "I M M M"
_symmetry_group_IT_number 71
_symmetry_cell_setting 'orthorhombic'
loop_
_space_group_symop_operation_xyz
x,y,z
-x,-y,z
x,-y,-z
-x,y,-z
-x,-y,-z
x,y,-z
-x,y,z
x,-y,z
1/2+x,1/2+y,1/2+z
1/2-x,1/2-y,1/2+z
1/2+x,1/2-y,1/2-z
1/2-x,1/2+y,1/2-z
1/2-x,1/2-y,1/2-z
1/2+x,1/2+y,1/2-z
1/2-x,1/2+y,1/2+z
1/2+x,1/2-y,1/2+z
loop_
_atom_site_type_symbol
_atom_site_label
_atom_site_fract_x
_atom_site_fract_y
_atom_site_fract_z
Si Si1 0.434685 0.000000 0.286388
Si Si2 0.270516 0.803226 0.708523
Si Si3 0.171442 0.871085 0.289768
Si Si4 0.119694 0.598323 0.791465
Si Si5 0.898911 0.298561 0.211335
Si Si6 0.261040 0.944625 0.207712
Si Si7 0.062803 0.811049 0.292138
O O1 0.405655 0.951285 0.219058
O O2 0.500000 0.000000 0.244621
O O3 0.429373 0.000000 0.500000
O O4 0.273480 0.811648 0.500000
O O5 0.250000 0.750000 0.750000
O O6 0.222164 0.837668 0.782001
O O7 0.334156 0.802696 0.772508
O O8 0.169165 0.866662 0.500000
O O9 0.198509 0.924051 0.253102
O O10 0.112656 0.847042 0.225030
O O11 0.084886 0.646445 0.731689
O O12 0.187739 0.591196 0.767338
O O13 0.112428 0.599091 0.000000
O O14 0.923682 0.246769 0.269570
O O15 0.902201 0.296490 0.000000
O O16 0.269526 0.000000 0.276415
O O17 0.265008 0.946312 0.000000
O O18 0.060570 0.819083 0.500000
O O19 0.000000 0.820589 0.219783
#
# Coordination Sequence:
#
# PCOD9517885 Si02
#       7
#     8  16  16  16  16  16  16
#     4   9  18  32  53  77 101 141 194 237 268 305
#     4  10  18  29  48  77 107 135 172 213 259 312
#     4  10  20  36  57  80 107 142 182 223 272 328
#     4  10  19  34  56  80 109 146 188 231 273 320
#     4  10  20  32  50  80 111 141 181 224 267 317
#     4  11  23  36  54  84 116 140 172 224 285 341
#     4  10  22  39  57  79 110 148 187 224 267 326
#
# _framework density 20.901441999999999
#
# number of rings (size 3 to 8) (size 9 to 14) (size 15 to 20)
#    0.000    1.923    3.846    0.462    0.000    3.692 
#    0.000    1.538    0.000    1.385    0.000    3.231 
#    0.000    0.000    0.000    0.000    0.000    0.000 
#
# Total GULP energy -289533.595866 kJ/mol
# GULP energy per Si atom -5567.953767 kJ/mol
# Density = 2.085387 g / cm^3
# Si number density = 20.901442 Si / 1000 Ang^3
#
#
#
# Elastic Constant Matrix: (Units=GPa)
#
#
# Indices 1 2 3 4 5 6 
#
# 1 96.1775 17.7950 -3.0796 0.0000 0.0000 0.0000
# 2 17.7950 66.9620 -9.6199 0.0000 0.0000 0.0000
# 3 -3.0796 -9.6199 39.2741 0.0000 0.0000 0.0000
# 4 0.0000 0.0000 0.0000 11.8890 0.0000 0.0000
# 5 0.0000 0.0000 0.0000 0.0000 3.1373 0.0000
# 6 0.0000 0.0000 0.0000 0.0000 0.0000 15.8335
#
#
#
# Elastic Compliance Matrix: (Units=1/GPa)
#
#
# Indices 1 2 3 4 5 6 
#
# 1 0.010936 -0.002885 0.000151 0.000000 0.000000 0.000000
# 2 -0.002885 0.016239 0.003752 0.000000 0.000000 0.000000
# 3 0.000151 0.003752 0.026393 0.000000 0.000000 0.000000
# 4 0.000000 0.000000 0.000000 0.084112 0.000000 0.000000
# 5 0.000000 0.000000 0.000000 0.000000 0.318750 0.000000
# 6 0.000000 0.000000 0.000000 0.000000 0.000000 0.063157
#
#
# Mechanical properties :
#
#
# Convention : Reuss Voigt Hill
#
# Bulk Modulus (GPa) = 17.98428 23.62274 20.80351
# Shear Modulus (GPa) = 9.32687 19.32648 14.32668
#
# Velocity S-wave (km/s) = 2.11471 3.04410 2.62093
# Velocity P-wave (km/s) = 3.81912 4.86641 4.37422
#
# Compressibility (1/GPa) = 0.05560410
#
# Stress axis : x y z
#
# Youngs Moduli (GPa) = 91.44125 61.57878 37.88909
#
# Poissons Ratio (x) = 0.17763 -0.00572
# Poissons Ratio (y) = 0.26377 -0.14214
# Poissons Ratio (z) = -0.01381 -0.23101
#
# Static dielectric constant tensor:
#      x y z
#    x 1.832890 0.000000 0.000000 
#    y 0.000000 1.846910 0.000000 
#    z 0.000000 0.000000 1.771070 
# 
# From -- ./inp_files/13276.got.cif
#   From: 2010.05.17/outbox.cif.g08.bks.cpg/sg71_7_cif.got.tgz:13276.got - 2010.06.03 16:22:01.
