data_PCOD9517394
_publ_section_title
;
Structure prediction by ZEFSAII (Michael W. Deem and Ramdas Pophale) SiO2 
 PCOD9517394
Probable space group: I M M M
;
_chemical_formula_sum "Si O2"
_cell_formula_units_Z 80
_cell_length_a 17.511130
_cell_length_b 7.297027
_cell_length_c 29.421142
_cell_angle_alpha 90.000000
_cell_angle_beta 90.000000
_cell_angle_gamma 90.000000
_cell_volume 3759.409647
_symmetry_space_group_name_H-M "I M M M"
_symmetry_group_IT_number 71
_symmetry_cell_setting 'orthorhombic'
loop_
_space_group_symop_operation_xyz
x,y,z
-x,-y,z
x,-y,-z
-x,y,-z
-x,-y,-z
x,y,-z
-x,y,z
x,-y,z
1/2+x,1/2+y,1/2+z
1/2-x,1/2-y,1/2+z
1/2+x,1/2-y,1/2-z
1/2-x,1/2+y,1/2-z
1/2-x,1/2-y,1/2-z
1/2+x,1/2+y,1/2-z
1/2-x,1/2+y,1/2+z
1/2+x,1/2-y,1/2+z
loop_
_atom_site_type_symbol
_atom_site_label
_atom_site_fract_x
_atom_site_fract_y
_atom_site_fract_z
Si Si1 0.850310 0.720764 0.220844
Si Si2 0.000000 0.722129 0.935018
Si Si3 0.261187 0.275480 0.858849
Si Si4 0.327472 0.776869 0.549380
Si Si5 0.000000 0.722012 0.168886
Si Si6 0.587011 0.286867 0.820460
O O1 0.845716 0.500000 0.222312
O O2 0.781581 0.782150 0.188036
O O3 0.924853 0.781906 0.193806
O O4 0.869502 0.778668 0.271918
O O5 0.916522 0.781590 0.951314
O O6 0.000000 0.500000 0.940422
O O7 0.000000 0.774253 0.882680
O O8 0.259541 0.500000 0.858812
O O9 0.216194 0.218206 0.904597
O O10 0.349239 0.213579 0.855386
O O11 0.293733 0.725317 0.500000
O O12 0.328016 0.000000 0.551419
O O13 0.000000 0.500000 0.169970
O O14 0.500000 0.210705 0.817802
O O15 0.578380 0.500000 0.831535
#
# Coordination Sequence:
#
# PCOD9517394 Si02
#       6
#    16   8  16  16   8  16
#     4  10  17  28  46  64  84 112 144 174 206 246
#     4   9  13  20  33  55  85 112 134 161 207 255
#     4   9  17  28  41  58  82 113 143 172 211 253
#     4   9  15  22  35  56  82 110 138 169 207 253
#     4   9  14  21  37  60  85 110 131 163 208 246
#     4  10  20  31  42  59  86 117 145 174 209 248
#
# _framework density 21.279934999999998
#
# number of rings (size 3 to 8) (size 9 to 14) (size 15 to 20)
#    0.000    2.600    3.000    0.900    0.000    1.200 
#    0.000    0.000    0.000    0.600    0.000    4.200 
#    0.000    3.200    0.000    6.000    0.000    6.400 
#
# Total GULP energy -222936.156151 kJ/mol
# GULP energy per Si atom -5573.403904 kJ/mol
# Density = 2.123150 g / cm^3
# Si number density = 21.279935 Si / 1000 Ang^3
#
#
#
# Elastic Constant Matrix: (Units=GPa)
#
#
# Indices 1 2 3 4 5 6 
#
# 1 189.0107 6.6385 92.8335 0.0000 0.0000 0.0000
# 2 6.6385 87.2643 -7.1433 0.0000 0.0000 0.0000
# 3 92.8335 -7.1433 108.4009 0.0000 0.0000 0.0000
# 4 0.0000 0.0000 0.0000 3.6607 0.0000 0.0000
# 5 0.0000 0.0000 0.0000 0.0000 2.7536 0.0000
# 6 0.0000 0.0000 0.0000 0.0000 0.0000 42.1286
#
#
#
# Elastic Compliance Matrix: (Units=1/GPa)
#
#
# Indices 1 2 3 4 5 6 
#
# 1 0.009291 -0.001365 -0.008046 0.000000 0.000000 0.000000
# 2 -0.001365 0.011722 0.001942 0.000000 0.000000 0.000000
# 3 -0.008046 0.001942 0.016244 0.000000 0.000000 0.000000
# 4 0.000000 0.000000 0.000000 0.273169 0.000000 0.000000
# 5 0.000000 0.000000 0.000000 0.000000 0.363166 0.000000
# 6 0.000000 0.000000 0.000000 0.000000 0.000000 0.023737
#
#
# Mechanical properties :
#
#
# Convention : Reuss Voigt Hill
#
# Bulk Modulus (GPa) = 44.80954 63.25928 54.03441
# Shear Modulus (GPa) = 6.94726 29.19839 18.07282
#
# Velocity S-wave (km/s) = 1.80881 3.70822 2.91742
# Velocity P-wave (km/s) = 5.04631 6.93731 6.06595
#
# Compressibility (1/GPa) = 0.02231668
#
# Stress axis : x y z
#
# Youngs Moduli (GPa) = 107.63426 85.30777 61.56162
#
# Poissons Ratio (x) = 0.11648 0.49535
# Poissons Ratio (y) = 0.14697 -0.11954
# Poissons Ratio (z) = 0.86608 -0.16565
#
# Static dielectric constant tensor:
#      x y z
#    x 1.781620 0.000000 0.000000 
#    y 0.000000 2.079710 0.000000 
#    z 0.000000 0.000000 1.751040 
# 
# From -- ./inp_files/16561.got.cif
#   From: 2010.05.17/outbox.cif.g08.bks.cpg/sg71_9_cif.got.tgz:16561.got - 2010.06.03 16:22:01.
