data_PCOD9517732
_publ_section_title
;
Structure prediction by ZEFSAII (Michael W. Deem and Ramdas Pophale) SiO2 
 PCOD9517732
Probable space group: I M M M
;
_chemical_formula_sum "Si O2"
_cell_formula_units_Z 112
_cell_length_a 14.665072
_cell_length_b 16.584989
_cell_length_c 22.683073
_cell_angle_alpha 90.000000
_cell_angle_beta 90.000000
_cell_angle_gamma 90.000000
_cell_volume 5516.978326
_symmetry_space_group_name_H-M "I M M M"
_symmetry_group_IT_number 71
_symmetry_cell_setting 'orthorhombic'
loop_
_space_group_symop_operation_xyz
x,y,z
-x,-y,z
x,-y,-z
-x,y,-z
-x,-y,-z
x,y,-z
-x,y,z
x,-y,z
1/2+x,1/2+y,1/2+z
1/2-x,1/2-y,1/2+z
1/2+x,1/2-y,1/2-z
1/2-x,1/2+y,1/2-z
1/2-x,1/2-y,1/2-z
1/2+x,1/2+y,1/2-z
1/2-x,1/2+y,1/2+z
1/2+x,1/2-y,1/2+z
loop_
_atom_site_type_symbol
_atom_site_label
_atom_site_fract_x
_atom_site_fract_y
_atom_site_fract_z
Si Si1 0.106675 0.285778 0.069913
Si Si2 0.393702 0.265545 0.902039
Si Si3 0.783766 0.415513 0.289220
Si Si4 0.397274 0.351053 0.662123
Si Si5 0.601154 0.220744 0.234881
Si Si6 0.890291 0.411903 0.590162
Si Si7 0.257575 0.591381 0.929477
O O1 0.126763 0.204447 0.105994
O O2 0.167886 0.360218 0.091256
O O3 0.000000 0.303092 0.079397
O O4 0.121694 0.273832 0.000000
O O5 0.500000 0.274679 0.917678
O O6 0.387392 0.255165 0.831104
O O7 0.360623 0.178778 0.928826
O O8 0.338391 0.344801 0.918633
O O9 0.787537 0.500000 0.256435
O O10 0.686585 0.407543 0.321218
O O11 0.815885 0.339501 0.251913
O O12 0.857469 0.415244 0.342192
O O13 0.500000 0.385156 0.654406
O O14 0.400397 0.290645 0.717472
O O15 0.500000 0.181416 0.237209
O O16 0.860686 0.500000 0.565221
O O17 0.000000 0.410322 0.585902
O O18 0.269248 0.500000 0.906159
O O19 0.248699 0.584107 0.000000
#
# Coordination Sequence:
#
# PCOD9517732 Si02
#       7
#    16  16  16  16  16  16  16
#     4   9  18  34  56  76  93 123 169 216 259 299
#     4   9  17  31  51  72  98 134 171 206 249 305
#     4  10  18  28  47  73 101 132 162 199 249 302
#     4  10  20  34  51  72 102 136 170 209 251 301
#     4   9  18  33  52  73  99 133 170 208 252 299
#     4   8  14  26  47  74  98 122 158 204 253 303
#     4  10  21  35  51  73 102 136 174 217 259 299
#
# _framework density 20.300968000000001
#
# number of rings (size 3 to 8) (size 9 to 14) (size 15 to 20)
#    0.000    2.714    0.000    3.429    0.000    2.000 
#    0.000    5.000    0.000    6.000    0.000   10.000 
#    0.000    0.000    0.000    1.429    0.000    0.286 
#
# Total GULP energy -311849.476222 kJ/mol
# GULP energy per Si atom -5568.740647 kJ/mol
# Density = 2.025476 g / cm^3
# Si number density = 20.300968 Si / 1000 Ang^3
#
#
#
# Elastic Constant Matrix: (Units=GPa)
#
#
# Indices 1 2 3 4 5 6 
#
# 1 58.7867 32.2054 2.3611 0.0000 0.0000 0.0000
# 2 32.2054 86.7352 6.4445 0.0000 0.0000 0.0000
# 3 2.3611 6.4445 36.4259 0.0000 0.0000 0.0000
# 4 0.0000 0.0000 0.0000 -35.1010 0.0000 0.0000
# 5 0.0000 0.0000 0.0000 0.0000 14.3216 0.0000
# 6 0.0000 0.0000 0.0000 0.0000 0.0000 7.4000
#
#
#
# Elastic Compliance Matrix: (Units=1/GPa)
#
#
# Indices 1 2 3 4 5 6 
#
# 1 0.021354 -0.007930 0.000019 0.000000 0.000000 0.000000
# 2 -0.007930 0.014628 -0.002074 0.000000 0.000000 0.000000
# 3 0.000019 -0.002074 0.027819 0.000000 0.000000 0.000000
# 4 0.000000 0.000000 0.000000 -0.028489 0.000000 0.000000
# 5 0.000000 0.000000 0.000000 0.000000 0.069824 0.000000
# 6 0.000000 0.000000 0.000000 0.000000 0.000000 0.135135
#
#
# Mechanical properties :
#
#
# Convention : Reuss Voigt Hill
#
# Bulk Modulus (GPa) = 22.81537 29.32999 26.07268
# Shear Modulus (GPa) = 18.19159 6.71991 12.45575
#
# Velocity S-wave (km/s) = 2.99673 1.82135 2.47969
# Velocity P-wave (km/s) = 4.82046 4.34765 4.59015
#
# Compressibility (1/GPa) = 0.04383010
#
# Stress axis : x y z
#
# Youngs Moduli (GPa) = 46.82860 68.36163 35.94709
#
# Poissons Ratio (x) = 0.54214 -0.00068
# Poissons Ratio (y) = 0.37137 0.07455
# Poissons Ratio (z) = -0.00088 0.14178
#
# Static dielectric constant tensor:
#      x y z
#    x 1.763100 0.000000 0.000000 
#    y 0.000000 1.811740 0.000000 
#    z 0.000000 0.000000 1.745450 
# 
# From -- ./inp_files/35092.got.cif
#   From: 2010.05.17/outbox.cif.g08.bks.cpg/sg71_18_cif.got.tgz:35092.got - 2010.06.03 16:22:01.
