data_PCOD9517372
_publ_section_title
;
Structure prediction by ZEFSAII (Michael W. Deem and Ramdas Pophale) SiO2 
 PCOD9517372
Probable space group: I M M M
;
_chemical_formula_sum "Si O2"
_cell_formula_units_Z 104
_cell_length_a 9.051522
_cell_length_b 30.921575
_cell_length_c 22.990298
_cell_angle_alpha 90.000000
_cell_angle_beta 90.000000
_cell_angle_gamma 90.000000
_cell_volume 6434.692810
_symmetry_space_group_name_H-M "I M M M"
_symmetry_group_IT_number 71
_symmetry_cell_setting 'orthorhombic'
loop_
_space_group_symop_operation_xyz
x,y,z
-x,-y,z
x,-y,-z
-x,y,-z
-x,-y,-z
x,y,-z
-x,y,z
x,-y,z
1/2+x,1/2+y,1/2+z
1/2-x,1/2-y,1/2+z
1/2+x,1/2-y,1/2-z
1/2-x,1/2+y,1/2-z
1/2-x,1/2-y,1/2-z
1/2+x,1/2+y,1/2-z
1/2-x,1/2+y,1/2+z
1/2+x,1/2-y,1/2+z
loop_
_atom_site_type_symbol
_atom_site_label
_atom_site_fract_x
_atom_site_fract_y
_atom_site_fract_z
Si Si1 0.322469 0.950118 0.283516
Si Si2 0.320301 0.549736 0.000000
Si Si3 0.322333 0.049838 0.851696
Si Si4 0.321314 0.396733 0.114797
Si Si5 0.170705 0.289634 0.570678
Si Si6 0.823873 0.121701 0.931731
Si Si7 0.180015 0.805292 0.567455
O O1 0.500000 0.946940 0.288477
O O2 0.284147 0.941983 0.215999
O O3 0.245736 0.918051 0.328095
O O4 0.281287 0.000000 0.297023
O O5 0.275843 0.575320 0.941908
O O6 0.269742 0.500000 0.000000
O O7 0.500000 0.549356 0.000000
O O8 0.500000 0.053204 0.856795
O O9 0.246458 0.083878 0.893754
O O10 0.281917 0.000000 0.865134
O O11 0.500000 0.397880 0.117748
O O12 0.275169 0.347105 0.103885
O O13 0.171157 0.287746 0.500000
O O14 0.263548 0.331413 0.587756
O O15 0.226935 0.242175 0.589169
O O16 0.000000 0.295134 0.588909
O O17 0.000000 0.120813 0.927350
O O18 0.783401 0.116385 0.000000
O O19 0.225795 0.811173 0.500000
O O20 0.000000 0.804189 0.566815
#
# Coordination Sequence:
#
# PCOD9517372 Si02
#       7
#    16   8  16  16  16  16  16
#     4   9  19  35  50  65  90 124 161 200 239 278
#     4   9  16  24  37  63  97 127 155 193 240 285
#     4   9  19  36  55  71  90 123 164 197 225 269
#     4  10  17  27  46  70  95 123 160 203 242 283
#     4   8  14  26  46  68  92 126 163 191 222 273
#     4  10  20  32  48  75 107 128 144 179 235 284
#     4   8  13  24  43  68  95 123 158 201 240 273
#
# _framework density 16.162388
#
# number of rings (size 3 to 8) (size 9 to 14) (size 15 to 20)
#    0.000    3.000    0.769    2.769    0.000    3.077 
#    0.000    4.231    0.000    3.231    0.000    0.000 
#    0.000    0.000    0.000    0.000    0.000    0.000 
#
# Total GULP energy -289655.309548 kJ/mol
# GULP energy per Si atom -5570.294414 kJ/mol
# Density = 1.612560 g / cm^3
# Si number density = 16.162388 Si / 1000 Ang^3
#
#
#
# Elastic Constant Matrix: (Units=GPa)
#
#
# Indices 1 2 3 4 5 6 
#
# 1 20.4295 49.0015 33.4490 0.0000 0.0000 0.0000
# 2 49.0015 184.7790 91.2210 0.0000 0.0000 0.0000
# 3 33.4490 91.2210 72.8256 0.0000 0.0000 0.0000
# 4 0.0000 0.0000 0.0000 16.1697 0.0000 0.0000
# 5 0.0000 0.0000 0.0000 0.0000 23.4152 0.0000
# 6 0.0000 0.0000 0.0000 0.0000 0.0000 18.5773
#
#
#
# Elastic Compliance Matrix: (Units=1/GPa)
#
#
# Indices 1 2 3 4 5 6 
#
# 1 0.229850 -0.023154 -0.076568 0.000000 0.000000 0.000000
# 2 -0.023154 0.016514 -0.010050 0.000000 0.000000 0.000000
# 3 -0.076568 -0.010050 0.061488 0.000000 0.000000 0.000000
# 4 0.000000 0.000000 0.000000 0.061844 0.000000 0.000000
# 5 0.000000 0.000000 0.000000 0.000000 0.042707 0.000000
# 6 0.000000 0.000000 0.000000 0.000000 0.000000 0.053829
#
#
# Mechanical properties :
#
#
# Convention : Reuss Voigt Hill
#
# Bulk Modulus (GPa) = 11.32414 69.48636 40.40525
# Shear Modulus (GPa) = 6.99093 18.58995 12.79044
#
# Velocity S-wave (km/s) = 2.08202 3.39514 2.81618
# Velocity P-wave (km/s) = 3.57791 7.64560 5.96895
#
# Compressibility (1/GPa) = 0.08830696
#
# Stress axis : x y z
#
# Youngs Moduli (GPa) = 4.35067 60.55628 16.26324
#
# Poissons Ratio (x) = 1.40211 1.24525
# Poissons Ratio (y) = 0.10073 0.16345
# Poissons Ratio (z) = 0.33312 0.60860
#
# Static dielectric constant tensor:
#      x y z
#    x 1.537920 0.000000 0.000000 
#    y 0.000000 1.555230 0.000000 
#    z 0.000000 0.000000 1.517520 
# 
# From -- ./inp_files/58217.got.cif
#   From: 2010.05.17/outbox.cif.g08.bks.cpg/sg71_30_cif.got.tgz:58217.got - 2010.06.03 16:22:01.
