data_PCOD9517832
_publ_section_title
;
Structure prediction by ZEFSAII (Michael W. Deem and Ramdas Pophale) SiO2 
 PCOD9517832
Probable space group: I M M M
;
_chemical_formula_sum "Si O2"
_cell_formula_units_Z 104
_cell_length_a 25.258385
_cell_length_b 8.481639
_cell_length_c 23.475496
_cell_angle_alpha 90.000000
_cell_angle_beta 90.000000
_cell_angle_gamma 90.000000
_cell_volume 5029.214274
_symmetry_space_group_name_H-M "I M M M"
_symmetry_group_IT_number 71
_symmetry_cell_setting 'orthorhombic'
loop_
_space_group_symop_operation_xyz
x,y,z
-x,-y,z
x,-y,-z
-x,y,-z
-x,-y,-z
x,y,-z
-x,y,z
x,-y,z
1/2+x,1/2+y,1/2+z
1/2-x,1/2-y,1/2+z
1/2+x,1/2-y,1/2-z
1/2-x,1/2+y,1/2-z
1/2-x,1/2-y,1/2-z
1/2+x,1/2+y,1/2-z
1/2-x,1/2+y,1/2+z
1/2+x,1/2-y,1/2+z
loop_
_atom_site_type_symbol
_atom_site_label
_atom_site_fract_x
_atom_site_fract_y
_atom_site_fract_z
Si Si1 0.721031 0.690603 0.064487
Si Si2 0.439165 0.807347 0.000000
Si Si3 0.382975 0.812357 0.114760
Si Si4 0.166575 0.321887 0.103350
Si Si5 0.806297 0.679442 0.763507
Si Si6 0.941710 0.810050 0.143850
Si Si7 0.412997 0.318638 0.769787
O O1 0.722731 0.500000 0.069035
O O2 0.677631 0.751055 0.109484
O O3 0.781501 0.749358 0.073244
O O4 0.704518 0.733677 0.000000
O O5 0.410843 0.752393 0.057340
O O6 0.500000 0.760222 0.000000
O O7 0.437147 0.000000 0.000000
O O8 0.417975 0.763770 0.169364
O O9 0.380504 0.000000 0.113724
O O10 0.159421 0.500000 0.081418
O O11 0.185009 0.328661 0.169027
O O12 0.108782 0.243435 0.107087
O O13 0.813271 0.500000 0.741057
O O14 0.750000 0.750000 0.750000
O O15 0.850428 0.797127 0.740327
O O16 0.936419 0.753478 0.210169
O O17 0.000000 0.762380 0.122634
O O18 0.939690 0.000000 0.146533
O O19 0.429025 0.500000 0.774718
#
# Coordination Sequence:
#
# PCOD9517832 Si02
#       7
#    16   8  16  16  16  16  16
#     4  10  20  35  56  80 110 144 178 223 278 328
#     4   9  20  38  55  73 103 141 180 225 272 319
#     4  11  21  35  55  79 106 140 184 228 272 321
#     4   9  19  33  50  76 105 136 175 217 264 323
#     4  10  18  29  46  71 104 137 170 209 258 316
#     4   9  19  36  56  78 106 140 176 218 270 324
#     4  10  20  33  50  73 103 136 172 215 263 317
#
# _framework density 20.679174
#
# number of rings (size 3 to 8) (size 9 to 14) (size 15 to 20)
#    0.000    2.231    0.769    2.308    0.000    4.000 
#    0.000    0.000    0.000    3.692    0.000    3.231 
#    0.000    0.000    0.000    0.000    0.000    0.000 
#
# Total GULP energy -289867.758096 kJ/mol
# GULP energy per Si atom -5574.379963 kJ/mol
# Density = 2.063211 g / cm^3
# Si number density = 20.679174 Si / 1000 Ang^3
#
#
#
# Elastic Constant Matrix: (Units=GPa)
#
#
# Indices 1 2 3 4 5 6 
#
# 1 113.0879 8.7056 -8.6139 0.0000 0.0000 0.0000
# 2 8.7056 29.4690 0.1820 0.0000 0.0000 0.0000
# 3 -8.6139 0.1820 33.5399 0.0000 0.0000 0.0000
# 4 0.0000 0.0000 0.0000 17.8415 0.0000 0.0000
# 5 0.0000 0.0000 0.0000 0.0000 23.7546 0.0000
# 6 0.0000 0.0000 0.0000 0.0000 0.0000 16.6176
#
#
#
# Elastic Compliance Matrix: (Units=1/GPa)
#
#
# Indices 1 2 3 4 5 6 
#
# 1 0.009236 -0.002743 0.002387 0.000000 0.000000 0.000000
# 2 -0.002743 0.034750 -0.000893 0.000000 0.000000 0.000000
# 3 0.002387 -0.000893 0.030433 0.000000 0.000000 0.000000
# 4 0.000000 0.000000 0.000000 0.056049 0.000000 0.000000
# 5 0.000000 0.000000 0.000000 0.000000 0.042097 0.000000
# 6 0.000000 0.000000 0.000000 0.000000 0.000000 0.060177
#
#
# Mechanical properties :
#
#
# Convention : Reuss Voigt Hill
#
# Bulk Modulus (GPa) = 13.90434 19.62712 16.76573
# Shear Modulus (GPa) = 19.28909 23.36428 21.32669
#
# Velocity S-wave (km/s) = 3.05746 3.36496 3.21489
# Velocity P-wave (km/s) = 4.38206 4.96076 4.68037
#
# Compressibility (1/GPa) = 0.07191999
#
# Stress axis : x y z
#
# Youngs Moduli (GPa) = 108.27609 28.77711 32.85897
#
# Poissons Ratio (x) = 0.07894 -0.07843
# Poissons Ratio (y) = 0.29701 0.02934
# Poissons Ratio (z) = -0.25844 0.02570
#
# Static dielectric constant tensor:
#      x y z
#    x 1.757680 0.000000 0.000000 
#    y 0.000000 1.736060 0.000000 
#    z 0.000000 0.000000 1.780190 
# 
# From -- ./inp_files/13254.got.cif
#   From: 2010.05.17/outbox.cif.g08.bks.cpg/sg71_7_cif.got.tgz:13254.got - 2010.06.03 16:22:01.
