data_PCOD9517850
_publ_section_title
;
Structure prediction by ZEFSAII (Michael W. Deem and Ramdas Pophale) SiO2 
 PCOD9517850
Probable space group: I M M M
;
_chemical_formula_sum "Si O2"
_cell_formula_units_Z 128
_cell_length_a 21.432936
_cell_length_b 20.725002
_cell_length_c 17.772376
_cell_angle_alpha 90.000000
_cell_angle_beta 90.000000
_cell_angle_gamma 90.000000
_cell_volume 7894.447502
_symmetry_space_group_name_H-M "I M M M"
_symmetry_group_IT_number 71
_symmetry_cell_setting 'orthorhombic'
loop_
_space_group_symop_operation_xyz
x,y,z
-x,-y,z
x,-y,-z
-x,y,-z
-x,-y,-z
x,y,-z
-x,y,z
x,-y,z
1/2+x,1/2+y,1/2+z
1/2-x,1/2-y,1/2+z
1/2+x,1/2-y,1/2-z
1/2-x,1/2+y,1/2-z
1/2-x,1/2-y,1/2-z
1/2+x,1/2+y,1/2-z
1/2-x,1/2+y,1/2+z
1/2+x,1/2-y,1/2+z
loop_
_atom_site_type_symbol
_atom_site_label
_atom_site_fract_x
_atom_site_fract_y
_atom_site_fract_z
Si Si1 0.655693 0.675671 0.088699
Si Si2 0.781011 0.429987 0.257379
Si Si3 0.360212 0.425753 0.307906
Si Si4 0.070190 0.292012 0.590149
Si Si5 0.183504 0.186204 0.086974
Si Si6 0.684607 0.115607 0.085365
Si Si7 0.222418 0.296665 0.184887
Si Si8 0.069967 0.923015 0.340896
O O1 0.607236 0.729638 0.118841
O O2 0.720234 0.682697 0.131823
O O3 0.620906 0.609312 0.106034
O O4 0.665710 0.685337 0.000000
O O5 0.796862 0.500000 0.223137
O O6 0.705823 0.424568 0.263204
O O7 0.802604 0.429561 0.344240
O O8 0.803628 0.363475 0.219340
O O9 0.369009 0.500000 0.334244
O O10 0.352084 0.373288 0.373326
O O11 0.411866 0.408803 0.245843
O O12 0.064934 0.283095 0.500000
O O13 0.118295 0.350610 0.599053
O O14 0.000000 0.300101 0.619869
O O15 0.257658 0.166752 0.088664
O O16 0.177484 0.251031 0.135810
O O17 0.166233 0.193977 0.000000
O O18 0.685970 0.088869 0.000000
O O19 0.250000 0.250000 0.250000
O O20 0.000000 0.900356 0.358682
O O21 0.071940 0.000000 0.348376
#
# Coordination Sequence:
#
# PCOD9517850 Si02
#       8
#    16  16  16  16  16  16  16  16
#     4  11  20  30  44  63  91 125 162 203 238 271
#     4  10  19  30  46  65  90 122 155 196 240 283
#     4   9  17  31  48  69  94 122 155 191 238 288
#     4   9  16  26  41  62  89 119 150 184 222 266
#     4  10  18  29  47  71  94 119 151 195 243 286
#     4   9  16  28  45  68  93 118 151 188 234 279
#     4  12  18  30  48  68  92 124 157 198 241 290
#     4  10  20  33  47  63  88 125 167 203 232 272
#
# _framework density 16.213927000000002
#
# number of rings (size 3 to 8) (size 9 to 14) (size 15 to 20)
#    0.000    2.000    5.000    0.750    0.000    1.500 
#    0.000    3.125    0.000    1.875    0.000    3.500 
#    0.000    0.000    0.000    0.000    0.000    0.125 
#
# Total GULP energy -356418.237405 kJ/mol
# GULP energy per Si atom -5569.034959 kJ/mol
# Density = 1.617702 g / cm^3
# Si number density = 16.213927 Si / 1000 Ang^3
#
#
#
# Elastic Constant Matrix: (Units=GPa)
#
#
# Indices 1 2 3 4 5 6 
#
# 1 29.5536 -1.6092 5.0244 0.0000 0.0000 0.0000
# 2 -1.6092 86.5837 36.7945 0.0000 0.0000 0.0000
# 3 5.0244 36.7945 62.6608 0.0000 0.0000 0.0000
# 4 0.0000 0.0000 0.0000 16.4499 0.0000 0.0000
# 5 0.0000 0.0000 0.0000 0.0000 9.9304 0.0000
# 6 0.0000 0.0000 0.0000 0.0000 0.0000 10.8752
#
#
#
# Elastic Compliance Matrix: (Units=1/GPa)
#
#
# Indices 1 2 3 4 5 6 
#
# 1 0.034685 0.002434 -0.004210 0.000000 0.000000 0.000000
# 2 0.002434 0.015561 -0.009332 0.000000 0.000000 0.000000
# 3 -0.004210 -0.009332 0.021777 0.000000 0.000000 0.000000
# 4 0.000000 0.000000 0.000000 0.060791 0.000000 0.000000
# 5 0.000000 0.000000 0.000000 0.000000 0.100701 0.000000
# 6 0.000000 0.000000 0.000000 0.000000 0.000000 0.091952
#
#
# Mechanical properties :
#
#
# Convention : Reuss Voigt Hill
#
# Bulk Modulus (GPa) = 20.07848 28.80193 24.44021
# Shear Modulus (GPa) = 13.72550 16.69033 15.20791
#
# Velocity S-wave (km/s) = 2.91267 3.21188 3.06593
# Velocity P-wave (km/s) = 4.87051 5.61758 5.25733
#
# Compressibility (1/GPa) = 0.04980456
#
# Stress axis : x y z
#
# Youngs Moduli (GPa) = 28.83082 64.26474 45.92100
#
# Poissons Ratio (x) = -0.15641 0.19334
# Poissons Ratio (y) = -0.07017 0.42855
# Poissons Ratio (z) = 0.12139 0.59974
#
# Static dielectric constant tensor:
#      x y z
#    x 1.543120 0.000000 0.000000 
#    y 0.000000 1.597570 0.000000 
#    z 0.000000 0.000000 1.554460 
# 
# From -- ./inp_files/47728.got.cif
#   From: 2010.05.17/outbox.cif.g08.bks.cpg/sg71_24_cif.got.tgz:47728.got - 2010.06.03 16:22:01.
