data_PCOD9517261
_publ_section_title
;
Structure prediction by ZEFSAII (Michael W. Deem and Ramdas Pophale) SiO2 
 PCOD9517261
Probable space group: I M M M
;
_chemical_formula_sum "Si O2"
_cell_formula_units_Z 104
_cell_length_a 14.576547
_cell_length_b 18.193558
_cell_length_c 16.428930
_cell_angle_alpha 90.000000
_cell_angle_beta 90.000000
_cell_angle_gamma 90.000000
_cell_volume 4356.939968
_symmetry_space_group_name_H-M "I M M M"
_symmetry_group_IT_number 71
_symmetry_cell_setting 'orthorhombic'
loop_
_space_group_symop_operation_xyz
x,y,z
-x,-y,z
x,-y,-z
-x,y,-z
-x,-y,-z
x,y,-z
-x,y,z
x,-y,z
1/2+x,1/2+y,1/2+z
1/2-x,1/2-y,1/2+z
1/2+x,1/2-y,1/2-z
1/2-x,1/2+y,1/2-z
1/2-x,1/2-y,1/2-z
1/2+x,1/2+y,1/2-z
1/2-x,1/2+y,1/2+z
1/2+x,1/2-y,1/2+z
loop_
_atom_site_type_symbol
_atom_site_label
_atom_site_fract_x
_atom_site_fract_y
_atom_site_fract_z
Si Si1 0.148366 0.301338 0.132289
Si Si2 0.861082 0.798820 0.596768
Si Si3 0.364237 0.582536 0.769256
Si Si4 0.140952 0.579285 0.756785
Si Si5 0.863162 0.860791 0.090850
Si Si6 0.639231 0.131468 0.911619
Si Si7 0.391519 0.079422 0.500000
O O1 0.256576 0.288729 0.127727
O O2 0.112238 0.338985 0.213629
O O3 0.108516 0.224781 0.102270
O O4 0.134107 0.370990 0.075056
O O5 0.863241 0.821719 0.500000
O O6 0.895611 0.858668 0.662340
O O7 0.895956 0.715265 0.598276
O O8 0.393059 0.500000 0.790100
O O9 0.251952 0.581723 0.767652
O O10 0.391350 0.601005 0.675669
O O11 0.110238 0.500000 0.793109
O O12 0.114681 0.581035 0.663083
O O13 0.751680 0.865233 0.089090
O O14 0.892836 0.886027 0.000000
O O15 0.611700 0.104453 0.000000
O O16 0.500000 0.072031 0.500000
O O17 0.346374 0.000000 0.500000
#
# Coordination Sequence:
#
# PCOD9517261 Si02
#       7
#    16  16  16  16  16  16   8
#     4  10  16  29  41  54  70  97 135 166 195 241
#     4   9  15  25  38  53  72 106 142 166 187 221
#     4   9  17  24  32  54  80 100 128 166 195 217
#     4   9  16  23  34  52  74 103 130 158 196 230
#     4   9  15  25  40  52  69 101 135 162 193 227
#     4   8  14  23  35  52  75 101 134 164 185 214
#     4  11  22  32  42  58  79  97 119 167 222 250
#
# _framework density 23.869964
#
# number of rings (size 3 to 8) (size 9 to 14) (size 15 to 20)
#    0.000    2.846    1.538    2.308    0.000    5.231 
#    0.000    3.077    0.000    0.000    0.000    0.000 
#    0.000    1.846    0.000    3.231    0.000    3.692 
#
# Total GULP energy -289706.176553 kJ/mol
# GULP energy per Si atom -5571.272626 kJ/mol
# Density = 2.381564 g / cm^3
# Si number density = 23.869964 Si / 1000 Ang^3
#
#
#
# Elastic Constant Matrix: (Units=GPa)
#
#
# Indices 1 2 3 4 5 6 
#
# 1 81.9477 -9.4089 -16.8656 0.0000 0.0000 0.0000
# 2 -9.4089 61.3857 20.2368 0.0001 0.0000 0.0000
# 3 -16.8656 20.2368 132.2472 0.0001 0.0000 0.0000
# 4 0.0000 0.0001 0.0001 35.4030 0.0000 0.0000
# 5 0.0000 0.0000 0.0000 0.0000 105.8068 0.0000
# 6 0.0000 0.0000 0.0000 0.0000 0.0000 -12.4357
#
#
#
# Elastic Compliance Matrix: (Units=1/GPa)
#
#
# Indices 1 2 3 4 5 6 
#
# 1 0.012659 0.001483 0.001387 0.000000 0.000000 0.000000
# 2 0.001483 0.017330 -0.002463 0.000000 0.000000 0.000000
# 3 0.001387 -0.002463 0.008115 0.000000 0.000000 0.000000
# 4 0.000000 0.000000 0.000000 0.028246 0.000000 0.000000
# 5 0.000000 0.000000 0.000000 0.000000 0.009451 0.000000
# 6 0.000000 0.000000 0.000000 0.000000 0.000000 -0.080414
#
#
# Mechanical properties :
#
#
# Convention : Reuss Voigt Hill
#
# Bulk Modulus (GPa) = 25.69443 29.27836 27.48639
# Shear Modulus (GPa) = 662.70514 44.52938 353.61726
#
# Velocity S-wave (km/s) = 16.68035 4.32383 12.18461
# Velocity P-wave (km/s) = 19.53885 6.10080 14.47388
#
# Compressibility (1/GPa) = 0.03891894
#
# Stress axis : x y z
#
# Youngs Moduli (GPa) = 78.99692 57.70476 123.22267
#
# Poissons Ratio (x) = -0.08557 -0.17097
# Poissons Ratio (y) = -0.11714 0.30346
# Poissons Ratio (z) = -0.10961 0.14211
#
# Static dielectric constant tensor:
#      x y z
#    x 1.942850 0.000000 0.000000 
#    y 0.000000 1.999750 0.000000 
#    z 0.000000 0.000000 6.080870 
# 
# From -- ./inp_files/47530.got.cif
#   From: 2010.05.17/outbox.cif.g08.bks.cpg/sg71_24_cif.got.tgz:47530.got - 2010.06.03 16:22:01.
