data_PCOD9517160
_publ_section_title
;
Structure prediction by ZEFSAII (Michael W. Deem and Ramdas Pophale) SiO2 
 PCOD9517160
Probable space group: F D D D
;
_chemical_formula_sum "Si O2"
_cell_formula_units_Z 52
_cell_length_a 21.000000
_cell_length_b 30.000000
_cell_length_c 18.000000
_cell_angle_alpha 90.000000
_cell_angle_beta 90.000000
_cell_angle_gamma 90.000000
_cell_volume 11340.000000
_symmetry_space_group_name_H-M "F D D D"
_symmetry_group_IT_number 70
_space_group.IT_coordinate_system_code '2'
_symmetry_cell_setting 'orthorhombic'
loop_
_space_group_symop_operation_xyz
x,y,z
1/4-x,1/4-y,z
x,1/4-y,1/4-z
1/4-x,y,1/4-z
-x,-y,-z
3/4+x,3/4+y,-z
-x,3/4+y,3/4+z
3/4+x,-y,3/4+z
x,1/2+y,1/2+z
1/4-x,3/4-y,1/2+z
x,3/4-y,3/4-z
1/4-x,1/2+y,3/4-z
-x,1/2-y,1/2-z
3/4+x,1/4+y,1/2-z
-x,1/4+y,1/4+z
3/4+x,1/2-y,1/4+z
1/2+x,y,1/2+z
3/4-x,1/4-y,1/2+z
1/2+x,1/4-y,3/4-z
3/4-x,y,3/4-z
1/2-x,-y,1/2-z
1/4+x,3/4+y,1/2-z
1/2-x,3/4+y,1/4+z
1/4+x,-y,1/4+z
1/2+x,1/2+y,z
3/4-x,3/4-y,z
1/2+x,3/4-y,1/4-z
3/4-x,1/2+y,1/4-z
1/2-x,1/2-y,-z
1/4+x,1/4+y,-z
1/2-x,1/4+y,3/4+z
1/4+x,1/2-y,3/4+z
loop_
_atom_site_type_symbol
_atom_site_label
_atom_site_fract_x
_atom_site_fract_y
_atom_site_fract_z
Si Si1 0.076992 0.925375 0.185778
Si Si2 0.556682 0.707708 0.483648
Si Si3 0.625000 0.125000 0.338547
Si Si4 0.090685 0.378467 0.289244
Si Si5 0.756692 0.099803 0.408363
Si Si6 0.596224 0.777029 0.784811
Si Si7 0.720632 0.001358 0.133855
O O1 0.125000 0.945321 0.125000
O O2 0.117755 0.912187 0.257558
O O3 0.015490 0.953445 0.206314
O O4 0.049030 0.879933 0.147925
O O5 0.595937 0.664060 0.461592
O O6 0.591949 0.748769 0.444695
O O7 0.555704 0.716172 0.571413
O O8 0.683583 0.107284 0.387424
O O9 0.076177 0.375000 0.375000
O O10 0.133997 0.422205 0.276816
O O11 0.028471 0.383793 0.238758
O O12 0.772841 0.047973 0.400228
O O13 0.538897 0.769555 0.841053
O O14 0.570910 0.756180 0.707421
#
# Coordination Sequence:
#
# PCOD9517160 Si02
#       7
#    32  32  16  32  32  32  32
#     4   9  20  37  58  81 112 157 198 239 292 352
#     4  11  21  35  62  86 119 154 200 241 293 349
#     4  10  22  40  58  88 116 160 196 248 294 356
#     4  11  21  36  60  86 115 152 203 248 284 353
#     4  10  19  37  61  78 115 158 197 229 298 355
#     4  11  22  35  56  88 123 154 195 234 295 357
#     4  11  21  35  56  88 120 162 182 235 291 369
#
# _framework density 4.5855379999999997
#
# number of rings (size 3 to 8) (size 9 to 14) (size 15 to 20)
#    0.000    1.538    4.615    1.385    0.000    0.000 
#    0.000    6.538    3.385    3.692    0.000    0.000 
#    0.000    0.000    0.000    0.000    0.000    0.000 
#
# Total GULP energy -290134.003291 kJ/mol
# GULP energy per Si atom -5579.500063 kJ/mol
# Density = 0.457510 g / cm^3
# Si number density = 4.585538 Si / 1000 Ang^3
#
#
#
# Elastic Constant Matrix: (Units=GPa)
#
#
# Indices 1 2 3 4 5 6 
#
# 1 108.0535 23.7196 53.9172 0.0000 0.0000 0.0000
# 2 23.7196 23.2108 12.4807 0.0000 0.0000 0.0000
# 3 53.9172 12.4807 105.4925 0.0000 0.0000 0.0000
# 4 0.0000 0.0000 0.0000 9.0751 0.0000 0.0000
# 5 0.0000 0.0000 0.0000 0.0000 6.4632 0.0000
# 6 0.0000 0.0000 0.0000 0.0000 0.0000 12.1417
#
#
#
# Elastic Compliance Matrix: (Units=1/GPa)
#
#
# Indices 1 2 3 4 5 6 
#
# 1 0.015001 -0.011969 -0.006251 0.000000 0.000000 0.000000
# 2 -0.011969 0.055560 -0.000456 0.000000 0.000000 0.000000
# 3 -0.006251 -0.000456 0.012728 0.000000 0.000000 0.000000
# 4 0.000000 0.000000 0.000000 0.110192 0.000000 0.000000
# 5 0.000000 0.000000 0.000000 0.000000 0.154722 0.000000
# 6 0.000000 0.000000 0.000000 0.000000 0.000000 0.082361
#
#
# Mechanical properties :
#
#
# Convention : Reuss Voigt Hill
#
# Bulk Modulus (GPa) = 21.76872 46.33242 34.05057
# Shear Modulus (GPa) = 10.34707 15.31195 12.82951
#
# Velocity S-wave (km/s) = 2.37769 2.89242 2.64759
# Velocity P-wave (km/s) = 4.40815 6.03901 5.28684
#
# Compressibility (1/GPa) = 0.04593747
#
# Stress axis : x y z
#
# Youngs Moduli (GPa) = 66.66100 17.99863 78.56552
#
# Poissons Ratio (x) = 0.21542 0.49112
# Poissons Ratio (y) = 0.79786 0.03582
# Poissons Ratio (z) = 0.41671 0.00821
#
# Static dielectric constant tensor:
#      x y z
#    x 1.639300 0.000000 0.000000 
#    y 0.000000 1.624880 0.000000 
#    z 0.000000 0.000000 1.635740 
# 
# From -- ./inp_files/36896.got.cif
#   From: 2010.05.17/outbox.ucp.g08.bks.cvg/sg70_19_cif.got.tgz:36896.got - 2010.06.11 16:26:41.
