data_PCOD9517021
_publ_section_title
;
Structure prediction by ZEFSAII (Michael W. Deem and Ramdas Pophale) SiO2 
 PCOD9517021
Probable space group: F D D D
;
_chemical_formula_sum "Si O2"
_cell_formula_units_Z 128
_cell_length_a 24.890316
_cell_length_b 16.561708
_cell_length_c 13.843366
_cell_angle_alpha 90.000000
_cell_angle_beta 90.000000
_cell_angle_gamma 90.000000
_cell_volume 5706.597409
_symmetry_space_group_name_H-M "F D D D"
_symmetry_group_IT_number 70
_space_group.IT_coordinate_system_code '2'
_symmetry_cell_setting 'orthorhombic'
loop_
_space_group_symop_operation_xyz
x,y,z
1/4-x,1/4-y,z
x,1/4-y,1/4-z
1/4-x,y,1/4-z
-x,-y,-z
3/4+x,3/4+y,-z
-x,3/4+y,3/4+z
3/4+x,-y,3/4+z
x,1/2+y,1/2+z
1/4-x,3/4-y,1/2+z
x,3/4-y,3/4-z
1/4-x,1/2+y,3/4-z
-x,1/2-y,1/2-z
3/4+x,1/4+y,1/2-z
-x,1/4+y,1/4+z
3/4+x,1/2-y,1/4+z
1/2+x,y,1/2+z
3/4-x,1/4-y,1/2+z
1/2+x,1/4-y,3/4-z
3/4-x,y,3/4-z
1/2-x,-y,1/2-z
1/4+x,3/4+y,1/2-z
1/2-x,3/4+y,1/4+z
1/4+x,-y,1/4+z
1/2+x,1/2+y,z
3/4-x,3/4-y,z
1/2+x,3/4-y,1/4-z
3/4-x,1/2+y,1/4-z
1/2-x,1/2-y,-z
1/4+x,1/4+y,-z
1/2-x,1/4+y,3/4+z
1/4+x,1/2-y,3/4+z
loop_
_atom_site_type_symbol
_atom_site_label
_atom_site_fract_x
_atom_site_fract_y
_atom_site_fract_z
Si Si1 0.892283 0.625000 0.125000
Si Si2 0.037669 0.736632 0.459965
Si Si3 0.125000 0.625000 0.459182
Si Si4 0.830561 0.062897 0.448283
Si Si5 0.448407 0.249433 0.818994
O O1 0.931601 0.569226 0.188020
O O2 0.854820 0.680489 0.193440
O O3 0.074091 0.667438 0.408736
O O4 0.038496 0.718777 0.574582
O O5 0.975347 0.733102 0.434739
O O6 0.152221 0.696307 0.521341
O O7 0.875000 0.030993 0.375000
O O8 0.819287 0.156788 0.423668
O O9 0.500000 0.250000 0.750000
#
# Coordination Sequence:
#
# PCOD9517021 Si02
#       5
#    16  32  16  32  32
#     4  12  26  48  71 105 148 192 236 300 372 432
#     4  12  26  42  71 106 143 189 238 298 365 435
#     4  12  23  40  70 110 139 172 235 308 372 414
#     4  12  25  46  70 100 146 190 238 299 360 435
#     4  12  22  42  70 107 140 175 239 308 361 415
#
# _framework density 22.430178999999999
#
# number of rings (size 3 to 8) (size 9 to 14) (size 15 to 20)
#    0.000    0.000    7.500    3.750    0.000    1.000 
#    0.000    0.625    0.000    0.000    0.000    0.000 
#    0.000    0.000    0.000    0.000    0.000    0.000 
#
# Total GULP energy -179043.277714 kJ/mol
# GULP energy per Si atom -5595.102429 kJ/mol
# Density = 2.237913 g / cm^3
# Si number density = 22.430179 Si / 1000 Ang^3
#
#
#
# Elastic Constant Matrix: (Units=GPa)
#
#
# Indices 1 2 3 4 5 6 
#
# 1 208.2600 15.3624 43.7379 0.0000 0.0000 0.0000
# 2 15.3624 40.0405 -12.7630 0.0000 0.0000 0.0000
# 3 43.7379 -12.7630 64.1839 0.0000 0.0000 0.0000
# 4 0.0000 0.0000 0.0000 17.0943 0.0000 0.0000
# 5 0.0000 0.0000 0.0000 0.0000 38.8230 0.0000
# 6 0.0000 0.0000 0.0000 0.0000 0.0000 35.1130
#
#
#
# Elastic Compliance Matrix: (Units=1/GPa)
#
#
# Indices 1 2 3 4 5 6 
#
# 1 0.006134 -0.003935 -0.004963 0.000000 0.000000 0.000000
# 2 -0.003935 0.029190 0.008486 0.000000 0.000000 0.000000
# 3 -0.004963 0.008486 0.020650 0.000000 0.000000 0.000000
# 4 0.000000 0.000000 0.000000 0.058499 0.000000 0.000000
# 5 0.000000 0.000000 0.000000 0.000000 0.025758 0.000000
# 6 0.000000 0.000000 0.000000 0.000000 0.000000 0.028479
#
#
# Mechanical properties :
#
#
# Convention : Reuss Voigt Hill
#
# Bulk Modulus (GPa) = 18.13258 45.01768 31.57513
# Shear Modulus (GPa) = 26.60750 35.94920 31.27835
#
# Velocity S-wave (km/s) = 3.44792 4.00774 3.73832
# Velocity P-wave (km/s) = 4.89412 6.44435 5.72198
#
# Compressibility (1/GPa) = 0.05514934
#
# Stress axis : x y z
#
# Youngs Moduli (GPa) = 163.01958 34.25879 48.42730
#
# Poissons Ratio (x) = 0.13482 0.24033
# Poissons Ratio (y) = 0.64155 -0.41096
# Poissons Ratio (z) = 0.80902 -0.29072
#
# Static dielectric constant tensor:
#      x y z
#    x 1.878350 0.000000 0.000000 
#    y 0.000000 1.833420 0.000000 
#    z 0.000000 0.000000 1.880180 
# 
# From -- ./inp_files/26390.got.cif
#   From: 2010.05.17/outbox.cif.g08.bks.cpg/sg70_14_cif.got.tgz:26390.got - 2010.06.03 15:57:51.
