data_PCOD9517989
_publ_section_title
;
Structure prediction by ZEFSAII (Michael W. Deem and Ramdas Pophale) SiO2 
 PCOD9517989
Probable space group: I M M M
;
_chemical_formula_sum "Si O2"
_cell_formula_units_Z 104
_cell_length_a 9.197733
_cell_length_b 19.624939
_cell_length_c 33.984497
_cell_angle_alpha 90.000000
_cell_angle_beta 90.000000
_cell_angle_gamma 90.000000
_cell_volume 6134.369900
_symmetry_space_group_name_H-M "I M M M"
_symmetry_group_IT_number 71
_symmetry_cell_setting 'orthorhombic'
loop_
_space_group_symop_operation_xyz
x,y,z
-x,-y,z
x,-y,-z
-x,y,-z
-x,-y,-z
x,y,-z
-x,y,z
x,-y,z
1/2+x,1/2+y,1/2+z
1/2-x,1/2-y,1/2+z
1/2+x,1/2-y,1/2-z
1/2-x,1/2+y,1/2-z
1/2-x,1/2-y,1/2-z
1/2+x,1/2+y,1/2-z
1/2-x,1/2+y,1/2+z
1/2+x,1/2-y,1/2+z
loop_
_atom_site_type_symbol
_atom_site_label
_atom_site_fract_x
_atom_site_fract_y
_atom_site_fract_z
Si Si1 0.324333 0.580091 0.851503
Si Si2 0.332639 0.417103 0.237013
Si Si3 0.676908 0.305839 0.545256
Si Si4 0.675065 0.420877 0.394675
Si Si5 0.833681 0.417006 0.685403
Si Si6 0.323445 0.077383 0.500000
Si Si7 0.324144 0.159716 0.578151
O O1 0.500000 0.584213 0.853780
O O2 0.285387 0.500000 0.857302
O O3 0.282296 0.601112 0.806942
O O4 0.249869 0.626683 0.884019
O O5 0.500000 0.395559 0.242153
O O6 0.332792 0.500000 0.237490
O O7 0.237910 0.393403 0.273802
O O8 0.727744 0.304599 0.500000
O O9 0.500000 0.305864 0.543693
O O10 0.721578 0.372133 0.569787
O O11 0.717798 0.237443 0.568612
O O12 0.500000 0.417710 0.391320
O O13 0.714731 0.500000 0.401540
O O14 0.744093 0.397848 0.353396
O O15 0.831610 0.500000 0.686452
O O16 0.000000 0.394885 0.682316
O O17 0.500000 0.076431 0.500000
O O18 0.281112 0.116520 0.539502
O O19 0.270721 0.000000 0.500000
O O20 0.500000 0.156522 0.582077
#
# Coordination Sequence:
#
# PCOD9517989 Si02
#       7
#    16  16  16  16  16   8  16
#     4   9  18  31  46  68  99 130 159 196 240 281
#     4   8  14  26  44  65  92 126 158 188 229 280
#     4   9  17  31  50  71  95 123 158 200 243 283
#     4   9  17  29  48  73  97 123 156 193 236 288
#     4   9  16  26  43  69  99 125 151 190 236 279
#     4   9  16  26  43  67  90 116 154 195 233 273
#     4  10  18  30  48  68  92 124 161 201 239 280
#
# _framework density 16.953655999999999
#
# number of rings (size 3 to 8) (size 9 to 14) (size 15 to 20)
#    0.000    3.000    0.769    1.846    0.000    3.692 
#    0.000    4.231    0.000    3.692    0.000    2.154 
#    0.000    0.000    0.000    0.000    0.000    0.000 
#
# Total GULP energy -289632.422168 kJ/mol
# GULP energy per Si atom -5569.854272 kJ/mol
# Density = 1.691507 g / cm^3
# Si number density = 16.953656 Si / 1000 Ang^3
#
#
#
# Elastic Constant Matrix: (Units=GPa)
#
#
# Indices 1 2 3 4 5 6 
#
# 1 22.9350 25.1260 40.2723 0.0000 0.0000 0.0000
# 2 25.1260 78.7846 70.6781 0.0000 0.0000 0.0000
# 3 40.2723 70.6781 149.4353 0.0000 0.0000 0.0000
# 4 0.0000 0.0000 0.0000 -18.3498 0.0000 0.0000
# 5 0.0000 0.0000 0.0000 0.0000 18.8326 0.0000
# 6 0.0000 0.0000 0.0000 0.0000 0.0000 10.9692
#
#
#
# Elastic Compliance Matrix: (Units=1/GPa)
#
#
# Indices 1 2 3 4 5 6 
#
# 1 0.088754 -0.011895 -0.018293 0.000000 0.000000 0.000000
# 2 -0.011895 0.023642 -0.007976 0.000000 0.000000 0.000000
# 3 -0.018293 -0.007976 0.015394 0.000000 0.000000 0.000000
# 4 0.000000 0.000000 0.000000 -0.054496 0.000000 0.000000
# 5 0.000000 0.000000 0.000000 0.000000 0.053099 0.000000
# 6 0.000000 0.000000 0.000000 0.000000 0.000000 0.091164
#
#
# Mechanical properties :
#
#
# Convention : Reuss Voigt Hill
#
# Bulk Modulus (GPa) = 19.43181 58.14529 38.78855
# Shear Modulus (GPa) = 16.07515 9.96230 13.01872
#
# Velocity S-wave (km/s) = 3.08260 2.42672 2.77411
# Velocity P-wave (km/s) = 4.91492 6.49792 5.76105
#
# Compressibility (1/GPa) = 0.05146202
#
# Stress axis : x y z
#
# Youngs Moduli (GPa) = 11.26713 42.29790 64.95919
#
# Poissons Ratio (x) = 0.50312 1.18830
# Poissons Ratio (y) = 0.13402 0.51813
# Poissons Ratio (z) = 0.20611 0.33738
#
# Static dielectric constant tensor:
#      x y z
#    x 1.568340 0.000000 0.000000 
#    y 0.000000 1.569420 0.000000 
#    z 0.000000 0.000000 1.565810 
# 
# From -- ./inp_files/68266.got.cif
#   From: 2010.05.17/outbox.cif.g08.bks.cpg/sg71_35_cif.got.tgz:68266.got - 2010.06.03 16:22:01.
