data_PCOD9517625
_publ_section_title
;
Structure prediction by ZEFSAII (Michael W. Deem and Ramdas Pophale) SiO2 
 PCOD9517625
Probable space group: I M M M
;
_chemical_formula_sum "Si O2"
_cell_formula_units_Z 104
_cell_length_a 32.906476
_cell_length_b 29.580124
_cell_length_c 8.800329
_cell_angle_alpha 90.000000
_cell_angle_beta 90.000000
_cell_angle_gamma 90.000000
_cell_volume 8566.043477
_symmetry_space_group_name_H-M "I M M M"
_symmetry_group_IT_number 71
_symmetry_cell_setting 'orthorhombic'
loop_
_space_group_symop_operation_xyz
x,y,z
-x,-y,z
x,-y,-z
-x,y,-z
-x,-y,-z
x,y,-z
-x,y,z
x,-y,z
1/2+x,1/2+y,1/2+z
1/2-x,1/2-y,1/2+z
1/2+x,1/2-y,1/2-z
1/2-x,1/2+y,1/2-z
1/2-x,1/2-y,1/2-z
1/2+x,1/2+y,1/2-z
1/2-x,1/2+y,1/2+z
1/2+x,1/2-y,1/2+z
loop_
_atom_site_type_symbol
_atom_site_label
_atom_site_fract_x
_atom_site_fract_y
_atom_site_fract_z
Si Si1 0.812496 0.269019 0.326739
Si Si2 0.130433 0.500000 0.180548
Si Si3 0.150704 0.646021 0.819881
Si Si4 0.915625 0.585775 0.681740
Si Si5 0.231479 0.600578 0.682917
Si Si6 0.722556 0.314529 0.674852
Si Si7 0.718477 0.000000 0.181241
Si Si8 0.000000 0.553906 0.182855
O O1 0.826905 0.270574 0.500000
O O2 0.839008 0.302353 0.223773
O O3 0.767073 0.290662 0.324420
O O4 0.806818 0.218060 0.268440
O O5 0.110240 0.543471 0.256404
O O6 0.177622 0.500000 0.221083
O O7 0.123430 0.500000 0.000000
O O8 0.109531 0.628731 0.741864
O O9 0.188916 0.616450 0.756889
O O10 0.148270 0.640007 0.000000
O O11 0.917059 0.585608 0.500000
O O12 0.960176 0.577944 0.750435
O O13 0.226916 0.606581 0.500000
O O14 0.266840 0.635213 0.732328
O O15 0.239827 0.547899 0.712357
O O16 0.708824 0.316456 0.500000
O O17 0.708125 0.000000 0.000000
O O18 0.000000 0.500000 0.223751
O O19 0.000000 0.556242 0.000000
#
# Coordination Sequence:
#
# PCOD9517625 Si02
#       8
#    16   8  16  16  16  16   8   8
#     4   9  16  26  39  54  71  91 115 141 174 217
#     4  12  22  31  43  60  74  92 119 152 184 218
#     4  11  20  29  42  58  75  92 114 146 182 218
#     4  12  23  35  48  60  75  95 118 145 182 227
#     4   9  17  27  39  54  73  96 122 148 180 219
#     4   8  14  24  36  52  72  93 116 143 174 212
#     4  10  18  28  41  55  74 100 124 152 185 219
#     4  11  23  37  51  63  76  92 118 152 182 219
#
# _framework density 12.14096
#
# number of rings (size 3 to 8) (size 9 to 14) (size 15 to 20)
#    0.000    1.923    2.308    5.077    0.000    4.000 
#    0.000    0.000    0.000    0.000    0.000    0.000 
#    0.000    0.000    0.000    0.000    0.000    0.000 
#
# Total GULP energy -289827.095981 kJ/mol
# GULP energy per Si atom -5573.598000 kJ/mol
# Density = 1.211333 g / cm^3
# Si number density = 12.140960 Si / 1000 Ang^3
#
#
#
# Elastic Constant Matrix: (Units=GPa)
#
#
# Indices 1 2 3 4 5 6 
#
# 1 31.4166 32.7195 20.0473 0.0000 0.0000 0.0000
# 2 32.7195 89.6328 29.3811 0.0000 0.0000 0.0000
# 3 20.0473 29.3811 66.4591 0.0000 0.0000 0.0000
# 4 0.0000 0.0000 0.0000 16.4128 0.0000 0.0000
# 5 0.0000 0.0000 0.0000 0.0000 13.5390 0.0000
# 6 0.0000 0.0000 0.0000 0.0000 0.0000 10.6320
#
#
#
# Elastic Compliance Matrix: (Units=1/GPa)
#
#
# Indices 1 2 3 4 5 6 
#
# 1 0.055731 -0.017347 -0.009142 0.000000 0.000000 0.000000
# 2 -0.017347 0.018447 -0.002923 0.000000 0.000000 0.000000
# 3 -0.009142 -0.002923 0.019097 0.000000 0.000000 0.000000
# 4 0.000000 0.000000 0.000000 0.060928 0.000000 0.000000
# 5 0.000000 0.000000 0.000000 0.000000 0.073860 0.000000
# 6 0.000000 0.000000 0.000000 0.000000 0.000000 0.094056
#
#
# Mechanical properties :
#
#
# Convention : Reuss Voigt Hill
#
# Bulk Modulus (GPa) = 29.02695 39.08937 34.05816
# Shear Modulus (GPa) = 12.74126 15.14081 13.94104
#
# Velocity S-wave (km/s) = 3.24303 3.53524 3.39228
# Velocity P-wave (km/s) = 6.16305 6.99500 6.59216
#
# Compressibility (1/GPa) = 0.03445075
#
# Stress axis : x y z
#
# Youngs Moduli (GPa) = 17.94345 54.20925 52.36550
#
# Poissons Ratio (x) = 0.94038 0.47872
# Poissons Ratio (y) = 0.31127 0.15304
# Poissons Ratio (z) = 0.16404 0.15843
#
# Static dielectric constant tensor:
#      x y z
#    x 1.368690 0.000000 0.000000 
#    y 0.000000 1.430990 0.000000 
#    z 0.000000 0.000000 1.409120 
# 
# From -- ./inp_files/15813.got.cif
#   From: 2010.05.17/outbox.cif.g08.bks.cpg/sg71_8_cif.got.tgz:15813.got - 2010.06.03 16:22:01.
