data_PCOD9517782
_publ_section_title
;
Structure prediction by ZEFSAII (Michael W. Deem and Ramdas Pophale) SiO2 
 PCOD9517782
Probable space group: I M M M
;
_chemical_formula_sum "Si O2"
_cell_formula_units_Z 96
_cell_length_a 8.715626
_cell_length_b 29.394354
_cell_length_c 26.921967
_cell_angle_alpha 90.000000
_cell_angle_beta 90.000000
_cell_angle_gamma 90.000000
_cell_volume 6897.144002
_symmetry_space_group_name_H-M "I M M M"
_symmetry_group_IT_number 71
_symmetry_cell_setting 'orthorhombic'
loop_
_space_group_symop_operation_xyz
x,y,z
-x,-y,z
x,-y,-z
-x,y,-z
-x,-y,-z
x,y,-z
-x,y,z
x,-y,z
1/2+x,1/2+y,1/2+z
1/2-x,1/2-y,1/2+z
1/2+x,1/2-y,1/2-z
1/2-x,1/2+y,1/2-z
1/2-x,1/2-y,1/2-z
1/2+x,1/2+y,1/2-z
1/2-x,1/2+y,1/2+z
1/2+x,1/2-y,1/2+z
loop_
_atom_site_type_symbol
_atom_site_label
_atom_site_fract_x
_atom_site_fract_y
_atom_site_fract_z
Si Si1 0.317881 0.643724 0.256824
Si Si2 0.683768 0.051514 0.094552
Si Si3 0.316630 0.777089 0.702238
Si Si4 0.682648 0.197363 0.148252
Si Si5 0.683373 0.948344 0.787016
Si Si6 0.317895 0.356117 0.556858
O O1 0.500000 0.649693 0.256686
O O2 0.244577 0.672182 0.211518
O O3 0.250672 0.665725 0.307663
O O4 0.271019 0.591154 0.258432
O O5 0.500000 0.056352 0.087597
O O6 0.713460 0.055968 0.153738
O O7 0.769320 0.091744 0.066775
O O8 0.726287 0.000000 0.079619
O O9 0.500000 0.776023 0.702967
O O10 0.250000 0.750000 0.750000
O O11 0.252156 0.747637 0.656680
O O12 0.500000 0.198630 0.153804
O O13 0.730498 0.174942 0.096547
O O14 0.500000 0.942533 0.780722
O O15 0.723720 0.000000 0.772641
O O16 0.281999 0.344218 0.500000
O O17 0.500000 0.351535 0.564852
#
# Coordination Sequence:
#
# PCOD9517782 Si02
#       6
#    16  16  16  16  16  16
#     4  11  19  28  44  66  88 108 135 168 207 249
#     4   9  18  32  48  62  77 102 137 176 218 262
#     4  10  18  29  45  64  85 107 132 162 204 248
#     4  11  20  32  47  62  82 105 134 171 211 253
#     4   9  17  29  44  62  84 111 141 173 211 253
#     4  11  23  35  46  62  82 105 136 175 219 263
#
# _framework density 13.918805000000001
#
# number of rings (size 3 to 8) (size 9 to 14) (size 15 to 20)
#    0.000    1.833    1.667    8.000    0.000    2.333 
#    0.000    3.333    0.000    0.000    0.000    0.000 
#    0.000    0.000    0.000    0.000    0.000    0.833 
#
# Total GULP energy -267805.154604 kJ/mol
# GULP energy per Si atom -5579.274054 kJ/mol
# Density = 1.388713 g / cm^3
# Si number density = 13.918805 Si / 1000 Ang^3
#
#
#
# Elastic Constant Matrix: (Units=GPa)
#
#
# Indices 1 2 3 4 5 6 
#
# 1 100.5215 51.4161 33.2719 0.0000 0.0000 0.0000
# 2 51.4161 83.4899 39.9432 0.0000 0.0000 0.0000
# 3 33.2719 39.9432 40.2048 0.0000 0.0000 0.0000
# 4 0.0000 0.0000 0.0000 15.0400 0.0000 0.0000
# 5 0.0000 0.0000 0.0000 0.0000 15.9202 0.0000
# 6 0.0000 0.0000 0.0000 0.0000 0.0000 25.4129
#
#
#
# Elastic Compliance Matrix: (Units=1/GPa)
#
#
# Indices 1 2 3 4 5 6 
#
# 1 0.015316 -0.006419 -0.006297 0.000000 0.000000 0.000000
# 2 -0.006419 0.025518 -0.020040 0.000000 0.000000 0.000000
# 3 -0.006297 -0.020040 0.049993 0.000000 0.000000 0.000000
# 4 0.000000 0.000000 0.000000 0.066490 0.000000 0.000000
# 5 0.000000 0.000000 0.000000 0.000000 0.062813 0.000000
# 6 0.000000 0.000000 0.000000 0.000000 0.000000 0.039350
#
#
# Mechanical properties :
#
#
# Convention : Reuss Voigt Hill
#
# Bulk Modulus (GPa) = 39.50263 52.60871 46.05567
# Shear Modulus (GPa) = 14.99559 17.91361 16.45460
#
# Velocity S-wave (km/s) = 3.28588 3.59138 3.44202
# Velocity P-wave (km/s) = 6.54510 7.42134 6.99695
#
# Compressibility (1/GPa) = 0.02531477
#
# Stress axis : x y z
#
# Youngs Moduli (GPa) = 65.29144 39.18781 20.00266
#
# Poissons Ratio (x) = 0.25156 0.12596
# Poissons Ratio (y) = 0.41913 0.40085
# Poissons Ratio (z) = 0.41116 0.78531
#
# Static dielectric constant tensor:
#      x y z
#    x 1.465520 0.000000 0.000000 
#    y 0.000000 1.488450 0.000000 
#    z 0.000000 0.000000 1.440070 
# 
# From -- ./inp_files/63658.got.cif
#   From: 2010.05.17/outbox.cif.g08.bks.cpg/sg71_32_cif.got.tgz:63658.got - 2010.06.03 16:22:01.
