data_PCOD9517933
_publ_section_title
;
Structure prediction by ZEFSAII (Michael W. Deem and Ramdas Pophale) SiO2 
 PCOD9517933
Probable space group: I M M M
;
_chemical_formula_sum "Si O2"
_cell_formula_units_Z 88
_cell_length_a 8.511617
_cell_length_b 24.839332
_cell_length_c 31.576349
_cell_angle_alpha 90.000000
_cell_angle_beta 90.000000
_cell_angle_gamma 90.000000
_cell_volume 6675.962662
_symmetry_space_group_name_H-M "I M M M"
_symmetry_group_IT_number 71
_symmetry_cell_setting 'orthorhombic'
loop_
_space_group_symop_operation_xyz
x,y,z
-x,-y,z
x,-y,-z
-x,y,-z
-x,-y,-z
x,y,-z
-x,y,z
x,-y,z
1/2+x,1/2+y,1/2+z
1/2-x,1/2-y,1/2+z
1/2+x,1/2-y,1/2-z
1/2-x,1/2+y,1/2-z
1/2-x,1/2-y,1/2-z
1/2+x,1/2+y,1/2-z
1/2-x,1/2+y,1/2+z
1/2+x,1/2-y,1/2+z
loop_
_atom_site_type_symbol
_atom_site_label
_atom_site_fract_x
_atom_site_fract_y
_atom_site_fract_z
Si Si1 0.187574 0.437122 0.500000
Si Si2 0.808765 0.179289 0.161541
Si Si3 0.812071 0.718860 0.791448
Si Si4 0.690434 0.500000 0.268286
Si Si5 0.312131 0.396271 0.588191
Si Si6 0.811191 0.119233 0.248609
Si Si7 0.313109 0.000000 0.136859
O O1 0.245416 0.500000 0.500000
O O2 0.243048 0.406066 0.541853
O O3 0.000000 0.439740 0.500000
O O4 0.762204 0.241078 0.170705
O O5 0.756338 0.153747 0.117232
O O6 0.758891 0.142951 0.202398
O O7 0.000000 0.177336 0.161643
O O8 0.750000 0.750000 0.750000
O O9 0.750152 0.658686 0.785209
O O10 0.000000 0.717673 0.790639
O O11 0.500000 0.500000 0.273738
O O12 0.733817 0.556787 0.246983
O O13 0.769702 0.500000 0.314089
O O14 0.500000 0.393597 0.584619
O O15 0.262904 0.448188 0.615241
O O16 0.000000 0.122493 0.248512
O O17 0.500000 0.000000 0.130134
#
# Coordination Sequence:
#
# PCOD9517933 Si02
#       7
#     8  16  16   8  16  16   8
#     4  11  23  35  43  59  84 100 120 167 212 241
#     4   8  15  27  43  58  72  93 129 164 191 228
#     4   9  16  27  40  56  77 100 123 158 198 233
#     4  10  18  30  43  55  78 110 138 163 196 240
#     4  11  20  33  49  59  70 101 138 162 196 250
#     4   9  16  27  41  58  77 101 130 163 194 229
#     4  12  22  29  39  60  82  98 125 170 211 239
#
# _framework density 13.181620000000001
#
# number of rings (size 3 to 8) (size 9 to 14) (size 15 to 20)
#    0.000    2.273    2.727    3.273    0.000    1.091 
#    0.000    2.727    0.000    0.000    0.000    0.000 
#    0.000    0.000    0.000    0.000    0.000    0.909 
#
# Total GULP energy -245007.063929 kJ/mol
# GULP energy per Si atom -5568.342362 kJ/mol
# Density = 1.315162 g / cm^3
# Si number density = 13.181620 Si / 1000 Ang^3
#
#
#
# Elastic Constant Matrix: (Units=GPa)
#
#
# Indices 1 2 3 4 5 6 
#
# 1 19.3097 22.2657 15.6412 0.0000 0.0000 0.0000
# 2 22.2657 113.8975 59.4502 0.0000 0.0000 0.0000
# 3 15.6412 59.4502 72.0107 0.0000 0.0000 0.0000
# 4 0.0000 0.0000 0.0000 9.6968 0.0000 0.0000
# 5 0.0000 0.0000 0.0000 0.0000 12.3470 0.0000
# 6 0.0000 0.0000 0.0000 0.0000 0.0000 16.9597
#
#
#
# Elastic Compliance Matrix: (Units=1/GPa)
#
#
# Indices 1 2 3 4 5 6 
#
# 1 0.068668 -0.009908 -0.006735 0.000000 0.000000 0.000000
# 2 -0.009908 0.016858 -0.011765 0.000000 0.000000 0.000000
# 3 -0.006735 -0.011765 0.025063 0.000000 0.000000 0.000000
# 4 0.000000 0.000000 0.000000 0.103127 0.000000 0.000000
# 5 0.000000 0.000000 0.000000 0.000000 0.080991 0.000000
# 6 0.000000 0.000000 0.000000 0.000000 0.000000 0.058963
#
#
# Mechanical properties :
#
#
# Convention : Reuss Voigt Hill
#
# Bulk Modulus (GPa) = 18.59727 44.43690 31.51709
# Shear Modulus (GPa) = 11.67104 14.99143 13.33123
#
# Velocity S-wave (km/s) = 2.97880 3.37604 3.18362
# Velocity P-wave (km/s) = 5.09609 6.99867 6.12174
#
# Compressibility (1/GPa) = 0.05377133
#
# Stress axis : x y z
#
# Youngs Moduli (GPa) = 14.56283 59.31974 39.89986
#
# Poissons Ratio (x) = 0.58777 0.26872
# Poissons Ratio (y) = 0.14429 0.46943
# Poissons Ratio (z) = 0.09808 0.69791
#
# Static dielectric constant tensor:
#      x y z
#    x 1.452150 0.000000 0.000000 
#    y 0.000000 1.464880 0.000000 
#    z 0.000000 0.000000 1.419270 
# 
# From -- ./inp_files/17192.got.cif
#   From: 2010.05.17/outbox.cif.g08.bks.cpg/sg71_9_cif.got.tgz:17192.got - 2010.06.03 16:22:01.
