data_PCOD9517343
_publ_section_title
;
Structure prediction by ZEFSAII (Michael W. Deem and Ramdas Pophale) SiO2 
 PCOD9517343
Probable space group: I M M M
;
_chemical_formula_sum "Si O2"
_cell_formula_units_Z 96
_cell_length_a 28.815617
_cell_length_b 29.932516
_cell_length_c 8.993842
_cell_angle_alpha 90.000000
_cell_angle_beta 90.000000
_cell_angle_gamma 90.000000
_cell_volume 7757.403830
_symmetry_space_group_name_H-M "I M M M"
_symmetry_group_IT_number 71
_symmetry_cell_setting 'orthorhombic'
loop_
_space_group_symop_operation_xyz
x,y,z
-x,-y,z
x,-y,-z
-x,y,-z
-x,-y,-z
x,y,-z
-x,y,z
x,-y,z
1/2+x,1/2+y,1/2+z
1/2-x,1/2-y,1/2+z
1/2+x,1/2-y,1/2-z
1/2-x,1/2+y,1/2-z
1/2-x,1/2-y,1/2-z
1/2+x,1/2+y,1/2-z
1/2-x,1/2+y,1/2+z
1/2+x,1/2-y,1/2+z
loop_
_atom_site_type_symbol
_atom_site_label
_atom_site_fract_x
_atom_site_fract_y
_atom_site_fract_z
Si Si1 0.320987 0.769508 0.170461
Si Si2 0.845619 0.130862 0.679194
Si Si3 0.599117 0.552161 0.320842
Si Si4 0.256375 0.319715 0.828686
Si Si5 0.000000 0.092368 0.180501
Si Si6 0.602229 0.715505 0.678475
Si Si7 0.000000 0.804321 0.180419
O O1 0.288273 0.725146 0.175041
O O2 0.288990 0.808934 0.233861
O O3 0.365811 0.755953 0.265224
O O4 0.333702 0.777299 0.000000
O O5 0.848788 0.133611 0.500000
O O6 0.864587 0.084362 0.740276
O O7 0.792185 0.141955 0.720667
O O8 0.876888 0.170130 0.750918
O O9 0.602576 0.558261 0.500000
O O10 0.605543 0.500000 0.288183
O O11 0.547271 0.567746 0.274896
O O12 0.243143 0.327128 0.000000
O O13 0.000000 0.143887 0.230621
O O14 0.000000 0.092695 0.000000
O O15 0.605132 0.712010 0.500000
O O16 0.548363 0.718270 0.724423
O O17 0.000000 0.805454 0.000000
#
# Coordination Sequence:
#
# PCOD9517343 Si02
#       7
#    16  16  16  16   8  16   8
#     4   9  16  25  37  56  75  90 110 139 176 213
#     4  10  19  29  40  55  73  91 113 146 187 226
#     4  10  19  30  44  57  69  90 121 155 191 231
#     4   8  15  26  38  52  70  92 114 135 169 217
#     4   9  15  28  43  56  68  86 122 160 190 225
#     4  10  17  27  41  54  71  94 121 149 178 215
#     4   9  16  25  40  56  69  93 127 156 181 217
#
# _framework density 12.375273999999999
#
# number of rings (size 3 to 8) (size 9 to 14) (size 15 to 20)
#    0.000    2.667    1.667    2.750    0.000    6.000 
#    0.000    2.917    0.000    1.000    0.000    0.000 
#    0.000    0.000    0.000    0.000    0.000    0.000 
#
# Total GULP energy -267271.025026 kJ/mol
# GULP energy per Si atom -5568.146355 kJ/mol
# Density = 1.234711 g / cm^3
# Si number density = 12.375274 Si / 1000 Ang^3
#
#
#
# Elastic Constant Matrix: (Units=GPa)
#
#
# Indices 1 2 3 4 5 6 
#
# 1 92.9722 51.7679 40.6533 0.0000 0.0000 0.0000
# 2 51.7679 49.6780 25.4045 0.0000 0.0000 0.0000
# 3 40.6533 25.4045 42.3456 0.0000 0.0000 0.0000
# 4 0.0000 0.0000 0.0000 14.2261 0.0000 0.0000
# 5 0.0000 0.0000 0.0000 0.0000 16.2046 0.0000
# 6 0.0000 0.0000 0.0000 0.0000 0.0000 14.6385
#
#
#
# Elastic Compliance Matrix: (Units=1/GPa)
#
#
# Indices 1 2 3 4 5 6 
#
# 1 0.031079 -0.024708 -0.015013 0.000000 0.000000 0.000000
# 2 -0.024708 0.048683 -0.005485 0.000000 0.000000 0.000000
# 3 -0.015013 -0.005485 0.041319 0.000000 0.000000 0.000000
# 4 0.000000 0.000000 0.000000 0.070293 0.000000 0.000000
# 5 0.000000 0.000000 0.000000 0.000000 0.061711 0.000000
# 6 0.000000 0.000000 0.000000 0.000000 0.000000 0.068313
#
#
# Mechanical properties :
#
#
# Convention : Reuss Voigt Hill
#
# Bulk Modulus (GPa) = 32.60879 46.73859 39.67369
# Shear Modulus (GPa) = 11.84741 13.49185 12.66963
#
# Velocity S-wave (km/s) = 3.09746 3.30544 3.20314
# Velocity P-wave (km/s) = 6.26095 7.24000 6.76820
#
# Compressibility (1/GPa) = 0.03066658
#
# Stress axis : x y z
#
# Youngs Moduli (GPa) = 32.17655 20.54122 24.20190
#
# Poissons Ratio (x) = 0.50754 0.36335
# Poissons Ratio (y) = 0.79503 0.13275
# Poissons Ratio (z) = 0.48307 0.11267
#
# Static dielectric constant tensor:
#      x y z
#    x 1.410430 0.000000 0.000000 
#    y 0.000000 1.381610 0.000000 
#    z 0.000000 0.000000 1.416930 
# 
# From -- ./inp_files/17587.got.cif
#   From: 2010.05.17/outbox.cif.g08.bks.cpg/sg71_9_cif.got.tgz:17587.got - 2010.06.03 16:22:01.
