data_PCOD9517986
_publ_section_title
;
Structure prediction by ZEFSAII (Michael W. Deem and Ramdas Pophale) SiO2 
 PCOD9517986
Probable space group: I M M M
;
_chemical_formula_sum "Si O2"
_cell_formula_units_Z 72
_cell_length_a 28.868310
_cell_length_b 20.058941
_cell_length_c 7.849777
_cell_angle_alpha 90.000000
_cell_angle_beta 90.000000
_cell_angle_gamma 90.000000
_cell_volume 4545.552525
_symmetry_space_group_name_H-M "I M M M"
_symmetry_group_IT_number 71
_symmetry_cell_setting 'orthorhombic'
loop_
_space_group_symop_operation_xyz
x,y,z
-x,-y,z
x,-y,-z
-x,y,-z
-x,-y,-z
x,y,-z
-x,y,z
x,-y,z
1/2+x,1/2+y,1/2+z
1/2-x,1/2-y,1/2+z
1/2+x,1/2-y,1/2-z
1/2-x,1/2+y,1/2-z
1/2-x,1/2-y,1/2-z
1/2+x,1/2+y,1/2-z
1/2-x,1/2+y,1/2+z
1/2+x,1/2-y,1/2+z
loop_
_atom_site_type_symbol
_atom_site_label
_atom_site_fract_x
_atom_site_fract_y
_atom_site_fract_z
Si Si1 0.654402 0.000000 0.792381
Si Si2 0.737867 0.500000 0.292237
Si Si3 0.599057 0.870120 0.794902
Si Si4 0.771066 0.146519 0.795505
Si Si5 0.500000 0.923355 0.701536
Si Si6 0.678345 0.777490 0.205440
O O1 0.627549 0.934718 0.733891
O O2 0.707875 0.000000 0.745492
O O3 0.653508 0.000000 0.000000
O O4 0.734597 0.500000 0.500000
O O5 0.719019 0.428343 0.232648
O O6 0.546035 0.882820 0.749258
O O7 0.629147 0.806748 0.735106
O O8 0.600882 0.869524 0.000000
O O9 0.721345 0.175822 0.733626
O O10 0.808928 0.202385 0.754403
O O11 0.767064 0.142643 0.000000
O O12 0.500000 0.930301 0.500000
O O13 0.500000 0.000000 0.774192
O O14 0.678956 0.780747 0.000000
#
# Coordination Sequence:
#
# PCOD9517986 Si02
#       6
#     8   8  16  16   8  16
#     4   9  14  23  42  63  80 106 149 189 208 231
#     4   9  14  24  42  64  85 111 151 184 206 243
#     4  10  18  30  48  62  78 112 155 187 209 246
#     4   9  16  26  42  62  85 113 143 177 214 252
#     4  11  23  33  41  61  91 114 137 180 229 259
#     4   9  17  28  42  62  85 110 143 181 216 250
#
# _framework density 15.839658999999999
#
# number of rings (size 3 to 8) (size 9 to 14) (size 15 to 20)
#    0.000    2.556    3.333    0.333    0.000    1.333 
#    0.000    0.556    0.000    1.333    0.000    0.000 
#    0.000    0.889    0.000   10.000    0.000    4.444 
#
# Total GULP energy -200539.270374 kJ/mol
# GULP energy per Si atom -5570.535288 kJ/mol
# Density = 1.580361 g / cm^3
# Si number density = 15.839659 Si / 1000 Ang^3
#
#
#
# Elastic Constant Matrix: (Units=GPa)
#
#
# Indices 1 2 3 4 5 6 
#
# 1 100.9054 77.4372 4.0003 0.0000 0.0000 0.0000
# 2 77.4372 156.4837 11.6128 0.0000 0.0000 0.0000
# 3 4.0003 11.6128 15.4155 0.0000 0.0000 0.0000
# 4 0.0000 0.0000 0.0000 15.6637 0.0000 0.0000
# 5 0.0000 0.0000 0.0000 0.0000 9.9789 0.0000
# 6 0.0000 0.0000 0.0000 0.0000 0.0000 -14.0962
#
#
#
# Elastic Compliance Matrix: (Units=1/GPa)
#
#
# Indices 1 2 3 4 5 6 
#
# 1 0.016032 -0.008076 0.001924 0.000000 0.000000 0.000000
# 2 -0.008076 0.010837 -0.006068 0.000000 0.000000 0.000000
# 3 0.001924 -0.006068 0.068942 0.000000 0.000000 0.000000
# 4 0.000000 0.000000 0.000000 0.063842 0.000000 0.000000
# 5 0.000000 0.000000 0.000000 0.000000 0.100212 0.000000
# 6 0.000000 0.000000 0.000000 0.000000 0.000000 -0.070941
#
#
# Mechanical properties :
#
#
# Convention : Reuss Voigt Hill
#
# Bulk Modulus (GPa) = 14.01156 50.98947 32.50051
# Shear Modulus (GPa) = 21.08327 14.29290 17.68808
#
# Velocity S-wave (km/s) = 3.65230 3.00717 3.34533
# Velocity P-wave (km/s) = 5.16245 6.65720 5.95689
#
# Compressibility (1/GPa) = 0.07136963
#
# Stress axis : x y z
#
# Youngs Moduli (GPa) = 62.37548 92.27315 14.50498
#
# Poissons Ratio (x) = 0.74523 -0.02790
# Poissons Ratio (y) = 0.50376 0.08802
# Poissons Ratio (z) = -0.11999 0.55993
#
# Static dielectric constant tensor:
#      x y z
#    x 1.522010 0.000000 0.000000 
#    y 0.000000 1.558170 0.000000 
#    z 0.000000 0.000000 1.586890 
# 
# From -- ./inp_files/10704.got.cif
#   From: 2010.05.17/outbox.cif.g08.bks.cpg/sg71_6_cif.got.tgz:10704.got - 2010.06.03 16:22:01.
