data_PCOD9517145
_publ_section_title
;
Structure prediction by ZEFSAII (Michael W. Deem and Ramdas Pophale) SiO2 
 PCOD9517145
Probable space group: F D D D
;
_chemical_formula_sum "Si O2"
_cell_formula_units_Z 128
_cell_length_a 19.475974
_cell_length_b 16.591680
_cell_length_c 15.358628
_cell_angle_alpha 90.000000
_cell_angle_beta 90.000000
_cell_angle_gamma 90.000000
_cell_volume 4962.973664
_symmetry_space_group_name_H-M "F D D D"
_symmetry_group_IT_number 70
_space_group.IT_coordinate_system_code '2'
_symmetry_cell_setting 'orthorhombic'
loop_
_space_group_symop_operation_xyz
x,y,z
1/4-x,1/4-y,z
x,1/4-y,1/4-z
1/4-x,y,1/4-z
-x,-y,-z
3/4+x,3/4+y,-z
-x,3/4+y,3/4+z
3/4+x,-y,3/4+z
x,1/2+y,1/2+z
1/4-x,3/4-y,1/2+z
x,3/4-y,3/4-z
1/4-x,1/2+y,3/4-z
-x,1/2-y,1/2-z
3/4+x,1/4+y,1/2-z
-x,1/4+y,1/4+z
3/4+x,1/2-y,1/4+z
1/2+x,y,1/2+z
3/4-x,1/4-y,1/2+z
1/2+x,1/4-y,3/4-z
3/4-x,y,3/4-z
1/2-x,-y,1/2-z
1/4+x,3/4+y,1/2-z
1/2-x,3/4+y,1/4+z
1/4+x,-y,1/4+z
1/2+x,1/2+y,z
3/4-x,3/4-y,z
1/2+x,3/4-y,1/4-z
3/4-x,1/2+y,1/4-z
1/2-x,1/2-y,-z
1/4+x,1/4+y,-z
1/2-x,1/4+y,3/4+z
1/4+x,1/2-y,3/4+z
loop_
_atom_site_type_symbol
_atom_site_label
_atom_site_fract_x
_atom_site_fract_y
_atom_site_fract_z
Si Si1 0.407783 0.750917 0.068015
Si Si2 0.013898 0.125000 0.125000
Si Si3 0.375000 0.492088 0.875000
Si Si4 0.875000 0.509177 0.875000
Si Si5 0.481798 0.615679 0.814971
Si Si6 0.299632 0.625000 0.125000
O O1 0.464721 0.678461 0.064802
O O2 0.450484 0.826124 0.105470
O O3 0.347184 0.705538 0.118753
O O4 0.383464 0.775138 0.971717
O O5 0.067171 0.186684 0.170223
O O6 0.420007 0.549906 0.815434
O O7 0.804673 0.561108 0.862881
O O8 0.493013 0.630417 0.713099
#
# Coordination Sequence:
#
# PCOD9517145 Si02
#       6
#    32  16  16  16  32  16
#     4   9  17  30  47  66  92 121 148 187 227 261
#     4   8  14  25  44  70  92 111 142 186 238 282
#     4   8  14  25  44  70  92 111 142 186 238 282
#     4   9  18  31  48  70  90 117 156 183 220 276
#     4   9  17  30  47  66  92 121 148 187 227 261
#     4   9  18  31  48  70  90 117 156 183 220 276
#
# _framework density 25.790989
#
# number of rings (size 3 to 8) (size 9 to 14) (size 15 to 20)
#    0.000    3.250    0.000    0.000    0.000    2.000 
#    0.000   15.000    0.000    3.750    0.000    0.000 
#    0.000    0.000    0.000    0.000    0.000    0.000 
#
# Total GULP energy -178390.586799 kJ/mol
# GULP energy per Si atom -5574.705837 kJ/mol
# Density = 2.573229 g / cm^3
# Si number density = 25.790989 Si / 1000 Ang^3
#
#
#
# Elastic Constant Matrix: (Units=GPa)
#
#
# Indices 1 2 3 4 5 6 
#
# 1 124.9719 51.7233 17.5453 0.0000 0.0000 0.0000
# 2 51.7233 57.6762 2.6435 0.0000 0.0000 0.0000
# 3 17.5453 2.6435 96.2405 0.0000 0.0000 0.0000
# 4 0.0000 0.0000 0.0000 -17.4790 0.0000 0.0000
# 5 0.0000 0.0000 0.0000 0.0000 -16.8395 0.0000
# 6 0.0000 0.0000 0.0000 0.0000 0.0000 65.5969
#
#
#
# Elastic Compliance Matrix: (Units=1/GPa)
#
#
# Indices 1 2 3 4 5 6 
#
# 1 0.013125 -0.011675 -0.002072 0.000000 0.000000 0.000000
# 2 -0.011675 0.027746 0.001366 0.000000 0.000000 0.000000
# 3 -0.002072 0.001366 0.010731 0.000000 0.000000 0.000000
# 4 0.000000 0.000000 0.000000 -0.057212 0.000000 0.000000
# 5 0.000000 0.000000 0.000000 0.000000 -0.059384 0.000000
# 6 0.000000 0.000000 0.000000 0.000000 0.000000 0.015245
#
#
# Mechanical properties :
#
#
# Convention : Reuss Voigt Hill
#
# Bulk Modulus (GPa) = 37.25837 46.96808 42.11323
# Shear Modulus (GPa) = -311.69112 20.05414 -145.81849
#
# Velocity S-wave (km/s) = -11.00523 2.79151 -7.52737
# Velocity P-wave (km/s) = 12.12473 5.35169 7.69313
#
# Compressibility (1/GPa) = 0.02683961
#
# Stress axis : x y z
#
# Youngs Moduli (GPa) = 76.19138 36.04157 93.18926
#
# Poissons Ratio (x) = 0.42079 0.19309
# Poissons Ratio (y) = 0.88955 -0.12733
# Poissons Ratio (z) = 0.15787 -0.04925
#
# Static dielectric constant tensor:
#      x y z
#    x 2.025380 0.000000 0.000000 
#    y 0.000000 2.135330 0.000000 
#    z 0.000000 0.000000 1.925830 
# 
# From -- ./inp_files/26413.got.cif
#   From: 2010.05.17/outbox.cif.g08.bks.cpg/sg70_14_cif.got.tgz:26413.got - 2010.06.03 15:57:51.
