data_PCOD9517878
_publ_section_title
;
Structure prediction by ZEFSAII (Michael W. Deem and Ramdas Pophale) SiO2 
 PCOD9517878
Probable space group: I M M M
;
_chemical_formula_sum "Si O2"
_cell_formula_units_Z 80
_cell_length_a 8.033527
_cell_length_b 20.938332
_cell_length_c 21.165980
_cell_angle_alpha 90.000000
_cell_angle_beta 90.000000
_cell_angle_gamma 90.000000
_cell_volume 3560.301037
_symmetry_space_group_name_H-M "I M M M"
_symmetry_group_IT_number 71
_symmetry_cell_setting 'orthorhombic'
loop_
_space_group_symop_operation_xyz
x,y,z
-x,-y,z
x,-y,-z
-x,y,-z
-x,-y,-z
x,y,-z
-x,y,z
x,-y,z
1/2+x,1/2+y,1/2+z
1/2-x,1/2-y,1/2+z
1/2+x,1/2-y,1/2-z
1/2-x,1/2+y,1/2-z
1/2-x,1/2-y,1/2-z
1/2+x,1/2+y,1/2-z
1/2-x,1/2+y,1/2+z
1/2+x,1/2-y,1/2+z
loop_
_atom_site_type_symbol
_atom_site_label
_atom_site_fract_x
_atom_site_fract_y
_atom_site_fract_z
Si Si1 0.813982 0.601067 0.159691
Si Si2 0.305126 0.384056 0.293469
Si Si3 0.500000 0.749417 0.929656
Si Si4 0.500000 0.405309 0.926527
Si Si5 0.800440 0.076079 0.931522
Si Si6 0.316202 0.745068 0.349212
O O1 0.782148 0.585327 0.233093
O O2 0.666029 0.578012 0.113653
O O3 0.809123 0.678978 0.160758
O O4 0.000000 0.581825 0.139719
O O5 0.500000 0.402153 0.289540
O O6 0.238396 0.402146 0.362707
O O7 0.299880 0.306212 0.292769
O O8 0.500000 0.671994 0.929130
O O9 0.334061 0.769974 0.895086
O O10 0.500000 0.772053 0.000000
O O11 0.500000 0.426841 0.000000
O O12 0.000000 0.088552 0.930904
O O13 0.778076 0.000000 0.932409
O O14 0.737029 0.100390 0.000000
O O15 0.500000 0.731990 0.376658
#
# Coordination Sequence:
#
# PCOD9517878 Si02
#       6
#    16  16   8   8  16  16
#     4  10  19  31  48  72 102 133 166 210 252 298
#     4  10  18  29  48  72  97 130 172 212 257 306
#     4   9  18  30  44  62  91 130 167 205 248 290
#     4   9  18  34  50  68  98 133 167 199 237 294
#     4   8  15  29  49  73 101 135 176 221 266 306
#     4   9  19  30  43  67  96 129 166 209 255 301
#
# _framework density 22.470011
#
# number of rings (size 3 to 8) (size 9 to 14) (size 15 to 20)
#    0.000    2.800    1.000    1.200    1.400    1.600 
#    0.000    6.000    0.000    0.600    0.000    1.400 
#    0.000    1.600    0.000    1.800    0.000    0.200 
#
# Total GULP energy -222978.650063 kJ/mol
# GULP energy per Si atom -5574.466252 kJ/mol
# Density = 2.241887 g / cm^3
# Si number density = 22.470011 Si / 1000 Ang^3
#
#
#
# Elastic Constant Matrix: (Units=GPa)
#
#
# Indices 1 2 3 4 5 6 
#
# 1 153.9637 5.5044 95.8345 0.0000 0.0000 0.0000
# 2 5.5044 62.3988 17.2086 0.0000 0.0000 0.0000
# 3 95.8345 17.2086 172.3677 0.0000 0.0000 0.0000
# 4 0.0000 0.0000 0.0000 12.8528 0.0000 0.0000
# 5 0.0000 0.0000 0.0000 0.0000 49.6733 0.0000
# 6 0.0000 0.0000 0.0000 0.0000 0.0000 -5.1962
#
#
#
# Elastic Compliance Matrix: (Units=1/GPa)
#
#
# Indices 1 2 3 4 5 6 
#
# 1 0.009959 0.000667 -0.005604 0.000000 0.000000 0.000000
# 2 0.000667 0.016524 -0.002021 0.000000 0.000000 0.000000
# 3 -0.005604 -0.002021 0.009119 0.000000 0.000000 0.000000
# 4 0.000000 0.000000 0.000000 0.077804 0.000000 0.000000
# 5 0.000000 0.000000 0.000000 0.000000 0.020132 0.000000
# 6 0.000000 0.000000 0.000000 0.000000 0.000000 -0.192447
#
#
# Mechanical properties :
#
#
# Convention : Reuss Voigt Hill
#
# Bulk Modulus (GPa) = 46.10915 69.53612 57.82263
# Shear Modulus (GPa) = -132.40045 29.47816 -51.46115
#
# Velocity S-wave (km/s) = -7.68447 3.62593 -4.79081
# Velocity P-wave (km/s) = 7.62692 6.96729 2.19394
#
# Compressibility (1/GPa) = 0.02168767
#
# Stress axis : x y z
#
# Youngs Moduli (GPa) = 100.40871 60.51678 109.66182
#
# Poissons Ratio (x) = -0.04036 0.61453
# Poissons Ratio (y) = -0.06696 0.22157
# Poissons Ratio (z) = 0.56267 0.12228
#
# Static dielectric constant tensor:
#      x y z
#    x 1.790220 0.000000 0.000000 
#    y 0.000000 1.854920 0.000000 
#    z 0.000000 0.000000 1.721030 
# 
# From -- ./inp_files/16560.got.cif
#   From: 2010.05.17/outbox.cif.g08.bks.cpg/sg71_9_cif.got.tgz:16560.got - 2010.06.03 16:22:01.
