data_PCOD9517692
_publ_section_title
;
Structure prediction by ZEFSAII (Michael W. Deem and Ramdas Pophale) SiO2 
 PCOD9517692
Probable space group: I M M M
;
_chemical_formula_sum "Si O2"
_cell_formula_units_Z 96
_cell_length_a 23.104040
_cell_length_b 7.320723
_cell_length_c 27.515349
_cell_angle_alpha 90.000000
_cell_angle_beta 90.000000
_cell_angle_gamma 90.000000
_cell_volume 4653.898721
_symmetry_space_group_name_H-M "I M M M"
_symmetry_group_IT_number 71
_symmetry_cell_setting 'orthorhombic'
loop_
_space_group_symop_operation_xyz
x,y,z
-x,-y,z
x,-y,-z
-x,y,-z
-x,-y,-z
x,y,-z
-x,y,z
x,-y,z
1/2+x,1/2+y,1/2+z
1/2-x,1/2-y,1/2+z
1/2+x,1/2-y,1/2-z
1/2-x,1/2+y,1/2-z
1/2-x,1/2-y,1/2-z
1/2+x,1/2+y,1/2-z
1/2-x,1/2+y,1/2+z
1/2+x,1/2-y,1/2+z
loop_
_atom_site_type_symbol
_atom_site_label
_atom_site_fract_x
_atom_site_fract_y
_atom_site_fract_z
Si Si1 0.066413 0.277595 0.184763
Si Si2 0.434101 0.219740 0.794790
Si Si3 0.433649 0.777424 0.500000
Si Si4 0.859654 0.277164 0.906393
Si Si5 0.382418 0.286992 0.894875
Si Si6 0.735302 0.276942 0.943374
Si Si7 0.000000 0.222781 0.556516
O O1 0.066823 0.500000 0.184607
O O2 0.079883 0.220071 0.239980
O O3 0.111004 0.216824 0.143749
O O4 0.000000 0.223896 0.173612
O O5 0.500000 0.282048 0.806375
O O6 0.390541 0.274852 0.837059
O O7 0.435409 0.000000 0.794312
O O8 0.500000 0.717639 0.500000
O O9 0.399413 0.721306 0.451835
O O10 0.433951 0.000000 0.500000
O O11 0.859611 0.500000 0.905839
O O12 0.794133 0.218708 0.916778
O O13 0.381898 0.500000 0.908429
O O14 0.322797 0.213047 0.916428
O O15 0.441388 0.210404 0.918024
O O16 0.735921 0.500000 0.942894
O O17 0.735713 0.223014 0.000000
O O18 0.000000 0.270067 0.500000
O O19 0.000000 0.000000 0.559985
#
# Coordination Sequence:
#
# PCOD9517692 Si02
#       7
#    16  16   8  16  16  16   8
#     4   8  14  24  39  58  81 114 151 180 213 262
#     4   9  17  30  46  63  86 116 148 184 225 263
#     4   9  14  18  30  54  84 115 144 177 216 257
#     4   9  14  22  35  55  84 114 146 179 214 259
#     4  10  18  28  45  66  87 113 149 185 220 263
#     4   9  16  26  39  58  85 116 144 176 221 269
#     4   9  16  26  41  63  85 105 137 184 225 258
#
# _framework density 20.627865
#
# number of rings (size 3 to 8) (size 9 to 14) (size 15 to 20)
#    0.000    3.000    1.667    2.000    0.000    4.000 
#    0.000    0.833    0.000    2.500    0.000    0.000 
#    0.000    0.000    0.000    0.167    0.000    9.333 
#
# Total GULP energy -267969.365193 kJ/mol
# GULP energy per Si atom -5582.695108 kJ/mol
# Density = 2.058092 g / cm^3
# Si number density = 20.627865 Si / 1000 Ang^3
#
#
#
# Elastic Constant Matrix: (Units=GPa)
#
#
# Indices 1 2 3 4 5 6 
#
# 1 211.7380 7.4298 129.0763 0.0000 0.0000 0.0000
# 2 7.4298 79.8510 -4.9810 0.0000 0.0000 0.0000
# 3 129.0763 -4.9810 168.6203 0.0000 0.0000 0.0000
# 4 0.0000 0.0000 0.0000 5.2275 0.0000 0.0000
# 5 0.0000 0.0000 0.0000 0.0000 32.8385 0.0000
# 6 0.0000 0.0000 0.0000 0.0000 0.0000 -10.9376
#
#
#
# Elastic Compliance Matrix: (Units=1/GPa)
#
#
# Indices 1 2 3 4 5 6 
#
# 1 0.008981 -0.001267 -0.006912 0.000000 0.000000 0.000000
# 2 -0.001267 0.012725 0.001346 0.000000 0.000000 0.000000
# 3 -0.006912 0.001346 0.011261 0.000000 0.000000 0.000000
# 4 0.000000 0.000000 0.000000 0.191295 0.000000 0.000000
# 5 0.000000 0.000000 0.000000 0.000000 0.030452 0.000000
# 6 0.000000 0.000000 0.000000 0.000000 0.000000 -0.091428
#
#
# Mechanical properties :
#
#
# Convention : Reuss Voigt Hill
#
# Bulk Modulus (GPa) = 51.81154 80.36217 66.08685
# Shear Modulus (GPa) = 27.26476 27.33797 27.30137
#
# Velocity S-wave (km/s) = 3.63952 3.64441 3.64197
# Velocity P-wave (km/s) = 6.54472 7.53336 7.05638
#
# Compressibility (1/GPa) = 0.01930072
#
# Stress axis : x y z
#
# Youngs Moduli (GPa) = 111.34628 78.58458 88.79861
#
# Poissons Ratio (x) = 0.09955 0.61380
# Poissons Ratio (y) = 0.14106 -0.11949
# Poissons Ratio (z) = 0.76965 -0.10575
#
# Static dielectric constant tensor:
#      x y z
#    x 1.701190 0.000000 0.000000 
#    y 0.000000 1.826200 0.000000 
#    z 0.000000 0.000000 1.704340 
# 
# From -- ./inp_files/61641.got.cif
#   From: 2010.05.17/outbox.cif.g08.bks.cpg/sg71_31_cif.got.tgz:61641.got - 2010.06.03 16:22:01.
