data_PCOD9517301
_publ_section_title
;
Structure prediction by ZEFSAII (Michael W. Deem and Ramdas Pophale) SiO2 
 PCOD9517301
Probable space group: I M M M
;
_chemical_formula_sum "Si O2"
_cell_formula_units_Z 120
_cell_length_a 20.060738
_cell_length_b 13.426018
_cell_length_c 28.656264
_cell_angle_alpha 90.000000
_cell_angle_beta 90.000000
_cell_angle_gamma 90.000000
_cell_volume 7718.158634
_symmetry_space_group_name_H-M "I M M M"
_symmetry_group_IT_number 71
_symmetry_cell_setting 'orthorhombic'
loop_
_space_group_symop_operation_xyz
x,y,z
-x,-y,z
x,-y,-z
-x,y,-z
-x,-y,-z
x,y,-z
-x,y,z
x,-y,z
1/2+x,1/2+y,1/2+z
1/2-x,1/2-y,1/2+z
1/2+x,1/2-y,1/2-z
1/2-x,1/2+y,1/2-z
1/2-x,1/2-y,1/2-z
1/2+x,1/2+y,1/2-z
1/2-x,1/2+y,1/2+z
1/2+x,1/2-y,1/2+z
loop_
_atom_site_type_symbol
_atom_site_label
_atom_site_fract_x
_atom_site_fract_y
_atom_site_fract_z
Si Si1 0.074228 0.684378 0.846614
Si Si2 0.876058 0.879115 0.380356
Si Si3 0.000000 0.879604 0.446493
Si Si4 0.687396 0.116139 0.276452
Si Si5 0.893229 0.619971 0.051709
Si Si6 0.262896 0.379685 0.050840
Si Si7 0.336212 0.305193 0.215904
Si Si8 0.576780 0.388950 0.298785
O O1 0.133287 0.630844 0.817930
O O2 0.076080 0.662423 0.901378
O O3 0.083599 0.801425 0.836297
O O4 0.000000 0.655882 0.828913
O O5 0.808277 0.848161 0.406596
O O6 0.877257 0.824504 0.331015
O O7 0.935444 0.853748 0.415851
O O8 0.876524 0.000000 0.372973
O O9 0.000000 0.842284 0.500000
O O10 0.000000 0.000000 0.449705
O O11 0.667738 0.191785 0.234612
O O12 0.761377 0.152482 0.291273
O O13 0.689593 0.000000 0.263693
O O14 0.899967 0.500000 0.053347
O O15 0.814598 0.644948 0.054562
O O16 0.917166 0.651508 0.000000
O O17 0.266708 0.500000 0.050430
O O18 0.288107 0.345475 0.000000
O O19 0.372332 0.365394 0.257330
O O20 0.500000 0.383909 0.281351
O O21 0.587901 0.500000 0.317126
#
# Coordination Sequence:
#
# PCOD9517301 Si02
#       8
#    16  16   8  16  16  16  16  16
#     4  10  20  32  47  67  89 118 152 183 223 274
#     4  10  17  25  41  63  90 122 152 186 224 269
#     4   9  18  28  38  60  95 131 159 187 231 282
#     4  10  20  34  49  66  93 122 151 189 229 275
#     4   9  17  28  43  64  88 113 144 184 226 268
#     4   8  14  25  40  58  83 115 146 176 215 264
#     4  10  20  31  47  71  92 118 155 190 228 270
#     4   9  18  32  49  66  89 118 149 185 223 267
#
# _framework density 15.547750000000001
#
# number of rings (size 3 to 8) (size 9 to 14) (size 15 to 20)
#    0.000    2.600    0.000    3.600    0.933    4.000 
#    0.000    0.667    0.000    0.400    0.000    1.867 
#    0.000    3.733    0.000    0.000    0.000    0.400 
#
# Total GULP energy -334138.264005 kJ/mol
# GULP energy per Si atom -5568.971067 kJ/mol
# Density = 1.551236 g / cm^3
# Si number density = 15.547750 Si / 1000 Ang^3
#
#
#
# Elastic Constant Matrix: (Units=GPa)
#
#
# Indices 1 2 3 4 5 6 
#
# 1 67.5573 27.4629 44.6845 0.0000 0.0000 0.0000
# 2 27.4629 69.3741 34.6081 0.0000 0.0000 0.0000
# 3 44.6845 34.6081 110.4605 0.0000 0.0000 0.0000
# 4 0.0000 0.0000 0.0000 15.8228 0.0000 0.0000
# 5 0.0000 0.0000 0.0000 0.0000 5.8427 0.0000
# 6 0.0000 0.0000 0.0000 0.0000 0.0000 14.0351
#
#
#
# Elastic Compliance Matrix: (Units=1/GPa)
#
#
# Indices 1 2 3 4 5 6 
#
# 1 0.021559 -0.004959 -0.007168 0.000000 0.000000 0.000000
# 2 -0.004959 0.018226 -0.003704 0.000000 0.000000 0.000000
# 3 -0.007168 -0.003704 0.013113 0.000000 0.000000 0.000000
# 4 0.000000 0.000000 0.000000 0.063200 0.000000 0.000000
# 5 0.000000 0.000000 0.000000 0.000000 0.171154 0.000000
# 6 0.000000 0.000000 0.000000 0.000000 0.000000 0.071250
#
#
# Mechanical properties :
#
#
# Convention : Reuss Voigt Hill
#
# Bulk Modulus (GPa) = 47.08919 51.21144 49.15031
# Shear Modulus (GPa) = 12.58681 16.51588 14.55134
#
# Velocity S-wave (km/s) = 2.84836 3.26278 3.06259
# Velocity P-wave (km/s) = 6.41639 6.87052 6.64733
#
# Compressibility (1/GPa) = 0.02123630
#
# Stress axis : x y z
#
# Youngs Moduli (GPa) = 46.38442 54.86810 76.25977
#
# Poissons Ratio (x) = 0.27208 0.54660
# Poissons Ratio (y) = 0.23001 0.28248
# Poissons Ratio (z) = 0.33247 0.20324
#
# Static dielectric constant tensor:
#      x y z
#    x 1.560460 0.000000 0.000000 
#    y 0.000000 1.496010 0.000000 
#    z 0.000000 0.000000 1.521130 
# 
# From -- ./inp_files/66614.got.cif
#   From: 2010.05.17/outbox.cif.g08.bks.cpg/sg71_34_cif.got.tgz:66614.got - 2010.06.03 16:22:01.
