data_PCOD9517915
_publ_section_title
;
Structure prediction by ZEFSAII (Michael W. Deem and Ramdas Pophale) SiO2 
 PCOD9517915
Probable space group: I M M M
;
_chemical_formula_sum "Si O2"
_cell_formula_units_Z 80
_cell_length_a 20.379405
_cell_length_b 25.281725
_cell_length_c 9.939920
_cell_angle_alpha 90.000000
_cell_angle_beta 90.000000
_cell_angle_gamma 90.000000
_cell_volume 5121.310320
_symmetry_space_group_name_H-M "I M M M"
_symmetry_group_IT_number 71
_symmetry_cell_setting 'orthorhombic'
loop_
_space_group_symop_operation_xyz
x,y,z
-x,-y,z
x,-y,-z
-x,y,-z
-x,-y,-z
x,y,-z
-x,y,z
x,-y,z
1/2+x,1/2+y,1/2+z
1/2-x,1/2-y,1/2+z
1/2+x,1/2-y,1/2-z
1/2-x,1/2+y,1/2-z
1/2-x,1/2-y,1/2-z
1/2+x,1/2+y,1/2-z
1/2-x,1/2+y,1/2+z
1/2+x,1/2-y,1/2+z
loop_
_atom_site_type_symbol
_atom_site_label
_atom_site_fract_x
_atom_site_fract_y
_atom_site_fract_z
Si Si1 0.187345 0.181279 0.000000
Si Si2 0.925123 0.684958 0.500000
Si Si3 0.423423 0.233326 0.500000
Si Si4 0.693813 0.734242 0.000000
Si Si5 0.773097 0.940012 0.500000
Si Si6 0.886465 0.439644 0.000000
Si Si7 0.383446 0.853437 0.283514
Si Si8 0.224945 0.145810 0.716131
O O1 0.121141 0.214999 0.000000
O O2 0.246841 0.223947 0.000000
O O3 0.195690 0.148183 0.864223
O O4 0.873326 0.733107 0.500000
O O5 0.911649 0.651411 0.365332
O O6 0.000000 0.703557 0.500000
O O7 0.500000 0.245159 0.500000
O O8 0.405606 0.197004 0.628631
O O9 0.701828 0.696577 0.870327
O O10 0.693305 0.941033 0.500000
O O11 0.792884 0.905940 0.630069
O O12 0.796683 0.000000 0.500000
O O13 0.904740 0.404932 0.869085
O O14 0.910220 0.500000 0.000000
O O15 0.304243 0.852176 0.276380
#
# Coordination Sequence:
#
# PCOD9517915 Si02
#       8
#     8   8   8   8   8   8  16  16
#     4  12  18  29  49  71 101 122 160 200 221 277
#     4  12  23  31  44  68 100 130 154 192 238 278
#     4  11  21  31  46  68  98 133 159 186 227 274
#     4  11  18  31  49  67  97 128 161 191 224 281
#     4   8  16  31  48  71 101 119 144 198 250 282
#     4   8  16  31  53  70  83 114 161 206 244 274
#     4  10  18  32  48  67  94 124 160 196 232 280
#     4  10  18  29  50  74  90 127 166 189 230 280
#
# _framework density 15.621003
#
# number of rings (size 3 to 8) (size 9 to 14) (size 15 to 20)
#    0.000    1.800    4.000    3.600    0.000    0.000 
#    0.000    1.000    0.000   16.200    0.000    0.000 
#    0.000   15.200    0.000    0.000    0.000    0.000 
#
# Total GULP energy -223207.483588 kJ/mol
# GULP energy per Si atom -5580.187090 kJ/mol
# Density = 1.558545 g / cm^3
# Si number density = 15.621003 Si / 1000 Ang^3
#
#
#
# Elastic Constant Matrix: (Units=GPa)
#
#
# Indices 1 2 3 4 5 6 
#
# 1 78.2722 35.9408 29.6918 0.0000 0.0000 0.0000
# 2 35.9408 99.2016 59.1278 0.0000 0.0000 0.0000
# 3 29.6918 59.1278 155.8519 0.0000 0.0000 0.0000
# 4 0.0000 0.0000 0.0000 -2.0741 0.0000 0.0000
# 5 0.0000 0.0000 0.0000 0.0000 -10.1819 0.0000
# 6 0.0000 0.0000 0.0000 0.0000 0.0000 8.8902
#
#
#
# Elastic Compliance Matrix: (Units=1/GPa)
#
#
# Indices 1 2 3 4 5 6 
#
# 1 0.015460 -0.004969 -0.001060 0.000000 0.000000 0.000000
# 2 -0.004969 0.014623 -0.004601 0.000000 0.000000 0.000000
# 3 -0.001060 -0.004601 0.008364 0.000000 0.000000 0.000000
# 4 0.000000 0.000000 0.000000 -0.482148 0.000000 0.000000
# 5 0.000000 0.000000 0.000000 0.000000 -0.098214 0.000000
# 6 0.000000 0.000000 0.000000 0.000000 0.000000 0.112484
#
#
# Mechanical properties :
#
#
# Convention : Reuss Voigt Hill
#
# Bulk Modulus (GPa) = 58.18649 64.76072 61.47360
# Shear Modulus (GPa) = -12.42416 13.23120 0.40352
#
# Velocity S-wave (km/s) = -2.82325 2.91351 0.50880
# Velocity P-wave (km/s) = 5.16740 7.27087 6.30744
#
# Compressibility (1/GPa) = 0.01718612
#
# Stress axis : x y z
#
# Youngs Moduli (GPa) = 64.68378 68.38398 119.56149
#
# Poissons Ratio (x) = 0.33982 0.12674
# Poissons Ratio (y) = 0.32143 0.55012
# Poissons Ratio (z) = 0.06857 0.31464
#
# Static dielectric constant tensor:
#      x y z
#    x 1.506590 0.000000 0.000000 
#    y 0.000000 1.505770 0.000000 
#    z 0.000000 0.000000 1.534900 
# 
# From -- ./inp_files/8490.got.cif
#   From: 2010.05.17/outbox.cif.g08.bks.cpg/sg71_5_cif.got.tgz:8490.got - 2010.06.03 16:22:01.
