data_PCOD9517179
_publ_section_title
;
Structure prediction by ZEFSAII (Michael W. Deem and Ramdas Pophale) SiO2 
 PCOD9517179
Probable space group: F D D D
;
_chemical_formula_sum "Si O2"
_cell_formula_units_Z 40
_cell_length_a 18.000000
_cell_length_b 21.000000
_cell_length_c 21.000000
_cell_angle_alpha 90.000000
_cell_angle_beta 90.000000
_cell_angle_gamma 90.000000
_cell_volume 7938.000000
_symmetry_space_group_name_H-M "F D D D"
_symmetry_group_IT_number 70
_space_group.IT_coordinate_system_code '2'
_symmetry_cell_setting 'orthorhombic'
loop_
_space_group_symop_operation_xyz
x,y,z
1/4-x,1/4-y,z
x,1/4-y,1/4-z
1/4-x,y,1/4-z
-x,-y,-z
3/4+x,3/4+y,-z
-x,3/4+y,3/4+z
3/4+x,-y,3/4+z
x,1/2+y,1/2+z
1/4-x,3/4-y,1/2+z
x,3/4-y,3/4-z
1/4-x,1/2+y,3/4-z
-x,1/2-y,1/2-z
3/4+x,1/4+y,1/2-z
-x,1/4+y,1/4+z
3/4+x,1/2-y,1/4+z
1/2+x,y,1/2+z
3/4-x,1/4-y,1/2+z
1/2+x,1/4-y,3/4-z
3/4-x,y,3/4-z
1/2-x,-y,1/2-z
1/4+x,3/4+y,1/2-z
1/2-x,3/4+y,1/4+z
1/4+x,-y,1/4+z
1/2+x,1/2+y,z
3/4-x,3/4-y,z
1/2+x,3/4-y,1/4-z
3/4-x,1/2+y,1/4-z
1/2-x,1/2-y,-z
1/4+x,1/4+y,-z
1/2-x,1/4+y,3/4+z
1/4+x,1/2-y,3/4+z
loop_
_atom_site_type_symbol
_atom_site_label
_atom_site_fract_x
_atom_site_fract_y
_atom_site_fract_z
Si Si1 0.200538 0.264208 0.791842
Si Si2 0.053286 0.079099 0.300710
Si Si3 0.579745 0.764163 0.691357
Si Si4 0.811935 0.700556 0.618112
Si Si5 0.797199 0.601789 0.406751
O O1 0.252301 0.317975 0.760730
O O2 0.139110 0.237997 0.741455
O O3 0.146077 0.293778 0.843765
O O4 0.251982 0.206655 0.814869
O O5 0.125000 0.125000 0.291281
O O6 0.004503 0.114805 0.353910
O O7 0.062616 0.005455 0.326100
O O8 0.625000 0.762749 0.625000
O O9 0.502493 0.727959 0.679351
O O10 0.565498 0.839466 0.704241
O O11 0.795224 0.625000 0.625000
O O12 0.875000 0.581376 0.375000
#
# Coordination Sequence:
#
# PCOD9517179 Si02
#       5
#    32  32  32  32  32
#     4  12  23  42  74  95 129 190 222 272 354 390
#     4  11  23  48  68  98 136 178 229 278 334 411
#     4  10  21  42  65 101 138 167 222 279 340 415
#     4  11  25  43  63 103 142 168 225 285 333 411
#     4  10  21  43  69  95 136 178 226 280 334 409
#
# _framework density 5.039053
#
# number of rings (size 3 to 8) (size 9 to 14) (size 15 to 20)
#    0.000    1.200    8.000    0.600    2.800    0.400 
#   10.800    2.000    0.000    0.000    0.000    0.000 
#    0.000    0.000    0.000    0.000    0.000    0.000 
#
# Total GULP energy -223088.377110 kJ/mol
# GULP energy per Si atom -5577.209428 kJ/mol
# Density = 0.502758 g / cm^3
# Si number density = 5.039053 Si / 1000 Ang^3
#
#
#
# Elastic Constant Matrix: (Units=GPa)
#
#
# Indices 1 2 3 4 5 6 
#
# 1 167.9044 67.5997 35.2955 0.0000 0.0000 0.0000
# 2 67.5997 126.3117 21.7792 0.0000 0.0000 0.0000
# 3 35.2955 21.7792 26.7132 0.0000 0.0000 0.0000
# 4 0.0000 0.0000 0.0000 30.7848 0.0000 0.0000
# 5 0.0000 0.0000 0.0000 0.0000 47.8147 0.0000
# 6 0.0000 0.0000 0.0000 0.0000 0.0000 41.4418
#
#
#
# Elastic Compliance Matrix: (Units=1/GPa)
#
#
# Indices 1 2 3 4 5 6 
#
# 1 0.009312 -0.003330 -0.009589 0.000000 0.000000 0.000000
# 2 -0.003330 0.010403 -0.004081 0.000000 0.000000 0.000000
# 3 -0.009589 -0.004081 0.053431 0.000000 0.000000 0.000000
# 4 0.000000 0.000000 0.000000 0.032484 0.000000 0.000000
# 5 0.000000 0.000000 0.000000 0.000000 0.020914 0.000000
# 6 0.000000 0.000000 0.000000 0.000000 0.000000 0.024130
#
#
# Mechanical properties :
#
#
# Convention : Reuss Voigt Hill
#
# Bulk Modulus (GPa) = 25.54539 63.36423 44.45481
# Shear Modulus (GPa) = 25.28777 37.09194 31.18985
#
# Velocity S-wave (km/s) = 3.54586 4.29444 3.93798
# Velocity P-wave (km/s) = 5.42820 7.48962 6.54063
#
# Compressibility (1/GPa) = 0.03914601
#
# Stress axis : x y z
#
# Youngs Moduli (GPa) = 107.38464 96.12624 18.71557
#
# Poissons Ratio (x) = 0.32014 0.17946
# Poissons Ratio (y) = 0.35764 0.07638
# Poissons Ratio (z) = 1.02970 0.39230
#
# Static dielectric constant tensor:
#      x y z
#    x 1.711220 0.000000 0.000000 
#    y 0.000000 1.700900 0.000000 
#    z 0.000000 0.000000 1.818420 
# 
# From -- ./inp_files/43661.got.cif
#   From: 2010.05.17/outbox.ucp.g08.bks.cvg/sg70_22_cif.got.tgz:43661.got - 2010.06.11 16:26:41.
