data_PCOD9517893
_publ_section_title
;
Structure prediction by ZEFSAII (Michael W. Deem and Ramdas Pophale) SiO2 
 PCOD9517893
Probable space group: I M M M
;
_chemical_formula_sum "Si O2"
_cell_formula_units_Z 88
_cell_length_a 22.409838
_cell_length_b 9.513060
_cell_length_c 24.332713
_cell_angle_alpha 90.000000
_cell_angle_beta 90.000000
_cell_angle_gamma 90.000000
_cell_volume 5187.397002
_symmetry_space_group_name_H-M "I M M M"
_symmetry_group_IT_number 71
_symmetry_cell_setting 'orthorhombic'
loop_
_space_group_symop_operation_xyz
x,y,z
-x,-y,z
x,-y,-z
-x,y,-z
-x,-y,-z
x,y,-z
-x,y,z
x,-y,z
1/2+x,1/2+y,1/2+z
1/2-x,1/2-y,1/2+z
1/2+x,1/2-y,1/2-z
1/2-x,1/2+y,1/2-z
1/2-x,1/2-y,1/2-z
1/2+x,1/2+y,1/2-z
1/2-x,1/2+y,1/2+z
1/2+x,1/2-y,1/2+z
loop_
_atom_site_type_symbol
_atom_site_label
_atom_site_fract_x
_atom_site_fract_y
_atom_site_fract_z
Si Si1 0.567111 0.837764 0.731015
Si Si2 0.643069 0.336496 0.350815
Si Si3 0.395885 0.165162 0.145724
Si Si4 0.000000 0.672037 0.564647
Si Si5 0.270296 0.833115 0.805058
Si Si6 0.568265 0.835366 0.434732
O O1 0.500000 0.809643 0.711559
O O2 0.613264 0.735626 0.702279
O O3 0.569244 0.825073 0.796589
O O4 0.581967 0.000000 0.717891
O O5 0.627548 0.500000 0.352308
O O6 0.713939 0.323414 0.345461
O O7 0.614893 0.256507 0.401963
O O8 0.440085 0.219825 0.097810
O O9 0.330005 0.219666 0.163554
O O10 0.386419 0.000000 0.132756
O O11 0.000000 0.500000 0.567484
O O12 0.000000 0.710436 0.500000
O O13 0.250000 0.750000 0.750000
O O14 0.279495 0.000000 0.791086
O O15 0.575555 0.822132 0.500000
O O16 0.500000 0.794346 0.421444
O O17 0.574763 0.000000 0.420582
#
# Coordination Sequence:
#
# PCOD9517893 Si02
#       6
#    16  16  16   8  16  16
#     4  10  18  29  49  73  98 134 174 211 254 304
#     4  11  22  32  46  75 109 137 168 206 256 313
#     4   9  16  29  47  70  99 130 167 212 258 304
#     4   9  16  28  50  78 103 129 168 219 270 311
#     4  10  20  33  49  71 104 141 174 206 253 314
#     4   9  19  37  58  76  96 130 177 217 249 295
#
# _framework density 16.964193000000002
#
# number of rings (size 3 to 8) (size 9 to 14) (size 15 to 20)
#    0.000    2.273    2.727    1.636    0.000    4.000 
#    0.000    1.818    0.000    3.273    0.000    0.000 
#    0.000    5.091    0.000    0.000    0.000    0.000 
#
# Total GULP energy -245076.304007 kJ/mol
# GULP energy per Si atom -5569.916000 kJ/mol
# Density = 1.692558 g / cm^3
# Si number density = 16.964193 Si / 1000 Ang^3
#
#
#
# Elastic Constant Matrix: (Units=GPa)
#
#
# Indices 1 2 3 4 5 6 
#
# 1 131.9966 46.3146 54.7576 0.0000 0.0000 0.0000
# 2 46.3146 34.6879 27.2582 0.0000 0.0000 0.0000
# 3 54.7576 27.2582 99.0894 0.0000 0.0000 0.0000
# 4 0.0000 0.0000 0.0000 2.9052 0.0000 0.0000
# 5 0.0000 0.0000 0.0000 0.0000 94.2779 0.0000
# 6 0.0000 0.0000 0.0000 0.0000 0.0000 17.0875
#
#
#
# Elastic Compliance Matrix: (Units=1/GPa)
#
#
# Indices 1 2 3 4 5 6 
#
# 1 0.015194 -0.017464 -0.003592 0.000000 0.000000 0.000000
# 2 -0.017464 0.056852 -0.005989 0.000000 0.000000 0.000000
# 3 -0.003592 -0.005989 0.013724 0.000000 0.000000 0.000000
# 4 0.000000 0.000000 0.000000 0.344211 0.000000 0.000000
# 5 0.000000 0.000000 0.000000 0.000000 0.010607 0.000000
# 6 0.000000 0.000000 0.000000 0.000000 0.000000 0.058522
#
#
# Mechanical properties :
#
#
# Convention : Reuss Voigt Hill
#
# Bulk Modulus (GPa) = 31.56475 58.04830 44.80653
# Shear Modulus (GPa) = 8.86904 32.01701 20.44303
#
# Velocity S-wave (km/s) = 2.28898 4.34905 3.47518
# Velocity P-wave (km/s) = 5.06291 7.71437 6.52474
#
# Compressibility (1/GPa) = 0.03168091
#
# Stress axis : x y z
#
# Youngs Moduli (GPa) = 65.81663 17.58966 72.86334
#
# Poissons Ratio (x) = 0.30718 0.26174
# Poissons Ratio (y) = 1.14940 0.43635
# Poissons Ratio (z) = 0.23642 0.10534
#
# Static dielectric constant tensor:
#      x y z
#    x 1.608310 0.000000 0.000000 
#    y 0.000000 1.566380 0.000000 
#    z 0.000000 0.000000 1.577770 
# 
# From -- ./inp_files/10410.got.cif
#   From: 2010.05.17/outbox.cif.g08.bks.cpg/sg71_6_cif.got.tgz:10410.got - 2010.06.03 16:22:01.
