data_PCOD9517344
_publ_section_title
;
Structure prediction by ZEFSAII (Michael W. Deem and Ramdas Pophale) SiO2 
 PCOD9517344
Probable space group: I M M M
;
_chemical_formula_sum "Si O2"
_cell_formula_units_Z 96
_cell_length_a 30.070423
_cell_length_b 29.168820
_cell_length_c 8.438373
_cell_angle_alpha 90.000000
_cell_angle_beta 90.000000
_cell_angle_gamma 90.000000
_cell_volume 7401.455227
_symmetry_space_group_name_H-M "I M M M"
_symmetry_group_IT_number 71
_symmetry_cell_setting 'orthorhombic'
loop_
_space_group_symop_operation_xyz
x,y,z
-x,-y,z
x,-y,-z
-x,y,-z
-x,-y,-z
x,y,-z
-x,y,z
x,-y,z
1/2+x,1/2+y,1/2+z
1/2-x,1/2-y,1/2+z
1/2+x,1/2-y,1/2-z
1/2-x,1/2+y,1/2-z
1/2-x,1/2-y,1/2-z
1/2+x,1/2+y,1/2-z
1/2-x,1/2+y,1/2+z
1/2+x,1/2-y,1/2+z
loop_
_atom_site_type_symbol
_atom_site_label
_atom_site_fract_x
_atom_site_fract_y
_atom_site_fract_z
Si Si1 0.133234 0.151913 0.314257
Si Si2 0.194670 0.000000 0.193424
Si Si3 0.264576 0.815621 0.311089
Si Si4 0.177905 0.235982 0.185737
Si Si5 0.949150 0.097206 0.191890
Si Si6 0.779874 0.900071 0.811175
Si Si7 0.091638 0.000000 0.192973
O O1 0.138831 0.144286 0.500000
O O2 0.142071 0.205379 0.276377
O O3 0.085933 0.133586 0.257378
O O4 0.172125 0.122832 0.227558
O O5 0.217609 0.047304 0.243168
O O6 0.143025 0.000000 0.244752
O O7 0.194000 0.000000 0.000000
O O8 0.257650 0.809275 0.500000
O O9 0.224334 0.790755 0.218468
O O10 0.309590 0.788199 0.268942
O O11 0.257700 0.868573 0.268911
O O12 0.167587 0.234350 0.000000
O O13 0.000000 0.105017 0.240716
O O14 0.932862 0.046494 0.242709
O O15 0.947378 0.098360 0.000000
O O16 0.773824 0.898739 0.000000
O O17 0.091650 0.000000 0.000000
#
# Coordination Sequence:
#
# PCOD9517344 Si02
#       7
#    16   8  16  16  16  16   8
#     4  11  20  28  39  55  74  92 113 145 186 226
#     4   9  16  25  40  56  71  93 125 158 181 215
#     4   9  16  25  37  56  75  90 110 141 178 213
#     4   9  16  26  40  54  71  92 114 138 170 216
#     4  10  19  31  46  58  68  88 120 155 191 231
#     4  10  17  27  41  54  71  95 122 149 178 215
#     4   9  15  28  45  58  68  84 120 160 190 225
#
# _framework density 12.970421
#
# number of rings (size 3 to 8) (size 9 to 14) (size 15 to 20)
#    0.000    2.333    1.667    5.250    0.000    3.333 
#    0.000    2.917    0.000    1.000    0.000    0.000 
#    0.000    0.000    0.000    0.000    0.000    0.000 
#
# Total GULP energy -267333.811243 kJ/mol
# GULP energy per Si atom -5569.454401 kJ/mol
# Density = 1.294090 g / cm^3
# Si number density = 12.970421 Si / 1000 Ang^3
#
#
#
# Elastic Constant Matrix: (Units=GPa)
#
#
# Indices 1 2 3 4 5 6 
#
# 1 47.4136 49.1022 6.8800 0.0000 0.0000 0.0000
# 2 49.1022 93.5595 8.5089 0.0000 0.0000 0.0000
# 3 6.8800 8.5089 17.7368 0.0000 0.0000 0.0000
# 4 0.0000 0.0000 0.0000 14.6039 0.0000 0.0000
# 5 0.0000 0.0000 0.0000 0.0000 11.8872 0.0000
# 6 0.0000 0.0000 0.0000 0.0000 0.0000 11.8762
#
#
#
# Elastic Compliance Matrix: (Units=1/GPa)
#
#
# Indices 1 2 3 4 5 6 
#
# 1 0.046948 -0.024032 -0.006682 0.000000 0.000000 0.000000
# 2 -0.024032 0.023477 -0.001941 0.000000 0.000000 0.000000
# 3 -0.006682 -0.001941 0.059903 0.000000 0.000000 0.000000
# 4 0.000000 0.000000 0.000000 0.068475 0.000000 0.000000
# 5 0.000000 0.000000 0.000000 0.000000 0.084124 0.000000
# 6 0.000000 0.000000 0.000000 0.000000 0.000000 0.084202
#
#
# Mechanical properties :
#
#
# Convention : Reuss Voigt Hill
#
# Bulk Modulus (GPa) = 15.38019 31.96580 23.67300
# Shear Modulus (GPa) = 11.01049 13.95472 12.48260
#
# Velocity S-wave (km/s) = 2.91674 3.28363 3.10561
# Velocity P-wave (km/s) = 4.81942 6.25100 5.58130
#
# Compressibility (1/GPa) = 0.06501870
#
# Stress axis : x y z
#
# Youngs Moduli (GPa) = 21.30002 42.59416 16.69368
#
# Poissons Ratio (x) = 1.02362 0.11155
# Poissons Ratio (y) = 0.51188 0.03240
# Poissons Ratio (z) = 0.14233 0.08268
#
# Static dielectric constant tensor:
#      x y z
#    x 1.400330 0.000000 0.000000 
#    y 0.000000 1.463720 0.000000 
#    z 0.000000 0.000000 1.443150 
# 
# From -- ./inp_files/17563.got.cif
#   From: 2010.05.17/outbox.cif.g08.bks.cpg/sg71_9_cif.got.tgz:17563.got - 2010.06.03 16:22:01.
