data_PCOD9517833
_publ_section_title
;
Structure prediction by ZEFSAII (Michael W. Deem and Ramdas Pophale) SiO2 
 PCOD9517833
Probable space group: I M M M
;
_chemical_formula_sum "Si O2"
_cell_formula_units_Z 120
_cell_length_a 23.676084
_cell_length_b 7.525211
_cell_length_c 34.814077
_cell_angle_alpha 90.000000
_cell_angle_beta 90.000000
_cell_angle_gamma 90.000000
_cell_volume 6202.738030
_symmetry_space_group_name_H-M "I M M M"
_symmetry_group_IT_number 71
_symmetry_cell_setting 'orthorhombic'
loop_
_space_group_symop_operation_xyz
x,y,z
-x,-y,z
x,-y,-z
-x,y,-z
-x,-y,-z
x,y,-z
-x,y,z
x,-y,z
1/2+x,1/2+y,1/2+z
1/2-x,1/2-y,1/2+z
1/2+x,1/2-y,1/2-z
1/2-x,1/2+y,1/2-z
1/2-x,1/2-y,1/2-z
1/2+x,1/2+y,1/2-z
1/2-x,1/2+y,1/2+z
1/2+x,1/2-y,1/2+z
loop_
_atom_site_type_symbol
_atom_site_label
_atom_site_fract_x
_atom_site_fract_y
_atom_site_fract_z
Si Si1 0.641628 0.282043 0.309271
Si Si2 0.066278 0.782669 0.414854
Si Si3 0.736470 0.788882 0.205016
Si Si4 0.563575 0.709396 0.623306
Si Si5 0.434158 0.786322 0.459278
Si Si6 0.931505 0.792815 0.500000
Si Si7 0.381847 0.291326 0.835616
Si Si8 0.562830 0.717236 0.759627
O O1 0.642650 0.500000 0.308841
O O2 0.705712 0.223587 0.314343
O O3 0.602369 0.217418 0.343513
O O4 0.611876 0.226708 0.269588
O O5 0.084591 0.719763 0.457732
O O6 0.104041 0.722414 0.378392
O O7 0.000000 0.735156 0.408659
O O8 0.067758 0.000000 0.416631
O O9 0.750000 0.750000 0.250000
O O10 0.680456 0.721534 0.183562
O O11 0.732331 0.000000 0.202019
O O12 0.500000 0.785241 0.623238
O O13 0.558285 0.500000 0.630886
O O14 0.590062 0.728275 0.581143
O O15 0.409363 0.725789 0.500000
O O16 0.500000 0.727510 0.458854
O O17 0.434331 0.000000 0.459344
O O18 0.000000 0.788081 0.500000
O O19 0.914076 0.000000 0.500000
O O20 0.394505 0.500000 0.838477
O O21 0.423044 0.219161 0.802380
O O22 0.500000 0.770409 0.747090
O O23 0.563629 0.500000 0.759655
#
# Coordination Sequence:
#
# PCOD9517833 Si02
#       8
#    16  16  16  16  16   8  16  16
#     4   9  17  29  44  64  87 112 146 186 226 265
#     4   8  13  22  40  69 102 130 157 192 235 283
#     4  11  21  35  51  66  87 119 157 195 231 268
#     4   9  16  26  43  67  89 107 136 181 225 262
#     4   8  14  25  40  59  87 120 144 162 198 258
#     4   7  10  18  34  62 101 133 151 181 234 283
#     4  10  18  29  46  71  95 119 157 197 230 269
#     4   9  15  24  42  66  90 116 146 181 221 264
#
# _framework density 19.346294
#
# number of rings (size 3 to 8) (size 9 to 14) (size 15 to 20)
#    0.000    3.000    1.333    2.400    0.000    3.467 
#    0.000    2.667    0.000    1.600    1.733    0.467 
#    0.000    1.600    0.000    0.000    0.000    0.000 
#
# Total GULP energy -334029.061977 kJ/mol
# GULP energy per Si atom -5567.151033 kJ/mol
# Density = 1.930226 g / cm^3
# Si number density = 19.346294 Si / 1000 Ang^3
#
#
#
# Elastic Constant Matrix: (Units=GPa)
#
#
# Indices 1 2 3 4 5 6 
#
# 1 69.9825 -8.0511 40.4325 0.0000 0.0000 0.0000
# 2 -8.0511 44.7427 -4.3180 0.0000 0.0000 0.0000
# 3 40.4325 -4.3180 157.7434 0.0000 0.0000 0.0000
# 4 0.0000 0.0000 0.0000 18.0490 0.0000 0.0000
# 5 0.0000 0.0000 0.0000 0.0000 6.8127 0.0000
# 6 0.0000 0.0000 0.0000 0.0000 0.0000 8.7042
#
#
#
# Elastic Compliance Matrix: (Units=1/GPa)
#
#
# Indices 1 2 3 4 5 6 
#
# 1 0.017083 0.002658 -0.004306 0.000000 0.000000 0.000000
# 2 0.002658 0.022823 -0.000057 0.000000 0.000000 0.000000
# 3 -0.004306 -0.000057 0.007442 0.000000 0.000000 0.000000
# 4 0.000000 0.000000 0.000000 0.055405 0.000000 0.000000
# 5 0.000000 0.000000 0.000000 0.000000 0.146786 0.000000
# 6 0.000000 0.000000 0.000000 0.000000 0.000000 0.114887
#
#
# Mechanical properties :
#
#
# Convention : Reuss Voigt Hill
#
# Bulk Modulus (GPa) = 22.75884 36.51062 29.63473
# Shear Modulus (GPa) = 13.07260 23.00683 18.03971
#
# Velocity S-wave (km/s) = 2.60227 3.45224 3.05694
# Velocity P-wave (km/s) = 4.56274 5.89947 5.27363
#
# Compressibility (1/GPa) = 0.04393897
#
# Stress axis : x y z
#
# Youngs Moduli (GPa) = 58.53827 43.81560 134.38089
#
# Poissons Ratio (x) = -0.11648 0.57863
# Poissons Ratio (y) = -0.15562 0.00761
# Poissons Ratio (z) = 0.25206 0.00248
#
# Static dielectric constant tensor:
#      x y z
#    x 1.676350 0.000000 0.000000 
#    y 0.000000 1.682140 0.000000 
#    z 0.000000 0.000000 1.752680 
# 
# From -- ./inp_files/70857.got.cif
#   From: 2010.05.17/outbox.cif.g08.bks.cpg/sg71_36_cif.got.tgz:70857.got - 2010.06.03 16:22:01.
