data_PCOD9517313
_publ_section_title
;
Structure prediction by ZEFSAII (Michael W. Deem and Ramdas Pophale) SiO2 
 PCOD9517313
Probable space group: I M M M
;
_chemical_formula_sum "Si O2"
_cell_formula_units_Z 96
_cell_length_a 23.679017
_cell_length_b 28.574250
_cell_length_c 7.342561
_cell_angle_alpha 90.000000
_cell_angle_beta 90.000000
_cell_angle_gamma 90.000000
_cell_volume 4968.051311
_symmetry_space_group_name_H-M "I M M M"
_symmetry_group_IT_number 71
_symmetry_cell_setting 'orthorhombic'
loop_
_space_group_symop_operation_xyz
x,y,z
-x,-y,z
x,-y,-z
-x,y,-z
-x,-y,-z
x,y,-z
-x,y,z
x,-y,z
1/2+x,1/2+y,1/2+z
1/2-x,1/2-y,1/2+z
1/2+x,1/2-y,1/2-z
1/2-x,1/2+y,1/2-z
1/2-x,1/2-y,1/2-z
1/2+x,1/2+y,1/2-z
1/2-x,1/2+y,1/2+z
1/2+x,1/2-y,1/2+z
loop_
_atom_site_type_symbol
_atom_site_label
_atom_site_fract_x
_atom_site_fract_y
_atom_site_fract_z
Si Si1 0.117405 0.282795 0.216493
Si Si2 0.000000 0.760742 0.222691
Si Si3 0.122124 0.894420 0.219936
Si Si4 0.202031 0.643548 0.717471
Si Si5 0.190385 0.198491 0.779595
Si Si6 0.500000 0.370563 0.722714
Si Si7 0.733293 0.552645 0.722534
O O1 0.056280 0.266479 0.283546
O O2 0.140886 0.334869 0.245337
O O3 0.164424 0.246556 0.289874
O O4 0.115263 0.275941 0.000000
O O5 0.000000 0.815554 0.276244
O O6 0.000000 0.761149 0.000000
O O7 0.146283 0.842887 0.261457
O O8 0.057655 0.895661 0.282929
O O9 0.170606 0.930353 0.280557
O O10 0.120774 0.898262 0.000000
O O11 0.207807 0.642166 0.500000
O O12 0.249417 0.680122 0.788240
O O13 0.221859 0.592325 0.781115
O O14 0.194442 0.201489 0.000000
O O15 0.500000 0.370455 0.500000
O O16 0.733120 0.552664 0.500000
O O17 0.745303 0.500000 0.781925
#
# Coordination Sequence:
#
# PCOD9517313 Si02
#       7
#    16   8  16  16  16   8  16
#     4  10  17  26  40  59  82 107 136 164 192 232
#     4   9  16  24  37  56  80 111 141 163 187 230
#     4   8  12  18  31  51  75 104 138 170 195 226
#     4   9  17  27  40  59  81 105 133 165 202 240
#     4   8  13  22  36  55  79 106 134 162 192 231
#     4   9  12  18  31  49  76 110 142 165 190 227
#     4   8  14  25  39  54  74 102 135 169 206 245
#
# _framework density 19.323471999999999
#
# number of rings (size 3 to 8) (size 9 to 14) (size 15 to 20)
#    0.000    3.333    1.667    2.500    0.000    0.000 
#    0.000    0.833    0.000    3.000    0.000    0.583 
#    0.000    4.667    0.000    0.000    0.000    5.750 
#
# Total GULP energy -267528.372567 kJ/mol
# GULP energy per Si atom -5573.507762 kJ/mol
# Density = 1.927949 g / cm^3
# Si number density = 19.323472 Si / 1000 Ang^3
#
#
#
# Elastic Constant Matrix: (Units=GPa)
#
#
# Indices 1 2 3 4 5 6 
#
# 1 56.0316 63.0863 3.0574 0.0000 0.0000 0.0000
# 2 63.0863 127.5052 3.7802 0.0000 0.0000 0.0000
# 3 3.0574 3.7802 72.7372 0.0000 0.0000 0.0000
# 4 0.0000 0.0000 0.0000 -7.2516 0.0000 0.0000
# 5 0.0000 0.0000 0.0000 0.0000 -5.1603 0.0000
# 6 0.0000 0.0000 0.0000 0.0000 0.0000 10.8400
#
#
#
# Elastic Compliance Matrix: (Units=1/GPa)
#
#
# Indices 1 2 3 4 5 6 
#
# 1 0.040325 -0.019932 -0.000659 0.000000 0.000000 0.000000
# 2 -0.019932 0.017707 -0.000082 0.000000 0.000000 0.000000
# 3 -0.000659 -0.000082 0.013780 0.000000 0.000000 0.000000
# 4 0.000000 0.000000 0.000000 -0.137901 0.000000 0.000000
# 5 0.000000 0.000000 0.000000 0.000000 -0.193788 0.000000
# 6 0.000000 0.000000 0.000000 0.000000 0.000000 0.092251
#
#
# Mechanical properties :
#
#
# Convention : Reuss Voigt Hill
#
# Bulk Modulus (GPa) = 32.82492 44.01354 38.41923
# Shear Modulus (GPa) = -43.05726 12.10899 -15.47414
#
# Velocity S-wave (km/s) = -4.72554 2.50601 -2.83290
# Velocity P-wave (km/s) = 3.57077 5.58571 3.03725
#
# Compressibility (1/GPa) = 0.03046466
#
# Stress axis : x y z
#
# Youngs Moduli (GPa) = 24.79877 56.47453 72.56838
#
# Poissons Ratio (x) = 1.12565 0.04783
# Poissons Ratio (y) = 0.49429 0.00598
# Poissons Ratio (z) = 0.01635 0.00465
#
# Static dielectric constant tensor:
#      x y z
#    x 1.693940 0.000000 0.000000 
#    y 0.000000 1.660390 0.000000 
#    z 0.000000 0.000000 1.825720 
# 
# From -- ./inp_files/26404.got.cif
#   From: 2010.05.17/outbox.cif.g08.bks.cpg/sg71_14_cif.got.tgz:26404.got - 2010.06.03 16:22:01.
