data_PCOD9517824
_publ_section_title
;
Structure prediction by ZEFSAII (Michael W. Deem and Ramdas Pophale) SiO2 
 PCOD9517824
Probable space group: I M M M
;
_chemical_formula_sum "Si O2"
_cell_formula_units_Z 128
_cell_length_a 23.845914
_cell_length_b 13.758981
_cell_length_c 23.874892
_cell_angle_alpha 90.000000
_cell_angle_beta 90.000000
_cell_angle_gamma 90.000000
_cell_volume 7833.244095
_symmetry_space_group_name_H-M "I M M M"
_symmetry_group_IT_number 71
_symmetry_cell_setting 'orthorhombic'
loop_
_space_group_symop_operation_xyz
x,y,z
-x,-y,z
x,-y,-z
-x,y,-z
-x,-y,-z
x,y,-z
-x,y,z
x,-y,z
1/2+x,1/2+y,1/2+z
1/2-x,1/2-y,1/2+z
1/2+x,1/2-y,1/2-z
1/2-x,1/2+y,1/2-z
1/2-x,1/2-y,1/2-z
1/2+x,1/2+y,1/2-z
1/2-x,1/2+y,1/2+z
1/2+x,1/2-y,1/2+z
loop_
_atom_site_type_symbol
_atom_site_label
_atom_site_fract_x
_atom_site_fract_y
_atom_site_fract_z
Si Si1 0.433209 0.884707 0.066187
Si Si2 0.754199 0.617138 0.682303
Si Si3 0.219090 0.113838 0.060668
Si Si4 0.624673 0.798479 0.170592
Si Si5 0.433664 0.892437 0.270643
Si Si6 0.436061 0.302790 0.321243
Si Si7 0.348297 0.386821 0.238909
Si Si8 0.084023 0.887141 0.938783
O O1 0.500000 0.866894 0.075774
O O2 0.394214 0.821875 0.107434
O O3 0.423150 0.000000 0.077156
O O4 0.422392 0.867948 0.000000
O O5 0.750664 0.500000 0.680637
O O6 0.738173 0.655704 0.620083
O O7 0.817718 0.649867 0.689295
O O8 0.709752 0.645297 0.730471
O O9 0.151672 0.115299 0.061691
O O10 0.236314 0.000000 0.060332
O O11 0.237504 0.155340 0.000000
O O12 0.577995 0.849871 0.209247
O O13 0.633482 0.686815 0.189601
O O14 0.500000 0.900344 0.279289
O O15 0.413528 0.806316 0.311076
O O16 0.408893 0.000000 0.277544
O O17 0.500000 0.309461 0.299699
O O18 0.395519 0.373982 0.287096
O O19 0.436280 0.328214 0.386048
O O20 0.344233 0.500000 0.222536
O O21 0.067639 0.000000 0.932645
O O22 0.065585 0.852920 0.000000
#
# Coordination Sequence:
#
# PCOD9517824 Si02
#       8
#    16  16  16  16  16  16  16  16
#     4   9  18  33  53  78 107 130 147 184 247 305
#     4  10  18  29  46  68  97 127 156 197 241 281
#     4   8  14  25  42  63  89 122 151 177 222 277
#     4  11  20  30  50  75  95 122 163 194 225 284
#     4   9  18  32  48  67  93 121 149 188 234 276
#     4  10  19  30  47  68  89 119 159 195 229 277
#     4  10  21  35  46  63  97 133 161 196 239 274
#     4   9  16  27  43  63  89 120 151 184 226 273
#
# _framework density 16.340612
#
# number of rings (size 3 to 8) (size 9 to 14) (size 15 to 20)
#    0.000    2.500    1.250    3.375    0.000    3.250 
#    0.000    1.875    0.000    0.750    0.000    2.625 
#    0.000    0.000    0.000    0.000    0.000    0.000 
#
# Total GULP energy -356279.841251 kJ/mol
# GULP energy per Si atom -5566.872520 kJ/mol
# Density = 1.630342 g / cm^3
# Si number density = 16.340612 Si / 1000 Ang^3
#
#
#
# Elastic Constant Matrix: (Units=GPa)
#
#
# Indices 1 2 3 4 5 6 
#
# 1 29.5525 12.5235 13.7986 0.0000 0.0000 0.0000
# 2 12.5235 63.4865 42.3915 0.0000 0.0000 0.0000
# 3 13.7986 42.3915 87.9748 0.0000 0.0000 0.0000
# 4 0.0000 0.0000 0.0000 18.5261 0.0000 0.0000
# 5 0.0000 0.0000 0.0000 0.0000 17.4368 0.0000
# 6 0.0000 0.0000 0.0000 0.0000 0.0000 26.7326
#
#
#
# Elastic Compliance Matrix: (Units=1/GPa)
#
#
# Indices 1 2 3 4 5 6 
#
# 1 0.037613 -0.005131 -0.003427 0.000000 0.000000 0.000000
# 2 -0.005131 0.023924 -0.010723 0.000000 0.000000 0.000000
# 3 -0.003427 -0.010723 0.017071 0.000000 0.000000 0.000000
# 4 0.000000 0.000000 0.000000 0.053978 0.000000 0.000000
# 5 0.000000 0.000000 0.000000 0.000000 0.057350 0.000000
# 6 0.000000 0.000000 0.000000 0.000000 0.000000 0.037408
#
#
# Mechanical properties :
#
#
# Convention : Reuss Voigt Hill
#
# Bulk Modulus (GPa) = 24.97174 35.38231 30.17702
# Shear Modulus (GPa) = 17.90485 20.02577 18.96531
#
# Velocity S-wave (km/s) = 3.31377 3.50454 3.41049
# Velocity P-wave (km/s) = 5.47326 6.17056 5.83234
#
# Compressibility (1/GPa) = 0.04004528
#
# Stress axis : x y z
#
# Youngs Moduli (GPa) = 26.58676 41.79967 58.57765
#
# Poissons Ratio (x) = 0.21449 0.20073
# Poissons Ratio (y) = 0.13643 0.62813
# Poissons Ratio (z) = 0.09111 0.44822
#
# Static dielectric constant tensor:
#      x y z
#    x 1.587050 0.000000 0.000000 
#    y 0.000000 1.555850 0.000000 
#    z 0.000000 0.000000 1.572500 
# 
# From -- ./inp_files/61729.got.cif
#   From: 2010.05.17/outbox.cif.g08.bks.cpg/sg71_31_cif.got.tgz:61729.got - 2010.06.03 16:22:01.
