data_PCOD9517354
_publ_section_title
;
Structure prediction by ZEFSAII (Michael W. Deem and Ramdas Pophale) SiO2 
 PCOD9517354
Probable space group: I M M M
;
_chemical_formula_sum "Si O2"
_cell_formula_units_Z 112
_cell_length_a 14.412410
_cell_length_b 15.229106
_cell_length_c 36.686462
_cell_angle_alpha 90.000000
_cell_angle_beta 90.000000
_cell_angle_gamma 90.000000
_cell_volume 8052.242559
_symmetry_space_group_name_H-M "I M M M"
_symmetry_group_IT_number 71
_symmetry_cell_setting 'orthorhombic'
loop_
_space_group_symop_operation_xyz
x,y,z
-x,-y,z
x,-y,-z
-x,y,-z
-x,-y,-z
x,y,-z
-x,y,z
x,-y,z
1/2+x,1/2+y,1/2+z
1/2-x,1/2-y,1/2+z
1/2+x,1/2-y,1/2-z
1/2-x,1/2+y,1/2-z
1/2-x,1/2-y,1/2-z
1/2+x,1/2+y,1/2-z
1/2-x,1/2+y,1/2+z
1/2+x,1/2-y,1/2+z
loop_
_atom_site_type_symbol
_atom_site_label
_atom_site_fract_x
_atom_site_fract_y
_atom_site_fract_z
Si Si1 0.389255 0.600867 0.822257
Si Si2 0.736862 0.394013 0.608134
Si Si3 0.394513 0.393516 0.458527
Si Si4 0.605273 0.394512 0.677196
Si Si5 0.895852 0.596572 0.710538
Si Si6 0.891553 0.279485 0.358935
Si Si7 0.218654 0.149874 0.751169
O O1 0.500000 0.610206 0.814499
O O2 0.373470 0.500000 0.834078
O O3 0.366042 0.678002 0.851036
O O4 0.332018 0.618994 0.785372
O O5 0.755535 0.500000 0.607843
O O6 0.680209 0.369519 0.571802
O O7 0.670371 0.374854 0.642785
O O8 0.827054 0.334277 0.613929
O O9 0.373551 0.365405 0.500000
O O10 0.500000 0.365325 0.449305
O O11 0.396256 0.500000 0.458617
O O12 0.500000 0.362428 0.672364
O O13 0.602207 0.500000 0.679625
O O14 0.650520 0.362154 0.714539
O O15 0.891352 0.500000 0.692520
O O16 0.881818 0.670286 0.679994
O O17 0.814251 0.600327 0.739618
O O18 0.000000 0.607196 0.725714
O O19 0.000000 0.283851 0.369115
O O20 0.250000 0.250000 0.750000
#
# Coordination Sequence:
#
# PCOD9517354 Si02
#       7
#    16  16  16  16  16  16  16
#     4  10  20  33  47  60  78 106 140 182 227 267
#     4  10  17  27  43  64  90 117 143 171 205 243
#     4   8  14  25  42  65  94 126 152 170 194 237
#     4  10  19  28  39  57  79 102 131 171 215 252
#     4  10  19  30  42  55  75 103 135 170 206 249
#     4  10  19  31  44  61  81 106 144 179 210 251
#     4  12  20  29  42  57  79 105 136 178 222 262
#
# _framework density 13.909167999999999
#
# number of rings (size 3 to 8) (size 9 to 14) (size 15 to 20)
#    0.000    2.000    2.857    3.000    0.000    4.286 
#    0.000    0.000    0.000    0.429    0.000    2.000 
#    0.000    0.571    0.000    5.143    0.000    0.143 
#
# Total GULP energy -311979.852855 kJ/mol
# GULP energy per Si atom -5571.068801 kJ/mol
# Density = 1.387751 g / cm^3
# Si number density = 13.909168 Si / 1000 Ang^3
#
#
#
# Elastic Constant Matrix: (Units=GPa)
#
#
# Indices 1 2 3 4 5 6 
#
# 1 87.9790 36.3534 46.5411 0.0000 0.0000 0.0000
# 2 36.3534 72.7706 21.2151 0.0000 0.0000 0.0000
# 3 46.5411 21.2151 62.5814 0.0000 0.0000 0.0000
# 4 0.0000 0.0000 0.0000 10.2150 0.0000 0.0000
# 5 0.0000 0.0000 0.0000 0.0000 20.2382 0.0000
# 6 0.0000 0.0000 0.0000 0.0000 0.0000 7.1782
#
#
#
# Elastic Compliance Matrix: (Units=1/GPa)
#
#
# Indices 1 2 3 4 5 6 
#
# 1 0.021317 -0.006688 -0.013586 0.000000 0.000000 0.000000
# 2 -0.006688 0.017347 -0.000907 0.000000 0.000000 0.000000
# 3 -0.013586 -0.000907 0.026390 0.000000 0.000000 0.000000
# 4 0.000000 0.000000 0.000000 0.097896 0.000000 0.000000
# 5 0.000000 0.000000 0.000000 0.000000 0.049412 0.000000
# 6 0.000000 0.000000 0.000000 0.000000 0.000000 0.139310
#
#
# Mechanical properties :
#
#
# Convention : Reuss Voigt Hill
#
# Bulk Modulus (GPa) = 44.06699 47.95004 46.00851
# Shear Modulus (GPa) = 12.45027 15.47437 13.96232
#
# Velocity S-wave (km/s) = 2.99509 3.33908 3.17175
# Velocity P-wave (km/s) = 6.61147 7.02954 6.82371
#
# Compressibility (1/GPa) = 0.02269272
#
# Stress axis : x y z
#
# Youngs Moduli (GPa) = 46.91100 57.64552 37.89290
#
# Poissons Ratio (x) = 0.38556 0.51481
# Poissons Ratio (y) = 0.31376 0.03436
# Poissons Ratio (z) = 0.63732 0.05227
#
# Static dielectric constant tensor:
#      x y z
#    x 1.651330 0.000000 0.000000 
#    y 0.000000 1.503330 0.000000 
#    z 0.000000 0.000000 1.440040 
# 
# From -- ./inp_files/70066.got.cif
#   From: 2010.05.17/outbox.cif.g08.bks.cpg/sg71_36_cif.got.tgz:70066.got - 2010.06.03 16:22:01.
