data_PCOD9517114
_publ_section_title
;
Structure prediction by ZEFSAII (Michael W. Deem and Ramdas Pophale) SiO2 
 PCOD9517114
Probable space group: F D D D
;
_chemical_formula_sum "Si O2"
_cell_formula_units_Z 112
_cell_length_a 14.814698
_cell_length_b 13.792154
_cell_length_c 23.377382
_cell_angle_alpha 90.000000
_cell_angle_beta 90.000000
_cell_angle_gamma 90.000000
_cell_volume 4776.620894
_symmetry_space_group_name_H-M "F D D D"
_symmetry_group_IT_number 70
_space_group.IT_coordinate_system_code '2'
_symmetry_cell_setting 'orthorhombic'
loop_
_space_group_symop_operation_xyz
x,y,z
1/4-x,1/4-y,z
x,1/4-y,1/4-z
1/4-x,y,1/4-z
-x,-y,-z
3/4+x,3/4+y,-z
-x,3/4+y,3/4+z
3/4+x,-y,3/4+z
x,1/2+y,1/2+z
1/4-x,3/4-y,1/2+z
x,3/4-y,3/4-z
1/4-x,1/2+y,3/4-z
-x,1/2-y,1/2-z
3/4+x,1/4+y,1/2-z
-x,1/4+y,1/4+z
3/4+x,1/2-y,1/4+z
1/2+x,y,1/2+z
3/4-x,1/4-y,1/2+z
1/2+x,1/4-y,3/4-z
3/4-x,y,3/4-z
1/2-x,-y,1/2-z
1/4+x,3/4+y,1/2-z
1/2-x,3/4+y,1/4+z
1/4+x,-y,1/4+z
1/2+x,1/2+y,z
3/4-x,3/4-y,z
1/2+x,3/4-y,1/4-z
3/4-x,1/2+y,1/4-z
1/2-x,1/2-y,-z
1/4+x,1/4+y,-z
1/2-x,1/4+y,3/4+z
1/4+x,1/2-y,3/4+z
loop_
_atom_site_type_symbol
_atom_site_label
_atom_site_fract_x
_atom_site_fract_y
_atom_site_fract_z
Si Si1 0.578036 0.855549 0.684654
Si Si2 0.474076 0.035645 0.730418
Si Si3 0.169207 0.770622 0.883875
Si Si4 0.625000 0.625000 0.284148
O O1 0.625000 0.887898 0.625000
O O2 0.540952 0.943908 0.723052
O O3 0.649371 0.789328 0.719263
O O4 0.489473 0.796135 0.667263
O O5 0.418366 0.038722 0.672319
O O6 0.537498 0.126783 0.744383
O O7 0.213065 0.875000 0.875000
O O8 0.140472 0.714926 0.826732
#
# Coordination Sequence:
#
# PCOD9517114 Si02
#       4
#    32  32  32  16
#     4  12  26  51  79 113 157 201 264 325 397 474
#     4  12  26  47  80 108 156 206 254 326 391 467
#     4  12  26  49  77 112 157 200 262 325 393 475
#     4  12  26  52  71 114 153 198 268 312 394 472
#
# _framework density 23.447537000000001
#
# number of rings (size 3 to 8) (size 9 to 14) (size 15 to 20)
#    0.000    0.000    5.714    2.571    0.000    9.714 
#    0.000    0.000    0.000    0.000    0.000    0.000 
#    0.000    0.000    0.000    0.000    0.000    0.000 
#
# Total GULP energy -156721.835608 kJ/mol
# GULP energy per Si atom -5597.208415 kJ/mol
# Density = 2.339417 g / cm^3
# Si number density = 23.447537 Si / 1000 Ang^3
#
#
#
# Elastic Constant Matrix: (Units=GPa)
#
#
# Indices 1 2 3 4 5 6 
#
# 1 140.3326 35.4108 67.8818 0.0000 0.0000 0.0000
# 2 35.4108 111.0048 47.5615 0.0000 0.0000 0.0000
# 3 67.8818 47.5615 130.3185 0.0000 0.0000 0.0000
# 4 0.0000 0.0000 0.0000 21.6599 0.0000 0.0000
# 5 0.0000 0.0000 0.0000 0.0000 17.8973 0.0000
# 6 0.0000 0.0000 0.0000 0.0000 0.0000 3.8584
#
#
#
# Elastic Compliance Matrix: (Units=1/GPa)
#
#
# Indices 1 2 3 4 5 6 
#
# 1 0.009637 -0.001095 -0.004620 0.000000 0.000000 0.000000
# 2 -0.001095 0.010803 -0.003372 0.000000 0.000000 0.000000
# 3 -0.004620 -0.003372 0.011311 0.000000 0.000000 0.000000
# 4 0.000000 0.000000 0.000000 0.046168 0.000000 0.000000
# 5 0.000000 0.000000 0.000000 0.000000 0.055874 0.000000
# 6 0.000000 0.000000 0.000000 0.000000 0.000000 0.259173
#
#
# Mechanical properties :
#
#
# Convention : Reuss Voigt Hill
#
# Bulk Modulus (GPa) = 73.65912 75.92932 74.79422
# Shear Modulus (GPa) = 12.02886 24.06993 18.04940
#
# Velocity S-wave (km/s) = 2.26743 3.20745 2.77750
# Velocity P-wave (km/s) = 6.19174 6.79484 6.50029
#
# Compressibility (1/GPa) = 0.01357605
#
# Stress axis : x y z
#
# Youngs Moduli (GPa) = 103.76545 92.56887 88.40906
#
# Poissons Ratio (x) = 0.10133 0.40849
# Poissons Ratio (y) = 0.11358 0.29816
# Poissons Ratio (z) = 0.47944 0.31218
#
# Static dielectric constant tensor:
#      x y z
#    x 1.865840 0.000000 0.000000 
#    y 0.000000 1.946440 0.000000 
#    z 0.000000 0.000000 1.864070 
# 
# From -- ./inp_files/25214.got.cif
#   From: 2010.05.17/outbox.cif.g08.bks.cpg/sg70_13_cif.got.tgz:25214.got - 2010.06.03 15:57:51.
