data_PCOD9517932
_publ_section_title
;
Structure prediction by ZEFSAII (Michael W. Deem and Ramdas Pophale) SiO2 
 PCOD9517932
Probable space group: I M M M
;
_chemical_formula_sum "Si O2"
_cell_formula_units_Z 96
_cell_length_a 15.025054
_cell_length_b 23.945915
_cell_length_c 14.444979
_cell_angle_alpha 90.000000
_cell_angle_beta 90.000000
_cell_angle_gamma 90.000000
_cell_volume 5197.139724
_symmetry_space_group_name_H-M "I M M M"
_symmetry_group_IT_number 71
_symmetry_cell_setting 'orthorhombic'
loop_
_space_group_symop_operation_xyz
x,y,z
-x,-y,z
x,-y,-z
-x,y,-z
-x,-y,-z
x,y,-z
-x,y,z
x,-y,z
1/2+x,1/2+y,1/2+z
1/2-x,1/2-y,1/2+z
1/2+x,1/2-y,1/2-z
1/2-x,1/2+y,1/2-z
1/2-x,1/2-y,1/2-z
1/2+x,1/2+y,1/2-z
1/2-x,1/2+y,1/2+z
1/2+x,1/2-y,1/2+z
loop_
_atom_site_type_symbol
_atom_site_label
_atom_site_fract_x
_atom_site_fract_y
_atom_site_fract_z
Si Si1 0.000000 0.379598 0.339390
Si Si2 0.312524 0.872656 0.604165
Si Si3 0.500000 0.241866 0.104181
Si Si4 0.694906 0.266116 0.887378
Si Si5 0.816893 0.434518 0.295016
Si Si6 0.305419 0.343802 0.612295
Si Si7 0.500000 0.820613 0.641417
Si Si8 0.500000 0.309868 0.612155
O O1 0.088963 0.416059 0.340565
O O2 0.000000 0.325447 0.403984
O O3 0.000000 0.347469 0.241961
O O4 0.290433 0.892994 0.500000
O O5 0.242828 0.824359 0.633427
O O6 0.318126 0.917700 0.686040
O O7 0.408568 0.842646 0.598352
O O8 0.406168 0.260103 0.147906
O O9 0.500000 0.265788 0.000000
O O10 0.753177 0.212680 0.857834
O O11 0.692147 0.262834 0.000000
O O12 0.802776 0.500000 0.305935
O O13 0.742878 0.396640 0.343873
O O14 0.300812 0.346569 0.500000
O O15 0.408231 0.338684 0.640603
O O16 0.500000 0.754320 0.642284
O O17 0.500000 0.308328 0.500000
#
# Coordination Sequence:
#
# PCOD9517932 Si02
#       8
#     8  16   8  16  16  16   8   8
#     4  10  21  34  51  77 107 143 186 223 264 316
#     4  10  20  35  56  82 110 141 178 223 276 327
#     4  10  18  31  51  79 116 146 169 208 267 332
#     4   9  17  30  53  82 111 139 169 213 271 330
#     4  11  24  39  54  75 107 148 193 231 261 307
#     4  10  20  35  57  84 112 142 177 220 270 325
#     4  10  18  29  53  85 114 138 166 215 278 339
#     4  10  18  32  56  86 116 139 165 210 275 338
#
# _framework density 18.471699999999998
#
# number of rings (size 3 to 8) (size 9 to 14) (size 15 to 20)
#    0.000    2.000    3.333    1.000    0.000    2.667 
#    0.000    0.417    0.000    6.000    0.000    0.000 
#    0.000    4.667    0.000    0.000    0.000    0.000 
#
# Total GULP energy -267933.345453 kJ/mol
# GULP energy per Si atom -5581.944697 kJ/mol
# Density = 1.842966 g / cm^3
# Si number density = 18.471700 Si / 1000 Ang^3
#
#
#
# Elastic Constant Matrix: (Units=GPa)
#
#
# Indices 1 2 3 4 5 6 
#
# 1 142.3016 35.8391 5.8605 0.0000 0.0000 0.0000
# 2 35.8391 63.3389 -12.6003 0.0000 0.0000 0.0000
# 3 5.8605 -12.6003 32.7945 -0.0001 0.0000 0.0000
# 4 0.0000 0.0000 -0.0001 11.6551 0.0000 0.0000
# 5 0.0000 0.0000 0.0000 0.0000 18.1369 0.0000
# 6 0.0000 0.0000 0.0000 0.0000 0.0000 11.6027
#
#
#
# Elastic Compliance Matrix: (Units=1/GPa)
#
#
# Indices 1 2 3 4 5 6 
#
# 1 0.008587 -0.005592 -0.003683 0.000000 0.000000 0.000000
# 2 -0.005592 0.020736 0.008966 0.000000 0.000000 0.000000
# 3 -0.003683 0.008966 0.034596 0.000000 0.000000 0.000000
# 4 0.000000 0.000000 0.000000 0.085800 0.000000 0.000000
# 5 0.000000 0.000000 0.000000 0.000000 0.055136 0.000000
# 6 0.000000 0.000000 0.000000 0.000000 0.000000 0.086187
#
#
# Mechanical properties :
#
#
# Convention : Reuss Voigt Hill
#
# Bulk Modulus (GPa) = 15.79716 32.95929 24.37823
# Shear Modulus (GPa) = 15.98675 22.23465 19.11070
#
# Velocity S-wave (km/s) = 2.94508 3.47322 3.22000
# Velocity P-wave (km/s) = 4.48724 5.82806 5.20104
#
# Compressibility (1/GPa) = 0.06330251
#
# Stress axis : x y z
#
# Youngs Moduli (GPa) = 116.45136 48.22599 28.90496
#
# Poissons Ratio (x) = 0.26966 0.10646
# Poissons Ratio (y) = 0.65115 -0.25917
# Poissons Ratio (z) = 0.42889 -0.43241
#
# Static dielectric constant tensor:
#      x y z
#    x 1.651490 0.000000 0.000000 
#    y 0.000000 1.575470 0.000000 
#    z 0.000000 0.000000 1.717630 
# 
# From -- ./inp_files/34837.got.cif
#   From: 2010.05.17/outbox.cif.g08.bks.cpg/sg71_18_cif.got.tgz:34837.got - 2010.06.03 16:22:01.
