data_PCOD9517526
_publ_section_title
;
Structure prediction by ZEFSAII (Michael W. Deem and Ramdas Pophale) SiO2 
 PCOD9517526
Probable space group: I M M M
;
_chemical_formula_sum "Si O2"
_cell_formula_units_Z 112
_cell_length_a 13.983364
_cell_length_b 37.910742
_cell_length_c 14.751902
_cell_angle_alpha 90.000000
_cell_angle_beta 90.000000
_cell_angle_gamma 90.000000
_cell_volume 7820.273935
_symmetry_space_group_name_H-M "I M M M"
_symmetry_group_IT_number 71
_symmetry_cell_setting 'orthorhombic'
loop_
_space_group_symop_operation_xyz
x,y,z
-x,-y,z
x,-y,-z
-x,y,-z
-x,-y,-z
x,y,-z
-x,y,z
x,-y,z
1/2+x,1/2+y,1/2+z
1/2-x,1/2-y,1/2+z
1/2+x,1/2-y,1/2-z
1/2-x,1/2+y,1/2-z
1/2-x,1/2-y,1/2-z
1/2+x,1/2+y,1/2-z
1/2-x,1/2+y,1/2+z
1/2+x,1/2-y,1/2+z
loop_
_atom_site_type_symbol
_atom_site_label
_atom_site_fract_x
_atom_site_fract_y
_atom_site_fract_z
Si Si1 0.885091 0.225976 0.894889
Si Si2 0.116141 0.096590 0.750000
Si Si3 0.297189 0.326182 0.250001
Si Si4 0.112643 0.713575 0.749999
Si Si5 0.884038 0.960899 0.604376
Si Si6 0.615962 0.539101 0.395624
Si Si7 0.385091 0.725975 0.105111
O O1 0.838998 0.194333 0.837714
O O2 0.865897 0.261581 0.837355
O O3 0.000000 0.221242 0.892533
O O4 0.855456 0.227720 0.000000
O O5 0.167620 0.133942 0.750002
O O6 0.143839 0.072124 0.664821
O O7 0.143839 0.072124 0.835179
O O8 0.000000 0.101655 0.750000
O O9 0.183866 0.319170 0.250002
O O10 0.338998 0.305668 0.162287
O O11 0.134102 0.738419 0.662643
O O12 0.000000 0.705244 0.749999
O O13 0.855340 0.956905 0.500000
O O14 0.000000 0.961523 0.607157
O O15 0.852943 0.000000 0.636229
O O16 0.644660 0.543095 0.500000
O O17 0.500000 0.538477 0.392843
O O18 0.647057 0.500000 0.363770
O O19 0.500000 0.721241 0.107467
O O20 0.355456 0.727719 0.000000
#
# Coordination Sequence:
#
# PCOD9517526 Si02
#       7
#    16  16  16  16  16  16  16
#     4   9  17  30  47  64  82 105 134 168 206 250
#     4  10  18  26  37  57  85 110 129 155 195 239
#     4  11  20  28  41  62  87 110 135 168 209 252
#     4   9  19  33  45  58  76 104 145 184 210 236
#     4   8  14  25  40  56  76 106 138 159 179 219
#     4   8  14  25  40  56  76 106 138 159 179 219
#     4   9  17  30  47  64  82 105 134 168 206 250
#
# _framework density 14.32175
#
# number of rings (size 3 to 8) (size 9 to 14) (size 15 to 20)
#    0.000    2.857    0.000    5.143    0.000    5.143 
#    0.000    2.857    0.000    0.000    0.000    0.000 
#    0.000    2.286    0.000    3.143    0.000    0.286 
#
# Total GULP energy -311893.928382 kJ/mol
# GULP energy per Si atom -5569.534435 kJ/mol
# Density = 1.428915 g / cm^3
# Si number density = 14.321750 Si / 1000 Ang^3
#
#
#
# Elastic Constant Matrix: (Units=GPa)
#
#
# Indices 1 2 3 4 5 6 
#
# 1 48.4466 52.5384 30.0209 0.0001 0.0000 0.0000
# 2 52.5384 132.4438 55.5733 0.0003 -0.0001 -0.0001
# 3 30.0209 55.5733 111.3769 0.0013 -0.0001 -0.0002
# 4 0.0001 0.0003 0.0013 10.0905 -0.0001 -0.0001
# 5 0.0000 -0.0001 -0.0001 -0.0001 5.0726 0.0001
# 6 0.0000 -0.0001 -0.0002 -0.0001 0.0001 18.1940
#
#
#
# Elastic Compliance Matrix: (Units=1/GPa)
#
#
# Indices 1 2 3 4 5 6 
#
# 1 0.037198 -0.013342 -0.003369 0.000000 0.000000 0.000000
# 2 -0.013342 0.014335 -0.003557 0.000000 0.000000 0.000000
# 3 -0.003369 -0.003557 0.011661 -0.000001 0.000000 0.000000
# 4 0.000000 0.000000 -0.000001 0.099103 0.000002 0.000001
# 5 0.000000 0.000000 0.000000 0.000002 0.197136 -0.000001
# 6 0.000000 0.000000 0.000000 0.000001 -0.000001 0.054963
#
#
# Mechanical properties :
#
#
# Convention : Reuss Voigt Hill
#
# Bulk Modulus (GPa) = 44.13290 63.17028 53.65159
# Shear Modulus (GPa) = 10.81115 16.94709 13.87912
#
# Velocity S-wave (km/s) = 2.75048 3.44366 3.11640
# Velocity P-wave (km/s) = 6.40071 7.74696 7.10579
#
# Compressibility (1/GPa) = 0.02265883
#
# Stress axis : x y z
#
# Youngs Moduli (GPa) = 26.88307 69.75769 85.75403
#
# Poissons Ratio (x) = 0.93072 0.28892
# Poissons Ratio (y) = 0.35868 0.30499
# Poissons Ratio (z) = 0.09057 0.24810
#
# Static dielectric constant tensor:
#      x y z
#    x 1.466310 0.000000 0.000000 
#    y 0.000000 1.454740 0.000000 
#    z 0.000000 0.000000 1.500070 
# 
# From -- ./inp_files/35359.got.cif
#   From: 2010.05.17/outbox.cif.g08.bks.cpg/sg71_18_cif.got.tgz:35359.got - 2010.06.03 16:22:01.
