data_PCOD9517129
_publ_section_title
;
Structure prediction by ZEFSAII (Michael W. Deem and Ramdas Pophale) SiO2 
 PCOD9517129
Probable space group: F D D D
;
_chemical_formula_sum "Si O2"
_cell_formula_units_Z 88
_cell_length_a 11.519407
_cell_length_b 11.859419
_cell_length_c 23.656128
_cell_angle_alpha 90.000000
_cell_angle_beta 90.000000
_cell_angle_gamma 90.000000
_cell_volume 3231.745833
_symmetry_space_group_name_H-M "F D D D"
_symmetry_group_IT_number 70
_space_group.IT_coordinate_system_code '2'
_symmetry_cell_setting 'orthorhombic'
loop_
_space_group_symop_operation_xyz
x,y,z
1/4-x,1/4-y,z
x,1/4-y,1/4-z
1/4-x,y,1/4-z
-x,-y,-z
3/4+x,3/4+y,-z
-x,3/4+y,3/4+z
3/4+x,-y,3/4+z
x,1/2+y,1/2+z
1/4-x,3/4-y,1/2+z
x,3/4-y,3/4-z
1/4-x,1/2+y,3/4-z
-x,1/2-y,1/2-z
3/4+x,1/4+y,1/2-z
-x,1/4+y,1/4+z
3/4+x,1/2-y,1/4+z
1/2+x,y,1/2+z
3/4-x,1/4-y,1/2+z
1/2+x,1/4-y,3/4-z
3/4-x,y,3/4-z
1/2-x,-y,1/2-z
1/4+x,3/4+y,1/2-z
1/2-x,3/4+y,1/4+z
1/4+x,-y,1/4+z
1/2+x,1/2+y,z
3/4-x,3/4-y,z
1/2+x,3/4-y,1/4-z
3/4-x,1/2+y,1/4-z
1/2-x,1/2-y,-z
1/4+x,1/4+y,-z
1/2-x,1/4+y,3/4+z
1/4+x,1/2-y,3/4+z
loop_
_atom_site_type_symbol
_atom_site_label
_atom_site_fract_x
_atom_site_fract_y
_atom_site_fract_z
Si Si1 0.535779 0.450560 0.668630
Si Si2 0.375000 0.875000 0.375000
Si Si3 0.846783 0.132666 0.710174
Si Si4 0.375000 0.875000 0.082642
O O1 0.625000 0.506269 0.625000
O O2 0.579317 0.382109 0.722596
O O3 0.441595 0.541463 0.690042
O O4 0.481018 0.360623 0.625438
O O5 0.271312 0.878313 0.325089
O O6 0.892043 0.260814 0.700691
#
# Coordination Sequence:
#
# PCOD9517129 Si02
#       4
#    32   8  32  16
#     4  12  29  53  83 123 168 217 283 336 418 490
#     4  12  26  56  78 124 166 202 292 328 424 492
#     4  12  29  51  85 122 164 221 272 350 405 500
#     4  12  27  48  79 121 156 225 256 348 408 482
#
# _framework density 27.229863999999999
#
# number of rings (size 3 to 8) (size 9 to 14) (size 15 to 20)
#    0.000    0.000    3.636    3.273    7.636   14.545 
#    0.000    0.000    0.000    0.000    0.000    0.000 
#    0.000    0.000    0.000    0.000    0.000    0.000 
#
# Total GULP energy -122900.874991 kJ/mol
# GULP energy per Si atom -5586.403409 kJ/mol
# Density = 2.716789 g / cm^3
# Si number density = 27.229864 Si / 1000 Ang^3
#
#
#
# Elastic Constant Matrix: (Units=GPa)
#
#
# Indices 1 2 3 4 5 6 
#
# 1 163.7912 30.2805 94.2028 0.0000 0.0000 0.0000
# 2 30.2805 133.9054 8.5815 0.0000 0.0000 0.0000
# 3 94.2028 8.5815 211.8762 0.0000 0.0000 0.0000
# 4 0.0000 0.0000 0.0000 18.7902 0.0000 0.0000
# 5 0.0000 0.0000 0.0000 0.0000 62.6731 0.0000
# 6 0.0000 0.0000 0.0000 0.0000 0.0000 1.4768
#
#
#
# Elastic Compliance Matrix: (Units=1/GPa)
#
#
# Indices 1 2 3 4 5 6 
#
# 1 0.008572 -0.001699 -0.003742 0.000000 0.000000 0.000000
# 2 -0.001699 0.007824 0.000438 0.000000 0.000000 0.000000
# 3 -0.003742 0.000438 0.006366 0.000000 0.000000 0.000000
# 4 0.000000 0.000000 0.000000 0.053219 0.000000 0.000000
# 5 0.000000 0.000000 0.000000 0.000000 0.015956 0.000000
# 6 0.000000 0.000000 0.000000 0.000000 0.000000 0.677137
#
#
# Mechanical properties :
#
#
# Convention : Reuss Voigt Hill
#
# Bulk Modulus (GPa) = 78.39152 86.18914 82.29033
# Shear Modulus (GPa) = 6.38300 41.68856 24.03578
#
# Velocity S-wave (km/s) = 1.53271 3.91703 2.97425
# Velocity P-wave (km/s) = 5.65540 7.22348 6.48699
#
# Compressibility (1/GPa) = 0.01275648
#
# Stress axis : x y z
#
# Youngs Moduli (GPa) = 116.66332 127.81252 157.08825
#
# Poissons Ratio (x) = 0.21709 0.58787
# Poissons Ratio (y) = 0.19815 -0.06885
# Poissons Ratio (z) = 0.43659 -0.05602
#
# Static dielectric constant tensor:
#      x y z
#    x 2.412150 0.000000 0.000000 
#    y 0.000000 2.176600 0.000000 
#    z 0.000000 0.000000 2.084290 
# 
# From -- ./inp_files/20022.got.cif
#   From: 2010.05.17/outbox.cif.g08.bks.cpg/sg70_11_cif.got.tgz:20022.got - 2010.06.03 15:57:51.
