data_PCOD9517333
_publ_section_title
;
Structure prediction by ZEFSAII (Michael W. Deem and Ramdas Pophale) SiO2 
 PCOD9517333
Probable space group: I M M M
;
_chemical_formula_sum "Si O2"
_cell_formula_units_Z 96
_cell_length_a 13.568818
_cell_length_b 19.655666
_cell_length_c 24.028439
_cell_angle_alpha 90.000000
_cell_angle_beta 90.000000
_cell_angle_gamma 90.000000
_cell_volume 6408.484510
_symmetry_space_group_name_H-M "I M M M"
_symmetry_group_IT_number 71
_symmetry_cell_setting 'orthorhombic'
loop_
_space_group_symop_operation_xyz
x,y,z
-x,-y,z
x,-y,-z
-x,y,-z
-x,-y,-z
x,y,-z
-x,y,z
x,-y,z
1/2+x,1/2+y,1/2+z
1/2-x,1/2-y,1/2+z
1/2+x,1/2-y,1/2-z
1/2-x,1/2+y,1/2-z
1/2-x,1/2-y,1/2-z
1/2+x,1/2+y,1/2-z
1/2-x,1/2+y,1/2+z
1/2+x,1/2-y,1/2+z
loop_
_atom_site_type_symbol
_atom_site_label
_atom_site_fract_x
_atom_site_fract_y
_atom_site_fract_z
Si Si1 0.311297 0.854536 0.774013
Si Si2 0.617221 0.212109 0.392363
Si Si3 0.114956 0.581368 0.387622
Si Si4 0.880769 0.576233 0.837348
Si Si5 0.613501 0.284471 0.726236
Si Si6 0.262640 0.080712 0.000000
Si Si7 0.119844 0.795465 0.000000
O O1 0.336653 0.882690 0.834496
O O2 0.351334 0.903043 0.725281
O O3 0.362046 0.780728 0.764697
O O4 0.195190 0.841709 0.764970
O O5 0.500000 0.204106 0.401274
O O6 0.656118 0.136738 0.377761
O O7 0.628923 0.256347 0.336515
O O8 0.653358 0.252789 0.445826
O O9 0.118453 0.500000 0.378496
O O10 0.172836 0.594805 0.444818
O O11 0.000000 0.600925 0.392277
O O12 0.847528 0.500000 0.851063
O O13 0.000000 0.577134 0.839334
O O14 0.500000 0.304845 0.732820
O O15 0.169461 0.130680 0.000000
O O16 0.237552 0.000000 0.000000
O O17 0.000000 0.801228 0.000000
#
# Coordination Sequence:
#
# PCOD9517333 Si02
#       7
#    16  16  16  16  16   8   8
#     4  10  17  26  45  66  84 114 150 177 211 262
#     4   8  15  27  42  61  84 112 143 174 215 257
#     4  10  19  31  46  63  84 109 140 179 219 260
#     4   9  16  27  43  64  89 111 138 184 231 267
#     4   9  17  28  41  62  92 117 141 180 219 251
#     4  10  21  33  44  62  88 116 144 177 222 260
#     4  10  18  30  48  64  84 116 151 180 204 256
#
# _framework density 14.98014
#
# number of rings (size 3 to 8) (size 9 to 14) (size 15 to 20)
#    0.000    2.667    0.000    4.250    0.000    2.500 
#    0.000    0.417    0.000    5.500    0.000    0.000 
#    0.000    0.000    0.000    0.000    0.000   32.167 
#
# Total GULP energy -267309.194390 kJ/mol
# GULP energy per Si atom -5568.941550 kJ/mol
# Density = 1.494605 g / cm^3
# Si number density = 14.980140 Si / 1000 Ang^3
#
#
#
# Elastic Constant Matrix: (Units=GPa)
#
#
# Indices 1 2 3 4 5 6 
#
# 1 49.0126 21.2076 19.2230 0.0000 0.0000 0.0000
# 2 21.2076 61.6380 36.1523 0.0000 0.0000 0.0000
# 3 19.2230 36.1523 90.9934 0.0000 0.0000 0.0000
# 4 0.0000 0.0000 0.0000 13.0444 0.0000 0.0000
# 5 0.0000 0.0000 0.0000 0.0000 10.4855 0.0000
# 6 0.0000 0.0000 0.0000 0.0000 0.0000 19.3010
#
#
#
# Elastic Compliance Matrix: (Units=1/GPa)
#
#
# Indices 1 2 3 4 5 6 
#
# 1 0.024357 -0.006992 -0.002368 0.000000 0.000000 0.000000
# 2 -0.006992 0.023160 -0.007725 0.000000 0.000000 0.000000
# 3 -0.002368 -0.007725 0.014559 0.000000 0.000000 0.000000
# 4 0.000000 0.000000 0.000000 0.076661 0.000000 0.000000
# 5 0.000000 0.000000 0.000000 0.000000 0.095369 0.000000
# 6 0.000000 0.000000 0.000000 0.000000 0.000000 0.051811
#
#
# Mechanical properties :
#
#
# Convention : Reuss Voigt Hill
#
# Bulk Modulus (GPa) = 35.83210 39.42332 37.62771
# Shear Modulus (GPa) = 15.17966 16.90358 16.04162
#
# Velocity S-wave (km/s) = 3.18672 3.36281 3.27595
# Velocity P-wave (km/s) = 6.12470 6.43834 6.28347
#
# Compressibility (1/GPa) = 0.02790794
#
# Stress axis : x y z
#
# Youngs Moduli (GPa) = 41.05625 43.17778 68.68581
#
# Poissons Ratio (x) = 0.30188 0.16263
# Poissons Ratio (y) = 0.28705 0.53057
# Poissons Ratio (z) = 0.09721 0.33353
#
# Static dielectric constant tensor:
#      x y z
#    x 1.495830 0.000000 0.000000 
#    y 0.000000 1.505330 0.000000 
#    z 0.000000 0.000000 1.498120 
# 
# From -- ./inp_files/64618.got.cif
#   From: 2010.05.17/outbox.cif.g08.bks.cpg/sg71_33_cif.got.tgz:64618.got - 2010.06.03 16:22:01.
