data_PCOD9517120
_publ_section_title
;
Structure prediction by ZEFSAII (Michael W. Deem and Ramdas Pophale) SiO2 
 PCOD9517120
Probable space group: F D D D
;
_chemical_formula_sum "Si O2"
_cell_formula_units_Z 64
_cell_length_a 23.432865
_cell_length_b 18.075204
_cell_length_c 5.885602
_cell_angle_alpha 90.000000
_cell_angle_beta 90.000000
_cell_angle_gamma 90.000000
_cell_volume 2492.869182
_symmetry_space_group_name_H-M "F D D D"
_symmetry_group_IT_number 70
_space_group.IT_coordinate_system_code '2'
_symmetry_cell_setting 'orthorhombic'
loop_
_space_group_symop_operation_xyz
x,y,z
1/4-x,1/4-y,z
x,1/4-y,1/4-z
1/4-x,y,1/4-z
-x,-y,-z
3/4+x,3/4+y,-z
-x,3/4+y,3/4+z
3/4+x,-y,3/4+z
x,1/2+y,1/2+z
1/4-x,3/4-y,1/2+z
x,3/4-y,3/4-z
1/4-x,1/2+y,3/4-z
-x,1/2-y,1/2-z
3/4+x,1/4+y,1/2-z
-x,1/4+y,1/4+z
3/4+x,1/2-y,1/4+z
1/2+x,y,1/2+z
3/4-x,1/4-y,1/2+z
1/2+x,1/4-y,3/4-z
3/4-x,y,3/4-z
1/2-x,-y,1/2-z
1/4+x,3/4+y,1/2-z
1/2-x,3/4+y,1/4+z
1/4+x,-y,1/4+z
1/2+x,1/2+y,z
3/4-x,3/4-y,z
1/2+x,3/4-y,1/4-z
3/4-x,1/2+y,1/4-z
1/2-x,1/2-y,-z
1/4+x,1/4+y,-z
1/2-x,1/4+y,3/4+z
1/4+x,1/2-y,3/4+z
loop_
_atom_site_type_symbol
_atom_site_label
_atom_site_fract_x
_atom_site_fract_y
_atom_site_fract_z
Si Si1 0.875000 0.996839 0.375000
Si Si2 0.432539 0.625000 0.625000
Si Si3 0.970025 0.424531 0.575629
O O1 0.853988 0.051960 0.173531
O O2 0.925212 0.948105 0.268351
O O3 0.476038 0.621563 0.833581
O O4 0.943838 0.375000 0.375000
O O5 0.000000 0.500000 0.500000
#
# Coordination Sequence:
#
# PCOD9517120 Si02
#       3
#    16  16  32
#     4  12  26  49  88 120 157 228 274 338 442 481
#     4  12  26  55  74 118 166 203 280 348 404 510
#     4  12  27  54  79 116 168 212 277 347 410 506
#
# _framework density 25.673228999999999
#
# number of rings (size 3 to 8) (size 9 to 14) (size 15 to 20)
#    0.000    0.000    5.000    4.500    0.000    1.000 
#    9.000    0.000    0.000    0.000    0.000    0.000 
#    0.000    0.000    0.000    0.000    0.000    0.000 
#
# Total GULP energy -89718.735052 kJ/mol
# GULP energy per Si atom -5607.420941 kJ/mol
# Density = 2.561480 g / cm^3
# Si number density = 25.673229 Si / 1000 Ang^3
#
#
#
# Elastic Constant Matrix: (Units=GPa)
#
#
# Indices 1 2 3 4 5 6 
#
# 1 127.0670 58.3727 32.3418 0.0002 -0.0002 -0.0001
# 2 58.3727 147.3576 43.8040 0.0005 -0.0002 -0.0001
# 3 32.3418 43.8040 79.3354 0.0019 -0.0008 -0.0003
# 4 0.0002 0.0005 0.0019 74.8206 -0.0004 -0.0002
# 5 -0.0002 -0.0002 -0.0008 -0.0004 42.4672 0.0002
# 6 -0.0001 -0.0001 -0.0003 -0.0002 0.0002 32.8891
#
#
#
# Elastic Compliance Matrix: (Units=1/GPa)
#
#
# Indices 1 2 3 4 5 6 
#
# 1 0.009945 -0.003271 -0.002248 0.000000 0.000000 0.000000
# 2 -0.003271 0.009195 -0.003743 0.000000 0.000000 0.000000
# 3 -0.002248 -0.003743 0.015588 0.000000 0.000000 0.000000
# 4 0.000000 0.000000 0.000000 0.013365 0.000000 0.000000
# 5 0.000000 0.000000 0.000000 0.000000 0.023548 0.000000
# 6 0.000000 0.000000 0.000000 0.000000 0.000000 0.030405
#
#
# Mechanical properties :
#
#
# Convention : Reuss Voigt Hill
#
# Bulk Modulus (GPa) = 61.71814 69.19967 65.45890
# Shear Modulus (GPa) = 39.69164 44.65147 42.17155
#
# Velocity S-wave (km/s) = 3.93623 4.17492 4.05733
# Velocity P-wave (km/s) = 6.68959 7.08890 6.89214
#
# Compressibility (1/GPa) = 0.01620269
#
# Stress axis : x y z
#
# Youngs Moduli (GPa) = 100.55554 108.75763 64.15240
#
# Poissons Ratio (x) = 0.35577 0.14421
# Poissons Ratio (y) = 0.32894 0.24014
# Poissons Ratio (z) = 0.22604 0.40711
#
# Static dielectric constant tensor:
#      x y z
#    x 1.921110 0.000000 0.000000 
#    y 0.000000 2.063720 0.000000 
#    z 0.000000 0.000000 2.104630 
# 
# From -- ./inp_files/1181.got.cif
#   From: 2010.05.17/outbox.cif.g08.bks.cpg/sg70_1_cif.got.tgz:1181.got - 2010.06.03 15:57:51.
