data_PCOD9517848
_publ_section_title
;
Structure prediction by ZEFSAII (Michael W. Deem and Ramdas Pophale) SiO2 
 PCOD9517848
Probable space group: I M M M
;
_chemical_formula_sum "Si O2"
_cell_formula_units_Z 96
_cell_length_a 17.391448
_cell_length_b 11.811776
_cell_length_c 28.318174
_cell_angle_alpha 90.000000
_cell_angle_beta 90.000000
_cell_angle_gamma 90.000000
_cell_volume 5817.229407
_symmetry_space_group_name_H-M "I M M M"
_symmetry_group_IT_number 71
_symmetry_cell_setting 'orthorhombic'
loop_
_space_group_symop_operation_xyz
x,y,z
-x,-y,z
x,-y,-z
-x,y,-z
-x,-y,-z
x,y,-z
-x,y,z
x,-y,z
1/2+x,1/2+y,1/2+z
1/2-x,1/2-y,1/2+z
1/2+x,1/2-y,1/2-z
1/2-x,1/2+y,1/2-z
1/2-x,1/2-y,1/2-z
1/2+x,1/2+y,1/2-z
1/2-x,1/2+y,1/2+z
1/2+x,1/2-y,1/2+z
loop_
_atom_site_type_symbol
_atom_site_label
_atom_site_fract_x
_atom_site_fract_y
_atom_site_fract_z
Si Si1 0.761612 0.636060 0.947959
Si Si2 0.592979 0.500000 0.608770
Si Si3 0.093192 0.000000 0.784312
Si Si4 0.908483 0.225469 0.727941
Si Si5 0.806975 0.867012 0.650104
Si Si6 0.588388 0.751246 0.410434
Si Si7 0.867939 0.630394 0.184599
O O1 0.761955 0.500000 0.946941
O O2 0.708849 0.670472 0.903737
O O3 0.848364 0.676207 0.937534
O O4 0.737154 0.674194 0.000000
O O5 0.500000 0.500000 0.611415
O O6 0.622887 0.500000 0.662419
O O7 0.612419 0.380401 0.585587
O O8 0.115891 0.887724 0.756617
O O9 0.000000 0.000000 0.786282
O O10 0.864196 0.212860 0.678824
O O11 0.887369 0.327135 0.763124
O O12 0.000000 0.223628 0.721075
O O13 0.723293 0.863276 0.674953
O O14 0.832270 0.000000 0.650626
O O15 0.500000 0.764979 0.425947
O O16 0.593397 0.790224 0.355358
O O17 0.891845 0.500000 0.177227
#
# Coordination Sequence:
#
# PCOD9517848 Si02
#       7
#    16   8   8  16  16  16  16
#     4   9  19  35  52  68  88 119 155 194 245 291
#     4   9  16  28  43  66  97 127 156 185 225 268
#     4   9  16  26  42  67  93 125 157 182 218 263
#     4  11  19  29  48  71  97 126 160 196 229 272
#     4   9  18  32  49  68  93 123 158 196 232 279
#     4  10  18  29  47  70  96 126 160 195 228 270
#     4  10  20  31  44  68 102 137 162 184 224 276
#
# _framework density 16.502700999999998
#
# number of rings (size 3 to 8) (size 9 to 14) (size 15 to 20)
#    0.000    2.333    2.500    2.500    0.000    2.667 
#    0.000    1.250    0.000    2.000    0.000    2.333 
#    0.000    0.000    0.000    1.500    0.000    0.000 
#
# Total GULP energy -267515.851554 kJ/mol
# GULP energy per Si atom -5573.246907 kJ/mol
# Density = 1.646514 g / cm^3
# Si number density = 16.502701 Si / 1000 Ang^3
#
#
#
# Elastic Constant Matrix: (Units=GPa)
#
#
# Indices 1 2 3 4 5 6 
#
# 1 29.5408 4.6424 21.1890 0.0000 0.0000 0.0000
# 2 4.6424 34.9461 -8.8029 0.0000 0.0000 0.0000
# 3 21.1890 -8.8029 60.2939 0.0000 0.0000 0.0000
# 4 0.0000 0.0000 0.0000 17.5650 0.0000 0.0000
# 5 0.0000 0.0000 0.0000 0.0000 7.8027 0.0000
# 6 0.0000 0.0000 0.0000 0.0000 0.0000 11.4981
#
#
#
# Elastic Compliance Matrix: (Units=1/GPa)
#
#
# Indices 1 2 3 4 5 6 
#
# 1 0.049221 -0.011312 -0.018949 0.000000 0.000000 0.000000
# 2 -0.011312 0.032308 0.008692 0.000000 0.000000 0.000000
# 3 -0.018949 0.008692 0.024514 0.000000 0.000000 0.000000
# 4 0.000000 0.000000 0.000000 0.056932 0.000000 0.000000
# 5 0.000000 0.000000 0.000000 0.000000 0.128160 0.000000
# 6 0.000000 0.000000 0.000000 0.000000 0.000000 0.086971
#
#
# Mechanical properties :
#
#
# Convention : Reuss Voigt Hill
#
# Bulk Modulus (GPa) = 15.89705 17.64865 16.77285
# Shear Modulus (GPa) = 11.30682 14.55665 12.93173
#
# Velocity S-wave (km/s) = 2.62038 2.97320 2.80235
# Velocity P-wave (km/s) = 4.33694 4.74386 4.54496
#
# Compressibility (1/GPa) = 0.06290473
#
# Stress axis : x y z
#
# Youngs Moduli (GPa) = 20.31648 30.95225 40.79336
#
# Poissons Ratio (x) = 0.35013 0.77300
# Poissons Ratio (y) = 0.22982 -0.35459
# Poissons Ratio (z) = 0.38498 -0.26905
#
# Static dielectric constant tensor:
#      x y z
#    x 1.537270 0.000000 0.000000 
#    y 0.000000 1.573110 0.000000 
#    z 0.000000 0.000000 1.585260 
# 
# From -- ./inp_files/65961.got.cif
#   From: 2010.05.17/outbox.cif.g08.bks.cpg/sg71_33_cif.got.tgz:65961.got - 2010.06.03 16:22:01.
