data_PCOD9517103
_publ_section_title
;
Structure prediction by ZEFSAII (Michael W. Deem and Ramdas Pophale) SiO2 
 PCOD9517103
Probable space group: F D D D
;
_chemical_formula_sum "Si O2"
_cell_formula_units_Z 96
_cell_length_a 11.759839
_cell_length_b 30.555045
_cell_length_c 9.808681
_cell_angle_alpha 90.000000
_cell_angle_beta 90.000000
_cell_angle_gamma 90.000000
_cell_volume 3524.478894
_symmetry_space_group_name_H-M "F D D D"
_symmetry_group_IT_number 70
_space_group.IT_coordinate_system_code '2'
_symmetry_cell_setting 'orthorhombic'
loop_
_space_group_symop_operation_xyz
x,y,z
1/4-x,1/4-y,z
x,1/4-y,1/4-z
1/4-x,y,1/4-z
-x,-y,-z
3/4+x,3/4+y,-z
-x,3/4+y,3/4+z
3/4+x,-y,3/4+z
x,1/2+y,1/2+z
1/4-x,3/4-y,1/2+z
x,3/4-y,3/4-z
1/4-x,1/2+y,3/4-z
-x,1/2-y,1/2-z
3/4+x,1/4+y,1/2-z
-x,1/4+y,1/4+z
3/4+x,1/2-y,1/4+z
1/2+x,y,1/2+z
3/4-x,1/4-y,1/2+z
1/2+x,1/4-y,3/4-z
3/4-x,y,3/4-z
1/2-x,-y,1/2-z
1/4+x,3/4+y,1/2-z
1/2-x,3/4+y,1/4+z
1/4+x,-y,1/4+z
1/2+x,1/2+y,z
3/4-x,3/4-y,z
1/2+x,3/4-y,1/4-z
3/4-x,1/2+y,1/4-z
1/2-x,1/2-y,-z
1/4+x,1/4+y,-z
1/2-x,1/4+y,3/4+z
1/4+x,1/2-y,3/4+z
loop_
_atom_site_type_symbol
_atom_site_label
_atom_site_fract_x
_atom_site_fract_y
_atom_site_fract_z
Si Si1 0.706332 0.420546 0.446217
Si Si2 0.625000 0.236287 0.625000
Si Si3 0.625000 0.125000 0.907419
Si Si4 0.744460 0.201147 0.169406
O O1 0.683827 0.375000 0.375000
O O2 0.774452 0.452121 0.341859
O O3 0.457358 0.405903 0.684477
O O4 0.580432 0.440739 0.454691
O O5 0.563227 0.266029 0.514803
O O6 0.703302 0.092266 0.997602
O O7 0.625000 0.221344 0.125000
#
# Coordination Sequence:
#
# PCOD9517103 Si02
#       4
#    32  16  16  32
#     4  12  25  51  80 111 153 209 258 309 392 455
#     4  12  27  52  80 112 162 202 254 326 383 458
#     4  12  26  52  82 110 154 210 252 324 380 456
#     4  12  30  50  77 119 155 200 262 321 382 461
#
# _framework density 27.238068999999999
#
# number of rings (size 3 to 8) (size 9 to 14) (size 15 to 20)
#    0.000    0.000    3.333    5.500    4.667    5.333 
#    6.000    0.000    0.000    0.000    0.000    0.000 
#    0.000    0.000    0.000    0.000    0.000    0.000 
#
# Total GULP energy -134267.668961 kJ/mol
# GULP energy per Si atom -5594.486207 kJ/mol
# Density = 2.717607 g / cm^3
# Si number density = 27.238069 Si / 1000 Ang^3
#
#
#
# Elastic Constant Matrix: (Units=GPa)
#
#
# Indices 1 2 3 4 5 6 
#
# 1 280.0263 82.7925 94.8639 0.0000 0.0000 0.0000
# 2 82.7925 158.7741 54.1087 0.0000 0.0000 0.0000
# 3 94.8639 54.1087 97.7953 0.0000 0.0000 0.0000
# 4 0.0000 0.0000 0.0000 -59.8569 0.0000 0.0000
# 5 0.0000 0.0000 0.0000 0.0000 69.8542 0.0000
# 6 0.0000 0.0000 0.0000 0.0000 0.0000 227.9093
#
#
#
# Elastic Compliance Matrix: (Units=1/GPa)
#
#
# Indices 1 2 3 4 5 6 
#
# 1 0.005529 -0.001300 -0.004643 0.000000 0.000000 0.000000
# 2 -0.001300 0.008068 -0.003202 0.000000 0.000000 0.000000
# 3 -0.004643 -0.003202 0.016501 0.000000 0.000000 0.000000
# 4 0.000000 0.000000 0.000000 -0.016707 0.000000 0.000000
# 5 0.000000 0.000000 0.000000 0.000000 0.014316 0.000000
# 6 0.000000 0.000000 0.000000 0.000000 0.000000 0.004388
#
#
# Mechanical properties :
#
#
# Convention : Reuss Voigt Hill
#
# Bulk Modulus (GPa) = 84.70616 111.12511 97.91563
# Shear Modulus (GPa) = 92.04427 67.90336 79.97381
#
# Velocity S-wave (km/s) = 5.81944 4.99837 5.42446
# Velocity P-wave (km/s) = 8.73616 8.61382 8.67520
#
# Compressibility (1/GPa) = 0.01180552
#
# Stress axis : x y z
#
# Youngs Moduli (GPa) = 180.87725 123.95141 60.60104
#
# Poissons Ratio (x) = 0.16120 0.28139
# Poissons Ratio (y) = 0.23523 0.19406
# Poissons Ratio (z) = 0.83988 0.39692
#
# Static dielectric constant tensor:
#      x y z
#    x 2.054600 0.000000 0.000000 
#    y 0.000000 1.485210 0.000000 
#    z 0.000000 0.000000 2.150230 
# 
# From -- ./inp_files/24405.got.cif
#   From: 2010.05.17/outbox.cif.g08.bks.cpg/sg70_13_cif.got.tgz:24405.got - 2010.06.03 15:57:51.
