data_PCOD9517131
_publ_section_title
;
Structure prediction by ZEFSAII (Michael W. Deem and Ramdas Pophale) SiO2 
 PCOD9517131
Probable space group: F D D D
;
_chemical_formula_sum "Si O2"
_cell_formula_units_Z 104
_cell_length_a 24.549315
_cell_length_b 16.131805
_cell_length_c 10.894285
_cell_angle_alpha 90.000000
_cell_angle_beta 90.000000
_cell_angle_gamma 90.000000
_cell_volume 4314.406629
_symmetry_space_group_name_H-M "F D D D"
_symmetry_group_IT_number 70
_space_group.IT_coordinate_system_code '2'
_symmetry_cell_setting 'orthorhombic'
loop_
_space_group_symop_operation_xyz
x,y,z
1/4-x,1/4-y,z
x,1/4-y,1/4-z
1/4-x,y,1/4-z
-x,-y,-z
3/4+x,3/4+y,-z
-x,3/4+y,3/4+z
3/4+x,-y,3/4+z
x,1/2+y,1/2+z
1/4-x,3/4-y,1/2+z
x,3/4-y,3/4-z
1/4-x,1/2+y,3/4-z
-x,1/2-y,1/2-z
3/4+x,1/4+y,1/2-z
-x,1/4+y,1/4+z
3/4+x,1/2-y,1/4+z
1/2+x,y,1/2+z
3/4-x,1/4-y,1/2+z
1/2+x,1/4-y,3/4-z
3/4-x,y,3/4-z
1/2-x,-y,1/2-z
1/4+x,3/4+y,1/2-z
1/2-x,3/4+y,1/4+z
1/4+x,-y,1/4+z
1/2+x,1/2+y,z
3/4-x,3/4-y,z
1/2+x,3/4-y,1/4-z
3/4-x,1/2+y,1/4-z
1/2-x,1/2-y,-z
1/4+x,1/4+y,-z
1/2-x,1/4+y,3/4+z
1/4+x,1/2-y,3/4+z
loop_
_atom_site_type_symbol
_atom_site_label
_atom_site_fract_x
_atom_site_fract_y
_atom_site_fract_z
Si Si1 0.918540 0.125000 0.125000
Si Si2 0.375000 0.375000 0.375000
Si Si3 0.735478 0.009865 0.545599
Si Si4 0.718075 0.169674 0.960266
Si Si5 0.875000 0.060097 0.875000
O O1 0.882759 0.138083 0.248202
O O2 0.960989 0.200856 0.106902
O O3 0.338285 0.323711 0.468229
O O4 0.754620 0.917735 0.505572
O O5 0.680044 0.993506 0.618596
O O6 0.718169 0.071389 0.436052
O O7 0.750000 0.250000 0.000000
#
# Coordination Sequence:
#
# PCOD9517131 Si02
#       5
#    16   8  32  32  16
#     4  12  30  54  78 126 160 220 280 338 410 506
#     4  12  28  44  84 120 164 224 272 344 416 486
#     4  12  28  51  79 113 166 213 273 341 405 506
#     4  12  27  48  76 116 161 210 279 337 405 490
#     4  12  30  50  88 114 170 220 268 343 429 475
#
# _framework density 24.105286
#
# number of rings (size 3 to 8) (size 9 to 14) (size 15 to 20)
#    0.000    0.000    6.154    0.923    8.615    3.077 
#    0.000    0.000    0.000    0.000    0.000    0.000 
#    0.000    0.000    0.000    0.000    0.000    0.000 
#
# Total GULP energy -145467.991321 kJ/mol
# GULP energy per Si atom -5594.922743 kJ/mol
# Density = 2.405042 g / cm^3
# Si number density = 24.105286 Si / 1000 Ang^3
#
#
#
# Elastic Constant Matrix: (Units=GPa)
#
#
# Indices 1 2 3 4 5 6 
#
# 1 120.5627 45.3794 61.0728 0.0000 0.0000 0.0000
# 2 45.3794 128.0836 28.2426 0.0000 0.0000 0.0000
# 3 61.0728 28.2426 173.5645 0.0000 0.0000 0.0000
# 4 0.0000 0.0000 0.0000 37.0109 0.0000 0.0000
# 5 0.0000 0.0000 0.0000 0.0000 66.0126 0.0000
# 6 0.0000 0.0000 0.0000 0.0000 0.0000 47.6008
#
#
#
# Elastic Compliance Matrix: (Units=1/GPa)
#
#
# Indices 1 2 3 4 5 6 
#
# 1 0.011248 -0.003228 -0.003433 0.000000 0.000000 0.000000
# 2 -0.003228 0.009025 -0.000333 0.000000 0.000000 0.000000
# 3 -0.003433 -0.000333 0.007024 0.000000 0.000000 0.000000
# 4 0.000000 0.000000 0.000000 0.027019 0.000000 0.000000
# 5 0.000000 0.000000 0.000000 0.000000 0.015149 0.000000
# 6 0.000000 0.000000 0.000000 0.000000 0.000000 0.021008
#
#
# Mechanical properties :
#
#
# Convention : Reuss Voigt Hill
#
# Bulk Modulus (GPa) = 75.13513 76.84450 75.98982
# Shear Modulus (GPa) = 45.91540 49.29258 47.60399
#
# Velocity S-wave (km/s) = 4.36912 4.52695 4.44873
# Velocity P-wave (km/s) = 7.52924 7.69885 7.61452
#
# Compressibility (1/GPa) = 0.01330935
#
# Stress axis : x y z
#
# Youngs Moduli (GPa) = 88.90094 110.80939 142.37832
#
# Poissons Ratio (x) = 0.35773 0.48875
# Poissons Ratio (y) = 0.28700 0.04734
# Poissons Ratio (z) = 0.30517 0.03684
#
# Static dielectric constant tensor:
#      x y z
#    x 1.884800 0.000000 0.000000 
#    y 0.000000 1.887350 0.000000 
#    z 0.000000 0.000000 2.096270 
# 
# From -- ./inp_files/16225.got.cif
#   From: 2010.05.17/outbox.cif.g08.bks.cpg/sg70_9_cif.got.tgz:16225.got - 2010.06.03 15:57:51.
