data_PCOD9517109
_publ_section_title
;
Structure prediction by ZEFSAII (Michael W. Deem and Ramdas Pophale) SiO2 
 PCOD9517109
Probable space group: F D D D
;
_chemical_formula_sum "Si O2"
_cell_formula_units_Z 72
_cell_length_a 18.503025
_cell_length_b 22.832670
_cell_length_c 7.365030
_cell_angle_alpha 90.000000
_cell_angle_beta 90.000000
_cell_angle_gamma 90.000000
_cell_volume 3111.529735
_symmetry_space_group_name_H-M "F D D D"
_symmetry_group_IT_number 70
_space_group.IT_coordinate_system_code '2'
_symmetry_cell_setting 'orthorhombic'
loop_
_space_group_symop_operation_xyz
x,y,z
1/4-x,1/4-y,z
x,1/4-y,1/4-z
1/4-x,y,1/4-z
-x,-y,-z
3/4+x,3/4+y,-z
-x,3/4+y,3/4+z
3/4+x,-y,3/4+z
x,1/2+y,1/2+z
1/4-x,3/4-y,1/2+z
x,3/4-y,3/4-z
1/4-x,1/2+y,3/4-z
-x,1/2-y,1/2-z
3/4+x,1/4+y,1/2-z
-x,1/4+y,1/4+z
3/4+x,1/2-y,1/4+z
1/2+x,y,1/2+z
3/4-x,1/4-y,1/2+z
1/2+x,1/4-y,3/4-z
3/4-x,y,3/4-z
1/2-x,-y,1/2-z
1/4+x,3/4+y,1/2-z
1/2-x,3/4+y,1/4+z
1/4+x,-y,1/4+z
1/2+x,1/2+y,z
3/4-x,3/4-y,z
1/2+x,3/4-y,1/4-z
3/4-x,1/2+y,1/4-z
1/2-x,1/2-y,-z
1/4+x,1/4+y,-z
1/2-x,1/4+y,3/4+z
1/4+x,1/2-y,3/4+z
loop_
_atom_site_type_symbol
_atom_site_label
_atom_site_fract_x
_atom_site_fract_y
_atom_site_fract_z
Si Si1 0.083298 0.209906 0.448567
Si Si2 0.625000 0.625000 0.125000
Si Si3 0.824197 0.062733 0.043461
O O1 0.125000 0.185370 0.625000
O O2 0.085768 0.168514 0.269008
O O3 0.126774 0.269391 0.410138
O O4 0.999688 0.219998 0.493306
O O5 0.802413 0.125000 0.125000
O O6 0.875000 0.076883 0.875000
#
# Coordination Sequence:
#
# PCOD9517109 Si02
#       3
#    32   8  32
#     4  12  27  50  76 115 155 206 258 320 384 460
#     4  12  26  44  80 110 164 196 268 306 396 454
#     4  12  27  49  78 114 157 204 262 319 387 460
#
# _framework density 23.139745999999999
#
# number of rings (size 3 to 8) (size 9 to 14) (size 15 to 20)
#    0.000    0.000    2.222    7.333    3.111    0.000 
#    0.000    0.000    0.000    0.000    0.000    0.000 
#    0.000    0.000    0.000    0.000    0.000    0.000 
#
# Total GULP energy -100673.305061 kJ/mol
# GULP energy per Si atom -5592.961392 kJ/mol
# Density = 2.308708 g / cm^3
# Si number density = 23.139746 Si / 1000 Ang^3
#
#
#
# Elastic Constant Matrix: (Units=GPa)
#
#
# Indices 1 2 3 4 5 6 
#
# 1 189.0132 32.9352 32.2797 -0.0006 0.0003 0.0000
# 2 32.9352 127.4350 21.8179 -0.0002 -0.0002 -0.0001
# 3 32.2797 21.8179 122.3301 -0.0016 0.0001 0.0001
# 4 -0.0006 -0.0002 -0.0016 -127.3795 0.0052 -0.0006
# 5 0.0003 -0.0002 0.0001 0.0052 320.6671 0.0002
# 6 0.0000 -0.0001 0.0001 -0.0006 0.0002 81.4978
#
#
#
# Elastic Compliance Matrix: (Units=1/GPa)
#
#
# Indices 1 2 3 4 5 6 
#
# 1 0.005730 -0.001261 -0.001287 0.000000 0.000000 0.000000
# 2 -0.001261 0.008372 -0.001160 0.000000 0.000000 0.000000
# 3 -0.001287 -0.001160 0.008721 0.000000 0.000000 0.000000
# 4 0.000000 0.000000 0.000000 -0.007851 0.000000 0.000000
# 5 0.000000 0.000000 0.000000 0.000000 0.003118 0.000000
# 6 0.000000 0.000000 0.000000 0.000000 0.000000 0.012270
#
#
# Mechanical properties :
#
#
# Convention : Reuss Voigt Hill
#
# Bulk Modulus (GPa) = 64.90767 68.09377 66.50072
# Shear Modulus (GPa) = 116.51443 78.40676 97.46060
#
# Velocity S-wave (km/s) = 7.10365 5.82731 6.49690
# Velocity P-wave (km/s) = 9.76697 8.64684 9.22392
#
# Compressibility (1/GPa) = 0.01540650
#
# Stress axis : x y z
#
# Youngs Moduli (GPa) = 174.51660 119.45134 114.66265
#
# Poissons Ratio (x) = 0.15057 0.14759
# Poissons Ratio (y) = 0.21999 0.13306
# Poissons Ratio (z) = 0.22464 0.13862
#
# Static dielectric constant tensor:
#      x y z
#    x 1.785880 0.000000 0.000000 
#    y 0.000000 1.905630 0.000000 
#    z 0.000000 0.000000 1.922810 
# 
# From -- ./inp_files/5932.got.cif
#   From: 2010.05.17/outbox.cif.g08.bks.cpg/sg70_3_cif.got.tgz:5932.got - 2010.06.03 15:57:51.
