data_PCOD9517338
_publ_section_title
;
Structure prediction by ZEFSAII (Michael W. Deem and Ramdas Pophale) SiO2 
 PCOD9517338
Probable space group: I M M M
;
_chemical_formula_sum "Si O2"
_cell_formula_units_Z 104
_cell_length_a 18.866440
_cell_length_b 27.729203
_cell_length_c 12.152946
_cell_angle_alpha 90.000000
_cell_angle_beta 90.000000
_cell_angle_gamma 90.000000
_cell_volume 6357.830041
_symmetry_space_group_name_H-M "I M M M"
_symmetry_group_IT_number 71
_symmetry_cell_setting 'orthorhombic'
loop_
_space_group_symop_operation_xyz
x,y,z
-x,-y,z
x,-y,-z
-x,y,-z
-x,-y,-z
x,y,-z
-x,y,z
x,-y,z
1/2+x,1/2+y,1/2+z
1/2-x,1/2-y,1/2+z
1/2+x,1/2-y,1/2-z
1/2-x,1/2+y,1/2-z
1/2-x,1/2-y,1/2-z
1/2+x,1/2+y,1/2-z
1/2-x,1/2+y,1/2+z
1/2+x,1/2-y,1/2+z
loop_
_atom_site_type_symbol
_atom_site_label
_atom_site_fract_x
_atom_site_fract_y
_atom_site_fract_z
Si Si1 0.079940 0.000000 0.866884
Si Si2 0.086278 0.358736 0.000000
Si Si3 0.188591 0.555760 0.368810
Si Si4 0.840677 0.901241 0.133001
Si Si5 0.914162 0.808064 0.779460
Si Si6 0.914602 0.249533 0.000000
Si Si7 0.414600 0.122885 0.744958
Si Si8 0.086079 0.279373 0.373827
O O1 0.119643 0.049031 0.837816
O O2 0.000000 0.000000 0.824874
O O3 0.077913 0.000000 0.000000
O O4 0.112384 0.303695 0.000000
O O5 0.107065 0.380585 0.883011
O O6 0.000000 0.358160 0.000000
O O7 0.178481 0.555801 0.500000
O O8 0.199878 0.500000 0.335432
O O9 0.258206 0.587950 0.346963
O O10 0.122229 0.580439 0.311430
O O11 0.873457 0.858122 0.204214
O O12 0.850811 0.892431 0.000000
O O13 0.896133 0.778542 0.890124
O O14 0.894090 0.771926 0.680384
O O15 0.000000 0.815854 0.776451
O O16 0.000000 0.252916 0.000000
O O17 0.500000 0.120329 0.751464
O O18 0.393468 0.174680 0.798635
O O19 0.110554 0.284734 0.500000
O O20 0.000000 0.279701 0.374639
#
# Coordination Sequence:
#
# PCOD9517338 Si02
#       8
#     8   8  16  16  16   8  16  16
#     4   9  16  26  44  72 102 130 165 210 254 297
#     4   9  16  30  53  80 106 128 155 200 256 304
#     4  10  21  37  53  70  99 137 170 207 259 305
#     4  10  18  30  47  70 102 136 168 206 255 303
#     4  10  17  26  47  77 105 135 170 205 245 296
#     4   9  14  24  44  74 106 132 159 195 244 302
#     4  10  19  33  56  80 100 128 166 207 250 301
#     4   9  17  29  47  74 107 137 166 204 248 294
#
# _framework density 16.357782
#
# number of rings (size 3 to 8) (size 9 to 14) (size 15 to 20)
#    0.000    2.385    3.077    0.923    0.000    1.846 
#    0.000    1.923    1.692    1.385    0.000    0.538 
#    0.000    3.077    0.000    0.000    0.000    0.000 
#
# Total GULP energy -289607.010151 kJ/mol
# GULP energy per Si atom -5569.365580 kJ/mol
# Density = 1.632055 g / cm^3
# Si number density = 16.357782 Si / 1000 Ang^3
#
#
#
# Elastic Constant Matrix: (Units=GPa)
#
#
# Indices 1 2 3 4 5 6 
#
# 1 36.0453 29.4084 25.5759 0.0000 0.0000 0.0000
# 2 29.4084 71.2427 28.3309 0.0000 0.0000 0.0000
# 3 25.5759 28.3309 69.7367 0.0000 0.0000 0.0000
# 4 0.0000 0.0000 0.0000 20.3425 0.0000 0.0000
# 5 0.0000 0.0000 0.0000 0.0000 12.6044 0.0000
# 6 0.0000 0.0000 0.0000 0.0000 0.0000 121.0635
#
#
#
# Elastic Compliance Matrix: (Units=1/GPa)
#
#
# Indices 1 2 3 4 5 6 
#
# 1 0.048519 -0.015448 -0.011519 0.000000 0.000000 0.000000
# 2 -0.015448 0.021659 -0.003134 0.000000 0.000000 0.000000
# 3 -0.011519 -0.003134 0.019837 0.000000 0.000000 0.000000
# 4 0.000000 0.000000 0.000000 0.049158 0.000000 0.000000
# 5 0.000000 0.000000 0.000000 0.000000 0.079338 0.000000
# 6 0.000000 0.000000 0.000000 0.000000 0.000000 0.008260
#
#
# Mechanical properties :
#
#
# Convention : Reuss Voigt Hill
#
# Bulk Modulus (GPa) = 33.53961 38.18390 35.86176
# Shear Modulus (GPa) = 16.84007 37.04938 26.94473
#
# Velocity S-wave (km/s) = 3.21204 4.76430 4.06299
# Velocity P-wave (km/s) = 5.85701 7.32519 6.63185
#
# Compressibility (1/GPa) = 0.02981549
#
# Stress axis : x y z
#
# Youngs Moduli (GPa) = 20.61037 46.16927 50.41021
#
# Poissons Ratio (x) = 0.71321 0.58066
# Poissons Ratio (y) = 0.31838 0.15798
# Poissons Ratio (z) = 0.23740 0.14469
#
# Static dielectric constant tensor:
#      x y z
#    x 1.552560 0.000000 0.000000 
#    y 0.000000 1.547390 0.000000 
#    z 0.000000 0.000000 1.551890 
# 
# From -- ./inp_files/24612.got.cif
#   From: 2010.05.17/outbox.cif.g08.bks.cpg/sg71_13_cif.got.tgz:24612.got - 2010.06.03 16:22:01.
