data_PCOD9517521
_publ_section_title
;
Structure prediction by ZEFSAII (Michael W. Deem and Ramdas Pophale) SiO2 
 PCOD9517521
Probable space group: I M M M
;
_chemical_formula_sum "Si O2"
_cell_formula_units_Z 80
_cell_length_a 21.816121
_cell_length_b 19.895283
_cell_length_c 7.336753
_cell_angle_alpha 90.000000
_cell_angle_beta 90.000000
_cell_angle_gamma 90.000000
_cell_volume 3184.428874
_symmetry_space_group_name_H-M "I M M M"
_symmetry_group_IT_number 71
_symmetry_cell_setting 'orthorhombic'
loop_
_space_group_symop_operation_xyz
x,y,z
-x,-y,z
x,-y,-z
-x,y,-z
-x,-y,-z
x,y,-z
-x,y,z
x,-y,z
1/2+x,1/2+y,1/2+z
1/2-x,1/2-y,1/2+z
1/2+x,1/2-y,1/2-z
1/2-x,1/2+y,1/2-z
1/2-x,1/2-y,1/2-z
1/2+x,1/2+y,1/2-z
1/2-x,1/2+y,1/2+z
1/2+x,1/2-y,1/2+z
loop_
_atom_site_type_symbol
_atom_site_label
_atom_site_fract_x
_atom_site_fract_y
_atom_site_fract_z
Si Si1 0.116538 0.143426 0.284497
Si Si2 0.244277 0.351639 0.777084
Si Si3 0.124408 0.712543 0.781238
Si Si4 0.105870 0.000000 0.287606
Si Si5 0.756030 0.500000 0.213500
Si Si6 0.927354 0.428061 0.780967
O O1 0.122203 0.131404 0.500000
O O2 0.185919 0.152990 0.211870
O O3 0.090508 0.218182 0.265563
O O4 0.088104 0.073703 0.211739
O O5 0.195141 0.296357 0.717152
O O6 0.223507 0.426990 0.719004
O O7 0.245227 0.351109 0.000000
O O8 0.094932 0.643636 0.713025
O O9 0.124749 0.710944 0.000000
O O10 0.086477 0.000000 0.500000
O O11 0.180849 0.000000 0.276475
O O12 0.771651 0.500000 0.000000
O O13 0.902416 0.500000 0.713607
O O14 0.000000 0.429582 0.753088
O O15 0.916362 0.427656 0.000000
#
# Coordination Sequence:
#
# PCOD9517521 Si02
#       6
#    16  16  16   8   8  16
#     4   9  16  28  42  58  84 116 143 169 205 251
#     4   8  14  22  35  57  84 111 139 173 206 240
#     4  10  18  25  40  66  87 105 138 179 215 251
#     4   7  12  24  41  55  72 107 147 167 185 233
#     4   7  10  18  32  51  74 102 139 172 193 221
#     4   8  15  28  44  63  88 115 143 179 220 254
#
# _framework density 25.122243999999998
#
# number of rings (size 3 to 8) (size 9 to 14) (size 15 to 20)
#    0.000    3.600    0.000    3.600    1.400    0.000 
#    0.000    0.500    0.000    1.200    0.000    3.500 
#    0.000    5.600    0.000    0.000    0.000    0.000 
#
# Total GULP energy -222956.169039 kJ/mol
# GULP energy per Si atom -5573.904226 kJ/mol
# Density = 2.506506 g / cm^3
# Si number density = 25.122244 Si / 1000 Ang^3
#
#
#
# Elastic Constant Matrix: (Units=GPa)
#
#
# Indices 1 2 3 4 5 6 
#
# 1 11.0944 18.4954 -0.2786 0.0000 0.0000 0.0000
# 2 18.4954 252.7678 -0.3532 0.0000 0.0000 0.0000
# 3 -0.2786 -0.3532 93.7066 0.0000 0.0000 0.0000
# 4 0.0000 0.0000 0.0000 11.4326 0.0000 0.0000
# 5 0.0000 0.0000 0.0000 0.0000 -24.6837 0.0000
# 6 0.0000 0.0000 0.0000 0.0000 0.0000 22.0756
#
#
#
# Elastic Compliance Matrix: (Units=1/GPa)
#
#
# Indices 1 2 3 4 5 6 
#
# 1 0.102666 -0.007512 0.000277 0.000000 0.000000 0.000000
# 2 -0.007512 0.004506 -0.000005 0.000000 0.000000 0.000000
# 3 0.000277 -0.000005 0.010672 0.000000 0.000000 0.000000
# 4 0.000000 0.000000 0.000000 0.087469 0.000000 0.000000
# 5 0.000000 0.000000 0.000000 0.000000 -0.040513 0.000000
# 6 0.000000 0.000000 0.000000 0.000000 0.000000 0.045299
#
#
# Mechanical properties :
#
#
# Convention : Reuss Voigt Hill
#
# Bulk Modulus (GPa) = 9.67460 43.69955 26.68707
# Shear Modulus (GPa) = 19.30242 24.41190 21.85716
#
# Velocity S-wave (km/s) = 2.77490 3.12063 2.95283
# Velocity P-wave (km/s) = 3.75848 5.51516 4.71928
#
# Compressibility (1/GPa) = 0.10336349
#
# Stress axis : x y z
#
# Youngs Moduli (GPa) = 9.74034 221.93390 93.69956
#
# Poissons Ratio (x) = 1.66713 -0.02594
# Poissons Ratio (y) = 0.07317 0.00050
# Poissons Ratio (z) = -0.00270 0.00119
#
# Static dielectric constant tensor:
#      x y z
#    x 1.992590 0.000000 0.000000 
#    y 0.000000 2.090150 0.000000 
#    z 0.000000 0.000000 2.010850 
# 
# From -- ./inp_files/27375.got.cif
#   From: 2010.05.17/outbox.cif.g08.bks.cpg/sg71_14_cif.got.tgz:27375.got - 2010.06.03 16:22:01.
