data_PCOD9517277
_publ_section_title
;
Structure prediction by ZEFSAII (Michael W. Deem and Ramdas Pophale) SiO2 
 PCOD9517277
Probable space group: I M M M
;
_chemical_formula_sum "Si O2"
_cell_formula_units_Z 96
_cell_length_a 16.935051
_cell_length_b 20.080855
_cell_length_c 14.422818
_cell_angle_alpha 90.000000
_cell_angle_beta 90.000000
_cell_angle_gamma 90.000000
_cell_volume 4904.772095
_symmetry_space_group_name_H-M "I M M M"
_symmetry_group_IT_number 71
_symmetry_cell_setting 'orthorhombic'
loop_
_space_group_symop_operation_xyz
x,y,z
-x,-y,z
x,-y,-z
-x,y,-z
-x,-y,-z
x,y,-z
-x,y,z
x,-y,z
1/2+x,1/2+y,1/2+z
1/2-x,1/2-y,1/2+z
1/2+x,1/2-y,1/2-z
1/2-x,1/2+y,1/2-z
1/2-x,1/2-y,1/2-z
1/2+x,1/2+y,1/2-z
1/2-x,1/2+y,1/2+z
1/2+x,1/2-y,1/2+z
loop_
_atom_site_type_symbol
_atom_site_label
_atom_site_fract_x
_atom_site_fract_y
_atom_site_fract_z
Si Si1 0.090684 0.397564 0.396872
Si Si2 0.414817 0.281335 0.639558
Si Si3 0.759651 0.709735 0.847660
Si Si4 0.782618 0.427457 0.753898
Si Si5 0.641857 0.425704 0.394594
Si Si6 0.912991 0.760572 0.361968
O O1 0.120333 0.415104 0.500000
O O2 0.142300 0.424327 0.313508
O O3 0.091246 0.317374 0.386838
O O4 0.000000 0.418968 0.390261
O O5 0.500000 0.255541 0.606241
O O6 0.334320 0.246188 0.605513
O O7 0.409882 0.359918 0.618527
O O8 0.414702 0.270509 0.750781
O O9 0.750000 0.750000 0.750000
O O10 0.782134 0.634507 0.822500
O O11 0.672246 0.710963 0.892156
O O12 0.777561 0.500000 0.798950
O O13 0.709432 0.420020 0.682767
O O14 0.673651 0.422949 0.500000
O O15 0.605319 0.500000 0.384354
O O16 0.000000 0.785148 0.394752
#
# Coordination Sequence:
#
# PCOD9517277 Si02
#       6
#    16  16  16  16  16  16
#     4  10  19  30  45  68  98 130 164 200 241 288
#     4  10  18  30  50  67  87 128 169 198 232 276
#     4  10  16  31  50  68  88 121 163 212 241 268
#     4  11  20  31  46  67  97 132 168 200 240 290
#     4  10  20  32  46  69 103 136 162 192 233 285
#     4   9  16  29  50  70  87 117 160 207 244 274
#
# _framework density 19.572776000000001
#
# number of rings (size 3 to 8) (size 9 to 14) (size 15 to 20)
#    0.000    2.000    6.667    0.500    0.000    2.000 
#    0.000    1.667    0.000    0.500    0.000    0.000 
#    0.000    4.667    0.000   21.333    0.000    0.000 
#
# Total GULP energy -267456.524459 kJ/mol
# GULP energy per Si atom -5572.010926 kJ/mol
# Density = 1.952823 g / cm^3
# Si number density = 19.572776 Si / 1000 Ang^3
#
#
#
# Elastic Constant Matrix: (Units=GPa)
#
#
# Indices 1 2 3 4 5 6 
#
# 1 171.3861 44.4432 14.0663 0.0000 0.0000 0.0000
# 2 44.4432 129.1426 19.4957 0.0000 0.0000 0.0000
# 3 14.0663 19.4957 55.6371 0.0000 0.0000 0.0000
# 4 0.0000 0.0000 0.0000 8.9178 0.0000 0.0000
# 5 0.0000 0.0000 0.0000 0.0000 -6.2815 0.0000
# 6 0.0000 0.0000 0.0000 0.0000 0.0000 44.0606
#
#
#
# Elastic Compliance Matrix: (Units=1/GPa)
#
#
# Indices 1 2 3 4 5 6 
#
# 1 0.006449 -0.002083 -0.000900 0.000000 0.000000 0.000000
# 2 -0.002083 0.008849 -0.002574 0.000000 0.000000 0.000000
# 3 -0.000900 -0.002574 0.019103 0.000000 0.000000 0.000000
# 4 0.000000 0.000000 0.000000 0.112135 0.000000 0.000000
# 5 0.000000 0.000000 0.000000 0.000000 -0.159197 0.000000
# 6 0.000000 0.000000 0.000000 0.000000 0.000000 0.022696
#
#
# Mechanical properties :
#
#
# Convention : Reuss Voigt Hill
#
# Bulk Modulus (GPa) = 42.94526 56.90846 49.92686
# Shear Modulus (GPa) = 172.93615 27.88342 100.40979
#
# Velocity S-wave (km/s) = 9.40996 3.77849 7.17022
# Velocity P-wave (km/s) = 11.83436 6.94078 9.70119
#
# Compressibility (1/GPa) = 0.02328546
#
# Stress axis : x y z
#
# Youngs Moduli (GPa) = 155.06420 113.00778 52.34726
#
# Poissons Ratio (x) = 0.23544 0.04713
# Poissons Ratio (y) = 0.32306 0.13474
# Poissons Ratio (z) = 0.13962 0.29088
#
# Static dielectric constant tensor:
#      x y z
#    x 1.752690 0.000000 0.000000 
#    y 0.000000 1.678970 0.000000 
#    z 0.000000 0.000000 1.673950 
# 
# From -- ./inp_files/46034.got.cif
#   From: 2010.05.17/outbox.cif.g08.bks.cpg/sg71_24_cif.got.tgz:46034.got - 2010.06.03 16:22:01.
