data_PCOD9517309
_publ_section_title
;
Structure prediction by ZEFSAII (Michael W. Deem and Ramdas Pophale) SiO2 
 PCOD9517309
Probable space group: I M M M
;
_chemical_formula_sum "Si O2"
_cell_formula_units_Z 80
_cell_length_a 19.937321
_cell_length_b 34.714522
_cell_length_c 7.401630
_cell_angle_alpha 90.000000
_cell_angle_beta 90.000000
_cell_angle_gamma 90.000000
_cell_volume 5122.775953
_symmetry_space_group_name_H-M "I M M M"
_symmetry_group_IT_number 71
_symmetry_cell_setting 'orthorhombic'
loop_
_space_group_symop_operation_xyz
x,y,z
-x,-y,z
x,-y,-z
-x,y,-z
-x,-y,-z
x,y,-z
-x,y,z
x,-y,z
1/2+x,1/2+y,1/2+z
1/2-x,1/2-y,1/2+z
1/2+x,1/2-y,1/2-z
1/2-x,1/2+y,1/2-z
1/2-x,1/2-y,1/2-z
1/2+x,1/2+y,1/2-z
1/2-x,1/2+y,1/2+z
1/2+x,1/2-y,1/2+z
loop_
_atom_site_type_symbol
_atom_site_label
_atom_site_fract_x
_atom_site_fract_y
_atom_site_fract_z
Si Si1 0.278609 0.808962 0.780730
Si Si2 0.500000 0.747005 0.721481
Si Si3 0.638231 0.120460 0.209299
Si Si4 0.500000 0.163416 0.282611
Si Si5 0.354958 0.269976 0.712561
Si Si6 0.922380 0.543389 0.279401
O O1 0.308220 0.849338 0.713567
O O2 0.328121 0.773831 0.731320
O O3 0.204717 0.796830 0.714636
O O4 0.277561 0.809847 0.000000
O O5 0.500000 0.746525 0.500000
O O6 0.500000 0.792006 0.773677
O O7 0.569591 0.728260 0.784469
O O8 0.566617 0.142105 0.216803
O O9 0.624284 0.078081 0.286317
O O10 0.656938 0.114906 0.000000
O O11 0.500000 0.162122 0.500000
O O12 0.359229 0.278448 0.500000
O O13 0.922187 0.544332 0.500000
O O14 0.903692 0.500000 0.225200
O O15 0.000000 0.550158 0.225437
#
# Coordination Sequence:
#
# PCOD9517309 Si02
#       6
#    16   8  16   8  16  16
#     4   9  17  25  36  52  68  85 108 142 175 195
#     4   9  16  25  37  48  64  91 117 138 159 196
#     4  10  17  26  38  52  68  87 113 148 177 197
#     4  11  19  25  34  52  69  90 120 143 168 202
#     4   9  16  27  37  48  67  90 113 135 165 203
#     4   8  13  21  34  50  66  86 111 137 168 205
#
# _framework density 15.616531999999999
#
# number of rings (size 3 to 8) (size 9 to 14) (size 15 to 20)
#    0.000    2.800    3.000    0.900    0.000    0.000 
#    0.000    0.500    0.000    1.200    0.000    0.000 
#    0.000    0.000    0.000    0.900    0.000   28.800 
#
# Total GULP energy -222950.256059 kJ/mol
# GULP energy per Si atom -5573.756401 kJ/mol
# Density = 1.558099 g / cm^3
# Si number density = 15.616532 Si / 1000 Ang^3
#
#
#
# Elastic Constant Matrix: (Units=GPa)
#
#
# Indices 1 2 3 4 5 6 
#
# 1 120.7319 62.3443 -1.4350 -0.0005 0.0008 0.0002
# 2 62.3443 122.1740 -2.0511 -0.0011 0.0011 0.0005
# 3 -1.4350 -2.0511 51.4213 -0.0096 -0.0003 0.0014
# 4 -0.0005 -0.0011 -0.0096 3.5061 -0.0001 -0.0001
# 5 0.0008 0.0011 -0.0003 -0.0001 -1.1012 -0.0003
# 6 0.0002 0.0005 0.0014 -0.0001 -0.0003 28.1022
#
#
#
# Elastic Compliance Matrix: (Units=1/GPa)
#
#
# Indices 1 2 3 4 5 6 
#
# 1 0.011247 -0.005738 0.000085 0.000000 0.000002 0.000000
# 2 -0.005738 0.011118 0.000283 0.000003 0.000007 0.000000
# 3 0.000085 0.000283 0.019461 0.000053 -0.000005 -0.000001
# 4 0.000000 0.000003 0.000053 0.285217 -0.000034 0.000001
# 5 0.000002 0.000007 -0.000005 -0.000034 -0.908104 -0.000010
# 6 0.000000 0.000000 -0.000001 0.000001 -0.000010 0.035584
#
#
# Mechanical properties :
#
#
# Convention : Reuss Voigt Hill
#
# Bulk Modulus (GPa) = 32.16818 45.78261 38.97540
# Shear Modulus (GPa) = -9.53514 21.79935 6.13210
#
# Velocity S-wave (km/s) = -2.47367 3.74025 1.98373
# Velocity P-wave (km/s) = 3.53338 6.93059 5.50081
#
# Compressibility (1/GPa) = 0.03108662
#
# Stress axis : x y z
#
# Youngs Moduli (GPa) = 88.91514 89.94677 51.38513
#
# Poissons Ratio (x) = 0.51608 -0.00437
# Poissons Ratio (y) = 0.51016 -0.01456
# Poissons Ratio (z) = -0.00756 -0.02549
#
# Static dielectric constant tensor:
#      x y z
#    x 1.527450 0.000000 0.000000 
#    y 0.000000 1.528820 0.000000 
#    z 0.000000 0.000000 1.601260 
# 
# From -- ./inp_files/11282.got.cif
#   From: 2010.05.17/outbox.cif.g08.bks.cpg/sg71_6_cif.got.tgz:11282.got - 2010.06.03 16:22:01.
