data_PCOD9517250
_publ_section_title
;
Structure prediction by ZEFSAII (Michael W. Deem and Ramdas Pophale) SiO2 
 PCOD9517250
Probable space group: I M M M
;
_chemical_formula_sum "Si O2"
_cell_formula_units_Z 88
_cell_length_a 10.759413
_cell_length_b 27.031862
_cell_length_c 19.187978
_cell_angle_alpha 90.000000
_cell_angle_beta 90.000000
_cell_angle_gamma 90.000000
_cell_volume 5580.765212
_symmetry_space_group_name_H-M "I M M M"
_symmetry_group_IT_number 71
_symmetry_cell_setting 'orthorhombic'
loop_
_space_group_symop_operation_xyz
x,y,z
-x,-y,z
x,-y,-z
-x,y,-z
-x,-y,-z
x,y,-z
-x,y,z
x,-y,z
1/2+x,1/2+y,1/2+z
1/2-x,1/2-y,1/2+z
1/2+x,1/2-y,1/2-z
1/2-x,1/2+y,1/2-z
1/2-x,1/2-y,1/2-z
1/2+x,1/2+y,1/2-z
1/2-x,1/2+y,1/2+z
1/2+x,1/2-y,1/2+z
loop_
_atom_site_type_symbol
_atom_site_label
_atom_site_fract_x
_atom_site_fract_y
_atom_site_fract_z
Si Si1 0.500000 0.154675 0.823031
Si Si2 0.500000 0.058236 0.740137
Si Si3 0.249758 0.204676 0.150761
Si Si4 0.852953 0.558953 0.000000
Si Si5 0.703834 0.107345 0.641651
Si Si6 0.000000 0.685497 0.838318
Si Si7 0.500000 0.713346 0.581454
Si Si8 0.146463 0.807996 0.307401
O O1 0.500000 0.096521 0.804423
O O2 0.625824 0.172559 0.859393
O O3 0.500000 0.180983 0.745624
O O4 0.622957 0.073349 0.694794
O O5 0.500000 0.000000 0.754616
O O6 0.203439 0.195926 0.229985
O O7 0.292011 0.262534 0.148977
O O8 0.133811 0.190232 0.101610
O O9 0.788812 0.579431 0.069164
O O10 0.850392 0.500000 0.000000
O O11 0.000000 0.573690 0.000000
O O12 0.615541 0.155022 0.633395
O O13 0.825585 0.135761 0.667887
O O14 0.000000 0.739723 0.867007
O O15 0.500000 0.725875 0.500000
O O16 0.000000 0.799001 0.305653
#
# Coordination Sequence:
#
# PCOD9517250 Si02
#       8
#     8   8  16   8  16   8   8  16
#     4  10  18  34  54  81 103 141 172 214 273 304
#     4  10  18  30  50  78 105 125 166 228 276 300
#     4  11  19  32  52  77 106 138 176 214 262 323
#     4  11  20  30  49  71  97 141 190 231 269 300
#     4  10  19  29  46  73 101 136 177 223 262 297
#     4  10  16  27  45  74 100 131 170 218 252 293
#     4  12  24  32  48  75 112 145 172 205 258 315
#     4  11  19  30  52  76 100 135 184 224 258 314
#
# _framework density 15.768447
#
# number of rings (size 3 to 8) (size 9 to 14) (size 15 to 20)
#    0.000    1.545    9.091    1.636    1.273    0.000 
#    0.000    0.909    0.000    2.727    0.000    0.000 
#    0.000    2.182    0.000    0.000    0.000    0.000 
#
# Total GULP energy -244943.170991 kJ/mol
# GULP energy per Si atom -5566.890250 kJ/mol
# Density = 1.573256 g / cm^3
# Si number density = 15.768447 Si / 1000 Ang^3
#
#
#
# Elastic Constant Matrix: (Units=GPa)
#
#
# Indices 1 2 3 4 5 6 
#
# 1 108.0937 31.3182 12.4913 0.0000 0.0000 0.0000
# 2 31.3182 87.5668 14.2696 0.0000 0.0000 0.0000
# 3 12.4913 14.2696 13.8303 0.0000 0.0000 0.0000
# 4 0.0000 0.0000 0.0000 11.9016 0.0000 0.0000
# 5 0.0000 0.0000 0.0000 0.0000 12.5274 0.0000
# 6 0.0000 0.0000 0.0000 0.0000 0.0000 18.0799
#
#
#
# Elastic Compliance Matrix: (Units=1/GPa)
#
#
# Indices 1 2 3 4 5 6 
#
# 1 0.010852 -0.002746 -0.006969 0.000000 0.000000 0.000000
# 2 -0.002746 0.014423 -0.012401 0.000000 0.000000 0.000000
# 3 -0.006969 -0.012401 0.091394 0.000000 0.000000 0.000000
# 4 0.000000 0.000000 0.000000 0.084022 0.000000 0.000000
# 5 0.000000 0.000000 0.000000 0.000000 0.079825 0.000000
# 6 0.000000 0.000000 0.000000 0.000000 0.000000 0.055310
#
#
# Mechanical properties :
#
#
# Convention : Reuss Voigt Hill
#
# Bulk Modulus (GPa) = 13.80485 36.18322 24.99403
# Shear Modulus (GPa) = 12.37005 18.59591 15.48298
#
# Velocity S-wave (km/s) = 2.80390 3.43784 3.13692
# Velocity P-wave (km/s) = 4.38819 6.22533 5.38567
#
# Compressibility (1/GPa) = 0.07243833
#
# Stress axis : x y z
#
# Youngs Moduli (GPa) = 92.14875 69.33533 10.94163
#
# Poissons Ratio (x) = 0.19037 0.07625
# Poissons Ratio (y) = 0.25301 0.13569
# Poissons Ratio (z) = 0.64214 0.85983
#
# Static dielectric constant tensor:
#      x y z
#    x 1.518200 0.000000 0.000000 
#    y 0.000000 1.526340 0.000000 
#    z 0.000000 0.000000 1.528510 
# 
# From -- ./inp_files/43959.got.cif
#   From: 2010.05.17/outbox.cif.g08.bks.cpg/sg71_22_cif.got.tgz:43959.got - 2010.06.03 16:22:01.
