data_PCOD9517688
_publ_section_title
;
Structure prediction by ZEFSAII (Michael W. Deem and Ramdas Pophale) SiO2 
 PCOD9517688
Probable space group: I M M M
;
_chemical_formula_sum "Si O2"
_cell_formula_units_Z 120
_cell_length_a 24.042520
_cell_length_b 18.070232
_cell_length_c 18.157351
_cell_angle_alpha 90.000000
_cell_angle_beta 90.000000
_cell_angle_gamma 90.000000
_cell_volume 7888.532215
_symmetry_space_group_name_H-M "I M M M"
_symmetry_group_IT_number 71
_symmetry_cell_setting 'orthorhombic'
loop_
_space_group_symop_operation_xyz
x,y,z
-x,-y,z
x,-y,-z
-x,y,-z
-x,-y,-z
x,y,-z
-x,y,z
x,-y,z
1/2+x,1/2+y,1/2+z
1/2-x,1/2-y,1/2+z
1/2+x,1/2-y,1/2-z
1/2-x,1/2+y,1/2-z
1/2-x,1/2-y,1/2-z
1/2+x,1/2+y,1/2-z
1/2-x,1/2+y,1/2+z
1/2+x,1/2-y,1/2+z
loop_
_atom_site_type_symbol
_atom_site_label
_atom_site_fract_x
_atom_site_fract_y
_atom_site_fract_z
Si Si1 0.341400 0.354245 0.683725
Si Si2 0.065882 0.000000 0.588781
Si Si3 0.272176 0.084006 0.361999
Si Si4 0.321887 0.786658 0.916327
Si Si5 0.145075 0.132157 0.357606
Si Si6 0.561603 0.411410 0.416688
Si Si7 0.781966 0.586120 0.313521
Si Si8 0.306333 0.231622 0.580773
O O1 0.353893 0.356159 0.769822
O O2 0.391280 0.390103 0.639513
O O3 0.283024 0.396428 0.669058
O O4 0.334189 0.273182 0.648775
O O5 0.098452 0.073015 0.618309
O O6 0.069603 0.000000 0.500000
O O7 0.000000 0.000000 0.608879
O O8 0.206216 0.097959 0.374945
O O9 0.284617 0.096419 0.274963
O O10 0.305604 0.144372 0.407454
O O11 0.285267 0.000000 0.380543
O O12 0.357283 0.714074 0.893554
O O13 0.319115 0.855088 0.859006
O O14 0.258227 0.756847 0.916854
O O15 0.335590 0.809826 0.000000
O O16 0.573783 0.385998 0.500000
O O17 0.500000 0.384146 0.395857
O O18 0.559293 0.500000 0.418960
O O19 0.794062 0.500000 0.330360
O O20 0.328395 0.252235 0.500000
#
# Coordination Sequence:
#
# PCOD9517688 Si02
#       8
#    16   8  16  16  16  16  16  16
#     4  10  18  28  45  62  87 118 152 189 228 270
#     4  11  24  38  50  68  93 117 151 201 243 275
#     4   9  16  28  43  63  89 120 153 187 224 270
#     4   9  17  29  43  61  86 118 152 185 226 277
#     4  10  19  32  48  65  84 118 156 190 231 277
#     4   9  18  30  42  58  82 113 147 183 222 263
#     4   9  17  27  42  64  93 120 150 187 226 268
#     4   9  17  27  40  63  89 116 151 188 225 267
#
# _framework density 15.211955
#
# number of rings (size 3 to 8) (size 9 to 14) (size 15 to 20)
#    0.000    2.600    0.667    2.400    1.867    5.333 
#    0.000    0.000    0.000    0.000    0.000    0.000 
#    0.000    1.067    0.000   11.200    0.000    4.800 
#
# Total GULP energy -334080.131094 kJ/mol
# GULP energy per Si atom -5568.002185 kJ/mol
# Density = 1.517733 g / cm^3
# Si number density = 15.211955 Si / 1000 Ang^3
#
#
#
# Elastic Constant Matrix: (Units=GPa)
#
#
# Indices 1 2 3 4 5 6 
#
# 1 41.6669 23.4356 25.9393 0.0000 0.0000 0.0000
# 2 23.4356 98.9035 30.5710 0.0000 0.0000 0.0000
# 3 25.9393 30.5710 43.8211 0.0000 0.0000 0.0000
# 4 0.0000 0.0000 0.0000 26.3680 0.0000 0.0000
# 5 0.0000 0.0000 0.0000 0.0000 13.6499 0.0000
# 6 0.0000 0.0000 0.0000 0.0000 0.0000 15.9318
#
#
#
# Elastic Compliance Matrix: (Units=1/GPa)
#
#
# Indices 1 2 3 4 5 6 
#
# 1 0.038543 -0.002653 -0.020964 0.000000 0.000000 0.000000
# 2 -0.002653 0.013073 -0.007550 0.000000 0.000000 0.000000
# 3 -0.020964 -0.007550 0.040497 0.000000 0.000000 0.000000
# 4 0.000000 0.000000 0.000000 0.037925 0.000000 0.000000
# 5 0.000000 0.000000 0.000000 0.000000 0.073261 0.000000
# 6 0.000000 0.000000 0.000000 0.000000 0.000000 0.062768
#
#
# Mechanical properties :
#
#
# Convention : Reuss Voigt Hill
#
# Bulk Modulus (GPa) = 33.58109 38.25371 35.91740
# Shear Modulus (GPa) = 14.77864 18.15298 16.46581
#
# Velocity S-wave (km/s) = 3.12029 3.45822 3.29359
# Velocity P-wave (km/s) = 5.92495 6.41463 6.17464
#
# Compressibility (1/GPa) = 0.02977867
#
# Stress axis : x y z
#
# Youngs Moduli (GPa) = 25.94497 76.49259 24.69341
#
# Poissons Ratio (x) = 0.20293 0.51768
# Poissons Ratio (y) = 0.06883 0.18643
# Poissons Ratio (z) = 0.54392 0.57751
#
# Static dielectric constant tensor:
#      x y z
#    x 1.482280 0.000000 0.000000 
#    y 0.000000 1.520080 0.000000 
#    z 0.000000 0.000000 1.526980 
# 
# From -- ./inp_files/47576.got.cif
#   From: 2010.05.17/outbox.cif.g08.bks.cpg/sg71_24_cif.got.tgz:47576.got - 2010.06.03 16:22:01.
