data_PCOD9517943
_publ_section_title
;
Structure prediction by ZEFSAII (Michael W. Deem and Ramdas Pophale) SiO2 
 PCOD9517943
Probable space group: I M M M
;
_chemical_formula_sum "Si O2"
_cell_formula_units_Z 104
_cell_length_a 18.998634
_cell_length_b 18.657824
_cell_length_c 16.434385
_cell_angle_alpha 90.000000
_cell_angle_beta 90.000000
_cell_angle_gamma 90.000000
_cell_volume 5825.548538
_symmetry_space_group_name_H-M "I M M M"
_symmetry_group_IT_number 71
_symmetry_cell_setting 'orthorhombic'
loop_
_space_group_symop_operation_xyz
x,y,z
-x,-y,z
x,-y,-z
-x,y,-z
-x,-y,-z
x,y,-z
-x,y,z
x,-y,z
1/2+x,1/2+y,1/2+z
1/2-x,1/2-y,1/2+z
1/2+x,1/2-y,1/2-z
1/2-x,1/2+y,1/2-z
1/2-x,1/2-y,1/2-z
1/2+x,1/2+y,1/2-z
1/2-x,1/2+y,1/2+z
1/2+x,1/2-y,1/2+z
loop_
_atom_site_type_symbol
_atom_site_label
_atom_site_fract_x
_atom_site_fract_y
_atom_site_fract_z
Si Si1 0.081564 0.815261 0.830884
Si Si2 0.777743 0.416915 0.242643
Si Si3 0.080854 0.724139 0.410816
Si Si4 0.802225 0.084044 0.906904
Si Si5 0.919674 0.343042 0.233406
Si Si6 0.854067 0.856774 0.660886
Si Si7 0.079000 0.000000 0.596238
O O1 0.135173 0.860001 0.886901
O O2 0.093144 0.729658 0.819101
O O3 0.097395 0.843877 0.740121
O O4 0.000000 0.826493 0.853153
O O5 0.762015 0.500000 0.225322
O O6 0.757318 0.405081 0.337837
O O7 0.857349 0.398549 0.220642
O O8 0.724888 0.366376 0.192756
O O9 0.091620 0.690201 0.500000
O O10 0.085731 0.676982 0.329642
O O11 0.133244 0.790090 0.397783
O O12 0.000000 0.752417 0.410029
O O13 0.825578 0.000000 0.898242
O O14 0.778379 0.093448 0.000000
O O15 0.000000 0.366479 0.218005
O O16 0.879761 0.929765 0.622109
O O17 0.073222 0.000000 0.500000
O O18 0.000000 0.000000 0.631714
#
# Coordination Sequence:
#
# PCOD9517943 Si02
#       7
#    16  16  16  16  16  16   8
#     4   9  18  31  49  72  99 132 168 207 243 285
#     4  10  20  35  52  70  97 130 164 212 258 296
#     4   9  17  30  48  73 106 136 161 194 238 292
#     4   9  19  33  48  72 105 137 166 197 241 293
#     4   9  19  35  53  73  95 123 166 214 258 300
#     4  10  18  30  45  69 101 136 163 195 235 291
#     4  11  20  28  44  72 104 136 164 189 222 274
#
# _framework density 17.852395999999999
#
# number of rings (size 3 to 8) (size 9 to 14) (size 15 to 20)
#    0.000    2.538    0.769    2.769    1.077    8.308 
#    0.000    0.769    0.000    0.923    0.000    4.308 
#    0.000    0.615    0.000    0.000    0.000    0.000 
#
# Total GULP energy -289654.008931 kJ/mol
# GULP energy per Si atom -5570.269403 kJ/mol
# Density = 1.781176 g / cm^3
# Si number density = 17.852396 Si / 1000 Ang^3
#
#
#
# Elastic Constant Matrix: (Units=GPa)
#
#
# Indices 1 2 3 4 5 6 
#
# 1 81.5111 17.7699 8.9419 0.0000 0.0000 0.0000
# 2 17.7699 9.6359 0.8283 0.0000 0.0000 0.0000
# 3 8.9419 0.8283 35.9207 0.0000 0.0000 0.0000
# 4 0.0000 0.0000 0.0000 7.8584 0.0000 0.0000
# 5 0.0000 0.0000 0.0000 0.0000 10.9965 0.0000
# 6 0.0000 0.0000 0.0000 0.0000 0.0000 33.8908
#
#
#
# Elastic Compliance Matrix: (Units=1/GPa)
#
#
# Indices 1 2 3 4 5 6 
#
# 1 0.021183 -0.038688 -0.004381 0.000000 0.000000 0.000000
# 2 -0.038688 0.174642 0.005604 0.000000 0.000000 0.000000
# 3 -0.004381 0.005604 0.028801 0.000000 0.000000 0.000000
# 4 0.000000 0.000000 0.000000 0.127252 0.000000 0.000000
# 5 0.000000 0.000000 0.000000 0.000000 0.090938 0.000000
# 6 0.000000 0.000000 0.000000 0.000000 0.000000 0.029507
#
#
# Mechanical properties :
#
#
# Convention : Reuss Voigt Hill
#
# Bulk Modulus (GPa) = 6.68024 20.23867 13.45946
# Shear Modulus (GPa) = 8.37310 17.18434 12.77872
#
# Velocity S-wave (km/s) = 2.16803 3.10591 2.67834
# Velocity P-wave (km/s) = 3.16500 4.92174 4.13768
#
# Compressibility (1/GPa) = 0.14969515
#
# Stress axis : x y z
#
# Youngs Moduli (GPa) = 47.20758 5.72600 34.72161
#
# Poissons Ratio (x) = 0.22153 0.15212
# Poissons Ratio (y) = 1.82635 -0.19457
# Poissons Ratio (z) = 0.20682 -0.03209
#
# Static dielectric constant tensor:
#      x y z
#    x 1.614020 0.000000 0.000000 
#    y 0.000000 1.605000 0.000000 
#    z 0.000000 0.000000 1.613710 
# 
# From -- ./inp_files/44945.got.cif
#   From: 2010.05.17/outbox.cif.g08.bks.cpg/sg71_23_cif.got.tgz:44945.got - 2010.06.03 16:22:01.
