data_PCOD9517340
_publ_section_title
;
Structure prediction by ZEFSAII (Michael W. Deem and Ramdas Pophale) SiO2 
 PCOD9517340
Probable space group: I M M M
;
_chemical_formula_sum "Si O2"
_cell_formula_units_Z 88
_cell_length_a 17.030528
_cell_length_b 25.189133
_cell_length_c 14.142489
_cell_angle_alpha 90.000000
_cell_angle_beta 90.000000
_cell_angle_gamma 90.000000
_cell_volume 6066.904823
_symmetry_space_group_name_H-M "I M M M"
_symmetry_group_IT_number 71
_symmetry_cell_setting 'orthorhombic'
loop_
_space_group_symop_operation_xyz
x,y,z
-x,-y,z
x,-y,-z
-x,y,-z
-x,-y,-z
x,y,-z
-x,y,z
x,-y,z
1/2+x,1/2+y,1/2+z
1/2-x,1/2-y,1/2+z
1/2+x,1/2-y,1/2-z
1/2-x,1/2+y,1/2-z
1/2-x,1/2-y,1/2-z
1/2+x,1/2+y,1/2-z
1/2-x,1/2+y,1/2+z
1/2+x,1/2-y,1/2+z
loop_
_atom_site_type_symbol
_atom_site_label
_atom_site_fract_x
_atom_site_fract_y
_atom_site_fract_z
Si Si1 0.094529 0.602915 0.269805
Si Si2 0.593228 0.264781 0.391481
Si Si3 0.184535 0.651436 0.889440
Si Si4 0.405847 0.793966 0.107211
Si Si5 0.184611 0.207548 0.281781
Si Si6 0.095425 0.500000 0.608934
O O1 0.136658 0.607737 0.169251
O O2 0.116409 0.656629 0.326564
O O3 0.117821 0.552479 0.332879
O O4 0.000000 0.602123 0.258643
O O5 0.604901 0.282532 0.500000
O O6 0.500000 0.259951 0.373518
O O7 0.633006 0.206278 0.383981
O O8 0.634243 0.301869 0.313124
O O9 0.266763 0.662523 0.835809
O O10 0.195309 0.639786 0.000000
O O11 0.500000 0.791158 0.108326
O O12 0.370457 0.739773 0.146351
O O13 0.379519 0.803569 0.000000
O O14 0.250000 0.250000 0.250000
O O15 0.122904 0.500000 0.500000
O O16 0.000000 0.500000 0.604978
#
# Coordination Sequence:
#
# PCOD9517340 Si02
#       6
#    16  16  16  16  16   8
#     4  10  18  30  45  62  81 108 145 181 217 255
#     4   9  16  26  40  57  79 110 145 176 206 241
#     4  10  19  29  41  59  83 112 144 179 216 251
#     4  10  18  27  41  60  82 111 146 177 205 245
#     4  10  17  27  38  57  84 110 141 177 209 246
#     4   9  18  32  47  63  83 105 135 182 230 259
#
# _framework density 14.504925
#
# number of rings (size 3 to 8) (size 9 to 14) (size 15 to 20)
#    0.000    2.273    3.636    2.182    0.000    4.000 
#    0.000    0.455    0.000    1.636    0.000    0.000 
#    0.000    0.000    0.000    3.273    0.000   21.818 
#
# Total GULP energy -245028.616933 kJ/mol
# GULP energy per Si atom -5568.832203 kJ/mol
# Density = 1.447191 g / cm^3
# Si number density = 14.504925 Si / 1000 Ang^3
#
#
#
# Elastic Constant Matrix: (Units=GPa)
#
#
# Indices 1 2 3 4 5 6 
#
# 1 44.8012 15.4635 43.4791 0.0000 0.0000 0.0000
# 2 15.4635 38.4694 31.8733 0.0000 0.0000 0.0000
# 3 43.4791 31.8733 129.4551 0.0000 0.0000 0.0000
# 4 0.0000 0.0000 0.0000 17.8959 0.0000 0.0000
# 5 0.0000 0.0000 0.0000 0.0000 26.0168 0.0000
# 6 0.0000 0.0000 0.0000 0.0000 0.0000 12.3957
#
#
#
# Elastic Compliance Matrix: (Units=1/GPa)
#
#
# Indices 1 2 3 4 5 6 
#
# 1 0.033946 -0.005275 -0.010102 0.000000 0.000000 0.000000
# 2 -0.005275 0.033476 -0.006471 0.000000 0.000000 0.000000
# 3 -0.010102 -0.006471 0.012711 0.000000 0.000000 0.000000
# 4 0.000000 0.000000 0.000000 0.055879 0.000000 0.000000
# 5 0.000000 0.000000 0.000000 0.000000 0.038437 0.000000
# 6 0.000000 0.000000 0.000000 0.000000 0.000000 0.080673
#
#
# Mechanical properties :
#
#
# Convention : Reuss Voigt Hill
#
# Bulk Modulus (GPa) = 27.44467 43.81752 35.63110
# Shear Modulus (GPa) = 16.07911 19.38900 17.73405
#
# Velocity S-wave (km/s) = 3.33307 3.66008 3.50040
# Velocity P-wave (km/s) = 5.81158 6.93800 6.39962
#
# Compressibility (1/GPa) = 0.03643694
#
# Stress axis : x y z
#
# Youngs Moduli (GPa) = 29.45880 29.87201 78.67330
#
# Poissons Ratio (x) = 0.15757 0.79478
# Poissons Ratio (y) = 0.15540 0.50906
# Poissons Ratio (z) = 0.29760 0.19329
#
# Static dielectric constant tensor:
#      x y z
#    x 1.471660 0.000000 0.000000 
#    y 0.000000 1.455720 0.000000 
#    z 0.000000 0.000000 1.527400 
# 
# From -- ./inp_files/34709.got.cif
#   From: 2010.05.17/outbox.cif.g08.bks.cpg/sg71_18_cif.got.tgz:34709.got - 2010.06.03 16:22:01.
