data_PCOD9517698
_publ_section_title
;
Structure prediction by ZEFSAII (Michael W. Deem and Ramdas Pophale) SiO2 
 PCOD9517698
Probable space group: I M M M
;
_chemical_formula_sum "Si O2"
_cell_formula_units_Z 88
_cell_length_a 18.245098
_cell_length_b 20.537951
_cell_length_c 14.252764
_cell_angle_alpha 90.000000
_cell_angle_beta 90.000000
_cell_angle_gamma 90.000000
_cell_volume 5340.751952
_symmetry_space_group_name_H-M "I M M M"
_symmetry_group_IT_number 71
_symmetry_cell_setting 'orthorhombic'
loop_
_space_group_symop_operation_xyz
x,y,z
-x,-y,z
x,-y,-z
-x,y,-z
-x,-y,-z
x,y,-z
-x,y,z
x,-y,z
1/2+x,1/2+y,1/2+z
1/2-x,1/2-y,1/2+z
1/2+x,1/2-y,1/2-z
1/2-x,1/2+y,1/2-z
1/2-x,1/2-y,1/2-z
1/2+x,1/2+y,1/2-z
1/2-x,1/2+y,1/2+z
1/2+x,1/2-y,1/2+z
loop_
_atom_site_type_symbol
_atom_site_label
_atom_site_fract_x
_atom_site_fract_y
_atom_site_fract_z
Si Si1 0.413146 0.206930 0.203497
Si Si2 0.140384 0.837461 0.386387
Si Si3 0.770939 0.428408 0.886931
Si Si4 0.411366 0.071591 0.889142
Si Si5 0.000000 0.074747 0.386411
Si Si6 0.416895 0.855823 0.608596
O O1 0.500000 0.214057 0.179973
O O2 0.371558 0.267476 0.159542
O O3 0.387289 0.137015 0.163130
O O4 0.406840 0.201045 0.315766
O O5 0.140221 0.830354 0.500000
O O6 0.214932 0.872927 0.355240
O O7 0.072423 0.884702 0.360541
O O8 0.753555 0.500000 0.849384
O O9 0.854964 0.408997 0.871601
O O10 0.761349 0.431115 0.000000
O O11 0.500000 0.070659 0.880433
O O12 0.384960 0.000000 0.856366
O O13 0.394887 0.077100 0.000000
O O14 0.000000 0.071662 0.500000
O O15 0.000000 0.000000 0.352422
O O16 0.409209 0.835524 0.500000
O O17 0.500000 0.881103 0.621736
#
# Coordination Sequence:
#
# PCOD9517698 Si02
#       6
#    16  16  16  16   8  16
#     4  10  18  28  45  68  94 122 158 197 232 277
#     4  10  18  28  45  71 101 129 153 182 225 282
#     4   9  18  32  48  67  94 126 157 191 234 284
#     4   8  14  24  38  58  87 122 155 187 225 271
#     4   9  16  26  42  66  98 132 156 175 210 268
#     4   9  19  34  49  65  87 118 160 210 249 276
#
# _framework density 16.477080999999998
#
# number of rings (size 3 to 8) (size 9 to 14) (size 15 to 20)
#    0.000    2.818    0.909    1.636    0.000    4.727 
#    0.000    3.636    0.000    0.000    0.000    0.000 
#    0.000    5.091    0.000    0.000    0.000    0.000 
#
# Total GULP energy -245001.488076 kJ/mol
# GULP energy per Si atom -5568.215638 kJ/mol
# Density = 1.643958 g / cm^3
# Si number density = 16.477081 Si / 1000 Ang^3
#
#
#
# Elastic Constant Matrix: (Units=GPa)
#
#
# Indices 1 2 3 4 5 6 
#
# 1 67.2245 55.2140 24.7225 0.0000 0.0000 0.0000
# 2 55.2140 154.0976 49.6851 0.0000 0.0000 0.0000
# 3 24.7225 49.6851 45.6607 0.0000 0.0000 0.0000
# 4 0.0000 0.0000 0.0000 9.0478 0.0000 0.0000
# 5 0.0000 0.0000 0.0000 0.0000 9.4826 0.0000
# 6 0.0000 0.0000 0.0000 0.0000 0.0000 12.3273
#
#
#
# Elastic Compliance Matrix: (Units=1/GPa)
#
#
# Indices 1 2 3 4 5 6 
#
# 1 0.021822 -0.006176 -0.005095 0.000000 0.000000 0.000000
# 2 -0.006176 0.011745 -0.009436 0.000000 0.000000 0.000000
# 3 -0.005095 -0.009436 0.034927 0.000000 0.000000 0.000000
# 4 0.000000 0.000000 0.000000 0.110525 0.000000 0.000000
# 5 0.000000 0.000000 0.000000 0.000000 0.105456 0.000000
# 6 0.000000 0.000000 0.000000 0.000000 0.000000 0.081120
#
#
# Mechanical properties :
#
#
# Convention : Reuss Voigt Hill
#
# Bulk Modulus (GPa) = 36.92784 58.46955 47.69870
# Shear Modulus (GPa) = 12.01824 15.32896 13.67360
#
# Velocity S-wave (km/s) = 2.70365 3.05342 2.88385
# Velocity P-wave (km/s) = 5.67509 6.92774 6.33247
#
# Compressibility (1/GPa) = 0.02707984
#
# Stress axis : x y z
#
# Youngs Moduli (GPa) = 45.82549 85.14444 28.63148
#
# Poissons Ratio (x) = 0.52588 0.14587
# Poissons Ratio (y) = 0.28303 0.27016
# Poissons Ratio (z) = 0.23346 0.80341
#
# Static dielectric constant tensor:
#      x y z
#    x 1.570700 0.000000 0.000000 
#    y 0.000000 1.551380 0.000000 
#    z 0.000000 0.000000 1.565790 
# 
# From -- ./inp_files/36381.got.cif
#   From: 2010.05.17/outbox.cif.g08.bks.cpg/sg71_19_cif.got.tgz:36381.got - 2010.06.03 16:22:01.
