data_PCOD9517186
_publ_section_title
;
Structure prediction by ZEFSAII (Michael W. Deem and Ramdas Pophale) SiO2 
 PCOD9517186
Probable space group: F D D D
;
_chemical_formula_sum "Si O2"
_cell_formula_units_Z 48
_cell_length_a 24.000000
_cell_length_b 30.000000
_cell_length_c 15.000000
_cell_angle_alpha 90.000000
_cell_angle_beta 90.000000
_cell_angle_gamma 90.000000
_cell_volume 10800.000000
_symmetry_space_group_name_H-M "F D D D"
_symmetry_group_IT_number 70
_space_group.IT_coordinate_system_code '2'
_symmetry_cell_setting 'orthorhombic'
loop_
_space_group_symop_operation_xyz
x,y,z
1/4-x,1/4-y,z
x,1/4-y,1/4-z
1/4-x,y,1/4-z
-x,-y,-z
3/4+x,3/4+y,-z
-x,3/4+y,3/4+z
3/4+x,-y,3/4+z
x,1/2+y,1/2+z
1/4-x,3/4-y,1/2+z
x,3/4-y,3/4-z
1/4-x,1/2+y,3/4-z
-x,1/2-y,1/2-z
3/4+x,1/4+y,1/2-z
-x,1/4+y,1/4+z
3/4+x,1/2-y,1/4+z
1/2+x,y,1/2+z
3/4-x,1/4-y,1/2+z
1/2+x,1/4-y,3/4-z
3/4-x,y,3/4-z
1/2-x,-y,1/2-z
1/4+x,3/4+y,1/2-z
1/2-x,3/4+y,1/4+z
1/4+x,-y,1/4+z
1/2+x,1/2+y,z
3/4-x,3/4-y,z
1/2+x,3/4-y,1/4-z
3/4-x,1/2+y,1/4-z
1/2-x,1/2-y,-z
1/4+x,1/4+y,-z
1/2-x,1/4+y,3/4+z
1/4+x,1/2-y,3/4+z
loop_
_atom_site_type_symbol
_atom_site_label
_atom_site_fract_x
_atom_site_fract_y
_atom_site_fract_z
Si Si1 0.172678 0.763800 0.051587
Si Si2 0.231531 0.076423 0.756545
Si Si3 0.932232 0.125000 0.625000
Si Si4 0.382284 0.297134 0.736301
Si Si5 0.353805 0.042404 0.126359
Si Si6 0.375000 0.375000 0.595293
Si Si7 0.778258 0.321181 0.362535
O O1 0.125000 0.764978 0.125000
O O2 0.224025 0.798558 0.068349
O O3 0.200367 0.714730 0.043369
O O4 0.138310 0.776288 0.961529
O O5 0.274711 0.105352 0.697939
O O6 0.180960 0.107414 0.793702
O O7 0.889434 0.086021 0.655890
O O8 0.387813 0.247609 0.696627
O O9 0.390242 0.333145 0.657847
O O10 0.433317 0.303970 0.805388
O O11 0.320956 0.307886 0.780685
O O12 0.286722 0.053049 0.110935
O O13 0.775144 0.375000 0.375000
#
# Coordination Sequence:
#
# PCOD9517186 Si02
#       7
#    32  32  16  32  32  16  32
#     4  10  23  40  63  91 125 169 208 254 317 372
#     4  10  24  40  60  94 123 163 212 258 308 372
#     4  10  24  43  62  89 130 164 212 258 320 374
#     4  11  23  40  65  97 123 165 216 255 315 381
#     4  11  23  42  66  92 127 169 208 263 315 376
#     4  12  22  38  62  94 124 160 212 264 305 365
#     4  11  22  41  68  93 128 168 206 265 323 377
#
# _framework density 4.4444439999999998
#
# number of rings (size 3 to 8) (size 9 to 14) (size 15 to 20)
#    0.000    1.333    4.167    1.000    4.667    1.333 
#    0.000    0.000    3.667    0.000    0.000    0.000 
#    0.000    0.000    0.000    0.000    0.000    0.000 
#
# Total GULP energy -267316.017381 kJ/mol
# GULP energy per Si atom -5569.083695 kJ/mol
# Density = 0.443433 g / cm^3
# Si number density = 4.444444 Si / 1000 Ang^3
#
#
#
# Elastic Constant Matrix: (Units=GPa)
#
#
# Indices 1 2 3 4 5 6 
#
# 1 195.5786 72.1617 50.7313 0.0000 0.0000 0.0000
# 2 72.1617 160.1586 50.3077 0.0000 0.0000 0.0000
# 3 50.7313 50.3077 58.5180 0.0000 0.0000 0.0000
# 4 0.0000 0.0000 0.0000 22.6894 0.0000 0.0000
# 5 0.0000 0.0000 0.0000 0.0000 39.1052 0.0000
# 6 0.0000 0.0000 0.0000 0.0000 0.0000 48.5817
#
#
#
# Elastic Compliance Matrix: (Units=1/GPa)
#
#
# Indices 1 2 3 4 5 6 
#
# 1 0.006914 -0.001688 -0.004543 0.000000 0.000000 0.000000
# 2 -0.001688 0.008966 -0.006244 0.000000 0.000000 0.000000
# 3 -0.004543 -0.006244 0.026395 0.000000 0.000000 0.000000
# 4 0.000000 0.000000 0.000000 0.044073 0.000000 0.000000
# 5 0.000000 0.000000 0.000000 0.000000 0.025572 0.000000
# 6 0.000000 0.000000 0.000000 0.000000 0.000000 0.020584
#
#
# Mechanical properties :
#
#
# Convention : Reuss Voigt Hill
#
# Bulk Modulus (GPa) = 57.72128 84.51740 71.11934
# Shear Modulus (GPa) = 30.63151 38.14556 34.38853
#
# Velocity S-wave (km/s) = 4.15543 4.63718 4.40290
# Velocity P-wave (km/s) = 7.45401 8.73588 8.12027
#
# Compressibility (1/GPa) = 0.01732463
#
# Stress axis : x y z
#
# Youngs Moduli (GPa) = 144.62668 111.53326 37.88573
#
# Poissons Ratio (x) = 0.18832 0.17211
# Poissons Ratio (y) = 0.24419 0.23657
# Poissons Ratio (z) = 0.65700 0.69644
#
# Static dielectric constant tensor:
#      x y z
#    x 1.586510 0.000000 0.000000 
#    y 0.000000 1.620290 0.000000 
#    z 0.000000 0.000000 1.654230 
# 
# From -- ./inp_files/29102.got.cif
#   From: 2010.05.17/outbox.ucp.g08.bks.cvg/sg70_15_cif.got.tgz:29102.got - 2010.06.11 16:26:41.
