data_PCOD9517409
_publ_section_title
;
Structure prediction by ZEFSAII (Michael W. Deem and Ramdas Pophale) SiO2 
 PCOD9517409
Probable space group: I M M M
;
_chemical_formula_sum "Si O2"
_cell_formula_units_Z 96
_cell_length_a 7.317183
_cell_length_b 29.183718
_cell_length_c 21.208596
_cell_angle_alpha 90.000000
_cell_angle_beta 90.000000
_cell_angle_gamma 90.000000
_cell_volume 4528.938843
_symmetry_space_group_name_H-M "I M M M"
_symmetry_group_IT_number 71
_symmetry_cell_setting 'orthorhombic'
loop_
_space_group_symop_operation_xyz
x,y,z
-x,-y,z
x,-y,-z
-x,y,-z
-x,-y,-z
x,y,-z
-x,y,z
x,-y,z
1/2+x,1/2+y,1/2+z
1/2-x,1/2-y,1/2+z
1/2+x,1/2-y,1/2-z
1/2-x,1/2+y,1/2-z
1/2-x,1/2-y,1/2-z
1/2+x,1/2+y,1/2-z
1/2-x,1/2+y,1/2+z
1/2+x,1/2-y,1/2+z
loop_
_atom_site_type_symbol
_atom_site_label
_atom_site_fract_x
_atom_site_fract_y
_atom_site_fract_z
Si Si1 0.289966 0.082462 0.298878
Si Si2 0.221239 0.188460 0.712776
Si Si3 0.790861 0.275851 0.647403
Si Si4 0.716510 0.945234 0.432657
Si Si5 0.223310 0.636054 0.572927
Si Si6 0.723048 0.051819 0.161950
O O1 0.500000 0.065592 0.300444
O O2 0.285600 0.137146 0.296247
O O3 0.204855 0.069771 0.365863
O O4 0.214501 0.062935 0.233307
O O5 0.285518 0.224928 0.659925
O O6 0.287372 0.203933 0.781688
O O7 0.000000 0.189491 0.713729
O O8 0.712725 0.315676 0.603081
O O9 0.000000 0.269500 0.626453
O O10 0.789850 0.927832 0.500000
O O11 0.500000 0.933367 0.432183
O O12 0.730087 0.000000 0.433815
O O13 0.275884 0.631640 0.500000
O O14 0.281385 0.592556 0.615141
O O15 0.000000 0.636630 0.575519
O O16 0.500000 0.053107 0.162157
O O17 0.776251 0.000000 0.144043
#
# Coordination Sequence:
#
# PCOD9517409 Si02
#       6
#    16  16  16  16  16  16
#     4  10  17  28  47  70  97 125 152 189 236 280
#     4  10  19  29  47  71  94 118 152 194 232 272
#     4   9  17  32  49  68  91 119 155 190 229 276
#     4   8  14  25  43  68  94 121 157 197 234 274
#     4   9  16  27  45  68  95 124 153 190 235 278
#     4   9  16  25  41  68  96 120 153 195 233 269
#
# _framework density 21.197019000000001
#
# number of rings (size 3 to 8) (size 9 to 14) (size 15 to 20)
#    0.000    2.833    1.667    1.500    0.000    3.000 
#    0.000    2.500    0.000    4.000    0.000    1.167 
#    0.000    1.333    0.000    0.000    0.000    0.000 
#
# Total GULP energy -267580.702673 kJ/mol
# GULP energy per Si atom -5574.597972 kJ/mol
# Density = 2.114877 g / cm^3
# Si number density = 21.197019 Si / 1000 Ang^3
#
#
#
# Elastic Constant Matrix: (Units=GPa)
#
#
# Indices 1 2 3 4 5 6 
#
# 1 87.1865 -5.6974 -1.8942 0.0000 0.0000 0.0000
# 2 -5.6974 69.8484 35.7357 0.0000 0.0000 0.0000
# 3 -1.8942 35.7357 132.8585 0.0000 0.0000 0.0000
# 4 0.0000 0.0000 0.0000 14.9929 0.0000 0.0000
# 5 0.0000 0.0000 0.0000 0.0000 -11.8565 0.0000
# 6 0.0000 0.0000 0.0000 0.0000 0.0000 -272.4874
#
#
#
# Elastic Compliance Matrix: (Units=1/GPa)
#
#
# Indices 1 2 3 4 5 6 
#
# 1 0.011532 0.000993 -0.000103 0.000000 0.000000 0.000000
# 2 0.000993 0.016687 -0.004474 0.000000 0.000000 0.000000
# 3 -0.000103 -0.004474 0.008729 0.000000 0.000000 0.000000
# 4 0.000000 0.000000 0.000000 0.066698 0.000000 0.000000
# 5 0.000000 0.000000 0.000000 0.000000 -0.084342 0.000000
# 6 0.000000 0.000000 0.000000 0.000000 0.000000 -0.003670
#
#
# Mechanical properties :
#
#
# Convention : Reuss Voigt Hill
#
# Bulk Modulus (GPa) = 33.57896 38.46463 36.02179
# Shear Modulus (GPa) = 152.77049 -36.42025 58.17512
#
# Velocity S-wave (km/s) = 8.49871 -4.14959 5.24448
# Velocity P-wave (km/s) = 10.59150 2.18475 7.32826
#
# Compressibility (1/GPa) = 0.02978056
#
# Stress axis : x y z
#
# Youngs Moduli (GPa) = 86.71269 59.92756 114.56340
#
# Poissons Ratio (x) = -0.05952 0.01177
# Poissons Ratio (y) = -0.08613 0.51258
# Poissons Ratio (z) = 0.00891 0.26813
#
# Static dielectric constant tensor:
#      x y z
#    x 1.846450 0.000000 0.000000 
#    y 0.000000 1.749430 0.000000 
#    z 0.000000 0.000000 1.751430 
# 
# From -- ./inp_files/14822.got.cif
#   From: 2010.05.17/outbox.cif.g08.bks.cpg/sg71_8_cif.got.tgz:14822.got - 2010.06.03 16:22:01.
