data_PCOD9517639
_publ_section_title
;
Structure prediction by ZEFSAII (Michael W. Deem and Ramdas Pophale) SiO2 
 PCOD9517639
Probable space group: I M M M
;
_chemical_formula_sum "Si O2"
_cell_formula_units_Z 96
_cell_length_a 15.356285
_cell_length_b 30.783616
_cell_length_c 14.062156
_cell_angle_alpha 90.000000
_cell_angle_beta 90.000000
_cell_angle_gamma 90.000000
_cell_volume 6647.490236
_symmetry_space_group_name_H-M "I M M M"
_symmetry_group_IT_number 71
_symmetry_cell_setting 'orthorhombic'
loop_
_space_group_symop_operation_xyz
x,y,z
-x,-y,z
x,-y,-z
-x,y,-z
-x,-y,-z
x,y,-z
-x,y,z
x,-y,z
1/2+x,1/2+y,1/2+z
1/2-x,1/2-y,1/2+z
1/2+x,1/2-y,1/2-z
1/2-x,1/2+y,1/2-z
1/2-x,1/2-y,1/2-z
1/2+x,1/2+y,1/2-z
1/2-x,1/2+y,1/2+z
1/2+x,1/2-y,1/2+z
loop_
_atom_site_type_symbol
_atom_site_label
_atom_site_fract_x
_atom_site_fract_y
_atom_site_fract_z
Si Si1 0.165388 0.770461 0.107920
Si Si2 0.100352 0.625381 0.748274
Si Si3 0.366075 0.204726 0.890680
Si Si4 0.095484 0.798746 0.695315
Si Si5 0.725884 0.828925 0.387713
Si Si6 0.894280 0.549907 0.392684
O O1 0.260936 0.792249 0.113995
O O2 0.108542 0.789354 0.192757
O O3 0.183127 0.719173 0.125134
O O4 0.132283 0.775746 0.000000
O O5 0.102363 0.666511 0.676850
O O6 0.164381 0.637409 0.833738
O O7 0.131990 0.584107 0.687136
O O8 0.000000 0.618687 0.778913
O O9 0.398268 0.251695 0.855825
O O10 0.391302 0.197486 0.000000
O O11 0.177806 0.825657 0.657086
O O12 0.000000 0.817501 0.676694
O O13 0.731888 0.836688 0.500000
O O14 0.865875 0.562079 0.500000
O O15 0.868093 0.500000 0.374633
O O16 0.000000 0.550732 0.393690
#
# Coordination Sequence:
#
# PCOD9517639 Si02
#       6
#    16  16  16  16  16  16
#     4   9  17  30  44  57  83 118 147 183 228 263
#     4  11  19  28  45  66  88 116 148 180 216 255
#     4  10  18  28  42  61  85 112 148 189 219 249
#     4  11  19  30  45  60  84 118 153 188 226 259
#     4  10  20  33  44  59  86 115 151 191 224 260
#     4   8  15  28  45  67  94 118 139 169 214 267
#
# _framework density 14.44154
#
# number of rings (size 3 to 8) (size 9 to 14) (size 15 to 20)
#    0.000    2.167    3.333    4.000    0.000    3.667 
#    0.000    1.667    0.000    0.500    0.000    2.333 
#    0.000    0.667    0.000    3.333    0.000    0.167 
#
# Total GULP energy -267622.455021 kJ/mol
# GULP energy per Si atom -5575.467813 kJ/mol
# Density = 1.440867 g / cm^3
# Si number density = 14.441540 Si / 1000 Ang^3
#
#
#
# Elastic Constant Matrix: (Units=GPa)
#
#
# Indices 1 2 3 4 5 6 
#
# 1 65.9480 25.7300 46.8937 0.0000 0.0000 0.0000
# 2 25.7300 43.4562 29.6177 0.0000 0.0000 0.0000
# 3 46.8937 29.6177 99.3538 0.0000 0.0000 0.0000
# 4 0.0000 0.0000 0.0000 21.9649 0.0000 0.0000
# 5 0.0000 0.0000 0.0000 0.0000 6.8014 0.0000
# 6 0.0000 0.0000 0.0000 0.0000 0.0000 6.2024
#
#
#
# Elastic Compliance Matrix: (Units=1/GPa)
#
#
# Indices 1 2 3 4 5 6 
#
# 1 0.025109 -0.008521 -0.009311 0.000000 0.000000 0.000000
# 2 -0.008521 0.031771 -0.005449 0.000000 0.000000 0.000000
# 3 -0.009311 -0.005449 0.016084 0.000000 0.000000 0.000000
# 4 0.000000 0.000000 0.000000 0.045527 0.000000 0.000000
# 5 0.000000 0.000000 0.000000 0.000000 0.147028 0.000000
# 6 0.000000 0.000000 0.000000 0.000000 0.000000 0.161227
#
#
# Mechanical properties :
#
#
# Convention : Reuss Voigt Hill
#
# Bulk Modulus (GPa) = 37.87647 45.91565 41.89606
# Shear Modulus (GPa) = 10.37114 14.09486 12.23300
#
# Velocity S-wave (km/s) = 2.68273 3.12748 2.91360
# Velocity P-wave (km/s) = 5.99003 6.70110 6.35551
#
# Compressibility (1/GPa) = 0.02640161
#
# Stress axis : x y z
#
# Youngs Moduli (GPa) = 39.82707 31.47557 62.17319
#
# Poissons Ratio (x) = 0.26819 0.57889
# Poissons Ratio (y) = 0.33935 0.33880
# Poissons Ratio (z) = 0.37082 0.17152
#
# Static dielectric constant tensor:
#      x y z
#    x 1.488190 0.000000 0.000000 
#    y 0.000000 1.450430 0.000000 
#    z 0.000000 0.000000 1.497720 
# 
# From -- ./inp_files/35255.got.cif
#   From: 2010.05.17/outbox.cif.g08.bks.cpg/sg71_18_cif.got.tgz:35255.got - 2010.06.03 16:22:01.
