data_PCOD9517385
_publ_section_title
;
Structure prediction by ZEFSAII (Michael W. Deem and Ramdas Pophale) SiO2 
 PCOD9517385
Probable space group: I M M M
;
_chemical_formula_sum "Si O2"
_cell_formula_units_Z 96
_cell_length_a 27.805349
_cell_length_b 7.524547
_cell_length_c 24.143959
_cell_angle_alpha 90.000000
_cell_angle_beta 90.000000
_cell_angle_gamma 90.000000
_cell_volume 5051.463214
_symmetry_space_group_name_H-M "I M M M"
_symmetry_group_IT_number 71
_symmetry_cell_setting 'orthorhombic'
loop_
_space_group_symop_operation_xyz
x,y,z
-x,-y,z
x,-y,-z
-x,y,-z
-x,-y,-z
x,y,-z
-x,y,z
x,-y,z
1/2+x,1/2+y,1/2+z
1/2-x,1/2-y,1/2+z
1/2+x,1/2-y,1/2-z
1/2-x,1/2+y,1/2-z
1/2-x,1/2-y,1/2-z
1/2+x,1/2+y,1/2-z
1/2-x,1/2+y,1/2+z
1/2+x,1/2-y,1/2+z
loop_
_atom_site_type_symbol
_atom_site_label
_atom_site_fract_x
_atom_site_fract_y
_atom_site_fract_z
Si Si1 0.851698 0.281333 0.710645
Si Si2 0.446763 0.212047 0.726754
Si Si3 0.888825 0.787381 0.879433
Si Si4 0.794345 0.298956 0.611563
Si Si5 0.133338 0.216553 0.000000
Si Si6 0.745758 0.718778 0.500000
Si Si7 0.292689 0.204298 0.685310
O O1 0.851224 0.500000 0.711032
O O2 0.903082 0.221874 0.734567
O O3 0.836588 0.220251 0.649574
O O4 0.811321 0.226465 0.755623
O O5 0.500000 0.283483 0.737818
O O6 0.431171 0.242747 0.663122
O O7 0.448092 0.000000 0.734922
O O8 0.840242 0.710767 0.852776
O O9 0.883395 0.000000 0.879447
O O10 0.891663 0.726685 0.942910
O O11 0.809142 0.500000 0.597534
O O12 0.773635 0.219531 0.555017
O O13 0.749151 0.304152 0.653530
O O14 0.189635 0.271767 0.000000
O O15 0.133328 0.000000 0.000000
O O16 0.744783 0.500000 0.500000
O O17 0.277658 0.000000 0.691281
#
# Coordination Sequence:
#
# PCOD9517385 Si02
#       7
#    16  16  16  16   8   8  16
#     4   8  16  28  44  65  85 111 146 179 218 266
#     4   9  18  34  51  67  89 111 137 183 236 277
#     4  10  18  30  48  66  87 117 154 188 215 253
#     4  10  17  28  44  62  87 118 152 183 210 251
#     4   9  16  28  43  63  88 118 155 184 213 246
#     4   9  16  26  42  63  88 120 154 182 209 242
#     4  10  18  28  41  63  93 119 147 179 218 262
#
# _framework density 19.004394999999999
#
# number of rings (size 3 to 8) (size 9 to 14) (size 15 to 20)
#    0.000    2.667    1.667    2.500    0.000    0.333 
#    0.000    6.667    0.000    2.500    0.000    0.583 
#    0.000    4.667    0.000    0.000    0.000    9.500 
#
# Total GULP energy -267673.358006 kJ/mol
# GULP energy per Si atom -5576.528292 kJ/mol
# Density = 1.896114 g / cm^3
# Si number density = 19.004395 Si / 1000 Ang^3
#
#
#
# Elastic Constant Matrix: (Units=GPa)
#
#
# Indices 1 2 3 4 5 6 
#
# 1 96.1007 3.8064 64.1319 0.0000 0.0000 0.0000
# 2 3.8064 55.5150 -0.7887 0.0000 0.0000 0.0000
# 3 64.1319 -0.7887 95.1181 0.0000 0.0000 0.0000
# 4 0.0000 0.0000 0.0000 7.4054 0.0000 0.0000
# 5 0.0000 0.0000 0.0000 0.0000 9.9460 0.0000
# 6 0.0000 0.0000 0.0000 0.0000 0.0000 7.9994
#
#
#
# Elastic Compliance Matrix: (Units=1/GPa)
#
#
# Indices 1 2 3 4 5 6 
#
# 1 0.019040 -0.001488 -0.012850 0.000000 0.000000 0.000000
# 2 -0.001488 0.018132 0.001154 0.000000 0.000000 0.000000
# 3 -0.012850 0.001154 0.019186 0.000000 0.000000 0.000000
# 4 0.000000 0.000000 0.000000 0.135036 0.000000 0.000000
# 5 0.000000 0.000000 0.000000 0.000000 0.100543 0.000000
# 6 0.000000 0.000000 0.000000 0.000000 0.000000 0.125009
#
#
# Mechanical properties :
#
#
# Convention : Reuss Voigt Hill
#
# Bulk Modulus (GPa) = 33.34470 42.33700 37.84085
# Shear Modulus (GPa) = 11.02998 17.04245 14.03622
#
# Velocity S-wave (km/s) = 2.41174 2.99785 2.72063
# Velocity P-wave (km/s) = 5.03381 5.85736 5.46113
#
# Compressibility (1/GPa) = 0.02998977
#
# Stress axis : x y z
#
# Youngs Moduli (GPa) = 52.52172 55.15243 52.12016
#
# Poissons Ratio (x) = 0.08207 0.66972
# Poissons Ratio (y) = 0.07815 -0.06013
# Poissons Ratio (z) = 0.67488 -0.06362
#
# Static dielectric constant tensor:
#      x y z
#    x 1.651310 0.000000 0.000000 
#    y 0.000000 1.739790 0.000000 
#    z 0.000000 0.000000 1.689480 
# 
# From -- ./inp_files/61874.got.cif
#   From: 2010.05.17/outbox.cif.g08.bks.cpg/sg71_31_cif.got.tgz:61874.got - 2010.06.03 16:22:01.
