data_PCOD9517323
_publ_section_title
;
Structure prediction by ZEFSAII (Michael W. Deem and Ramdas Pophale) SiO2 
 PCOD9517323
Probable space group: I M M M
;
_chemical_formula_sum "Si O2"
_cell_formula_units_Z 64
_cell_length_a 18.891334
_cell_length_b 27.467674
_cell_length_c 8.555849
_cell_angle_alpha 90.000000
_cell_angle_beta 90.000000
_cell_angle_gamma 90.000000
_cell_volume 4439.638634
_symmetry_space_group_name_H-M "I M M M"
_symmetry_group_IT_number 71
_symmetry_cell_setting 'orthorhombic'
loop_
_space_group_symop_operation_xyz
x,y,z
-x,-y,z
x,-y,-z
-x,y,-z
-x,-y,-z
x,y,-z
-x,y,z
x,-y,z
1/2+x,1/2+y,1/2+z
1/2-x,1/2-y,1/2+z
1/2+x,1/2-y,1/2-z
1/2-x,1/2+y,1/2-z
1/2-x,1/2-y,1/2-z
1/2+x,1/2+y,1/2-z
1/2-x,1/2+y,1/2+z
1/2+x,1/2-y,1/2+z
loop_
_atom_site_type_symbol
_atom_site_label
_atom_site_fract_x
_atom_site_fract_y
_atom_site_fract_z
Si Si1 0.331274 0.851852 0.687846
Si Si2 0.793697 0.203423 0.186202
Si Si3 0.582362 0.758892 0.812655
Si Si4 0.418714 0.944934 0.309633
O O1 0.328341 0.850654 0.500000
O O2 0.252964 0.841554 0.753799
O O3 0.382080 0.807752 0.743375
O O4 0.365968 0.902533 0.741161
O O5 0.750000 0.250000 0.250000
O O6 0.871943 0.213191 0.251165
O O7 0.794307 0.204416 0.000000
O O8 0.500000 0.756211 0.769685
O O9 0.588573 0.761029 0.000000
O O10 0.418328 0.944734 0.500000
O O11 0.500000 0.934601 0.261937
O O12 0.400712 0.000000 0.259819
#
# Coordination Sequence:
#
# PCOD9517323 Si02
#       4
#    16  16  16  16
#     4  10  17  26  42  60  80 107 138 168 199 235
#     4  10  18  28  41  56  78 105 134 166 198 236
#     4  10  19  29  41  58  81 106 133 166 201 238
#     4   8  14  24  38  58  82 106 135 170 201 228
#
# _framework density 14.415587
#
# number of rings (size 3 to 8) (size 9 to 14) (size 15 to 20)
#    0.000    2.500    0.000    8.250    0.000    3.000 
#    0.000    0.000    0.000    3.000    0.000    8.750 
#    0.000    1.000    0.000   11.500    0.000    3.250 
#
# Total GULP energy -178264.319733 kJ/mol
# GULP energy per Si atom -5570.759992 kJ/mol
# Density = 1.438278 g / cm^3
# Si number density = 14.415587 Si / 1000 Ang^3
#
#
#
# Elastic Constant Matrix: (Units=GPa)
#
#
# Indices 1 2 3 4 5 6 
#
# 1 100.3364 54.1105 31.4912 0.0000 0.0000 0.0000
# 2 54.1105 87.8847 16.5577 0.0000 0.0000 0.0000
# 3 31.4912 16.5577 55.7207 0.0000 0.0000 0.0000
# 4 0.0000 0.0000 0.0000 12.1573 0.0000 0.0000
# 5 0.0000 0.0000 0.0000 0.0000 19.9467 0.0000
# 6 0.0000 0.0000 0.0000 0.0000 0.0000 29.4108
#
#
#
# Elastic Compliance Matrix: (Units=1/GPa)
#
#
# Indices 1 2 3 4 5 6 
#
# 1 0.017124 -0.009237 -0.006933 0.000000 0.000000 0.000000
# 2 -0.009237 0.017036 0.000158 0.000000 0.000000 0.000000
# 3 -0.006933 0.000158 0.021818 0.000000 0.000000 0.000000
# 4 0.000000 0.000000 0.000000 0.082255 0.000000 0.000000
# 5 0.000000 0.000000 0.000000 0.000000 0.050134 0.000000
# 6 0.000000 0.000000 0.000000 0.000000 0.000000 0.034001
#
#
# Mechanical properties :
#
#
# Convention : Reuss Voigt Hill
#
# Bulk Modulus (GPa) = 41.74659 49.80672 45.77665
# Shear Modulus (GPa) = 19.05665 21.75512 20.40588
#
# Velocity S-wave (km/s) = 3.63980 3.88898 3.76645
# Velocity P-wave (km/s) = 6.83275 7.40210 7.12312
#
# Compressibility (1/GPa) = 0.02395405
#
# Stress axis : x y z
#
# Youngs Moduli (GPa) = 58.39818 58.69938 45.83388
#
# Poissons Ratio (x) = 0.54220 0.31776
# Poissons Ratio (y) = 0.53942 -0.00724
# Poissons Ratio (z) = 0.40487 -0.00928
#
# Static dielectric constant tensor:
#      x y z
#    x 1.490730 0.000000 0.000000 
#    y 0.000000 1.469790 0.000000 
#    z 0.000000 0.000000 1.493790 
# 
# From -- ./inp_files/8087.got.cif
#   From: 2010.05.17/outbox.cif.g08.bks.cpg/sg71_5_cif.got.tgz:8087.got - 2010.06.03 16:22:01.
