data_PCOD9517958
_publ_section_title
;
Structure prediction by ZEFSAII (Michael W. Deem and Ramdas Pophale) SiO2 
 PCOD9517958
Probable space group: I M M M
;
_chemical_formula_sum "Si O2"
_cell_formula_units_Z 120
_cell_length_a 14.083546
_cell_length_b 23.014193
_cell_length_c 23.216211
_cell_angle_alpha 90.000000
_cell_angle_beta 90.000000
_cell_angle_gamma 90.000000
_cell_volume 7524.871875
_symmetry_space_group_name_H-M "I M M M"
_symmetry_group_IT_number 71
_symmetry_cell_setting 'orthorhombic'
loop_
_space_group_symop_operation_xyz
x,y,z
-x,-y,z
x,-y,-z
-x,y,-z
-x,-y,-z
x,y,-z
-x,y,z
x,-y,z
1/2+x,1/2+y,1/2+z
1/2-x,1/2-y,1/2+z
1/2+x,1/2-y,1/2-z
1/2-x,1/2+y,1/2-z
1/2-x,1/2-y,1/2-z
1/2+x,1/2+y,1/2-z
1/2-x,1/2+y,1/2+z
1/2+x,1/2-y,1/2+z
loop_
_atom_site_type_symbol
_atom_site_label
_atom_site_fract_x
_atom_site_fract_y
_atom_site_fract_z
Si Si1 0.113151 0.062650 0.104595
Si Si2 0.388372 0.430423 0.171961
Si Si3 0.115326 0.500000 0.565707
Si Si4 0.105457 0.810354 0.066606
Si Si5 0.261652 0.432501 0.281342
Si Si6 0.612714 0.114236 0.860884
Si Si7 0.114133 0.148981 0.435243
Si Si8 0.692577 0.777373 0.069380
O O1 0.130910 0.121149 0.069624
O O2 0.163792 0.068522 0.165878
O O3 0.000000 0.060943 0.112779
O O4 0.141594 0.000000 0.078827
O O5 0.500000 0.417319 0.185009
O O6 0.382688 0.500000 0.163784
O O7 0.318831 0.414667 0.224472
O O8 0.359725 0.396336 0.114340
O O9 0.149203 0.500000 0.500000
O O10 0.141960 0.441781 0.600135
O O11 0.000000 0.500000 0.563876
O O12 0.197724 0.778193 0.090006
O O13 0.000000 0.802079 0.092754
O O14 0.098394 0.793589 0.000000
O O15 0.230655 0.500000 0.274447
O O16 0.174019 0.393598 0.302863
O O17 0.500000 0.111656 0.850899
O O18 0.638818 0.172144 0.896018
O O19 0.147650 0.133540 0.500000
O O20 0.149211 0.213900 0.421897
O O21 0.000000 0.150117 0.436732
O O22 0.688911 0.789565 0.000000
#
# Coordination Sequence:
#
# PCOD9517958 Si02
#       8
#    16  16   8  16  16  16  16  16
#     4   9  16  26  41  60  84 117 159 207 252 289
#     4   9  18  33  55  81 104 125 154 193 240 301
#     4   9  18  30  42  60  87 123 176 229 257 275
#     4   9  17  28  42  62  89 123 165 209 248 285
#     4  10  18  30  46  67  94 127 165 202 243 288
#     4  11  20  30  44  65  94 134 178 217 253 284
#     4   9  18  33  54  80 106 129 153 187 240 304
#     4  10  19  32  49  69  96 133 170 206 252 300
#
# _framework density 15.947115
#
# number of rings (size 3 to 8) (size 9 to 14) (size 15 to 20)
#    0.000    2.467    2.000    1.200    0.000    3.467 
#    0.000    3.333    0.000    0.800    0.000    0.000 
#    0.000    0.000    0.000    8.133    0.000    0.267 
#
# Total GULP energy -334168.061605 kJ/mol
# GULP energy per Si atom -5569.467693 kJ/mol
# Density = 1.591082 g / cm^3
# Si number density = 15.947115 Si / 1000 Ang^3
#
#
#
# Elastic Constant Matrix: (Units=GPa)
#
#
# Indices 1 2 3 4 5 6 
#
# 1 48.5948 29.4837 47.7103 0.0000 0.0000 0.0000
# 2 29.4837 44.4464 45.0718 0.0000 0.0000 0.0000
# 3 47.7103 45.0718 84.5586 0.0000 0.0000 0.0000
# 4 0.0000 0.0000 0.0000 19.8458 0.0000 0.0000
# 5 0.0000 0.0000 0.0000 0.0000 20.6439 0.0000
# 6 0.0000 0.0000 0.0000 0.0000 0.0000 19.7096
#
#
#
# Elastic Compliance Matrix: (Units=1/GPa)
#
#
# Indices 1 2 3 4 5 6 
#
# 1 0.047913 -0.009509 -0.021966 0.000000 0.000000 0.000000
# 2 -0.009509 0.050854 -0.021741 0.000000 0.000000 0.000000
# 3 -0.021966 -0.021741 0.035808 0.000000 0.000000 0.000000
# 4 0.000000 0.000000 0.000000 0.050389 0.000000 0.000000
# 5 0.000000 0.000000 0.000000 0.000000 0.048440 0.000000
# 6 0.000000 0.000000 0.000000 0.000000 0.000000 0.050737
#
#
# Mechanical properties :
#
#
# Convention : Reuss Voigt Hill
#
# Bulk Modulus (GPa) = 35.53127 46.90349 41.21738
# Shear Modulus (GPa) = 12.50144 15.72880 14.11512
#
# Velocity S-wave (km/s) = 2.80291 3.14396 2.97833
# Velocity P-wave (km/s) = 5.72749 6.53109 6.14244
#
# Compressibility (1/GPa) = 0.02814422
#
# Stress axis : x y z
#
# Youngs Moduli (GPa) = 20.87101 19.66418 27.92651
#
# Poissons Ratio (x) = 0.18698 0.61342
# Poissons Ratio (y) = 0.19846 0.60716
# Poissons Ratio (z) = 0.45844 0.42752
#
# Static dielectric constant tensor:
#      x y z
#    x 1.570730 0.000000 0.000000 
#    y 0.000000 1.526710 0.000000 
#    z 0.000000 0.000000 1.528980 
# 
# From -- ./inp_files/39660.got.cif
#   From: 2010.05.17/outbox.cif.g08.bks.cpg/sg71_20_cif.got.tgz:39660.got - 2010.06.03 16:22:01.
