data_PCOD9517295
_publ_section_title
;
Structure prediction by ZEFSAII (Michael W. Deem and Ramdas Pophale) SiO2 
 PCOD9517295
Probable space group: I M M M
;
_chemical_formula_sum "Si O2"
_cell_formula_units_Z 96
_cell_length_a 16.137201
_cell_length_b 13.203605
_cell_length_c 29.171388
_cell_angle_alpha 90.000000
_cell_angle_beta 90.000000
_cell_angle_gamma 90.000000
_cell_volume 6215.525115
_symmetry_space_group_name_H-M "I M M M"
_symmetry_group_IT_number 71
_symmetry_cell_setting 'orthorhombic'
loop_
_space_group_symop_operation_xyz
x,y,z
-x,-y,z
x,-y,-z
-x,y,-z
-x,-y,-z
x,y,-z
-x,y,z
x,-y,z
1/2+x,1/2+y,1/2+z
1/2-x,1/2-y,1/2+z
1/2+x,1/2-y,1/2-z
1/2-x,1/2+y,1/2-z
1/2-x,1/2-y,1/2-z
1/2+x,1/2+y,1/2-z
1/2-x,1/2+y,1/2+z
1/2+x,1/2-y,1/2+z
loop_
_atom_site_type_symbol
_atom_site_label
_atom_site_fract_x
_atom_site_fract_y
_atom_site_fract_z
Si Si1 0.831416 0.115668 0.241774
Si Si2 0.658400 0.186436 0.199582
Si Si3 0.500000 0.377039 0.414199
Si Si4 0.325514 0.622315 0.550313
Si Si5 0.335358 0.877514 0.098539
Si Si6 0.598421 0.884582 0.000000
Si Si7 0.500000 0.115271 0.742560
Si Si8 0.000000 0.820648 0.808730
O O1 0.747551 0.136934 0.212475
O O2 0.834784 0.198330 0.282379
O O3 0.915845 0.133011 0.212871
O O4 0.829006 0.000000 0.257733
O O5 0.639065 0.173207 0.145935
O O6 0.582804 0.135184 0.227407
O O7 0.500000 0.500000 0.414557
O O8 0.417282 0.341870 0.439287
O O9 0.500000 0.341582 0.362247
O O10 0.296982 0.656731 0.500000
O O11 0.327782 0.500000 0.548893
O O12 0.261174 0.646667 0.589935
O O13 0.347082 0.000000 0.102971
O O14 0.376250 0.843949 0.050205
O O15 0.500000 0.889013 0.000000
O O16 0.633654 0.000000 0.000000
O O17 0.500000 0.201813 0.703911
O O18 0.500000 0.000000 0.726038
#
# Coordination Sequence:
#
# PCOD9517295 Si02
#       8
#    16  16   8  16  16   8   8   8
#     4  10  19  34  49  67  96 122 152 194 229 265
#     4  10  21  31  48  72  91 123 160 184 226 279
#     4  10  17  24  40  62  86 115 147 178 209 257
#     4   9  16  26  38  57  86 117 143 173 216 261
#     4  10  17  28  43  61  89 117 146 181 220 269
#     4   9  18  28  40  59  84 116 146 179 223 266
#     4  10  20  34  47  66  96 122 148 189 229 266
#     4  10  20  31  48  70  90 120 158 184 222 273
#
# _framework density 15.445195
#
# number of rings (size 3 to 8) (size 9 to 14) (size 15 to 20)
#    0.000    2.250    0.833    3.500    1.167    2.333 
#    0.000    0.000    0.000    0.000    0.000    0.583 
#    0.000    3.333    0.000    0.000    0.000    0.000 
#
# Total GULP energy -267321.230191 kJ/mol
# GULP energy per Si atom -5569.192296 kJ/mol
# Density = 1.541004 g / cm^3
# Si number density = 15.445195 Si / 1000 Ang^3
#
#
#
# Elastic Constant Matrix: (Units=GPa)
#
#
# Indices 1 2 3 4 5 6 
#
# 1 77.5218 11.4125 3.1616 0.0000 0.0000 0.0000
# 2 11.4125 67.2428 14.8089 0.0000 0.0000 0.0000
# 3 3.1616 14.8089 70.1164 0.0000 0.0000 0.0000
# 4 0.0000 0.0000 0.0000 14.6935 0.0000 0.0000
# 5 0.0000 0.0000 0.0000 0.0000 16.5445 0.0000
# 6 0.0000 0.0000 0.0000 0.0000 0.0000 7.0195
#
#
#
# Elastic Compliance Matrix: (Units=1/GPa)
#
#
# Indices 1 2 3 4 5 6 
#
# 1 0.013231 -0.002217 -0.000128 0.000000 0.000000 0.000000
# 2 -0.002217 0.015969 -0.003273 0.000000 0.000000 0.000000
# 3 -0.000128 -0.003273 0.014959 0.000000 0.000000 0.000000
# 4 0.000000 0.000000 0.000000 0.068057 0.000000 0.000000
# 5 0.000000 0.000000 0.000000 0.000000 0.060443 0.000000
# 6 0.000000 0.000000 0.000000 0.000000 0.000000 0.142460
#
#
# Mechanical properties :
#
#
# Convention : Reuss Voigt Hill
#
# Bulk Modulus (GPa) = 30.37464 30.40521 30.38992
# Shear Modulus (GPa) = 14.82229 20.01804 17.42017
#
# Velocity S-wave (km/s) = 3.10122 3.60400 3.36202
# Velocity P-wave (km/s) = 5.70370 6.08663 5.89827
#
# Compressibility (1/GPa) = 0.03292220
#
# Stress axis : x y z
#
# Youngs Moduli (GPa) = 75.57860 62.62310 66.84950
#
# Poissons Ratio (x) = 0.13886 0.00858
# Poissons Ratio (y) = 0.16758 0.21877
# Poissons Ratio (z) = 0.00970 0.20494
#
# Static dielectric constant tensor:
#      x y z
#    x 1.557720 0.000000 0.000000 
#    y 0.000000 1.489750 0.000000 
#    z 0.000000 0.000000 1.509810 
# 
# From -- ./inp_files/69923.got.cif
#   From: 2010.05.17/outbox.cif.g08.bks.cpg/sg71_35_cif.got.tgz:69923.got - 2010.06.03 16:22:01.
