data_PCOD9517506
_publ_section_title
;
Structure prediction by ZEFSAII (Michael W. Deem and Ramdas Pophale) SiO2 
 PCOD9517506
Probable space group: I M M M
;
_chemical_formula_sum "Si O2"
_cell_formula_units_Z 88
_cell_length_a 8.480314
_cell_length_b 16.869627
_cell_length_c 29.721285
_cell_angle_alpha 90.000000
_cell_angle_beta 90.000000
_cell_angle_gamma 90.000000
_cell_volume 4251.919127
_symmetry_space_group_name_H-M "I M M M"
_symmetry_group_IT_number 71
_symmetry_cell_setting 'orthorhombic'
loop_
_space_group_symop_operation_xyz
x,y,z
-x,-y,z
x,-y,-z
-x,y,-z
-x,-y,-z
x,y,-z
-x,y,z
x,-y,z
1/2+x,1/2+y,1/2+z
1/2-x,1/2-y,1/2+z
1/2+x,1/2-y,1/2-z
1/2-x,1/2+y,1/2-z
1/2-x,1/2-y,1/2-z
1/2+x,1/2+y,1/2-z
1/2-x,1/2+y,1/2+z
1/2+x,1/2-y,1/2+z
loop_
_atom_site_type_symbol
_atom_site_label
_atom_site_fract_x
_atom_site_fract_y
_atom_site_fract_z
Si Si1 0.312124 0.908720 0.597929
Si Si2 0.187615 0.756815 0.633379
Si Si3 0.176623 0.095396 0.500000
Si Si4 0.691511 0.155654 0.050675
Si Si5 0.808843 0.500000 0.606015
Si Si6 0.809680 0.000000 0.791570
Si Si7 0.686897 0.676285 0.720846
O O1 0.500000 0.904093 0.601335
O O2 0.235143 0.848518 0.633187
O O3 0.261551 0.886719 0.546859
O O4 0.262760 0.000000 0.605330
O O5 0.235713 0.725405 0.584291
O O6 0.270301 0.702636 0.670289
O O7 0.000000 0.748375 0.638931
O O8 0.000000 0.130724 0.500000
O O9 0.163900 0.000000 0.500000
O O10 0.500000 0.154877 0.048191
O O11 0.737446 0.075848 0.076555
O O12 0.752134 0.161705 0.000000
O O13 0.737003 0.500000 0.655688
O O14 0.000000 0.500000 0.610945
O O15 0.753427 0.914561 0.771819
O O16 0.000000 0.000000 0.788412
O O17 0.500000 0.674200 0.727161
O O18 0.750000 0.750000 0.750000
#
# Coordination Sequence:
#
# PCOD9517506 Si02
#       7
#    16  16   8  16   8   8  16
#     4  10  21  37  55  78 114 159 206 256 311 368
#     4  11  22  37  61  91 124 161 204 258 313 371
#     4   9  17  31  53  79 107 148 205 260 309 367
#     4   9  18  31  52  87 126 163 206 253 295 344
#     4  10  17  32  60  88 122 166 212 249 289 351
#     4  10  22  41  67  95 128 166 201 253 322 379
#     4  11  24  45  70  96 126 160 204 258 318 386
#
# _framework density 20.696535999999998
#
# number of rings (size 3 to 8) (size 9 to 14) (size 15 to 20)
#    0.000    1.909    1.818    2.182    1.273    4.000 
#    1.636    0.000    0.000    3.273    0.000    0.000 
#    0.000    0.000    0.000    0.000    0.000    0.000 
#
# Total GULP energy -245552.099619 kJ/mol
# GULP energy per Si atom -5580.729537 kJ/mol
# Density = 2.064943 g / cm^3
# Si number density = 20.696536 Si / 1000 Ang^3
#
#
#
# Elastic Constant Matrix: (Units=GPa)
#
#
# Indices 1 2 3 4 5 6 
#
# 1 23.8206 21.7138 5.4709 0.0000 0.0000 0.0000
# 2 21.7138 170.0156 50.8746 0.0000 0.0000 0.0000
# 3 5.4709 50.8746 48.0938 0.0000 0.0000 0.0000
# 4 0.0000 0.0000 0.0000 26.8048 0.0000 0.0000
# 5 0.0000 0.0000 0.0000 0.0000 29.4460 0.0000
# 6 0.0000 0.0000 0.0000 0.0000 0.0000 18.6585
#
#
#
# Elastic Compliance Matrix: (Units=1/GPa)
#
#
# Indices 1 2 3 4 5 6 
#
# 1 0.047584 -0.006522 0.001486 0.000000 0.000000 0.000000
# 2 -0.006522 0.009500 -0.009307 0.000000 0.000000 0.000000
# 3 0.001486 -0.009307 0.030469 0.000000 0.000000 0.000000
# 4 0.000000 0.000000 0.000000 0.037307 0.000000 0.000000
# 5 0.000000 0.000000 0.000000 0.000000 0.033961 0.000000
# 6 0.000000 0.000000 0.000000 0.000000 0.000000 0.053595
#
#
# Mechanical properties :
#
#
# Convention : Reuss Voigt Hill
#
# Bulk Modulus (GPa) = 16.98740 44.22761 30.60750
# Shear Modulus (GPa) = 19.17738 25.90656 22.54197
#
# Velocity S-wave (km/s) = 3.04731 3.54182 3.30383
# Velocity P-wave (km/s) = 4.53951 6.17592 5.41983
#
# Compressibility (1/GPa) = 0.05886717
#
# Stress axis : x y z
#
# Youngs Moduli (GPa) = 21.01528 105.26511 32.82030
#
# Poissons Ratio (x) = 0.68654 -0.04878
# Poissons Ratio (y) = 0.13706 0.30546
# Poissons Ratio (z) = -0.03123 0.97972
#
# Static dielectric constant tensor:
#      x y z
#    x 1.727240 0.000000 0.000000 
#    y 0.000000 1.796980 0.000000 
#    z 0.000000 0.000000 1.731030 
# 
# From -- ./inp_files/68079.got.cif
#   From: 2010.05.17/outbox.cif.g08.bks.cpg/sg71_35_cif.got.tgz:68079.got - 2010.06.03 16:22:01.
