data_PCOD9517816
_publ_section_title
;
Structure prediction by ZEFSAII (Michael W. Deem and Ramdas Pophale) SiO2 
 PCOD9517816
Probable space group: I M M M
;
_chemical_formula_sum "Si O2"
_cell_formula_units_Z 104
_cell_length_a 32.667667
_cell_length_b 24.243103
_cell_length_c 7.855376
_cell_angle_alpha 90.000000
_cell_angle_beta 90.000000
_cell_angle_gamma 90.000000
_cell_volume 6221.187692
_symmetry_space_group_name_H-M "I M M M"
_symmetry_group_IT_number 71
_symmetry_cell_setting 'orthorhombic'
loop_
_space_group_symop_operation_xyz
x,y,z
-x,-y,z
x,-y,-z
-x,y,-z
-x,-y,-z
x,y,-z
-x,y,z
x,-y,z
1/2+x,1/2+y,1/2+z
1/2-x,1/2-y,1/2+z
1/2+x,1/2-y,1/2-z
1/2-x,1/2+y,1/2-z
1/2-x,1/2-y,1/2-z
1/2+x,1/2+y,1/2-z
1/2-x,1/2+y,1/2+z
1/2+x,1/2-y,1/2+z
loop_
_atom_site_type_symbol
_atom_site_label
_atom_site_fract_x
_atom_site_fract_y
_atom_site_fract_z
Si Si1 0.335021 0.066241 0.201055
Si Si2 0.546745 0.363886 0.200007
Si Si3 0.319760 0.567076 0.000000
Si Si4 0.726420 0.066834 0.500000
Si Si5 0.622252 0.434704 0.690757
Si Si6 0.418496 0.125671 0.203866
Si Si7 0.000000 0.563866 0.291465
Si Si8 0.453377 0.239511 0.703197
O O1 0.298673 0.082012 0.329764
O O2 0.376341 0.097309 0.257955
O O3 0.341444 0.000000 0.213768
O O4 0.326921 0.078008 0.000000
O O5 0.500000 0.371309 0.263164
O O6 0.580270 0.401383 0.289349
O O7 0.556927 0.299253 0.222350
O O8 0.547405 0.377363 0.000000
O O9 0.345503 0.583509 0.166332
O O10 0.318310 0.500000 0.000000
O O11 0.273099 0.587130 0.000000
O O12 0.728058 0.000000 0.500000
O O13 0.638608 0.427324 0.500000
O O14 0.614252 0.500000 0.715999
O O15 0.458915 0.094161 0.269341
O O16 0.423888 0.189691 0.247853
O O17 0.419121 0.120287 0.000000
O O18 0.000000 0.500000 0.242447
O O19 0.000000 0.565778 0.500000
O O20 0.453856 0.244770 0.500000
O O21 0.500000 0.225629 0.761106
#
# Coordination Sequence:
#
# PCOD9517816 Si02
#       8
#    16  16   8   8  16  16   8  16
#     4   9  18  31  47  71 102 132 169 215 263 316
#     4  10  20  34  53  75 105 142 179 213 247 290
#     4   9  18  34  53  78 108 134 169 210 254 309
#     4   9  18  32  52  74 100 134 166 210 265 316
#     4  10  20  34  54  81 113 142 170 206 247 299
#     4  10  18  29  46  66  94 130 173 219 261 308
#     4   9  16  26  43  65  91 131 174 211 260 314
#     4  10  20  32  46  67  98 133 174 222 259 296
#
# _framework density 16.717065000000002
#
# number of rings (size 3 to 8) (size 9 to 14) (size 15 to 20)
#    0.000    2.385    1.538    1.385    1.077    4.308 
#    0.000    4.615    0.000    0.462    0.000    1.077 
#    0.000    0.000    0.000    0.000    0.000    0.000 
#
# Total GULP energy -289960.516840 kJ/mol
# GULP energy per Si atom -5576.163785 kJ/mol
# Density = 1.667902 g / cm^3
# Si number density = 16.717065 Si / 1000 Ang^3
#
#
#
# Elastic Constant Matrix: (Units=GPa)
#
#
# Indices 1 2 3 4 5 6 
#
# 1 126.1738 47.1723 62.0168 0.0000 0.0000 0.0000
# 2 47.1723 45.6986 28.8304 0.0000 0.0000 0.0000
# 3 62.0168 28.8304 70.7309 0.0000 0.0000 0.0000
# 4 0.0000 0.0000 0.0000 15.7696 0.0000 0.0000
# 5 0.0000 0.0000 0.0000 0.0000 12.1648 0.0000
# 6 0.0000 0.0000 0.0000 0.0000 0.0000 5.5735
#
#
#
# Elastic Compliance Matrix: (Units=1/GPa)
#
#
# Indices 1 2 3 4 5 6 
#
# 1 0.017338 -0.011182 -0.010644 0.000000 0.000000 0.000000
# 2 -0.011182 0.036669 -0.005142 0.000000 0.000000 0.000000
# 3 -0.010644 -0.005142 0.025567 0.000000 0.000000 0.000000
# 4 0.000000 0.000000 0.000000 0.063413 0.000000 0.000000
# 5 0.000000 0.000000 0.000000 0.000000 0.082204 0.000000
# 6 0.000000 0.000000 0.000000 0.000000 0.000000 0.179422
#
#
# Mechanical properties :
#
#
# Convention : Reuss Voigt Hill
#
# Bulk Modulus (GPa) = 39.00554 57.62692 48.31623
# Shear Modulus (GPa) = 10.70445 13.67382 12.18913
#
# Velocity S-wave (km/s) = 2.53322 2.86310 2.70319
# Velocity P-wave (km/s) = 5.65152 6.74363 6.22158
#
# Compressibility (1/GPa) = 0.02563738
#
# Stress axis : x y z
#
# Youngs Moduli (GPa) = 57.67731 27.27082 39.11320
#
# Poissons Ratio (x) = 0.30494 0.41632
# Poissons Ratio (y) = 0.64494 0.20114
# Poissons Ratio (z) = 0.61392 0.14024
#
# Static dielectric constant tensor:
#      x y z
#    x 1.552050 0.000000 0.000000 
#    y 0.000000 1.541420 0.000000 
#    z 0.000000 0.000000 1.597650 
# 
# From -- ./inp_files/15363.got.cif
#   From: 2010.05.17/outbox.cif.g08.bks.cpg/sg71_8_cif.got.tgz:15363.got - 2010.06.03 16:22:01.
