data_PCOD9517552
_publ_section_title
;
Structure prediction by ZEFSAII (Michael W. Deem and Ramdas Pophale) SiO2 
 PCOD9517552
Probable space group: I M M M
;
_chemical_formula_sum "Si O2"
_cell_formula_units_Z 72
_cell_length_a 9.736056
_cell_length_b 18.512458
_cell_length_c 19.785173
_cell_angle_alpha 90.000000
_cell_angle_beta 90.000000
_cell_angle_gamma 90.000000
_cell_volume 3566.046496
_symmetry_space_group_name_H-M "I M M M"
_symmetry_group_IT_number 71
_symmetry_cell_setting 'orthorhombic'
loop_
_space_group_symop_operation_xyz
x,y,z
-x,-y,z
x,-y,-z
-x,y,-z
-x,-y,-z
x,y,-z
-x,y,z
x,-y,z
1/2+x,1/2+y,1/2+z
1/2-x,1/2-y,1/2+z
1/2+x,1/2-y,1/2-z
1/2-x,1/2+y,1/2-z
1/2-x,1/2-y,1/2-z
1/2+x,1/2+y,1/2-z
1/2-x,1/2+y,1/2+z
1/2+x,1/2-y,1/2+z
loop_
_atom_site_type_symbol
_atom_site_label
_atom_site_fract_x
_atom_site_fract_y
_atom_site_fract_z
Si Si1 0.163931 0.000000 0.248287
Si Si2 0.843267 0.368091 0.236223
Si Si3 0.843089 0.340749 0.602872
Si Si4 0.839585 0.292697 0.101460
Si Si5 0.663998 0.000000 0.110664
Si Si6 0.333590 0.082781 0.500000
O O1 0.230674 0.071406 0.279798
O O2 0.232114 0.000000 0.173606
O O3 0.000000 0.000000 0.247554
O O4 0.832733 0.346653 0.314839
O O5 0.826209 0.305020 0.181890
O O6 0.000000 0.396504 0.226603
O O7 0.744710 0.277176 0.580248
O O8 0.814516 0.422118 0.577128
O O9 0.000000 0.322916 0.586250
O O10 0.000000 0.281766 0.086184
O O11 0.795999 0.366562 0.063817
O O12 0.500000 0.000000 0.130947
O O13 0.500000 0.077608 0.500000
O O14 0.281680 0.000000 0.500000
#
# Coordination Sequence:
#
# PCOD9517552 Si02
#       6
#     8  16  16  16   8   8
#     4  10  18  26  42  71 104 135 169 212 256 304
#     4   9  18  31  48  72 103 141 175 210 261 326
#     4   9  17  31  51  77 109 137 165 207 265 325
#     4  10  20  33  54  77  99 133 180 227 266 309
#     4   8  16  32  50  71 104 143 169 192 242 320
#     4   9  20  38  57  78 101 136 188 233 259 297
#
# _framework density 20.190425999999999
#
# number of rings (size 3 to 8) (size 9 to 14) (size 15 to 20)
#    0.000    2.778    0.000    3.000    1.556    4.444 
#    0.000    0.556    0.000    1.333    0.000    4.667 
#    0.000    0.000    0.000    0.000    0.000    0.000 
#
# Total GULP energy -200626.706593 kJ/mol
# GULP energy per Si atom -5572.964072 kJ/mol
# Density = 2.014447 g / cm^3
# Si number density = 20.190426 Si / 1000 Ang^3
#
#
#
# Elastic Constant Matrix: (Units=GPa)
#
#
# Indices 1 2 3 4 5 6 
#
# 1 105.3957 88.2552 14.9689 0.0000 0.0000 0.0000
# 2 88.2552 183.2031 29.5394 0.0000 0.0000 0.0000
# 3 14.9689 29.5394 85.7116 0.0000 0.0000 0.0000
# 4 0.0000 0.0000 0.0000 9.0580 0.0000 0.0000
# 5 0.0000 0.0000 0.0000 0.0000 -0.3193 0.0000
# 6 0.0000 0.0000 0.0000 0.0000 0.0000 41.2224
#
#
#
# Elastic Compliance Matrix: (Units=1/GPa)
#
#
# Indices 1 2 3 4 5 6 
#
# 1 0.015905 -0.007639 -0.000145 0.000000 0.000000 0.000000
# 2 -0.007639 0.009448 -0.001922 0.000000 0.000000 0.000000
# 3 -0.000145 -0.001922 0.012355 0.000000 0.000000 0.000000
# 4 0.000000 0.000000 0.000000 0.110399 0.000000 0.000000
# 5 0.000000 0.000000 0.000000 0.000000 -3.131911 0.000000
# 6 0.000000 0.000000 0.000000 0.000000 0.000000 0.024259
#
#
# Mechanical properties :
#
#
# Convention : Reuss Voigt Hill
#
# Bulk Modulus (GPa) = 54.65625 71.09304 62.87464
# Shear Modulus (GPa) = -1.70414 26.09537 12.19561
#
# Velocity S-wave (km/s) = -0.91971 3.59898 2.46037
# Velocity P-wave (km/s) = 5.09915 7.24969 6.26735
#
# Compressibility (1/GPa) = 0.01829617
#
# Stress axis : x y z
#
# Youngs Moduli (GPa) = 62.87344 105.84134 80.94004
#
# Poissons Ratio (x) = 0.80848 0.01175
# Poissons Ratio (y) = 0.48026 0.15558
# Poissons Ratio (z) = 0.00913 0.20344
#
# Static dielectric constant tensor:
#      x y z
#    x 1.666270 0.000000 0.000000 
#    y 0.000000 1.733750 0.000000 
#    z 0.000000 0.000000 1.764330 
# 
# From -- ./inp_files/57329.got.cif
#   From: 2010.05.17/outbox.cif.g08.bks.cpg/sg71_29_cif.got.tgz:57329.got - 2010.06.03 16:22:01.
