data_PCOD9517090
_publ_section_title
;
Structure prediction by ZEFSAII (Michael W. Deem and Ramdas Pophale) SiO2 
 PCOD9517090
Probable space group: F D D D
;
_chemical_formula_sum "Si O2"
_cell_formula_units_Z 96
_cell_length_a 9.952995
_cell_length_b 16.592092
_cell_length_c 27.192907
_cell_angle_alpha 90.000000
_cell_angle_beta 90.000000
_cell_angle_gamma 90.000000
_cell_volume 4490.664092
_symmetry_space_group_name_H-M "F D D D"
_symmetry_group_IT_number 70
_space_group.IT_coordinate_system_code '2'
_symmetry_cell_setting 'orthorhombic'
loop_
_space_group_symop_operation_xyz
x,y,z
1/4-x,1/4-y,z
x,1/4-y,1/4-z
1/4-x,y,1/4-z
-x,-y,-z
3/4+x,3/4+y,-z
-x,3/4+y,3/4+z
3/4+x,-y,3/4+z
x,1/2+y,1/2+z
1/4-x,3/4-y,1/2+z
x,3/4-y,3/4-z
1/4-x,1/2+y,3/4-z
-x,1/2-y,1/2-z
3/4+x,1/4+y,1/2-z
-x,1/4+y,1/4+z
3/4+x,1/2-y,1/4+z
1/2+x,y,1/2+z
3/4-x,1/4-y,1/2+z
1/2+x,1/4-y,3/4-z
3/4-x,y,3/4-z
1/2-x,-y,1/2-z
1/4+x,3/4+y,1/2-z
1/2-x,3/4+y,1/4+z
1/4+x,-y,1/4+z
1/2+x,1/2+y,z
3/4-x,3/4-y,z
1/2+x,3/4-y,1/4-z
3/4-x,1/2+y,1/4-z
1/2-x,1/2-y,-z
1/4+x,1/4+y,-z
1/2-x,1/4+y,3/4+z
1/4+x,1/2-y,3/4+z
loop_
_atom_site_type_symbol
_atom_site_label
_atom_site_fract_x
_atom_site_fract_y
_atom_site_fract_z
Si Si1 0.657147 0.302206 0.963836
Si Si2 0.347170 0.239815 0.733597
Si Si3 0.968327 0.447707 0.126003
O O1 0.068888 0.354523 0.975061
O O2 0.694114 0.274297 0.909075
O O3 0.750000 0.250000 0.000000
O O4 0.504631 0.278196 0.977126
O O5 0.500000 0.250000 0.750000
O O6 0.321957 0.282796 0.681608
O O7 0.875000 0.375000 0.107297
O O8 0.125000 0.425188 0.125000
#
# Coordination Sequence:
#
# PCOD9517090 Si02
#       3
#    32  32  32
#     4  12  25  45  74 103 141 186 238 287 356 421
#     4  12  27  47  71 107 144 185 234 295 353 422
#     4  12  27  46  73 106 144 187 240 296 355 423
#
# _framework density 21.377685
#
# number of rings (size 3 to 8) (size 9 to 14) (size 15 to 20)
#    0.000    0.000    3.333    7.000    4.667    1.333 
#    0.000    3.333    0.000    0.000    0.000    0.000 
#    0.000    0.000    0.000    0.000    0.000    0.000 
#
# Total GULP energy -134539.242858 kJ/mol
# GULP energy per Si atom -5605.801786 kJ/mol
# Density = 2.132903 g / cm^3
# Si number density = 21.377685 Si / 1000 Ang^3
#
#
#
# Elastic Constant Matrix: (Units=GPa)
#
#
# Indices 1 2 3 4 5 6 
#
# 1 119.0430 -20.5269 32.7237 0.0000 0.0000 0.0000
# 2 -20.5269 106.3654 -9.4607 0.0000 0.0000 0.0000
# 3 32.7237 -9.4607 79.3003 0.0000 0.0000 0.0000
# 4 0.0000 0.0000 0.0000 34.2317 0.0000 0.0000
# 5 0.0000 0.0000 0.0000 0.0000 38.5705 0.0000
# 6 0.0000 0.0000 0.0000 0.0000 0.0000 26.7158
#
#
#
# Elastic Compliance Matrix: (Units=1/GPa)
#
#
# Indices 1 2 3 4 5 6 
#
# 1 0.009717 0.001535 -0.003827 0.000000 0.000000 0.000000
# 2 0.001535 0.009745 0.000529 0.000000 0.000000 0.000000
# 3 -0.003827 0.000529 0.014253 0.000000 0.000000 0.000000
# 4 0.000000 0.000000 0.000000 0.029213 0.000000 0.000000
# 5 0.000000 0.000000 0.000000 0.000000 0.025927 0.000000
# 6 0.000000 0.000000 0.000000 0.000000 0.000000 0.037431
#
#
# Mechanical properties :
#
#
# Convention : Reuss Voigt Hill
#
# Bulk Modulus (GPa) = 33.12454 34.46456 33.79455
# Shear Modulus (GPa) = 35.74680 40.03510 37.89095
#
# Velocity S-wave (km/s) = 4.09364 4.33222 4.21462
# Velocity P-wave (km/s) = 6.15405 6.41724 6.28702
#
# Compressibility (1/GPa) = 0.03018909
#
# Stress axis : x y z
#
# Youngs Moduli (GPa) = 102.91363 102.61856 70.16313
#
# Poissons Ratio (x) = -0.15750 0.26849
# Poissons Ratio (y) = -0.15796 -0.03713
# Poissons Ratio (z) = 0.39381 -0.05431
#
# Static dielectric constant tensor:
#      x y z
#    x 1.750830 0.000000 0.000000 
#    y 0.000000 1.759670 0.000000 
#    z 0.000000 0.000000 1.810490 
# 
# From -- ./inp_files/10521.got.cif
#   From: 2010.05.17/outbox.cif.g08.bks.cpg/sg70_6_cif.got.tgz:10521.got - 2010.06.03 15:57:51.
