data_PCOD9517728
_publ_section_title
;
Structure prediction by ZEFSAII (Michael W. Deem and Ramdas Pophale) SiO2 
 PCOD9517728
Probable space group: I M M M
;
_chemical_formula_sum "Si O2"
_cell_formula_units_Z 128
_cell_length_a 20.816497
_cell_length_b 16.314321
_cell_length_c 24.225174
_cell_angle_alpha 90.000000
_cell_angle_beta 90.000000
_cell_angle_gamma 90.000000
_cell_volume 8227.039009
_symmetry_space_group_name_H-M "I M M M"
_symmetry_group_IT_number 71
_symmetry_cell_setting 'orthorhombic'
loop_
_space_group_symop_operation_xyz
x,y,z
-x,-y,z
x,-y,-z
-x,y,-z
-x,-y,-z
x,y,-z
-x,y,z
x,-y,z
1/2+x,1/2+y,1/2+z
1/2-x,1/2-y,1/2+z
1/2+x,1/2-y,1/2-z
1/2-x,1/2+y,1/2-z
1/2-x,1/2-y,1/2-z
1/2+x,1/2+y,1/2-z
1/2-x,1/2+y,1/2+z
1/2+x,1/2-y,1/2+z
loop_
_atom_site_type_symbol
_atom_site_label
_atom_site_fract_x
_atom_site_fract_y
_atom_site_fract_z
Si Si1 0.599787 0.911091 0.770943
Si Si2 0.686128 0.404313 0.562750
Si Si3 0.427650 0.730836 0.753996
Si Si4 0.246650 0.624477 0.729408
Si Si5 0.698193 0.709202 0.825341
Si Si6 0.189516 0.710998 0.563218
Si Si7 0.620333 0.408336 0.673270
Si Si8 0.573155 0.904970 0.900886
O O1 0.581444 0.827428 0.739391
O O2 0.676992 0.914204 0.774316
O O3 0.576130 0.900779 0.834081
O O4 0.576881 0.000000 0.750336
O O5 0.663029 0.392724 0.500000
O O6 0.705140 0.500000 0.568957
O O7 0.748625 0.348043 0.570421
O O8 0.632906 0.388452 0.609187
O O9 0.500000 0.720199 0.774414
O O10 0.373280 0.713783 0.799795
O O11 0.414408 0.665388 0.705410
O O12 0.266133 0.636402 0.793424
O O13 0.235543 0.711185 0.698280
O O14 0.307838 0.587303 0.699225
O O15 0.695168 0.718519 0.890656
O O16 0.187956 0.739334 0.500000
O O17 0.126495 0.656221 0.575852
O O18 0.591468 0.500000 0.679043
O O19 0.500000 0.886219 0.918243
O O20 0.587254 0.000000 0.916001
#
# Coordination Sequence:
#
# PCOD9517728 Si02
#       8
#    16  16  16  16  16  16  16  16
#     4  10  18  28  47  69  89 119 155 190 233 278
#     4   9  17  28  43  65  93 122 151 184 222 267
#     4  10  20  32  46  64  91 125 156 194 230 267
#     4   9  15  27  46  64  87 114 146 191 235 279
#     4   9  17  28  43  64  87 117 154 187 231 277
#     4  11  19  27  41  60  88 121 158 198 225 261
#     4  10  18  29  48  70  94 123 153 187 230 276
#     4  10  19  29  39  54  84 126 167 198 220 252
#
# _framework density 15.558453
#
# number of rings (size 3 to 8) (size 9 to 14) (size 15 to 20)
#    0.000    2.250    3.750    1.875    0.000    4.000 
#    0.000    0.625    0.000    0.375    0.000    1.750 
#    0.000   14.000    0.000    5.625    0.000    0.000 
#
# Total GULP energy -356297.831435 kJ/mol
# GULP energy per Si atom -5567.153616 kJ/mol
# Density = 1.552304 g / cm^3
# Si number density = 15.558453 Si / 1000 Ang^3
#
#
#
# Elastic Constant Matrix: (Units=GPa)
#
#
# Indices 1 2 3 4 5 6 
#
# 1 34.0659 2.5414 4.5001 0.0000 0.0000 0.0000
# 2 2.5414 43.2369 26.5877 0.0000 0.0000 0.0000
# 3 4.5001 26.5877 97.5544 0.0000 0.0000 0.0000
# 4 0.0000 0.0000 0.0000 15.1555 0.0000 0.0000
# 5 0.0000 0.0000 0.0000 0.0000 2.0737 0.0000
# 6 0.0000 0.0000 0.0000 0.0000 0.0000 -4.6141
#
#
#
# Elastic Compliance Matrix: (Units=1/GPa)
#
#
# Indices 1 2 3 4 5 6 
#
# 1 0.029577 -0.001081 -0.001070 0.000000 0.000000 0.000000
# 2 -0.001081 0.027824 -0.007533 0.000000 0.000000 0.000000
# 3 -0.001070 -0.007533 0.012353 0.000000 0.000000 0.000000
# 4 0.000000 0.000000 0.000000 0.065983 0.000000 0.000000
# 5 0.000000 0.000000 0.000000 0.000000 0.482222 0.000000
# 6 0.000000 0.000000 0.000000 0.000000 0.000000 -0.216727
#
#
# Mechanical properties :
#
#
# Convention : Reuss Voigt Hill
#
# Bulk Modulus (GPa) = 19.84651 26.90172 23.37412
# Shear Modulus (GPa) = 11.43131 11.93823 11.68477
#
# Velocity S-wave (km/s) = 2.71354 2.77305 2.74345
# Velocity P-wave (km/s) = 4.75410 5.25180 5.00913
#
# Compressibility (1/GPa) = 0.05038669
#
# Stress axis : x y z
#
# Youngs Moduli (GPa) = 33.81025 35.93959 80.95046
#
# Poissons Ratio (x) = 0.03884 0.08660
# Poissons Ratio (y) = 0.03653 0.60984
# Poissons Ratio (z) = 0.03617 0.27075
#
# Static dielectric constant tensor:
#      x y z
#    x 1.519380 0.000000 0.000000 
#    y 0.000000 1.557380 0.000000 
#    z 0.000000 0.000000 1.535250 
# 
# From -- ./inp_files/61436.got.cif
#   From: 2010.05.17/outbox.cif.g08.bks.cpg/sg71_31_cif.got.tgz:61436.got - 2010.06.03 16:22:01.
