data_PCOD9517419
_publ_section_title
;
Structure prediction by ZEFSAII (Michael W. Deem and Ramdas Pophale) SiO2 
 PCOD9517419
Probable space group: I M M M
;
_chemical_formula_sum "Si O2"
_cell_formula_units_Z 76
_cell_length_a 31.494793
_cell_length_b 11.736770
_cell_length_c 12.568855
_cell_angle_alpha 90.000000
_cell_angle_beta 90.000000
_cell_angle_gamma 90.000000
_cell_volume 4646.041324
_symmetry_space_group_name_H-M "I M M M"
_symmetry_group_IT_number 71
_symmetry_cell_setting 'orthorhombic'
loop_
_space_group_symop_operation_xyz
x,y,z
-x,-y,z
x,-y,-z
-x,y,-z
-x,-y,-z
x,y,-z
-x,y,z
x,-y,z
1/2+x,1/2+y,1/2+z
1/2-x,1/2-y,1/2+z
1/2+x,1/2-y,1/2-z
1/2-x,1/2+y,1/2-z
1/2-x,1/2-y,1/2-z
1/2+x,1/2+y,1/2-z
1/2-x,1/2+y,1/2+z
1/2+x,1/2-y,1/2+z
loop_
_atom_site_type_symbol
_atom_site_label
_atom_site_fract_x
_atom_site_fract_y
_atom_site_fract_z
Si Si1 0.668281 0.000000 0.725380
Si Si2 0.702935 0.370257 0.000000
Si Si3 0.299742 0.756632 0.219930
Si Si4 0.422469 0.000000 0.373798
Si Si5 0.546208 0.747931 0.627614
Si Si6 0.285719 0.000000 0.500000
Si Si7 0.865694 0.863827 0.125605
O O1 0.684865 0.886872 0.782135
O O2 0.688013 0.000000 0.606926
O O3 0.618252 0.000000 0.702543
O O4 0.692433 0.304328 0.107313
O O5 0.685204 0.500000 0.000000
O O6 0.753844 0.392646 0.000000
O O7 0.250000 0.750000 0.250000
O O8 0.328039 0.693633 0.308760
O O9 0.447681 0.116874 0.356097
O O10 0.409863 0.000000 0.500000
O O11 0.545313 0.729377 0.500000
O O12 0.500000 0.711269 0.669825
O O13 0.588681 0.683965 0.664623
O O14 0.864497 0.000000 0.135787
O O15 0.861563 0.834659 0.000000
#
# Coordination Sequence:
#
# PCOD9517419 Si02
#       7
#     8   8  16   8  16   4  16
#     4  12  22  34  58  83 113 150 185 232 277 334
#     4  10  22  41  57  74 107 148 193 233 278 323
#     4  12  24  37  57  80 110 148 193 234 276 330
#     4  10  17  28  49  79 113 147 180 217 271 334
#     4   9  17  30  50  77 110 145 180 220 272 337
#     4  10  20  36  54  82 105 150 189 216 288 326
#     4  10  22  36  53  80 113 148 188 232 279 332
#
# _framework density 16.358011999999999
#
# number of rings (size 3 to 8) (size 9 to 14) (size 15 to 20)
#    0.316    1.263    4.737    0.947    4.421    2.105 
#    0.000    2.105    0.000    0.000    0.000    0.737 
#    0.000    4.211    0.000    0.000    0.000    0.000 
#
# Total GULP energy -211901.908990 kJ/mol
# GULP energy per Si atom -5576.366026 kJ/mol
# Density = 1.632078 g / cm^3
# Si number density = 16.358012 Si / 1000 Ang^3
#
#
#
# Elastic Constant Matrix: (Units=GPa)
#
#
# Indices 1 2 3 4 5 6 
#
# 1 137.6705 45.8702 37.3903 0.0000 0.0000 0.0000
# 2 45.8702 101.8827 58.5242 0.0000 0.0000 0.0000
# 3 37.3903 58.5242 74.4026 0.0000 0.0000 0.0000
# 4 0.0000 0.0000 0.0000 22.8406 0.0000 0.0000
# 5 0.0000 0.0000 0.0000 0.0000 17.8879 0.0000
# 6 0.0000 0.0000 0.0000 0.0000 0.0000 11.1595
#
#
#
# Elastic Compliance Matrix: (Units=1/GPa)
#
#
# Indices 1 2 3 4 5 6 
#
# 1 0.008770 -0.002585 -0.002374 0.000000 0.000000 0.000000
# 2 -0.002585 0.018667 -0.013385 0.000000 0.000000 0.000000
# 3 -0.002374 -0.013385 0.025162 0.000000 0.000000 0.000000
# 4 0.000000 0.000000 0.000000 0.043782 0.000000 0.000000
# 5 0.000000 0.000000 0.000000 0.000000 0.055904 0.000000
# 6 0.000000 0.000000 0.000000 0.000000 0.000000 0.089610
#
#
# Mechanical properties :
#
#
# Convention : Reuss Voigt Hill
#
# Bulk Modulus (GPa) = 62.84559 66.39167 64.61863
# Shear Modulus (GPa) = 17.61277 21.85567 19.73422
#
# Velocity S-wave (km/s) = 3.28488 3.65921 3.47709
# Velocity P-wave (km/s) = 7.27252 7.65035 7.46383
#
# Compressibility (1/GPa) = 0.01591201
#
# Stress axis : x y z
#
# Youngs Moduli (GPa) = 114.02950 53.56939 39.74293
#
# Poissons Ratio (x) = 0.13845 0.09435
# Poissons Ratio (y) = 0.29472 0.53195
# Poissons Ratio (z) = 0.27072 0.71701
#
# Static dielectric constant tensor:
#      x y z
#    x 1.568280 0.000000 0.000000 
#    y 0.000000 1.558040 0.000000 
#    z 0.000000 0.000000 1.516410 
# 
# From -- ./inp_files/29727.got.cif
#   From: 2010.05.17/outbox.cif.g08.bks.cpg/sg71_15_cif.got.tgz:29727.got - 2010.06.03 16:22:01.
