data_PCOD9517541
_publ_section_title
;
Structure prediction by ZEFSAII (Michael W. Deem and Ramdas Pophale) SiO2 
 PCOD9517541
Probable space group: I M M M
;
_chemical_formula_sum "Si O2"
_cell_formula_units_Z 80
_cell_length_a 7.511948
_cell_length_b 24.823467
_cell_length_c 25.113109
_cell_angle_alpha 90.000000
_cell_angle_beta 90.000000
_cell_angle_gamma 90.000000
_cell_volume 4682.906561
_symmetry_space_group_name_H-M "I M M M"
_symmetry_group_IT_number 71
_symmetry_cell_setting 'orthorhombic'
loop_
_space_group_symop_operation_xyz
x,y,z
-x,-y,z
x,-y,-z
-x,y,-z
-x,-y,-z
x,y,-z
-x,y,z
x,-y,z
1/2+x,1/2+y,1/2+z
1/2-x,1/2-y,1/2+z
1/2+x,1/2-y,1/2-z
1/2-x,1/2+y,1/2-z
1/2-x,1/2-y,1/2-z
1/2+x,1/2+y,1/2-z
1/2-x,1/2+y,1/2+z
1/2+x,1/2-y,1/2+z
loop_
_atom_site_type_symbol
_atom_site_label
_atom_site_fract_x
_atom_site_fract_y
_atom_site_fract_z
Si Si1 0.783121 0.889446 0.558951
Si Si2 0.708829 0.263102 0.673431
Si Si3 0.218295 0.939273 0.669812
Si Si4 0.285595 0.735671 0.941402
Si Si5 0.795382 0.159545 0.737672
O O1 0.726860 0.908170 0.500000
O O2 0.724888 0.922904 0.610083
O O3 0.728788 0.826836 0.564879
O O4 0.000000 0.890035 0.559020
O O5 0.500000 0.258096 0.686170
O O6 0.728714 0.268194 0.610452
O O7 0.792781 0.207097 0.693487
O O8 0.781637 0.311821 0.709666
O O9 0.282568 0.893795 0.711027
O O10 0.000000 0.937419 0.669646
O O11 0.271520 0.000000 0.682675
O O12 0.500000 0.735460 0.941608
O O13 0.225599 0.754217 0.000000
O O14 0.000000 0.146215 0.750437
#
# Coordination Sequence:
#
# PCOD9517541 Si02
#       5
#    16  16  16  16  16
#     4   8  13  21  34  53  76 101 130 164 198 226
#     4  10  18  26  41  61  81 107 135 167 203 241
#     4   9  15  23  38  57  77 103 136 174 206 231
#     4   9  16  27  43  60  81 108 133 164 205 242
#     4   9  17  29  41  57  82 107 136 170 204 241
#
# _framework density 17.083406
#
# number of rings (size 3 to 8) (size 9 to 14) (size 15 to 20)
#    0.000    3.000    2.000    1.800    0.000    1.600 
#    0.000    2.000    0.000    0.600    0.000    0.000 
#    0.000    4.000    0.000   10.000    0.000    1.600 
#
# Total GULP energy -222884.142540 kJ/mol
# GULP energy per Si atom -5572.103564 kJ/mol
# Density = 1.704452 g / cm^3
# Si number density = 17.083406 Si / 1000 Ang^3
#
#
#
# Elastic Constant Matrix: (Units=GPa)
#
#
# Indices 1 2 3 4 5 6 
#
# 1 44.9623 3.1304 -1.4151 0.0000 0.0000 0.0000
# 2 3.1304 108.0239 80.1826 0.0000 0.0000 0.0000
# 3 -1.4151 80.1826 139.9147 0.0000 0.0000 0.0000
# 4 0.0000 0.0000 0.0000 24.8310 0.0000 0.0000
# 5 0.0000 0.0000 0.0000 0.0000 10.0802 0.0000
# 6 0.0000 0.0000 0.0000 0.0000 0.0000 3.0602
#
#
#
# Elastic Compliance Matrix: (Units=1/GPa)
#
#
# Indices 1 2 3 4 5 6 
#
# 1 0.022372 -0.001421 0.001040 0.000000 0.000000 0.000000
# 2 -0.001421 0.016200 -0.009298 0.000000 0.000000 0.000000
# 3 0.001040 -0.009298 0.012487 0.000000 0.000000 0.000000
# 4 0.000000 0.000000 0.000000 0.040272 0.000000 0.000000
# 5 0.000000 0.000000 0.000000 0.000000 0.099205 0.000000
# 6 0.000000 0.000000 0.000000 0.000000 0.000000 0.326780
#
#
# Mechanical properties :
#
#
# Convention : Reuss Voigt Hill
#
# Bulk Modulus (GPa) = 31.54375 50.74410 41.14392
# Shear Modulus (GPa) = 9.13674 21.66113 15.39893
#
# Velocity S-wave (km/s) = 2.31515 3.56471 3.00558
# Velocity P-wave (km/s) = 5.06470 6.83455 6.01508
#
# Compressibility (1/GPa) = 0.03170200
#
# Stress axis : x y z
#
# Youngs Moduli (GPa) = 44.69777 61.72710 80.08629
#
# Poissons Ratio (x) = 0.08769 -0.08332
# Poissons Ratio (y) = 0.06349 0.74468
# Poissons Ratio (z) = -0.04650 0.57397
#
# Static dielectric constant tensor:
#      x y z
#    x 1.678300 0.000000 0.000000 
#    y 0.000000 1.559470 0.000000 
#    z 0.000000 0.000000 1.607000 
# 
# From -- ./inp_files/51007.got.cif
#   From: 2010.05.17/outbox.cif.g08.bks.cpg/sg71_26_cif.got.tgz:51007.got - 2010.06.03 16:22:01.
