data_PCOD9517826
_publ_section_title
;
Structure prediction by ZEFSAII (Michael W. Deem and Ramdas Pophale) SiO2 
 PCOD9517826
Probable space group: I M M M
;
_chemical_formula_sum "Si O2"
_cell_formula_units_Z 104
_cell_length_a 24.210101
_cell_length_b 24.024619
_cell_length_c 7.701644
_cell_angle_alpha 90.000000
_cell_angle_beta 90.000000
_cell_angle_gamma 90.000000
_cell_volume 4479.572298
_symmetry_space_group_name_H-M "I M M M"
_symmetry_group_IT_number 71
_symmetry_cell_setting 'orthorhombic'
loop_
_space_group_symop_operation_xyz
x,y,z
-x,-y,z
x,-y,-z
-x,y,-z
-x,-y,-z
x,y,-z
-x,y,z
x,-y,z
1/2+x,1/2+y,1/2+z
1/2-x,1/2-y,1/2+z
1/2+x,1/2-y,1/2-z
1/2-x,1/2+y,1/2-z
1/2-x,1/2-y,1/2-z
1/2+x,1/2+y,1/2-z
1/2-x,1/2+y,1/2+z
1/2+x,1/2-y,1/2+z
loop_
_atom_site_type_symbol
_atom_site_label
_atom_site_fract_x
_atom_site_fract_y
_atom_site_fract_z
Si Si1 0.436881 0.000000 0.709022
Si Si2 0.411484 0.319005 0.804797
Si Si3 0.742192 0.418088 0.697203
Si Si4 0.639436 0.102015 0.795106
Si Si5 0.439237 0.801228 0.787274
Si Si6 0.617445 0.560350 0.794997
Si Si7 0.205047 0.793308 0.193258
O O1 0.405956 0.054545 0.775614
O O2 0.500000 0.000000 0.765744
O O3 0.434751 0.000000 0.500000
O O4 0.437292 0.263092 0.725757
O O5 0.408047 0.381369 0.723533
O O6 0.347509 0.300540 0.813183
O O7 0.434018 0.325112 0.000000
O O8 0.742592 0.439960 0.500000
O O9 0.803014 0.423051 0.779116
O O10 0.684381 0.437515 0.778720
O O11 0.735107 0.352032 0.689546
O O12 0.611229 0.159213 0.727722
O O13 0.650914 0.111392 0.000000
O O14 0.500000 0.824547 0.742180
O O15 0.435991 0.799608 0.000000
O O16 0.599314 0.500000 0.723325
O O17 0.605009 0.560880 0.000000
O O18 0.250000 0.750000 0.250000
O O19 0.184281 0.780536 0.000000
#
# Coordination Sequence:
#
# PCOD9517826 Si02
#       7
#     8  16  16  16  16  16  16
#     4  11  25  41  53  69  97 131 167 207 254 305
#     4   9  17  31  50  72 100 132 167 209 252 298
#     4   9  19  32  47  71  99 127 162 203 243 288
#     4  10  20  35  55  76  97 125 166 213 256 296
#     4   9  17  31  54  79  99 126 170 219 261 300
#     4   9  18  31  48  72 104 140 171 199 243 302
#     4  10  18  29  46  69  99 131 162 197 242 298
#
# _framework density 23.216501999999998
#
# number of rings (size 3 to 8) (size 9 to 14) (size 15 to 20)
#    0.000    2.538    0.000    2.077    1.077    5.231 
#    0.000    2.308    0.000    1.846    0.000    3.231 
#    0.000    0.000    0.000    7.692    0.000    8.000 
#
# Total GULP energy -289836.515219 kJ/mol
# GULP energy per Si atom -5573.779139 kJ/mol
# Density = 2.316366 g / cm^3
# Si number density = 23.216502 Si / 1000 Ang^3
#
#
#
# Elastic Constant Matrix: (Units=GPa)
#
#
# Indices 1 2 3 4 5 6 
#
# 1 55.5122 0.8339 -0.7518 0.0000 0.0000 0.0000
# 2 0.8339 147.4810 -1.2641 0.0000 0.0000 0.0000
# 3 -0.7518 -1.2641 50.6219 0.0000 0.0000 0.0000
# 4 0.0000 0.0000 0.0000 -5.4086 0.0000 0.0000
# 5 0.0000 0.0000 0.0000 0.0000 7.6977 0.0000
# 6 0.0000 0.0000 0.0000 0.0000 0.0000 70.1810
#
#
#
# Elastic Compliance Matrix: (Units=1/GPa)
#
#
# Indices 1 2 3 4 5 6 
#
# 1 0.018019 -0.000100 0.000265 0.000000 0.000000 0.000000
# 2 -0.000100 0.006783 0.000168 0.000000 0.000000 0.000000
# 3 0.000265 0.000168 0.019762 0.000000 0.000000 0.000000
# 4 0.000000 0.000000 0.000000 -0.184890 0.000000 0.000000
# 5 0.000000 0.000000 0.000000 0.000000 0.129909 0.000000
# 6 0.000000 0.000000 0.000000 0.000000 0.000000 0.014249
#
#
# Mechanical properties :
#
#
# Convention : Reuss Voigt Hill
#
# Bulk Modulus (GPa) = 22.10879 27.91678 25.01278
# Shear Modulus (GPa) = 274.09084 31.48050 152.78567
#
# Velocity S-wave (km/s) = 10.87727 3.68632 8.12108
# Velocity P-wave (km/s) = 12.93433 5.49266 9.93645
#
# Compressibility (1/GPa) = 0.04523088
#
# Stress axis : x y z
#
# Youngs Moduli (GPa) = 55.49652 147.43744 50.60110
#
# Poissons Ratio (x) = 0.01469 -0.01341
# Poissons Ratio (y) = 0.00553 -0.00850
# Poissons Ratio (z) = -0.01471 -0.02475
#
# Static dielectric constant tensor:
#      x y z
#    x 1.868220 0.000000 0.000000 
#    y 0.000000 1.890300 0.000000 
#    z 0.000000 0.000000 1.938940 
# 
# From -- ./inp_files/15309.got.cif
#   From: 2010.05.17/outbox.cif.g08.bks.cpg/sg71_8_cif.got.tgz:15309.got - 2010.06.03 16:22:01.
