data_PCOD9517797
_publ_section_title
;
Structure prediction by ZEFSAII (Michael W. Deem and Ramdas Pophale) SiO2 
 PCOD9517797
Probable space group: I M M M
;
_chemical_formula_sum "Si O2"
_cell_formula_units_Z 88
_cell_length_a 17.430962
_cell_length_b 10.705305
_cell_length_c 28.445812
_cell_angle_alpha 90.000000
_cell_angle_beta 90.000000
_cell_angle_gamma 90.000000
_cell_volume 5308.095608
_symmetry_space_group_name_H-M "I M M M"
_symmetry_group_IT_number 71
_symmetry_cell_setting 'orthorhombic'
loop_
_space_group_symop_operation_xyz
x,y,z
-x,-y,z
x,-y,-z
-x,y,-z
-x,-y,-z
x,y,-z
-x,y,z
x,-y,z
1/2+x,1/2+y,1/2+z
1/2-x,1/2-y,1/2+z
1/2+x,1/2-y,1/2-z
1/2-x,1/2+y,1/2-z
1/2-x,1/2-y,1/2-z
1/2+x,1/2+y,1/2-z
1/2-x,1/2+y,1/2+z
1/2+x,1/2-y,1/2+z
loop_
_atom_site_type_symbol
_atom_site_label
_atom_site_fract_x
_atom_site_fract_y
_atom_site_fract_z
Si Si1 0.761739 0.645453 0.551952
Si Si2 0.353044 0.145772 0.191690
Si Si3 0.088769 0.737421 0.596484
Si Si4 0.685619 0.649443 0.648630
Si Si5 0.092499 0.000000 0.553134
Si Si6 0.592064 0.145852 0.703139
O O1 0.752303 0.702866 0.500000
O O2 0.742569 0.500000 0.548310
O O3 0.850051 0.653780 0.568821
O O4 0.710920 0.690017 0.595912
O O5 0.398874 0.220195 0.151898
O O6 0.263089 0.160371 0.180056
O O7 0.375409 0.175235 0.244789
O O8 0.372222 0.000000 0.183973
O O9 0.112472 0.875958 0.580857
O O10 0.000000 0.714392 0.584155
O O11 0.664527 0.500000 0.648951
O O12 0.625104 0.747947 0.668832
O O13 0.122991 0.000000 0.500000
O O14 0.000000 0.000000 0.549927
O O15 0.500000 0.150688 0.704354
O O16 0.613712 0.000000 0.692077
#
# Coordination Sequence:
#
# PCOD9517797 Si02
#       6
#    16  16  16  16   8  16
#     4   9  18  32  50  72  97 125 161 208 256 296
#     4   9  18  33  51  73 102 134 165 201 248 295
#     4  10  18  29  45  67  98 135 172 205 239 286
#     4   9  18  34  53  74 102 134 167 204 246 297
#     4   9  18  30  40  54  88 136 173 205 244 278
#     4  10  20  34  53  77 104 133 165 205 254 304
#
# _framework density 16.578451000000001
#
# number of rings (size 3 to 8) (size 9 to 14) (size 15 to 20)
#    0.000    2.636    0.000    3.273    0.000    3.636 
#    8.182    0.909    0.000    0.545    0.000    3.818 
#    0.000    0.000    0.000    0.000    0.000    0.000 
#
# Total GULP energy -244940.378121 kJ/mol
# GULP energy per Si atom -5566.826775 kJ/mol
# Density = 1.654072 g / cm^3
# Si number density = 16.578451 Si / 1000 Ang^3
#
#
#
# Elastic Constant Matrix: (Units=GPa)
#
#
# Indices 1 2 3 4 5 6 
#
# 1 39.3299 28.0665 43.6546 0.0000 0.0000 0.0000
# 2 28.0665 57.6265 51.5561 0.0000 0.0000 0.0000
# 3 43.6546 51.5561 117.1692 0.0000 0.0000 0.0000
# 4 0.0000 0.0000 0.0000 23.1253 0.0000 0.0000
# 5 0.0000 0.0000 0.0000 0.0000 13.4448 0.0000
# 6 0.0000 0.0000 0.0000 0.0000 0.0000 20.8567
#
#
#
# Elastic Compliance Matrix: (Units=1/GPa)
#
#
# Indices 1 2 3 4 5 6 
#
# 1 0.048032 -0.012176 -0.012538 0.000000 0.000000 0.000000
# 2 -0.012176 0.031706 -0.009415 0.000000 0.000000 0.000000
# 3 -0.012538 -0.009415 0.017349 0.000000 0.000000 0.000000
# 4 0.000000 0.000000 0.000000 0.043243 0.000000 0.000000
# 5 0.000000 0.000000 0.000000 0.000000 0.074378 0.000000
# 6 0.000000 0.000000 0.000000 0.000000 0.000000 0.047946
#
#
# Mechanical properties :
#
#
# Convention : Reuss Voigt Hill
#
# Bulk Modulus (GPa) = 34.68717 51.18667 42.93692
# Shear Modulus (GPa) = 14.68337 17.54191 16.11264
#
# Velocity S-wave (km/s) = 2.97928 3.25640 3.12092
# Velocity P-wave (km/s) = 5.72742 6.71426 6.24038
#
# Compressibility (1/GPa) = 0.02882910
#
# Stress axis : x y z
#
# Youngs Moduli (GPa) = 20.81957 31.53930 57.64170
#
# Poissons Ratio (x) = 0.38404 0.72270
# Poissons Ratio (y) = 0.25351 0.54268
# Poissons Ratio (z) = 0.26103 0.29693
#
# Static dielectric constant tensor:
#      x y z
#    x 1.546810 0.000000 0.000000 
#    y 0.000000 1.597360 0.000000 
#    z 0.000000 0.000000 1.587960 
# 
# From -- ./inp_files/22266.got.cif
#   From: 2010.05.17/outbox.cif.g08.bks.cpg/sg71_12_cif.got.tgz:22266.got - 2010.06.03 16:22:01.
