data_PCOD9517640
_publ_section_title
;
Structure prediction by ZEFSAII (Michael W. Deem and Ramdas Pophale) SiO2 
 PCOD9517640
Probable space group: I M M M
;
_chemical_formula_sum "Si O2"
_cell_formula_units_Z 96
_cell_length_a 31.782044
_cell_length_b 21.934037
_cell_length_c 7.676956
_cell_angle_alpha 90.000000
_cell_angle_beta 90.000000
_cell_angle_gamma 90.000000
_cell_volume 5351.671505
_symmetry_space_group_name_H-M "I M M M"
_symmetry_group_IT_number 71
_symmetry_cell_setting 'orthorhombic'
loop_
_space_group_symop_operation_xyz
x,y,z
-x,-y,z
x,-y,-z
-x,y,-z
-x,-y,-z
x,y,-z
-x,y,z
x,-y,z
1/2+x,1/2+y,1/2+z
1/2-x,1/2-y,1/2+z
1/2+x,1/2-y,1/2-z
1/2-x,1/2+y,1/2-z
1/2-x,1/2-y,1/2-z
1/2+x,1/2+y,1/2-z
1/2-x,1/2+y,1/2+z
1/2+x,1/2-y,1/2+z
loop_
_atom_site_type_symbol
_atom_site_label
_atom_site_fract_x
_atom_site_fract_y
_atom_site_fract_z
Si Si1 0.750160 0.934014 0.206504
Si Si2 0.454388 0.799277 0.790330
Si Si3 0.282927 0.304404 0.289843
Si Si4 0.343800 0.097949 0.710003
Si Si5 0.936105 0.565070 0.296213
Si Si6 0.637356 0.765186 0.291920
O O1 0.768739 0.870579 0.278663
O O2 0.700000 0.929351 0.230486
O O3 0.764248 0.000000 0.278140
O O4 0.759061 0.934571 0.000000
O O5 0.500000 0.775155 0.733280
O O6 0.450042 0.869324 0.722900
O O7 0.412288 0.762359 0.745542
O O8 0.454567 0.802858 0.000000
O O9 0.283820 0.308638 0.500000
O O10 0.250000 0.250000 0.250000
O O11 0.329263 0.284236 0.226436
O O12 0.345587 0.095407 0.500000
O O13 0.385621 0.066995 0.781573
O O14 0.346951 0.168369 0.769328
O O15 0.948041 0.565184 0.500000
O O16 0.950442 0.500000 0.220966
O O17 0.641179 0.765591 0.500000
#
# Coordination Sequence:
#
# PCOD9517640 Si02
#       6
#    16  16  16  16  16  16
#     4  10  20  31  44  64  91 122 153 187 227 267
#     4   9  18  31  46  64  84 108 142 185 230 271
#     4  10  19  32  49  68  92 121 156 191 223 268
#     4  10  18  28  42  61  86 116 152 191 225 259
#     4   9  17  28  41  57  80 112 148 184 224 268
#     4   9  18  31  46  65  87 114 149 185 224 267
#
# _framework density 17.938320000000001
#
# number of rings (size 3 to 8) (size 9 to 14) (size 15 to 20)
#    0.000    2.500    1.667    1.000    0.000    4.667 
#    0.000    1.667    0.000    0.000    0.000    4.667 
#    0.000    0.667    0.000    8.333    0.000    1.333 
#
# Total GULP energy -267586.633972 kJ/mol
# GULP energy per Si atom -5574.721541 kJ/mol
# Density = 1.789749 g / cm^3
# Si number density = 17.938320 Si / 1000 Ang^3
#
#
#
# Elastic Constant Matrix: (Units=GPa)
#
#
# Indices 1 2 3 4 5 6 
#
# 1 132.1703 71.3528 -2.9259 0.0000 0.0000 0.0000
# 2 71.3528 113.7510 7.6451 0.0000 0.0000 0.0000
# 3 -2.9259 7.6451 32.7815 0.0000 0.0000 0.0000
# 4 0.0000 0.0000 0.0000 8.3081 0.0000 0.0000
# 5 0.0000 0.0000 0.0000 0.0000 11.8709 0.0000
# 6 0.0000 0.0000 0.0000 0.0000 0.0000 4.1041
#
#
#
# Elastic Compliance Matrix: (Units=1/GPa)
#
#
# Indices 1 2 3 4 5 6 
#
# 1 0.011687 -0.007519 0.002797 0.000000 0.000000 0.000000
# 2 -0.007519 0.013768 -0.003882 0.000000 0.000000 0.000000
# 3 0.002797 -0.003882 0.031660 0.000000 0.000000 0.000000
# 4 0.000000 0.000000 0.000000 0.120364 0.000000 0.000000
# 5 0.000000 0.000000 0.000000 0.000000 0.084240 0.000000
# 6 0.000000 0.000000 0.000000 0.000000 0.000000 0.243657
#
#
# Mechanical properties :
#
#
# Convention : Reuss Voigt Hill
#
# Bulk Modulus (GPa) = 25.05841 47.87186 36.46514
# Shear Modulus (GPa) = 9.33033 18.36536 13.84785
#
# Velocity S-wave (km/s) = 2.28312 3.20317 2.78145
# Velocity P-wave (km/s) = 4.57709 6.35808 5.53963
#
# Compressibility (1/GPa) = 0.03990676
#
# Stress axis : x y z
#
# Youngs Moduli (GPa) = 85.56500 72.62989 31.58560
#
# Poissons Ratio (x) = 0.54610 -0.08833
# Poissons Ratio (y) = 0.64335 0.12262
# Poissons Ratio (z) = -0.23929 0.28195
#
# Static dielectric constant tensor:
#      x y z
#    x 1.632430 0.000000 0.000000 
#    y 0.000000 1.650000 0.000000 
#    z 0.000000 0.000000 1.667870 
# 
# From -- ./inp_files/13157.got.cif
#   From: 2010.05.17/outbox.cif.g08.bks.cpg/sg71_7_cif.got.tgz:13157.got - 2010.06.03 16:22:01.
