data_PCOD9517362
_publ_section_title
;
Structure prediction by ZEFSAII (Michael W. Deem and Ramdas Pophale) SiO2 
 PCOD9517362
Probable space group: I M M M
;
_chemical_formula_sum "Si O2"
_cell_formula_units_Z 48
_cell_length_a 14.590063
_cell_length_b 5.690179
_cell_length_c 21.203303
_cell_angle_alpha 90.000000
_cell_angle_beta 90.000000
_cell_angle_gamma 90.000000
_cell_volume 1760.299701
_symmetry_space_group_name_H-M "I M M M"
_symmetry_group_IT_number 71
_symmetry_cell_setting 'orthorhombic'
loop_
_space_group_symop_operation_xyz
x,y,z
-x,-y,z
x,-y,-z
-x,y,-z
-x,-y,-z
x,y,-z
-x,y,z
x,-y,z
1/2+x,1/2+y,1/2+z
1/2-x,1/2-y,1/2+z
1/2+x,1/2-y,1/2-z
1/2-x,1/2+y,1/2-z
1/2-x,1/2-y,1/2-z
1/2+x,1/2+y,1/2-z
1/2-x,1/2+y,1/2+z
1/2+x,1/2-y,1/2+z
loop_
_atom_site_type_symbol
_atom_site_label
_atom_site_fract_x
_atom_site_fract_y
_atom_site_fract_z
Si Si1 0.146328 0.000000 0.421322
Si Si2 0.843630 0.000000 0.907070
Si Si3 0.500000 0.500000 0.779778
Si Si4 0.696181 0.500000 0.257671
Si Si5 0.873578 0.500000 0.428468
Si Si6 0.000000 0.500000 0.788606
Si Si7 0.637603 0.000000 0.400293
O O1 0.100130 0.246252 0.402728
O O2 0.150464 0.000000 0.500000
O O3 0.251771 0.000000 0.398466
O O4 0.840421 0.000000 0.830398
O O5 0.886411 0.754050 0.928464
O O6 0.737295 0.000000 0.927383
O O7 0.611771 0.500000 0.791154
O O8 0.500000 0.760966 0.749173
O O9 0.750000 0.250000 0.250000
O O10 0.903695 0.500000 0.500000
O O11 0.911609 0.500000 0.833385
#
# Coordination Sequence:
#
# PCOD9517362 Si02
#       7
#     8   8   4   8   8   4   8
#     4   8  14  23  35  55  84 118 160 211 256 289
#     4  10  18  32  47  72 100 132 175 224 260 313
#     4  12  24  40  58  78 109 142 181 232 278 322
#     4  12  24  39  58  83 110 142 185 229 274 330
#     4   8  14  24  42  63  90 127 167 211 259 302
#     4  12  18  32  51  72  94 132 182 214 267 312
#     4  10  17  27  45  65  89 126 173 214 256 303
#
# _framework density 27.268086
#
# number of rings (size 3 to 8) (size 9 to 14) (size 15 to 20)
#    0.000    2.000    3.333    2.000    0.000    0.000 
#    0.000    0.417    0.000    0.000    0.000   13.417 
#    0.000    0.000    0.000    4.500    0.000    0.000 
#
# Total GULP energy -133906.313259 kJ/mol
# GULP energy per Si atom -5579.429719 kJ/mol
# Density = 2.720602 g / cm^3
# Si number density = 27.268086 Si / 1000 Ang^3
#
#
#
# Elastic Constant Matrix: (Units=GPa)
#
#
# Indices 1 2 3 4 5 6 
#
# 1 137.0163 52.0458 13.7056 0.0000 0.0000 0.0000
# 2 52.0458 401.9701 40.3549 0.0000 0.0000 0.0000
# 3 13.7056 40.3549 121.8052 0.0000 0.0000 0.0000
# 4 0.0000 0.0000 0.0000 19.8719 0.0000 0.0000
# 5 0.0000 0.0000 0.0000 0.0000 -9.0335 0.0000
# 6 0.0000 0.0000 0.0000 0.0000 0.0000 136.3583
#
#
#
# Elastic Compliance Matrix: (Units=1/GPa)
#
#
# Indices 1 2 3 4 5 6 
#
# 1 0.007712 -0.000943 -0.000555 0.000000 0.000000 0.000000
# 2 -0.000943 0.002689 -0.000785 0.000000 0.000000 0.000000
# 3 -0.000555 -0.000785 0.008532 0.000000 0.000000 0.000000
# 4 0.000000 0.000000 0.000000 0.050322 0.000000 0.000000
# 5 0.000000 0.000000 0.000000 0.000000 -0.110699 0.000000
# 6 0.000000 0.000000 0.000000 0.000000 0.000000 0.007334
#
#
# Mechanical properties :
#
#
# Convention : Reuss Voigt Hill
#
# Bulk Modulus (GPa) = 69.60282 97.00047 83.30164
# Shear Modulus (GPa) = -201.97671 66.41835 -67.77918
#
# Velocity S-wave (km/s) = -8.61577 4.94069 -4.99105
# Velocity P-wave (km/s) = 8.56706 8.25817 1.61202
#
# Compressibility (1/GPa) = 0.01436723
#
# Stress axis : x y z
#
# Youngs Moduli (GPa) = 129.66685 371.94225 117.20178
#
# Poissons Ratio (x) = 0.35066 0.06510
# Poissons Ratio (y) = 0.12225 0.09196
# Poissons Ratio (z) = 0.07202 0.29185
#
# Static dielectric constant tensor:
#      x y z
#    x 2.057180 0.000000 0.000000 
#    y 0.000000 2.146840 0.000000 
#    z 0.000000 0.000000 2.198010 
# 
# From -- ./inp_files/1244.got.cif
#   From: 2010.05.17/outbox.cif.g08.bks.cpg/sg71_1_cif.got.tgz:1244.got - 2010.06.03 16:22:01.
