data_PCOD9517795
_publ_section_title
;
Structure prediction by ZEFSAII (Michael W. Deem and Ramdas Pophale) SiO2 
 PCOD9517795
Probable space group: I M M M
;
_chemical_formula_sum "Si O2"
_cell_formula_units_Z 88
_cell_length_a 7.676913
_cell_length_b 30.532264
_cell_length_c 19.087124
_cell_angle_alpha 90.000000
_cell_angle_beta 90.000000
_cell_angle_gamma 90.000000
_cell_volume 4473.898456
_symmetry_space_group_name_H-M "I M M M"
_symmetry_group_IT_number 71
_symmetry_cell_setting 'orthorhombic'
loop_
_space_group_symop_operation_xyz
x,y,z
-x,-y,z
x,-y,-z
-x,y,-z
-x,-y,-z
x,y,-z
-x,y,z
x,-y,z
1/2+x,1/2+y,1/2+z
1/2-x,1/2-y,1/2+z
1/2+x,1/2-y,1/2-z
1/2-x,1/2+y,1/2-z
1/2-x,1/2-y,1/2-z
1/2+x,1/2+y,1/2-z
1/2-x,1/2+y,1/2+z
1/2+x,1/2-y,1/2+z
loop_
_atom_site_type_symbol
_atom_site_label
_atom_site_fract_x
_atom_site_fract_y
_atom_site_fract_z
Si Si1 0.290907 0.144729 0.920649
Si Si2 0.790583 0.884452 0.227505
Si Si3 0.708919 0.294097 0.791643
Si Si4 0.287335 0.755697 0.920941
Si Si5 0.207119 0.550136 0.000000
Si Si6 0.208427 0.049847 0.346506
O O1 0.500000 0.146487 0.924154
O O2 0.246737 0.113749 0.855401
O O3 0.229310 0.194538 0.903418
O O4 0.229555 0.133734 0.000000
O O5 0.721302 0.837771 0.255972
O O6 0.725723 0.921580 0.281128
O O7 0.000000 0.884384 0.233239
O O8 0.500000 0.298917 0.794208
O O9 0.750000 0.250000 0.750000
O O10 0.773571 0.281842 0.868850
O O11 0.500000 0.756525 0.918089
O O12 0.235087 0.747102 0.000000
O O13 0.259210 0.569331 0.924408
O O14 0.279591 0.500000 0.000000
O O15 0.000000 0.548057 0.000000
O O16 0.000000 0.047305 0.339378
O O17 0.278450 0.000000 0.345393
#
# Coordination Sequence:
#
# PCOD9517795 Si02
#       6
#    16  16  16  16   8  16
#     4   9  17  30  49  70  91 124 165 196 234 292
#     4  10  20  31  47  75  99 123 162 203 243 286
#     4  10  18  29  45  67  94 122 154 192 235 281
#     4   8  14  26  43  61  84 119 157 186 220 272
#     4   9  17  31  53  79 101 125 163 205 243 285
#     4   9  18  34  53  72  99 133 165 199 242 291
#
# _framework density 19.669647000000001
#
# number of rings (size 3 to 8) (size 9 to 14) (size 15 to 20)
#    0.000    2.818    1.818    1.364    0.000    2.182 
#    1.636    0.000    0.000    1.091    0.000    3.818 
#    0.000    0.000    0.000    0.000    0.000    0.000 
#
# Total GULP energy -245090.037361 kJ/mol
# GULP energy per Si atom -5570.228122 kJ/mol
# Density = 1.962488 g / cm^3
# Si number density = 19.669647 Si / 1000 Ang^3
#
#
#
# Elastic Constant Matrix: (Units=GPa)
#
#
# Indices 1 2 3 4 5 6 
#
# 1 36.3439 5.1751 2.9380 0.0000 0.0000 0.0000
# 2 5.1751 63.8262 66.7026 0.0000 0.0000 0.0000
# 3 2.9380 66.7026 181.6848 0.0000 0.0000 0.0000
# 4 0.0000 0.0000 0.0000 33.6418 0.0000 0.0000
# 5 0.0000 0.0000 0.0000 0.0000 19.9826 0.0000
# 6 0.0000 0.0000 0.0000 0.0000 0.0000 9.1760
#
#
#
# Elastic Compliance Matrix: (Units=1/GPa)
#
#
# Indices 1 2 3 4 5 6 
#
# 1 0.027879 -0.002903 0.000615 0.000000 0.000000 0.000000
# 2 -0.002903 0.025723 -0.009397 0.000000 0.000000 0.000000
# 3 0.000615 -0.009397 0.008944 0.000000 0.000000 0.000000
# 4 0.000000 0.000000 0.000000 0.029725 0.000000 0.000000
# 5 0.000000 0.000000 0.000000 0.000000 0.050044 0.000000
# 6 0.000000 0.000000 0.000000 0.000000 0.000000 0.108980
#
#
# Mechanical properties :
#
#
# Convention : Reuss Voigt Hill
#
# Bulk Modulus (GPa) = 25.52596 47.94291 36.73444
# Shear Modulus (GPa) = 17.37778 26.36268 21.87023
#
# Velocity S-wave (km/s) = 2.97557 3.66494 3.33810
# Velocity P-wave (km/s) = 4.98105 6.50662 5.79426
#
# Compressibility (1/GPa) = 0.03917580
#
# Stress axis : x y z
#
# Youngs Moduli (GPa) = 35.86980 38.87518 111.80646
#
# Poissons Ratio (x) = 0.11286 -0.06876
# Poissons Ratio (y) = 0.10414 1.05064
# Poissons Ratio (z) = -0.02206 0.36531
#
# Static dielectric constant tensor:
#      x y z
#    x 1.726390 0.000000 0.000000 
#    y 0.000000 1.688010 0.000000 
#    z 0.000000 0.000000 1.755970 
# 
# From -- ./inp_files/42500.got.cif
#   From: 2010.05.17/outbox.cif.g08.bks.cpg/sg71_22_cif.got.tgz:42500.got - 2010.06.03 16:22:01.
