data_PCOD9517433
_publ_section_title
;
Structure prediction by ZEFSAII (Michael W. Deem and Ramdas Pophale) SiO2 
 PCOD9517433
Probable space group: I M M M
;
_chemical_formula_sum "Si O2"
_cell_formula_units_Z 116
_cell_length_a 13.160912
_cell_length_b 25.915587
_cell_length_c 20.319224
_cell_angle_alpha 90.000000
_cell_angle_beta 90.000000
_cell_angle_gamma 90.000000
_cell_volume 6930.333809
_symmetry_space_group_name_H-M "I M M M"
_symmetry_group_IT_number 71
_symmetry_cell_setting 'orthorhombic'
loop_
_space_group_symop_operation_xyz
x,y,z
-x,-y,z
x,-y,-z
-x,y,-z
-x,-y,-z
x,y,-z
-x,y,z
x,-y,z
1/2+x,1/2+y,1/2+z
1/2-x,1/2-y,1/2+z
1/2+x,1/2-y,1/2-z
1/2-x,1/2+y,1/2-z
1/2-x,1/2-y,1/2-z
1/2+x,1/2+y,1/2-z
1/2-x,1/2+y,1/2+z
1/2+x,1/2-y,1/2+z
loop_
_atom_site_type_symbol
_atom_site_label
_atom_site_fract_x
_atom_site_fract_y
_atom_site_fract_z
Si Si1 0.000000 0.759110 0.000000
Si Si2 0.613498 0.241502 0.860894
Si Si3 0.619030 0.060712 0.078178
Si Si4 0.198090 0.635000 0.316231
Si Si5 0.826007 0.729173 0.896817
Si Si6 0.877102 0.388028 0.074215
Si Si7 0.622358 0.942294 0.706044
Si Si8 0.883649 0.204506 0.222078
O O1 0.089984 0.755141 0.943197
O O2 0.500000 0.247508 0.888601
O O3 0.626690 0.183920 0.832049
O O4 0.710391 0.251898 0.907047
O O5 0.625306 0.279764 0.798319
O O6 0.500000 0.070866 0.095146
O O7 0.689730 0.097405 0.121053
O O8 0.637144 0.000000 0.091398
O O9 0.630442 0.068992 0.000000
O O10 0.162736 0.601052 0.254796
O O11 0.306737 0.660095 0.300185
O O12 0.834100 0.668281 0.908804
O O13 0.854725 0.745946 0.822566
O O14 0.849598 0.427806 0.131248
O O15 0.000000 0.382290 0.074695
O O16 0.847817 0.402873 0.000000
O O17 0.500000 0.941786 0.710177
O O18 0.657076 0.000000 0.723479
O O19 0.000000 0.190502 0.209329
#
# Coordination Sequence:
#
# PCOD9517433 Si02
#       8
#     4  16  16  16  16  16  16  16
#     4  12  20  32  54  76 105 148 181 208 236 308
#     4  10  21  34  52  77 107 140 171 218 264 301
#     4   9  18  33  52  73  99 131 166 208 263 326
#     4  11  19  32  53  74  97 130 167 211 257 308
#     4  11  18  33  51  76 103 140 181 208 248 304
#     4  10  17  29  47  69  98 134 171 202 242 300
#     4  10  20  30  46  73 100 127 162 208 257 307
#     4  10  20  35  52  74 104 133 175 218 257 304
#
# _framework density 16.738011
#
# number of rings (size 3 to 8) (size 9 to 14) (size 15 to 20)
#    0.000    1.793    2.069    5.379    0.000    3.586 
#    4.966    1.724    0.000    1.655    0.000    0.966 
#    0.000    0.000    0.000    5.793    0.000    0.276 
#
# Total GULP energy -322959.624501 kJ/mol
# GULP energy per Si atom -5568.269388 kJ/mol
# Density = 1.669991 g / cm^3
# Si number density = 16.738011 Si / 1000 Ang^3
#
#
#
# Elastic Constant Matrix: (Units=GPa)
#
#
# Indices 1 2 3 4 5 6 
#
# 1 112.2524 22.7513 27.2204 0.0000 0.0000 0.0000
# 2 22.7513 54.6323 16.0060 0.0000 0.0000 0.0000
# 3 27.2204 16.0060 43.0113 0.0000 0.0000 0.0000
# 4 0.0000 0.0000 0.0000 3.6410 0.0000 0.0000
# 5 0.0000 0.0000 0.0000 0.0000 17.1422 0.0000
# 6 0.0000 0.0000 0.0000 0.0000 0.0000 20.8517
#
#
#
# Elastic Compliance Matrix: (Units=1/GPa)
#
#
# Indices 1 2 3 4 5 6 
#
# 1 0.010899 -0.002826 -0.005846 0.000000 0.000000 0.000000
# 2 -0.002826 0.021277 -0.006129 0.000000 0.000000 0.000000
# 3 -0.005846 -0.006129 0.029230 0.000000 0.000000 0.000000
# 4 0.000000 0.000000 0.000000 0.274652 0.000000 0.000000
# 5 0.000000 0.000000 0.000000 0.000000 0.058336 0.000000
# 6 0.000000 0.000000 0.000000 0.000000 0.000000 0.047958
#
#
# Mechanical properties :
#
#
# Convention : Reuss Voigt Hill
#
# Bulk Modulus (GPa) = 31.44311 37.98350 34.71331
# Shear Modulus (GPa) = 10.36152 17.92154 14.14153
#
# Velocity S-wave (km/s) = 2.49075 3.27572 2.90983
# Velocity P-wave (km/s) = 5.20558 6.08682 5.66336
#
# Compressibility (1/GPa) = 0.03180347
#
# Stress axis : x y z
#
# Youngs Moduli (GPa) = 91.75279 46.99945 34.21112
#
# Poissons Ratio (x) = 0.13282 0.19999
# Poissons Ratio (y) = 0.25930 0.20969
# Poissons Ratio (z) = 0.53637 0.28808
#
# Static dielectric constant tensor:
#      x y z
#    x 1.565450 0.000000 0.000000 
#    y 0.000000 1.556940 0.000000 
#    z 0.000000 0.000000 1.591910 
# 
# From -- ./inp_files/43862.got.cif
#   From: 2010.05.17/outbox.cif.g08.bks.cpg/sg71_22_cif.got.tgz:43862.got - 2010.06.03 16:22:01.
