data_PCOD9517166
_publ_section_title
;
Structure prediction by ZEFSAII (Michael W. Deem and Ramdas Pophale) SiO2 
 PCOD9517166
Probable space group: F D D D
;
_chemical_formula_sum "Si O2"
_cell_formula_units_Z 48
_cell_length_a 27.000000
_cell_length_b 12.000000
_cell_length_c 30.000000
_cell_angle_alpha 90.000000
_cell_angle_beta 90.000000
_cell_angle_gamma 90.000000
_cell_volume 9720.000000
_symmetry_space_group_name_H-M "F D D D"
_symmetry_group_IT_number 70
_space_group.IT_coordinate_system_code '2'
_symmetry_cell_setting 'orthorhombic'
loop_
_space_group_symop_operation_xyz
x,y,z
1/4-x,1/4-y,z
x,1/4-y,1/4-z
1/4-x,y,1/4-z
-x,-y,-z
3/4+x,3/4+y,-z
-x,3/4+y,3/4+z
3/4+x,-y,3/4+z
x,1/2+y,1/2+z
1/4-x,3/4-y,1/2+z
x,3/4-y,3/4-z
1/4-x,1/2+y,3/4-z
-x,1/2-y,1/2-z
3/4+x,1/4+y,1/2-z
-x,1/4+y,1/4+z
3/4+x,1/2-y,1/4+z
1/2+x,y,1/2+z
3/4-x,1/4-y,1/2+z
1/2+x,1/4-y,3/4-z
3/4-x,y,3/4-z
1/2-x,-y,1/2-z
1/4+x,3/4+y,1/2-z
1/2-x,3/4+y,1/4+z
1/4+x,-y,1/4+z
1/2+x,1/2+y,z
3/4-x,3/4-y,z
1/2+x,3/4-y,1/4-z
3/4-x,1/2+y,1/4-z
1/2-x,1/2-y,-z
1/4+x,1/4+y,-z
1/2-x,1/4+y,3/4+z
1/4+x,1/2-y,3/4+z
loop_
_atom_site_type_symbol
_atom_site_label
_atom_site_fract_x
_atom_site_fract_y
_atom_site_fract_z
Si Si1 0.738457 0.910959 0.788869
Si Si2 0.033099 0.967055 0.271323
Si Si3 0.370582 0.683161 0.725191
Si Si4 0.125000 0.625000 0.048147
Si Si5 0.625000 0.125000 0.345681
Si Si6 0.770985 0.299434 0.915841
Si Si7 0.521916 0.139969 0.854885
O O1 0.766034 0.794065 0.771738
O O2 0.680796 0.875792 0.787892
O O3 0.750000 0.000000 0.750000
O O4 0.746564 0.989849 0.833823
O O5 0.087579 0.911017 0.265523
O O6 0.002538 0.855952 0.288948
O O7 0.027348 0.054657 0.312660
O O8 0.361092 0.768965 0.766474
O O9 0.386741 0.767628 0.685480
O O10 0.171049 0.672833 0.076431
O O11 0.576821 0.096302 0.374710
O O12 0.752003 0.375000 0.875000
O O13 0.758734 0.175342 0.895206
#
# Coordination Sequence:
#
# PCOD9517166 Si02
#       7
#    32  32  32  16  16  32  32
#     4  10  22  40  61  89 130 172 219 271 342 408
#     4  10  20  39  62  90 129 171 219 269 336 408
#     4  11  23  37  61  93 128 172 216 276 341 402
#     4  11  23  38  61  94 128 168 222 272 330 399
#     4  11  22  36  59  98 129 160 224 285 334 403
#     4  10  20  38  62  91 124 169 221 273 330 389
#     4  10  21  36  62  92 129 169 217 281 339 390
#
# _framework density 4.9382720000000004
#
# number of rings (size 3 to 8) (size 9 to 14) (size 15 to 20)
#    0.000    1.667    3.333    1.250    0.000    6.000 
#    0.000    0.000    0.000    0.000    0.000    0.000 
#    0.000    0.000    0.000    0.000    0.000    0.000 
#
# Total GULP energy -267282.929197 kJ/mol
# GULP energy per Si atom -5568.394358 kJ/mol
# Density = 0.492703 g / cm^3
# Si number density = 4.938272 Si / 1000 Ang^3
#
#
#
# Elastic Constant Matrix: (Units=GPa)
#
#
# Indices 1 2 3 4 5 6 
#
# 1 95.4401 45.9207 21.4065 0.0000 0.0000 0.0000
# 2 45.9207 137.8074 47.4577 0.0000 0.0000 0.0000
# 3 21.4065 47.4577 71.6695 0.0000 0.0000 0.0000
# 4 0.0000 0.0000 0.0000 50.0622 0.0000 0.0000
# 5 0.0000 0.0000 0.0000 0.0000 34.7018 0.0000
# 6 0.0000 0.0000 0.0000 0.0000 0.0000 47.1008
#
#
#
# Elastic Compliance Matrix: (Units=1/GPa)
#
#
# Indices 1 2 3 4 5 6 
#
# 1 0.012567 -0.003750 -0.001270 0.000000 0.000000 0.000000
# 2 -0.003750 0.010519 -0.005845 0.000000 0.000000 0.000000
# 3 -0.001270 -0.005845 0.018203 0.000000 0.000000 0.000000
# 4 0.000000 0.000000 0.000000 0.019975 0.000000 0.000000
# 5 0.000000 0.000000 0.000000 0.000000 0.028817 0.000000
# 6 0.000000 0.000000 0.000000 0.000000 0.000000 0.021231
#
#
# Mechanical properties :
#
#
# Convention : Reuss Voigt Hill
#
# Bulk Modulus (GPa) = 51.13131 59.38745 55.25938
# Shear Modulus (GPa) = 35.82600 39.04843 37.43721
#
# Velocity S-wave (km/s) = 4.26337 4.45098 4.35818
# Velocity P-wave (km/s) = 7.08353 7.51965 7.30485
#
# Compressibility (1/GPa) = 0.01955749
#
# Stress axis : x y z
#
# Youngs Moduli (GPa) = 79.57290 95.06437 54.93588
#
# Poissons Ratio (x) = 0.35651 0.06979
# Poissons Ratio (y) = 0.29841 0.32112
# Poissons Ratio (z) = 0.10108 0.55569
#
# Static dielectric constant tensor:
#      x y z
#    x 1.718810 0.000000 0.000000 
#    y 0.000000 1.724450 0.000000 
#    z 0.000000 0.000000 1.752820 
# 
# From -- ./inp_files/68410.got.cif
#   From: 2010.05.17/outbox.ucp.g08.bks.cvg/sg70_35_cif.got.tgz:68410.got - 2010.06.11 16:26:41.
