data_PCOD9517096
_publ_section_title
;
Structure prediction by ZEFSAII (Michael W. Deem and Ramdas Pophale) SiO2 
 PCOD9517096
Probable space group: F D D D
;
_chemical_formula_sum "Si O2"
_cell_formula_units_Z 112
_cell_length_a 17.609247
_cell_length_b 22.372259
_cell_length_c 11.105411
_cell_angle_alpha 90.000000
_cell_angle_beta 90.000000
_cell_angle_gamma 90.000000
_cell_volume 4375.072555
_symmetry_space_group_name_H-M "F D D D"
_symmetry_group_IT_number 70
_space_group.IT_coordinate_system_code '2'
_symmetry_cell_setting 'orthorhombic'
loop_
_space_group_symop_operation_xyz
x,y,z
1/4-x,1/4-y,z
x,1/4-y,1/4-z
1/4-x,y,1/4-z
-x,-y,-z
3/4+x,3/4+y,-z
-x,3/4+y,3/4+z
3/4+x,-y,3/4+z
x,1/2+y,1/2+z
1/4-x,3/4-y,1/2+z
x,3/4-y,3/4-z
1/4-x,1/2+y,3/4-z
-x,1/2-y,1/2-z
3/4+x,1/4+y,1/2-z
-x,1/4+y,1/4+z
3/4+x,1/2-y,1/4+z
1/2+x,y,1/2+z
3/4-x,1/4-y,1/2+z
1/2+x,1/4-y,3/4-z
3/4-x,y,3/4-z
1/2-x,-y,1/2-z
1/4+x,3/4+y,1/2-z
1/2-x,3/4+y,1/4+z
1/4+x,-y,1/4+z
1/2+x,1/2+y,z
3/4-x,3/4-y,z
1/2+x,3/4-y,1/4-z
3/4-x,1/2+y,1/4-z
1/2-x,1/2-y,-z
1/4+x,1/4+y,-z
1/2-x,1/4+y,3/4+z
1/4+x,1/2-y,3/4+z
loop_
_atom_site_type_symbol
_atom_site_label
_atom_site_fract_x
_atom_site_fract_y
_atom_site_fract_z
Si Si1 0.841647 0.505652 0.749780
Si Si2 0.125000 0.760107 0.625000
Si Si3 0.319933 0.426869 0.696649
Si Si4 0.797513 0.115191 0.996125
O O1 0.750000 0.500000 0.750000
O O2 0.884870 0.467524 0.649960
O O3 0.852704 0.577586 0.749297
O O4 0.875000 0.483428 0.875000
O O5 0.060235 0.719015 0.685850
O O6 0.156958 0.803566 0.728755
O O7 0.375000 0.375000 0.738556
O O8 0.255509 0.392244 0.620834
O O9 0.756228 0.125000 0.125000
#
# Coordination Sequence:
#
# PCOD9517096 Si02
#       4
#    32  16  32  32
#     4  12  25  46  78 116 153 207 277 339 401 492
#     4  12  27  50  72 114 159 202 258 332 412 478
#     4  12  27  45  76 112 157 204 265 328 409 489
#     4  12  25  49  77 112 154 213 274 331 406 490
#
# _framework density 25.599577
#
# number of rings (size 3 to 8) (size 9 to 14) (size 15 to 20)
#    0.000    0.000    7.143    3.000    0.000    0.000 
#    0.000    0.000    0.000    0.000    0.000    0.000 
#    0.000    0.000    0.000    0.000    0.000    0.000 
#
# Total GULP energy -156331.994548 kJ/mol
# GULP energy per Si atom -5583.285520 kJ/mol
# Density = 2.554131 g / cm^3
# Si number density = 25.599577 Si / 1000 Ang^3
#
#
#
# Elastic Constant Matrix: (Units=GPa)
#
#
# Indices 1 2 3 4 5 6 
#
# 1 65.3246 7.9583 22.7679 0.0000 0.0000 0.0000
# 2 7.9583 151.4830 65.4051 0.0000 0.0000 0.0000
# 3 22.7679 65.4051 144.4117 0.0000 0.0000 0.0000
# 4 0.0000 0.0000 0.0000 2213.2788 0.0000 0.0000
# 5 0.0000 0.0000 0.0000 0.0000 34.0844 0.0000
# 6 0.0000 0.0000 0.0000 0.0000 0.0000 28.9315
#
#
#
# Elastic Compliance Matrix: (Units=1/GPa)
#
#
# Indices 1 2 3 4 5 6 
#
# 1 0.016210 0.000313 -0.002697 0.000000 0.000000 0.000000
# 2 0.000313 0.008212 -0.003769 0.000000 0.000000 0.000000
# 3 -0.002697 -0.003769 0.009057 0.000000 0.000000 0.000000
# 4 0.000000 0.000000 0.000000 0.000452 0.000000 0.000000
# 5 0.000000 0.000000 0.000000 0.000000 0.029339 0.000000
# 6 0.000000 0.000000 0.000000 0.000000 0.000000 0.034564
#
#
# Mechanical properties :
#
#
# Convention : Reuss Voigt Hill
#
# Bulk Modulus (GPa) = 47.23017 61.49799 54.36408
# Shear Modulus (GPa) = 42.66281 472.93150 257.79715
#
# Velocity S-wave (km/s) = 4.08676 13.60673 10.04601
# Velocity P-wave (km/s) = 6.38424 16.46003 12.48381
#
# Compressibility (1/GPa) = 0.02117291
#
# Stress axis : x y z
#
# Youngs Moduli (GPa) = 61.68958 121.77085 110.41423
#
# Poissons Ratio (x) = -0.03812 0.29784
# Poissons Ratio (y) = -0.01931 0.41612
# Poissons Ratio (z) = 0.16641 0.45892
#
# Static dielectric constant tensor:
#      x y z
#    x 2.108410 0.000000 0.000000 
#    y 0.000000 2.063950 0.000000 
#    z 0.000000 0.000000 2.396620 
# 
# From -- ./inp_files/16306.got.cif
#   From: 2010.05.17/outbox.cif.g08.bks.cpg/sg70_9_cif.got.tgz:16306.got - 2010.06.03 15:57:51.
