data_PCOD9517006
_publ_section_title
;
Structure prediction by ZEFSAII (Michael W. Deem and Ramdas Pophale) SiO2 
 PCOD9517006
Probable space group: F D D D
;
_chemical_formula_sum "Si O2"
_cell_formula_units_Z 96
_cell_length_a 27.209120
_cell_length_b 6.457371
_cell_length_c 27.567066
_cell_angle_alpha 90.000000
_cell_angle_beta 90.000000
_cell_angle_gamma 90.000000
_cell_volume 4843.516471
_symmetry_space_group_name_H-M "F D D D"
_symmetry_group_IT_number 70
_space_group.IT_coordinate_system_code '2'
_symmetry_cell_setting 'orthorhombic'
loop_
_space_group_symop_operation_xyz
x,y,z
1/4-x,1/4-y,z
x,1/4-y,1/4-z
1/4-x,y,1/4-z
-x,-y,-z
3/4+x,3/4+y,-z
-x,3/4+y,3/4+z
3/4+x,-y,3/4+z
x,1/2+y,1/2+z
1/4-x,3/4-y,1/2+z
x,3/4-y,3/4-z
1/4-x,1/2+y,3/4-z
-x,1/2-y,1/2-z
3/4+x,1/4+y,1/2-z
-x,1/4+y,1/4+z
3/4+x,1/2-y,1/4+z
1/2+x,y,1/2+z
3/4-x,1/4-y,1/2+z
1/2+x,1/4-y,3/4-z
3/4-x,y,3/4-z
1/2-x,-y,1/2-z
1/4+x,3/4+y,1/2-z
1/2-x,3/4+y,1/4+z
1/4+x,-y,1/4+z
1/2+x,1/2+y,z
3/4-x,3/4-y,z
1/2+x,3/4-y,1/4-z
3/4-x,1/2+y,1/4-z
1/2-x,1/2-y,-z
1/4+x,1/4+y,-z
1/2-x,1/4+y,3/4+z
1/4+x,1/2-y,3/4+z
loop_
_atom_site_type_symbol
_atom_site_label
_atom_site_fract_x
_atom_site_fract_y
_atom_site_fract_z
Si Si1 0.248608 0.125000 0.125000
Si Si2 0.125000 0.125000 0.755505
Si Si3 0.574555 0.010810 0.449339
Si Si4 0.075874 0.499365 0.703458
O O1 0.283811 0.263252 0.091569
O O2 0.213793 0.250270 0.161506
O O3 0.159293 0.276728 0.787168
O O4 0.092554 0.276078 0.722225
O O5 0.625000 0.125000 0.434267
O O6 0.557958 0.124418 0.498856
O O7 0.125000 0.625000 0.687894
#
# Coordination Sequence:
#
# PCOD9517006 Si02
#       4
#    16  16  32  32
#     4  12  21  34  66  90 118 158 199 246 306 350
#     4   8  18  42  63  74 126 162 190 239 304 348
#     4   9  21  39  57  85 123 156 197 248 291 350
#     4   9  20  41  58  85 120 156 196 251 294 352
#
# _framework density 19.820311
#
# number of rings (size 3 to 8) (size 9 to 14) (size 15 to 20)
#    0.000    3.333    0.000    1.500    2.333    1.333 
#    0.000   30.000    0.000    0.000    0.000    0.000 
#    0.000    0.000    0.000    0.000    0.000    0.000 
#
# Total GULP energy -133946.297235 kJ/mol
# GULP energy per Si atom -5581.095718 kJ/mol
# Density = 1.977520 g / cm^3
# Si number density = 19.820311 Si / 1000 Ang^3
#
#
#
# Elastic Constant Matrix: (Units=GPa)
#
#
# Indices 1 2 3 4 5 6 
#
# 1 116.4590 45.8424 94.7423 0.0000 0.0004 0.0006
# 2 45.8424 120.0427 43.9126 -0.0015 0.0019 0.0035
# 3 94.7423 43.9126 136.0619 -0.0001 0.0001 0.0006
# 4 0.0000 -0.0015 -0.0001 -8.6795 0.0006 0.0007
# 5 0.0004 0.0019 0.0001 0.0006 75.5025 -0.0011
# 6 0.0006 0.0035 0.0006 0.0007 -0.0011 9.5645
#
#
#
# Elastic Compliance Matrix: (Units=1/GPa)
#
#
# Indices 1 2 3 4 5 6 
#
# 1 0.020709 -0.002986 -0.013457 0.000001 0.000000 0.000001
# 2 -0.002986 0.009876 -0.001108 -0.000002 0.000000 -0.000003
# 3 -0.013457 -0.001108 0.017077 0.000000 0.000000 0.000000
# 4 0.000001 -0.000002 0.000000 -0.115214 0.000001 0.000009
# 5 0.000000 0.000000 0.000000 0.000001 0.013245 0.000001
# 6 0.000001 -0.000003 0.000000 0.000009 0.000001 0.104553
#
#
# Mechanical properties :
#
#
# Convention : Reuss Voigt Hill
#
# Bulk Modulus (GPa) = 79.61056 82.39537 81.00296
# Shear Modulus (GPa) = 55.84365 27.81525 41.82945
#
# Velocity S-wave (km/s) = 5.31377 3.75022 4.59893
# Velocity P-wave (km/s) = 8.82618 7.77262 8.31610
#
# Compressibility (1/GPa) = 0.01256115
#
# Stress axis : x y z
#
# Youngs Moduli (GPa) = 48.28728 101.25484 58.55727
#
# Poissons Ratio (x) = 0.30235 0.78798
# Poissons Ratio (y) = 0.14419 0.06489
# Poissons Ratio (z) = 0.64978 0.11221
#
# Static dielectric constant tensor:
#      x y z
#    x 1.713250 0.000000 0.000000 
#    y 0.000000 1.679590 0.000000 
#    z 0.000000 0.000000 1.705610 
# 
# From -- ./inp_files/3996.got.cif
#   From: 2010.05.17/outbox.cif.g08.bks.cpg/sg70_2_cif.got.tgz:3996.got - 2010.06.03 15:57:51.
