data_PCOD9517147
_publ_section_title
;
Structure prediction by ZEFSAII (Michael W. Deem and Ramdas Pophale) SiO2 
 PCOD9517147
Probable space group: F D D D
;
_chemical_formula_sum "Si O2"
_cell_formula_units_Z 160
_cell_length_a 22.694762
_cell_length_b 13.952094
_cell_length_c 22.959793
_cell_angle_alpha 90.000000
_cell_angle_beta 90.000000
_cell_angle_gamma 90.000000
_cell_volume 7269.976290
_symmetry_space_group_name_H-M "F D D D"
_symmetry_group_IT_number 70
_space_group.IT_coordinate_system_code '2'
_symmetry_cell_setting 'orthorhombic'
loop_
_space_group_symop_operation_xyz
x,y,z
1/4-x,1/4-y,z
x,1/4-y,1/4-z
1/4-x,y,1/4-z
-x,-y,-z
3/4+x,3/4+y,-z
-x,3/4+y,3/4+z
3/4+x,-y,3/4+z
x,1/2+y,1/2+z
1/4-x,3/4-y,1/2+z
x,3/4-y,3/4-z
1/4-x,1/2+y,3/4-z
-x,1/2-y,1/2-z
3/4+x,1/4+y,1/2-z
-x,1/4+y,1/4+z
3/4+x,1/2-y,1/4+z
1/2+x,y,1/2+z
3/4-x,1/4-y,1/2+z
1/2+x,1/4-y,3/4-z
3/4-x,y,3/4-z
1/2-x,-y,1/2-z
1/4+x,3/4+y,1/2-z
1/2-x,3/4+y,1/4+z
1/4+x,-y,1/4+z
1/2+x,1/2+y,z
3/4-x,3/4-y,z
1/2+x,3/4-y,1/4-z
3/4-x,1/2+y,1/4-z
1/2-x,1/2-y,-z
1/4+x,1/4+y,-z
1/2-x,1/4+y,3/4+z
1/4+x,1/2-y,3/4+z
loop_
_atom_site_type_symbol
_atom_site_label
_atom_site_fract_x
_atom_site_fract_y
_atom_site_fract_z
Si Si1 0.464194 0.761469 0.366357
Si Si2 0.569471 0.846642 0.792033
Si Si3 0.312989 0.403260 0.276683
Si Si4 0.588980 0.707903 0.403978
Si Si5 0.128805 0.740037 0.722395
O O1 0.459959 0.875000 0.375000
O O2 0.531359 0.734343 0.369742
O O3 0.433359 0.731478 0.306573
O O4 0.425917 0.729921 0.422010
O O5 0.500449 0.864038 0.806133
O O6 0.565756 0.766126 0.740119
O O7 0.614231 0.791214 0.834264
O O8 0.600784 0.945232 0.775179
O O9 0.375000 0.375000 0.306469
O O10 0.316481 0.339730 0.216139
O O11 0.625000 0.625000 0.373046
O O12 0.125000 0.625000 0.730563
#
# Coordination Sequence:
#
# PCOD9517147 Si02
#       5
#    32  32  32  32  32
#     4   9  17  31  49  67  98 139 170 206 252 316
#     4   9  15  27  49  76  97 124 168 213 259 302
#     4   8  15  26  47  76  98 121 160 212 260 306
#     4   9  17  29  52  75  96 131 170 212 254 310
#     4   9  17  29  49  74  99 130 172 205 255 319
#
# _framework density 22.008326
#
# number of rings (size 3 to 8) (size 9 to 14) (size 15 to 20)
#    0.000    3.600    2.000    1.200    0.000    0.000 
#    0.000    4.000    8.800    0.000    0.000   44.800 
#    0.000    0.000    0.000    0.000    0.000    0.000 
#
# Total GULP energy -222856.675267 kJ/mol
# GULP energy per Si atom -5571.416882 kJ/mol
# Density = 2.195823 g / cm^3
# Si number density = 22.008326 Si / 1000 Ang^3
#
#
#
# Elastic Constant Matrix: (Units=GPa)
#
#
# Indices 1 2 3 4 5 6 
#
# 1 233.9742 55.1187 41.4524 0.0000 0.0000 0.0000
# 2 55.1187 89.4921 32.3724 0.0000 0.0000 0.0000
# 3 41.4524 32.3724 53.7307 0.0000 0.0000 0.0000
# 4 0.0000 0.0000 0.0000 11.0621 0.0000 0.0000
# 5 0.0000 0.0000 0.0000 0.0000 0.6043 0.0000
# 6 0.0000 0.0000 0.0000 0.0000 0.0000 40.8672
#
#
#
# Elastic Compliance Matrix: (Units=1/GPa)
#
#
# Indices 1 2 3 4 5 6 
#
# 1 0.005291 -0.002279 -0.002709 0.000000 0.000000 0.000000
# 2 -0.002279 0.015270 -0.007442 0.000000 0.000000 0.000000
# 3 -0.002709 -0.007442 0.025185 0.000000 0.000000 0.000000
# 4 0.000000 0.000000 0.000000 0.090398 0.000000 0.000000
# 5 0.000000 0.000000 0.000000 0.000000 1.654721 0.000000
# 6 0.000000 0.000000 0.000000 0.000000 0.000000 0.024470
#
#
# Mechanical properties :
#
#
# Convention : Reuss Voigt Hill
#
# Bulk Modulus (GPa) = 47.87804 70.56489 59.22146
# Shear Modulus (GPa) = 2.70687 27.05696 14.88191
#
# Velocity S-wave (km/s) = 1.11022 3.51008 2.60320
# Velocity P-wave (km/s) = 4.84202 6.96850 6.00022
#
# Compressibility (1/GPa) = 0.02088640
#
# Stress axis : x y z
#
# Youngs Moduli (GPa) = 189.01129 65.48953 39.70652
#
# Poissons Ratio (x) = 0.14923 0.10756
# Poissons Ratio (y) = 0.43070 0.29549
# Poissons Ratio (z) = 0.51199 0.48736
#
# Static dielectric constant tensor:
#      x y z
#    x 1.745850 0.000000 0.000000 
#    y 0.000000 1.796290 0.000000 
#    z 0.000000 0.000000 1.857160 
# 
# From -- ./inp_files/61056.got.cif
#   From: 2010.05.17/outbox.cif.g08.bks.cpg/sg70_31_cif.got.tgz:61056.got - 2010.06.03 15:57:51.
