data_PCOD9517802
_publ_section_title
;
Structure prediction by ZEFSAII (Michael W. Deem and Ramdas Pophale) SiO2 
 PCOD9517802
Probable space group: I M M M
;
_chemical_formula_sum "Si O2"
_cell_formula_units_Z 128
_cell_length_a 23.539319
_cell_length_b 18.644110
_cell_length_c 18.111750
_cell_angle_alpha 90.000000
_cell_angle_beta 90.000000
_cell_angle_gamma 90.000000
_cell_volume 7948.697433
_symmetry_space_group_name_H-M "I M M M"
_symmetry_group_IT_number 71
_symmetry_cell_setting 'orthorhombic'
loop_
_space_group_symop_operation_xyz
x,y,z
-x,-y,z
x,-y,-z
-x,y,-z
-x,-y,-z
x,y,-z
-x,y,z
x,-y,z
1/2+x,1/2+y,1/2+z
1/2-x,1/2-y,1/2+z
1/2+x,1/2-y,1/2-z
1/2-x,1/2+y,1/2-z
1/2-x,1/2-y,1/2-z
1/2+x,1/2+y,1/2-z
1/2-x,1/2+y,1/2+z
1/2+x,1/2-y,1/2+z
loop_
_atom_site_type_symbol
_atom_site_label
_atom_site_fract_x
_atom_site_fract_y
_atom_site_fract_z
Si Si1 0.787144 0.579725 0.764924
Si Si2 0.181519 0.631297 0.083479
Si Si3 0.567068 0.279713 0.912674
Si Si4 0.720768 0.294977 0.416137
Si Si5 0.165618 0.710743 0.679616
Si Si6 0.331589 0.354447 0.278110
Si Si7 0.061634 0.582324 0.089155
Si Si8 0.933467 0.916377 0.311978
O O1 0.803708 0.500000 0.742284
O O2 0.788067 0.586935 0.853309
O O3 0.828434 0.639830 0.729764
O O4 0.723022 0.597457 0.740989
O O5 0.204077 0.711542 0.083272
O O6 0.115295 0.630304 0.106011
O O7 0.186475 0.601973 0.000000
O O8 0.500000 0.262487 0.903702
O O9 0.608214 0.227660 0.865683
O O10 0.575500 0.359946 0.879066
O O11 0.580502 0.277849 0.000000
O O12 0.722139 0.321491 0.500000
O O13 0.782280 0.297342 0.377577
O O14 0.675893 0.335429 0.363938
O O15 0.175280 0.779823 0.732425
O O16 0.389402 0.391355 0.251036
O O17 0.072017 0.500000 0.113072
O O18 0.000000 0.605689 0.117280
O O19 0.058345 0.580583 0.000000
O O20 0.000000 0.909687 0.290127
O O21 0.923502 0.000000 0.331200
#
# Coordination Sequence:
#
# PCOD9517802 Si02
#       8
#    16  16  16  16  16  16  16  16
#     4  11  20  31  49  73  99 133 167 205 251 298
#     4  10  18  29  45  70  98 125 158 199 246 299
#     4   9  18  32  54  80 103 133 169 204 246 296
#     4  10  18  30  51  73  94 127 167 207 249 290
#     4  10  18  34  51  70 101 136 169 205 244 303
#     4  10  18  34  51  70 100 135 171 203 244 301
#     4   8  14  25  39  54  80 121 157 183 220 273
#     4   9  18  32  52  78 106 135 164 198 247 304
#
# _framework density 16.103266999999999
#
# number of rings (size 3 to 8) (size 9 to 14) (size 15 to 20)
#    0.000    2.375    2.500    2.250    0.000    1.000 
#    0.000    2.500    0.000   16.500    0.000    1.750 
#    0.000    0.000    0.000    0.000    0.000    0.000 
#
# Total GULP energy -356340.537807 kJ/mol
# GULP energy per Si atom -5567.820903 kJ/mol
# Density = 1.606662 g / cm^3
# Si number density = 16.103267 Si / 1000 Ang^3
#
#
#
# Elastic Constant Matrix: (Units=GPa)
#
#
# Indices 1 2 3 4 5 6 
#
# 1 57.3601 31.4889 39.9073 0.0000 0.0000 0.0000
# 2 31.4889 81.5270 32.8427 0.0000 0.0000 0.0000
# 3 39.9073 32.8427 103.0579 0.0000 0.0000 0.0000
# 4 0.0000 0.0000 0.0000 96.4663 0.0000 0.0000
# 5 0.0000 0.0000 0.0000 0.0000 22.8861 0.0000
# 6 0.0000 0.0000 0.0000 0.0000 0.0000 29.5154
#
#
#
# Elastic Compliance Matrix: (Units=1/GPa)
#
#
# Indices 1 2 3 4 5 6 
#
# 1 0.027065 -0.007149 -0.008202 0.000000 0.000000 0.000000
# 2 -0.007149 0.015961 -0.002318 0.000000 0.000000 0.000000
# 3 -0.008202 -0.002318 0.013618 0.000000 0.000000 0.000000
# 4 0.000000 0.000000 0.000000 0.010366 0.000000 0.000000
# 5 0.000000 0.000000 0.000000 0.000000 0.043695 0.000000
# 6 0.000000 0.000000 0.000000 0.000000 0.000000 0.033881
#
#
# Mechanical properties :
#
#
# Convention : Reuss Voigt Hill
#
# Bulk Modulus (GPa) = 46.93693 50.04699 48.49196
# Shear Modulus (GPa) = 26.73420 38.95395 32.84407
#
# Velocity S-wave (km/s) = 4.07894 4.92368 4.52108
# Velocity P-wave (km/s) = 7.16899 7.96679 7.57840
#
# Compressibility (1/GPa) = 0.02130518
#
# Stress axis : x y z
#
# Youngs Moduli (GPa) = 36.94813 62.65249 73.43172
#
# Poissons Ratio (x) = 0.44793 0.60229
# Poissons Ratio (y) = 0.26416 0.17022
# Poissons Ratio (z) = 0.30305 0.14523
#
# Static dielectric constant tensor:
#      x y z
#    x 1.557320 0.000000 0.000000 
#    y 0.000000 1.519070 0.000000 
#    z 0.000000 0.000000 1.549920 
# 
# From -- ./inp_files/48411.got.cif
#   From: 2010.05.17/outbox.cif.g08.bks.cpg/sg71_25_cif.got.tgz:48411.got - 2010.06.03 16:22:01.
