data_PCOD9517157
_publ_section_title
;
Structure prediction by ZEFSAII (Michael W. Deem and Ramdas Pophale) SiO2 
 PCOD9517157
Probable space group: F D D D
;
_chemical_formula_sum "Si O2"
_cell_formula_units_Z 96
_cell_length_a 9.599942
_cell_length_b 12.362539
_cell_length_c 28.695669
_cell_angle_alpha 90.000000
_cell_angle_beta 90.000000
_cell_angle_gamma 90.000000
_cell_volume 3405.592165
_symmetry_space_group_name_H-M "F D D D"
_symmetry_group_IT_number 70
_space_group.IT_coordinate_system_code '2'
_symmetry_cell_setting 'orthorhombic'
loop_
_space_group_symop_operation_xyz
x,y,z
1/4-x,1/4-y,z
x,1/4-y,1/4-z
1/4-x,y,1/4-z
-x,-y,-z
3/4+x,3/4+y,-z
-x,3/4+y,3/4+z
3/4+x,-y,3/4+z
x,1/2+y,1/2+z
1/4-x,3/4-y,1/2+z
x,3/4-y,3/4-z
1/4-x,1/2+y,3/4-z
-x,1/2-y,1/2-z
3/4+x,1/4+y,1/2-z
-x,1/4+y,1/4+z
3/4+x,1/2-y,1/4+z
1/2+x,y,1/2+z
3/4-x,1/4-y,1/2+z
1/2+x,1/4-y,3/4-z
3/4-x,y,3/4-z
1/2-x,-y,1/2-z
1/4+x,3/4+y,1/2-z
1/2-x,3/4+y,1/4+z
1/4+x,-y,1/4+z
1/2+x,1/2+y,z
3/4-x,3/4-y,z
1/2+x,3/4-y,1/4-z
3/4-x,1/2+y,1/4-z
1/2-x,1/2-y,-z
1/4+x,1/4+y,-z
1/2-x,1/4+y,3/4+z
1/4+x,1/2-y,3/4+z
loop_
_atom_site_type_symbol
_atom_site_label
_atom_site_fract_x
_atom_site_fract_y
_atom_site_fract_z
Si Si1 0.770507 0.500161 0.107843
Si Si2 0.255045 0.776458 0.824005
Si Si3 0.608244 0.311624 0.988428
O O1 0.759936 0.625000 0.125000
O O2 0.625000 0.450235 0.125000
O O3 0.926353 0.481867 0.130189
O O4 0.779964 0.493338 0.051930
O O5 0.375000 0.875000 0.828519
O O6 0.295933 0.680086 0.789498
O O7 0.141756 0.832116 0.790170
O O8 0.750000 0.250000 0.000000
#
# Coordination Sequence:
#
# PCOD9517157 Si02
#       3
#    32  32  32
#     4   9  18  32  52  79 104 140 187 230 276 343
#     4   9  18  33  55  80 109 145 187 233 282 341
#     4   9  18  31  53  77 107 140 187 232 279 341
#
# _framework density 28.188931
#
# number of rings (size 3 to 8) (size 9 to 14) (size 15 to 20)
#    0.000    3.000    0.000    0.000    0.000   16.667 
#    0.000    0.000   22.000    0.000    0.000    0.000 
#    0.000    0.000    0.000    0.000    0.000    0.000 
#
# Total GULP energy -133674.208550 kJ/mol
# GULP energy per Si atom -5569.758690 kJ/mol
# Density = 2.812477 g / cm^3
# Si number density = 28.188931 Si / 1000 Ang^3
#
#
#
# Elastic Constant Matrix: (Units=GPa)
#
#
# Indices 1 2 3 4 5 6 
#
# 1 135.5559 35.4821 70.2964 0.0000 0.0000 0.0000
# 2 35.4821 64.4219 12.4480 0.0000 0.0000 0.0000
# 3 70.2964 12.4480 223.7628 0.0000 0.0000 0.0000
# 4 0.0000 0.0000 0.0000 15.7123 0.0000 0.0000
# 5 0.0000 0.0000 0.0000 0.0000 31.2126 0.0000
# 6 0.0000 0.0000 0.0000 0.0000 0.0000 56.7946
#
#
#
# Elastic Compliance Matrix: (Units=1/GPa)
#
#
# Indices 1 2 3 4 5 6 
#
# 1 0.010222 -0.005064 -0.002929 0.000000 0.000000 0.000000
# 2 -0.005064 0.018200 0.000578 0.000000 0.000000 0.000000
# 3 -0.002929 0.000578 0.005357 0.000000 0.000000 0.000000
# 4 0.000000 0.000000 0.000000 0.063644 0.000000 0.000000
# 5 0.000000 0.000000 0.000000 0.000000 0.032038 0.000000
# 6 0.000000 0.000000 0.000000 0.000000 0.000000 0.017607
#
#
# Mechanical properties :
#
#
# Convention : Reuss Voigt Hill
#
# Bulk Modulus (GPa) = 52.77357 73.35484 63.06420
# Shear Modulus (GPa) = 29.72391 41.11154 35.41773
#
# Velocity S-wave (km/s) = 3.25076 3.82308 3.54848
# Velocity P-wave (km/s) = 5.73166 6.75033 6.26175
#
# Compressibility (1/GPa) = 0.01894888
#
# Stress axis : x y z
#
# Youngs Moduli (GPa) = 97.83148 54.94529 186.66604
#
# Poissons Ratio (x) = 0.27823 0.54684
# Poissons Ratio (y) = 0.49540 -0.10796
# Poissons Ratio (z) = 0.28660 -0.03178
#
# Static dielectric constant tensor:
#      x y z
#    x 0.343500 0.000000 0.000000 
#    y 0.000000 2.480270 0.000000 
#    z 0.000000 0.000000 2.185900 
# 
# From -- ./inp_files/8040.got.cif
#   From: 2010.05.17/outbox.cif.g08.bks.cpg/sg70_5_cif.got.tgz:8040.got - 2010.06.03 15:57:51.
