data_PCOD9517189
_publ_section_title
;
Structure prediction by ZEFSAII (Michael W. Deem and Ramdas Pophale) SiO2 
 PCOD9517189
Probable space group: F D D D
;
_chemical_formula_sum "Si O2"
_cell_formula_units_Z 44
_cell_length_a 27.000000
_cell_length_b 18.000000
_cell_length_c 18.000000
_cell_angle_alpha 90.000000
_cell_angle_beta 90.000000
_cell_angle_gamma 90.000000
_cell_volume 8748.000000
_symmetry_space_group_name_H-M "F D D D"
_symmetry_group_IT_number 70
_space_group.IT_coordinate_system_code '2'
_symmetry_cell_setting 'orthorhombic'
loop_
_space_group_symop_operation_xyz
x,y,z
1/4-x,1/4-y,z
x,1/4-y,1/4-z
1/4-x,y,1/4-z
-x,-y,-z
3/4+x,3/4+y,-z
-x,3/4+y,3/4+z
3/4+x,-y,3/4+z
x,1/2+y,1/2+z
1/4-x,3/4-y,1/2+z
x,3/4-y,3/4-z
1/4-x,1/2+y,3/4-z
-x,1/2-y,1/2-z
3/4+x,1/4+y,1/2-z
-x,1/4+y,1/4+z
3/4+x,1/2-y,1/4+z
1/2+x,y,1/2+z
3/4-x,1/4-y,1/2+z
1/2+x,1/4-y,3/4-z
3/4-x,y,3/4-z
1/2-x,-y,1/2-z
1/4+x,3/4+y,1/2-z
1/2-x,3/4+y,1/4+z
1/4+x,-y,1/4+z
1/2+x,1/2+y,z
3/4-x,3/4-y,z
1/2+x,3/4-y,1/4-z
3/4-x,1/2+y,1/4-z
1/2-x,1/2-y,-z
1/4+x,1/4+y,-z
1/2-x,1/4+y,3/4+z
1/4+x,1/2-y,3/4+z
loop_
_atom_site_type_symbol
_atom_site_label
_atom_site_fract_x
_atom_site_fract_y
_atom_site_fract_z
Si Si1 0.445384 0.142140 0.467331
Si Si2 0.875000 0.747835 0.375000
Si Si3 0.781281 0.925882 0.150623
Si Si4 0.831256 0.776333 0.935612
Si Si5 0.473262 0.321270 0.309632
Si Si6 0.125000 0.125000 0.934410
Si Si7 0.256708 0.125000 0.125000
O O1 0.404366 0.198508 0.435640
O O2 0.492606 0.152199 0.412612
O O3 0.461696 0.150235 0.553208
O O4 0.425609 0.059273 0.454982
O O5 0.831989 0.791699 0.419619
O O6 0.777171 0.886008 0.230787
O O7 0.835303 0.917586 0.116271
O O8 0.764133 0.006606 0.179634
O O9 0.875000 0.785786 0.875000
O O10 0.780559 0.810323 0.902902
O O11 0.846031 0.820036 0.010124
O O12 0.486928 0.375000 0.375000
#
# Coordination Sequence:
#
# PCOD9517189 Si02
#       7
#    32  16  32  32  32  16  16
#     4  11  24  43  65  94 133 171 213 275 327 392
#     4  10  23  42  66  99 128 170 228 270 326 391
#     4  10  24  43  65  95 132 166 220 267 329 396
#     4  12  22  42  65  93 133 173 213 270 329 396
#     4  10  23  45  67  95 128 176 218 278 329 386
#     4  12  23  40  65 102 128 174 218 266 333 401
#     4  12  23  40  62  98 128 176 222 259 332 400
#
# _framework density 5.0297210000000003
#
# number of rings (size 3 to 8) (size 9 to 14) (size 15 to 20)
#    0.000    1.091    4.545    0.818    2.545    5.818 
#    3.273    0.000    0.000    0.000    0.000    0.000 
#    0.000    0.000    0.000    0.000    0.000    0.000 
#
# Total GULP energy -245686.858589 kJ/mol
# GULP energy per Si atom -5583.792241 kJ/mol
# Density = 0.501827 g / cm^3
# Si number density = 5.029721 Si / 1000 Ang^3
#
#
#
# Elastic Constant Matrix: (Units=GPa)
#
#
# Indices 1 2 3 4 5 6 
#
# 1 84.6248 4.5979 39.2463 0.0000 0.0000 0.0000
# 2 4.5979 32.0241 15.5001 0.0000 0.0000 0.0000
# 3 39.2463 15.5001 181.9358 0.0000 0.0000 0.0000
# 4 0.0000 0.0000 0.0000 -197.6060 0.0000 0.0000
# 5 0.0000 0.0000 0.0000 0.0000 41.9424 0.0000
# 6 0.0000 0.0000 0.0000 0.0000 0.0000 84.8488
#
#
#
# Elastic Compliance Matrix: (Units=1/GPa)
#
#
# Indices 1 2 3 4 5 6 
#
# 1 0.013139 -0.000537 -0.002789 0.000000 0.000000 0.000000
# 2 -0.000537 0.032591 -0.002661 0.000000 0.000000 0.000000
# 3 -0.002789 -0.002661 0.006325 0.000000 0.000000 0.000000
# 4 0.000000 0.000000 0.000000 -0.005061 0.000000 0.000000
# 5 0.000000 0.000000 0.000000 0.000000 0.023842 0.000000
# 6 0.000000 0.000000 0.000000 0.000000 0.000000 0.011786
#
#
# Mechanical properties :
#
#
# Convention : Reuss Voigt Hill
#
# Bulk Modulus (GPa) = 24.94827 46.36370 35.65598
# Shear Modulus (GPa) = 46.31510 1.78641 24.05075
#
# Velocity S-wave (km/s) = 4.80320 0.94332 3.46125
# Velocity P-wave (km/s) = 6.57178 4.92761 5.80817
#
# Compressibility (1/GPa) = 0.04008294
#
# Stress axis : x y z
#
# Youngs Moduli (GPa) = 76.10749 30.68294 158.11071
#
# Poissons Ratio (x) = 0.01647 0.44091
# Poissons Ratio (y) = 0.04085 0.42071
# Poissons Ratio (z) = 0.21223 0.08164
#
# Static dielectric constant tensor:
#      x y z
#    x 1.706680 0.000000 0.000000 
#    y 0.000000 1.766040 0.000000 
#    z 0.000000 0.000000 1.796680 
# 
# From -- ./inp_files/38570.got.cif
#   From: 2010.05.17/outbox.ucp.g08.bks.cvg/sg70_20_cif.got.tgz:38570.got - 2010.06.11 16:26:41.
