data_PCOD9517002
_publ_section_title
;
Structure prediction by ZEFSAII (Michael W. Deem and Ramdas Pophale) SiO2 
 PCOD9517002
Probable space group: F D D D
;
_chemical_formula_sum "Si O2"
_cell_formula_units_Z 136
_cell_length_a 9.947211
_cell_length_b 20.074177
_cell_length_c 25.462174
_cell_angle_alpha 90.000000
_cell_angle_beta 90.000000
_cell_angle_gamma 90.000000
_cell_volume 5084.339720
_symmetry_space_group_name_H-M "F D D D"
_symmetry_group_IT_number 70
_space_group.IT_coordinate_system_code '2'
_symmetry_cell_setting 'orthorhombic'
loop_
_space_group_symop_operation_xyz
x,y,z
1/4-x,1/4-y,z
x,1/4-y,1/4-z
1/4-x,y,1/4-z
-x,-y,-z
3/4+x,3/4+y,-z
-x,3/4+y,3/4+z
3/4+x,-y,3/4+z
x,1/2+y,1/2+z
1/4-x,3/4-y,1/2+z
x,3/4-y,3/4-z
1/4-x,1/2+y,3/4-z
-x,1/2-y,1/2-z
3/4+x,1/4+y,1/2-z
-x,1/4+y,1/4+z
3/4+x,1/2-y,1/4+z
1/2+x,y,1/2+z
3/4-x,1/4-y,1/2+z
1/2+x,1/4-y,3/4-z
3/4-x,y,3/4-z
1/2-x,-y,1/2-z
1/4+x,3/4+y,1/2-z
1/2-x,3/4+y,1/4+z
1/4+x,-y,1/4+z
1/2+x,1/2+y,z
3/4-x,3/4-y,z
1/2+x,3/4-y,1/4-z
3/4-x,1/2+y,1/4-z
1/2-x,1/2-y,-z
1/4+x,1/4+y,-z
1/2-x,1/4+y,3/4+z
1/4+x,1/2-y,3/4+z
loop_
_atom_site_type_symbol
_atom_site_label
_atom_site_fract_x
_atom_site_fract_y
_atom_site_fract_z
Si Si1 0.125000 0.625000 0.125000
Si Si2 0.673456 0.938073 0.775171
Si Si3 0.506176 0.836053 0.659191
Si Si4 0.306692 0.213257 0.253377
Si Si5 0.384272 0.038149 0.112482
O O1 0.233226 0.670203 0.095815
O O2 0.718540 0.869088 0.748025
O O3 0.692968 0.932157 0.837887
O O4 0.750000 0.000000 0.750000
O O5 0.522332 0.968789 0.770417
O O6 0.625000 0.870534 0.625000
O O7 0.375000 0.875000 0.676737
O O8 0.565716 0.794845 0.708020
O O9 0.443689 0.782581 0.618739
O O10 0.305886 0.223396 0.190561
#
# Coordination Sequence:
#
# PCOD9517002 Si02
#       5
#     8  32  32  32  32
#     4  12  20  44  76 102 140 184 272 322 374 440
#     4  12  27  48  75 110 162 208 262 323 407 485
#     4  12  27  46  77 114 159 205 259 336 413 482
#     4  12  26  49  76 117 149 211 267 333 400 481
#     4  12  25  47  76 107 149 200 264 326 389 482
#
# _framework density 26.748802000000001
#
# number of rings (size 3 to 8) (size 9 to 14) (size 15 to 20)
#    0.000    0.000    5.882    2.824    4.941    0.941 
#    0.000    2.353    0.000    0.000    0.000    0.000 
#    0.000    0.000    0.000    0.000    0.000    0.000 
#
# Total GULP energy -189284.873304 kJ/mol
# GULP energy per Si atom -5567.202156 kJ/mol
# Density = 2.668792 g / cm^3
# Si number density = 26.748802 Si / 1000 Ang^3
#
#
#
# Elastic Constant Matrix: (Units=GPa)
#
#
# Indices 1 2 3 4 5 6 
#
# 1 73.7497 19.2507 12.1539 0.0000 0.0000 0.0000
# 2 19.2507 132.9937 0.3335 0.0000 0.0000 0.0000
# 3 12.1539 0.3335 129.8072 0.0000 0.0000 0.0000
# 4 0.0000 0.0000 0.0000 40.5387 0.0000 0.0000
# 5 0.0000 0.0000 0.0000 0.0000 28.9973 0.0000
# 6 0.0000 0.0000 0.0000 0.0000 0.0000 41.0343
#
#
#
# Elastic Compliance Matrix: (Units=1/GPa)
#
#
# Indices 1 2 3 4 5 6 
#
# 1 0.014320 -0.002069 -0.001335 0.000000 0.000000 0.000000
# 2 -0.002069 0.007818 0.000174 0.000000 0.000000 0.000000
# 3 -0.001335 0.000174 0.007828 0.000000 0.000000 0.000000
# 4 0.000000 0.000000 0.000000 0.024668 0.000000 0.000000
# 5 0.000000 0.000000 0.000000 0.000000 0.034486 0.000000
# 6 0.000000 0.000000 0.000000 0.000000 0.000000 0.024370
#
#
# Mechanical properties :
#
#
# Convention : Reuss Voigt Hill
#
# Bulk Modulus (GPa) = 42.54617 44.44742 43.49680
# Shear Modulus (GPa) = 39.12769 42.43490 40.78130
#
# Velocity S-wave (km/s) = 3.82878 3.98731 3.90885
# Velocity P-wave (km/s) = 5.95705 6.15231 6.05547
#
# Compressibility (1/GPa) = 0.02350388
#
# Stress axis : x y z
#
# Youngs Moduli (GPa) = 69.83428 127.90570 127.74129
#
# Poissons Ratio (x) = 0.26469 0.17059
# Poissons Ratio (y) = 0.14451 -0.02219
# Poissons Ratio (z) = 0.09326 -0.02221
#
# Static dielectric constant tensor:
#      x y z
#    x 2.368030 0.000000 0.000000 
#    y 0.000000 2.342020 0.000000 
#    z 0.000000 0.000000 1.986100 
# 
# From -- ./inp_files/53465.got.cif
#   From: 2010.05.17/outbox.cif.g08.bks.cpg/sg70_27_cif.got.tgz:53465.got - 2010.06.03 15:57:51.
