data_PCOD9517568
_publ_section_title
;
Structure prediction by ZEFSAII (Michael W. Deem and Ramdas Pophale) SiO2 
 PCOD9517568
Probable space group: I M M M
;
_chemical_formula_sum "Si O2"
_cell_formula_units_Z 112
_cell_length_a 9.214047
_cell_length_b 32.204181
_cell_length_c 33.565397
_cell_angle_alpha 90.000000
_cell_angle_beta 90.000000
_cell_angle_gamma 90.000000
_cell_volume 9959.888357
_symmetry_space_group_name_H-M "I M M M"
_symmetry_group_IT_number 71
_symmetry_cell_setting 'orthorhombic'
loop_
_space_group_symop_operation_xyz
x,y,z
-x,-y,z
x,-y,-z
-x,y,-z
-x,-y,-z
x,y,-z
-x,y,z
x,-y,z
1/2+x,1/2+y,1/2+z
1/2-x,1/2-y,1/2+z
1/2+x,1/2-y,1/2-z
1/2-x,1/2+y,1/2-z
1/2-x,1/2-y,1/2-z
1/2+x,1/2+y,1/2-z
1/2-x,1/2+y,1/2+z
1/2+x,1/2-y,1/2+z
loop_
_atom_site_type_symbol
_atom_site_label
_atom_site_fract_x
_atom_site_fract_y
_atom_site_fract_z
Si Si1 0.674635 0.047977 0.584608
Si Si2 0.168339 0.749089 0.845048
Si Si3 0.825472 0.177772 0.500000
Si Si4 0.327073 0.704017 0.087147
Si Si5 0.166974 0.339031 0.797310
Si Si6 0.674384 0.213095 0.225033
Si Si7 0.325724 0.911634 0.500000
Si Si8 0.328048 0.381725 0.134456
O O1 0.500000 0.050989 0.588379
O O2 0.712619 0.063380 0.540011
O O3 0.749107 0.078863 0.615629
O O4 0.716193 0.000000 0.589938
O O5 0.241137 0.737652 0.886973
O O6 0.173535 0.705330 0.820542
O O7 0.257518 0.782101 0.818659
O O8 0.000000 0.760739 0.848599
O O9 0.787627 0.201434 0.540737
O O10 0.750790 0.132889 0.500000
O O11 0.000000 0.171695 0.500000
O O12 0.500000 0.711134 0.091101
O O13 0.297566 0.658451 0.106259
O O14 0.203998 0.327837 0.751601
O O15 0.268689 0.369535 0.822000
O O16 0.000000 0.353182 0.799357
O O17 0.500000 0.219002 0.224172
O O18 0.750000 0.250000 0.250000
O O19 0.500000 0.905806 0.500000
O O20 0.500000 0.387771 0.135176
#
# Coordination Sequence:
#
# PCOD9517568 Si02
#       8
#    16  16   8  16  16  16   8  16
#     4  10  20  32  43  53  66  83 103 130 167 210
#     4   9  16  24  35  50  68  87 107 128 151 182
#     4  10  18  29  41  53  68  84 106 136 172 206
#     4   9  17  27  38  50  66  86 106 131 163 198
#     4   8  15  25  36  50  68  87 104 122 146 182
#     4   9  15  23  35  51  69  87 106 125 147 177
#     4  10  19  30  44  56  64  78 102 134 168 208
#     4  10  18  27  40  54  67  82 102 129 159 195
#
# _framework density 11.245106
#
# number of rings (size 3 to 8) (size 9 to 14) (size 15 to 20)
#    0.000    2.714    1.429    2.357    0.000    6.286 
#    0.000    0.000    0.000    1.286    0.000    0.000 
#    0.000    0.000    0.000    0.000    0.000    0.000 
#
# Total GULP energy -311747.599685 kJ/mol
# GULP energy per Si atom -5566.921423 kJ/mol
# Density = 1.121951 g / cm^3
# Si number density = 11.245106 Si / 1000 Ang^3
#
#
#
# Elastic Constant Matrix: (Units=GPa)
#
#
# Indices 1 2 3 4 5 6 
#
# 1 41.8327 27.5807 45.4301 0.0000 0.0000 0.0000
# 2 27.5807 32.8422 44.1122 0.0000 0.0000 0.0000
# 3 45.4301 44.1122 89.6267 0.0000 0.0000 0.0000
# 4 0.0000 0.0000 0.0000 9.1199 0.0000 0.0000
# 5 0.0000 0.0000 0.0000 0.0000 16.0780 0.0000
# 6 0.0000 0.0000 0.0000 0.0000 0.0000 13.2326
#
#
#
# Elastic Compliance Matrix: (Units=1/GPa)
#
#
# Indices 1 2 3 4 5 6 
#
# 1 0.061139 -0.028677 -0.016876 0.000000 0.000000 0.000000
# 2 -0.028677 0.103288 -0.036300 0.000000 0.000000 0.000000
# 3 -0.016876 -0.036300 0.037578 0.000000 0.000000 0.000000
# 4 0.000000 0.000000 0.000000 0.109650 0.000000 0.000000
# 5 0.000000 0.000000 0.000000 0.000000 0.062197 0.000000
# 6 0.000000 0.000000 0.000000 0.000000 0.000000 0.075571
#
#
# Mechanical properties :
#
#
# Convention : Reuss Voigt Hill
#
# Bulk Modulus (GPa) = 26.11082 44.28308 35.19695
# Shear Modulus (GPa) = 7.98855 10.83134 9.40994
#
# Velocity S-wave (km/s) = 2.66823 3.10692 2.89589
# Velocity P-wave (km/s) = 5.72387 7.23436 6.52299
#
# Compressibility (1/GPa) = 0.03829830
#
# Stress axis : x y z
#
# Youngs Moduli (GPa) = 16.35609 9.68164 26.61149
#
# Poissons Ratio (x) = 0.27764 0.44910
# Poissons Ratio (y) = 0.46905 0.96600
# Poissons Ratio (z) = 0.27603 0.35145
#
# Static dielectric constant tensor:
#      x y z
#    x 1.372440 0.000000 0.000000 
#    y 0.000000 1.330120 0.000000 
#    z 0.000000 0.000000 1.379980 
# 
# From -- ./inp_files/68689.got.cif
#   From: 2010.05.17/outbox.cif.g08.bks.cpg/sg71_35_cif.got.tgz:68689.got - 2010.06.03 16:22:01.
