data_PCOD9517596
_publ_section_title
;
Structure prediction by ZEFSAII (Michael W. Deem and Ramdas Pophale) SiO2 
 PCOD9517596
Probable space group: I M M M
;
_chemical_formula_sum "Si O2"
_cell_formula_units_Z 96
_cell_length_a 22.182156
_cell_length_b 29.019695
_cell_length_c 7.491476
_cell_angle_alpha 90.000000
_cell_angle_beta 90.000000
_cell_angle_gamma 90.000000
_cell_volume 4822.408448
_symmetry_space_group_name_H-M "I M M M"
_symmetry_group_IT_number 71
_symmetry_cell_setting 'orthorhombic'
loop_
_space_group_symop_operation_xyz
x,y,z
-x,-y,z
x,-y,-z
-x,y,-z
-x,-y,-z
x,y,-z
-x,y,z
x,-y,z
1/2+x,1/2+y,1/2+z
1/2-x,1/2-y,1/2+z
1/2+x,1/2-y,1/2-z
1/2-x,1/2+y,1/2-z
1/2-x,1/2-y,1/2-z
1/2+x,1/2+y,1/2-z
1/2-x,1/2+y,1/2+z
1/2+x,1/2-y,1/2+z
loop_
_atom_site_type_symbol
_atom_site_label
_atom_site_fract_x
_atom_site_fract_y
_atom_site_fract_z
Si Si1 0.822500 0.139336 0.202081
Si Si2 0.798613 0.689521 0.789590
Si Si3 0.631071 0.098832 0.215013
Si Si4 0.500000 0.886706 0.218892
Si Si5 0.376700 0.272169 0.286911
Si Si6 0.753938 0.052005 0.218872
Si Si7 0.500000 0.219493 0.211597
O O1 0.760323 0.168854 0.198341
O O2 0.868848 0.175975 0.284682
O O3 0.801107 0.090836 0.282628
O O4 0.842586 0.129079 0.000000
O O5 0.850133 0.650830 0.764904
O O6 0.825178 0.737278 0.718216
O O7 0.785809 0.693500 0.000000
O O8 0.562906 0.090411 0.276482
O O9 0.686499 0.067025 0.276557
O O10 0.630878 0.096043 0.000000
O O11 0.500000 0.833138 0.279805
O O12 0.500000 0.886866 0.000000
O O13 0.367324 0.275277 0.500000
O O14 0.440596 0.248001 0.261016
O O15 0.767454 0.000000 0.272334
O O16 0.754091 0.053860 0.000000
O O17 0.500000 0.214994 0.000000
#
# Coordination Sequence:
#
# PCOD9517596 Si02
#       7
#    16  16  16   8  16  16   8
#     4   9  18  31  47  65  90 121 147 180 229 274
#     4  10  18  27  42  65  91 116 150 187 219 260
#     4   9  16  28  44  61  87 120 154 187 224 267
#     4   9  16  27  42  61  84 118 158 183 212 257
#     4  10  20  32  44  64  93 123 152 182 220 265
#     4   8  14  26  46  69  88 110 145 188 231 272
#     4  11  21  31  47  66  90 126 158 187 217 253
#
# _framework density 19.907063999999998
#
# number of rings (size 3 to 8) (size 9 to 14) (size 15 to 20)
#    0.000    2.667    1.667    2.250    0.000    1.333 
#    0.000    0.833    0.000   10.500    0.000    0.583 
#    0.000   10.000    0.000    0.000    0.000    0.000 
#
# Total GULP energy -267656.216554 kJ/mol
# GULP energy per Si atom -5576.171178 kJ/mol
# Density = 1.986175 g / cm^3
# Si number density = 19.907064 Si / 1000 Ang^3
#
#
#
# Elastic Constant Matrix: (Units=GPa)
#
#
# Indices 1 2 3 4 5 6 
#
# 1 23.5665 11.0928 -5.8313 0.0000 0.0000 0.0000
# 2 11.0928 129.0188 -2.0401 0.0000 0.0000 0.0000
# 3 -5.8313 -2.0401 59.0378 0.0000 0.0000 0.0000
# 4 0.0000 0.0000 0.0000 9.4799 0.0000 0.0000
# 5 0.0000 0.0000 0.0000 0.0000 12.8077 0.0000
# 6 0.0000 0.0000 0.0000 0.0000 0.0000 36.4764
#
#
#
# Elastic Compliance Matrix: (Units=1/GPa)
#
#
# Indices 1 2 3 4 5 6 
#
# 1 0.045309 -0.003827 0.004343 0.000000 0.000000 0.000000
# 2 -0.003827 0.008078 -0.000099 0.000000 0.000000 0.000000
# 3 0.004343 -0.000099 0.017364 0.000000 0.000000 0.000000
# 4 0.000000 0.000000 0.000000 0.105486 0.000000 0.000000
# 5 0.000000 0.000000 0.000000 0.000000 0.078078 0.000000
# 6 0.000000 0.000000 0.000000 0.000000 0.000000 0.027415
#
#
# Mechanical properties :
#
#
# Convention : Reuss Voigt Hill
#
# Bulk Modulus (GPa) = 13.96927 24.22956 19.09942
# Shear Modulus (GPa) = 16.40646 25.64624 21.02635
#
# Velocity S-wave (km/s) = 2.87392 3.59318 3.25349
# Velocity P-wave (km/s) = 4.24794 5.42332 4.87121
#
# Compressibility (1/GPa) = 0.07158571
#
# Stress axis : x y z
#
# Youngs Moduli (GPa) = 22.07064 123.78883 57.59094
#
# Poissons Ratio (x) = 0.47373 -0.25012
# Poissons Ratio (y) = 0.08446 0.00569
# Poissons Ratio (z) = -0.09585 0.01224
#
# Static dielectric constant tensor:
#      x y z
#    x 1.741010 0.000000 0.000000 
#    y 0.000000 1.730120 0.000000 
#    z 0.000000 0.000000 1.767300 
# 
# From -- ./inp_files/13179.got.cif
#   From: 2010.05.17/outbox.cif.g08.bks.cpg/sg71_7_cif.got.tgz:13179.got - 2010.06.03 16:22:01.
