data_PCOD9517748
_publ_section_title
;
Structure prediction by ZEFSAII (Michael W. Deem and Ramdas Pophale) SiO2 
 PCOD9517748
Probable space group: I M M M
;
_chemical_formula_sum "Si O2"
_cell_formula_units_Z 120
_cell_length_a 14.420109
_cell_length_b 23.891838
_cell_length_c 21.686409
_cell_angle_alpha 90.000000
_cell_angle_beta 90.000000
_cell_angle_gamma 90.000000
_cell_volume 7471.464696
_symmetry_space_group_name_H-M "I M M M"
_symmetry_group_IT_number 71
_symmetry_cell_setting 'orthorhombic'
loop_
_space_group_symop_operation_xyz
x,y,z
-x,-y,z
x,-y,-z
-x,y,-z
-x,-y,-z
x,y,-z
-x,y,z
x,-y,z
1/2+x,1/2+y,1/2+z
1/2-x,1/2-y,1/2+z
1/2+x,1/2-y,1/2-z
1/2-x,1/2+y,1/2-z
1/2-x,1/2-y,1/2-z
1/2+x,1/2+y,1/2-z
1/2-x,1/2+y,1/2+z
1/2+x,1/2-y,1/2+z
loop_
_atom_site_type_symbol
_atom_site_label
_atom_site_fract_x
_atom_site_fract_y
_atom_site_fract_z
Si Si1 0.391316 0.220557 0.307841
Si Si2 0.300479 0.935716 0.377303
Si Si3 0.609511 0.224698 0.068412
Si Si4 0.890179 0.839473 0.252390
Si Si5 0.000000 0.567462 0.929882
Si Si6 0.890791 0.352830 0.316383
Si Si7 0.717901 0.675990 0.119848
Si Si8 0.249622 0.935893 0.232305
O O1 0.500000 0.214091 0.325059
O O2 0.373757 0.285303 0.290439
O O3 0.376107 0.185107 0.244827
O O4 0.317579 0.199095 0.357310
O O5 0.405600 0.919089 0.394273
O O6 0.234267 0.887247 0.403362
O O7 0.284933 0.934591 0.303579
O O8 0.284224 0.000000 0.398150
O O9 0.500000 0.237692 0.076643
O O10 0.635602 0.182977 0.123617
O O11 0.669112 0.280759 0.074933
O O12 0.621470 0.200424 0.000000
O O13 0.846244 0.826225 0.319046
O O14 0.838050 0.894609 0.228729
O O15 0.000000 0.847356 0.257833
O O16 0.000000 0.500000 0.933923
O O17 0.000000 0.589620 0.000000
O O18 0.829888 0.407864 0.308102
O O19 0.000000 0.365453 0.319845
O O20 0.229731 0.000000 0.216602
#
# Coordination Sequence:
#
# PCOD9517748 Si02
#       8
#    16  16  16  16   8  16  16  16
#     4  10  18  28  49  78 100 124 158 195 248 310
#     4   9  19  30  44  67  96 127 163 202 239 284
#     4  10  21  35  51  73  97 127 171 213 248 293
#     4  10  18  29  45  68  97 130 162 194 234 288
#     4   9  18  32  46  58  82 126 167 195 230 282
#     4  10  18  31  52  74 100 130 159 199 255 307
#     4  11  18  29  50  69 100 128 162 201 250 288
#     4  10  20  31  46  73 102 129 161 200 246 295
#
# _framework density 16.061108000000001
#
# number of rings (size 3 to 8) (size 9 to 14) (size 15 to 20)
#    0.000    2.067    4.000    1.600    1.867    1.067 
#    0.000    0.000    0.000    1.600    0.000    2.800 
#    0.000    0.000    0.000    4.800    0.000    0.000 
#
# Total GULP energy -334560.962662 kJ/mol
# GULP energy per Si atom -5576.016044 kJ/mol
# Density = 1.602455 g / cm^3
# Si number density = 16.061108 Si / 1000 Ang^3
#
#
#
# Elastic Constant Matrix: (Units=GPa)
#
#
# Indices 1 2 3 4 5 6 
#
# 1 61.1465 38.5406 13.4342 0.0000 0.0000 0.0000
# 2 38.5406 95.2046 10.4717 0.0000 0.0000 0.0000
# 3 13.4342 10.4717 22.4553 0.0000 0.0000 0.0000
# 4 0.0000 0.0000 0.0000 7.0438 0.0000 0.0000
# 5 0.0000 0.0000 0.0000 0.0000 13.4756 0.0000
# 6 0.0000 0.0000 0.0000 0.0000 0.0000 23.2539
#
#
#
# Elastic Compliance Matrix: (Units=1/GPa)
#
#
# Indices 1 2 3 4 5 6 
#
# 1 0.024052 -0.008595 -0.010382 0.000000 0.000000 0.000000
# 2 -0.008595 0.014143 -0.001453 0.000000 0.000000 0.000000
# 3 -0.010382 -0.001453 0.051421 0.000000 0.000000 0.000000
# 4 0.000000 0.000000 0.000000 0.141969 0.000000 0.000000
# 5 0.000000 0.000000 0.000000 0.000000 0.074208 0.000000
# 6 0.000000 0.000000 0.000000 0.000000 0.000000 0.043004
#
#
# Mechanical properties :
#
#
# Convention : Reuss Voigt Hill
#
# Bulk Modulus (GPa) = 20.50979 33.74438 27.12709
# Shear Modulus (GPa) = 12.31803 16.51199 14.41501
#
# Velocity S-wave (km/s) = 2.77239 3.20984 2.99910
# Velocity P-wave (km/s) = 4.80060 5.89856 5.37767
#
# Compressibility (1/GPa) = 0.04875720
#
# Stress axis : x y z
#
# Youngs Moduli (GPa) = 41.57583 70.70661 19.44713
#
# Poissons Ratio (x) = 0.60772 0.20189
# Poissons Ratio (y) = 0.35734 0.02826
# Poissons Ratio (z) = 0.43162 0.10276
#
# Static dielectric constant tensor:
#      x y z
#    x 1.541410 0.000000 0.000000 
#    y 0.000000 1.552820 0.000000 
#    z 0.000000 0.000000 1.534850 
# 
# From -- ./inp_files/53534.got.cif
#   From: 2010.05.17/outbox.cif.g08.bks.cpg/sg71_27_cif.got.tgz:53534.got - 2010.06.03 16:22:01.
