data_PCOD9517993
_publ_section_title
;
Structure prediction by ZEFSAII (Michael W. Deem and Ramdas Pophale) SiO2 
 PCOD9517993
Probable space group: I M M M
;
_chemical_formula_sum "Si O2"
_cell_formula_units_Z 128
_cell_length_a 13.012148
_cell_length_b 25.424518
_cell_length_c 22.721535
_cell_angle_alpha 90.000000
_cell_angle_beta 90.000000
_cell_angle_gamma 90.000000
_cell_volume 7516.910689
_symmetry_space_group_name_H-M "I M M M"
_symmetry_group_IT_number 71
_symmetry_cell_setting 'orthorhombic'
loop_
_space_group_symop_operation_xyz
x,y,z
-x,-y,z
x,-y,-z
-x,y,-z
-x,-y,-z
x,y,-z
-x,y,z
x,-y,z
1/2+x,1/2+y,1/2+z
1/2-x,1/2-y,1/2+z
1/2+x,1/2-y,1/2-z
1/2-x,1/2+y,1/2-z
1/2-x,1/2-y,1/2-z
1/2+x,1/2+y,1/2-z
1/2-x,1/2+y,1/2+z
1/2+x,1/2-y,1/2+z
loop_
_atom_site_type_symbol
_atom_site_label
_atom_site_fract_x
_atom_site_fract_y
_atom_site_fract_z
Si Si1 0.378723 0.680594 0.732622
Si Si2 0.882811 0.843604 0.430617
Si Si3 0.120572 0.562345 0.257391
Si Si4 0.802572 0.726859 0.569831
Si Si5 0.240078 0.366915 0.167936
Si Si6 0.613957 0.561408 0.570564
Si Si7 0.774963 0.373237 0.641244
Si Si8 0.616853 0.767974 0.356207
O O1 0.500000 0.668017 0.736147
O O2 0.319907 0.667222 0.792372
O O3 0.315320 0.648214 0.684003
O O4 0.369091 0.739631 0.707246
O O5 0.864877 0.851456 0.500000
O O6 0.866273 0.780654 0.420009
O O7 0.804086 0.876622 0.391169
O O8 0.000000 0.856988 0.416432
O O9 0.137192 0.500000 0.263968
O O10 0.193747 0.586149 0.206399
O O11 0.150890 0.592842 0.317270
O O12 0.000000 0.571233 0.244104
O O13 0.802684 0.715893 0.500000
O O14 0.830112 0.675426 0.608105
O O15 0.690557 0.742234 0.595254
O O16 0.147545 0.328112 0.151351
O O17 0.614828 0.564100 0.500000
O O18 0.500000 0.581006 0.590151
O O19 0.620628 0.500000 0.587621
O O20 0.710951 0.592239 0.595190
O O21 0.500000 0.760221 0.373518
#
# Coordination Sequence:
#
# PCOD9517993 Si02
#       8
#    16  16  16  16  16  16  16  16
#     4   9  17  27  41  66  97 124 156 199 245 294
#     4   9  18  33  53  78 108 135 157 188 234 292
#     4  10  22  38  54  73  97 127 166 212 257 294
#     4   9  18  30  45  71 103 135 170 201 235 285
#     4  10  18  31  52  72  93 127 166 200 240 295
#     4   9  17  28  43  64  89 122 169 222 271 311
#     4  10  18  30  48  68  95 132 170 208 248 293
#     4   9  17  28  42  65  97 129 163 205 247 287
#
# _framework density 17.028272000000001
#
# number of rings (size 3 to 8) (size 9 to 14) (size 15 to 20)
#    0.000    2.625    0.000    2.625    0.000    2.250 
#    0.000    0.000    0.000   10.125    0.000    6.125 
#    0.000    0.000    0.000    0.000    0.000    0.000 
#
# Total GULP energy -356464.869139 kJ/mol
# GULP energy per Si atom -5569.763580 kJ/mol
# Density = 1.698951 g / cm^3
# Si number density = 17.028272 Si / 1000 Ang^3
#
#
#
# Elastic Constant Matrix: (Units=GPa)
#
#
# Indices 1 2 3 4 5 6 
#
# 1 55.1541 14.0522 18.4897 0.0000 0.0000 0.0000
# 2 14.0522 47.1906 27.1828 0.0000 0.0000 0.0000
# 3 18.4897 27.1828 58.1398 0.0000 0.0000 0.0000
# 4 0.0000 0.0000 0.0000 17.2205 0.0000 0.0000
# 5 0.0000 0.0000 0.0000 0.0000 22.4753 0.0000
# 6 0.0000 0.0000 0.0000 0.0000 0.0000 14.7979
#
#
#
# Elastic Compliance Matrix: (Units=1/GPa)
#
#
# Indices 1 2 3 4 5 6 
#
# 1 0.020650 -0.003238 -0.005053 0.000000 0.000000 0.000000
# 2 -0.003238 0.029509 -0.012767 0.000000 0.000000 0.000000
# 3 -0.005053 -0.012767 0.024776 0.000000 0.000000 0.000000
# 4 0.000000 0.000000 0.000000 0.058070 0.000000 0.000000
# 5 0.000000 0.000000 0.000000 0.000000 0.044493 0.000000
# 6 0.000000 0.000000 0.000000 0.000000 0.000000 0.067577
#
#
# Mechanical properties :
#
#
# Convention : Reuss Voigt Hill
#
# Bulk Modulus (GPa) = 30.47071 31.10376 30.78723
# Shear Modulus (GPa) = 16.77111 17.61606 17.19359
#
# Velocity S-wave (km/s) = 3.14171 3.21988 3.18104
# Velocity P-wave (km/s) = 5.57616 5.66826 5.62239
#
# Compressibility (1/GPa) = 0.03281841
#
# Stress axis : x y z
#
# Youngs Moduli (GPa) = 48.42598 33.88802 40.36173
#
# Poissons Ratio (x) = 0.10974 0.20395
# Poissons Ratio (y) = 0.15682 0.51529
# Poissons Ratio (z) = 0.24470 0.43264
#
# Static dielectric constant tensor:
#      x y z
#    x 1.570560 0.000000 0.000000 
#    y 0.000000 1.578360 0.000000 
#    z 0.000000 0.000000 1.587730 
# 
# From -- ./inp_files/59291.got.cif
#   From: 2010.05.17/outbox.cif.g08.bks.cpg/sg71_30_cif.got.tgz:59291.got - 2010.06.03 16:22:01.
