data_PCOD9517897
_publ_section_title
;
Structure prediction by ZEFSAII (Michael W. Deem and Ramdas Pophale) SiO2 
 PCOD9517897
Probable space group: I M M M
;
_chemical_formula_sum "Si O2"
_cell_formula_units_Z 96
_cell_length_a 8.149208
_cell_length_b 27.558078
_cell_length_c 23.647984
_cell_angle_alpha 90.000000
_cell_angle_beta 90.000000
_cell_angle_gamma 90.000000
_cell_volume 5310.781708
_symmetry_space_group_name_H-M "I M M M"
_symmetry_group_IT_number 71
_symmetry_cell_setting 'orthorhombic'
loop_
_space_group_symop_operation_xyz
x,y,z
-x,-y,z
x,-y,-z
-x,y,-z
-x,-y,-z
x,y,-z
-x,y,z
x,-y,z
1/2+x,1/2+y,1/2+z
1/2-x,1/2-y,1/2+z
1/2+x,1/2-y,1/2-z
1/2-x,1/2+y,1/2-z
1/2-x,1/2-y,1/2-z
1/2+x,1/2+y,1/2-z
1/2-x,1/2+y,1/2+z
1/2+x,1/2-y,1/2+z
loop_
_atom_site_type_symbol
_atom_site_label
_atom_site_fract_x
_atom_site_fract_y
_atom_site_fract_z
Si Si1 0.299403 0.179979 0.565782
Si Si2 0.686755 0.116772 0.335968
Si Si3 0.305050 0.444261 0.729812
Si Si4 0.302639 0.710439 0.433252
Si Si5 0.188623 0.642384 0.661938
Si Si6 0.315701 0.697753 0.763383
O O1 0.253728 0.174953 0.500000
O O2 0.500000 0.179638 0.568565
O O3 0.241950 0.134501 0.603870
O O4 0.248851 0.234723 0.584864
O O5 0.500000 0.100129 0.343225
O O6 0.771053 0.080694 0.291150
O O7 0.695160 0.168186 0.303465
O O8 0.500000 0.442715 0.720552
O O9 0.250231 0.500000 0.730705
O O10 0.220141 0.413298 0.679722
O O11 0.267390 0.706626 0.500000
O O12 0.500000 0.708302 0.426298
O O13 0.224134 0.666291 0.398520
O O14 0.310313 0.669883 0.704166
O O15 0.000000 0.653435 0.676633
O O16 0.500000 0.697683 0.786549
O O17 0.250000 0.750000 0.750000
#
# Coordination Sequence:
#
# PCOD9517897 Si02
#       6
#    16  16  16  16  16  16
#     4   8  15  28  47  72 101 134 168 198 230 274
#     4  10  18  29  49  74  98 125 159 201 247 294
#     4  10  21  37  55  72  93 124 162 206 256 307
#     4   9  17  31  51  73 102 141 176 201 230 278
#     4  11  21  32  49  73 100 128 160 202 250 298
#     4  11  20  30  44  65  97 130 162 199 241 293
#
# _framework density 18.076435
#
# number of rings (size 3 to 8) (size 9 to 14) (size 15 to 20)
#    0.000    2.167    0.000    8.000    0.000    3.000 
#    0.000    0.833    0.000    5.000    0.000    7.000 
#    0.000    0.000    0.000    0.000    0.000    0.000 
#
# Total GULP energy -267322.115819 kJ/mol
# GULP energy per Si atom -5569.210746 kJ/mol
# Density = 1.803529 g / cm^3
# Si number density = 18.076435 Si / 1000 Ang^3
#
#
#
# Elastic Constant Matrix: (Units=GPa)
#
#
# Indices 1 2 3 4 5 6 
#
# 1 48.3378 5.8647 6.9322 0.0000 0.0000 0.0000
# 2 5.8647 74.9660 17.1021 0.0000 0.0000 0.0000
# 3 6.9322 17.1021 60.1242 0.0000 0.0000 0.0000
# 4 0.0000 0.0000 0.0000 23.8787 0.0000 0.0000
# 5 0.0000 0.0000 0.0000 0.0000 19.2616 0.0000
# 6 0.0000 0.0000 0.0000 0.0000 0.0000 13.8720
#
#
#
# Elastic Compliance Matrix: (Units=1/GPa)
#
#
# Indices 1 2 3 4 5 6 
#
# 1 0.021132 -0.001173 -0.002103 0.000000 0.000000 0.000000
# 2 -0.001173 0.014330 -0.003941 0.000000 0.000000 0.000000
# 3 -0.002103 -0.003941 0.017996 0.000000 0.000000 0.000000
# 4 0.000000 0.000000 0.000000 0.041878 0.000000 0.000000
# 5 0.000000 0.000000 0.000000 0.000000 0.051917 0.000000
# 6 0.000000 0.000000 0.000000 0.000000 0.000000 0.072088
#
#
# Mechanical properties :
#
#
# Convention : Reuss Voigt Hill
#
# Bulk Modulus (GPa) = 25.62558 27.02512 26.32535
# Shear Modulus (GPa) = 20.26077 21.63772 20.94925
#
# Velocity S-wave (km/s) = 3.35153 3.46354 3.40799
# Velocity P-wave (km/s) = 5.40222 5.56577 5.48460
#
# Compressibility (1/GPa) = 0.03902350
#
# Stress axis : x y z
#
# Youngs Moduli (GPa) = 47.32229 69.78265 55.56909
#
# Poissons Ratio (x) = 0.08189 0.11684
# Poissons Ratio (y) = 0.05553 0.21899
# Poissons Ratio (z) = 0.09950 0.27500
#
# Static dielectric constant tensor:
#      x y z
#    x 1.614210 0.000000 0.000000 
#    y 0.000000 1.527290 0.000000 
#    z 0.000000 0.000000 1.675430 
# 
# From -- ./inp_files/57884.got.cif
#   From: 2010.05.17/outbox.cif.g08.bks.cpg/sg71_29_cif.got.tgz:57884.got - 2010.06.03 16:22:01.
