data_PCOD9517146
_publ_section_title
;
Structure prediction by ZEFSAII (Michael W. Deem and Ramdas Pophale) SiO2 
 PCOD9517146
Probable space group: F D D D
;
_chemical_formula_sum "Si O2"
_cell_formula_units_Z 96
_cell_length_a 14.056194
_cell_length_b 34.530999
_cell_length_c 6.555983
_cell_angle_alpha 90.000000
_cell_angle_beta 90.000000
_cell_angle_gamma 90.000000
_cell_volume 3182.106452
_symmetry_space_group_name_H-M "F D D D"
_symmetry_group_IT_number 70
_space_group.IT_coordinate_system_code '2'
_symmetry_cell_setting 'orthorhombic'
loop_
_space_group_symop_operation_xyz
x,y,z
1/4-x,1/4-y,z
x,1/4-y,1/4-z
1/4-x,y,1/4-z
-x,-y,-z
3/4+x,3/4+y,-z
-x,3/4+y,3/4+z
3/4+x,-y,3/4+z
x,1/2+y,1/2+z
1/4-x,3/4-y,1/2+z
x,3/4-y,3/4-z
1/4-x,1/2+y,3/4-z
-x,1/2-y,1/2-z
3/4+x,1/4+y,1/2-z
-x,1/4+y,1/4+z
3/4+x,1/2-y,1/4+z
1/2+x,y,1/2+z
3/4-x,1/4-y,1/2+z
1/2+x,1/4-y,3/4-z
3/4-x,y,3/4-z
1/2-x,-y,1/2-z
1/4+x,3/4+y,1/2-z
1/2-x,3/4+y,1/4+z
1/4+x,-y,1/4+z
1/2+x,1/2+y,z
3/4-x,3/4-y,z
1/2+x,3/4-y,1/4-z
3/4-x,1/2+y,1/4-z
1/2-x,1/2-y,-z
1/4+x,1/4+y,-z
1/2-x,1/4+y,3/4+z
1/4+x,1/2-y,3/4+z
loop_
_atom_site_type_symbol
_atom_site_label
_atom_site_fract_x
_atom_site_fract_y
_atom_site_fract_z
Si Si1 0.262698 0.052282 0.408864
Si Si2 0.985485 0.030490 0.307027
Si Si3 0.759454 0.636160 0.359319
O O1 0.375000 0.056694 0.375000
O O2 0.234166 0.038183 0.182359
O O3 0.231284 0.095875 0.466761
O O4 0.250201 0.016220 0.563278
O O5 0.875000 0.033273 0.375000
O O6 0.029392 0.070566 0.393379
O O7 0.875000 0.639080 0.375000
O O8 0.739332 0.625000 0.125000
#
# Coordination Sequence:
#
# PCOD9517146 Si02
#       3
#    32  32  32
#     4   9  17  29  47  72  99 130 173 217 257 315
#     4   9  17  29  47  71  98 132 172 213 263 316
#     4   8  14  26  44  66  92 123 162 207 252 306
#
# _framework density 30.168696000000001
#
# number of rings (size 3 to 8) (size 9 to 14) (size 15 to 20)
#    0.000    3.333    0.000    0.000    0.000    1.333 
#    0.000    0.000    0.000   25.000    0.000    2.333 
#    0.000    0.000    0.000    0.000    0.000   23.000 
#
# Total GULP energy -133884.013587 kJ/mol
# GULP energy per Si atom -5578.500566 kJ/mol
# Density = 3.010003 g / cm^3
# Si number density = 30.168696 Si / 1000 Ang^3
#
#
#
# Elastic Constant Matrix: (Units=GPa)
#
#
# Indices 1 2 3 4 5 6 
#
# 1 102.5886 40.1138 4.0259 0.0000 0.0001 -0.0002
# 2 40.1138 517.1182 106.0364 0.0000 0.0000 -0.0001
# 3 4.0259 106.0364 101.3863 0.0001 0.0002 -0.0005
# 4 0.0000 0.0000 0.0001 90.1513 -0.0001 0.0002
# 5 0.0001 0.0000 0.0002 -0.0001 22.2125 0.0003
# 6 -0.0002 -0.0001 -0.0005 0.0002 0.0003 -135.1396
#
#
#
# Elastic Compliance Matrix: (Units=1/GPa)
#
#
# Indices 1 2 3 4 5 6 
#
# 1 0.010075 -0.000890 0.000531 0.000000 0.000000 0.000000
# 2 -0.000890 0.002540 -0.002622 0.000000 0.000000 0.000000
# 3 0.000531 -0.002622 0.012584 0.000000 0.000000 0.000000
# 4 0.000000 0.000000 0.000000 0.011092 0.000000 0.000000
# 5 0.000000 0.000000 0.000000 0.000000 0.045020 0.000000
# 6 0.000000 0.000000 0.000000 0.000000 0.000000 -0.007400
#
#
# Mechanical properties :
#
#
# Convention : Reuss Voigt Hill
#
# Bulk Modulus (GPa) = 51.98091 113.49390 82.73740
# Shear Modulus (GPa) = 57.94681 33.50597 45.72639
#
# Velocity S-wave (km/s) = 4.38740 3.33621 3.89741
# Velocity P-wave (km/s) = 6.55234 7.24858 6.90923
#
# Compressibility (1/GPa) = 0.01923783
#
# Stress axis : x y z
#
# Youngs Moduli (GPa) = 99.25546 393.63355 79.46594
#
# Poissons Ratio (x) = 0.35052 -0.04222
# Poissons Ratio (y) = 0.08838 0.20833
# Poissons Ratio (z) = -0.05273 1.03195
#
# Static dielectric constant tensor:
#      x y z
#    x 2.308100 0.000000 0.000000 
#    y 0.000000 2.353130 0.000000 
#    z 0.000000 0.000000 4.242420 
# 
# From -- ./inp_files/9276.got.cif
#   From: 2010.05.17/outbox.cif.g08.bks.cpg/sg70_5_cif.got.tgz:9276.got - 2010.06.03 15:57:51.
