data_PCOD9517498
_publ_section_title
;
Structure prediction by ZEFSAII (Michael W. Deem and Ramdas Pophale) SiO2 
 PCOD9517498
Probable space group: I M M M
;
_chemical_formula_sum "Si O2"
_cell_formula_units_Z 76
_cell_length_a 11.094709
_cell_length_b 28.425784
_cell_length_c 12.446925
_cell_angle_alpha 90.000000
_cell_angle_beta 90.000000
_cell_angle_gamma 90.000000
_cell_volume 3925.458949
_symmetry_space_group_name_H-M "I M M M"
_symmetry_group_IT_number 71
_symmetry_cell_setting 'orthorhombic'
loop_
_space_group_symop_operation_xyz
x,y,z
-x,-y,z
x,-y,-z
-x,y,-z
-x,-y,-z
x,y,-z
-x,y,z
x,-y,z
1/2+x,1/2+y,1/2+z
1/2-x,1/2-y,1/2+z
1/2+x,1/2-y,1/2-z
1/2-x,1/2+y,1/2-z
1/2-x,1/2-y,1/2-z
1/2+x,1/2+y,1/2-z
1/2-x,1/2+y,1/2+z
1/2+x,1/2-y,1/2+z
loop_
_atom_site_type_symbol
_atom_site_label
_atom_site_fract_x
_atom_site_fract_y
_atom_site_fract_z
Si Si1 0.141143 0.000000 0.381326
Si Si2 0.735002 0.582938 0.262841
Si Si3 0.768982 0.945497 0.000000
Si Si4 0.000000 0.758913 0.622276
Si Si5 0.236101 0.824085 0.621270
Si Si6 0.000000 0.693363 0.824922
Si Si7 0.000000 0.587011 0.500000
Si Si8 0.000000 0.405446 0.267849
O O1 0.170325 0.953901 0.312813
O O2 0.199729 0.000000 0.500000
O O3 0.000000 0.000000 0.395320
O O4 0.694036 0.578833 0.387263
O O5 0.729656 0.634970 0.211253
O O6 0.875725 0.567640 0.258900
O O7 0.622737 0.942609 0.000000
O O8 0.807036 0.000000 0.000000
O O9 0.878837 0.790182 0.635573
O O10 0.000000 0.740919 0.500000
O O11 0.000000 0.718820 0.710818
O O12 0.227319 0.844530 0.500000
O O13 0.366358 0.797661 0.626953
O O14 0.000000 0.636873 0.815274
O O15 0.000000 0.615382 0.610768
#
# Coordination Sequence:
#
# PCOD9517498 Si02
#       8
#     8  16   8   8  16   8   4   8
#     4  11  24  38  56  79 106 152 200 241 280 334
#     4  10  20  37  57  84 116 148 191 235 282 344
#     4  10  17  32  54  82 114 148 184 230 288 332
#     4  10  22  37  61  89 115 153 194 238 290 355
#     4  10  21  38  60  85 118 157 194 238 291 347
#     4  10  19  36  60  87 117 145 190 242 294 348
#     4   8  15  26  48  78 112 144 176 208 270 343
#     4   8  18  31  55  83 111 145 175 224 282 335
#
# _framework density 19.360793999999999
#
# number of rings (size 3 to 8) (size 9 to 14) (size 15 to 20)
#    0.000    2.211    1.053    1.737    2.211    0.421 
#    1.895    3.158    4.632    0.000    0.000    0.000 
#    0.000    0.000    0.000    0.000    0.000    0.000 
#
# Total GULP energy -211537.501366 kJ/mol
# GULP energy per Si atom -5566.776352 kJ/mol
# Density = 1.931673 g / cm^3
# Si number density = 19.360794 Si / 1000 Ang^3
#
#
#
# Elastic Constant Matrix: (Units=GPa)
#
#
# Indices 1 2 3 4 5 6 
#
# 1 99.1034 18.0243 30.7423 0.0003 0.0000 0.0000
# 2 18.0243 41.2980 41.3776 0.0011 0.0000 0.0000
# 3 30.7423 41.3776 143.6391 0.0059 0.0004 0.0001
# 4 0.0003 0.0011 0.0059 -92.3024 0.0000 -0.0002
# 5 0.0000 0.0000 0.0004 0.0000 25.9579 0.0000
# 6 0.0000 0.0000 0.0001 -0.0002 0.0000 12.5962
#
#
#
# Elastic Compliance Matrix: (Units=1/GPa)
#
#
# Indices 1 2 3 4 5 6 
#
# 1 0.011153 -0.003481 -0.001384 0.000000 0.000000 0.000000
# 2 -0.003481 0.035125 -0.009373 0.000000 0.000000 0.000000
# 3 -0.001384 -0.009373 0.009958 0.000001 0.000000 0.000000
# 4 0.000000 0.000000 0.000001 -0.010834 0.000000 0.000000
# 5 0.000000 0.000000 0.000000 0.000000 0.038524 0.000000
# 6 0.000000 0.000000 0.000000 0.000000 0.000000 0.079389
#
#
# Mechanical properties :
#
#
# Convention : Reuss Voigt Hill
#
# Bulk Modulus (GPa) = 36.02384 51.59212 43.80798
# Shear Modulus (GPa) = 24.87004 2.17674 13.52339
#
# Velocity S-wave (km/s) = 3.58796 1.06148 2.64577
# Velocity P-wave (km/s) = 5.98428 5.31111 5.65772
#
# Compressibility (1/GPa) = 0.02775940
#
# Stress axis : x y z
#
# Youngs Moduli (GPa) = 89.66244 28.46993 100.41853
#
# Poissons Ratio (x) = 0.09909 0.13901
# Poissons Ratio (y) = 0.31208 0.94126
# Poissons Ratio (z) = 0.12412 0.26686
#
# Static dielectric constant tensor:
#      x y z
#    x 1.710170 0.000000 0.000000 
#    y 0.000000 1.640090 0.000000 
#    z 0.000000 0.000000 1.722670 
# 
# From -- ./inp_files/20253.got.cif
#   From: 2010.05.17/outbox.cif.g08.bks.cpg/sg71_11_cif.got.tgz:20253.got - 2010.06.03 16:22:01.
