data_PCOD9517920
_publ_section_title
;
Structure prediction by ZEFSAII (Michael W. Deem and Ramdas Pophale) SiO2 
 PCOD9517920
Probable space group: I M M M
;
_chemical_formula_sum "Si O2"
_cell_formula_units_Z 104
_cell_length_a 28.287042
_cell_length_b 12.177156
_cell_length_c 17.824947
_cell_angle_alpha 90.000000
_cell_angle_beta 90.000000
_cell_angle_gamma 90.000000
_cell_volume 6139.905010
_symmetry_space_group_name_H-M "I M M M"
_symmetry_group_IT_number 71
_symmetry_cell_setting 'orthorhombic'
loop_
_space_group_symop_operation_xyz
x,y,z
-x,-y,z
x,-y,-z
-x,y,-z
-x,-y,-z
x,y,-z
-x,y,z
x,-y,z
1/2+x,1/2+y,1/2+z
1/2-x,1/2-y,1/2+z
1/2+x,1/2-y,1/2-z
1/2-x,1/2+y,1/2-z
1/2-x,1/2-y,1/2-z
1/2+x,1/2+y,1/2-z
1/2-x,1/2+y,1/2+z
1/2+x,1/2-y,1/2+z
loop_
_atom_site_type_symbol
_atom_site_label
_atom_site_fract_x
_atom_site_fract_y
_atom_site_fract_z
Si Si1 0.706748 0.000000 0.591127
Si Si2 0.944311 0.873346 0.677808
Si Si3 0.685419 0.500000 0.090986
Si Si4 0.000000 0.126207 0.911088
Si Si5 0.719400 0.874344 0.908728
Si Si6 0.096455 0.128059 0.156203
Si Si7 0.133729 0.224933 0.409813
Si Si8 0.184894 0.744359 0.091116
O O1 0.760928 0.000000 0.617869
O O2 0.684223 0.884064 0.612521
O O3 0.708114 0.000000 0.500000
O O4 0.916414 0.868999 0.756306
O O5 0.918266 0.787016 0.624195
O O6 0.000000 0.851727 0.689360
O O7 0.940944 0.000000 0.649029
O O8 0.659007 0.389381 0.113056
O O9 0.686764 0.500000 0.000000
O O10 0.950687 0.174708 0.883698
O O11 0.000000 0.000000 0.880386
O O12 0.000000 0.122129 0.000000
O O13 0.669619 0.820506 0.884729
O O14 0.764433 0.798879 0.888745
O O15 0.725031 0.000000 0.883264
O O16 0.718621 0.875080 0.000000
O O17 0.142700 0.192157 0.131283
O O18 0.102521 0.000000 0.133650
O O19 0.130977 0.228888 0.500000
O O20 0.180096 0.753176 0.000000
#
# Coordination Sequence:
#
# PCOD9517920 Si02
#       8
#     8  16   8   8  16  16  16  16
#     4   9  16  28  48  74 106 136 163 199 246 294
#     4  10  20  34  51  72 101 133 163 206 264 306
#     4   9  14  26  47  74 100 128 163 196 238 292
#     4   9  16  28  48  71  94 124 166 208 243 289
#     4   9  17  29  48  76 107 134 161 201 251 295
#     4  10  19  32  48  71 102 132 164 205 255 302
#     4  10  18  30  52  77 101 130 166 205 243 298
#     4  10  18  29  50  77 104 134 167 204 244 293
#
# _framework density 16.938372999999999
#
# number of rings (size 3 to 8) (size 9 to 14) (size 15 to 20)
#    0.000    2.385    3.077    0.923    0.000    1.846 
#    0.000    1.538    1.692    0.923    0.000    4.308 
#    0.000    0.000    0.000    0.000    0.000    0.000 
#
# Total GULP energy -289674.508487 kJ/mol
# GULP energy per Si atom -5570.663625 kJ/mol
# Density = 1.689982 g / cm^3
# Si number density = 16.938373 Si / 1000 Ang^3
#
#
#
# Elastic Constant Matrix: (Units=GPa)
#
#
# Indices 1 2 3 4 5 6 
#
# 1 115.5622 51.4427 29.2889 0.0000 0.0000 0.0000
# 2 51.4427 101.9434 17.5228 0.0000 0.0000 0.0000
# 3 29.2889 17.5228 19.0304 0.0000 0.0000 0.0000
# 4 0.0000 0.0000 0.0000 11.0151 0.0000 0.0000
# 5 0.0000 0.0000 0.0000 0.0000 44.8685 0.0000
# 6 0.0000 0.0000 0.0000 0.0000 0.0000 25.2868
#
#
#
# Elastic Compliance Matrix: (Units=1/GPa)
#
#
# Indices 1 2 3 4 5 6 
#
# 1 0.015747 -0.004491 -0.020100 0.000000 0.000000 0.000000
# 2 -0.004491 0.012935 -0.004998 0.000000 0.000000 0.000000
# 3 -0.020100 -0.004998 0.088084 0.000000 0.000000 0.000000
# 4 0.000000 0.000000 0.000000 0.090785 0.000000 0.000000
# 5 0.000000 0.000000 0.000000 0.000000 0.022287 0.000000
# 6 0.000000 0.000000 0.000000 0.000000 0.000000 0.039546
#
#
# Mechanical properties :
#
#
# Convention : Reuss Voigt Hill
#
# Bulk Modulus (GPa) = 17.36474 48.11610 32.74042
# Shear Modulus (GPa) = 14.37781 25.45286 19.91534
#
# Velocity S-wave (km/s) = 2.91663 3.88064 3.43264
# Velocity P-wave (km/s) = 4.64933 6.96760 5.92299
#
# Compressibility (1/GPa) = 0.05758796
#
# Stress axis : x y z
#
# Youngs Moduli (GPa) = 63.50454 77.31074 11.35278
#
# Poissons Ratio (x) = 0.34722 0.22819
# Poissons Ratio (y) = 0.28522 0.05674
# Poissons Ratio (z) = 1.27644 0.38638
#
# Static dielectric constant tensor:
#      x y z
#    x 1.584570 0.000000 0.000000 
#    y 0.000000 1.571890 0.000000 
#    z 0.000000 0.000000 1.588610 
# 
# From -- ./inp_files/48911.got.cif
#   From: 2010.05.17/outbox.cif.g08.bks.cpg/sg71_25_cif.got.tgz:48911.got - 2010.06.03 16:22:01.
