data_PCOD9517808
_publ_section_title
;
Structure prediction by ZEFSAII (Michael W. Deem and Ramdas Pophale) SiO2 
 PCOD9517808
Probable space group: I M M M
;
_chemical_formula_sum "Si O2"
_cell_formula_units_Z 96
_cell_length_a 26.515742
_cell_length_b 24.300191
_cell_length_c 7.338029
_cell_angle_alpha 90.000000
_cell_angle_beta 90.000000
_cell_angle_gamma 90.000000
_cell_volume 4728.167959
_symmetry_space_group_name_H-M "I M M M"
_symmetry_group_IT_number 71
_symmetry_cell_setting 'orthorhombic'
loop_
_space_group_symop_operation_xyz
x,y,z
-x,-y,z
x,-y,-z
-x,y,-z
-x,-y,-z
x,y,-z
-x,y,z
x,-y,z
1/2+x,1/2+y,1/2+z
1/2-x,1/2-y,1/2+z
1/2+x,1/2-y,1/2-z
1/2-x,1/2+y,1/2-z
1/2-x,1/2-y,1/2-z
1/2+x,1/2+y,1/2-z
1/2-x,1/2+y,1/2+z
1/2+x,1/2-y,1/2+z
loop_
_atom_site_type_symbol
_atom_site_label
_atom_site_fract_x
_atom_site_fract_y
_atom_site_fract_z
Si Si1 0.194375 0.436771 0.221886
Si Si2 0.000000 0.436453 0.777153
Si Si3 0.000000 0.937036 0.278051
Si Si4 0.442160 0.751079 0.217919
Si Si5 0.808718 0.936871 0.278044
Si Si6 0.096906 0.866241 0.722518
Si Si7 0.401634 0.129052 0.283361
O O1 0.182698 0.500000 0.273334
O O2 0.251538 0.423968 0.280096
O O3 0.150924 0.395661 0.286010
O O4 0.195105 0.435667 0.000000
O O5 0.049965 0.404734 0.714408
O O6 0.000000 0.500000 0.722985
O O7 0.000000 0.435269 0.000000
O O8 0.950089 0.904355 0.222561
O O9 0.000000 0.937480 0.500000
O O10 0.000000 0.000000 0.217548
O O11 0.500000 0.755178 0.286624
O O12 0.414730 0.695791 0.283397
O O13 0.411906 0.806753 0.254628
O O14 0.445790 0.745907 0.000000
O O15 0.808995 0.936521 0.500000
O O16 0.851082 0.894137 0.217306
O O17 0.820509 0.000000 0.224441
O O18 0.097831 0.865875 0.500000
O O19 0.400771 0.120064 0.500000
#
# Coordination Sequence:
#
# PCOD9517808 Si02
#       7
#    16   8   8  16  16  16  16
#     4   8  14  25  42  64  87 109 135 175 226 267
#     4   9  16  25  41  65  85 101 130 177 224 258
#     4   9  14  19  32  56  83 109 140 179 216 252
#     4  10  19  31  44  59  87 124 151 174 211 258
#     4   8  13  22  38  61  88 114 139 173 220 266
#     4   9  15  24  37  56  84 118 149 173 209 259
#     4  10  18  29  46  66  86 110 146 184 215 255
#
# _framework density 20.303849
#
# number of rings (size 3 to 8) (size 9 to 14) (size 15 to 20)
#    0.000    3.000    1.667    2.000    0.000    4.000 
#    0.000    0.833    0.000    2.500    0.000    0.000 
#    0.000    4.667    0.000    0.000    0.000    0.000 
#
# Total GULP energy -267953.413474 kJ/mol
# GULP energy per Si atom -5582.362781 kJ/mol
# Density = 2.025764 g / cm^3
# Si number density = 20.303849 Si / 1000 Ang^3
#
#
#
# Elastic Constant Matrix: (Units=GPa)
#
#
# Indices 1 2 3 4 5 6 
#
# 1 204.1292 145.5743 6.3451 0.0000 0.0000 0.0000
# 2 145.5743 205.4132 -1.6470 0.0000 0.0000 0.0000
# 3 6.3451 -1.6470 76.5415 0.0000 0.0000 0.0000
# 4 0.0000 0.0000 0.0000 14.1266 0.0000 0.0000
# 5 0.0000 0.0000 0.0000 0.0000 2.6199 0.0000
# 6 0.0000 0.0000 0.0000 0.0000 0.0000 23.7935
#
#
#
# Elastic Compliance Matrix: (Units=1/GPa)
#
#
# Indices 1 2 3 4 5 6 
#
# 1 0.009978 -0.007079 -0.000979 0.000000 0.000000 0.000000
# 2 -0.007079 0.009891 0.000800 0.000000 0.000000 0.000000
# 3 -0.000979 0.000800 0.013163 0.000000 0.000000 0.000000
# 4 0.000000 0.000000 0.000000 0.070789 0.000000 0.000000
# 5 0.000000 0.000000 0.000000 0.000000 0.381690 0.000000
# 6 0.000000 0.000000 0.000000 0.000000 0.000000 0.042028
#
#
# Mechanical properties :
#
#
# Convention : Reuss Voigt Hill
#
# Bulk Modulus (GPa) = 54.01062 87.40318 70.70690
# Shear Modulus (GPa) = 9.12030 30.49544 19.80787
#
# Velocity S-wave (km/s) = 2.12171 3.87971 3.12680
# Velocity P-wave (km/s) = 5.71499 7.95051 6.92357
#
# Compressibility (1/GPa) = 0.01851488
#
# Stress axis : x y z
#
# Youngs Moduli (GPa) = 100.22475 101.09831 75.96930
#
# Poissons Ratio (x) = 0.71566 0.07441
# Poissons Ratio (y) = 0.70948 -0.06075
# Poissons Ratio (z) = 0.09816 -0.08084
#
# Static dielectric constant tensor:
#      x y z
#    x 1.698960 0.000000 0.000000 
#    y 0.000000 1.678070 0.000000 
#    z 0.000000 0.000000 1.825330 
# 
# From -- ./inp_files/27585.got.cif
#   From: 2010.05.17/outbox.cif.g08.bks.cpg/sg71_14_cif.got.tgz:27585.got - 2010.06.03 16:22:01.
