data_PCOD9517241
_publ_section_title
;
Structure prediction by ZEFSAII (Michael W. Deem and Ramdas Pophale) SiO2 
 PCOD9517241
Probable space group: I M M M
;
_chemical_formula_sum "Si O2"
_cell_formula_units_Z 60
_cell_length_a 12.827246
_cell_length_b 21.297759
_cell_length_c 14.450425
_cell_angle_alpha 90.000000
_cell_angle_beta 90.000000
_cell_angle_gamma 90.000000
_cell_volume 3947.734639
_symmetry_space_group_name_H-M "I M M M"
_symmetry_group_IT_number 71
_symmetry_cell_setting 'orthorhombic'
loop_
_space_group_symop_operation_xyz
x,y,z
-x,-y,z
x,-y,-z
-x,y,-z
-x,-y,-z
x,y,-z
-x,y,z
x,-y,z
1/2+x,1/2+y,1/2+z
1/2-x,1/2-y,1/2+z
1/2+x,1/2-y,1/2-z
1/2-x,1/2+y,1/2-z
1/2-x,1/2-y,1/2-z
1/2+x,1/2+y,1/2-z
1/2-x,1/2+y,1/2+z
1/2+x,1/2-y,1/2+z
loop_
_atom_site_type_symbol
_atom_site_label
_atom_site_fract_x
_atom_site_fract_y
_atom_site_fract_z
Si Si1 0.380648 0.791000 0.000000
Si Si2 0.500000 0.073509 0.296107
Si Si3 0.500000 0.874645 0.500000
Si Si4 0.614759 0.295123 0.301557
Si Si5 0.337646 0.836564 0.798497
Si Si6 0.338216 0.763119 0.500000
O O1 0.362442 0.831700 0.092582
O O2 0.288200 0.738818 0.000000
O O3 0.500000 0.767545 0.000000
O O4 0.500000 0.086351 0.405825
O O5 0.401259 0.109164 0.251297
O O6 0.500000 0.000000 0.276531
O O7 0.398445 0.828999 0.500000
O O8 0.500000 0.321688 0.285308
O O9 0.626832 0.230883 0.243042
O O10 0.713736 0.338661 0.281539
O O11 0.626414 0.273222 0.407977
#
# Coordination Sequence:
#
# PCOD9517241 Si02
#       6
#     8   8   4  16  16   8
#     4  10  18  28  45  73 108 134 154 201 255 311
#     4  12  23  37  52  69 101 140 175 207 237 292
#     4  12  19  36  50  76 100 126 171 206 246 304
#     4  10  16  28  49  73 103 129 153 211 264 298
#     4  10  19  30  46  72 100 131 171 201 246 302
#     4  10  16  25  50  74 105 130 155 202 261 310
#
# _framework density 15.198589999999999
#
# number of rings (size 3 to 8) (size 9 to 14) (size 15 to 20)
#    0.000    1.600    6.667    0.200    0.000    0.000 
#    0.000    1.333    0.000    0.800    0.000    0.000 
#    0.000    9.600    0.000    0.000    0.000    0.000 
#
# Total GULP energy -167197.753693 kJ/mol
# GULP energy per Si atom -5573.258456 kJ/mol
# Density = 1.516400 g / cm^3
# Si number density = 15.198590 Si / 1000 Ang^3
#
#
#
# Elastic Constant Matrix: (Units=GPa)
#
#
# Indices 1 2 3 4 5 6 
#
# 1 177.7413 47.2892 27.8675 0.0000 0.0000 0.0000
# 2 47.2892 72.0125 34.2447 -0.0001 0.0000 0.0000
# 3 27.8675 34.2447 107.8448 -0.0001 0.0000 0.0000
# 4 0.0000 -0.0001 -0.0001 -3.3467 -0.0001 0.0000
# 5 0.0000 0.0000 0.0000 -0.0001 21.2649 0.0000
# 6 0.0000 0.0000 0.0000 0.0000 0.0000 10.5899
#
#
#
# Elastic Compliance Matrix: (Units=1/GPa)
#
#
# Indices 1 2 3 4 5 6 
#
# 1 0.006832 -0.004296 -0.000401 0.000000 0.000000 0.000000
# 2 -0.004296 0.019057 -0.004941 -0.000001 0.000000 0.000000
# 3 -0.000401 -0.004941 0.010945 0.000000 0.000000 0.000000
# 4 0.000000 -0.000001 0.000000 -0.298798 -0.000001 0.000000
# 5 0.000000 0.000000 0.000000 -0.000001 0.047026 0.000000
# 6 0.000000 0.000000 0.000000 0.000000 0.000000 0.094429
#
#
# Mechanical properties :
#
#
# Convention : Reuss Voigt Hill
#
# Bulk Modulus (GPa) = 56.95465 64.04459 60.49962
# Shear Modulus (GPa) = -52.42237 22.24810 -15.08714
#
# Velocity S-wave (km/s) = -5.87933 3.83015 -3.15408
# Velocity P-wave (km/s) = 2.92124 7.86066 5.16025
#
# Compressibility (1/GPa) = 0.01755783
#
# Stress axis : x y z
#
# Youngs Moduli (GPa) = 146.37133 52.47406 91.36285
#
# Poissons Ratio (x) = 0.22540 0.03667
# Poissons Ratio (y) = 0.62874 0.45145
# Poissons Ratio (z) = 0.05876 0.25929
#
# Static dielectric constant tensor:
#      x y z
#    x 1.560890 0.000000 0.000000 
#    y 0.000000 1.445630 0.000000 
#    z 0.000000 0.000000 1.529260 
# 
# From -- ./inp_files/32437.got.cif
#   From: 2010.05.17/outbox.cif.g08.bks.cpg/sg71_17_cif.got.tgz:32437.got - 2010.06.03 16:22:01.
