data_PCOD9517855
_publ_section_title
;
Structure prediction by ZEFSAII (Michael W. Deem and Ramdas Pophale) SiO2 
 PCOD9517855
Probable space group: I M M M
;
_chemical_formula_sum "Si O2"
_cell_formula_units_Z 120
_cell_length_a 20.860553
_cell_length_b 23.646265
_cell_length_c 14.425082
_cell_angle_alpha 90.000000
_cell_angle_beta 90.000000
_cell_angle_gamma 90.000000
_cell_volume 7115.520268
_symmetry_space_group_name_H-M "I M M M"
_symmetry_group_IT_number 71
_symmetry_cell_setting 'orthorhombic'
loop_
_space_group_symop_operation_xyz
x,y,z
-x,-y,z
x,-y,-z
-x,y,-z
-x,-y,-z
x,y,-z
-x,y,z
x,-y,z
1/2+x,1/2+y,1/2+z
1/2-x,1/2-y,1/2+z
1/2+x,1/2-y,1/2-z
1/2-x,1/2+y,1/2-z
1/2-x,1/2-y,1/2-z
1/2+x,1/2+y,1/2-z
1/2-x,1/2+y,1/2+z
1/2+x,1/2-y,1/2+z
loop_
_atom_site_type_symbol
_atom_site_label
_atom_site_fract_x
_atom_site_fract_y
_atom_site_fract_z
Si Si1 0.570372 0.706636 0.889669
Si Si2 0.305811 0.365260 0.108354
Si Si3 0.396654 0.064571 0.244640
Si Si4 0.745459 0.329337 0.609844
Si Si5 0.500000 0.067236 0.601521
Si Si6 0.116851 0.316582 0.701925
Si Si7 0.256878 0.436627 0.734685
Si Si8 0.821706 0.288046 0.891843
O O1 0.500000 0.681088 0.873868
O O2 0.629960 0.667439 0.862238
O O3 0.575335 0.765882 0.837051
O O4 0.577391 0.717112 0.000000
O O5 0.292714 0.418956 0.171952
O O6 0.244326 0.323778 0.119401
O O7 0.310870 0.379280 0.000000
O O8 0.436798 0.077198 0.337395
O O9 0.409461 0.120192 0.182981
O O10 0.319715 0.065253 0.255584
O O11 0.413766 0.000000 0.214367
O O12 0.751836 0.337221 0.500000
O O13 0.813967 0.311742 0.652309
O O14 0.728150 0.387680 0.660616
O O15 0.696772 0.277513 0.625327
O O16 0.500000 0.094328 0.500000
O O17 0.500000 0.000000 0.589780
O O18 0.130426 0.308381 0.811726
O O19 0.272096 0.500000 0.703621
O O20 0.841895 0.294590 0.000000
#
# Coordination Sequence:
#
# PCOD9517855 Si02
#       8
#    16  16  16  16   8  16  16  16
#     4  10  21  34  51  75  99 127 170 213 254 305
#     4  10  18  32  52  74 101 130 160 205 258 306
#     4   9  19  31  43  64  93 127 166 201 237 281
#     4  10  18  29  47  71  99 131 160 194 240 292
#     4   9  18  32  46  58  81 123 167 201 235 280
#     4  11  18  30  50  69  99 129 165 204 252 287
#     4  10  20  33  49  74 100 128 164 204 246 295
#     4  10  18  29  49  77 101 126 160 199 251 308
#
# _framework density 16.864543999999999
#
# number of rings (size 3 to 8) (size 9 to 14) (size 15 to 20)
#    0.000    2.067    4.000    1.600    0.933    1.600 
#    0.000    1.333    0.000    1.600    0.000    2.800 
#    0.000    0.000    0.000    4.800    0.000    0.000 
#
# Total GULP energy -334259.454788 kJ/mol
# GULP energy per Si atom -5570.990913 kJ/mol
# Density = 1.682616 g / cm^3
# Si number density = 16.864544 Si / 1000 Ang^3
#
#
#
# Elastic Constant Matrix: (Units=GPa)
#
#
# Indices 1 2 3 4 5 6 
#
# 1 23.4031 6.6204 8.5993 0.0000 0.0000 0.0000
# 2 6.6204 69.2802 21.3847 0.0000 0.0000 0.0000
# 3 8.5993 21.3847 45.0076 0.0000 0.0000 0.0000
# 4 0.0000 0.0000 0.0000 17.9499 0.0000 0.0000
# 5 0.0000 0.0000 0.0000 0.0000 -6.3690 0.0000
# 6 0.0000 0.0000 0.0000 0.0000 0.0000 11.2196
#
#
#
# Elastic Compliance Matrix: (Units=1/GPa)
#
#
# Indices 1 2 3 4 5 6 
#
# 1 0.046186 -0.001980 -0.007884 0.000000 0.000000 0.000000
# 2 -0.001980 0.017000 -0.007699 0.000000 0.000000 0.000000
# 3 -0.007884 -0.007699 0.027383 0.000000 0.000000 0.000000
# 4 0.000000 0.000000 0.000000 0.055711 0.000000 0.000000
# 5 0.000000 0.000000 0.000000 0.000000 -0.157010 0.000000
# 6 0.000000 0.000000 0.000000 0.000000 0.000000 0.089130
#
#
# Mechanical properties :
#
#
# Convention : Reuss Voigt Hill
#
# Bulk Modulus (GPa) = 18.03634 23.43328 20.73481
# Shear Modulus (GPa) = 37.87695 11.29918 24.58807
#
# Velocity S-wave (km/s) = 4.74429 2.59124 3.82249
# Velocity P-wave (km/s) = 6.38193 4.78308 5.63946
#
# Compressibility (1/GPa) = 0.05544363
#
# Stress axis : x y z
#
# Youngs Moduli (GPa) = 21.65138 58.82435 36.51931
#
# Poissons Ratio (x) = 0.11648 0.28791
# Poissons Ratio (y) = 0.04287 0.28116
# Poissons Ratio (z) = 0.17069 0.45288
#
# Static dielectric constant tensor:
#      x y z
#    x 1.583910 0.000000 0.000000 
#    y 0.000000 1.587020 0.000000 
#    z 0.000000 0.000000 1.585490 
# 
# From -- ./inp_files/38527.got.cif
#   From: 2010.05.17/outbox.cif.g08.bks.cpg/sg71_20_cif.got.tgz:38527.got - 2010.06.03 16:22:01.
