data_PCOD9517536
_publ_section_title
;
Structure prediction by ZEFSAII (Michael W. Deem and Ramdas Pophale) SiO2 
 PCOD9517536
Probable space group: I M M M
;
_chemical_formula_sum "Si O2"
_cell_formula_units_Z 72
_cell_length_a 28.754488
_cell_length_b 7.696152
_cell_length_c 20.044790
_cell_angle_alpha 90.000000
_cell_angle_beta 90.000000
_cell_angle_gamma 90.000000
_cell_volume 4435.890185
_symmetry_space_group_name_H-M "I M M M"
_symmetry_group_IT_number 71
_symmetry_cell_setting 'orthorhombic'
loop_
_space_group_symop_operation_xyz
x,y,z
-x,-y,z
x,-y,-z
-x,y,-z
-x,-y,-z
x,y,-z
-x,y,z
x,-y,z
1/2+x,1/2+y,1/2+z
1/2-x,1/2-y,1/2+z
1/2+x,1/2-y,1/2-z
1/2-x,1/2+y,1/2-z
1/2-x,1/2-y,1/2-z
1/2+x,1/2+y,1/2-z
1/2-x,1/2+y,1/2+z
1/2+x,1/2-y,1/2+z
loop_
_atom_site_type_symbol
_atom_site_label
_atom_site_fract_x
_atom_site_fract_y
_atom_site_fract_z
Si Si1 0.676374 0.707401 0.725155
Si Si2 0.899892 0.791608 0.870599
Si Si3 0.342532 0.288295 0.500000
Si Si4 0.235100 0.797995 0.500000
Si Si5 0.730412 0.288841 0.146712
Si Si6 0.500000 0.205441 0.423651
O O1 0.672021 0.500000 0.733188
O O2 0.628253 0.774810 0.693962
O O3 0.694988 0.774995 0.796111
O O4 0.718099 0.738510 0.672274
O O5 0.953530 0.752522 0.883550
O O6 0.896017 0.000000 0.869194
O O7 0.871189 0.731718 0.935314
O O8 0.339168 0.500000 0.500000
O O9 0.291023 0.214150 0.500000
O O10 0.220591 0.723687 0.571945
O O11 0.220832 0.000000 0.500000
O O12 0.729514 0.500000 0.145368
O O13 0.500000 0.280195 0.500000
O O14 0.500000 0.000000 0.430708
#
# Coordination Sequence:
#
# PCOD9517536 Si02
#       6
#    16  16   8   8  16   8
#     4   9  17  29  43  59  80 109 143 174 204 240
#     4  10  19  31  45  58  78 109 143 176 206 238
#     4  10  18  27  41  60  81 110 145 175 202 239
#     4  10  18  26  39  61  88 115 140 170 207 245
#     4   9  17  27  40  60  85 111 139 170 205 244
#     4  11  23  33  43  61  83 106 135 172 210 247
#
# _framework density 16.23124
#
# number of rings (size 3 to 8) (size 9 to 14) (size 15 to 20)
#    0.000    2.333    3.333    0.333    0.000    2.222 
#    0.000    0.000    0.000    0.000    0.000    0.000 
#    0.000    0.889    0.000   11.333    0.000    1.111 
#
# Total GULP energy -200631.313800 kJ/mol
# GULP energy per Si atom -5573.092050 kJ/mol
# Density = 1.619430 g / cm^3
# Si number density = 16.231240 Si / 1000 Ang^3
#
#
#
# Elastic Constant Matrix: (Units=GPa)
#
#
# Indices 1 2 3 4 5 6 
#
# 1 103.1778 -1.1574 64.1266 0.0000 0.0000 0.0000
# 2 -1.1574 20.0206 -0.2563 0.0000 0.0000 0.0000
# 3 64.1266 -0.2563 142.9049 0.0000 0.0000 0.0000
# 4 0.0000 0.0000 0.0000 8.2066 0.0000 0.0000
# 5 0.0000 0.0000 0.0000 0.0000 46.0732 0.0000
# 6 0.0000 0.0000 0.0000 0.0000 0.0000 15.1852
#
#
#
# Elastic Compliance Matrix: (Units=1/GPa)
#
#
# Indices 1 2 3 4 5 6 
#
# 1 0.013450 0.000700 -0.006034 0.000000 0.000000 0.000000
# 2 0.000700 0.049986 -0.000225 0.000000 0.000000 0.000000
# 3 -0.006034 -0.000225 0.009705 0.000000 0.000000 0.000000
# 4 0.000000 0.000000 0.000000 0.121853 0.000000 0.000000
# 5 0.000000 0.000000 0.000000 0.000000 0.021705 0.000000
# 6 0.000000 0.000000 0.000000 0.000000 0.000000 0.065854
#
#
# Mechanical properties :
#
#
# Convention : Reuss Voigt Hill
#
# Bulk Modulus (GPa) = 16.12274 43.50324 29.81299
# Shear Modulus (GPa) = 15.90607 27.45234 21.67921
#
# Velocity S-wave (km/s) = 3.13384 4.11704 3.65862
# Velocity P-wave (km/s) = 4.80097 7.03280 6.02120
#
# Compressibility (1/GPa) = 0.06202422
#
# Stress axis : x y z
#
# Youngs Moduli (GPa) = 74.34753 20.00554 103.03847
#
# Poissons Ratio (x) = -0.01401 0.62178
# Poissons Ratio (y) = -0.05207 0.02315
# Poissons Ratio (z) = 0.44864 0.00449
#
# Static dielectric constant tensor:
#      x y z
#    x 1.545480 0.000000 0.000000 
#    y 0.000000 1.586750 0.000000 
#    z 0.000000 0.000000 1.597050 
# 
# From -- ./inp_files/10157.got.cif
#   From: 2010.05.17/outbox.cif.g08.bks.cpg/sg71_6_cif.got.tgz:10157.got - 2010.06.03 16:22:01.
