data_PCOD9517314
_publ_section_title
;
Structure prediction by ZEFSAII (Michael W. Deem and Ramdas Pophale) SiO2 
 PCOD9517314
Probable space group: I M M M
;
_chemical_formula_sum "Si O2"
_cell_formula_units_Z 112
_cell_length_a 14.801846
_cell_length_b 13.786634
_cell_length_c 37.341252
_cell_angle_alpha 90.000000
_cell_angle_beta 90.000000
_cell_angle_gamma 90.000000
_cell_volume 7620.140921
_symmetry_space_group_name_H-M "I M M M"
_symmetry_group_IT_number 71
_symmetry_cell_setting 'orthorhombic'
loop_
_space_group_symop_operation_xyz
x,y,z
-x,-y,z
x,-y,-z
-x,y,-z
-x,-y,-z
x,y,-z
-x,y,z
x,-y,z
1/2+x,1/2+y,1/2+z
1/2-x,1/2-y,1/2+z
1/2+x,1/2-y,1/2-z
1/2-x,1/2+y,1/2-z
1/2-x,1/2-y,1/2-z
1/2+x,1/2+y,1/2-z
1/2-x,1/2+y,1/2+z
1/2+x,1/2-y,1/2+z
loop_
_atom_site_type_symbol
_atom_site_label
_atom_site_fract_x
_atom_site_fract_y
_atom_site_fract_z
Si Si1 0.393805 0.612111 0.820040
Si Si2 0.720898 0.382704 0.608030
Si Si3 0.396000 0.382101 0.459488
Si Si4 0.603842 0.381886 0.677375
Si Si5 0.899813 0.617119 0.719449
Si Si6 0.896218 0.300335 0.360805
Si Si7 0.210581 0.118163 0.751505
O O1 0.500000 0.617883 0.809804
O O2 0.374047 0.500000 0.828671
O O3 0.380754 0.687048 0.852156
O O4 0.334877 0.643952 0.786019
O O5 0.724829 0.500000 0.608145
O O6 0.670875 0.350506 0.571836
O O7 0.661542 0.352766 0.642662
O O8 0.820929 0.341893 0.613207
O O9 0.372359 0.351561 0.500000
O O10 0.500000 0.353443 0.452117
O O11 0.395221 0.500000 0.459258
O O12 0.500000 0.349414 0.675575
O O13 0.602730 0.500000 0.677395
O O14 0.652471 0.351177 0.713994
O O15 0.900603 0.500000 0.720366
O O16 0.886262 0.648047 0.678144
O O17 0.814151 0.649274 0.742791
O O18 0.000000 0.651899 0.730550
O O19 0.000000 0.315139 0.372293
O O20 0.209726 0.000000 0.752064
#
# Coordination Sequence:
#
# PCOD9517314 Si02
#       7
#    16  16  16  16  16  16  16
#     4   9  18  31  44  56  72  97 132 177 223 259
#     4  10  17  26  40  60  86 113 137 163 194 228
#     4   8  14  25  42  64  90 120 146 161 180 220
#     4   9  15  22  34  54  79 105 131 163 204 240
#     4   9  16  26  38  53  76 103 131 162 197 242
#     4  10  19  29  41  57  76 103 140 174 203 241
#     4   9  15  25  40  55  71  99 134 170 212 248
#
# _framework density 14.697891
#
# number of rings (size 3 to 8) (size 9 to 14) (size 15 to 20)
#    0.000    2.857    1.429    1.714    0.000    4.857 
#    0.000    0.000    0.000    1.286    0.000    2.000 
#    0.000    0.571    0.000    5.143    0.000    0.143 
#
# Total GULP energy -312071.808703 kJ/mol
# GULP energy per Si atom -5572.710870 kJ/mol
# Density = 1.466444 g / cm^3
# Si number density = 14.697891 Si / 1000 Ang^3
#
#
#
# Elastic Constant Matrix: (Units=GPa)
#
#
# Indices 1 2 3 4 5 6 
#
# 1 113.1174 16.7111 55.8229 0.0000 0.0000 0.0000
# 2 16.7111 30.2340 10.9422 0.0000 0.0000 0.0000
# 3 55.8229 10.9422 63.0615 0.0000 0.0000 0.0000
# 4 0.0000 0.0000 0.0000 9.5285 0.0000 0.0000
# 5 0.0000 0.0000 0.0000 0.0000 20.3990 0.0000
# 6 0.0000 0.0000 0.0000 0.0000 0.0000 10.2068
#
#
#
# Elastic Compliance Matrix: (Units=1/GPa)
#
#
# Indices 1 2 3 4 5 6 
#
# 1 0.016139 -0.004001 -0.013592 0.000000 0.000000 0.000000
# 2 -0.004001 0.036284 -0.002754 0.000000 0.000000 0.000000
# 3 -0.013592 -0.002754 0.028368 0.000000 0.000000 0.000000
# 4 0.000000 0.000000 0.000000 0.104948 0.000000 0.000000
# 5 0.000000 0.000000 0.000000 0.000000 0.049022 0.000000
# 6 0.000000 0.000000 0.000000 0.000000 0.000000 0.097974
#
#
# Mechanical properties :
#
#
# Convention : Reuss Voigt Hill
#
# Bulk Modulus (GPa) = 24.94051 41.48504 33.21278
# Shear Modulus (GPa) = 12.92675 16.22264 14.57470
#
# Velocity S-wave (km/s) = 2.96885 3.32586 3.15241
# Velocity P-wave (km/s) = 5.36262 6.56010 5.99135
#
# Compressibility (1/GPa) = 0.04009541
#
# Stress axis : x y z
#
# Youngs Moduli (GPa) = 61.96056 27.56068 35.25152
#
# Poissons Ratio (x) = 0.11028 0.47915
# Poissons Ratio (y) = 0.24792 0.09708
# Poissons Ratio (z) = 0.84219 0.07590
#
# Static dielectric constant tensor:
#      x y z
#    x 1.509430 0.000000 0.000000 
#    y 0.000000 1.512990 0.000000 
#    z 0.000000 0.000000 1.459270 
# 
# From -- ./inp_files/70067.got.cif
#   From: 2010.05.17/outbox.cif.g08.bks.cpg/sg71_36_cif.got.tgz:70067.got - 2010.06.03 16:22:01.
