data_PCOD9517791
_publ_section_title
;
Structure prediction by ZEFSAII (Michael W. Deem and Ramdas Pophale) SiO2 
 PCOD9517791
Probable space group: I M M M
;
_chemical_formula_sum "Si O2"
_cell_formula_units_Z 104
_cell_length_a 24.184650
_cell_length_b 24.299157
_cell_length_c 7.630014
_cell_angle_alpha 90.000000
_cell_angle_beta 90.000000
_cell_angle_gamma 90.000000
_cell_volume 4483.904441
_symmetry_space_group_name_H-M "I M M M"
_symmetry_group_IT_number 71
_symmetry_cell_setting 'orthorhombic'
loop_
_space_group_symop_operation_xyz
x,y,z
-x,-y,z
x,-y,-z
-x,y,-z
-x,-y,-z
x,y,-z
-x,y,z
x,-y,z
1/2+x,1/2+y,1/2+z
1/2-x,1/2-y,1/2+z
1/2+x,1/2-y,1/2-z
1/2-x,1/2+y,1/2-z
1/2-x,1/2-y,1/2-z
1/2+x,1/2+y,1/2-z
1/2-x,1/2+y,1/2+z
1/2+x,1/2-y,1/2+z
loop_
_atom_site_type_symbol
_atom_site_label
_atom_site_fract_x
_atom_site_fract_y
_atom_site_fract_z
Si Si1 0.438273 0.000000 0.786263
Si Si2 0.409148 0.319340 0.797482
Si Si3 0.743225 0.419280 0.693979
Si Si4 0.637267 0.100765 0.785278
Si Si5 0.438496 0.799677 0.785896
Si Si6 0.617754 0.560262 0.793324
Si Si7 0.220997 0.805059 0.303377
O O1 0.407031 0.055136 0.735439
O O2 0.500000 0.000000 0.721288
O O3 0.438915 0.000000 0.000000
O O4 0.435824 0.263853 0.721612
O O5 0.408174 0.382093 0.722306
O O6 0.344769 0.302378 0.800363
O O7 0.428601 0.324381 0.000000
O O8 0.743736 0.443183 0.500000
O O9 0.803660 0.423384 0.778186
O O10 0.684933 0.436035 0.779502
O O11 0.738884 0.353755 0.681015
O O12 0.611782 0.160033 0.729970
O O13 0.641963 0.103008 0.000000
O O14 0.500000 0.821911 0.743686
O O15 0.434904 0.797293 0.000000
O O16 0.601222 0.500000 0.720867
O O17 0.604900 0.560205 0.000000
O O18 0.237488 0.820733 0.500000
O O19 0.250000 0.750000 0.250000
#
# Coordination Sequence:
#
# PCOD9517791 Si02
#       7
#     8  16  16  16  16  16  16
#     4   9  16  26  38  54  85 127 163 195 242 297
#     4   8  15  27  42  61  86 118 151 187 233 282
#     4  10  19  29  44  67  96 125 155 193 236 283
#     4   9  17  26  38  60  91 124 155 192 240 283
#     4   9  15  24  40  61  86 117 153 189 229 282
#     4   9  18  32  48  65  91 126 160 192 233 291
#     4  10  18  29  45  65  95 128 158 191 232 282
#
# _framework density 23.194071999999998
#
# number of rings (size 3 to 8) (size 9 to 14) (size 15 to 20)
#    0.000    2.846    0.000    3.231    1.077    4.615 
#    0.000    0.000    0.000    0.462    0.000    3.231 
#    0.000   65.846    0.000    5.538    0.000    6.154 
#
# Total GULP energy -289674.353548 kJ/mol
# GULP energy per Si atom -5570.660645 kJ/mol
# Density = 2.314128 g / cm^3
# Si number density = 23.194072 Si / 1000 Ang^3
#
#
#
# Elastic Constant Matrix: (Units=GPa)
#
#
# Indices 1 2 3 4 5 6 
#
# 1 35.2297 -0.9571 2.0079 0.0000 0.0000 0.0000
# 2 -0.9571 156.4949 6.8888 0.0000 0.0000 0.0000
# 3 2.0079 6.8888 55.3068 0.0000 0.0000 0.0000
# 4 0.0000 0.0000 0.0000 -3.9053 0.0000 0.0000
# 5 0.0000 0.0000 0.0000 0.0000 2.1323 0.0000
# 6 0.0000 0.0000 0.0000 0.0000 0.0000 43.1899
#
#
#
# Elastic Compliance Matrix: (Units=1/GPa)
#
#
# Indices 1 2 3 4 5 6 
#
# 1 0.028452 0.000221 -0.001060 0.000000 0.000000 0.000000
# 2 0.000221 0.006427 -0.000809 0.000000 0.000000 0.000000
# 3 -0.001060 -0.000809 0.018220 0.000000 0.000000 0.000000
# 4 0.000000 0.000000 0.000000 -0.256063 0.000000 0.000000
# 5 0.000000 0.000000 0.000000 0.000000 0.468975 0.000000
# 6 0.000000 0.000000 0.000000 0.000000 0.000000 0.023154
#
#
# Mechanical properties :
#
#
# Convention : Reuss Voigt Hill
#
# Bulk Modulus (GPa) = 20.07944 29.21227 24.64585
# Shear Modulus (GPa) = 16.17798 24.22285 20.20042
#
# Velocity S-wave (km/s) = 2.64390 3.23515 2.95435
# Velocity P-wave (km/s) = 4.24219 5.15529 4.72087
#
# Compressibility (1/GPa) = 0.04980220
#
# Stress axis : x y z
#
# Youngs Moduli (GPa) = 35.14743 155.59540 54.88429
#
# Poissons Ratio (x) = -0.03434 0.05820
# Poissons Ratio (y) = -0.00776 0.04438
# Poissons Ratio (z) = 0.03727 0.12580
#
# Static dielectric constant tensor:
#      x y z
#    x 1.890570 0.000000 0.000000 
#    y 0.000000 1.872730 0.000000 
#    z 0.000000 0.000000 1.937900 
# 
# From -- ./inp_files/15307.got.cif
#   From: 2010.05.17/outbox.cif.g08.bks.cpg/sg71_8_cif.got.tgz:15307.got - 2010.06.03 16:22:01.
