data_PCOD9517670
_publ_section_title
;
Structure prediction by ZEFSAII (Michael W. Deem and Ramdas Pophale) SiO2 
 PCOD9517670
Probable space group: I M M M
;
_chemical_formula_sum "Si O2"
_cell_formula_units_Z 112
_cell_length_a 14.635436
_cell_length_b 36.453287
_cell_length_c 14.634713
_cell_angle_alpha 90.000000
_cell_angle_beta 90.000000
_cell_angle_gamma 90.000000
_cell_volume 7807.762058
_symmetry_space_group_name_H-M "I M M M"
_symmetry_group_IT_number 71
_symmetry_cell_setting 'orthorhombic'
loop_
_space_group_symop_operation_xyz
x,y,z
-x,-y,z
x,-y,-z
-x,y,-z
-x,-y,-z
x,y,-z
-x,y,z
x,-y,z
1/2+x,1/2+y,1/2+z
1/2-x,1/2-y,1/2+z
1/2+x,1/2-y,1/2-z
1/2-x,1/2+y,1/2-z
1/2-x,1/2-y,1/2-z
1/2+x,1/2+y,1/2-z
1/2-x,1/2+y,1/2+z
1/2+x,1/2-y,1/2+z
loop_
_atom_site_type_symbol
_atom_site_label
_atom_site_fract_x
_atom_site_fract_y
_atom_site_fract_z
Si Si1 0.606127 0.459588 0.110772
Si Si2 0.702326 0.384308 0.888336
Si Si3 0.101506 0.363435 0.894599
Si Si4 0.291552 0.294246 0.401268
Si Si5 0.602770 0.221523 0.634019
Si Si6 0.396716 0.764720 0.849095
Si Si7 0.109644 0.816709 0.285193
O O1 0.500000 0.455912 0.137727
O O2 0.639165 0.500000 0.141091
O O3 0.661140 0.423640 0.138294
O O4 0.607934 0.459909 0.000000
O O5 0.807768 0.381904 0.856505
O O6 0.646275 0.351278 0.841915
O O7 0.698662 0.380559 0.000000
O O8 0.121360 0.319873 0.894509
O O9 0.000000 0.368737 0.853073
O O10 0.095424 0.375302 0.000000
O O11 0.315186 0.311071 0.500000
O O12 0.330552 0.252780 0.399433
O O13 0.182902 0.288344 0.393852
O O14 0.336454 0.312676 0.311417
O O15 0.500000 0.231019 0.604503
O O16 0.603831 0.222995 0.743403
O O17 0.500000 0.769066 0.884971
O O18 0.374789 0.721131 0.842062
O O19 0.000000 0.818701 0.269015
#
# Coordination Sequence:
#
# PCOD9517670 Si02
#       7
#    16  16  16  16  16  16  16
#     4   8  14  25  41  61  83 105 129 156 190 240
#     4  10  18  28  44  63  84 109 132 159 203 249
#     4   9  16  24  36  56  79 103 135 170 196 226
#     4  11  20  29  42  56  76 109 143 173 207 244
#     4   9  16  27  42  55  70  98 137 177 211 241
#     4   9  18  30  41  54  74 100 133 176 217 247
#     4  10  20  31  42  60  84 105 133 173 210 248
#
# _framework density 14.344697999999999
#
# number of rings (size 3 to 8) (size 9 to 14) (size 15 to 20)
#    0.000    2.571    0.000    6.000    0.000    4.571 
#    0.000    1.429    0.000    0.429    0.000    3.000 
#    0.000    0.571    0.000    3.000    0.000    0.143 
#
# Total GULP energy -311744.747454 kJ/mol
# GULP energy per Si atom -5566.870490 kJ/mol
# Density = 1.431205 g / cm^3
# Si number density = 14.344698 Si / 1000 Ang^3
#
#
#
# Elastic Constant Matrix: (Units=GPa)
#
#
# Indices 1 2 3 4 5 6 
#
# 1 77.3042 53.8514 17.2073 0.0001 -0.0002 0.0000
# 2 53.8514 66.5963 18.7114 -0.0001 0.0000 0.0000
# 3 17.2073 18.7114 41.9593 -0.0001 -0.0001 0.0001
# 4 0.0001 -0.0001 -0.0001 19.9380 0.0001 0.0000
# 5 -0.0002 0.0000 -0.0001 0.0001 -4.3592 0.0000
# 6 0.0000 0.0000 0.0001 0.0000 0.0000 18.8037
#
#
#
# Elastic Compliance Matrix: (Units=1/GPa)
#
#
# Indices 1 2 3 4 5 6 
#
# 1 0.029726 -0.023564 -0.001682 0.000000 -0.000001 0.000000
# 2 -0.023564 0.035847 -0.006322 0.000000 0.000001 0.000000
# 3 -0.001682 -0.006322 0.027342 0.000000 -0.000001 0.000000
# 4 0.000000 0.000000 0.000000 0.050155 0.000001 0.000000
# 5 -0.000001 0.000001 -0.000001 0.000001 -0.229402 0.000000
# 6 0.000000 0.000000 0.000000 0.000000 0.000000 0.053181
#
#
# Mechanical properties :
#
#
# Convention : Reuss Voigt Hill
#
# Bulk Modulus (GPa) = 33.58246 40.60001 37.09123
# Shear Modulus (GPa) = 125.28013 13.28250 69.28131
#
# Velocity S-wave (km/s) = 9.35548 3.04625 6.95718
# Velocity P-wave (km/s) = 11.83900 6.38259 9.51051
#
# Compressibility (1/GPa) = 0.02977745
#
# Stress axis : x y z
#
# Youngs Moduli (GPa) = 33.64111 27.89656 36.57426
#
# Poissons Ratio (x) = 0.65736 0.06152
# Poissons Ratio (y) = 0.79273 0.23122
# Poissons Ratio (z) = 0.05658 0.17636
#
# Static dielectric constant tensor:
#      x y z
#    x 1.527560 0.000000 0.000000 
#    y 0.000000 1.451310 0.000000 
#    z 0.000000 0.000000 1.496240 
# 
# From -- ./inp_files/35367.got.cif
#   From: 2010.05.17/outbox.cif.g08.bks.cpg/sg71_18_cif.got.tgz:35367.got - 2010.06.03 16:22:01.
