data_PCOD9517162
_publ_section_title
;
Structure prediction by ZEFSAII (Michael W. Deem and Ramdas Pophale) SiO2 
 PCOD9517162
Probable space group: F D D D
;
_chemical_formula_sum "Si O2"
_cell_formula_units_Z 60
_cell_length_a 21.000000
_cell_length_b 27.000000
_cell_length_c 21.000000
_cell_angle_alpha 90.000000
_cell_angle_beta 90.000000
_cell_angle_gamma 90.000000
_cell_volume 11907.000000
_symmetry_space_group_name_H-M "F D D D"
_symmetry_group_IT_number 70
_space_group.IT_coordinate_system_code '2'
_symmetry_cell_setting 'orthorhombic'
loop_
_space_group_symop_operation_xyz
x,y,z
1/4-x,1/4-y,z
x,1/4-y,1/4-z
1/4-x,y,1/4-z
-x,-y,-z
3/4+x,3/4+y,-z
-x,3/4+y,3/4+z
3/4+x,-y,3/4+z
x,1/2+y,1/2+z
1/4-x,3/4-y,1/2+z
x,3/4-y,3/4-z
1/4-x,1/2+y,3/4-z
-x,1/2-y,1/2-z
3/4+x,1/4+y,1/2-z
-x,1/4+y,1/4+z
3/4+x,1/2-y,1/4+z
1/2+x,y,1/2+z
3/4-x,1/4-y,1/2+z
1/2+x,1/4-y,3/4-z
3/4-x,y,3/4-z
1/2-x,-y,1/2-z
1/4+x,3/4+y,1/2-z
1/2-x,3/4+y,1/4+z
1/4+x,-y,1/4+z
1/2+x,1/2+y,z
3/4-x,3/4-y,z
1/2+x,3/4-y,1/4-z
3/4-x,1/2+y,1/4-z
1/2-x,1/2-y,-z
1/4+x,1/4+y,-z
1/2-x,1/4+y,3/4+z
1/4+x,1/2-y,3/4+z
loop_
_atom_site_type_symbol
_atom_site_label
_atom_site_fract_x
_atom_site_fract_y
_atom_site_fract_z
Si Si1 0.587480 0.706615 0.189356
Si Si2 0.971414 0.254128 0.115773
Si Si3 0.877434 0.582561 0.677804
Si Si4 0.252366 0.933679 0.868297
Si Si5 0.702923 0.758029 0.256350
Si Si6 0.689185 0.098351 0.812197
Si Si7 0.625000 0.751093 0.625000
Si Si8 0.706772 0.920599 0.044735
O O1 0.625000 0.690930 0.125000
O O2 0.524673 0.732314 0.162403
O O3 0.632668 0.744785 0.229549
O O4 0.566197 0.662887 0.236607
O O5 0.922066 0.212386 0.094280
O O6 0.936760 0.296556 0.153049
O O7 0.006531 0.276520 0.053962
O O8 0.876797 0.625000 0.625000
O O9 0.804504 0.564414 0.683732
O O10 0.911915 0.602375 0.740647
O O11 0.268155 0.875000 0.875000
O O12 0.316192 0.965294 0.853871
O O13 0.218424 0.957352 0.932454
O O14 0.734334 0.704162 0.269922
O O15 0.625000 0.125000 0.831812
O O16 0.754361 0.127093 0.829195
O O17 0.589202 0.789304 0.577942
#
# Coordination Sequence:
#
# PCOD9517162 Si02
#       8
#    32  32  32  32  32  32  16  32
#     4  10  20  37  62  90 124 170 204 248 308 372
#     4  10  22  37  60  90 126 167 202 255 313 372
#     4  10  21  39  63  93 122 160 209 261 309 372
#     4  10  21  39  67  91 114 158 211 268 322 373
#     4   9  19  40  59  86 127 156 203 262 310 371
#     4  12  23  38  60  92 126 166 207 252 313 376
#     4  10  23  44  64  82 126 164 205 272 322 374
#     4  10  22  41  59  90 123 164 206 256 312 378
#
# _framework density 5.039053
#
# number of rings (size 3 to 8) (size 9 to 14) (size 15 to 20)
#    0.000    1.867    1.333    2.200    1.867    2.933 
#    8.400    4.000    0.000    0.000    0.000    0.000 
#    0.000    0.000    0.000    0.000    0.000    0.000 
#
# Total GULP energy -334464.808921 kJ/mol
# GULP energy per Si atom -5574.413482 kJ/mol
# Density = 0.502758 g / cm^3
# Si number density = 5.039053 Si / 1000 Ang^3
#
#
#
# Elastic Constant Matrix: (Units=GPa)
#
#
# Indices 1 2 3 4 5 6 
#
# 1 122.3064 22.6577 5.4170 0.0000 0.0000 0.0000
# 2 22.6577 52.2406 3.3299 0.0000 0.0000 0.0000
# 3 5.4170 3.3299 11.6000 0.0000 0.0000 0.0000
# 4 0.0000 0.0000 0.0000 32.3178 0.0000 0.0000
# 5 0.0000 0.0000 0.0000 0.0000 32.8507 0.0000
# 6 0.0000 0.0000 0.0000 0.0000 0.0000 26.9377
#
#
#
# Elastic Compliance Matrix: (Units=1/GPa)
#
#
# Indices 1 2 3 4 5 6 
#
# 1 0.009001 -0.003704 -0.003140 0.000000 0.000000 0.000000
# 2 -0.003704 0.021023 -0.004305 0.000000 0.000000 0.000000
# 3 -0.003140 -0.004305 0.088909 0.000000 0.000000 0.000000
# 4 0.000000 0.000000 0.000000 0.030943 0.000000 0.000000
# 5 0.000000 0.000000 0.000000 0.000000 0.030441 0.000000
# 6 0.000000 0.000000 0.000000 0.000000 0.000000 0.037123
#
#
# Mechanical properties :
#
#
# Convention : Reuss Voigt Hill
#
# Bulk Modulus (GPa) = 10.34822 27.66178 19.00500
# Shear Modulus (GPa) = 18.38573 28.73742 23.56157
#
# Velocity S-wave (km/s) = 3.02348 3.77999 3.42270
# Velocity P-wave (km/s) = 4.16338 5.72753 5.00691
#
# Compressibility (1/GPa) = 0.09663498
#
# Stress axis : x y z
#
# Youngs Moduli (GPa) = 111.09343 47.56682 11.24744
#
# Poissons Ratio (x) = 0.17618 0.03532
# Poissons Ratio (y) = 0.41148 0.04842
# Poissons Ratio (z) = 0.34886 0.20478
#
# Static dielectric constant tensor:
#      x y z
#    x 1.310220 0.000000 0.000000 
#    y 0.000000 1.719870 0.000000 
#    z 0.000000 0.000000 1.752710 
# 
# From -- ./inp_files/45189.got.cif
#   From: 2010.05.17/outbox.ucp.g08.bks.cvg/sg70_23_cif.got.tgz:45189.got - 2010.06.11 16:26:41.
