data_PCOD9517858
_publ_section_title
;
Structure prediction by ZEFSAII (Michael W. Deem and Ramdas Pophale) SiO2 
 PCOD9517858
Probable space group: I M M M
;
_chemical_formula_sum "Si O2"
_cell_formula_units_Z 88
_cell_length_a 18.214854
_cell_length_b 18.937251
_cell_length_c 14.253353
_cell_angle_alpha 90.000000
_cell_angle_beta 90.000000
_cell_angle_gamma 90.000000
_cell_volume 4916.541067
_symmetry_space_group_name_H-M "I M M M"
_symmetry_group_IT_number 71
_symmetry_cell_setting 'orthorhombic'
loop_
_space_group_symop_operation_xyz
x,y,z
-x,-y,z
x,-y,-z
-x,y,-z
-x,-y,-z
x,y,-z
-x,y,z
x,-y,z
1/2+x,1/2+y,1/2+z
1/2-x,1/2-y,1/2+z
1/2+x,1/2-y,1/2-z
1/2-x,1/2+y,1/2-z
1/2-x,1/2-y,1/2-z
1/2+x,1/2+y,1/2-z
1/2-x,1/2+y,1/2+z
1/2+x,1/2-y,1/2+z
loop_
_atom_site_type_symbol
_atom_site_label
_atom_site_fract_x
_atom_site_fract_y
_atom_site_fract_z
Si Si1 0.412467 0.500000 0.889596
Si Si2 0.918246 0.741818 0.213301
Si Si3 0.918629 0.358722 0.608359
Si Si4 0.159560 0.877108 0.271752
Si Si5 0.240575 0.612090 0.606364
Si Si6 0.729896 0.218878 0.608043
O O1 0.500000 0.500000 0.876744
O O2 0.377307 0.567739 0.840334
O O3 0.396775 0.500000 0.000000
O O4 0.915724 0.702693 0.314123
O O5 0.900609 0.824009 0.229022
O O6 0.852213 0.713490 0.149232
O O7 0.000000 0.731257 0.174558
O O8 0.913105 0.332523 0.500000
O O9 0.845298 0.404547 0.622879
O O10 0.000000 0.392263 0.617127
O O11 0.205230 0.912816 0.187328
O O12 0.216137 0.827090 0.328443
O O13 0.260157 0.591263 0.500000
O O14 0.247583 0.698214 0.611578
O O15 0.733229 0.196641 0.500000
#
# Coordination Sequence:
#
# PCOD9517858 Si02
#       6
#     8  16  16  16  16  16
#     4  11  26  42  55  73  98 135 183 223 249 284
#     4  10  18  29  47  74 104 132 163 202 258 316
#     4   9  15  23  40  72 107 130 151 188 245 309
#     4  11  19  35  51  72  99 140 176 215 255 295
#     4   9  16  29  50  77 103 128 164 208 261 319
#     4  10  18  29  47  72 101 133 168 209 259 312
#
# _framework density 17.898762999999999
#
# number of rings (size 3 to 8) (size 9 to 14) (size 15 to 20)
#    0.000    2.091    3.636    2.182    0.000    1.091 
#    0.000    2.273    0.000    2.182    0.000    2.545 
#    0.000    7.273    0.000    0.000    0.000    0.000 
#
# Total GULP energy -245328.212886 kJ/mol
# GULP energy per Si atom -5575.641202 kJ/mol
# Density = 1.785802 g / cm^3
# Si number density = 17.898763 Si / 1000 Ang^3
#
#
#
# Elastic Constant Matrix: (Units=GPa)
#
#
# Indices 1 2 3 4 5 6 
#
# 1 106.3369 5.4089 40.9428 0.0000 0.0000 0.0000
# 2 5.4089 33.4802 12.8289 0.0000 0.0000 0.0000
# 3 40.9428 12.8289 96.3360 0.0000 0.0000 0.0000
# 4 0.0000 0.0000 0.0000 4.9749 0.0000 0.0000
# 5 0.0000 0.0000 0.0000 0.0000 33.7223 0.0000
# 6 0.0000 0.0000 0.0000 0.0000 0.0000 4.0926
#
#
#
# Elastic Compliance Matrix: (Units=1/GPa)
#
#
# Indices 1 2 3 4 5 6 
#
# 1 0.011244 0.000015 -0.004781 0.000000 0.000000 0.000000
# 2 0.000015 0.031474 -0.004198 0.000000 0.000000 0.000000
# 3 -0.004781 -0.004198 0.012971 0.000000 0.000000 0.000000
# 4 0.000000 0.000000 0.000000 0.201007 0.000000 0.000000
# 5 0.000000 0.000000 0.000000 0.000000 0.029654 0.000000
# 6 0.000000 0.000000 0.000000 0.000000 0.000000 0.244346
#
#
# Mechanical properties :
#
#
# Convention : Reuss Voigt Hill
#
# Bulk Modulus (GPa) = 26.48094 39.39047 32.93570
# Shear Modulus (GPa) = 8.90930 20.35613 14.63271
#
# Velocity S-wave (km/s) = 2.23348 3.37604 2.86234
# Velocity P-wave (km/s) = 4.63446 6.10344 5.41895
#
# Compressibility (1/GPa) = 0.03776302
#
# Stress axis : x y z
#
# Youngs Moduli (GPa) = 88.93610 31.77180 77.09389
#
# Poissons Ratio (x) = -0.00049 0.36857
# Poissons Ratio (y) = -0.00137 0.32364
# Poissons Ratio (z) = 0.42518 0.13338
#
# Static dielectric constant tensor:
#      x y z
#    x 1.637920 0.000000 0.000000 
#    y 0.000000 1.610570 0.000000 
#    z 0.000000 0.000000 1.609750 
# 
# From -- ./inp_files/36349.got.cif
#   From: 2010.05.17/outbox.cif.g08.bks.cpg/sg71_19_cif.got.tgz:36349.got - 2010.06.03 16:22:01.
