data_PCOD9517273
_publ_section_title
;
Structure prediction by ZEFSAII (Michael W. Deem and Ramdas Pophale) SiO2 
 PCOD9517273
Probable space group: I M M M
;
_chemical_formula_sum "Si O2"
_cell_formula_units_Z 82
_cell_length_a 21.499882
_cell_length_b 23.752190
_cell_length_c 7.627393
_cell_angle_alpha 90.000000
_cell_angle_beta 90.000000
_cell_angle_gamma 90.000000
_cell_volume 3895.075309
_symmetry_space_group_name_H-M "I M M M"
_symmetry_group_IT_number 71
_symmetry_cell_setting 'orthorhombic'
loop_
_space_group_symop_operation_xyz
x,y,z
-x,-y,z
x,-y,-z
-x,y,-z
-x,-y,-z
x,y,-z
-x,y,z
x,-y,z
1/2+x,1/2+y,1/2+z
1/2-x,1/2-y,1/2+z
1/2+x,1/2-y,1/2-z
1/2-x,1/2+y,1/2-z
1/2-x,1/2-y,1/2-z
1/2+x,1/2+y,1/2-z
1/2-x,1/2+y,1/2+z
1/2+x,1/2-y,1/2+z
loop_
_atom_site_type_symbol
_atom_site_label
_atom_site_fract_x
_atom_site_fract_y
_atom_site_fract_z
Si Si1 0.292492 0.500000 0.295297
Si Si2 0.129561 0.375115 0.298966
Si Si3 0.369414 0.386862 0.709655
Si Si4 0.744900 0.315577 0.710858
Si Si5 0.000000 0.066652 0.784348
Si Si6 0.655938 0.000000 0.696089
Si Si7 0.000000 0.597111 0.806166
Si Si8 0.000000 0.500000 0.500000
O O1 0.273253 0.500000 0.500000
O O2 0.332901 0.554814 0.265284
O O3 0.230034 0.500000 0.188400
O O4 0.124789 0.356833 0.500000
O O5 0.192783 0.347707 0.223646
O O6 0.137616 0.442735 0.290788
O O7 0.062860 0.366063 0.211590
O O8 0.376120 0.377042 0.500000
O O9 0.320761 0.340466 0.778345
O O10 0.438585 0.399838 0.775541
O O11 0.744322 0.324730 0.500000
O O12 0.750000 0.250000 0.750000
O O13 0.000000 0.000000 0.732968
O O14 0.000000 0.065402 0.000000
O O15 0.629998 0.000000 0.500000
O O16 0.000000 0.549904 0.654244
O O17 0.000000 0.571644 0.000000
#
# Coordination Sequence:
#
# PCOD9517273 Si02
#       8
#     8  16  16  16   8   8   8   2
#     4  10  16  30  52  78 114 149 183 224 287 368
#     4  11  22  41  62  85 121 164 203 255 315 376
#     4   9  16  29  50  82 115 148 181 225 291 359
#     4  10  22  39  61  82 113 157 206 260 309 355
#     4   9  14  22  47  84 120 142 169 221 283 351
#     4  12  23  32  51  88 121 151 193 248 301 368
#     4  12  25  41  62  91 127 173 211 251 312 377
#     4  12  22  44  60  94 140 172 206 250 300 392
#
# _framework density 21.052223999999999
#
# number of rings (size 3 to 8) (size 9 to 14) (size 15 to 20)
#    0.000    1.659    3.902    2.195    0.000    1.561 
#    0.000    0.976    0.000    1.171    0.000    2.732 
#    0.000    0.000    0.000    0.000    0.000    0.000 
#
# Total GULP energy -228578.353929 kJ/mol
# GULP energy per Si atom -5575.081803 kJ/mol
# Density = 2.100431 g / cm^3
# Si number density = 21.052224 Si / 1000 Ang^3
#
#
#
# Elastic Constant Matrix: (Units=GPa)
#
#
# Indices 1 2 3 4 5 6 
#
# 1 222.4838 67.0114 30.3698 0.0000 0.0000 0.0000
# 2 67.0114 104.1358 2.7790 0.0000 0.0000 0.0000
# 3 30.3698 2.7790 69.3117 0.0000 0.0000 0.0000
# 4 0.0000 0.0000 0.0000 133.7925 0.0000 0.0000
# 5 0.0000 0.0000 0.0000 0.0000 -48.8610 0.0000
# 6 0.0000 0.0000 0.0000 0.0000 0.0000 -0.7228
#
#
#
# Elastic Compliance Matrix: (Units=1/GPa)
#
#
# Indices 1 2 3 4 5 6 
#
# 1 0.005968 -0.003775 -0.002464 0.000000 0.000000 0.000000
# 2 -0.003775 0.012001 0.001173 0.000000 0.000000 0.000000
# 3 -0.002464 0.001173 0.015460 0.000000 0.000000 0.000000
# 4 0.000000 0.000000 0.000000 0.007474 0.000000 0.000000
# 5 0.000000 0.000000 0.000000 0.000000 -0.020466 0.000000
# 6 0.000000 0.000000 0.000000 0.000000 0.000000 -1.383586
#
#
# Mechanical properties :
#
#
# Convention : Reuss Voigt Hill
#
# Bulk Modulus (GPa) = 42.92298 66.25018 54.58658
# Shear Modulus (GPa) = -3.71677 36.55984 16.42153
#
# Velocity S-wave (km/s) = -1.33016 4.17181 2.79595
# Velocity P-wave (km/s) = 4.25135 7.39885 6.03395
#
# Compressibility (1/GPa) = 0.02329755
#
# Stress axis : x y z
#
# Youngs Moduli (GPa) = 167.56337 83.32980 64.68307
#
# Poissons Ratio (x) = 0.31454 0.15935
# Poissons Ratio (y) = 0.63248 -0.07586
# Poissons Ratio (z) = 0.41280 -0.09772
#
# Static dielectric constant tensor:
#      x y z
#    x 1.829130 0.000000 0.000000 
#    y 0.000000 1.702630 0.000000 
#    z 0.000000 0.000000 1.780080 
# 
# From -- ./inp_files/10803.got.cif
#   From: 2010.05.17/outbox.cif.g08.bks.cpg/sg71_6_cif.got.tgz:10803.got - 2010.06.03 16:22:01.
