data_PCOD9517540
_publ_section_title
;
Structure prediction by ZEFSAII (Michael W. Deem and Ramdas Pophale) SiO2 
 PCOD9517540
Probable space group: I M M M
;
_chemical_formula_sum "Si O2"
_cell_formula_units_Z 112
_cell_length_a 23.854201
_cell_length_b 17.073904
_cell_length_c 16.395785
_cell_angle_alpha 90.000000
_cell_angle_beta 90.000000
_cell_angle_gamma 90.000000
_cell_volume 6677.746438
_symmetry_space_group_name_H-M "I M M M"
_symmetry_group_IT_number 71
_symmetry_cell_setting 'orthorhombic'
loop_
_space_group_symop_operation_xyz
x,y,z
-x,-y,z
x,-y,-z
-x,y,-z
-x,-y,-z
x,y,-z
-x,y,z
x,-y,z
1/2+x,1/2+y,1/2+z
1/2-x,1/2-y,1/2+z
1/2+x,1/2-y,1/2-z
1/2-x,1/2+y,1/2-z
1/2-x,1/2-y,1/2-z
1/2+x,1/2+y,1/2-z
1/2-x,1/2+y,1/2+z
1/2+x,1/2-y,1/2+z
loop_
_atom_site_type_symbol
_atom_site_label
_atom_site_fract_x
_atom_site_fract_y
_atom_site_fract_z
Si Si1 0.435144 0.409801 0.638490
Si Si2 0.247198 0.091658 0.741810
Si Si3 0.653642 0.189329 0.800644
Si Si4 0.263179 0.704282 0.907505
Si Si5 0.933125 0.251504 0.405288
Si Si6 0.566297 0.414755 0.164115
Si Si7 0.163224 0.197016 0.151113
O O1 0.500000 0.390965 0.618157
O O2 0.424657 0.500000 0.613187
O O3 0.430279 0.408231 0.737800
O O4 0.388205 0.348790 0.610386
O O5 0.308939 0.115856 0.774312
O O6 0.241467 0.130229 0.652527
O O7 0.202023 0.134190 0.800397
O O8 0.238154 0.000000 0.741311
O O9 0.693336 0.238434 0.862206
O O10 0.596278 0.183477 0.849667
O O11 0.643186 0.242309 0.720817
O O12 0.204596 0.752127 0.904531
O O13 0.278588 0.686215 0.000000
O O14 0.920287 0.262238 0.500000
O O15 0.912354 0.164707 0.376806
O O16 0.000000 0.252784 0.394518
O O17 0.500000 0.417780 0.143961
O O18 0.590835 0.500000 0.140484
#
# Coordination Sequence:
#
# PCOD9517540 Si02
#       7
#    16  16  16  16  16  16  16
#     4   9  15  23  40  65  91 119 148 180 214 247
#     4   9  18  31  49  70  87 113 151 188 228 264
#     4   9  17  30  46  63  90 122 151 185 215 255
#     4   9  18  31  47  68  92 118 145 180 229 271
#     4  10  18  26  40  62  90 125 156 183 218 260
#     4   8  14  23  34  53  85 122 153 177 203 241
#     4   9  16  28  47  66  89 122 153 181 209 255
#
# _framework density 16.772124999999999
#
# number of rings (size 3 to 8) (size 9 to 14) (size 15 to 20)
#    0.000    3.000    1.429    3.429    0.000    0.571 
#    0.000    1.429    0.000   17.143    0.000    2.000 
#    0.000    0.000    0.000    6.286    0.000    0.000 
#
# Total GULP energy -311920.175048 kJ/mol
# GULP energy per Si atom -5570.003126 kJ/mol
# Density = 1.673395 g / cm^3
# Si number density = 16.772125 Si / 1000 Ang^3
#
#
#
# Elastic Constant Matrix: (Units=GPa)
#
#
# Indices 1 2 3 4 5 6 
#
# 1 41.3101 4.8848 -5.9512 0.0000 0.0000 0.0000
# 2 4.8848 46.9209 3.0543 0.0000 0.0000 0.0000
# 3 -5.9512 3.0543 48.3138 0.0000 0.0000 0.0000
# 4 0.0000 0.0000 0.0000 6.5595 0.0000 0.0000
# 5 0.0000 0.0000 0.0000 0.0000 14.9645 0.0000
# 6 0.0000 0.0000 0.0000 0.0000 0.0000 22.3373
#
#
#
# Elastic Compliance Matrix: (Units=1/GPa)
#
#
# Indices 1 2 3 4 5 6 
#
# 1 0.025010 -0.002816 0.003259 0.000000 0.000000 0.000000
# 2 -0.002816 0.021718 -0.001720 0.000000 0.000000 0.000000
# 3 0.003259 -0.001720 0.021208 0.000000 0.000000 0.000000
# 4 0.000000 0.000000 0.000000 0.152450 0.000000 0.000000
# 5 0.000000 0.000000 0.000000 0.000000 0.066825 0.000000
# 6 0.000000 0.000000 0.000000 0.000000 0.000000 0.044768
#
#
# Mechanical properties :
#
#
# Convention : Reuss Voigt Hill
#
# Bulk Modulus (GPa) = 15.29485 15.61338 15.45411
# Shear Modulus (GPa) = 14.03209 17.74273 15.88741
#
# Velocity S-wave (km/s) = 2.89560 3.25602 3.08108
# Velocity P-wave (km/s) = 4.50758 4.84406 4.67885
#
# Compressibility (1/GPa) = 0.06538147
#
# Stress axis : x y z
#
# Youngs Moduli (GPa) = 39.98469 46.04571 47.15175
#
# Poissons Ratio (x) = 0.12965 -0.15365
# Poissons Ratio (y) = 0.11259 0.08109
# Poissons Ratio (z) = -0.13030 0.07919
#
# Static dielectric constant tensor:
#      x y z
#    x 1.626150 0.000000 0.000000 
#    y 0.000000 1.557120 0.000000 
#    z 0.000000 0.000000 1.563010 
# 
# From -- ./inp_files/40385.got.cif
#   From: 2010.05.17/outbox.cif.g08.bks.cpg/sg71_21_cif.got.tgz:40385.got - 2010.06.03 16:22:01.
