data_PCOD9517779
_publ_section_title
;
Structure prediction by ZEFSAII (Michael W. Deem and Ramdas Pophale) SiO2 
 PCOD9517779
Probable space group: I M M M
;
_chemical_formula_sum "Si O2"
_cell_formula_units_Z 96
_cell_length_a 7.456981
_cell_length_b 20.450513
_cell_length_c 33.046284
_cell_angle_alpha 90.000000
_cell_angle_beta 90.000000
_cell_angle_gamma 90.000000
_cell_volume 5039.528135
_symmetry_space_group_name_H-M "I M M M"
_symmetry_group_IT_number 71
_symmetry_cell_setting 'orthorhombic'
loop_
_space_group_symop_operation_xyz
x,y,z
-x,-y,z
x,-y,-z
-x,y,-z
-x,-y,-z
x,y,-z
-x,y,z
x,-y,z
1/2+x,1/2+y,1/2+z
1/2-x,1/2-y,1/2+z
1/2+x,1/2-y,1/2-z
1/2-x,1/2+y,1/2-z
1/2-x,1/2-y,1/2-z
1/2+x,1/2+y,1/2-z
1/2-x,1/2+y,1/2+z
1/2+x,1/2-y,1/2+z
loop_
_atom_site_type_symbol
_atom_site_label
_atom_site_fract_x
_atom_site_fract_y
_atom_site_fract_z
Si Si1 0.778892 0.788144 0.368439
Si Si2 0.716742 0.927288 0.756985
Si Si3 0.214574 0.707936 0.709693
Si Si4 0.203228 0.215944 0.454638
Si Si5 0.788359 0.072299 0.661892
Si Si6 0.793156 0.430425 0.048564
O O1 0.719950 0.744784 0.330329
O O2 0.716894 0.760641 0.412034
O O3 0.718198 0.862964 0.360081
O O4 0.000000 0.788601 0.368932
O O5 0.500000 0.927363 0.758492
O O6 0.782347 0.865554 0.782592
O O7 0.767627 0.917342 0.710037
O O8 0.778508 0.000000 0.769069
O O9 0.250000 0.750000 0.750000
O O10 0.000000 0.703947 0.705507
O O11 0.283576 0.224440 0.500000
O O12 0.196539 0.137886 0.445687
O O13 0.000000 0.240709 0.457122
O O14 0.000000 0.069721 0.652999
O O15 0.711406 0.000000 0.653113
O O16 0.717930 0.500000 0.063668
O O17 0.000000 0.425067 0.061881
O O18 0.797170 0.435457 0.000000
#
# Coordination Sequence:
#
# PCOD9517779 Si02
#       6
#    16  16  16  16  16  16
#     4   9  17  28  41  59  81 105 135 169 205 243
#     4   9  17  28  42  61  84 107 132 165 201 236
#     4  10  18  29  45  63  85 110 135 166 203 245
#     4   9  17  28  41  56  74  98 132 173 209 240
#     4   9  16  26  40  56  77 107 138 165 197 240
#     4   8  14  25  39  53  71  97 129 166 208 247
#
# _framework density 19.049403000000002
#
# number of rings (size 3 to 8) (size 9 to 14) (size 15 to 20)
#    0.000    3.000    1.667    0.500    0.000    1.000 
#    0.000    5.000    0.000    2.000    0.000    0.000 
#    0.000    0.667    0.000    9.333    0.000    0.000 
#
# Total GULP energy -267432.208509 kJ/mol
# GULP energy per Si atom -5571.504344 kJ/mol
# Density = 1.900605 g / cm^3
# Si number density = 19.049403 Si / 1000 Ang^3
#
#
#
# Elastic Constant Matrix: (Units=GPa)
#
#
# Indices 1 2 3 4 5 6 
#
# 1 58.6020 4.5363 3.0420 0.0000 0.0000 0.0000
# 2 4.5363 93.4502 70.4352 0.0000 0.0000 0.0000
# 3 3.0420 70.4352 170.9160 0.0000 0.0000 0.0000
# 4 0.0000 0.0000 0.0000 12.7272 0.0000 0.0000
# 5 0.0000 0.0000 0.0000 0.0000 9.1759 0.0000
# 6 0.0000 0.0000 0.0000 0.0000 0.0000 4.9302
#
#
#
# Elastic Compliance Matrix: (Units=1/GPa)
#
#
# Indices 1 2 3 4 5 6 
#
# 1 0.017129 -0.000873 0.000055 0.000000 0.000000 0.000000
# 2 -0.000873 0.015567 -0.006400 0.000000 0.000000 0.000000
# 3 0.000055 -0.006400 0.008487 0.000000 0.000000 0.000000
# 4 0.000000 0.000000 0.000000 0.078572 0.000000 0.000000
# 5 0.000000 0.000000 0.000000 0.000000 0.108981 0.000000
# 6 0.000000 0.000000 0.000000 0.000000 0.000000 0.202832
#
#
# Mechanical properties :
#
#
# Convention : Reuss Voigt Hill
#
# Bulk Modulus (GPa) = 37.38635 53.22170 45.30402
# Shear Modulus (GPa) = 10.99096 21.69696 16.34396
#
# Velocity S-wave (km/s) = 2.40463 3.37854 2.93230
# Velocity P-wave (km/s) = 5.23242 6.57410 5.94126
#
# Compressibility (1/GPa) = 0.02674773
#
# Stress axis : x y z
#
# Youngs Moduli (GPa) = 58.38058 64.23958 117.82531
#
# Poissons Ratio (x) = 0.05607 -0.00646
# Poissons Ratio (y) = 0.05095 0.75403
# Poissons Ratio (z) = -0.00320 0.41111
#
# Static dielectric constant tensor:
#      x y z
#    x 1.744540 0.000000 0.000000 
#    y 0.000000 1.682290 0.000000 
#    z 0.000000 0.000000 1.713950 
# 
# From -- ./inp_files/61861.got.cif
#   From: 2010.05.17/outbox.cif.g08.bks.cpg/sg71_31_cif.got.tgz:61861.got - 2010.06.03 16:22:01.
