data_PCOD9517111
_publ_section_title
;
Structure prediction by ZEFSAII (Michael W. Deem and Ramdas Pophale) SiO2 
 PCOD9517111
Probable space group: F D D D
;
_chemical_formula_sum "Si O2"
_cell_formula_units_Z 104
_cell_length_a 10.747995
_cell_length_b 13.692704
_cell_length_c 30.306626
_cell_angle_alpha 90.000000
_cell_angle_beta 90.000000
_cell_angle_gamma 90.000000
_cell_volume 4460.199301
_symmetry_space_group_name_H-M "F D D D"
_symmetry_group_IT_number 70
_space_group.IT_coordinate_system_code '2'
_symmetry_cell_setting 'orthorhombic'
loop_
_space_group_symop_operation_xyz
x,y,z
1/4-x,1/4-y,z
x,1/4-y,1/4-z
1/4-x,y,1/4-z
-x,-y,-z
3/4+x,3/4+y,-z
-x,3/4+y,3/4+z
3/4+x,-y,3/4+z
x,1/2+y,1/2+z
1/4-x,3/4-y,1/2+z
x,3/4-y,3/4-z
1/4-x,1/2+y,3/4-z
-x,1/2-y,1/2-z
3/4+x,1/4+y,1/2-z
-x,1/4+y,1/4+z
3/4+x,1/2-y,1/4+z
1/2+x,y,1/2+z
3/4-x,1/4-y,1/2+z
1/2+x,1/4-y,3/4-z
3/4-x,y,3/4-z
1/2-x,-y,1/2-z
1/4+x,3/4+y,1/2-z
1/2-x,3/4+y,1/4+z
1/4+x,-y,1/4+z
1/2+x,1/2+y,z
3/4-x,3/4-y,z
1/2+x,3/4-y,1/4-z
3/4-x,1/2+y,1/4-z
1/2-x,1/2-y,-z
1/4+x,1/4+y,-z
1/2-x,1/4+y,3/4+z
1/4+x,1/2-y,3/4+z
loop_
_atom_site_type_symbol
_atom_site_label
_atom_site_fract_x
_atom_site_fract_y
_atom_site_fract_z
Si Si1 0.942721 0.177712 0.047615
Si Si2 0.625000 0.125000 0.918903
Si Si3 0.951331 0.277452 0.548534
Si Si4 0.125000 0.431846 0.125000
Si Si5 0.125000 0.125000 0.125000
O O1 0.861309 0.274500 0.054353
O O2 0.034341 0.175965 0.089654
O O3 0.877134 0.072247 0.047584
O O4 0.006022 0.196163 0.000682
O O5 0.756424 0.123090 0.893374
O O6 0.875000 0.375000 0.562058
O O7 0.062686 0.262552 0.583621
#
# Coordination Sequence:
#
# PCOD9517111 Si02
#       5
#    32  16  32  16   8
#     4  12  28  47  79 115 160 209 268 328 401 471
#     4  12  28  49  76 117 156 211 260 331 398 472
#     4  12  27  50  78 117 155 213 265 334 391 481
#     4  12  27  51  80 112 164 209 269 330 398 466
#     4  12  26  46  82 114 158 218 268 326 388 484
#
# _framework density 23.317345
#
# number of rings (size 3 to 8) (size 9 to 14) (size 15 to 20)
#    0.000    0.000    3.077    5.538    4.308    7.385 
#    0.000    0.000    0.000    0.000    0.000    0.000 
#    0.000    0.000    0.000    0.000    0.000    0.000 
#
# Total GULP energy -145117.977103 kJ/mol
# GULP energy per Si atom -5581.460658 kJ/mol
# Density = 2.326427 g / cm^3
# Si number density = 23.317345 Si / 1000 Ang^3
#
#
#
# Elastic Constant Matrix: (Units=GPa)
#
#
# Indices 1 2 3 4 5 6 
#
# 1 129.1295 87.6074 70.9477 0.0000 0.0000 0.0000
# 2 87.6074 225.2164 72.8128 0.0000 0.0000 0.0000
# 3 70.9477 72.8128 192.5806 0.0000 0.0000 0.0000
# 4 0.0000 0.0000 0.0000 -66.1898 0.0000 0.0000
# 5 0.0000 0.0000 0.0000 0.0000 -26.3097 0.0000
# 6 0.0000 0.0000 0.0000 0.0000 0.0000 53.6263
#
#
#
# Elastic Compliance Matrix: (Units=1/GPa)
#
#
# Indices 1 2 3 4 5 6 
#
# 1 0.011862 -0.003647 -0.002991 0.000000 0.000000 0.000000
# 2 -0.003647 0.006180 -0.000993 0.000000 0.000000 0.000000
# 3 -0.002991 -0.000993 0.006670 0.000000 0.000000 0.000000
# 4 0.000000 0.000000 0.000000 -0.015108 0.000000 0.000000
# 5 0.000000 0.000000 0.000000 0.000000 -0.038009 0.000000
# 6 0.000000 0.000000 0.000000 0.000000 0.000000 0.018648
#
#
# Mechanical properties :
#
#
# Convention : Reuss Voigt Hill
#
# Bulk Modulus (GPa) = 105.82546 112.18470 109.00508
# Shear Modulus (GPa) = 577.72031 13.26259 295.49145
#
# Velocity S-wave (km/s) = 15.75760 2.38751 11.26948
# Velocity P-wave (km/s) = 19.40497 7.47107 14.70323
#
# Compressibility (1/GPa) = 0.00944952
#
# Stress axis : x y z
#
# Youngs Moduli (GPa) = 84.30308 161.81442 149.92597
#
# Poissons Ratio (x) = 0.59017 0.44843
# Poissons Ratio (y) = 0.30747 0.14886
# Poissons Ratio (z) = 0.25215 0.16067
#
# Static dielectric constant tensor:
#      x y z
#    x 1.916440 0.000000 0.000000 
#    y 0.000000 1.988640 0.000000 
#    z 0.000000 0.000000 1.921840 
# 
# From -- ./inp_files/57072.got.cif
#   From: 2010.05.17/outbox.cif.g08.bks.cpg/sg70_29_cif.got.tgz:57072.got - 2010.06.03 15:57:51.
