data_PCOD9517368
_publ_section_title
;
Structure prediction by ZEFSAII (Michael W. Deem and Ramdas Pophale) SiO2 
 PCOD9517368
Probable space group: I M M M
;
_chemical_formula_sum "Si O2"
_cell_formula_units_Z 104
_cell_length_a 25.012713
_cell_length_b 29.517770
_cell_length_c 7.865955
_cell_angle_alpha 90.000000
_cell_angle_beta 90.000000
_cell_angle_gamma 90.000000
_cell_volume 5807.588037
_symmetry_space_group_name_H-M "I M M M"
_symmetry_group_IT_number 71
_symmetry_cell_setting 'orthorhombic'
loop_
_space_group_symop_operation_xyz
x,y,z
-x,-y,z
x,-y,-z
-x,y,-z
-x,-y,-z
x,y,-z
-x,y,z
x,-y,z
1/2+x,1/2+y,1/2+z
1/2-x,1/2-y,1/2+z
1/2+x,1/2-y,1/2-z
1/2-x,1/2+y,1/2-z
1/2-x,1/2-y,1/2-z
1/2+x,1/2+y,1/2-z
1/2-x,1/2+y,1/2+z
1/2+x,1/2-y,1/2+z
loop_
_atom_site_type_symbol
_atom_site_label
_atom_site_fract_x
_atom_site_fract_y
_atom_site_fract_z
Si Si1 0.437935 0.500000 0.291739
Si Si2 0.060580 0.622781 0.701262
Si Si3 0.564739 0.222168 0.697721
Si Si4 0.437707 0.679051 0.291475
Si Si5 0.877510 0.090089 0.797592
Si Si6 0.732690 0.551690 0.797398
Si Si7 0.147083 0.551706 0.705033
O O1 0.500000 0.500000 0.243022
O O2 0.436102 0.500000 0.500000
O O3 0.407978 0.545321 0.231543
O O4 0.056486 0.614399 0.500000
O O5 0.080365 0.674446 0.721971
O O6 0.102438 0.586346 0.771068
O O7 0.000000 0.619286 0.772707
O O8 0.579780 0.219720 0.500000
O O9 0.500000 0.223835 0.707538
O O10 0.581811 0.271233 0.767184
O O11 0.436836 0.680603 0.500000
O O12 0.500000 0.672521 0.243964
O O13 0.402597 0.636795 0.231919
O O14 0.814890 0.083073 0.766906
O O15 0.886598 0.090682 0.000000
O O16 0.724747 0.500000 0.730586
O O17 0.792560 0.565818 0.749360
O O18 0.729165 0.550057 0.000000
O O19 0.143612 0.550675 0.500000
O O20 0.139387 0.500000 0.767051
#
# Coordination Sequence:
#
# PCOD9517368 Si02
#       7
#     8  16  16  16  16  16  16
#     4   9  16  24  39  67  95 117 146 187 232 273
#     4   9  17  29  47  73 100 121 142 175 222 270
#     4   8  14  26  44  65  91 124 156 182 214 263
#     4   8  14  25  43  68  94 119 152 193 230 265
#     4  10  17  27  46  68  90 118 154 195 232 270
#     4  10  20  33  47  63  88 121 157 193 228 268
#     4   9  18  32  50  70  92 119 151 184 218 264
#
# _framework density 17.907606999999999
#
# number of rings (size 3 to 8) (size 9 to 14) (size 15 to 20)
#    0.000    3.000    0.769    1.846    0.000    3.385 
#    0.000    2.308    0.000    4.154    0.000    4.308 
#    0.000    0.000    0.000    0.000    0.000    0.000 
#
# Total GULP energy -289674.434200 kJ/mol
# GULP energy per Si atom -5570.662196 kJ/mol
# Density = 1.786685 g / cm^3
# Si number density = 17.907607 Si / 1000 Ang^3
#
#
#
# Elastic Constant Matrix: (Units=GPa)
#
#
# Indices 1 2 3 4 5 6 
#
# 1 105.3028 95.4358 -2.6187 0.0000 0.0000 0.0000
# 2 95.4358 143.5582 4.6343 0.0000 0.0000 0.0000
# 3 -2.6187 4.6343 13.2865 0.0000 0.0000 0.0000
# 4 0.0000 0.0000 0.0000 13.4116 0.0000 0.0000
# 5 0.0000 0.0000 0.0000 0.0000 -1.0074 0.0000
# 6 0.0000 0.0000 0.0000 0.0000 0.0000 11.5871
#
#
#
# Elastic Compliance Matrix: (Units=1/GPa)
#
#
# Indices 1 2 3 4 5 6 
#
# 1 0.025390 -0.017235 0.011016 0.000000 0.000000 0.000000
# 2 -0.017235 0.018744 -0.009935 0.000000 0.000000 0.000000
# 3 0.011016 -0.009935 0.080901 0.000000 0.000000 0.000000
# 4 0.000000 0.000000 0.000000 0.074562 0.000000 0.000000
# 5 0.000000 0.000000 0.000000 0.000000 -0.992625 0.000000
# 6 0.000000 0.000000 0.000000 0.000000 0.000000 0.086303
#
#
# Mechanical properties :
#
#
# Convention : Reuss Voigt Hill
#
# Bulk Modulus (GPa) = 10.78433 50.78338 30.78385
# Shear Modulus (GPa) = -7.76990 15.77799 4.00405
#
# Velocity S-wave (km/s) = -2.08526 2.97152 1.49693
# Velocity P-wave (km/s) = 0.48739 6.33982 4.49616
#
# Compressibility (1/GPa) = 0.09272714
#
# Stress axis : x y z
#
# Youngs Moduli (GPa) = 39.38542 53.35062 12.36086
#
# Poissons Ratio (x) = 0.91948 -0.13616
# Poissons Ratio (y) = 0.67879 0.12280
# Poissons Ratio (z) = -0.43385 0.53002
#
# Static dielectric constant tensor:
#      x y z
#    x 1.590370 0.000000 0.000000 
#    y 0.000000 1.640030 0.000000 
#    z 0.000000 0.000000 1.660520 
# 
# From -- ./inp_files/15532.got.cif
#   From: 2010.05.17/outbox.cif.g08.bks.cpg/sg71_8_cif.got.tgz:15532.got - 2010.06.03 16:22:01.
