data_PCOD9517918
_publ_section_title
;
Structure prediction by ZEFSAII (Michael W. Deem and Ramdas Pophale) SiO2 
 PCOD9517918
Probable space group: I M M M
;
_chemical_formula_sum "Si O2"
_cell_formula_units_Z 72
_cell_length_a 7.365508
_cell_length_b 13.147219
_cell_length_c 33.394554
_cell_angle_alpha 90.000000
_cell_angle_beta 90.000000
_cell_angle_gamma 90.000000
_cell_volume 3233.793252
_symmetry_space_group_name_H-M "I M M M"
_symmetry_group_IT_number 71
_symmetry_cell_setting 'orthorhombic'
loop_
_space_group_symop_operation_xyz
x,y,z
-x,-y,z
x,-y,-z
-x,y,-z
-x,-y,-z
x,y,-z
-x,y,z
x,-y,z
1/2+x,1/2+y,1/2+z
1/2-x,1/2-y,1/2+z
1/2+x,1/2-y,1/2-z
1/2-x,1/2+y,1/2-z
1/2-x,1/2-y,1/2-z
1/2+x,1/2+y,1/2-z
1/2-x,1/2+y,1/2+z
1/2+x,1/2-y,1/2+z
loop_
_atom_site_type_symbol
_atom_site_label
_atom_site_fract_x
_atom_site_fract_y
_atom_site_fract_z
Si Si1 0.717981 0.383901 0.864274
Si Si2 0.781527 0.878180 0.724267
Si Si3 0.283381 0.378859 0.310305
Si Si4 0.777779 0.000000 0.954121
Si Si5 0.285355 0.320380 0.396492
O O1 0.500000 0.388006 0.861719
O O2 0.780838 0.500000 0.871073
O O3 0.784681 0.346442 0.819989
O O4 0.763914 0.301317 0.898122
O O5 0.709512 0.840628 0.767475
O O6 0.000000 0.867298 0.724802
O O7 0.747182 0.000000 0.723878
O O8 0.500000 0.359035 0.310023
O O9 0.262740 0.500000 0.309497
O O10 0.205537 0.346067 0.352821
O O11 0.718601 0.101559 0.930096
O O12 0.000000 0.000000 0.954900
O O13 0.717619 0.000000 0.000000
O O14 0.500000 0.341070 0.394354
#
# Coordination Sequence:
#
# PCOD9517918 Si02
#       5
#    16  16  16   8  16
#     4   9  18  32  47  66  97 136 170 195 231 283
#     4   7  11  21  38  59  87 127 166 195 227 274
#     4   8  12  21  39  64  93 122 158 200 238 281
#     4   9  18  34  55  79 105 127 151 193 255 315
#     4  10  18  29  50  76  96 121 160 203 245 288
#
# _framework density 22.264873999999999
#
# number of rings (size 3 to 8) (size 9 to 14) (size 15 to 20)
#    0.000    3.444    1.111    2.667    0.000    1.333 
#    0.000    0.556    0.000    2.000    0.000    7.778 
#    0.000    0.000    0.000    0.000    0.000    0.000 
#
# Total GULP energy -200732.765227 kJ/mol
# GULP energy per Si atom -5575.910145 kJ/mol
# Density = 2.221420 g / cm^3
# Si number density = 22.264874 Si / 1000 Ang^3
#
#
#
# Elastic Constant Matrix: (Units=GPa)
#
#
# Indices 1 2 3 4 5 6 
#
# 1 80.0230 8.0203 6.8971 0.0000 0.0000 0.0000
# 2 8.0203 133.3998 112.7079 0.0000 0.0000 0.0000
# 3 6.8971 112.7079 144.9586 0.0000 0.0000 0.0000
# 4 0.0000 0.0000 0.0000 21.7706 0.0000 0.0000
# 5 0.0000 0.0000 0.0000 0.0000 0.5373 0.0000
# 6 0.0000 0.0000 0.0000 0.0000 0.0000 16.5926
#
#
#
# Elastic Compliance Matrix: (Units=1/GPa)
#
#
# Indices 1 2 3 4 5 6 
#
# 1 0.012572 -0.000730 -0.000031 0.000000 0.000000 0.000000
# 2 -0.000730 0.021892 -0.016987 0.000000 0.000000 0.000000
# 3 -0.000031 -0.016987 0.020107 0.000000 0.000000 0.000000
# 4 0.000000 0.000000 0.000000 0.045933 0.000000 0.000000
# 5 0.000000 0.000000 0.000000 0.000000 1.861293 0.000000
# 6 0.000000 0.000000 0.000000 0.000000 0.000000 0.060268
#
#
# Mechanical properties :
#
#
# Convention : Reuss Voigt Hill
#
# Bulk Modulus (GPa) = 52.41900 68.18131 60.30016
# Shear Modulus (GPa) = 2.42258 23.16384 12.79321
#
# Velocity S-wave (km/s) = 1.04424 3.22898 2.39966
# Velocity P-wave (km/s) = 5.00484 6.67766 5.90082
#
# Compressibility (1/GPa) = 0.01907705
#
# Stress axis : x y z
#
# Youngs Moduli (GPa) = 79.54055 45.67882 49.73293
#
# Poissons Ratio (x) = 0.03335 0.00152
# Poissons Ratio (y) = 0.05807 0.84480
# Poissons Ratio (z) = 0.00243 0.77593
#
# Static dielectric constant tensor:
#      x y z
#    x 1.848810 0.000000 0.000000 
#    y 0.000000 1.923640 0.000000 
#    z 0.000000 0.000000 1.803020 
# 
# From -- ./inp_files/67857.got.cif
#   From: 2010.05.17/outbox.cif.g08.bks.cpg/sg71_34_cif.got.tgz:67857.got - 2010.06.03 16:22:01.
