data_PCOD9517027
_publ_section_title
;
Structure prediction by ZEFSAII (Michael W. Deem and Ramdas Pophale) SiO2 
 PCOD9517027
Probable space group: F D D D
;
_chemical_formula_sum "Si O2"
_cell_formula_units_Z 208
_cell_length_a 29.411732
_cell_length_b 17.768885
_cell_length_c 15.551480
_cell_angle_alpha 90.000000
_cell_angle_beta 90.000000
_cell_angle_gamma 90.000000
_cell_volume 8127.416248
_symmetry_space_group_name_H-M "F D D D"
_symmetry_group_IT_number 70
_space_group.IT_coordinate_system_code '2'
_symmetry_cell_setting 'orthorhombic'
loop_
_space_group_symop_operation_xyz
x,y,z
1/4-x,1/4-y,z
x,1/4-y,1/4-z
1/4-x,y,1/4-z
-x,-y,-z
3/4+x,3/4+y,-z
-x,3/4+y,3/4+z
3/4+x,-y,3/4+z
x,1/2+y,1/2+z
1/4-x,3/4-y,1/2+z
x,3/4-y,3/4-z
1/4-x,1/2+y,3/4-z
-x,1/2-y,1/2-z
3/4+x,1/4+y,1/2-z
-x,1/4+y,1/4+z
3/4+x,1/2-y,1/4+z
1/2+x,y,1/2+z
3/4-x,1/4-y,1/2+z
1/2+x,1/4-y,3/4-z
3/4-x,y,3/4-z
1/2-x,-y,1/2-z
1/4+x,3/4+y,1/2-z
1/2-x,3/4+y,1/4+z
1/4+x,-y,1/4+z
1/2+x,1/2+y,z
3/4-x,3/4-y,z
1/2+x,3/4-y,1/4-z
3/4-x,1/2+y,1/4-z
1/2-x,1/2-y,-z
1/4+x,1/4+y,-z
1/2-x,1/4+y,3/4+z
1/4+x,1/2-y,3/4+z
loop_
_atom_site_type_symbol
_atom_site_label
_atom_site_fract_x
_atom_site_fract_y
_atom_site_fract_z
Si Si1 0.875000 0.875000 0.002738
Si Si2 0.545344 0.434539 0.724820
Si Si3 0.276719 0.434001 0.698834
Si Si4 0.915257 0.018498 0.708588
Si Si5 0.238842 0.165547 0.748637
Si Si6 0.911818 0.943429 0.519508
Si Si7 0.625000 0.806476 0.625000
Si Si8 0.346662 0.625000 0.625000
O O1 0.919299 0.921154 0.039726
O O2 0.902586 0.798358 0.973841
O O3 0.498101 0.392445 0.728265
O O4 0.538524 0.520078 0.698077
O O5 0.580862 0.399326 0.657608
O O6 0.566368 0.429773 0.818942
O O7 0.250000 0.500000 0.750000
O O8 0.265532 0.436911 0.598495
O O9 0.875763 0.078248 0.692229
O O10 0.959471 0.069668 0.723752
O O11 0.918221 0.976439 0.615334
O O12 0.210708 0.089009 0.739597
O O13 0.875000 0.875000 0.523375
O O14 0.891695 0.004953 0.454653
#
# Coordination Sequence:
#
# PCOD9517027 Si02
#       8
#    16  32  32  32  32  32  16  16
#     4  12  22  52  77 107 154 212 258 326 412 481
#     4  12  25  47  72 111 153 193 264 317 385 474
#     4  12  27  49  81 112 157 206 266 340 402 483
#     4  12  25  46  76 110 148 205 261 312 395 485
#     4  12  25  45  76 112 151 199 261 318 392 473
#     4  12  22  47  77 103 157 210 253 316 398 481
#     4  12  27  42  78 118 154 207 262 326 394 485
#     4  12  26  48  78 107 151 210 252 316 402 472
#
# _framework density 25.592389000000001
#
# number of rings (size 3 to 8) (size 9 to 14) (size 15 to 20)
#    0.000    0.000    6.923    3.000    2.154    1.231 
#    0.000    3.077    0.000    0.000    0.000    0.000 
#    0.000    0.000    0.000    0.000    0.000    0.000 
#
# Total GULP energy -290595.296330 kJ/mol
# GULP energy per Si atom -5588.371083 kJ/mol
# Density = 2.553414 g / cm^3
# Si number density = 25.592389 Si / 1000 Ang^3
#
#
#
# Elastic Constant Matrix: (Units=GPa)
#
#
# Indices 1 2 3 4 5 6 
#
# 1 185.2693 33.3815 40.6349 0.0000 0.0000 0.0000
# 2 33.3815 83.1829 7.4422 0.0000 0.0000 0.0000
# 3 40.6349 7.4422 71.5170 0.0000 0.0000 0.0000
# 4 0.0000 0.0000 0.0000 33.3561 0.0000 0.0000
# 5 0.0000 0.0000 0.0000 0.0000 30.3934 0.0000
# 6 0.0000 0.0000 0.0000 0.0000 0.0000 43.2118
#
#
#
# Elastic Compliance Matrix: (Units=1/GPa)
#
#
# Indices 1 2 3 4 5 6 
#
# 1 0.006585 -0.002329 -0.003499 0.000000 0.000000 0.000000
# 2 -0.002329 0.012959 -0.000025 0.000000 0.000000 0.000000
# 3 -0.003499 -0.000025 0.015973 0.000000 0.000000 0.000000
# 4 0.000000 0.000000 0.000000 0.029980 0.000000 0.000000
# 5 0.000000 0.000000 0.000000 0.000000 0.032902 0.000000
# 6 0.000000 0.000000 0.000000 0.000000 0.000000 0.023142
#
#
# Mechanical properties :
#
#
# Convention : Reuss Voigt Hill
#
# Bulk Modulus (GPa) = 41.99890 55.87626 48.93758
# Shear Modulus (GPa) = 35.41496 38.62629 37.02063
#
# Velocity S-wave (km/s) = 3.72399 3.88917 3.80748
# Velocity P-wave (km/s) = 5.91077 6.48445 6.20424
#
# Compressibility (1/GPa) = 0.02381015
#
# Stress axis : x y z
#
# Youngs Moduli (GPa) = 151.86784 77.16800 62.60438
#
# Poissons Ratio (x) = 0.17976 0.21905
# Poissons Ratio (y) = 0.35376 0.00156
# Poissons Ratio (z) = 0.53137 0.00193
#
# Static dielectric constant tensor:
#      x y z
#    x 2.007520 0.000000 0.000000 
#    y 0.000000 2.055650 0.000000 
#    z 0.000000 0.000000 2.046840 
# 
# From -- ./inp_files/38776.got.cif
#   From: 2010.05.17/outbox.cif.g08.bks.cpg/sg70_20_cif.got.tgz:38776.got - 2010.06.03 15:57:51.
