data_PCOD9517092
_publ_section_title
;
Structure prediction by ZEFSAII (Michael W. Deem and Ramdas Pophale) SiO2 
 PCOD9517092
Probable space group: F D D D
;
_chemical_formula_sum "Si O2"
_cell_formula_units_Z 112
_cell_length_a 16.145812
_cell_length_b 27.596050
_cell_length_c 11.627733
_cell_angle_alpha 90.000000
_cell_angle_beta 90.000000
_cell_angle_gamma 90.000000
_cell_volume 5180.860102
_symmetry_space_group_name_H-M "F D D D"
_symmetry_group_IT_number 70
_space_group.IT_coordinate_system_code '2'
_symmetry_cell_setting 'orthorhombic'
loop_
_space_group_symop_operation_xyz
x,y,z
1/4-x,1/4-y,z
x,1/4-y,1/4-z
1/4-x,y,1/4-z
-x,-y,-z
3/4+x,3/4+y,-z
-x,3/4+y,3/4+z
3/4+x,-y,3/4+z
x,1/2+y,1/2+z
1/4-x,3/4-y,1/2+z
x,3/4-y,3/4-z
1/4-x,1/2+y,3/4-z
-x,1/2-y,1/2-z
3/4+x,1/4+y,1/2-z
-x,1/4+y,1/4+z
3/4+x,1/2-y,1/4+z
1/2+x,y,1/2+z
3/4-x,1/4-y,1/2+z
1/2+x,1/4-y,3/4-z
3/4-x,y,3/4-z
1/2-x,-y,1/2-z
1/4+x,3/4+y,1/2-z
1/2-x,3/4+y,1/4+z
1/4+x,-y,1/4+z
1/2+x,1/2+y,z
3/4-x,3/4-y,z
1/2+x,3/4-y,1/4-z
3/4-x,1/2+y,1/4-z
1/2-x,1/2-y,-z
1/4+x,1/4+y,-z
1/2-x,1/4+y,3/4+z
1/4+x,1/2-y,3/4+z
loop_
_atom_site_type_symbol
_atom_site_label
_atom_site_fract_x
_atom_site_fract_y
_atom_site_fract_z
Si Si1 0.943580 0.457831 0.800055
Si Si2 0.578845 0.796796 0.773745
Si Si3 0.948170 0.125000 0.125000
Si Si4 0.475160 0.872659 0.123744
O O1 0.875000 0.428506 0.875000
O O2 0.891465 0.503818 0.759143
O O3 0.987531 0.425209 0.704462
O O4 0.011351 0.474939 0.890484
O O5 0.637219 0.831229 0.848270
O O6 0.529094 0.832914 0.683877
O O7 0.998662 0.132292 0.243291
O O8 0.375000 0.875000 0.120689
#
# Coordination Sequence:
#
# PCOD9517092 Si02
#       4
#    32  32  16  32
#     4  12  25  45  77 111 142 196 257 309 365 449
#     4  12  27  48  78 110 148 197 257 310 373 451
#     4  12  27  48  71 110 156 198 240 318 377 442
#     4  12  26  48  73 107 153 200 250 308 380 441
#
# _framework density 21.618033
#
# number of rings (size 3 to 8) (size 9 to 14) (size 15 to 20)
#    0.000    0.000    5.714    3.857    4.000    1.143 
#    0.000    0.000    0.000    0.000    0.000    0.000 
#    0.000    0.000    0.000    0.000    0.000    0.000 
#
# Total GULP energy -156251.661466 kJ/mol
# GULP energy per Si atom -5580.416481 kJ/mol
# Density = 2.156883 g / cm^3
# Si number density = 21.618033 Si / 1000 Ang^3
#
#
#
# Elastic Constant Matrix: (Units=GPa)
#
#
# Indices 1 2 3 4 5 6 
#
# 1 134.0133 71.6858 90.3747 0.0000 0.0000 0.0000
# 2 71.6858 172.9613 93.4460 0.0000 0.0000 0.0000
# 3 90.3747 93.4460 196.8954 0.0000 0.0000 0.0000
# 4 0.0000 0.0000 0.0000 33.6933 0.0000 0.0000
# 5 0.0000 0.0000 0.0000 0.0000 66.6863 0.0000
# 6 0.0000 0.0000 0.0000 0.0000 0.0000 40.8371
#
#
#
# Elastic Compliance Matrix: (Units=1/GPa)
#
#
# Indices 1 2 3 4 5 6 
#
# 1 0.011616 -0.002601 -0.004098 0.000000 0.000000 0.000000
# 2 -0.002601 0.008358 -0.002773 0.000000 0.000000 0.000000
# 3 -0.004098 -0.002773 0.008276 0.000000 0.000000 0.000000
# 4 0.000000 0.000000 0.000000 0.029680 0.000000 0.000000
# 5 0.000000 0.000000 0.000000 0.000000 0.014996 0.000000
# 6 0.000000 0.000000 0.000000 0.000000 0.000000 0.024488
#
#
# Mechanical properties :
#
#
# Convention : Reuss Voigt Hill
#
# Bulk Modulus (GPa) = 107.44167 112.76481 110.10324
# Shear Modulus (GPa) = 41.85608 44.80089 43.32849
#
# Velocity S-wave (km/s) = 4.40496 4.55728 4.48177
# Velocity P-wave (km/s) = 8.69940 8.94245 8.82176
#
# Compressibility (1/GPa) = 0.00930738
#
# Stress axis : x y z
#
# Youngs Moduli (GPa) = 86.08482 119.65182 120.83741
#
# Poissons Ratio (x) = 0.31118 0.49515
# Poissons Ratio (y) = 0.22388 0.33505
# Poissons Ratio (z) = 0.35274 0.33176
#
# Static dielectric constant tensor:
#      x y z
#    x 1.855570 0.000000 0.000000 
#    y 0.000000 1.841450 0.000000 
#    z 0.000000 0.000000 1.887400 
# 
# From -- ./inp_files/15078.got.cif
#   From: 2010.05.17/outbox.cif.g08.bks.cpg/sg70_8_cif.got.tgz:15078.got - 2010.06.03 15:57:51.
