data_PCOD9517966
_publ_section_title
;
Structure prediction by ZEFSAII (Michael W. Deem and Ramdas Pophale) SiO2 
 PCOD9517966
Probable space group: I M M M
;
_chemical_formula_sum "Si O2"
_cell_formula_units_Z 120
_cell_length_a 21.014238
_cell_length_b 23.687343
_cell_length_c 13.738868
_cell_angle_alpha 90.000000
_cell_angle_beta 90.000000
_cell_angle_gamma 90.000000
_cell_volume 6838.816430
_symmetry_space_group_name_H-M "I M M M"
_symmetry_group_IT_number 71
_symmetry_cell_setting 'orthorhombic'
loop_
_space_group_symop_operation_xyz
x,y,z
-x,-y,z
x,-y,-z
-x,y,-z
-x,-y,-z
x,y,-z
-x,y,z
x,-y,z
1/2+x,1/2+y,1/2+z
1/2-x,1/2-y,1/2+z
1/2+x,1/2-y,1/2-z
1/2-x,1/2+y,1/2-z
1/2-x,1/2-y,1/2-z
1/2+x,1/2+y,1/2-z
1/2-x,1/2+y,1/2+z
1/2+x,1/2-y,1/2+z
loop_
_atom_site_type_symbol
_atom_site_label
_atom_site_fract_x
_atom_site_fract_y
_atom_site_fract_z
Si Si1 0.576609 0.000000 0.108308
Si Si2 0.198537 0.342732 0.615347
Si Si3 0.616268 0.064995 0.385588
Si Si4 0.431554 0.317539 0.883037
Si Si5 0.747184 0.102074 0.703343
Si Si6 0.707927 0.716232 0.116385
Si Si7 0.572739 0.880306 0.202471
Si Si8 0.622493 0.562713 0.115162
O O1 0.591990 0.942164 0.161309
O O2 0.500000 0.000000 0.102312
O O3 0.603635 0.000000 0.000000
O O4 0.198540 0.354194 0.500000
O O5 0.233057 0.388938 0.682610
O O6 0.228192 0.280607 0.632244
O O7 0.125766 0.340754 0.655097
O O8 0.611766 0.076764 0.500000
O O9 0.689070 0.070691 0.349173
O O10 0.579380 0.109552 0.317809
O O11 0.594221 0.000000 0.370195
O O12 0.500000 0.297529 0.844364
O O13 0.365135 0.291476 0.847688
O O14 0.423813 0.384805 0.866352
O O15 0.432469 0.308618 0.000000
O O16 0.751197 0.166057 0.661641
O O17 0.813324 0.072969 0.676043
O O18 0.707256 0.706971 0.000000
O O19 0.500000 0.867229 0.175588
O O20 0.596718 0.500000 0.132847
O O21 0.639598 0.566363 0.000000
#
# Coordination Sequence:
#
# PCOD9517966 Si02
#       8
#     8  16  16  16  16  16  16  16
#     4   9  16  28  45  59  77 109 144 176 212 257
#     4  10  21  33  46  65  87 114 152 193 225 259
#     4  10  19  30  47  70  93 117 148 187 228 271
#     4   8  14  24  39  63  94 122 144 167 200 248
#     4  10  18  30  47  65  90 118 150 184 222 267
#     4   9  17  30  47  67  91 119 148 179 220 265
#     4  10  20  33  47  65  88 115 150 186 225 270
#     4   9  16  26  43  66  91 120 148 174 210 259
#
# _framework density 17.546896
#
# number of rings (size 3 to 8) (size 9 to 14) (size 15 to 20)
#    0.000    2.600    0.667    3.200    0.000    2.933 
#    0.000    3.333    0.000    0.000    0.000    0.000 
#    0.000    8.533    0.000    4.800    0.000    0.533 
#
# Total GULP energy -334211.419748 kJ/mol
# GULP energy per Si atom -5570.190329 kJ/mol
# Density = 1.750696 g / cm^3
# Si number density = 17.546896 Si / 1000 Ang^3
#
#
#
# Elastic Constant Matrix: (Units=GPa)
#
#
# Indices 1 2 3 4 5 6 
#
# 1 35.4806 -11.7670 -6.4724 0.0000 0.0000 0.0000
# 2 -11.7670 45.3238 16.4848 0.0000 0.0000 0.0000
# 3 -6.4724 16.4848 70.9455 0.0000 0.0000 0.0000
# 4 0.0000 0.0000 0.0000 19.4101 0.0000 0.0000
# 5 0.0000 0.0000 0.0000 0.0000 13.1237 0.0000
# 6 0.0000 0.0000 0.0000 0.0000 0.0000 10.0714
#
#
#
# Elastic Compliance Matrix: (Units=1/GPa)
#
#
# Indices 1 2 3 4 5 6 
#
# 1 0.030910 0.007645 0.001043 0.000000 0.000000 0.000000
# 2 0.007645 0.025991 -0.005342 0.000000 0.000000 0.000000
# 3 0.001043 -0.005342 0.015432 0.000000 0.000000 0.000000
# 4 0.000000 0.000000 0.000000 0.051519 0.000000 0.000000
# 5 0.000000 0.000000 0.000000 0.000000 0.076198 0.000000
# 6 0.000000 0.000000 0.000000 0.000000 0.000000 0.099292
#
#
# Mechanical properties :
#
#
# Convention : Reuss Voigt Hill
#
# Bulk Modulus (GPa) = 12.65380 16.47118 14.56249
# Shear Modulus (GPa) = 15.67444 18.75468 17.21456
#
# Velocity S-wave (km/s) = 2.99204 3.27285 3.13559
# Velocity P-wave (km/s) = 4.37761 4.86717 4.62887
#
# Compressibility (1/GPa) = 0.07902764
#
# Stress axis : x y z
#
# Youngs Moduli (GPa) = 32.35163 38.47447 64.80148
#
# Poissons Ratio (x) = -0.29415 -0.06762
# Poissons Ratio (y) = -0.24734 0.34616
# Poissons Ratio (z) = -0.03376 0.20552
#
# Static dielectric constant tensor:
#      x y z
#    x 1.611970 0.000000 0.000000 
#    y 0.000000 1.634150 0.000000 
#    z 0.000000 0.000000 1.613340 
# 
# From -- ./inp_files/38563.got.cif
#   From: 2010.05.17/outbox.cif.g08.bks.cpg/sg71_20_cif.got.tgz:38563.got - 2010.06.03 16:22:01.
