data_PCOD9517648
_publ_section_title
;
Structure prediction by ZEFSAII (Michael W. Deem and Ramdas Pophale) SiO2 
 PCOD9517648
Probable space group: I M M M
;
_chemical_formula_sum "Si O2"
_cell_formula_units_Z 104
_cell_length_a 25.751826
_cell_length_b 8.154097
_cell_length_c 34.255626
_cell_angle_alpha 90.000000
_cell_angle_beta 90.000000
_cell_angle_gamma 90.000000
_cell_volume 7193.095248
_symmetry_space_group_name_H-M "I M M M"
_symmetry_group_IT_number 71
_symmetry_cell_setting 'orthorhombic'
loop_
_space_group_symop_operation_xyz
x,y,z
-x,-y,z
x,-y,-z
-x,y,-z
-x,-y,-z
x,y,-z
-x,y,z
x,-y,z
1/2+x,1/2+y,1/2+z
1/2-x,1/2-y,1/2+z
1/2+x,1/2-y,1/2-z
1/2-x,1/2+y,1/2-z
1/2-x,1/2-y,1/2-z
1/2+x,1/2+y,1/2-z
1/2-x,1/2+y,1/2+z
1/2+x,1/2-y,1/2+z
loop_
_atom_site_type_symbol
_atom_site_label
_atom_site_fract_x
_atom_site_fract_y
_atom_site_fract_z
Si Si1 0.056418 0.699232 0.162014
Si Si2 0.943365 0.300639 0.745844
Si Si3 0.500000 0.814013 0.547443
Si Si4 0.730837 0.802143 0.310633
Si Si5 0.614048 0.694420 0.544126
Si Si6 0.160499 0.302485 0.120315
Si Si7 0.169841 0.302314 0.732758
O O1 0.056845 0.500000 0.159399
O O2 0.059799 0.737601 0.207972
O O3 0.107086 0.759950 0.140069
O O4 0.000000 0.755956 0.147266
O O5 0.943966 0.500000 0.742964
O O6 0.889192 0.242573 0.727483
O O7 0.000000 0.242165 0.731483
O O8 0.500000 0.811844 0.500000
O O9 0.555452 0.738032 0.557996
O O10 0.500000 0.000000 0.561909
O O11 0.707298 0.745385 0.351863
O O12 0.788669 0.747883 0.299779
O O13 0.693748 0.746784 0.274604
O O14 0.729739 0.000000 0.310308
O O15 0.620528 0.761732 0.500000
O O16 0.617256 0.500000 0.542153
O O17 0.655871 0.755515 0.575274
O O18 0.160159 0.500000 0.122274
O O19 0.168301 0.500000 0.734303
#
# Coordination Sequence:
#
# PCOD9517648 Si02
#       7
#    16  16   8  16  16  16  16
#     4   8  13  21  34  53  74  93 118 158 202 231
#     4   8  12  20  36  56  76  97 125 162 197 228
#     4   9  17  31  49  63  73  93 129 163 193 239
#     4   9  17  27  38  56  79 101 127 162 197 229
#     4  10  21  34  44  56  78 102 122 155 205 251
#     4  10  18  28  43  60  75  94 130 169 198 236
#     4   9  15  25  40  56  76 102 131 158 191 235
#
# _framework density 14.458310000000001
#
# number of rings (size 3 to 8) (size 9 to 14) (size 15 to 20)
#    0.000    3.000    1.538    1.615    1.077    2.462 
#    0.000    0.000    0.000    0.462    0.000    2.154 
#    0.000    0.000    0.000    0.000    0.000    0.769 
#
# Total GULP energy -289562.228529 kJ/mol
# GULP energy per Si atom -5568.504395 kJ/mol
# Density = 1.442540 g / cm^3
# Si number density = 14.458310 Si / 1000 Ang^3
#
#
#
# Elastic Constant Matrix: (Units=GPa)
#
#
# Indices 1 2 3 4 5 6 
#
# 1 119.3152 10.4294 54.4453 0.0000 0.0000 0.0000
# 2 10.4294 6.9405 7.4063 0.0000 0.0000 0.0000
# 3 54.4453 7.4063 72.6854 0.0000 0.0000 0.0000
# 4 0.0000 0.0000 0.0000 10.5294 0.0000 0.0000
# 5 0.0000 0.0000 0.0000 0.0000 26.9160 0.0000
# 6 0.0000 0.0000 0.0000 0.0000 0.0000 15.4510
#
#
#
# Elastic Compliance Matrix: (Units=1/GPa)
#
#
# Indices 1 2 3 4 5 6 
#
# 1 0.013390 -0.010567 -0.008953 0.000000 0.000000 0.000000
# 2 -0.010567 0.170000 -0.009407 0.000000 0.000000 0.000000
# 3 -0.008953 -0.009407 0.021423 0.000000 0.000000 0.000000
# 4 0.000000 0.000000 0.000000 0.094972 0.000000 0.000000
# 5 0.000000 0.000000 0.000000 0.000000 0.037153 0.000000
# 6 0.000000 0.000000 0.000000 0.000000 0.000000 0.064721
#
#
# Mechanical properties :
#
#
# Convention : Reuss Voigt Hill
#
# Bulk Modulus (GPa) = 6.80465 38.16702 22.48583
# Shear Modulus (GPa) = 9.83284 19.02327 14.42805
#
# Velocity S-wave (km/s) = 2.61067 3.63124 3.16239
# Velocity P-wave (km/s) = 3.71538 6.63600 5.37776
#
# Compressibility (1/GPa) = 0.14695840
#
# Stress axis : x y z
#
# Youngs Moduli (GPa) = 74.68024 5.88236 46.67887
#
# Poissons Ratio (x) = 0.06216 0.41793
# Poissons Ratio (y) = 0.78918 0.43909
# Poissons Ratio (z) = 0.66864 0.05533
#
# Static dielectric constant tensor:
#      x y z
#    x 1.503940 0.000000 0.000000 
#    y 0.000000 1.517910 0.000000 
#    z 0.000000 0.000000 1.492070 
# 
# From -- ./inp_files/71169.got.cif
#   From: 2010.05.17/outbox.cif.g08.bks.cpg/sg71_36_cif.got.tgz:71169.got - 2010.06.03 16:22:01.
