data_PCOD9517774
_publ_section_title
;
Structure prediction by ZEFSAII (Michael W. Deem and Ramdas Pophale) SiO2 
 PCOD9517774
Probable space group: I M M M
;
_chemical_formula_sum "Si O2"
_cell_formula_units_Z 64
_cell_length_a 11.812148
_cell_length_b 15.329280
_cell_length_c 14.081668
_cell_angle_alpha 90.000000
_cell_angle_beta 90.000000
_cell_angle_gamma 90.000000
_cell_volume 2549.791903
_symmetry_space_group_name_H-M "I M M M"
_symmetry_group_IT_number 71
_symmetry_cell_setting 'orthorhombic'
loop_
_space_group_symop_operation_xyz
x,y,z
-x,-y,z
x,-y,-z
-x,y,-z
-x,-y,-z
x,y,-z
-x,y,z
x,-y,z
1/2+x,1/2+y,1/2+z
1/2-x,1/2-y,1/2+z
1/2+x,1/2-y,1/2-z
1/2-x,1/2+y,1/2-z
1/2-x,1/2-y,1/2-z
1/2+x,1/2+y,1/2-z
1/2-x,1/2+y,1/2+z
1/2+x,1/2-y,1/2+z
loop_
_atom_site_type_symbol
_atom_site_label
_atom_site_fract_x
_atom_site_fract_y
_atom_site_fract_z
Si Si1 0.374341 0.500000 0.383978
Si Si2 0.000000 0.115918 0.612087
Si Si3 0.500000 0.805398 0.193151
Si Si4 0.771329 0.666241 0.613942
Si Si5 0.000000 0.357273 0.111307
Si Si6 0.250503 0.630371 0.886447
O O1 0.500000 0.500000 0.345559
O O2 0.377655 0.500000 0.500000
O O3 0.314243 0.590440 0.358436
O O4 0.000000 0.219707 0.628539
O O5 0.127740 0.093357 0.648560
O O6 0.000000 0.095376 0.500000
O O7 0.611375 0.856264 0.163840
O O8 0.500000 0.785184 0.305062
O O9 0.783156 0.665229 0.500000
O O10 0.744057 0.766526 0.640223
O O11 0.121761 0.403402 0.128190
O O12 0.000000 0.327806 0.000000
O O13 0.262990 0.626392 0.000000
#
# Coordination Sequence:
#
# PCOD9517774 Si02
#       6
#     8   8   8  16   8  16
#     4   9  18  29  45  71 101 127 148 174 219 279
#     4   8  14  26  41  59  83 115 152 184 216 265
#     4  10  18  29  45  61  91 123 157 193 232 258
#     4   9  17  29  46  69  95 123 153 182 219 273
#     4  10  20  30  43  65  91 123 162 200 235 269
#     4   8  15  27  43  61  88 123 154 187 224 262
#
# _framework density 25.100086000000001
#
# number of rings (size 3 to 8) (size 9 to 14) (size 15 to 20)
#    0.000    3.125    0.000    2.625    1.750    4.500 
#    0.000    1.875    2.750    0.000    0.000    1.750 
#    0.000    1.000    0.000    0.000    0.000    0.000 
#
# Total GULP energy -178329.683470 kJ/mol
# GULP energy per Si atom -5572.802608 kJ/mol
# Density = 2.504296 g / cm^3
# Si number density = 25.100086 Si / 1000 Ang^3
#
#
#
# Elastic Constant Matrix: (Units=GPa)
#
#
# Indices 1 2 3 4 5 6 
#
# 1 316.1533 76.2494 24.7589 0.0000 0.0000 0.0000
# 2 76.2494 141.6876 26.0095 0.0000 0.0000 0.0000
# 3 24.7589 26.0095 127.1776 0.0000 0.0000 0.0000
# 4 0.0000 0.0000 0.0000 -20.6532 0.0000 0.0000
# 5 0.0000 0.0000 0.0000 0.0000 -4.2432 0.0000
# 6 0.0000 0.0000 0.0000 0.0000 0.0000 114.6763
#
#
#
# Elastic Compliance Matrix: (Units=1/GPa)
#
#
# Indices 1 2 3 4 5 6 
#
# 1 0.003647 -0.001904 -0.000321 0.000000 0.000000 0.000000
# 2 -0.001904 0.008327 -0.001332 0.000000 0.000000 0.000000
# 3 -0.000321 -0.001332 0.008198 0.000000 0.000000 0.000000
# 4 0.000000 0.000000 0.000000 -0.048419 0.000000 0.000000
# 5 0.000000 0.000000 0.000000 0.000000 -0.235674 0.000000
# 6 0.000000 0.000000 0.000000 0.000000 0.000000 0.008720
#
#
# Mechanical properties :
#
#
# Convention : Reuss Voigt Hill
#
# Bulk Modulus (GPa) = 76.57945 93.22826 84.90385
# Shear Modulus (GPa) = -20.51424 48.48937 13.98757
#
# Velocity S-wave (km/s) = -2.86194 4.40004 2.36322
# Velocity P-wave (km/s) = 4.43339 7.93959 6.43008
#
# Compressibility (1/GPa) = 0.01305833
#
# Stress axis : x y z
#
# Youngs Moduli (GPa) = 274.17334 120.09175 121.98211
#
# Poissons Ratio (x) = 0.22865 0.03912
# Poissons Ratio (y) = 0.52201 0.16252
# Poissons Ratio (z) = 0.08792 0.16000
#
# Static dielectric constant tensor:
#      x y z
#    x 2.052870 0.000000 0.000000 
#    y 0.000000 1.899160 0.000000 
#    z 0.000000 0.000000 1.952230 
# 
# From -- ./inp_files/23261.got.cif
#   From: 2010.05.17/outbox.cif.g08.bks.cpg/sg71_12_cif.got.tgz:23261.got - 2010.06.03 16:22:01.
