data_PCOD9517393
_publ_section_title
;
Structure prediction by ZEFSAII (Michael W. Deem and Ramdas Pophale) SiO2 
 PCOD9517393
Probable space group: I M M M
;
_chemical_formula_sum "Si O2"
_cell_formula_units_Z 128
_cell_length_a 18.495208
_cell_length_b 18.309470
_cell_length_c 23.546790
_cell_angle_alpha 90.000000
_cell_angle_beta 90.000000
_cell_angle_gamma 90.000000
_cell_volume 7973.825063
_symmetry_space_group_name_H-M "I M M M"
_symmetry_group_IT_number 71
_symmetry_cell_setting 'orthorhombic'
loop_
_space_group_symop_operation_xyz
x,y,z
-x,-y,z
x,-y,-z
-x,y,-z
-x,-y,-z
x,y,-z
-x,y,z
x,-y,z
1/2+x,1/2+y,1/2+z
1/2-x,1/2-y,1/2+z
1/2+x,1/2-y,1/2-z
1/2-x,1/2+y,1/2-z
1/2-x,1/2-y,1/2-z
1/2+x,1/2+y,1/2-z
1/2-x,1/2+y,1/2+z
1/2+x,1/2-y,1/2+z
loop_
_atom_site_type_symbol
_atom_site_label
_atom_site_fract_x
_atom_site_fract_y
_atom_site_fract_z
Si Si1 0.280568 0.189560 0.836961
Si Si2 0.763029 0.086821 0.934742
Si Si3 0.917362 0.718964 0.262633
Si Si4 0.921232 0.889732 0.765476
Si Si5 0.414946 0.085627 0.567742
Si Si6 0.767746 0.079713 0.738179
Si Si7 0.578760 0.413638 0.599252
Si Si8 0.322890 0.168585 0.342246
O O1 0.280640 0.137633 0.891752
O O2 0.360118 0.210774 0.814115
O O3 0.247866 0.140719 0.785778
O O4 0.227252 0.258786 0.846316
O O5 0.847182 0.111827 0.928914
O O6 0.759986 0.000000 0.919317
O O7 0.740533 0.093676 0.000000
O O8 0.919981 0.803689 0.245671
O O9 0.881986 0.680279 0.207771
O O10 0.000000 0.694714 0.274162
O O11 0.853661 0.922065 0.733145
O O12 0.913070 0.904151 0.832914
O O13 0.000000 0.917523 0.748841
O O14 0.405406 0.093462 0.500000
O O15 0.500000 0.098927 0.580425
O O16 0.364448 0.140839 0.602391
O O17 0.400161 0.000000 0.582093
O O18 0.729457 0.105442 0.681259
O O19 0.741418 0.000000 0.756692
O O20 0.500000 0.381831 0.582877
O O21 0.575418 0.500000 0.587001
#
# Coordination Sequence:
#
# PCOD9517393 Si02
#       8
#    16  16  16  16  16  16  16  16
#     4  11  20  34  49  71 102 131 164 204 256 298
#     4  10  20  33  50  70  93 128 172 213 250 293
#     4  10  19  32  50  71  99 131 162 200 247 296
#     4  10  17  28  45  69  98 133 166 193 230 286
#     4   9  19  36  55  74 100 135 171 207 249 296
#     4  11  19  30  48  72 102 137 167 201 244 291
#     4   9  16  26  42  65  96 133 165 192 227 276
#     4  11  19  32  50  79 102 131 165 209 243 293
#
# _framework density 16.052520999999999
#
# number of rings (size 3 to 8) (size 9 to 14) (size 15 to 20)
#    0.000    1.875    3.750    2.625    0.000    1.500 
#    0.000    1.875    0.000    7.875    0.000    0.875 
#    0.000    0.500    0.000    4.250    0.000    0.000 
#
# Total GULP energy -356615.554670 kJ/mol
# GULP energy per Si atom -5572.118042 kJ/mol
# Density = 1.601599 g / cm^3
# Si number density = 16.052521 Si / 1000 Ang^3
#
#
#
# Elastic Constant Matrix: (Units=GPa)
#
#
# Indices 1 2 3 4 5 6 
#
# 1 94.1208 35.6953 36.6326 0.0000 0.0000 0.0000
# 2 35.6953 60.4830 23.9698 0.0000 0.0000 0.0000
# 3 36.6326 23.9698 58.9405 0.0000 0.0000 0.0000
# 4 0.0000 0.0000 0.0000 25.6148 0.0000 0.0000
# 5 0.0000 0.0000 0.0000 0.0000 30.1369 0.0000
# 6 0.0000 0.0000 0.0000 0.0000 0.0000 14.2330
#
#
#
# Elastic Compliance Matrix: (Units=1/GPa)
#
#
# Indices 1 2 3 4 5 6 
#
# 1 0.015917 -0.006525 -0.007239 0.000000 0.000000 0.000000
# 2 -0.006525 0.022385 -0.005048 0.000000 0.000000 0.000000
# 3 -0.007239 -0.005048 0.023518 0.000000 0.000000 0.000000
# 4 0.000000 0.000000 0.000000 0.039040 0.000000 0.000000
# 5 0.000000 0.000000 0.000000 0.000000 0.033182 0.000000
# 6 0.000000 0.000000 0.000000 0.000000 0.000000 0.070259
#
#
# Mechanical properties :
#
#
# Convention : Reuss Voigt Hill
#
# Bulk Modulus (GPa) = 41.32897 45.12663 43.22780
# Shear Modulus (GPa) = 20.00076 21.81337 20.90706
#
# Velocity S-wave (km/s) = 3.53364 3.69029 3.61282
# Velocity P-wave (km/s) = 6.51543 6.80666 6.66263
#
# Compressibility (1/GPa) = 0.02419610
#
# Stress axis : x y z
#
# Youngs Moduli (GPa) = 62.82740 44.67297 42.51973
#
# Poissons Ratio (x) = 0.29148 0.30780
# Poissons Ratio (y) = 0.40993 0.21465
# Poissons Ratio (z) = 0.45481 0.22552
#
# Static dielectric constant tensor:
#      x y z
#    x 1.570480 0.000000 0.000000 
#    y 0.000000 1.507040 0.000000 
#    z 0.000000 0.000000 1.522750 
# 
# From -- ./inp_files/48432.got.cif
#   From: 2010.05.17/outbox.cif.g08.bks.cpg/sg71_25_cif.got.tgz:48432.got - 2010.06.03 16:22:01.
