data_PCOD9517365
_publ_section_title
;
Structure prediction by ZEFSAII (Michael W. Deem and Ramdas Pophale) SiO2 
 PCOD9517365
Probable space group: I M M M
;
_chemical_formula_sum "Si O2"
_cell_formula_units_Z 120
_cell_length_a 21.012165
_cell_length_b 14.506093
_cell_length_c 26.560293
_cell_angle_alpha 90.000000
_cell_angle_beta 90.000000
_cell_angle_gamma 90.000000
_cell_volume 8095.694693
_symmetry_space_group_name_H-M "I M M M"
_symmetry_group_IT_number 71
_symmetry_cell_setting 'orthorhombic'
loop_
_space_group_symop_operation_xyz
x,y,z
-x,-y,z
x,-y,-z
-x,y,-z
-x,-y,-z
x,y,-z
-x,y,z
x,-y,z
1/2+x,1/2+y,1/2+z
1/2-x,1/2-y,1/2+z
1/2+x,1/2-y,1/2-z
1/2-x,1/2+y,1/2-z
1/2-x,1/2-y,1/2-z
1/2+x,1/2+y,1/2-z
1/2-x,1/2+y,1/2+z
1/2+x,1/2-y,1/2+z
loop_
_atom_site_type_symbol
_atom_site_label
_atom_site_fract_x
_atom_site_fract_y
_atom_site_fract_z
Si Si1 0.751770 0.705505 0.852957
Si Si2 0.296957 0.605205 0.324991
Si Si3 0.077078 0.604188 0.500000
Si Si4 0.883732 0.747343 0.306497
Si Si5 0.929203 0.894049 0.771139
Si Si6 0.311503 0.107379 0.259844
Si Si7 0.926396 0.250005 0.583442
Si Si8 0.315406 0.608657 0.059142
O O1 0.774536 0.810941 0.859948
O O2 0.683777 0.711048 0.824625
O O3 0.797844 0.655606 0.813137
O O4 0.738108 0.651504 0.904249
O O5 0.288698 0.500000 0.343637
O O6 0.370012 0.619186 0.308670
O O7 0.252304 0.613884 0.275051
O O8 0.101914 0.500000 0.500000
O O9 0.094687 0.664453 0.548664
O O10 0.000000 0.598725 0.500000
O O11 0.920144 0.823394 0.274284
O O12 0.865431 0.661702 0.271057
O O13 0.919263 0.724018 0.358070
O O14 0.000000 0.882548 0.793241
O O15 0.924070 0.000000 0.752987
O O16 0.325877 0.000000 0.266154
O O17 0.880150 0.164748 0.571187
O O18 0.000000 0.228563 0.571955
O O19 0.322942 0.500000 0.069669
O O20 0.300997 0.620059 0.000000
#
# Coordination Sequence:
#
# PCOD9517365 Si02
#       8
#    16  16   8  16  16  16  16  16
#     4  10  17  30  48  65  89 124 157 191 236 283
#     4   9  16  28  45  67  92 116 152 190 224 273
#     4   9  18  34  51  61  75 113 168 212 242 275
#     4  10  18  29  42  66  93 119 154 197 237 273
#     4  10  18  27  42  65  95 127 151 177 221 277
#     4  10  17  27  45  66  87 118 157 195 233 282
#     4  10  20  33  49  66  90 125 165 205 242 283
#     4  10  21  34  49  70  96 122 155 204 248 282
#
# _framework density 14.822694
#
# number of rings (size 3 to 8) (size 9 to 14) (size 15 to 20)
#    0.000    2.200    3.333    1.600    0.000    2.933 
#    0.000    2.667    0.000    1.200    0.000    0.000 
#    0.000    0.533    0.000    4.800    0.000    0.000 
#
# Total GULP energy -334203.751717 kJ/mol
# GULP energy per Si atom -5570.062529 kJ/mol
# Density = 1.478896 g / cm^3
# Si number density = 14.822694 Si / 1000 Ang^3
#
#
#
# Elastic Constant Matrix: (Units=GPa)
#
#
# Indices 1 2 3 4 5 6 
#
# 1 47.7081 38.9344 20.2333 0.0000 0.0000 0.0000
# 2 38.9344 121.5359 59.1273 0.0000 0.0000 0.0000
# 3 20.2333 59.1273 70.4590 0.0000 0.0000 0.0000
# 4 0.0000 0.0000 0.0000 20.1998 0.0000 0.0000
# 5 0.0000 0.0000 0.0000 0.0000 15.4671 0.0000
# 6 0.0000 0.0000 0.0000 0.0000 0.0000 19.7731
#
#
#
# Elastic Compliance Matrix: (Units=1/GPa)
#
#
# Indices 1 2 3 4 5 6 
#
# 1 0.028413 -0.008674 -0.000880 0.000000 0.000000 0.000000
# 2 -0.008674 0.016553 -0.011400 0.000000 0.000000 0.000000
# 3 -0.000880 -0.011400 0.024012 0.000000 0.000000 0.000000
# 4 0.000000 0.000000 0.000000 0.049505 0.000000 0.000000
# 5 0.000000 0.000000 0.000000 0.000000 0.064653 0.000000
# 6 0.000000 0.000000 0.000000 0.000000 0.000000 0.050574
#
#
# Mechanical properties :
#
#
# Convention : Reuss Voigt Hill
#
# Bulk Modulus (GPa) = 36.94190 52.92147 44.93168
# Shear Modulus (GPa) = 17.56601 19.18189 18.37395
#
# Velocity S-wave (km/s) = 3.44623 3.60125 3.52459
# Velocity P-wave (km/s) = 6.38842 7.28509 6.85144
#
# Compressibility (1/GPa) = 0.02706954
#
# Stress axis : x y z
#
# Youngs Moduli (GPa) = 35.19534 60.41298 41.64621
#
# Poissons Ratio (x) = 0.52402 0.03666
# Poissons Ratio (y) = 0.30528 0.47476
# Poissons Ratio (z) = 0.03098 0.68869
#
# Static dielectric constant tensor:
#      x y z
#    x 1.490990 0.000000 0.000000 
#    y 0.000000 1.504680 0.000000 
#    z 0.000000 0.000000 1.483210 
# 
# From -- ./inp_files/61419.got.cif
#   From: 2010.05.17/outbox.cif.g08.bks.cpg/sg71_31_cif.got.tgz:61419.got - 2010.06.03 16:22:01.
