data_PCOD9517695
_publ_section_title
;
Structure prediction by ZEFSAII (Michael W. Deem and Ramdas Pophale) SiO2 
 PCOD9517695
Probable space group: I M M M
;
_chemical_formula_sum "Si O2"
_cell_formula_units_Z 96
_cell_length_a 7.439360
_cell_length_b 34.671094
_cell_length_c 18.443649
_cell_angle_alpha 90.000000
_cell_angle_beta 90.000000
_cell_angle_gamma 90.000000
_cell_volume 4757.184217
_symmetry_space_group_name_H-M "I M M M"
_symmetry_group_IT_number 71
_symmetry_cell_setting 'orthorhombic'
loop_
_space_group_symop_operation_xyz
x,y,z
-x,-y,z
x,-y,-z
-x,y,-z
-x,-y,-z
x,y,-z
-x,y,z
x,-y,z
1/2+x,1/2+y,1/2+z
1/2-x,1/2-y,1/2+z
1/2+x,1/2-y,1/2-z
1/2-x,1/2+y,1/2-z
1/2-x,1/2-y,1/2-z
1/2+x,1/2+y,1/2-z
1/2-x,1/2+y,1/2+z
1/2+x,1/2-y,1/2+z
loop_
_atom_site_type_symbol
_atom_site_label
_atom_site_fract_x
_atom_site_fract_y
_atom_site_fract_z
Si Si1 0.215749 0.754634 0.335661
Si Si2 0.780328 0.322319 0.582792
Si Si3 0.782183 0.919269 0.580102
Si Si4 0.711227 0.042436 0.268596
Si Si5 0.218388 0.377503 0.708780
Si Si6 0.791246 0.838674 0.360422
O O1 0.250000 0.750000 0.250000
O O2 0.280060 0.717471 0.379678
O O3 0.286697 0.795760 0.364444
O O4 0.000000 0.755717 0.343666
O O5 0.721567 0.325382 0.500000
O O6 0.725628 0.357631 0.634319
O O7 0.000000 0.321857 0.582812
O O8 0.725453 0.931691 0.500000
O O9 0.726361 0.945981 0.646806
O O10 0.716640 0.875549 0.596515
O O11 0.000000 0.918477 0.581668
O O12 0.500000 0.040553 0.251396
O O13 0.783727 0.079116 0.224248
O O14 0.788851 0.000000 0.255858
O O15 0.280193 0.351448 0.776344
O O16 0.000000 0.377602 0.711564
O O17 0.000000 0.835959 0.382245
#
# Coordination Sequence:
#
# PCOD9517695 Si02
#       6
#    16  16  16  16  16  16
#     4  10  18  28  45  67  91 120 152 186 219 256
#     4   9  17  28  44  68  92 115 147 183 219 260
#     4   9  18  31  45  64  92 122 150 182 222 264
#     4   9  18  31  47  67  88 113 148 186 224 269
#     4   9  16  29  48  65  85 115 147 181 219 263
#     4   9  17  28  44  65  88 117 151 185 217 253
#
# _framework density 20.180004
#
# number of rings (size 3 to 8) (size 9 to 14) (size 15 to 20)
#    0.000    2.833    1.667    0.000    0.000    1.667 
#    0.000    5.000    0.000    2.500    0.000    5.833 
#    0.000    0.000    0.000    8.333    0.000    8.667 
#
# Total GULP energy -267756.859840 kJ/mol
# GULP energy per Si atom -5578.267913 kJ/mol
# Density = 2.013407 g / cm^3
# Si number density = 20.180004 Si / 1000 Ang^3
#
#
#
# Elastic Constant Matrix: (Units=GPa)
#
#
# Indices 1 2 3 4 5 6 
#
# 1 64.1779 3.0020 -9.7289 0.0000 0.0000 0.0000
# 2 3.0020 172.2705 54.4400 0.0000 0.0000 0.0000
# 3 -9.7289 54.4400 95.8914 0.0000 0.0000 0.0000
# 4 0.0000 0.0000 0.0000 13.3065 0.0000 0.0000
# 5 0.0000 0.0000 0.0000 0.0000 26.5158 0.0000
# 6 0.0000 0.0000 0.0000 0.0000 0.0000 5.9381
#
#
#
# Elastic Compliance Matrix: (Units=1/GPa)
#
#
# Indices 1 2 3 4 5 6 
#
# 1 0.015955 -0.000962 0.002165 0.000000 0.000000 0.000000
# 2 -0.000962 0.007132 -0.004147 0.000000 0.000000 0.000000
# 3 0.002165 -0.004147 0.013002 0.000000 0.000000 0.000000
# 4 0.000000 0.000000 0.000000 0.075151 0.000000 0.000000
# 5 0.000000 0.000000 0.000000 0.000000 0.037713 0.000000
# 6 0.000000 0.000000 0.000000 0.000000 0.000000 0.168403
#
#
# Mechanical properties :
#
#
# Convention : Reuss Voigt Hill
#
# Bulk Modulus (GPa) = 33.11094 47.52956 40.32025
# Shear Modulus (GPa) = 15.00099 28.12719 21.56409
#
# Velocity S-wave (km/s) = 2.72942 3.73743 3.27247
# Velocity P-wave (km/s) = 5.13579 6.49834 5.85683
#
# Compressibility (1/GPa) = 0.03020150
#
# Stress axis : x y z
#
# Youngs Moduli (GPa) = 62.67667 140.21332 76.90963
#
# Poissons Ratio (x) = 0.13491 -0.16651
# Poissons Ratio (y) = 0.06031 0.31892
# Poissons Ratio (z) = -0.13570 0.58141
#
# Static dielectric constant tensor:
#      x y z
#    x 1.761180 0.000000 0.000000 
#    y 0.000000 1.738790 0.000000 
#    z 0.000000 0.000000 1.670290 
# 
# From -- ./inp_files/24454.got.cif
#   From: 2010.05.17/outbox.cif.g08.bks.cpg/sg71_13_cif.got.tgz:24454.got - 2010.06.03 16:22:01.
