data_PCOD9517410
_publ_section_title
;
Structure prediction by ZEFSAII (Michael W. Deem and Ramdas Pophale) SiO2 
 PCOD9517410
Probable space group: I M M M
;
_chemical_formula_sum "Si O2"
_cell_formula_units_Z 104
_cell_length_a 29.505278
_cell_length_b 25.191974
_cell_length_c 7.477080
_cell_angle_alpha 90.000000
_cell_angle_beta 90.000000
_cell_angle_gamma 90.000000
_cell_volume 5557.685123
_symmetry_space_group_name_H-M "I M M M"
_symmetry_group_IT_number 71
_symmetry_cell_setting 'orthorhombic'
loop_
_space_group_symop_operation_xyz
x,y,z
-x,-y,z
x,-y,-z
-x,y,-z
-x,-y,-z
x,y,-z
-x,y,z
x,-y,z
1/2+x,1/2+y,1/2+z
1/2-x,1/2-y,1/2+z
1/2+x,1/2-y,1/2-z
1/2-x,1/2+y,1/2-z
1/2-x,1/2-y,1/2-z
1/2+x,1/2+y,1/2-z
1/2-x,1/2+y,1/2+z
1/2+x,1/2-y,1/2+z
loop_
_atom_site_type_symbol
_atom_site_label
_atom_site_fract_x
_atom_site_fract_y
_atom_site_fract_z
Si Si1 0.323497 0.561850 0.281331
Si Si2 0.947497 0.235979 0.781938
Si Si3 0.447737 0.144801 0.718564
Si Si4 0.500000 0.439251 0.213756
Si Si5 0.909331 0.872968 0.788345
Si Si6 0.224464 0.438542 0.285188
Si Si7 0.375117 0.939559 0.711415
O O1 0.324257 0.561800 0.500000
O O2 0.328095 0.500000 0.228471
O O3 0.365703 0.596177 0.215847
O O4 0.273552 0.582454 0.226192
O O5 0.934418 0.295397 0.725990
O O6 0.918738 0.186021 0.716622
O O7 0.000000 0.227543 0.730819
O O8 0.946541 0.235401 0.000000
O O9 0.447174 0.144536 0.500000
O O10 0.500000 0.135431 0.771378
O O11 0.413201 0.100024 0.783189
O O12 0.500000 0.500000 0.281463
O O13 0.454832 0.407805 0.268553
O O14 0.500000 0.441217 0.000000
O O15 0.901439 0.867034 0.000000
O O16 0.224998 0.438430 0.500000
O O17 0.223623 0.500000 0.224234
O O18 0.175689 0.416412 0.231703
O O19 0.383360 0.944004 0.500000
O O20 0.376422 0.000000 0.785310
#
# Coordination Sequence:
#
# PCOD9517410 Si02
#       7
#    16  16  16   8  16  16  16
#     4   8  14  24  40  63  84 101 131 176 217 246
#     4   8  13  23  40  63  83 101 135 177 213 246
#     4   8  14  24  39  61  89 113 132 168 214 249
#     4  11  23  33  39  57  93 125 140 161 212 270
#     4  10  17  28  48  67  80 103 145 189 212 237
#     4   8  14  26  42  58  80 110 137 164 206 254
#     4   9  16  25  40  64  87 108 139 172 203 246
#
# _framework density 18.712827000000001
#
# number of rings (size 3 to 8) (size 9 to 14) (size 15 to 20)
#    0.000    3.308    0.769    2.538    0.000    1.538 
#    0.000    2.308    0.000    5.077    0.000    2.154 
#    0.000    0.000    0.000    0.000    0.000    0.000 
#
# Total GULP energy -289657.342915 kJ/mol
# GULP energy per Si atom -5570.333518 kJ/mol
# Density = 1.867024 g / cm^3
# Si number density = 18.712827 Si / 1000 Ang^3
#
#
#
# Elastic Constant Matrix: (Units=GPa)
#
#
# Indices 1 2 3 4 5 6 
#
# 1 167.3993 105.4979 0.2080 0.0000 0.0000 0.0000
# 2 105.4979 125.1668 4.9190 0.0000 0.0000 0.0000
# 3 0.2080 4.9190 51.1853 0.0000 0.0000 0.0000
# 4 0.0000 0.0000 0.0000 -6.6996 0.0000 0.0000
# 5 0.0000 0.0000 0.0000 0.0000 12.5097 0.0000
# 6 0.0000 0.0000 0.0000 0.0000 0.0000 13.3072
#
#
#
# Elastic Compliance Matrix: (Units=1/GPa)
#
#
# Indices 1 2 3 4 5 6 
#
# 1 0.012792 -0.010820 0.000988 0.000000 0.000000 0.000000
# 2 -0.010820 0.017173 -0.001606 0.000000 0.000000 0.000000
# 3 0.000988 -0.001606 0.019687 0.000000 0.000000 0.000000
# 4 0.000000 0.000000 0.000000 -0.149262 0.000000 0.000000
# 5 0.000000 0.000000 0.000000 0.000000 0.079938 0.000000
# 6 0.000000 0.000000 0.000000 0.000000 0.000000 0.075147
#
#
# Mechanical properties :
#
#
# Convention : Reuss Voigt Hill
#
# Bulk Modulus (GPa) = 37.35005 62.77790 50.06397
# Shear Modulus (GPa) = 57.28885 19.36522 38.32704
#
# Velocity S-wave (km/s) = 5.53906 3.22042 4.53058
# Velocity P-wave (km/s) = 7.80456 6.88833 7.36071
#
# Compressibility (1/GPa) = 0.02677373
#
# Stress axis : x y z
#
# Youngs Moduli (GPa) = 78.17545 58.23238 50.79434
#
# Poissons Ratio (x) = 0.63010 -0.05018
# Poissons Ratio (y) = 0.84589 0.08159
# Poissons Ratio (z) = -0.07723 0.09354
#
# Static dielectric constant tensor:
#      x y z
#    x 1.664370 0.000000 0.000000 
#    y 0.000000 1.644060 0.000000 
#    z 0.000000 0.000000 1.726860 
# 
# From -- ./inp_files/15513.got.cif
#   From: 2010.05.17/outbox.cif.g08.bks.cpg/sg71_8_cif.got.tgz:15513.got - 2010.06.03 16:22:01.
