data_PCOD9517720
_publ_section_title
;
Structure prediction by ZEFSAII (Michael W. Deem and Ramdas Pophale) SiO2 
 PCOD9517720
Probable space group: I M M M
;
_chemical_formula_sum "Si O2"
_cell_formula_units_Z 88
_cell_length_a 28.811031
_cell_length_b 21.585884
_cell_length_c 7.603016
_cell_angle_alpha 90.000000
_cell_angle_beta 90.000000
_cell_angle_gamma 90.000000
_cell_volume 4728.403641
_symmetry_space_group_name_H-M "I M M M"
_symmetry_group_IT_number 71
_symmetry_cell_setting 'orthorhombic'
loop_
_space_group_symop_operation_xyz
x,y,z
-x,-y,z
x,-y,-z
-x,y,-z
-x,-y,-z
x,y,-z
-x,y,z
x,-y,z
1/2+x,1/2+y,1/2+z
1/2-x,1/2-y,1/2+z
1/2+x,1/2-y,1/2-z
1/2-x,1/2+y,1/2-z
1/2-x,1/2-y,1/2-z
1/2+x,1/2+y,1/2-z
1/2-x,1/2+y,1/2+z
1/2+x,1/2-y,1/2+z
loop_
_atom_site_type_symbol
_atom_site_label
_atom_site_fract_x
_atom_site_fract_y
_atom_site_fract_z
Si Si1 0.556237 0.929699 0.000000
Si Si2 0.202893 0.000000 0.296124
Si Si3 0.193140 0.865678 0.788673
Si Si4 0.554942 0.832209 0.709040
Si Si5 0.699669 0.865522 0.785925
Si Si6 0.808352 0.500000 0.299868
Si Si7 0.364596 0.749026 0.293722
O O1 0.569582 0.890657 0.827748
O O2 0.500000 0.931881 0.000000
O O3 0.572740 0.000000 0.000000
O O4 0.177975 0.064427 0.254651
O O5 0.251825 0.000000 0.194214
O O6 0.215404 0.000000 0.500000
O O7 0.246651 0.858498 0.727865
O O8 0.159972 0.811796 0.717522
O O9 0.194940 0.860168 0.000000
O O10 0.562663 0.842830 0.500000
O O11 0.500000 0.822024 0.734241
O O12 0.585996 0.774314 0.770771
O O13 0.669963 0.807248 0.726523
O O14 0.680844 0.932509 0.721715
O O15 0.698932 0.867239 0.000000
O O16 0.825319 0.500000 0.500000
O O17 0.371270 0.736377 0.500000
#
# Coordination Sequence:
#
# PCOD9517720 Si02
#       7
#     8   8  16  16  16   8  16
#     4   9  18  34  56  78  98 131 171 207 257 306
#     4  10  18  28  46  72  93 118 157 199 239 280
#     4   9  18  33  49  66  95 130 161 192 238 293
#     4   9  19  36  54  75 103 130 165 213 253 294
#     4   9  17  29  46  67  94 128 162 201 239 280
#     4   8  16  32  46  60  89 132 167 191 237 286
#     4  10  20  32  48  71  95 126 163 199 244 295
#
# _framework density 18.610932999999999
#
# number of rings (size 3 to 8) (size 9 to 14) (size 15 to 20)
#    0.000    2.818    0.000    2.455    1.273    4.000 
#    1.636    1.818    0.000    0.000    0.000    0.636 
#    0.000    5.091    0.000    0.000    0.000    0.000 
#
# Total GULP energy -245306.227741 kJ/mol
# GULP energy per Si atom -5575.141540 kJ/mol
# Density = 1.856857 g / cm^3
# Si number density = 18.610933 Si / 1000 Ang^3
#
#
#
# Elastic Constant Matrix: (Units=GPa)
#
#
# Indices 1 2 3 4 5 6 
#
# 1 72.7907 59.5143 19.4273 0.0000 0.0000 0.0000
# 2 59.5143 143.1847 1.2835 0.0000 0.0000 0.0000
# 3 19.4273 1.2835 47.1858 0.0000 0.0000 0.0000
# 4 0.0000 0.0000 0.0000 13.3174 0.0000 0.0000
# 5 0.0000 0.0000 0.0000 0.0000 3.9414 0.0000
# 6 0.0000 0.0000 0.0000 0.0000 0.0000 1.6306
#
#
#
# Elastic Compliance Matrix: (Units=1/GPa)
#
#
# Indices 1 2 3 4 5 6 
#
# 1 0.024700 -0.010178 -0.009892 0.000000 0.000000 0.000000
# 2 -0.010178 0.011179 0.003886 0.000000 0.000000 0.000000
# 3 -0.009892 0.003886 0.025160 0.000000 0.000000 0.000000
# 4 0.000000 0.000000 0.000000 0.075090 0.000000 0.000000
# 5 0.000000 0.000000 0.000000 0.000000 0.253716 0.000000
# 6 0.000000 0.000000 0.000000 0.000000 0.000000 0.613271
#
#
# Mechanical properties :
#
#
# Convention : Reuss Voigt Hill
#
# Bulk Modulus (GPa) = 34.87804 47.06794 40.97299
# Shear Modulus (GPa) = 4.78450 15.97363 10.37907
#
# Velocity S-wave (km/s) = 1.60511 2.93284 2.36410
# Velocity P-wave (km/s) = 4.71344 6.06746 5.43280
#
# Compressibility (1/GPa) = 0.02867134
#
# Stress axis : x y z
#
# Youngs Moduli (GPa) = 40.48664 89.44992 39.74566
#
# Poissons Ratio (x) = 0.91039 0.39318
# Poissons Ratio (y) = 0.41206 -0.15446
# Poissons Ratio (z) = 0.40051 -0.34762
#
# Static dielectric constant tensor:
#      x y z
#    x 1.647310 0.000000 0.000000 
#    y 0.000000 1.673550 0.000000 
#    z 0.000000 0.000000 1.679350 
# 
# From -- ./inp_files/16909.got.cif
#   From: 2010.05.17/outbox.cif.g08.bks.cpg/sg71_9_cif.got.tgz:16909.got - 2010.06.03 16:22:01.
