data_PCOD9517636
_publ_section_title
;
Structure prediction by ZEFSAII (Michael W. Deem and Ramdas Pophale) SiO2 
 PCOD9517636
Probable space group: I M M M
;
_chemical_formula_sum "Si O2"
_cell_formula_units_Z 100
_cell_length_a 27.718578
_cell_length_b 29.351167
_cell_length_c 7.411790
_cell_angle_alpha 90.000000
_cell_angle_beta 90.000000
_cell_angle_gamma 90.000000
_cell_volume 6030.029349
_symmetry_space_group_name_H-M "I M M M"
_symmetry_group_IT_number 71
_symmetry_cell_setting 'orthorhombic'
loop_
_space_group_symop_operation_xyz
x,y,z
-x,-y,z
x,-y,-z
-x,y,-z
-x,-y,-z
x,y,-z
-x,y,z
x,-y,z
1/2+x,1/2+y,1/2+z
1/2-x,1/2-y,1/2+z
1/2+x,1/2-y,1/2-z
1/2-x,1/2+y,1/2-z
1/2-x,1/2-y,1/2-z
1/2+x,1/2+y,1/2-z
1/2-x,1/2+y,1/2+z
1/2+x,1/2-y,1/2+z
loop_
_atom_site_type_symbol
_atom_site_label
_atom_site_fract_x
_atom_site_fract_y
_atom_site_fract_z
Si Si1 0.683016 0.787614 0.714544
Si Si2 0.628061 0.626524 0.293102
Si Si3 0.000000 0.659918 0.500000
Si Si4 0.054367 0.205778 0.717585
Si Si5 0.945890 0.947202 0.220152
Si Si6 0.289421 0.313030 0.716568
Si Si7 0.421877 0.810579 0.709318
O O1 0.677151 0.782959 0.500000
O O2 0.691384 0.736094 0.786193
O O3 0.732565 0.814341 0.747643
O O4 0.633678 0.810636 0.776110
O O5 0.638109 0.613125 0.500000
O O6 0.592920 0.670356 0.290548
O O7 0.596262 0.585805 0.212684
O O8 0.677855 0.645665 0.213180
O O9 0.957893 0.663933 0.658107
O O10 0.057411 0.206430 0.500000
O O11 0.063737 0.256954 0.782683
O O12 0.000000 0.192149 0.768257
O O13 0.000000 0.933056 0.277689
O O14 0.938963 0.000000 0.269774
O O15 0.945981 0.945148 0.000000
O O16 0.295524 0.312381 0.500000
O O17 0.424983 0.825488 0.500000
#
# Coordination Sequence:
#
# PCOD9517636 Si02
#       7
#    16  16   4  16  16  16  16
#     4   9  18  30  42  57  76 107 136 168 215 261
#     4  10  18  28  42  61  79 102 135 177 225 270
#     4  12  22  32  44  66  80 112 143 178 215 260
#     4  11  20  29  38  56  79 103 135 172 219 266
#     4   8  14  25  41  61  83 107 138 177 225 282
#     4   9  17  27  40  57  77 100 135 174 216 261
#     4  11  20  32  45  59  84 110 140 176 217 260
#
# _framework density 16.583666999999998
#
# number of rings (size 3 to 8) (size 9 to 14) (size 15 to 20)
#    0.000    2.240    3.200    1.680    1.120    2.240 
#    0.000    0.000    0.000    0.480    0.000    2.240 
#    0.000    0.000    0.000    0.000    0.000    0.000 
#
# Total GULP energy -278343.755621 kJ/mol
# GULP energy per Si atom -5566.875112 kJ/mol
# Density = 1.654592 g / cm^3
# Si number density = 16.583667 Si / 1000 Ang^3
#
#
#
# Elastic Constant Matrix: (Units=GPa)
#
#
# Indices 1 2 3 4 5 6 
#
# 1 156.4670 30.4377 20.4858 0.0000 0.0000 0.0000
# 2 30.4377 33.2427 -1.4523 0.0000 0.0000 0.0000
# 3 20.4858 -1.4523 77.8671 0.0000 0.0000 0.0000
# 4 0.0000 0.0000 0.0000 14.4144 0.0000 0.0000
# 5 0.0000 0.0000 0.0000 0.0000 18.6839 0.0000
# 6 0.0000 0.0000 0.0000 0.0000 0.0000 19.1234
#
#
#
# Elastic Compliance Matrix: (Units=1/GPa)
#
#
# Indices 1 2 3 4 5 6 
#
# 1 0.008165 -0.007576 -0.002289 0.000000 0.000000 0.000000
# 2 -0.007576 0.037136 0.002686 0.000000 0.000000 0.000000
# 3 -0.002289 0.002686 0.013495 0.000000 0.000000 0.000000
# 4 0.000000 0.000000 0.000000 0.069375 0.000000 0.000000
# 5 0.000000 0.000000 0.000000 0.000000 0.053522 0.000000
# 6 0.000000 0.000000 0.000000 0.000000 0.000000 0.052292
#
#
# Mechanical properties :
#
#
# Convention : Reuss Voigt Hill
#
# Bulk Modulus (GPa) = 22.50409 40.72436 31.61422
# Shear Modulus (GPa) = 19.00024 24.98471 21.99247
#
# Velocity S-wave (km/s) = 3.38852 3.88569 3.64559
# Velocity P-wave (km/s) = 5.37670 6.68892 6.06838
#
# Compressibility (1/GPa) = 0.04443637
#
# Stress axis : x y z
#
# Youngs Moduli (GPa) = 122.48067 26.92839 74.10278
#
# Poissons Ratio (x) = 0.20400 0.16964
# Poissons Ratio (y) = 0.92787 -0.19902
# Poissons Ratio (z) = 0.28039 -0.07232
#
# Static dielectric constant tensor:
#      x y z
#    x 1.603900 0.000000 0.000000 
#    y 0.000000 1.528100 0.000000 
#    z 0.000000 0.000000 1.639150 
# 
# From -- ./inp_files/15808.got.cif
#   From: 2010.05.17/outbox.cif.g08.bks.cpg/sg71_8_cif.got.tgz:15808.got - 2010.06.03 16:22:01.
