data_PCOD9517882
_publ_section_title
;
Structure prediction by ZEFSAII (Michael W. Deem and Ramdas Pophale) SiO2 
 PCOD9517882
Probable space group: I M M M
;
_chemical_formula_sum "Si O2"
_cell_formula_units_Z 96
_cell_length_a 7.381719
_cell_length_b 23.520973
_cell_length_c 25.211692
_cell_angle_alpha 90.000000
_cell_angle_beta 90.000000
_cell_angle_gamma 90.000000
_cell_volume 4377.385401
_symmetry_space_group_name_H-M "I M M M"
_symmetry_group_IT_number 71
_symmetry_cell_setting 'orthorhombic'
loop_
_space_group_symop_operation_xyz
x,y,z
-x,-y,z
x,-y,-z
-x,y,-z
-x,-y,-z
x,y,-z
-x,y,z
x,-y,z
1/2+x,1/2+y,1/2+z
1/2-x,1/2-y,1/2+z
1/2+x,1/2-y,1/2-z
1/2-x,1/2+y,1/2-z
1/2-x,1/2-y,1/2-z
1/2+x,1/2+y,1/2-z
1/2-x,1/2+y,1/2+z
1/2+x,1/2-y,1/2+z
loop_
_atom_site_type_symbol
_atom_site_label
_atom_site_fract_x
_atom_site_fract_y
_atom_site_fract_z
Si Si1 0.779054 0.345970 0.000000
Si Si2 0.278326 0.286311 0.500000
Si Si3 0.216723 0.436503 0.685885
Si Si4 0.779396 0.438160 0.085018
Si Si5 0.216500 0.828924 0.887049
Si Si6 0.221404 0.602779 0.802232
Si Si7 0.284087 0.230796 0.690241
O O1 0.721502 0.280212 0.000000
O O2 0.721978 0.383847 0.050590
O O3 0.000000 0.344295 0.000000
O O4 0.500000 0.285762 0.500000
O O5 0.218327 0.318417 0.553292
O O6 0.283190 0.500000 0.673102
O O7 0.251766 0.388813 0.641760
O O8 0.283538 0.417380 0.744295
O O9 0.000000 0.439561 0.690422
O O10 0.722790 0.500000 0.064146
O O11 0.726157 0.433072 0.146465
O O12 0.000000 0.437207 0.083279
O O13 0.288187 0.778130 0.849716
O O14 0.000000 0.822753 0.889003
O O15 0.283330 0.666805 0.814167
O O16 0.000000 0.602476 0.800359
O O17 0.500000 0.227913 0.681662
O O18 0.250000 0.250000 0.750000
#
# Coordination Sequence:
#
# PCOD9517882 Si02
#       7
#     8   8  16  16  16  16  16
#     4   9  15  24  39  60  90 127 164 201 238 280
#     4   9  18  33  50  69  95 128 164 203 248 300
#     4  10  20  34  52  73  99 132 166 203 251 303
#     4   9  15  22  35  59  92 129 166 199 232 278
#     4  10  20  34  53  76 101 130 166 205 249 297
#     4   9  16  27  43  65  95 129 162 196 239 290
#     4  10  18  29  48  74 100 129 164 201 245 291
#
# _framework density 21.930899
#
# number of rings (size 3 to 8) (size 9 to 14) (size 15 to 20)
#    0.000    2.500    1.667    1.750    0.000    7.333 
#    0.000    0.833    0.000    2.500    0.000    0.000 
#    0.000    0.000    0.000    0.167    0.000   17.917 
#
# Total GULP energy -268067.432843 kJ/mol
# GULP energy per Si atom -5584.738184 kJ/mol
# Density = 2.188098 g / cm^3
# Si number density = 21.930899 Si / 1000 Ang^3
#
#
#
# Elastic Constant Matrix: (Units=GPa)
#
#
# Indices 1 2 3 4 5 6 
#
# 1 76.9546 4.5090 2.6940 0.0000 0.0000 0.0000
# 2 4.5090 193.7789 116.0732 0.0000 0.0000 0.0000
# 3 2.6940 116.0732 203.5782 0.0000 0.0000 0.0000
# 4 0.0000 0.0000 0.0000 21.5753 0.0000 0.0000
# 5 0.0000 0.0000 0.0000 0.0000 -17.5713 0.0000
# 6 0.0000 0.0000 0.0000 0.0000 0.0000 2.4904
#
#
#
# Elastic Compliance Matrix: (Units=1/GPa)
#
#
# Indices 1 2 3 4 5 6 
#
# 1 0.013012 -0.000303 0.000001 0.000000 0.000000 0.000000
# 2 -0.000303 0.007844 -0.004468 0.000000 0.000000 0.000000
# 3 0.000001 -0.004468 0.007460 0.000000 0.000000 0.000000
# 4 0.000000 0.000000 0.000000 0.046349 0.000000 0.000000
# 5 0.000000 0.000000 0.000000 0.000000 -0.056911 0.000000
# 6 0.000000 0.000000 0.000000 0.000000 0.000000 0.401549
#
#
# Mechanical properties :
#
#
# Convention : Reuss Voigt Hill
#
# Bulk Modulus (GPa) = 53.26370 80.09600 66.67985
# Shear Modulus (GPa) = 11.49150 24.70124 18.09637
#
# Velocity S-wave (km/s) = 2.29156 3.35971 2.87567
# Velocity P-wave (km/s) = 5.59834 7.18690 6.44178
#
# Compressibility (1/GPa) = 0.01877451
#
# Stress axis : x y z
#
# Youngs Moduli (GPa) = 76.84966 127.48304 134.05051
#
# Poissons Ratio (x) = 0.03865 -0.00009
# Poissons Ratio (y) = 0.02330 0.59900
# Poissons Ratio (z) = -0.00005 0.56965
#
# Static dielectric constant tensor:
#      x y z
#    x 1.895690 0.000000 0.000000 
#    y 0.000000 1.812730 0.000000 
#    z 0.000000 0.000000 1.779490 
# 
# From -- ./inp_files/52061.got.cif
#   From: 2010.05.17/outbox.cif.g08.bks.cpg/sg71_27_cif.got.tgz:52061.got - 2010.06.03 16:22:01.
