data_PCOD9517083
_publ_section_title
;
Structure prediction by ZEFSAII (Michael W. Deem and Ramdas Pophale) SiO2 
 PCOD9517083
Probable space group: F D D D
;
_chemical_formula_sum "Si O2"
_cell_formula_units_Z 104
_cell_length_a 7.974321
_cell_length_b 18.666106
_cell_length_c 28.029663
_cell_angle_alpha 90.000000
_cell_angle_beta 90.000000
_cell_angle_gamma 90.000000
_cell_volume 4172.201913
_symmetry_space_group_name_H-M "F D D D"
_symmetry_group_IT_number 70
_space_group.IT_coordinate_system_code '2'
_symmetry_cell_setting 'orthorhombic'
loop_
_space_group_symop_operation_xyz
x,y,z
1/4-x,1/4-y,z
x,1/4-y,1/4-z
1/4-x,y,1/4-z
-x,-y,-z
3/4+x,3/4+y,-z
-x,3/4+y,3/4+z
3/4+x,-y,3/4+z
x,1/2+y,1/2+z
1/4-x,3/4-y,1/2+z
x,3/4-y,3/4-z
1/4-x,1/2+y,3/4-z
-x,1/2-y,1/2-z
3/4+x,1/4+y,1/2-z
-x,1/4+y,1/4+z
3/4+x,1/2-y,1/4+z
1/2+x,y,1/2+z
3/4-x,1/4-y,1/2+z
1/2+x,1/4-y,3/4-z
3/4-x,y,3/4-z
1/2-x,-y,1/2-z
1/4+x,3/4+y,1/2-z
1/2-x,3/4+y,1/4+z
1/4+x,-y,1/4+z
1/2+x,1/2+y,z
3/4-x,3/4-y,z
1/2+x,3/4-y,1/4-z
3/4-x,1/2+y,1/4-z
1/2-x,1/2-y,-z
1/4+x,1/4+y,-z
1/2-x,1/4+y,3/4+z
1/4+x,1/2-y,3/4+z
loop_
_atom_site_type_symbol
_atom_site_label
_atom_site_fract_x
_atom_site_fract_y
_atom_site_fract_z
Si Si1 0.116640 0.767538 0.351866
Si Si2 0.125000 0.625000 0.409332
Si Si3 0.636772 0.799049 0.224845
Si Si4 0.875000 0.875000 0.875000
Si Si5 0.625000 0.625000 0.550035
O O1 0.079271 0.693374 0.377474
O O2 0.235370 0.747541 0.306935
O O3 0.231176 0.815525 0.387821
O O4 0.964644 0.813592 0.331076
O O5 0.283950 0.646778 0.441259
O O6 0.500000 0.750000 0.250000
O O7 0.738759 0.840257 0.265169
#
# Coordination Sequence:
#
# PCOD9517083 Si02
#       5
#    32  16  32   8  16
#     4  12  27  52  82 120 160 214 275 330 398 490
#     4  12  27  53  88 115 159 216 275 335 400 480
#     4  12  26  52  80 117 164 210 267 337 407 476
#     4  12  24  56  72 120 166 200 272 330 396 466
#     4  12  29  51  82 121 163 212 270 332 414 476
#
# _framework density 24.926886
#
# number of rings (size 3 to 8) (size 9 to 14) (size 15 to 20)
#    0.000    0.000    3.077    5.538    0.000    5.538 
#    5.538    0.000    0.000    0.000    0.000    0.000 
#    0.000    0.000    0.000    0.000    0.000    0.000 
#
# Total GULP energy -145672.035438 kJ/mol
# GULP energy per Si atom -5602.770594 kJ/mol
# Density = 2.487015 g / cm^3
# Si number density = 24.926886 Si / 1000 Ang^3
#
#
#
# Elastic Constant Matrix: (Units=GPa)
#
#
# Indices 1 2 3 4 5 6 
#
# 1 187.2576 126.3898 118.0117 0.0000 0.0000 0.0000
# 2 126.3898 217.7358 101.2017 0.0000 0.0000 0.0000
# 3 118.0117 101.2017 162.3107 0.0000 0.0000 0.0000
# 4 0.0000 0.0000 0.0000 22.3911 0.0000 0.0000
# 5 0.0000 0.0000 0.0000 0.0000 65.4932 0.0000
# 6 0.0000 0.0000 0.0000 0.0000 0.0000 80.2863
#
#
#
# Elastic Compliance Matrix: (Units=1/GPa)
#
#
# Indices 1 2 3 4 5 6 
#
# 1 0.011988 -0.004094 -0.006163 0.000000 0.000000 0.000000
# 2 -0.004094 0.007865 -0.001927 0.000000 0.000000 0.000000
# 3 -0.006163 -0.001927 0.011844 0.000000 0.000000 0.000000
# 4 0.000000 0.000000 0.000000 0.044661 0.000000 0.000000
# 5 0.000000 0.000000 0.000000 0.000000 0.015269 0.000000
# 6 0.000000 0.000000 0.000000 0.000000 0.000000 0.012455
#
#
# Mechanical properties :
#
#
# Convention : Reuss Voigt Hill
#
# Bulk Modulus (GPa) = 136.47272 139.83449 138.15361
# Shear Modulus (GPa) = 38.19930 48.41416 43.30673
#
# Velocity S-wave (km/s) = 3.91890 4.41187 4.17268
# Velocity P-wave (km/s) = 8.68016 9.06490 8.87462
#
# Compressibility (1/GPa) = 0.00732747
#
# Stress axis : x y z
#
# Youngs Moduli (GPa) = 83.41993 127.14799 84.43175
#
# Poissons Ratio (x) = 0.52052 0.52038
# Poissons Ratio (y) = 0.34150 0.16272
# Poissons Ratio (z) = 0.51414 0.24505
#
# Static dielectric constant tensor:
#      x y z
#    x 1.960420 0.000000 0.000000 
#    y 0.000000 1.934490 0.000000 
#    z 0.000000 0.000000 1.976970 
# 
# From -- ./inp_files/8225.got.cif
#   From: 2010.05.17/outbox.cif.g08.bks.cpg/sg70_5_cif.got.tgz:8225.got - 2010.06.03 15:57:51.
