data_PCOD9517461
_publ_section_title
;
Structure prediction by ZEFSAII (Michael W. Deem and Ramdas Pophale) SiO2 
 PCOD9517461
Probable space group: I M M M
;
_chemical_formula_sum "Si O2"
_cell_formula_units_Z 64
_cell_length_a 24.839773
_cell_length_b 9.281267
_cell_length_c 14.278649
_cell_angle_alpha 90.000000
_cell_angle_beta 90.000000
_cell_angle_gamma 90.000000
_cell_volume 3291.864929
_symmetry_space_group_name_H-M "I M M M"
_symmetry_group_IT_number 71
_symmetry_cell_setting 'orthorhombic'
loop_
_space_group_symop_operation_xyz
x,y,z
-x,-y,z
x,-y,-z
-x,y,-z
-x,-y,-z
x,y,-z
-x,y,z
x,-y,z
1/2+x,1/2+y,1/2+z
1/2-x,1/2-y,1/2+z
1/2+x,1/2-y,1/2-z
1/2-x,1/2+y,1/2-z
1/2-x,1/2-y,1/2-z
1/2+x,1/2+y,1/2-z
1/2-x,1/2+y,1/2+z
1/2+x,1/2-y,1/2+z
loop_
_atom_site_type_symbol
_atom_site_label
_atom_site_fract_x
_atom_site_fract_y
_atom_site_fract_z
Si Si1 0.882444 0.327183 0.346283
Si Si2 0.688228 0.671640 0.000000
Si Si3 0.203618 0.161052 0.000000
Si Si4 0.383884 0.339612 0.337921
Si Si5 0.000000 0.258545 0.893880
Si Si6 0.000000 0.334844 0.324632
O O1 0.879039 0.500000 0.359389
O O2 0.841229 0.243747 0.411266
O O3 0.874452 0.283010 0.238650
O O4 0.944089 0.274009 0.362369
O O5 0.750076 0.721485 0.000000
O O6 0.683141 0.500000 0.000000
O O7 0.163641 0.170924 0.087643
O O8 0.228667 0.000000 0.000000
O O9 0.382425 0.500000 0.294444
O O10 0.442746 0.323122 0.385692
O O11 0.000000 0.334573 0.790198
O O12 0.000000 0.325318 0.000000
O O13 0.000000 0.500000 0.353955
#
# Coordination Sequence:
#
# PCOD9517461 Si02
#       6
#    16   8   8  16   8   8
#     4  10  21  40  63  87 118 153 190 235 290 347
#     4  12  26  43  62  83 108 146 201 254 297 342
#     4  10  22  39  59  85 118 158 200 238 283 340
#     4  10  20  35  58  90 125 157 192 233 282 341
#     4  10  17  29  55  91 126 158 188 227 281 339
#     4   8  18  35  56  87 121 153 187 227 283 350
#
# _framework density 19.441866999999998
#
# number of rings (size 3 to 8) (size 9 to 14) (size 15 to 20)
#    0.000    2.000    1.250    2.250    0.000    3.250 
#    0.000    4.375    0.000    0.000    0.000    0.000 
#    0.000    0.000    0.000    0.000    0.000    0.000 
#
# Total GULP energy -178239.629476 kJ/mol
# GULP energy per Si atom -5569.988421 kJ/mol
# Density = 1.939762 g / cm^3
# Si number density = 19.441867 Si / 1000 Ang^3
#
#
#
# Elastic Constant Matrix: (Units=GPa)
#
#
# Indices 1 2 3 4 5 6 
#
# 1 117.9229 56.2438 38.8230 0.0000 0.0000 0.0000
# 2 56.2438 109.8074 31.7599 0.0000 0.0000 0.0000
# 3 38.8230 31.7599 55.7756 0.0000 0.0000 0.0000
# 4 0.0000 0.0000 0.0000 11.9076 0.0000 0.0000
# 5 0.0000 0.0000 0.0000 0.0000 11.0101 0.0000
# 6 0.0000 0.0000 0.0000 0.0000 0.0000 22.1996
#
#
#
# Elastic Compliance Matrix: (Units=1/GPa)
#
#
# Indices 1 2 3 4 5 6 
#
# 1 0.012789 -0.004760 -0.006191 0.000000 0.000000 0.000000
# 2 -0.004760 0.012674 -0.003904 0.000000 0.000000 0.000000
# 3 -0.006191 -0.003904 0.024461 0.000000 0.000000 0.000000
# 4 0.000000 0.000000 0.000000 0.083980 0.000000 0.000000
# 5 0.000000 0.000000 0.000000 0.000000 0.090826 0.000000
# 6 0.000000 0.000000 0.000000 0.000000 0.000000 0.045046
#
#
# Mechanical properties :
#
#
# Convention : Reuss Voigt Hill
#
# Bulk Modulus (GPa) = 49.46989 59.68438 54.57713
# Shear Modulus (GPa) = 16.32797 19.46875 17.89836
#
# Velocity S-wave (km/s) = 2.90114 3.16790 3.03745
# Velocity P-wave (km/s) = 6.05990 6.64427 6.35880
#
# Compressibility (1/GPa) = 0.02021432
#
# Stress axis : x y z
#
# Youngs Moduli (GPa) = 78.19483 78.90254 40.88063
#
# Poissons Ratio (x) = 0.37555 0.25311
# Poissons Ratio (y) = 0.37218 0.15959
# Poissons Ratio (z) = 0.48413 0.30802
#
# Static dielectric constant tensor:
#      x y z
#    x 1.687340 0.000000 0.000000 
#    y 0.000000 1.680110 0.000000 
#    z 0.000000 0.000000 1.698520 
# 
# From -- ./inp_files/38808.got.cif
#   From: 2010.05.17/outbox.cif.g08.bks.cpg/sg71_20_cif.got.tgz:38808.got - 2010.06.03 16:22:01.
