data_PCOD9517497
_publ_section_title
;
Structure prediction by ZEFSAII (Michael W. Deem and Ramdas Pophale) SiO2 
 PCOD9517497
Probable space group: I M M M
;
_chemical_formula_sum "Si O2"
_cell_formula_units_Z 88
_cell_length_a 28.315508
_cell_length_b 19.976148
_cell_length_c 8.909664
_cell_angle_alpha 90.000000
_cell_angle_beta 90.000000
_cell_angle_gamma 90.000000
_cell_volume 5039.615823
_symmetry_space_group_name_H-M "I M M M"
_symmetry_group_IT_number 71
_symmetry_cell_setting 'orthorhombic'
loop_
_space_group_symop_operation_xyz
x,y,z
-x,-y,z
x,-y,-z
-x,y,-z
-x,-y,-z
x,y,-z
-x,y,z
x,-y,z
1/2+x,1/2+y,1/2+z
1/2-x,1/2-y,1/2+z
1/2+x,1/2-y,1/2-z
1/2-x,1/2+y,1/2-z
1/2-x,1/2-y,1/2-z
1/2+x,1/2+y,1/2-z
1/2-x,1/2+y,1/2+z
1/2+x,1/2-y,1/2+z
loop_
_atom_site_type_symbol
_atom_site_label
_atom_site_fract_x
_atom_site_fract_y
_atom_site_fract_z
Si Si1 0.678753 0.147739 0.181215
Si Si2 0.444617 0.360286 0.821430
Si Si3 0.366045 0.272334 0.678525
Si Si4 0.721325 0.652946 0.830677
Si Si5 0.210617 0.000000 0.737400
Si Si6 0.185094 0.500000 0.331792
Si Si7 0.391949 0.500000 0.179536
O O1 0.641824 0.199933 0.247261
O O2 0.730472 0.167935 0.242754
O O3 0.671017 0.071212 0.236523
O O4 0.679160 0.148389 0.000000
O O5 0.500000 0.359872 0.785845
O O6 0.414385 0.306773 0.730093
O O7 0.422332 0.433607 0.794284
O O8 0.439087 0.347081 0.000000
O O9 0.362436 0.268479 0.500000
O O10 0.323562 0.317761 0.744697
O O11 0.716026 0.572371 0.839587
O O12 0.723108 0.680089 0.000000
O O13 0.257472 0.000000 0.839933
O O14 0.155373 0.000000 0.780048
O O15 0.165878 0.500000 0.500000
O O16 0.378129 0.500000 0.000000
#
# Coordination Sequence:
#
# PCOD9517497 Si02
#       7
#    16  16  16  16   8   8   8
#     4  10  20  36  55  78 106 137 172 213 263 318
#     4  10  21  38  59  80 103 136 180 229 275 317
#     4  12  24  36  51  74 105 141 178 218 265 316
#     4  11  20  33  51  75 106 141 182 223 262 309
#     4  10  18  29  50  76 106 143 184 223 262 307
#     4   8  18  34  53  77 108 137 171 214 260 312
#     4  10  17  32  54  79 104 135 182 228 269 310
#
# _framework density 17.461649000000001
#
# number of rings (size 3 to 8) (size 9 to 14) (size 15 to 20)
#    0.000    1.636    1.818    4.364    0.000    2.182 
#    0.000    1.818    0.000    1.091    0.000    0.636 
#    0.000    5.091    0.000    0.000    0.000    0.000 
#
# Total GULP energy -245427.644833 kJ/mol
# GULP energy per Si atom -5577.901019 kJ/mol
# Density = 1.742191 g / cm^3
# Si number density = 17.461649 Si / 1000 Ang^3
#
#
#
# Elastic Constant Matrix: (Units=GPa)
#
#
# Indices 1 2 3 4 5 6 
#
# 1 74.6523 49.6531 36.1034 0.0000 0.0000 0.0000
# 2 49.6531 122.3397 42.5086 0.0000 0.0000 0.0000
# 3 36.1034 42.5086 85.5619 0.0000 0.0000 0.0000
# 4 0.0000 0.0000 0.0000 10.2781 0.0000 0.0000
# 5 0.0000 0.0000 0.0000 0.0000 21.5557 0.0000
# 6 0.0000 0.0000 0.0000 0.0000 0.0000 20.4701
#
#
#
# Elastic Compliance Matrix: (Units=1/GPa)
#
#
# Indices 1 2 3 4 5 6 
#
# 1 0.020210 -0.006333 -0.005382 0.000000 0.000000 0.000000
# 2 -0.006333 0.011864 -0.003222 0.000000 0.000000 0.000000
# 3 -0.005382 -0.003222 0.015559 0.000000 0.000000 0.000000
# 4 0.000000 0.000000 0.000000 0.097294 0.000000 0.000000
# 5 0.000000 0.000000 0.000000 0.000000 0.046391 0.000000
# 6 0.000000 0.000000 0.000000 0.000000 0.000000 0.048852
#
#
# Mechanical properties :
#
#
# Convention : Reuss Voigt Hill
#
# Bulk Modulus (GPa) = 56.30537 59.89825 58.10181
# Shear Modulus (GPa) = 18.11840 20.74670 19.43255
#
# Velocity S-wave (km/s) = 3.22469 3.45067 3.33959
# Velocity P-wave (km/s) = 6.79559 7.08896 6.94382
#
# Compressibility (1/GPa) = 0.01776029
#
# Stress axis : x y z
#
# Youngs Moduli (GPa) = 49.48032 84.29106 64.27148
#
# Poissons Ratio (x) = 0.53378 0.34588
# Poissons Ratio (y) = 0.31334 0.20708
# Poissons Ratio (z) = 0.26628 0.27159
#
# Static dielectric constant tensor:
#      x y z
#    x 1.564940 0.000000 0.000000 
#    y 0.000000 1.634080 0.000000 
#    z 0.000000 0.000000 1.608070 
# 
# From -- ./inp_files/12596.got.cif
#   From: 2010.05.17/outbox.cif.g08.bks.cpg/sg71_7_cif.got.tgz:12596.got - 2010.06.03 16:22:01.
