data_PCOD9517436
_publ_section_title
;
Structure prediction by ZEFSAII (Michael W. Deem and Ramdas Pophale) SiO2 
 PCOD9517436
Probable space group: I M M M
;
_chemical_formula_sum "Si O2"
_cell_formula_units_Z 104
_cell_length_a 22.892500
_cell_length_b 23.224382
_cell_length_c 13.490887
_cell_angle_alpha 90.000000
_cell_angle_beta 90.000000
_cell_angle_gamma 90.000000
_cell_volume 7172.621171
_symmetry_space_group_name_H-M "I M M M"
_symmetry_group_IT_number 71
_symmetry_cell_setting 'orthorhombic'
loop_
_space_group_symop_operation_xyz
x,y,z
-x,-y,z
x,-y,-z
-x,y,-z
-x,-y,-z
x,y,-z
-x,y,z
x,-y,z
1/2+x,1/2+y,1/2+z
1/2-x,1/2-y,1/2+z
1/2+x,1/2-y,1/2-z
1/2-x,1/2+y,1/2-z
1/2-x,1/2-y,1/2-z
1/2+x,1/2+y,1/2-z
1/2-x,1/2+y,1/2+z
1/2+x,1/2-y,1/2+z
loop_
_atom_site_type_symbol
_atom_site_label
_atom_site_fract_x
_atom_site_fract_y
_atom_site_fract_z
Si Si1 0.751682 0.288475 0.888014
Si Si2 0.682945 0.679892 0.302893
Si Si3 0.066872 0.231915 0.882807
Si Si4 0.375263 0.854171 0.612863
Si Si5 0.263321 0.433995 0.618647
Si Si6 0.068010 0.430122 0.500000
Si Si7 0.632203 0.067760 0.198562
O O1 0.704215 0.308873 0.808924
O O2 0.775460 0.224346 0.864038
O O3 0.809590 0.328152 0.879550
O O4 0.730099 0.290919 0.000000
O O5 0.616571 0.698215 0.323153
O O6 0.695341 0.615489 0.338949
O O7 0.082032 0.299635 0.873669
O O8 0.000000 0.220509 0.854438
O O9 0.074059 0.218130 0.000000
O O10 0.382693 0.876347 0.500000
O O11 0.382722 0.898955 0.701199
O O12 0.255969 0.427152 0.500000
O O13 0.282983 0.500000 0.635998
O O14 0.200544 0.426857 0.671226
O O15 0.074731 0.500000 0.500000
O O16 0.098007 0.409940 0.398525
O O17 0.000000 0.416344 0.500000
O O18 0.619175 0.000000 0.210528
#
# Coordination Sequence:
#
# PCOD9517436 Si02
#       7
#    16  16  16  16  16   8  16
#     4   9  17  28  45  70  93 116 150 189 230 277
#     4  10  17  29  49  68  90 123 154 186 230 285
#     4   9  18  32  49  68  89 116 153 191 228 277
#     4   9  17  30  46  66  92 121 151 187 233 276
#     4  10  18  28  44  69  98 123 150 189 235 280
#     4   9  18  32  46  58  80 122 167 197 224 266
#     4  10  18  29  44  64  91 123 157 193 230 270
#
# _framework density 14.499580999999999
#
# number of rings (size 3 to 8) (size 9 to 14) (size 15 to 20)
#    0.000    2.538    2.308    2.308    0.000    0.923 
#    0.000    0.000    0.000    1.385    0.000    6.462 
#    0.000    0.000    0.000    1.385    0.000    0.154 
#
# Total GULP energy -289703.090736 kJ/mol
# GULP energy per Si atom -5571.213283 kJ/mol
# Density = 1.446658 g / cm^3
# Si number density = 14.499581 Si / 1000 Ang^3
#
#
#
# Elastic Constant Matrix: (Units=GPa)
#
#
# Indices 1 2 3 4 5 6 
#
# 1 74.1468 31.0562 43.8220 0.0000 0.0000 0.0000
# 2 31.0562 64.8817 52.2239 0.0000 0.0000 0.0000
# 3 43.8220 52.2239 113.2181 0.0000 0.0000 0.0000
# 4 0.0000 0.0000 0.0000 22.4942 0.0000 0.0000
# 5 0.0000 0.0000 0.0000 0.0000 14.5661 0.0000
# 6 0.0000 0.0000 0.0000 0.0000 0.0000 7.4293
#
#
#
# Elastic Compliance Matrix: (Units=1/GPa)
#
#
# Indices 1 2 3 4 5 6 
#
# 1 0.018415 -0.004895 -0.004870 0.000000 0.000000 0.000000
# 2 -0.004895 0.025815 -0.010013 0.000000 0.000000 0.000000
# 3 -0.004870 -0.010013 0.015336 0.000000 0.000000 0.000000
# 4 0.000000 0.000000 0.000000 0.044456 0.000000 0.000000
# 5 0.000000 0.000000 0.000000 0.000000 0.068652 0.000000
# 6 0.000000 0.000000 0.000000 0.000000 0.000000 0.134603
#
#
# Mechanical properties :
#
#
# Convention : Reuss Voigt Hill
#
# Bulk Modulus (GPa) = 49.97275 56.27231 53.12253
# Shear Modulus (GPa) = 14.14411 17.24088 15.69249
#
# Velocity S-wave (km/s) = 3.12666 3.45202 3.29336
# Velocity P-wave (km/s) = 6.89742 7.40151 7.15391
#
# Compressibility (1/GPa) = 0.02001091
#
# Stress axis : x y z
#
# Youngs Moduli (GPa) = 54.30327 38.73665 65.20491
#
# Poissons Ratio (x) = 0.18960 0.31754
# Poissons Ratio (y) = 0.26580 0.65291
# Poissons Ratio (z) = 0.26445 0.38788
#
# Static dielectric constant tensor:
#      x y z
#    x 1.464840 0.000000 0.000000 
#    y 0.000000 1.476290 0.000000 
#    z 0.000000 0.000000 1.480880 
# 
# From -- ./inp_files/39566.got.cif
#   From: 2010.05.17/outbox.cif.g08.bks.cpg/sg71_20_cif.got.tgz:39566.got - 2010.06.03 16:22:01.
