data_PCOD9517412
_publ_section_title
;
Structure prediction by ZEFSAII (Michael W. Deem and Ramdas Pophale) SiO2 
 PCOD9517412
Probable space group: I M M M
;
_chemical_formula_sum "Si O2"
_cell_formula_units_Z 104
_cell_length_a 8.003784
_cell_length_b 23.463744
_cell_length_c 31.119839
_cell_angle_alpha 90.000000
_cell_angle_beta 90.000000
_cell_angle_gamma 90.000000
_cell_volume 5844.266516
_symmetry_space_group_name_H-M "I M M M"
_symmetry_group_IT_number 71
_symmetry_cell_setting 'orthorhombic'
loop_
_space_group_symop_operation_xyz
x,y,z
-x,-y,z
x,-y,-z
-x,y,-z
-x,-y,-z
x,y,-z
-x,y,z
x,-y,z
1/2+x,1/2+y,1/2+z
1/2-x,1/2-y,1/2+z
1/2+x,1/2-y,1/2-z
1/2-x,1/2+y,1/2-z
1/2-x,1/2-y,1/2-z
1/2+x,1/2+y,1/2-z
1/2-x,1/2+y,1/2+z
1/2+x,1/2-y,1/2+z
loop_
_atom_site_type_symbol
_atom_site_label
_atom_site_fract_x
_atom_site_fract_y
_atom_site_fract_z
Si Si1 0.295554 0.566660 0.805645
Si Si2 0.704571 0.500000 0.049496
Si Si3 0.305213 0.430955 0.287807
Si Si4 0.299213 0.390319 0.896268
Si Si5 0.701429 0.154305 0.048855
Si Si6 0.800622 0.717335 0.951250
Si Si7 0.301286 0.064716 0.881535
O O1 0.500000 0.567649 0.804055
O O2 0.249722 0.500000 0.811436
O O3 0.237082 0.587721 0.758724
O O4 0.239164 0.601178 0.847378
O O5 0.500000 0.500000 0.049583
O O6 0.760092 0.443428 0.074644
O O7 0.758572 0.500000 0.000000
O O8 0.500000 0.415481 0.290260
O O9 0.294537 0.500000 0.286147
O O10 0.224804 0.413902 0.332800
O O11 0.500000 0.394690 0.894730
O O12 0.255738 0.331281 0.918743
O O13 0.500000 0.150249 0.047978
O O14 0.745043 0.219058 0.060904
O O15 0.766162 0.108243 0.082963
O O16 0.762490 0.144420 0.000000
O O17 0.000000 0.716640 0.952818
O O18 0.736401 0.705926 0.000000
O O19 0.500000 0.060788 0.888194
O O20 0.232490 0.000000 0.885040
#
# Coordination Sequence:
#
# PCOD9517412 Si02
#       7
#    16   8  16  16  16  16  16
#     4   8  13  24  43  68  94 120 154 195 233 268
#     4   9  16  24  39  67  95 117 147 191 238 277
#     4   8  14  25  43  66  94 127 157 182 216 270
#     4  10  17  28  48  70  92 119 156 200 237 274
#     4   9  18  33  52  71  91 120 157 190 221 267
#     4  10  21  35  48  64  90 124 159 194 233 276
#     4   9  17  29  47  74 103 123 143 179 229 276
#
# _framework density 17.795218999999999
#
# number of rings (size 3 to 8) (size 9 to 14) (size 15 to 20)
#    0.000    3.000    0.769    1.846    0.000    2.462 
#    0.000    2.692    0.000    3.231    0.000    4.308 
#    0.000    0.000    0.000    0.000    0.000    0.000 
#
# Total GULP energy -289656.852369 kJ/mol
# GULP energy per Si atom -5570.324084 kJ/mol
# Density = 1.775472 g / cm^3
# Si number density = 17.795219 Si / 1000 Ang^3
#
#
#
# Elastic Constant Matrix: (Units=GPa)
#
#
# Indices 1 2 3 4 5 6 
#
# 1 9.1996 4.8214 11.0610 0.0000 0.0000 0.0000
# 2 4.8214 99.7772 106.3252 0.0000 0.0000 0.0000
# 3 11.0610 106.3252 171.1275 0.0000 0.0000 0.0000
# 4 0.0000 0.0000 0.0000 17.8100 0.0000 0.0000
# 5 0.0000 0.0000 0.0000 0.0000 18.0092 0.0000
# 6 0.0000 0.0000 0.0000 0.0000 0.0000 0.8483
#
#
#
# Elastic Compliance Matrix: (Units=1/GPa)
#
#
# Indices 1 2 3 4 5 6 
#
# 1 0.119618 0.007277 -0.012253 0.000000 0.000000 0.000000
# 2 0.007277 0.030103 -0.019174 0.000000 0.000000 0.000000
# 3 -0.012253 -0.019174 0.018549 0.000000 0.000000 0.000000
# 4 0.000000 0.000000 0.000000 0.056148 0.000000 0.000000
# 5 0.000000 0.000000 0.000000 0.000000 0.055527 0.000000
# 6 0.000000 0.000000 0.000000 0.000000 0.000000 1.178854
#
#
# Mechanical properties :
#
#
# Convention : Reuss Voigt Hill
#
# Bulk Modulus (GPa) = 8.33540 58.27995 33.30767
# Shear Modulus (GPa) = 3.23187 17.85995 10.54591
#
# Velocity S-wave (km/s) = 1.34911 3.17146 2.43703
# Velocity P-wave (km/s) = 2.66852 6.79944 5.16495
#
# Compressibility (1/GPa) = 0.11997031
#
# Stress axis : x y z
#
# Youngs Moduli (GPa) = 8.35991 33.21916 53.91162
#
# Poissons Ratio (x) = -0.24174 0.66059
# Poissons Ratio (y) = -0.06084 1.03371
# Poissons Ratio (z) = 0.10244 0.63695
#
# Static dielectric constant tensor:
#      x y z
#    x 1.645970 0.000000 0.000000 
#    y 0.000000 1.577940 0.000000 
#    z 0.000000 0.000000 1.647020 
# 
# From -- ./inp_files/68434.got.cif
#   From: 2010.05.17/outbox.cif.g08.bks.cpg/sg71_35_cif.got.tgz:68434.got - 2010.06.03 16:22:01.
