data_PCOD9517064
_publ_section_title
;
Structure prediction by ZEFSAII (Michael W. Deem and Ramdas Pophale) SiO2 
 PCOD9517064
Probable space group: F D D D
;
_chemical_formula_sum "Si O2"
_cell_formula_units_Z 72
_cell_length_a 14.822081
_cell_length_b 21.374948
_cell_length_c 10.089737
_cell_angle_alpha 90.000000
_cell_angle_beta 90.000000
_cell_angle_gamma 90.000000
_cell_volume 3196.642691
_symmetry_space_group_name_H-M "F D D D"
_symmetry_group_IT_number 70
_space_group.IT_coordinate_system_code '2'
_symmetry_cell_setting 'orthorhombic'
loop_
_space_group_symop_operation_xyz
x,y,z
1/4-x,1/4-y,z
x,1/4-y,1/4-z
1/4-x,y,1/4-z
-x,-y,-z
3/4+x,3/4+y,-z
-x,3/4+y,3/4+z
3/4+x,-y,3/4+z
x,1/2+y,1/2+z
1/4-x,3/4-y,1/2+z
x,3/4-y,3/4-z
1/4-x,1/2+y,3/4-z
-x,1/2-y,1/2-z
3/4+x,1/4+y,1/2-z
-x,1/4+y,1/4+z
3/4+x,1/2-y,1/4+z
1/2+x,y,1/2+z
3/4-x,1/4-y,1/2+z
1/2+x,1/4-y,3/4-z
3/4-x,y,3/4-z
1/2-x,-y,1/2-z
1/4+x,3/4+y,1/2-z
1/2-x,3/4+y,1/4+z
1/4+x,-y,1/4+z
1/2+x,1/2+y,z
3/4-x,3/4-y,z
1/2+x,3/4-y,1/4-z
3/4-x,1/2+y,1/4-z
1/2-x,1/2-y,-z
1/4+x,1/4+y,-z
1/2-x,1/4+y,3/4+z
1/4+x,1/2-y,3/4+z
loop_
_atom_site_type_symbol
_atom_site_label
_atom_site_fract_x
_atom_site_fract_y
_atom_site_fract_z
Si Si1 0.125000 0.625000 0.625000
Si Si2 0.481720 0.697072 0.635360
Si Si3 0.523713 0.471149 0.856913
O O1 0.196780 0.577974 0.558679
O O2 0.513627 0.625000 0.625000
O O3 0.500000 0.750000 0.750000
O O4 0.521576 0.725901 0.502148
O O5 0.373020 0.693780 0.632941
O O6 0.500000 0.500000 0.000000
#
# Coordination Sequence:
#
# PCOD9517064 Si02
#       3
#     8  32  32
#     4  12  24  44  80 106 142 188 258 290 368 440
#     4  12  29  47  73 110 151 191 242 310 372 430
#     4  12  26  46  75 104 145 196 247 297 362 453
#
# _framework density 22.523629
#
# number of rings (size 3 to 8) (size 9 to 14) (size 15 to 20)
#    0.000    0.000    6.667    1.333    6.222    7.111 
#    0.000    0.000    0.000    0.000    0.000    0.000 
#    0.000    0.000    0.000    0.000    0.000    0.000 
#
# Total GULP energy -100359.774417 kJ/mol
# GULP energy per Si atom -5575.543023 kJ/mol
# Density = 2.247236 g / cm^3
# Si number density = 22.523629 Si / 1000 Ang^3
#
#
#
# Elastic Constant Matrix: (Units=GPa)
#
#
# Indices 1 2 3 4 5 6 
#
# 1 105.8028 6.5536 -9.7276 0.0000 0.0000 0.0000
# 2 6.5536 201.6433 79.4181 0.0000 0.0000 0.0000
# 3 -9.7276 79.4181 160.7705 0.0000 0.0000 0.0000
# 4 0.0000 0.0000 0.0000 30.4774 0.0000 0.0000
# 5 0.0000 0.0000 0.0000 0.0000 27.1539 0.0000
# 6 0.0000 0.0000 0.0000 0.0000 0.0000 29.0343
#
#
#
# Elastic Compliance Matrix: (Units=1/GPa)
#
#
# Indices 1 2 3 4 5 6 
#
# 1 0.009577 -0.000670 0.000910 0.000000 0.000000 0.000000
# 2 -0.000670 0.006204 -0.003105 0.000000 0.000000 0.000000
# 3 0.000910 -0.003105 0.007809 0.000000 0.000000 0.000000
# 4 0.000000 0.000000 0.000000 0.032811 0.000000 0.000000
# 5 0.000000 0.000000 0.000000 0.000000 0.036827 0.000000
# 6 0.000000 0.000000 0.000000 0.000000 0.000000 0.034442
#
#
# Mechanical properties :
#
#
# Convention : Reuss Voigt Hill
#
# Bulk Modulus (GPa) = 55.98968 68.96719 62.47844
# Shear Modulus (GPa) = 35.88011 43.46463 39.67237
#
# Velocity S-wave (km/s) = 3.99557 4.39764 4.20142
# Velocity P-wave (km/s) = 6.79693 7.51479 7.16486
#
# Compressibility (1/GPa) = 0.01786043
#
# Stress axis : x y z
#
# Youngs Moduli (GPa) = 104.41983 161.18565 128.05646
#
# Poissons Ratio (x) = 0.10796 -0.11657
# Poissons Ratio (y) = 0.06994 0.39764
# Poissons Ratio (z) = -0.09505 0.50052
#
# Static dielectric constant tensor:
#      x y z
#    x 1.377010 0.000000 0.000000 
#    y 0.000000 2.000750 0.000000 
#    z 0.000000 0.000000 1.799750 
# 
# From -- ./inp_files/5969.got.cif
#   From: 2010.05.17/outbox.cif.g08.bks.cpg/sg70_3_cif.got.tgz:5969.got - 2010.06.03 15:57:51.
