data_PCOD9517116
_publ_section_title
;
Structure prediction by ZEFSAII (Michael W. Deem and Ramdas Pophale) SiO2 
 PCOD9517116
Probable space group: F D D D
;
_chemical_formula_sum "Si O2"
_cell_formula_units_Z 120
_cell_length_a 17.555376
_cell_length_b 23.124143
_cell_length_c 13.174628
_cell_angle_alpha 90.000000
_cell_angle_beta 90.000000
_cell_angle_gamma 90.000000
_cell_volume 5348.280090
_symmetry_space_group_name_H-M "F D D D"
_symmetry_group_IT_number 70
_space_group.IT_coordinate_system_code '2'
_symmetry_cell_setting 'orthorhombic'
loop_
_space_group_symop_operation_xyz
x,y,z
1/4-x,1/4-y,z
x,1/4-y,1/4-z
1/4-x,y,1/4-z
-x,-y,-z
3/4+x,3/4+y,-z
-x,3/4+y,3/4+z
3/4+x,-y,3/4+z
x,1/2+y,1/2+z
1/4-x,3/4-y,1/2+z
x,3/4-y,3/4-z
1/4-x,1/2+y,3/4-z
-x,1/2-y,1/2-z
3/4+x,1/4+y,1/2-z
-x,1/4+y,1/4+z
3/4+x,1/2-y,1/4+z
1/2+x,y,1/2+z
3/4-x,1/4-y,1/2+z
1/2+x,1/4-y,3/4-z
3/4-x,y,3/4-z
1/2-x,-y,1/2-z
1/4+x,3/4+y,1/2-z
1/2-x,3/4+y,1/4+z
1/4+x,-y,1/4+z
1/2+x,1/2+y,z
3/4-x,3/4-y,z
1/2+x,3/4-y,1/4-z
3/4-x,1/2+y,1/4-z
1/2-x,1/2-y,-z
1/4+x,1/4+y,-z
1/2-x,1/4+y,3/4+z
1/4+x,1/2-y,3/4+z
loop_
_atom_site_type_symbol
_atom_site_label
_atom_site_fract_x
_atom_site_fract_y
_atom_site_fract_z
Si Si1 0.048158 0.903272 0.181193
Si Si2 0.125000 0.125000 0.625000
Si Si3 0.798887 0.001178 0.643798
Si Si4 0.049385 0.700214 0.303718
Si Si5 0.358401 0.625000 0.625000
O O1 0.125000 0.920050 0.125000
O O2 0.083301 0.881361 0.284019
O O3 0.996662 0.959768 0.182805
O O4 0.000795 0.848722 0.138479
O O5 0.082273 0.166040 0.705612
O O6 0.885103 0.975441 0.628724
O O7 0.750000 0.000000 0.750000
O O8 0.807769 0.067956 0.616416
O O9 0.000000 0.750000 0.250000
#
# Coordination Sequence:
#
# PCOD9517116 Si02
#       5
#    32   8  32  32  16
#     4  12  26  50  78 112 160 204 267 341 406 494
#     4  12  26  48  76 120 154 198 274 338 414 472
#     4  12  27  51  74 115 164 214 266 336 425 500
#     4  12  27  45  81 117 158 207 269 340 415 488
#     4  12  27  50  82 112 155 212 276 336 415 494
#
# _framework density 22.43712
#
# number of rings (size 3 to 8) (size 9 to 14) (size 15 to 20)
#    0.000    0.000    8.000    0.800    1.867    2.133 
#    4.800    0.667    0.000    0.000    0.000    0.000 
#    0.000    0.000    0.000    0.000    0.000    0.000 
#
# Total GULP energy -167424.090957 kJ/mol
# GULP energy per Si atom -5580.803032 kJ/mol
# Density = 2.238605 g / cm^3
# Si number density = 22.437120 Si / 1000 Ang^3
#
#
#
# Elastic Constant Matrix: (Units=GPa)
#
#
# Indices 1 2 3 4 5 6 
#
# 1 143.5985 95.5436 30.4573 0.0000 0.0000 0.0000
# 2 95.5436 224.3435 18.4812 0.0000 0.0000 0.0000
# 3 30.4573 18.4812 51.9056 0.0000 0.0000 0.0000
# 4 0.0000 0.0000 0.0000 30.8771 0.0000 0.0000
# 5 0.0000 0.0000 0.0000 0.0000 51.5490 0.0000
# 6 0.0000 0.0000 0.0000 0.0000 0.0000 74.8880
#
#
#
# Elastic Compliance Matrix: (Units=1/GPa)
#
#
# Indices 1 2 3 4 5 6 
#
# 1 0.010778 -0.004192 -0.004832 0.000000 0.000000 0.000000
# 2 -0.004192 0.006223 0.000244 0.000000 0.000000 0.000000
# 3 -0.004832 0.000244 0.022014 0.000000 0.000000 0.000000
# 4 0.000000 0.000000 0.000000 0.032386 0.000000 0.000000
# 5 0.000000 0.000000 0.000000 0.000000 0.019399 0.000000
# 6 0.000000 0.000000 0.000000 0.000000 0.000000 0.013353
#
#
# Mechanical properties :
#
#
# Convention : Reuss Voigt Hill
#
# Bulk Modulus (GPa) = 46.60822 78.75688 62.68255
# Shear Modulus (GPa) = 38.80059 49.82051 44.31055
#
# Velocity S-wave (km/s) = 4.16300 4.71728 4.44878
# Velocity P-wave (km/s) = 6.62762 8.05280 7.37472
#
# Compressibility (1/GPa) = 0.02145544
#
# Stress axis : x y z
#
# Youngs Moduli (GPa) = 92.78283 160.70335 45.42579
#
# Poissons Ratio (x) = 0.67368 0.21948
# Poissons Ratio (y) = 0.38895 -0.01109
# Poissons Ratio (z) = 0.44830 -0.03925
#
# Static dielectric constant tensor:
#      x y z
#    x 1.910050 0.000000 0.000000 
#    y 0.000000 2.139150 0.000000 
#    z 0.000000 0.000000 1.830330 
# 
# From -- ./inp_files/26261.got.cif
#   From: 2010.05.17/outbox.cif.g08.bks.cpg/sg70_14_cif.got.tgz:26261.got - 2010.06.03 15:57:51.
