data_PCOD9517655
_publ_section_title
;
Structure prediction by ZEFSAII (Michael W. Deem and Ramdas Pophale) SiO2 
 PCOD9517655
Probable space group: I M M M
;
_chemical_formula_sum "Si O2"
_cell_formula_units_Z 56
_cell_length_a 22.584739
_cell_length_b 8.663037
_cell_length_c 18.289906
_cell_angle_alpha 90.000000
_cell_angle_beta 90.000000
_cell_angle_gamma 90.000000
_cell_volume 3578.464546
_symmetry_space_group_name_H-M "I M M M"
_symmetry_group_IT_number 71
_symmetry_cell_setting 'orthorhombic'
loop_
_space_group_symop_operation_xyz
x,y,z
-x,-y,z
x,-y,-z
-x,y,-z
-x,-y,-z
x,y,-z
-x,y,z
x,-y,z
1/2+x,1/2+y,1/2+z
1/2-x,1/2-y,1/2+z
1/2+x,1/2-y,1/2-z
1/2-x,1/2+y,1/2-z
1/2-x,1/2-y,1/2-z
1/2+x,1/2+y,1/2-z
1/2-x,1/2+y,1/2+z
1/2+x,1/2-y,1/2+z
loop_
_atom_site_type_symbol
_atom_site_label
_atom_site_fract_x
_atom_site_fract_y
_atom_site_fract_z
Si Si1 0.569982 0.684096 0.500000
Si Si2 0.719647 0.815321 0.916724
Si Si3 0.651180 0.815524 0.374165
Si Si4 0.314783 0.684346 0.228112
O O1 0.580440 0.500000 0.500000
O O2 0.500000 0.712599 0.500000
O O3 0.601275 0.756541 0.429135
O O4 0.785648 0.747737 0.903934
O O5 0.677668 0.744188 0.854367
O O6 0.722761 0.000000 0.907139
O O7 0.701738 0.781527 0.000000
O O8 0.643845 0.750273 0.292026
O O9 0.653625 0.000000 0.372560
O O10 0.313967 0.500000 0.230167
O O11 0.250000 0.750000 0.250000
#
# Coordination Sequence:
#
# PCOD9517655 Si02
#       4
#     8  16  16  16
#     4  11  23  37  51  67  89 119 157 197 236 275
#     4  10  18  28  44  65  93 123 154 187 225 272
#     4  11  20  31  47  64  88 118 153 191 231 274
#     4  10  18  28  43  62  88 118 153 187 224 272
#
# _framework density 15.64917
#
# number of rings (size 3 to 8) (size 9 to 14) (size 15 to 20)
#    0.000    1.571    1.429    9.857    0.000    2.857 
#    0.000    0.000    0.000    0.000    0.000    0.000 
#    0.000    1.143    0.000   12.000    0.000    5.143 
#
# Total GULP energy -156201.810483 kJ/mol
# GULP energy per Si atom -5578.636089 kJ/mol
# Density = 1.561355 g / cm^3
# Si number density = 15.649170 Si / 1000 Ang^3
#
#
#
# Elastic Constant Matrix: (Units=GPa)
#
#
# Indices 1 2 3 4 5 6 
#
# 1 35.7832 34.7093 43.9741 0.0000 0.0000 0.0000
# 2 34.7093 137.4114 84.6780 0.0000 0.0000 0.0000
# 3 43.9741 84.6780 177.9735 0.0000 0.0000 0.0000
# 4 0.0000 0.0000 0.0000 31.1499 0.0000 0.0000
# 5 0.0000 0.0000 0.0000 0.0000 14.0565 0.0000
# 6 0.0000 0.0000 0.0000 0.0000 0.0000 14.0864
#
#
#
# Elastic Compliance Matrix: (Units=1/GPa)
#
#
# Indices 1 2 3 4 5 6 
#
# 1 0.043552 -0.006182 -0.007819 0.000000 0.000000 0.000000
# 2 -0.006182 0.011174 -0.003789 0.000000 0.000000 0.000000
# 3 -0.007819 -0.003789 0.009354 0.000000 0.000000 0.000000
# 4 0.000000 0.000000 0.000000 0.032103 0.000000 0.000000
# 5 0.000000 0.000000 0.000000 0.000000 0.071141 0.000000
# 6 0.000000 0.000000 0.000000 0.000000 0.000000 0.070991
#
#
# Mechanical properties :
#
#
# Convention : Reuss Voigt Hill
#
# Bulk Modulus (GPa) = 35.08980 75.32119 55.20550
# Shear Modulus (GPa) = 17.64318 24.37900 21.01109
#
# Velocity S-wave (km/s) = 3.36135 3.95124 3.66817
# Velocity P-wave (km/s) = 6.12669 8.30975 7.30029
#
# Compressibility (1/GPa) = 0.02849831
#
# Stress axis : x y z
#
# Youngs Moduli (GPa) = 22.96087 89.49425 106.91106
#
# Poissons Ratio (x) = 0.55329 0.83599
# Poissons Ratio (y) = 0.14195 0.40507
# Poissons Ratio (z) = 0.17954 0.33908
#
# Static dielectric constant tensor:
#      x y z
#    x 1.480350 0.000000 0.000000 
#    y 0.000000 1.521090 0.000000 
#    z 0.000000 0.000000 1.590510 
# 
# From -- ./inp_files/7208.got.cif
#   From: 2010.05.17/outbox.cif.g08.bks.cpg/sg71_4_cif.got.tgz:7208.got - 2010.06.03 16:22:01.
