data_PCOD9517628
_publ_section_title
;
Structure prediction by ZEFSAII (Michael W. Deem and Ramdas Pophale) SiO2 
 PCOD9517628
Probable space group: I M M M
;
_chemical_formula_sum "Si O2"
_cell_formula_units_Z 88
_cell_length_a 7.363170
_cell_length_b 31.754640
_cell_length_c 20.543584
_cell_angle_alpha 90.000000
_cell_angle_beta 90.000000
_cell_angle_gamma 90.000000
_cell_volume 4803.394243
_symmetry_space_group_name_H-M "I M M M"
_symmetry_group_IT_number 71
_symmetry_cell_setting 'orthorhombic'
loop_
_space_group_symop_operation_xyz
x,y,z
-x,-y,z
x,-y,-z
-x,y,-z
-x,-y,-z
x,y,-z
-x,y,z
x,-y,z
1/2+x,1/2+y,1/2+z
1/2-x,1/2-y,1/2+z
1/2+x,1/2-y,1/2-z
1/2-x,1/2+y,1/2-z
1/2-x,1/2-y,1/2-z
1/2+x,1/2+y,1/2-z
1/2-x,1/2+y,1/2+z
1/2+x,1/2-y,1/2+z
loop_
_atom_site_type_symbol
_atom_site_label
_atom_site_fract_x
_atom_site_fract_y
_atom_site_fract_z
Si Si1 0.282147 0.706570 0.289084
Si Si2 0.210535 0.948759 0.500000
Si Si3 0.279355 0.266787 0.428890
Si Si4 0.780924 0.667843 0.071698
Si Si5 0.706084 0.628113 0.208154
Si Si6 0.223131 0.951534 0.356891
O O1 0.500000 0.702601 0.291249
O O2 0.250000 0.750000 0.250000
O O3 0.215298 0.711180 0.363059
O O4 0.210855 0.665378 0.251453
O O5 0.287845 0.937580 0.429292
O O6 0.000000 0.936015 0.500000
O O7 0.213075 0.000000 0.500000
O O8 0.219497 0.282634 0.500000
O O9 0.500000 0.268567 0.428519
O O10 0.232625 0.217314 0.424985
O O11 0.701796 0.645867 0.134558
O O12 0.000000 0.665162 0.075437
O O13 0.725898 0.651903 0.000000
O O14 0.500000 0.621996 0.231693
O O15 0.785796 0.581694 0.197146
O O16 0.000000 0.950633 0.358737
O O17 0.274991 0.000000 0.345993
#
# Coordination Sequence:
#
# PCOD9517628 Si02
#       6
#    16   8  16  16  16  16
#     4  10  18  28  41  59  82 102 127 161 194 230
#     4   7  10  18  32  46  63  95 129 149 175 223
#     4   8  14  26  42  54  70 104 139 157 175 219
#     4   9  17  28  40  54  75 108 142 160 184 234
#     4  10  19  26  39  63  80  96 127 170 208 230
#     4   8  14  24  35  50  75 101 125 156 197 239
#
# _framework density 18.320378000000002
#
# number of rings (size 3 to 8) (size 9 to 14) (size 15 to 20)
#    0.000    3.182    1.818    2.182    1.273    0.364 
#    0.000    0.000    0.000    1.091    0.000    1.273 
#    0.000    0.727    0.000   10.182    0.000    0.000 
#
# Total GULP energy -245312.705688 kJ/mol
# GULP energy per Si atom -5575.288766 kJ/mol
# Density = 1.827868 g / cm^3
# Si number density = 18.320378 Si / 1000 Ang^3
#
#
#
# Elastic Constant Matrix: (Units=GPa)
#
#
# Indices 1 2 3 4 5 6 
#
# 1 68.0638 3.9817 1.4044 0.0000 0.0000 0.0000
# 2 3.9817 118.4386 68.2884 0.0000 0.0000 0.0000
# 3 1.4044 68.2884 116.6770 0.0000 0.0000 0.0000
# 4 0.0000 0.0000 0.0000 38.9148 0.0000 0.0000
# 5 0.0000 0.0000 0.0000 0.0000 3.4833 0.0000
# 6 0.0000 0.0000 0.0000 0.0000 0.0000 0.6283
#
#
#
# Elastic Compliance Matrix: (Units=1/GPa)
#
#
# Indices 1 2 3 4 5 6 
#
# 1 0.014723 -0.000593 0.000170 0.000000 0.000000 0.000000
# 2 -0.000593 0.012767 -0.007465 0.000000 0.000000 0.000000
# 3 0.000170 -0.007465 0.012938 0.000000 0.000000 0.000000
# 4 0.000000 0.000000 0.000000 0.025697 0.000000 0.000000
# 5 0.000000 0.000000 0.000000 0.000000 0.287083 0.000000
# 6 0.000000 0.000000 0.000000 0.000000 0.000000 1.591710
#
#
# Mechanical properties :
#
#
# Convention : Reuss Voigt Hill
#
# Bulk Modulus (GPa) = 40.56502 50.05869 45.31186
# Shear Modulus (GPa) = 2.53947 23.90560 13.22254
#
# Velocity S-wave (km/s) = 1.17862 3.61621 2.68944
# Velocity P-wave (km/s) = 4.90329 6.69472 5.86778
#
# Compressibility (1/GPa) = 0.02465178
#
# Stress axis : x y z
#
# Youngs Moduli (GPa) = 67.91962 78.32417 77.29211
#
# Poissons Ratio (x) = 0.04643 -0.01312
# Poissons Ratio (y) = 0.04027 0.57701
# Poissons Ratio (z) = -0.01153 0.58472
#
# Static dielectric constant tensor:
#      x y z
#    x 1.747230 0.000000 0.000000 
#    y 0.000000 1.669970 0.000000 
#    z 0.000000 0.000000 1.641680 
# 
# From -- ./inp_files/43934.got.cif
#   From: 2010.05.17/outbox.cif.g08.bks.cpg/sg71_22_cif.got.tgz:43934.got - 2010.06.03 16:22:01.
