data_PCOD9517326
_publ_section_title
;
Structure prediction by ZEFSAII (Michael W. Deem and Ramdas Pophale) SiO2 
 PCOD9517326
Probable space group: I M M M
;
_chemical_formula_sum "Si O2"
_cell_formula_units_Z 104
_cell_length_a 23.513408
_cell_length_b 7.828147
_cell_length_c 31.045348
_cell_angle_alpha 90.000000
_cell_angle_beta 90.000000
_cell_angle_gamma 90.000000
_cell_volume 5714.405887
_symmetry_space_group_name_H-M "I M M M"
_symmetry_group_IT_number 71
_symmetry_cell_setting 'orthorhombic'
loop_
_space_group_symop_operation_xyz
x,y,z
-x,-y,z
x,-y,-z
-x,y,-z
-x,-y,-z
x,y,-z
-x,y,z
x,-y,z
1/2+x,1/2+y,1/2+z
1/2-x,1/2-y,1/2+z
1/2+x,1/2-y,1/2-z
1/2-x,1/2+y,1/2-z
1/2-x,1/2-y,1/2-z
1/2+x,1/2+y,1/2-z
1/2-x,1/2+y,1/2+z
1/2+x,1/2-y,1/2+z
loop_
_atom_site_type_symbol
_atom_site_label
_atom_site_fract_x
_atom_site_fract_y
_atom_site_fract_z
Si Si1 0.280218 0.708406 0.450473
Si Si2 0.348881 0.208971 0.950743
Si Si3 0.064989 0.704185 0.621866
Si Si4 0.111510 0.796451 0.100829
Si Si5 0.564974 0.296599 0.215306
Si Si6 0.565209 0.797424 0.308657
Si Si7 0.500000 0.709410 0.450070
O O1 0.293280 0.755750 0.500000
O O2 0.279486 0.500000 0.449225
O O3 0.215777 0.763389 0.440522
O O4 0.329576 0.770499 0.418816
O O5 0.394389 0.270034 0.915855
O O6 0.349269 0.000000 0.950064
O O7 0.361973 0.259474 0.000000
O O8 0.061462 0.500000 0.616830
O O9 0.089353 0.737929 0.669672
O O10 0.000000 0.772377 0.619808
O O11 0.101323 0.766329 0.151146
O O12 0.056403 0.730861 0.074828
O O13 0.112244 0.000000 0.093886
O O14 0.500000 0.226371 0.215865
O O15 0.562773 0.500000 0.214353
O O16 0.589585 0.244657 0.261432
O O17 0.500000 0.726712 0.311474
O O18 0.561510 0.000000 0.312215
O O19 0.500000 0.500000 0.449081
O O20 0.500000 0.759854 0.500000
#
# Coordination Sequence:
#
# PCOD9517326 Si02
#       7
#    16  16  16  16  16  16   8
#     4   8  14  25  42  64  88 117 154 190 221 255
#     4   8  14  25  42  66  95 123 151 183 216 255
#     4   9  16  26  43  69  97 121 146 178 220 264
#     4  10  17  26  43  65  88 114 149 191 228 263
#     4   9  17  29  46  66  89 117 148 182 221 267
#     4  10  19  30  44  63  90 119 147 181 226 275
#     4   9  16  24  37  61  89 113 141 183 228 263
#
# _framework density 18.199617
#
# number of rings (size 3 to 8) (size 9 to 14) (size 15 to 20)
#    0.000    3.000    0.769    2.308    0.000    4.615 
#    0.000    1.538    0.000    4.615    0.000    4.308 
#    0.000    0.000    0.000    0.000    0.000    0.000 
#
# Total GULP energy -289716.545717 kJ/mol
# GULP energy per Si atom -5571.472033 kJ/mol
# Density = 1.815819 g / cm^3
# Si number density = 18.199617 Si / 1000 Ang^3
#
#
#
# Elastic Constant Matrix: (Units=GPa)
#
#
# Indices 1 2 3 4 5 6 
#
# 1 95.7776 5.6748 96.4633 0.0000 0.0000 0.0000
# 2 5.6748 18.6507 -4.5261 0.0000 0.0000 0.0000
# 3 96.4633 -4.5261 169.8633 0.0000 0.0000 0.0000
# 4 0.0000 0.0000 0.0000 15.3807 0.0000 0.0000
# 5 0.0000 0.0000 0.0000 0.0000 22.4917 0.0000
# 6 0.0000 0.0000 0.0000 0.0000 0.0000 2.4057
#
#
#
# Elastic Compliance Matrix: (Units=1/GPa)
#
#
# Indices 1 2 3 4 5 6 
#
# 1 0.026789 -0.011920 -0.015531 0.000000 0.000000 0.000000
# 2 -0.011920 0.059270 0.008348 0.000000 0.000000 0.000000
# 3 -0.015531 0.008348 0.014929 0.000000 0.000000 0.000000
# 4 0.000000 0.000000 0.000000 0.065017 0.000000 0.000000
# 5 0.000000 0.000000 0.000000 0.000000 0.044461 0.000000
# 6 0.000000 0.000000 0.000000 0.000000 0.000000 0.415676
#
#
# Mechanical properties :
#
#
# Convention : Reuss Voigt Hill
#
# Bulk Modulus (GPa) = 15.92768 53.27953 34.60361
# Shear Modulus (GPa) = 7.29634 20.50091 13.89863
#
# Velocity S-wave (km/s) = 2.00444 3.35990 2.76647
# Velocity P-wave (km/s) = 3.75868 6.66262 5.40917
#
# Compressibility (1/GPa) = 0.06278377
#
# Stress axis : x y z
#
# Youngs Moduli (GPa) = 37.32851 16.87194 66.98228
#
# Poissons Ratio (x) = 0.20111 1.04029
# Poissons Ratio (y) = 0.44495 -0.55920
# Poissons Ratio (z) = 0.57974 -0.14085
#
# Static dielectric constant tensor:
#      x y z
#    x 1.623110 0.000000 0.000000 
#    y 0.000000 1.667310 0.000000 
#    z 0.000000 0.000000 1.630530 
# 
# From -- ./inp_files/13604.got.cif
#   From: 2010.05.17/outbox.cif.g08.bks.cpg/sg71_7_cif.got.tgz:13604.got - 2010.06.03 16:22:01.
