data_PCOD9517926
_publ_section_title
;
Structure prediction by ZEFSAII (Michael W. Deem and Ramdas Pophale) SiO2 
 PCOD9517926
Probable space group: I M M M
;
_chemical_formula_sum "Si O2"
_cell_formula_units_Z 84
_cell_length_a 7.267925
_cell_length_b 29.365621
_cell_length_c 15.359885
_cell_angle_alpha 90.000000
_cell_angle_beta 90.000000
_cell_angle_gamma 90.000000
_cell_volume 3278.216188
_symmetry_space_group_name_H-M "I M M M"
_symmetry_group_IT_number 71
_symmetry_cell_setting 'orthorhombic'
loop_
_space_group_symop_operation_xyz
x,y,z
-x,-y,z
x,-y,-z
-x,y,-z
-x,-y,-z
x,y,-z
-x,y,z
x,-y,z
1/2+x,1/2+y,1/2+z
1/2-x,1/2-y,1/2+z
1/2+x,1/2-y,1/2-z
1/2-x,1/2+y,1/2-z
1/2-x,1/2-y,1/2-z
1/2+x,1/2+y,1/2-z
1/2-x,1/2+y,1/2+z
1/2+x,1/2-y,1/2+z
loop_
_atom_site_type_symbol
_atom_site_label
_atom_site_fract_x
_atom_site_fract_y
_atom_site_fract_z
Si Si1 0.277352 0.660561 0.671153
Si Si2 0.278900 0.000000 0.193465
Si Si3 0.278051 0.245686 0.400905
Si Si4 0.775400 0.103064 0.000000
Si Si5 0.223231 0.451002 0.138505
Si Si6 0.252312 0.500000 0.500000
Si Si7 0.291021 0.145478 0.366775
O O1 0.500000 0.660275 0.674759
O O2 0.215263 0.713069 0.659350
O O3 0.226028 0.631119 0.586677
O O4 0.205178 0.642986 0.762352
O O5 0.234264 0.041813 0.258297
O O6 0.500000 0.000000 0.177564
O O7 0.184459 0.000000 0.101124
O O8 0.240392 0.259628 0.500000
O O9 0.500000 0.243475 0.390766
O O10 0.206922 0.194572 0.387512
O O11 0.689996 0.052925 0.000000
O O12 0.000000 0.097204 0.000000
O O13 0.281465 0.500000 0.100379
O O14 0.291416 0.402827 0.104581
O O15 0.000000 0.449855 0.131714
O O16 0.500000 0.146910 0.400525
#
# Coordination Sequence:
#
# PCOD9517926 Si02
#       7
#    16   8  16   8  16   4  16
#     4  10  19  34  50  65  92 130 158 184 232 280
#     4   8  15  25  37  56  88 123 146 172 224 282
#     4   9  17  31  50  70  94 123 154 186 229 285
#     4  10  21  33  45  60  89 129 160 187 225 273
#     4   7  13  26  40  59  90 120 142 176 229 273
#     4  12  18  24  40  62  84 114 160 198 214 244
#     4  10  18  29  51  76  91 114 159 200 223 262
#
# _framework density 25.623691999999998
#
# number of rings (size 3 to 8) (size 9 to 14) (size 15 to 20)
#    0.571    2.286    0.952    2.000    0.000    0.000 
#    0.000    1.429    0.000    2.286    0.000    4.000 
#    0.000    0.000    0.000    1.714    0.000    1.905 
#
# Total GULP energy -234270.119808 kJ/mol
# GULP energy per Si atom -5577.859995 kJ/mol
# Density = 2.556537 g / cm^3
# Si number density = 25.623692 Si / 1000 Ang^3
#
#
#
# Elastic Constant Matrix: (Units=GPa)
#
#
# Indices 1 2 3 4 5 6 
#
# 1 121.9149 9.8196 5.6947 0.0000 0.0000 0.0000
# 2 9.8196 234.4946 31.8622 0.0000 0.0000 0.0000
# 3 5.6947 31.8622 119.5476 -0.0001 -0.0002 0.0000
# 4 0.0000 0.0000 -0.0001 22.0458 -0.0001 0.0000
# 5 0.0000 0.0000 -0.0002 -0.0001 1.3503 0.0000
# 6 0.0000 0.0000 0.0000 0.0000 0.0000 -14.0102
#
#
#
# Elastic Compliance Matrix: (Units=1/GPa)
#
#
# Indices 1 2 3 4 5 6 
#
# 1 0.008241 -0.000303 -0.000312 0.000000 0.000000 0.000000
# 2 -0.000303 0.004436 -0.001168 0.000000 0.000000 0.000000
# 3 -0.000312 -0.001168 0.008691 0.000000 0.000001 0.000000
# 4 0.000000 0.000000 0.000000 0.045360 0.000002 0.000000
# 5 0.000000 0.000000 0.000001 0.000002 0.740552 0.000001
# 6 0.000000 0.000000 0.000000 0.000000 0.000001 -0.071377
#
#
# Mechanical properties :
#
#
# Convention : Reuss Voigt Hill
#
# Bulk Modulus (GPa) = 56.16936 63.41221 59.79079
# Shear Modulus (GPa) = 6.70778 30.44923 18.57850
#
# Velocity S-wave (km/s) = 1.61972 3.45095 2.69560
# Velocity P-wave (km/s) = 5.04643 6.37808 5.75093
#
# Compressibility (1/GPa) = 0.01780330
#
# Stress axis : x y z
#
# Youngs Moduli (GPa) = 121.33864 225.43604 115.06182
#
# Poissons Ratio (x) = 0.06825 0.03589
# Poissons Ratio (y) = 0.03673 0.13437
# Poissons Ratio (z) = 0.03785 0.26327
#
# Static dielectric constant tensor:
#      x y z
#    x 2.007820 0.000000 0.000000 
#    y 0.000000 2.011340 0.000000 
#    z 0.000000 0.000000 1.941890 
# 
# From -- ./inp_files/43681.got.cif
#   From: 2010.05.17/outbox.cif.g08.bks.cpg/sg71_22_cif.got.tgz:43681.got - 2010.06.03 16:22:01.
