data_PCOD9517632
_publ_section_title
;
Structure prediction by ZEFSAII (Michael W. Deem and Ramdas Pophale) SiO2 
 PCOD9517632
Probable space group: I M M M
;
_chemical_formula_sum "Si O2"
_cell_formula_units_Z 88
_cell_length_a 24.640712
_cell_length_b 31.086790
_cell_length_c 8.727988
_cell_angle_alpha 90.000000
_cell_angle_beta 90.000000
_cell_angle_gamma 90.000000
_cell_volume 6685.644389
_symmetry_space_group_name_H-M "I M M M"
_symmetry_group_IT_number 71
_symmetry_cell_setting 'orthorhombic'
loop_
_space_group_symop_operation_xyz
x,y,z
-x,-y,z
x,-y,-z
-x,y,-z
-x,-y,-z
x,y,-z
-x,y,z
x,-y,z
1/2+x,1/2+y,1/2+z
1/2-x,1/2-y,1/2+z
1/2+x,1/2-y,1/2-z
1/2-x,1/2+y,1/2-z
1/2-x,1/2-y,1/2-z
1/2+x,1/2+y,1/2-z
1/2-x,1/2+y,1/2+z
1/2+x,1/2-y,1/2+z
loop_
_atom_site_type_symbol
_atom_site_label
_atom_site_fract_x
_atom_site_fract_y
_atom_site_fract_z
Si Si1 0.616391 0.255845 0.183961
Si Si2 0.000000 0.238433 0.176841
Si Si3 0.000000 0.864857 0.822195
Si Si4 0.564233 0.500000 0.316088
Si Si5 0.280271 0.791581 0.183933
Si Si6 0.177805 0.159660 0.184426
Si Si7 0.103946 0.910716 0.682476
O O1 0.555817 0.248196 0.242604
O O2 0.657271 0.216708 0.227483
O O3 0.641695 0.299876 0.254936
O O4 0.616353 0.260784 0.000000
O O5 0.000000 0.186424 0.179967
O O6 0.000000 0.252132 0.000000
O O7 0.052453 0.882875 0.737867
O O8 0.000000 0.879488 0.000000
O O9 0.500000 0.500000 0.270434
O O10 0.565821 0.500000 0.500000
O O11 0.593487 0.457670 0.252041
O O12 0.250000 0.750000 0.250000
O O13 0.240562 0.830591 0.228522
O O14 0.278506 0.790002 0.000000
O O15 0.155088 0.115700 0.253574
O O16 0.172649 0.158741 0.000000
O O17 0.105827 0.912999 0.500000
#
# Coordination Sequence:
#
# PCOD9517632 Si02
#       7
#    16   8   8   8  16  16  16
#     4  10  18  28  42  60  80 103 134 170 204 237
#     4  11  21  29  40  58  82 110 138 168 207 249
#     4  11  21  32  44  57  78 106 137 169 207 251
#     4  11  23  37  51  61  78 106 134 165 210 257
#     4   8  16  28  42  59  78 101 129 163 201 239
#     4  10  18  30  45  60  80 104 131 164 204 248
#     4  12  23  33  47  64  80 100 133 172 210 248
#
# _framework density 13.16253
#
# number of rings (size 3 to 8) (size 9 to 14) (size 15 to 20)
#    0.000    1.727    2.727    3.545    0.000    2.545 
#    0.000    0.000    0.000    0.000    0.000    0.000 
#    0.000    0.000    0.000    0.000    0.000    0.909 
#
# Total GULP energy -245250.503902 kJ/mol
# GULP energy per Si atom -5573.875089 kJ/mol
# Density = 1.313257 g / cm^3
# Si number density = 13.162530 Si / 1000 Ang^3
#
#
#
# Elastic Constant Matrix: (Units=GPa)
#
#
# Indices 1 2 3 4 5 6 
#
# 1 109.8034 52.6541 39.7938 0.0000 0.0000 0.0000
# 2 52.6541 66.6476 32.1171 0.0000 0.0000 0.0000
# 3 39.7938 32.1171 69.2639 0.0000 0.0000 0.0000
# 4 0.0000 0.0000 0.0000 17.0047 0.0000 0.0000
# 5 0.0000 0.0000 0.0000 0.0000 13.1247 0.0000
# 6 0.0000 0.0000 0.0000 0.0000 0.0000 16.3558
#
#
#
# Elastic Compliance Matrix: (Units=1/GPa)
#
#
# Indices 1 2 3 4 5 6 
#
# 1 0.015543 -0.010271 -0.004167 0.000000 0.000000 0.000000
# 2 -0.010271 0.026109 -0.006206 0.000000 0.000000 0.000000
# 3 -0.004167 -0.006206 0.019709 0.000000 0.000000 0.000000
# 4 0.000000 0.000000 0.000000 0.058807 0.000000 0.000000
# 5 0.000000 0.000000 0.000000 0.000000 0.076192 0.000000
# 6 0.000000 0.000000 0.000000 0.000000 0.000000 0.061141
#
#
# Mechanical properties :
#
#
# Convention : Reuss Voigt Hill
#
# Bulk Modulus (GPa) = 49.81701 54.98277 52.39989
# Shear Modulus (GPa) = 16.36766 17.37368 16.87067
#
# Velocity S-wave (km/s) = 3.53016 3.63703 3.58400
# Velocity P-wave (km/s) = 7.38551 7.71364 7.55136
#
# Compressibility (1/GPa) = 0.02007346
#
# Stress axis : x y z
#
# Youngs Moduli (GPa) = 64.33869 38.30026 50.73813
#
# Poissons Ratio (x) = 0.39339 0.21142
# Poissons Ratio (y) = 0.66084 0.31486
# Poissons Ratio (z) = 0.26810 0.23768
#
# Static dielectric constant tensor:
#      x y z
#    x 1.464090 0.000000 0.000000 
#    y 0.000000 1.416530 0.000000 
#    z 0.000000 0.000000 1.440570 
# 
# From -- ./inp_files/13575.got.cif
#   From: 2010.05.17/outbox.cif.g08.bks.cpg/sg71_7_cif.got.tgz:13575.got - 2010.06.03 16:22:01.
