data_PCOD9517612
_publ_section_title
;
Structure prediction by ZEFSAII (Michael W. Deem and Ramdas Pophale) SiO2 
 PCOD9517612
Probable space group: I M M M
;
_chemical_formula_sum "Si O2"
_cell_formula_units_Z 80
_cell_length_a 7.434860
_cell_length_b 20.982875
_cell_length_c 19.978227
_cell_angle_alpha 90.000000
_cell_angle_beta 90.000000
_cell_angle_gamma 90.000000
_cell_volume 3116.698069
_symmetry_space_group_name_H-M "I M M M"
_symmetry_group_IT_number 71
_symmetry_cell_setting 'orthorhombic'
loop_
_space_group_symop_operation_xyz
x,y,z
-x,-y,z
x,-y,-z
-x,y,-z
-x,-y,-z
x,y,-z
-x,y,z
x,-y,z
1/2+x,1/2+y,1/2+z
1/2-x,1/2-y,1/2+z
1/2+x,1/2-y,1/2-z
1/2-x,1/2+y,1/2-z
1/2-x,1/2-y,1/2-z
1/2+x,1/2+y,1/2-z
1/2-x,1/2+y,1/2+z
1/2+x,1/2-y,1/2+z
loop_
_atom_site_type_symbol
_atom_site_label
_atom_site_fract_x
_atom_site_fract_y
_atom_site_fract_z
Si Si1 0.294823 0.395526 0.500000
Si Si2 0.713350 0.253845 0.000000
Si Si3 0.205178 0.888689 0.287685
Si Si4 0.210748 0.736117 0.148884
Si Si5 0.278523 0.617145 0.643979
Si Si6 0.709525 0.576209 0.071680
O O1 0.500000 0.418950 0.500000
O O2 0.297094 0.317675 0.500000
O O3 0.217076 0.411833 0.426877
O O4 0.764103 0.285020 0.071080
O O5 0.500000 0.246159 0.000000
O O6 0.201704 0.811989 0.298459
O O7 0.279304 0.909179 0.215970
O O8 0.295312 0.908368 0.356977
O O9 0.000000 0.912871 0.288854
O O10 0.277957 0.808656 0.147423
O O11 0.000000 0.736929 0.163311
O O12 0.500000 0.616215 0.642564
O O13 0.500000 0.599377 0.072586
O O14 0.701382 0.500000 0.070457
O O15 0.788765 0.595239 0.000000
#
# Coordination Sequence:
#
# PCOD9517612 Si02
#       6
#     8   8  16  16  16  16
#     4   8  14  28  44  56  81 115 143 174 220 260
#     4  10  18  28  42  60  81 112 155 189 208 243
#     4  10  18  27  44  67  85 108 151 190 218 263
#     4  10  19  30  41  58  90 124 146 176 224 268
#     4   8  15  27  42  61  85 116 149 180 214 261
#     4   8  15  28  44  63  88 114 142 185 234 267
#
# _framework density 25.668191
#
# number of rings (size 3 to 8) (size 9 to 14) (size 15 to 20)
#    0.000    3.000    0.000    3.900    1.400    0.000 
#    0.000    4.000    0.000    0.600    0.000    2.100 
#    0.000    5.600    0.000    0.000    0.000   18.400 
#
# Total GULP energy -223203.039963 kJ/mol
# GULP energy per Si atom -5580.075999 kJ/mol
# Density = 2.560977 g / cm^3
# Si number density = 25.668191 Si / 1000 Ang^3
#
#
#
# Elastic Constant Matrix: (Units=GPa)
#
#
# Indices 1 2 3 4 5 6 
#
# 1 100.0222 -0.3824 9.2976 0.0000 0.0000 0.0000
# 2 -0.3824 24.1219 14.9223 0.0000 0.0000 0.0000
# 3 9.2976 14.9223 320.0733 0.0000 0.0000 0.0000
# 4 0.0000 0.0000 0.0000 16.6234 0.0000 0.0000
# 5 0.0000 0.0000 0.0000 0.0000 3.0044 0.0000
# 6 0.0000 0.0000 0.0000 0.0000 0.0000 -19.7308
#
#
#
# Elastic Compliance Matrix: (Units=1/GPa)
#
#
# Indices 1 2 3 4 5 6 
#
# 1 0.010028 0.000349 -0.000308 0.000000 0.000000 0.000000
# 2 0.000349 0.042699 -0.002001 0.000000 0.000000 0.000000
# 3 -0.000308 -0.002001 0.003227 0.000000 0.000000 0.000000
# 4 0.000000 0.000000 0.000000 0.060156 0.000000 0.000000
# 5 0.000000 0.000000 0.000000 0.000000 0.332846 0.000000
# 6 0.000000 0.000000 0.000000 0.000000 0.000000 -0.050682
#
#
# Mechanical properties :
#
#
# Convention : Reuss Voigt Hill
#
# Bulk Modulus (GPa) = 19.21778 54.65471 36.93624
# Shear Modulus (GPa) = 11.91790 28.00474 19.96132
#
# Velocity S-wave (km/s) = 2.15711 3.30666 2.79169
# Velocity P-wave (km/s) = 3.70236 5.99313 4.98122
#
# Compressibility (1/GPa) = 0.05203515
#
# Stress axis : x y z
#
# Youngs Moduli (GPa) = 99.72374 23.41958 309.93321
#
# Poissons Ratio (x) = -0.00818 0.09533
# Poissons Ratio (y) = -0.03483 0.62013
# Poissons Ratio (z) = 0.03067 0.04686
#
# Static dielectric constant tensor:
#      x y z
#    x 1.952630 0.000000 0.000000 
#    y 0.000000 2.059660 0.000000 
#    z 0.000000 0.000000 2.096170 
# 
# From -- ./inp_files/10296.got.cif
#   From: 2010.05.17/outbox.cif.g08.bks.cpg/sg71_6_cif.got.tgz:10296.got - 2010.06.03 16:22:01.
