data_PCOD9517369
_publ_section_title
;
Structure prediction by ZEFSAII (Michael W. Deem and Ramdas Pophale) SiO2 
 PCOD9517369
Probable space group: I M M M
;
_chemical_formula_sum "Si O2"
_cell_formula_units_Z 104
_cell_length_a 23.365378
_cell_length_b 8.693841
_cell_length_c 30.887552
_cell_angle_alpha 90.000000
_cell_angle_beta 90.000000
_cell_angle_gamma 90.000000
_cell_volume 6274.339207
_symmetry_space_group_name_H-M "I M M M"
_symmetry_group_IT_number 71
_symmetry_cell_setting 'orthorhombic'
loop_
_space_group_symop_operation_xyz
x,y,z
-x,-y,z
x,-y,-z
-x,y,-z
-x,-y,-z
x,y,-z
-x,y,z
x,-y,z
1/2+x,1/2+y,1/2+z
1/2-x,1/2-y,1/2+z
1/2+x,1/2-y,1/2-z
1/2-x,1/2+y,1/2-z
1/2-x,1/2-y,1/2-z
1/2+x,1/2+y,1/2-z
1/2-x,1/2+y,1/2+z
1/2+x,1/2-y,1/2+z
loop_
_atom_site_type_symbol
_atom_site_label
_atom_site_fract_x
_atom_site_fract_y
_atom_site_fract_z
Si Si1 0.650960 0.685650 0.549942
Si Si2 0.433781 0.813920 0.378592
Si Si3 0.430514 0.822167 0.283143
Si Si4 0.718442 0.812678 0.049492
Si Si5 0.566615 0.683006 0.192480
Si Si6 0.611080 0.185939 0.894990
Si Si7 0.000000 0.687516 0.549929
O O1 0.638627 0.729254 0.500000
O O2 0.648828 0.500000 0.552148
O O3 0.606498 0.754294 0.583624
O O4 0.716501 0.734019 0.559698
O O5 0.500000 0.765178 0.384818
O O6 0.413194 0.762805 0.330619
O O7 0.433504 0.000000 0.377860
O O8 0.500000 0.819826 0.284447
O O9 0.413103 0.731907 0.240262
O O10 0.412877 0.000000 0.278639
O O11 0.669631 0.760828 0.082398
O O12 0.717944 0.000000 0.049692
O O13 0.705156 0.766021 0.000000
O O14 0.500000 0.735259 0.187953
O O15 0.567470 0.500000 0.189006
O O16 0.601961 0.755337 0.153432
O O17 0.556726 0.235698 0.924138
O O18 0.611031 0.000000 0.894479
O O19 0.000000 0.500000 0.549311
O O20 0.000000 0.738578 0.500000
#
# Coordination Sequence:
#
# PCOD9517369 Si02
#       7
#    16  16  16  16  16  16   8
#     4   9  18  32  49  70  97 128 159 189 224 271
#     4   9  18  32  50  74 100 123 149 187 234 276
#     4   8  15  29  48  67  89 118 152 188 227 275
#     4   8  15  29  48  68  90 120 160 201 234 266
#     4  10  19  29  42  64  96 126 152 187 234 284
#     4  10  17  27  46  68  90 119 157 200 239 275
#     4   9  16  24  39  67  93 113 149 199 240 273
#
# _framework density 16.575451000000001
#
# number of rings (size 3 to 8) (size 9 to 14) (size 15 to 20)
#    0.000    3.000    0.769    2.769    0.000    4.000 
#    0.000    3.846    0.000    4.154    0.000    0.000 
#    0.000    0.000    0.000    0.000    0.000    0.000 
#
# Total GULP energy -289652.054151 kJ/mol
# GULP energy per Si atom -5570.231811 kJ/mol
# Density = 1.653772 g / cm^3
# Si number density = 16.575451 Si / 1000 Ang^3
#
#
#
# Elastic Constant Matrix: (Units=GPa)
#
#
# Indices 1 2 3 4 5 6 
#
# 1 90.5106 19.7932 92.4292 0.0000 0.0000 0.0000
# 2 19.7932 8.3744 27.8992 0.0000 0.0000 0.0000
# 3 92.4292 27.8992 167.1368 0.0000 0.0000 0.0000
# 4 0.0000 0.0000 0.0000 19.2125 0.0000 0.0000
# 5 0.0000 0.0000 0.0000 0.0000 17.7054 0.0000
# 6 0.0000 0.0000 0.0000 0.0000 0.0000 12.0478
#
#
#
# Elastic Compliance Matrix: (Units=1/GPa)
#
#
# Indices 1 2 3 4 5 6 
#
# 1 0.029179 -0.034259 -0.010418 0.000000 0.000000 0.000000
# 2 -0.034259 0.309233 -0.032673 0.000000 0.000000 0.000000
# 3 -0.010418 -0.032673 0.017198 0.000000 0.000000 0.000000
# 4 0.000000 0.000000 0.000000 0.052049 0.000000 0.000000
# 5 0.000000 0.000000 0.000000 0.000000 0.056480 0.000000
# 6 0.000000 0.000000 0.000000 0.000000 0.000000 0.083002
#
#
# Mechanical properties :
#
#
# Convention : Reuss Voigt Hill
#
# Bulk Modulus (GPa) = 4.97732 60.69612 32.83672
# Shear Modulus (GPa) = 6.50355 18.18649 12.34502
#
# Velocity S-wave (km/s) = 1.98296 3.31599 2.73202
# Velocity P-wave (km/s) = 2.87266 7.16649 5.45943
#
# Compressibility (1/GPa) = 0.20091143
#
# Stress axis : x y z
#
# Youngs Moduli (GPa) = 34.27142 3.23381 58.14576
#
# Poissons Ratio (x) = 0.11079 0.60575
# Poissons Ratio (y) = 1.17410 1.89979
# Poissons Ratio (z) = 0.35703 0.10566
#
# Static dielectric constant tensor:
#      x y z
#    x 1.546850 0.000000 0.000000 
#    y 0.000000 1.567110 0.000000 
#    z 0.000000 0.000000 1.558070 
# 
# From -- ./inp_files/13603.got.cif
#   From: 2010.05.17/outbox.cif.g08.bks.cpg/sg71_7_cif.got.tgz:13603.got - 2010.06.03 16:22:01.
