data_PCOD9517616
_publ_section_title
;
Structure prediction by ZEFSAII (Michael W. Deem and Ramdas Pophale) SiO2 
 PCOD9517616
Probable space group: I M M M
;
_chemical_formula_sum "Si O2"
_cell_formula_units_Z 104
_cell_length_a 9.013090
_cell_length_b 20.501829
_cell_length_c 31.252421
_cell_angle_alpha 90.000000
_cell_angle_beta 90.000000
_cell_angle_gamma 90.000000
_cell_volume 5774.973300
_symmetry_space_group_name_H-M "I M M M"
_symmetry_group_IT_number 71
_symmetry_cell_setting 'orthorhombic'
loop_
_space_group_symop_operation_xyz
x,y,z
-x,-y,z
x,-y,-z
-x,y,-z
-x,-y,-z
x,y,-z
-x,y,z
x,-y,z
1/2+x,1/2+y,1/2+z
1/2-x,1/2-y,1/2+z
1/2+x,1/2-y,1/2-z
1/2-x,1/2+y,1/2-z
1/2-x,1/2-y,1/2-z
1/2+x,1/2+y,1/2-z
1/2-x,1/2+y,1/2+z
1/2+x,1/2-y,1/2+z
loop_
_atom_site_type_symbol
_atom_site_label
_atom_site_fract_x
_atom_site_fract_y
_atom_site_fract_z
Si Si1 0.178535 0.573918 0.182117
Si Si2 0.680967 0.500000 0.450655
Si Si3 0.674428 0.638930 0.583570
Si Si4 0.323988 0.631784 0.000000
Si Si5 0.829389 0.229279 0.000000
Si Si6 0.669715 0.301667 0.219523
Si Si7 0.168311 0.249479 0.377147
Si Si8 0.676809 0.124131 0.588083
O O1 0.219852 0.500000 0.193549
O O2 0.250524 0.628859 0.212093
O O3 0.219073 0.586710 0.131988
O O4 0.000000 0.580382 0.184280
O O5 0.500000 0.500000 0.452056
O O6 0.731204 0.500000 0.500000
O O7 0.725168 0.433920 0.427005
O O8 0.500000 0.637868 0.595110
O O9 0.688895 0.682190 0.540584
O O10 0.770178 0.678102 0.617570
O O11 0.276842 0.708478 0.000000
O O12 0.255293 0.603614 0.044042
O O13 0.500000 0.624966 0.000000
O O14 0.000000 0.254280 0.000000
O O15 0.500000 0.311234 0.233577
O O16 0.750000 0.250000 0.250000
O O17 0.668955 0.270946 0.172072
O O18 0.273390 0.198435 0.401875
O O19 0.000000 0.243617 0.393798
O O20 0.500000 0.120238 0.582883
#
# Coordination Sequence:
#
# PCOD9517616 Si02
#       8
#    16   8  16   8   8  16  16  16
#     4   9  19  37  61  87 114 145 180 220 270 327
#     4   9  16  28  45  67  93 129 177 223 261 303
#     4  10  18  29  48  70  96 131 174 220 265 316
#     4  12  22  30  44  70 105 140 178 228 275 308
#     4  10  18  27  44  69  95 129 174 219 267 316
#     4  10  21  37  60  88 114 141 176 220 269 323
#     4  10  20  33  50  75 105 132 166 214 268 316
#     4  10  19  32  51  75 104 140 181 218 259 314
#
# _framework density 18.008741000000001
#
# number of rings (size 3 to 8) (size 9 to 14) (size 15 to 20)
#    0.000    2.077    2.308    2.077    0.000    2.769 
#    0.000    0.769    1.692    2.769    0.000    0.000 
#    0.000    0.000    0.000    0.000    0.000    0.000 
#
# Total GULP energy -290078.532515 kJ/mol
# GULP energy per Si atom -5578.433318 kJ/mol
# Density = 1.796775 g / cm^3
# Si number density = 18.008741 Si / 1000 Ang^3
#
#
#
# Elastic Constant Matrix: (Units=GPa)
#
#
# Indices 1 2 3 4 5 6 
#
# 1 73.4650 36.7349 32.1605 0.0000 0.0000 0.0000
# 2 36.7349 119.4901 28.8415 0.0000 0.0000 0.0000
# 3 32.1605 28.8415 50.2743 0.0000 0.0000 0.0000
# 4 0.0000 0.0000 0.0000 20.0960 0.0000 0.0000
# 5 0.0000 0.0000 0.0000 0.0000 25.8852 0.0000
# 6 0.0000 0.0000 0.0000 0.0000 0.0000 13.7094
#
#
#
# Elastic Compliance Matrix: (Units=1/GPa)
#
#
# Indices 1 2 3 4 5 6 
#
# 1 0.020143 -0.003578 -0.010833 0.000000 0.000000 0.000000
# 2 -0.003578 0.010349 -0.003649 0.000000 0.000000 0.000000
# 3 -0.010833 -0.003649 0.028914 0.000000 0.000000 0.000000
# 4 0.000000 0.000000 0.000000 0.049761 0.000000 0.000000
# 5 0.000000 0.000000 0.000000 0.000000 0.038632 0.000000
# 6 0.000000 0.000000 0.000000 0.000000 0.000000 0.072943
#
#
# Mechanical properties :
#
#
# Convention : Reuss Voigt Hill
#
# Bulk Modulus (GPa) = 42.94120 48.74478 45.84299
# Shear Modulus (GPa) = 18.89472 21.63764 20.26618
#
# Velocity S-wave (km/s) = 3.24265 3.47004 3.35827
# Velocity P-wave (km/s) = 6.15760 6.57122 6.36777
#
# Compressibility (1/GPa) = 0.02328766
#
# Stress axis : x y z
#
# Youngs Moduli (GPa) = 49.64422 96.62311 34.58543
#
# Poissons Ratio (x) = 0.34570 0.37467
# Poissons Ratio (y) = 0.17762 0.12619
# Poissons Ratio (z) = 0.53780 0.35253
#
# Static dielectric constant tensor:
#      x y z
#    x 1.624060 0.000000 0.000000 
#    y 0.000000 1.619590 0.000000 
#    z 0.000000 0.000000 1.629900 
# 
# From -- ./inp_files/68317.got.cif
#   From: 2010.05.17/outbox.cif.g08.bks.cpg/sg71_35_cif.got.tgz:68317.got - 2010.06.03 16:22:01.
