data_PCOD9517099
_publ_section_title
;
Structure prediction by ZEFSAII (Michael W. Deem and Ramdas Pophale) SiO2 
 PCOD9517099
Probable space group: F D D D
;
_chemical_formula_sum "Si O2"
_cell_formula_units_Z 112
_cell_length_a 9.202556
_cell_length_b 14.379543
_cell_length_c 32.961082
_cell_angle_alpha 90.000000
_cell_angle_beta 90.000000
_cell_angle_gamma 90.000000
_cell_volume 4361.692178
_symmetry_space_group_name_H-M "F D D D"
_symmetry_group_IT_number 70
_space_group.IT_coordinate_system_code '2'
_symmetry_cell_setting 'orthorhombic'
loop_
_space_group_symop_operation_xyz
x,y,z
1/4-x,1/4-y,z
x,1/4-y,1/4-z
1/4-x,y,1/4-z
-x,-y,-z
3/4+x,3/4+y,-z
-x,3/4+y,3/4+z
3/4+x,-y,3/4+z
x,1/2+y,1/2+z
1/4-x,3/4-y,1/2+z
x,3/4-y,3/4-z
1/4-x,1/2+y,3/4-z
-x,1/2-y,1/2-z
3/4+x,1/4+y,1/2-z
-x,1/4+y,1/4+z
3/4+x,1/2-y,1/4+z
1/2+x,y,1/2+z
3/4-x,1/4-y,1/2+z
1/2+x,1/4-y,3/4-z
3/4-x,y,3/4-z
1/2-x,-y,1/2-z
1/4+x,3/4+y,1/2-z
1/2-x,3/4+y,1/4+z
1/4+x,-y,1/4+z
1/2+x,1/2+y,z
3/4-x,3/4-y,z
1/2+x,3/4-y,1/4-z
3/4-x,1/2+y,1/4-z
1/2-x,1/2-y,-z
1/4+x,1/4+y,-z
1/2-x,1/4+y,3/4+z
1/4+x,1/2-y,3/4+z
loop_
_atom_site_type_symbol
_atom_site_label
_atom_site_fract_x
_atom_site_fract_y
_atom_site_fract_z
Si Si1 0.375000 0.375000 0.619984
Si Si2 0.153900 0.276463 0.191207
Si Si3 0.398750 0.197866 0.088165
Si Si4 0.355146 0.165294 0.512140
O O1 0.261536 0.428373 0.591555
O O2 0.456628 0.452529 0.646870
O O3 0.253151 0.207604 0.217221
O O4 0.106371 0.354784 0.223115
O O5 0.018629 0.224445 0.171553
O O6 0.411351 0.125000 0.125000
O O7 0.459611 0.152309 0.047208
O O8 0.250000 0.250000 0.500000
#
# Coordination Sequence:
#
# PCOD9517099 Si02
#       4
#    16  32  32  32
#     4  12  26  46  76 114 151 196 259 326 384 464
#     4  12  26  48  74 110 152 199 260 311 390 472
#     4  12  27  48  78 110 151 202 256 325 391 457
#     4  12  25  48  72 108 151 201 248 315 385 465
#
# _framework density 25.678107000000001
#
# number of rings (size 3 to 8) (size 9 to 14) (size 15 to 20)
#    0.000    0.000    5.714    2.571    8.000    0.000 
#    0.000    0.000    0.000    0.000    0.000    0.000 
#    0.000    0.000    0.000    0.000    0.000    0.000 
#
# Total GULP energy -157241.254836 kJ/mol
# GULP energy per Si atom -5615.759101 kJ/mol
# Density = 2.561966 g / cm^3
# Si number density = 25.678107 Si / 1000 Ang^3
#
#
#
# Elastic Constant Matrix: (Units=GPa)
#
#
# Indices 1 2 3 4 5 6 
#
# 1 75.9031 5.3007 16.4344 0.0000 0.0000 0.0000
# 2 5.3007 158.0063 75.8736 0.0000 0.0000 0.0000
# 3 16.4344 75.8736 175.0282 0.0000 0.0000 0.0000
# 4 0.0000 0.0000 0.0000 70.3155 0.0000 0.0000
# 5 0.0000 0.0000 0.0000 0.0000 41.3556 0.0000
# 6 0.0000 0.0000 0.0000 0.0000 0.0000 35.4453
#
#
#
# Elastic Compliance Matrix: (Units=1/GPa)
#
#
# Indices 1 2 3 4 5 6 
#
# 1 0.013453 0.000196 -0.001348 0.000000 0.000000 0.000000
# 2 0.000196 0.007995 -0.003484 0.000000 0.000000 0.000000
# 3 -0.001348 -0.003484 0.007350 0.000000 0.000000 0.000000
# 4 0.000000 0.000000 0.000000 0.014222 0.000000 0.000000
# 5 0.000000 0.000000 0.000000 0.000000 0.024181 0.000000
# 6 0.000000 0.000000 0.000000 0.000000 0.000000 0.028213
#
#
# Mechanical properties :
#
#
# Convention : Reuss Voigt Hill
#
# Bulk Modulus (GPa) = 51.21427 67.12833 59.17130
# Shear Modulus (GPa) = 44.96604 50.17852 47.57228
#
# Velocity S-wave (km/s) = 4.18921 4.42536 4.30890
# Velocity P-wave (km/s) = 6.58690 7.23261 6.91730
#
# Compressibility (1/GPa) = 0.01952581
#
# Stress axis : x y z
#
# Youngs Moduli (GPa) = 74.33336 125.07092 136.04678
#
# Poissons Ratio (x) = -0.02452 0.18341
# Poissons Ratio (y) = -0.01457 0.47404
# Poissons Ratio (z) = 0.10021 0.43580
#
# Static dielectric constant tensor:
#      x y z
#    x 1.999180 0.000000 0.000000 
#    y 0.000000 2.075950 0.000000 
#    z 0.000000 0.000000 2.014400 
# 
# From -- ./inp_files/64381.got.cif
#   From: 2010.05.17/outbox.cif.g08.bks.cpg/sg70_33_cif.got.tgz:64381.got - 2010.06.03 15:57:51.
