data_PCOD9517240
_publ_section_title
;
Structure prediction by ZEFSAII (Michael W. Deem and Ramdas Pophale) SiO2 
 PCOD9517240
Probable space group: I M M M
;
_chemical_formula_sum "Si O2"
_cell_formula_units_Z 120
_cell_length_a 26.808146
_cell_length_b 13.284471
_cell_length_c 22.144093
_cell_angle_alpha 90.000000
_cell_angle_beta 90.000000
_cell_angle_gamma 90.000000
_cell_volume 7886.220972
_symmetry_space_group_name_H-M "I M M M"
_symmetry_group_IT_number 71
_symmetry_cell_setting 'orthorhombic'
loop_
_space_group_symop_operation_xyz
x,y,z
-x,-y,z
x,-y,-z
-x,y,-z
-x,-y,-z
x,y,-z
-x,y,z
x,-y,z
1/2+x,1/2+y,1/2+z
1/2-x,1/2-y,1/2+z
1/2+x,1/2-y,1/2-z
1/2-x,1/2+y,1/2-z
1/2-x,1/2-y,1/2-z
1/2+x,1/2+y,1/2-z
1/2-x,1/2+y,1/2+z
1/2+x,1/2-y,1/2+z
loop_
_atom_site_type_symbol
_atom_site_label
_atom_site_fract_x
_atom_site_fract_y
_atom_site_fract_z
Si Si1 0.662851 0.387717 0.249412
Si Si2 0.500000 0.122048 0.067594
Si Si3 0.726740 0.120236 0.427738
Si Si4 0.057858 0.379504 0.226792
Si Si5 0.151099 0.698718 0.831137
Si Si6 0.221136 0.390065 0.728456
Si Si7 0.816296 0.769319 0.637875
Si Si8 0.901388 0.620829 0.638725
O O1 0.642572 0.500000 0.257205
O O2 0.650987 0.311918 0.304122
O O3 0.722974 0.394221 0.248097
O O4 0.652424 0.340221 0.183839
O O5 0.450601 0.150467 0.102697
O O6 0.500000 0.000000 0.066068
O O7 0.500000 0.160735 0.000000
O O8 0.722636 0.131467 0.500000
O O9 0.681310 0.176135 0.392452
O O10 0.779175 0.168348 0.404584
O O11 0.725557 0.000000 0.413410
O O12 0.056189 0.500000 0.222224
O O13 0.094131 0.338236 0.174586
O O14 0.085582 0.357905 0.290782
O O15 0.000000 0.344015 0.226905
O O16 0.183338 0.635762 0.781855
O O17 0.208181 0.500000 0.703001
O O18 0.218014 0.301796 0.680149
O O19 0.855852 0.687437 0.614138
O O20 0.893664 0.500000 0.632669
#
# Coordination Sequence:
#
# PCOD9517240 Si02
#       8
#    16   8  16  16  16  16  16  16
#     4  10  18  27  46  73  97 121 153 193 238 286
#     4   9  18  32  46  62  93 137 176 204 234 283
#     4  11  23  36  49  67  96 133 170 203 234 286
#     4  10  18  28  47  77 103 121 151 204 259 302
#     4  11  18  32  50  71  95 128 163 195 244 304
#     4  10  16  25  46  73  96 120 150 189 234 284
#     4  11  18  29  45  71  99 127 160 194 242 284
#     4  10  18  28  47  73 102 131 162 201 245 291
#
# _framework density 15.216412999999999
#
# number of rings (size 3 to 8) (size 9 to 14) (size 15 to 20)
#    0.000    1.667    6.000    2.800    0.000    0.533 
#    0.000    0.000    0.000    4.000    0.000    3.267 
#    0.000    3.200    0.000    1.200    0.000    0.133 
#
# Total GULP energy -334048.213918 kJ/mol
# GULP energy per Si atom -5567.470232 kJ/mol
# Density = 1.518178 g / cm^3
# Si number density = 15.216413 Si / 1000 Ang^3
#
#
#
# Elastic Constant Matrix: (Units=GPa)
#
#
# Indices 1 2 3 4 5 6 
#
# 1 65.1238 15.7485 26.3616 0.0000 0.0000 0.0000
# 2 15.7485 87.6489 30.7232 0.0000 0.0000 0.0000
# 3 26.3616 30.7232 70.8190 0.0000 0.0000 0.0000
# 4 0.0000 0.0000 0.0000 15.1751 0.0000 0.0000
# 5 0.0000 0.0000 0.0000 0.0000 12.9043 0.0000
# 6 0.0000 0.0000 0.0000 0.0000 0.0000 19.3632
#
#
#
# Elastic Compliance Matrix: (Units=1/GPa)
#
#
# Indices 1 2 3 4 5 6 
#
# 1 0.018162 -0.001054 -0.006303 0.000000 0.000000 0.000000
# 2 -0.001054 0.013516 -0.005472 0.000000 0.000000 0.000000
# 3 -0.006303 -0.005472 0.018841 0.000000 0.000000 0.000000
# 4 0.000000 0.000000 0.000000 0.065897 0.000000 0.000000
# 5 0.000000 0.000000 0.000000 0.000000 0.077494 0.000000
# 6 0.000000 0.000000 0.000000 0.000000 0.000000 0.051644
#
#
# Mechanical properties :
#
#
# Convention : Reuss Voigt Hill
#
# Bulk Modulus (GPa) = 40.22300 41.02871 40.62585
# Shear Modulus (GPa) = 17.88917 19.53908 18.71413
#
# Velocity S-wave (km/s) = 3.43249 3.58729 3.51075
# Velocity P-wave (km/s) = 6.49621 6.64682 6.57194
#
# Compressibility (1/GPa) = 0.02486140
#
# Stress axis : x y z
#
# Youngs Moduli (GPa) = 55.06081 73.98421 53.07702
#
# Poissons Ratio (x) = 0.07796 0.33456
# Poissons Ratio (y) = 0.05802 0.29041
# Poissons Ratio (z) = 0.34707 0.40481
#
# Static dielectric constant tensor:
#      x y z
#    x 1.528900 0.000000 0.000000 
#    y 0.000000 1.544810 0.000000 
#    z 0.000000 0.000000 1.521250 
# 
# From -- ./inp_files/56441.got.cif
#   From: 2010.05.17/outbox.cif.g08.bks.cpg/sg71_29_cif.got.tgz:56441.got - 2010.06.03 16:22:01.
