data_PCOD9517425
_publ_section_title
;
Structure prediction by ZEFSAII (Michael W. Deem and Ramdas Pophale) SiO2 
 PCOD9517425
Probable space group: I M M M
;
_chemical_formula_sum "Si O2"
_cell_formula_units_Z 100
_cell_length_a 23.397083
_cell_length_b 7.508815
_cell_length_c 29.596472
_cell_angle_alpha 90.000000
_cell_angle_beta 90.000000
_cell_angle_gamma 90.000000
_cell_volume 5199.637472
_symmetry_space_group_name_H-M "I M M M"
_symmetry_group_IT_number 71
_symmetry_cell_setting 'orthorhombic'
loop_
_space_group_symop_operation_xyz
x,y,z
-x,-y,z
x,-y,-z
-x,y,-z
-x,-y,-z
x,y,-z
-x,y,z
x,-y,z
1/2+x,1/2+y,1/2+z
1/2-x,1/2-y,1/2+z
1/2+x,1/2-y,1/2-z
1/2-x,1/2+y,1/2-z
1/2-x,1/2-y,1/2-z
1/2+x,1/2+y,1/2-z
1/2-x,1/2+y,1/2+z
1/2+x,1/2-y,1/2+z
loop_
_atom_site_type_symbol
_atom_site_label
_atom_site_fract_x
_atom_site_fract_y
_atom_site_fract_z
Si Si1 0.292384 0.716704 0.052353
Si Si2 0.304558 0.710819 0.298224
Si Si3 0.561778 0.216971 0.552648
Si Si4 0.324421 0.213463 0.399999
Si Si5 0.101890 0.794810 0.616945
Si Si6 0.674645 0.793899 0.798419
Si Si7 0.000000 0.500000 0.615500
O O1 0.290479 0.500000 0.051911
O O2 0.234840 0.779526 0.077899
O O3 0.348450 0.761920 0.081404
O O4 0.294225 0.774940 0.000000
O O5 0.300921 0.500000 0.291176
O O6 0.329068 0.748095 0.347152
O O7 0.338258 0.784055 0.254990
O O8 0.239221 0.782146 0.300462
O O9 0.563927 0.263829 0.500000
O O10 0.500000 0.275043 0.571146
O O11 0.618759 0.283079 0.576183
O O12 0.562422 0.000000 0.554995
O O13 0.323185 0.000000 0.405838
O O14 0.131775 0.793665 0.666493
O O15 0.050236 0.656794 0.615789
O O16 0.085267 0.000000 0.606620
O O17 0.677081 0.000000 0.812119
#
# Coordination Sequence:
#
# PCOD9517425 Si02
#       7
#    16  16  16  16  16  16   4
#     4   9  18  33  56  86 117 149 190 249 318 374
#     4  10  20  31  52  84 118 149 187 235 298 358
#     4   8  14  25  44  72 106 145 190 236 279 333
#     4  10  17  28  51  81 113 149 192 241 297 356
#     4  11  22  40  65  88 119 158 202 256 310 366
#     4  10  19  35  58  84 116 147 186 243 300 356
#     4  12  26  44  65  88 120 160 214 246 297 382
#
# _framework density 19.232111
#
# number of rings (size 3 to 8) (size 9 to 14) (size 15 to 20)
#    0.000    2.240    2.400    2.160    0.000    3.200 
#    0.000    1.200    1.760    3.840    0.000    1.120 
#    0.000    0.000    0.000    0.000    0.000    0.000 
#
# Total GULP energy -278385.196940 kJ/mol
# GULP energy per Si atom -5567.703939 kJ/mol
# Density = 1.918834 g / cm^3
# Si number density = 19.232111 Si / 1000 Ang^3
#
#
#
# Elastic Constant Matrix: (Units=GPa)
#
#
# Indices 1 2 3 4 5 6 
#
# 1 119.3881 33.1160 68.9950 0.0000 0.0000 0.0000
# 2 33.1160 85.5388 6.1899 0.0000 0.0000 0.0000
# 3 68.9950 6.1899 124.0318 0.0000 0.0000 0.0000
# 4 0.0000 0.0000 0.0000 13.0569 0.0000 0.0000
# 5 0.0000 0.0000 0.0000 0.0000 10.0239 0.0000
# 6 0.0000 0.0000 0.0000 0.0000 0.0000 12.1736
#
#
#
# Elastic Compliance Matrix: (Units=1/GPa)
#
#
# Indices 1 2 3 4 5 6 
#
# 1 0.014149 -0.004926 -0.007625 0.000000 0.000000 0.000000
# 2 -0.004926 0.013448 0.002069 0.000000 0.000000 0.000000
# 3 -0.007625 0.002069 0.012201 0.000000 0.000000 0.000000
# 4 0.000000 0.000000 0.000000 0.076588 0.000000 0.000000
# 5 0.000000 0.000000 0.000000 0.000000 0.099762 0.000000
# 6 0.000000 0.000000 0.000000 0.000000 0.000000 0.082145
#
#
# Mechanical properties :
#
#
# Convention : Reuss Voigt Hill
#
# Bulk Modulus (GPa) = 53.09520 60.61783 56.85652
# Shear Modulus (GPa) = 15.35943 21.76140 18.56041
#
# Velocity S-wave (km/s) = 2.82908 3.36745 3.10993
# Velocity P-wave (km/s) = 6.19186 6.83426 6.52097
#
# Compressibility (1/GPa) = 0.01883409
#
# Stress axis : x y z
#
# Youngs Moduli (GPa) = 70.67777 74.36092 81.96347
#
# Poissons Ratio (x) = 0.36629 0.62494
# Poissons Ratio (y) = 0.34815 -0.16958
# Poissons Ratio (z) = 0.53889 -0.15385
#
# Static dielectric constant tensor:
#      x y z
#    x 1.657810 0.000000 0.000000 
#    y 0.000000 1.721270 0.000000 
#    z 0.000000 0.000000 1.673380 
# 
# From -- ./inp_files/70747.got.cif
#   From: 2010.05.17/outbox.cif.g08.bks.cpg/sg71_36_cif.got.tgz:70747.got - 2010.06.03 16:22:01.
