data_PCOD9517609
_publ_section_title
;
Structure prediction by ZEFSAII (Michael W. Deem and Ramdas Pophale) SiO2 
 PCOD9517609
Probable space group: I M M M
;
_chemical_formula_sum "Si O2"
_cell_formula_units_Z 80
_cell_length_a 26.081922
_cell_length_b 21.105265
_cell_length_c 7.534243
_cell_angle_alpha 90.000000
_cell_angle_beta 90.000000
_cell_angle_gamma 90.000000
_cell_volume 4147.343669
_symmetry_space_group_name_H-M "I M M M"
_symmetry_group_IT_number 71
_symmetry_cell_setting 'orthorhombic'
loop_
_space_group_symop_operation_xyz
x,y,z
-x,-y,z
x,-y,-z
-x,y,-z
-x,-y,-z
x,y,-z
-x,y,z
x,-y,z
1/2+x,1/2+y,1/2+z
1/2-x,1/2-y,1/2+z
1/2+x,1/2-y,1/2-z
1/2-x,1/2+y,1/2-z
1/2-x,1/2-y,1/2-z
1/2+x,1/2+y,1/2-z
1/2-x,1/2+y,1/2+z
1/2+x,1/2-y,1/2+z
loop_
_atom_site_type_symbol
_atom_site_label
_atom_site_fract_x
_atom_site_fract_y
_atom_site_fract_z
Si Si1 0.889214 0.400473 0.295750
Si Si2 0.786795 0.190694 0.787554
Si Si3 0.889051 0.253720 0.792176
Si Si4 0.723799 0.929902 0.217350
Si Si5 0.500000 0.897825 0.782095
Si Si6 0.000000 0.249993 0.288623
O O1 0.889208 0.421873 0.500000
O O2 0.888883 0.323488 0.294427
O O3 0.834913 0.421450 0.218555
O O4 0.944418 0.422074 0.220878
O O5 0.750000 0.250000 0.750000
O O6 0.843151 0.210219 0.721738
O O7 0.759755 0.127118 0.719255
O O8 0.790793 0.183133 0.000000
O O9 0.945421 0.223781 0.772342
O O10 0.879737 0.265550 0.000000
O O11 0.742157 0.000000 0.264404
O O12 0.722024 0.926007 0.000000
O O13 0.500000 0.823659 0.729864
O O14 0.500000 0.901116 0.000000
O O15 0.000000 0.249473 0.500000
#
# Coordination Sequence:
#
# PCOD9517609 Si02
#       6
#    16  16  16  16   8   8
#     4   9  15  26  43  61  87 123 161 194 227 274
#     4  10  19  30  47  70  95 124 160 200 238 279
#     4  10  18  27  43  69  96 120 150 193 240 280
#     4   9  17  29  45  65  91 126 165 202 237 275
#     4   7  12  21  36  59  81 107 145 185 219 252
#     4   9  17  29  45  66  93 122 150 185 233 286
#
# _framework density 19.289455
#
# number of rings (size 3 to 8) (size 9 to 14) (size 15 to 20)
#    0.000    2.800    2.000    2.100    0.000    0.800 
#    0.000    0.500    0.000    5.400    0.000    0.700 
#    0.000   10.400    0.000    0.000    0.000    0.000 
#
# Total GULP energy -222970.212025 kJ/mol
# GULP energy per Si atom -5574.255301 kJ/mol
# Density = 1.924555 g / cm^3
# Si number density = 19.289455 Si / 1000 Ang^3
#
#
#
# Elastic Constant Matrix: (Units=GPa)
#
#
# Indices 1 2 3 4 5 6 
#
# 1 169.7712 79.1080 -0.0128 0.0000 0.0000 0.0000
# 2 79.1080 112.6950 -1.6190 0.0000 0.0000 0.0000
# 3 -0.0128 -1.6190 51.2218 0.0000 0.0000 0.0000
# 4 0.0000 0.0000 0.0000 4.5370 0.0000 0.0000
# 5 0.0000 0.0000 0.0000 0.0000 9.6227 0.0000
# 6 0.0000 0.0000 0.0000 0.0000 0.0000 8.3381
#
#
#
# Elastic Compliance Matrix: (Units=1/GPa)
#
#
# Indices 1 2 3 4 5 6 
#
# 1 0.008755 -0.006149 -0.000192 0.000000 0.000000 0.000000
# 2 -0.006149 0.013196 0.000416 0.000000 0.000000 0.000000
# 3 -0.000192 0.000416 0.019536 0.000000 0.000000 0.000000
# 4 0.000000 0.000000 0.000000 0.220412 0.000000 0.000000
# 5 0.000000 0.000000 0.000000 0.000000 0.103921 0.000000
# 6 0.000000 0.000000 0.000000 0.000000 0.000000 0.119931
#
#
# Mechanical properties :
#
#
# Convention : Reuss Voigt Hill
#
# Bulk Modulus (GPa) = 33.74230 54.29336 44.01783
# Shear Modulus (GPa) = 9.85259 21.58035 15.71647
#
# Velocity S-wave (km/s) = 2.26249 3.34842 2.85751
# Velocity P-wave (km/s) = 4.93515 6.56940 5.81002
#
# Compressibility (1/GPa) = 0.02963639
#
# Stress axis : x y z
#
# Youngs Moduli (GPa) = 114.21543 75.78241 51.18753
#
# Poissons Ratio (x) = 0.46597 0.00984
# Poissons Ratio (y) = 0.70228 -0.02127
# Poissons Ratio (z) = 0.02195 -0.03149
#
# Static dielectric constant tensor:
#      x y z
#    x 1.729550 0.000000 0.000000 
#    y 0.000000 1.642770 0.000000 
#    z 0.000000 0.000000 1.725880 
# 
# From -- ./inp_files/14592.got.cif
#   From: 2010.05.17/outbox.cif.g08.bks.cpg/sg71_8_cif.got.tgz:14592.got - 2010.06.03 16:22:01.
