data_PCOD9517370
_publ_section_title
;
Structure prediction by ZEFSAII (Michael W. Deem and Ramdas Pophale) SiO2 
 PCOD9517370
Probable space group: I M M M
;
_chemical_formula_sum "Si O2"
_cell_formula_units_Z 104
_cell_length_a 8.802596
_cell_length_b 25.025873
_cell_length_c 29.162860
_cell_angle_alpha 90.000000
_cell_angle_beta 90.000000
_cell_angle_gamma 90.000000
_cell_volume 6424.363698
_symmetry_space_group_name_H-M "I M M M"
_symmetry_group_IT_number 71
_symmetry_cell_setting 'orthorhombic'
loop_
_space_group_symop_operation_xyz
x,y,z
-x,-y,z
x,-y,-z
-x,y,-z
-x,-y,-z
x,y,-z
-x,y,z
x,-y,z
1/2+x,1/2+y,1/2+z
1/2-x,1/2-y,1/2+z
1/2+x,1/2-y,1/2-z
1/2-x,1/2+y,1/2-z
1/2-x,1/2-y,1/2-z
1/2+x,1/2+y,1/2-z
1/2-x,1/2+y,1/2+z
1/2+x,1/2-y,1/2+z
loop_
_atom_site_type_symbol
_atom_site_label
_atom_site_fract_x
_atom_site_fract_y
_atom_site_fract_z
Si Si1 0.816747 0.356864 0.053338
Si Si2 0.674915 0.064819 0.278416
Si Si3 0.684804 0.438572 0.500000
Si Si4 0.684713 0.736329 0.552976
Si Si5 0.681000 0.438136 0.125965
Si Si6 0.684044 0.374706 0.408354
Si Si7 0.816134 0.437795 0.676933
O O1 0.767507 0.296270 0.065828
O O2 0.749558 0.400387 0.087235
O O3 0.000000 0.358671 0.055800
O O4 0.774761 0.365993 0.000000
O O5 0.500000 0.082177 0.283950
O O6 0.767691 0.080212 0.323327
O O7 0.731946 0.080957 0.227979
O O8 0.674538 0.000000 0.276768
O O9 0.736404 0.500000 0.500000
O O10 0.500000 0.438749 0.500000
O O11 0.730655 0.407751 0.453858
O O12 0.729873 0.726580 0.500000
O O13 0.500000 0.736326 0.553112
O O14 0.733190 0.686672 0.583916
O O15 0.500000 0.437351 0.123244
O O16 0.732386 0.500000 0.120155
O O17 0.500000 0.376173 0.406035
O O18 0.750970 0.402050 0.363470
O O19 0.770012 0.500000 0.670506
O O20 0.000000 0.436684 0.676544
#
# Coordination Sequence:
#
# PCOD9517370 Si02
#       7
#    16  16   8  16  16  16  16
#     4   9  18  32  51  72  94 124 161 193 221 266
#     4   8  15  30  50  67  87 121 160 191 223 273
#     4   9  16  24  37  63  95 123 152 187 230 278
#     4   8  14  28  48  68  89 118 160 203 235 263
#     4  10  20  32  48  73 102 125 145 180 233 281
#     4  10  17  27  46  68  91 121 158 200 237 275
#     4   9  18  31  45  65  95 126 155 192 238 282
#
# _framework density 16.188372999999999
#
# number of rings (size 3 to 8) (size 9 to 14) (size 15 to 20)
#    0.000    3.000    0.769    2.769    0.000    3.077 
#    0.000    4.231    0.000    3.231    0.000    0.000 
#    0.000    0.000    0.000    0.000    0.000    0.000 
#
# Total GULP energy -289609.015696 kJ/mol
# GULP energy per Si atom -5569.404148 kJ/mol
# Density = 1.615153 g / cm^3
# Si number density = 16.188373 Si / 1000 Ang^3
#
#
#
# Elastic Constant Matrix: (Units=GPa)
#
#
# Indices 1 2 3 4 5 6 
#
# 1 12.7542 27.4802 34.5495 0.0000 0.0000 0.0000
# 2 27.4802 110.6000 93.2929 0.0000 0.0000 0.0000
# 3 34.5495 93.2929 148.9275 0.0000 0.0000 0.0000
# 4 0.0000 0.0000 0.0000 8.0123 0.0000 0.0000
# 5 0.0000 0.0000 0.0000 0.0000 26.6461 0.0000
# 6 0.0000 0.0000 0.0000 0.0000 0.0000 15.2684
#
#
#
# Elastic Compliance Matrix: (Units=1/GPa)
#
#
# Indices 1 2 3 4 5 6 
#
# 1 0.244746 -0.027391 -0.039620 0.000000 0.000000 0.000000
# 2 -0.027391 0.022238 -0.007576 0.000000 0.000000 0.000000
# 3 -0.039620 -0.007576 0.020652 0.000000 0.000000 0.000000
# 4 0.000000 0.000000 0.000000 0.124808 0.000000 0.000000
# 5 0.000000 0.000000 0.000000 0.000000 0.037529 0.000000
# 6 0.000000 0.000000 0.000000 0.000000 0.000000 0.065495
#
#
# Mechanical properties :
#
#
# Convention : Reuss Voigt Hill
#
# Bulk Modulus (GPa) = 7.22219 64.76966 35.99593
# Shear Modulus (GPa) = 7.03438 17.78264 12.40851
#
# Velocity S-wave (km/s) = 2.08681 3.31793 2.77159
# Velocity P-wave (km/s) = 3.20584 7.40102 5.70318
#
# Compressibility (1/GPa) = 0.13846213
#
# Stress axis : x y z
#
# Youngs Moduli (GPa) = 4.08587 44.96840 48.42167
#
# Poissons Ratio (x) = 1.23172 1.91845
# Poissons Ratio (y) = 0.11192 0.36685
# Poissons Ratio (z) = 0.16188 0.34069
#
# Static dielectric constant tensor:
#      x y z
#    x 1.549410 0.000000 0.000000 
#    y 0.000000 1.542130 0.000000 
#    z 0.000000 0.000000 1.533270 
# 
# From -- ./inp_files/17274.got.cif
#   From: 2010.05.17/outbox.cif.g08.bks.cpg/sg71_9_cif.got.tgz:17274.got - 2010.06.03 16:22:01.
