data_PCOD9517700
_publ_section_title
;
Structure prediction by ZEFSAII (Michael W. Deem and Ramdas Pophale) SiO2 
 PCOD9517700
Probable space group: I M M M
;
_chemical_formula_sum "Si O2"
_cell_formula_units_Z 104
_cell_length_a 23.633292
_cell_length_b 31.020971
_cell_length_c 7.901627
_cell_angle_alpha 90.000000
_cell_angle_beta 90.000000
_cell_angle_gamma 90.000000
_cell_volume 5792.901358
_symmetry_space_group_name_H-M "I M M M"
_symmetry_group_IT_number 71
_symmetry_cell_setting 'orthorhombic'
loop_
_space_group_symop_operation_xyz
x,y,z
-x,-y,z
x,-y,-z
-x,y,-z
-x,-y,-z
x,y,-z
-x,y,z
x,-y,z
1/2+x,1/2+y,1/2+z
1/2-x,1/2-y,1/2+z
1/2+x,1/2-y,1/2-z
1/2-x,1/2+y,1/2-z
1/2-x,1/2-y,1/2-z
1/2+x,1/2+y,1/2-z
1/2-x,1/2+y,1/2+z
1/2+x,1/2-y,1/2+z
loop_
_atom_site_type_symbol
_atom_site_label
_atom_site_fract_x
_atom_site_fract_y
_atom_site_fract_z
Si Si1 0.435029 0.307628 0.795617
Si Si2 0.345692 0.048806 0.298542
Si Si3 0.935698 0.620503 0.296385
Si Si4 0.000000 0.950095 0.207103
Si Si5 0.931151 0.714096 0.695651
Si Si6 0.281236 0.549294 0.703929
Si Si7 0.111047 0.101849 0.203746
O O1 0.500000 0.315278 0.736947
O O2 0.415212 0.260662 0.730130
O O3 0.397598 0.348377 0.748593
O O4 0.437052 0.304723 0.000000
O O5 0.348279 0.046514 0.500000
O O6 0.392883 0.082342 0.241634
O O7 0.282282 0.062757 0.249671
O O8 0.354276 0.000000 0.230068
O O9 0.938815 0.624815 0.500000
O O10 0.915922 0.667541 0.229047
O O11 0.000000 0.611986 0.235840
O O12 0.056229 0.925023 0.264082
O O13 0.000000 0.000000 0.259337
O O14 0.000000 0.949745 0.000000
O O15 0.911588 0.714125 0.500000
O O16 0.000000 0.714395 0.693263
O O17 0.284620 0.548244 0.500000
O O18 0.289434 0.500000 0.765139
O O19 0.331114 0.580185 0.766664
O O20 0.111137 0.098706 0.000000
#
# Coordination Sequence:
#
# PCOD9517700 Si02
#       7
#    16  16  16   8  16  16  16
#     4   9  16  27  44  66  95 128 158 188 231 286
#     4  10  21  35  50  70  98 129 156 187 232 282
#     4   9  17  31  53  78 100 123 155 192 228 269
#     4   9  16  26  41  63  93 125 153 189 242 291
#     4   7  12  25  45  68  93 123 156 188 224 272
#     4   9  18  33  51  68  87 120 167 206 234 273
#     4  10  18  28  45  69  94 120 156 203 245 281
#
# _framework density 17.953005999999998
#
# number of rings (size 3 to 8) (size 9 to 14) (size 15 to 20)
#    0.000    3.000    0.769    2.769    0.000    4.000 
#    0.000    2.308    0.000    5.538    0.000    0.000 
#    0.000    0.000    0.000    0.000    0.000    0.000 
#
# Total GULP energy -289652.567197 kJ/mol
# GULP energy per Si atom -5570.241677 kJ/mol
# Density = 1.791214 g / cm^3
# Si number density = 17.953006 Si / 1000 Ang^3
#
#
#
# Elastic Constant Matrix: (Units=GPa)
#
#
# Indices 1 2 3 4 5 6 
#
# 1 117.7456 105.6230 8.5554 0.0000 0.0000 0.0000
# 2 105.6230 165.8957 7.7837 0.0000 0.0000 0.0000
# 3 8.5554 7.7837 18.2139 0.0000 0.0000 0.0000
# 4 0.0000 0.0000 0.0000 32.5639 0.0000 0.0000
# 5 0.0000 0.0000 0.0000 0.0000 5.6138 0.0000
# 6 0.0000 0.0000 0.0000 0.0000 0.0000 17.2092
#
#
#
# Elastic Compliance Matrix: (Units=1/GPa)
#
#
# Indices 1 2 3 4 5 6 
#
# 1 0.020092 -0.012602 -0.004052 0.000000 0.000000 0.000000
# 2 -0.012602 0.014055 -0.000087 0.000000 0.000000 0.000000
# 3 -0.004052 -0.000087 0.056844 0.000000 0.000000 0.000000
# 4 0.000000 0.000000 0.000000 0.030709 0.000000 0.000000
# 5 0.000000 0.000000 0.000000 0.000000 0.178132 0.000000
# 6 0.000000 0.000000 0.000000 0.000000 0.000000 0.058108
#
#
# Mechanical properties :
#
#
# Convention : Reuss Voigt Hill
#
# Bulk Modulus (GPa) = 17.38877 60.64217 39.01547
# Shear Modulus (GPa) = 12.17753 23.07026 17.62390
#
# Velocity S-wave (km/s) = 2.60725 3.58863 3.13656
# Velocity P-wave (km/s) = 4.33248 7.14301 5.90733
#
# Compressibility (1/GPa) = 0.05750837
#
# Stress axis : x y z
#
# Youngs Moduli (GPa) = 49.77129 71.14658 17.59214
#
# Poissons Ratio (x) = 0.89659 0.07128
# Poissons Ratio (y) = 0.62722 0.00153
# Poissons Ratio (z) = 0.20168 0.00620
#
# Static dielectric constant tensor:
#      x y z
#    x 1.585340 0.000000 0.000000 
#    y 0.000000 1.656970 0.000000 
#    z 0.000000 0.000000 1.660890 
# 
# From -- ./inp_files/11521.got.cif
#   From: 2010.05.17/outbox.cif.g08.bks.cpg/sg71_6_cif.got.tgz:11521.got - 2010.06.03 16:22:01.
