data_PCOD9517889
_publ_section_title
;
Structure prediction by ZEFSAII (Michael W. Deem and Ramdas Pophale) SiO2 
 PCOD9517889
Probable space group: I M M M
;
_chemical_formula_sum "Si O2"
_cell_formula_units_Z 112
_cell_length_a 14.367541
_cell_length_b 17.584123
_cell_length_c 27.309997
_cell_angle_alpha 90.000000
_cell_angle_beta 90.000000
_cell_angle_gamma 90.000000
_cell_volume 6899.614251
_symmetry_space_group_name_H-M "I M M M"
_symmetry_group_IT_number 71
_symmetry_cell_setting 'orthorhombic'
loop_
_space_group_symop_operation_xyz
x,y,z
-x,-y,z
x,-y,-z
-x,y,-z
-x,-y,-z
x,y,-z
-x,y,z
x,-y,z
1/2+x,1/2+y,1/2+z
1/2-x,1/2-y,1/2+z
1/2+x,1/2-y,1/2-z
1/2-x,1/2+y,1/2-z
1/2-x,1/2-y,1/2-z
1/2+x,1/2+y,1/2-z
1/2-x,1/2+y,1/2+z
1/2+x,1/2-y,1/2+z
loop_
_atom_site_type_symbol
_atom_site_label
_atom_site_fract_x
_atom_site_fract_y
_atom_site_fract_z
Si Si1 0.110240 0.908714 0.443496
Si Si2 0.730674 0.673484 0.139939
Si Si3 0.107268 0.223954 0.886651
Si Si4 0.107077 0.281172 0.704151
Si Si5 0.898881 0.857153 0.781688
Si Si6 0.610253 0.580946 0.441684
Si Si7 0.283878 0.913459 0.260202
O O1 0.134693 0.887494 0.500000
O O2 0.169266 0.868187 0.401155
O O3 0.000000 0.892651 0.436854
O O4 0.121935 0.000000 0.439483
O O5 0.825814 0.704747 0.117028
O O6 0.673110 0.745690 0.162143
O O7 0.758801 0.620128 0.186043
O O8 0.106553 0.180888 0.834624
O O9 0.148222 0.159863 0.922455
O O10 0.000000 0.243442 0.899081
O O11 0.106582 0.213725 0.744343
O O12 0.149032 0.355039 0.731185
O O13 0.000000 0.293416 0.688433
O O14 0.812997 0.910212 0.769585
O O15 0.000000 0.894320 0.775927
O O16 0.616171 0.579874 0.500000
O O17 0.500000 0.582031 0.428668
O O18 0.648510 0.500000 0.422816
O O19 0.318347 0.000000 0.263205
#
# Coordination Sequence:
#
# PCOD9517889 Si02
#       7
#    16  16  16  16  16  16  16
#     4   9  19  36  57  81 106 130 162 211 268 313
#     4  11  19  34  52  77  99 133 171 213 250 302
#     4  10  18  29  49  71  98 132 166 201 244 298
#     4  10  19  34  51  68  95 133 171 209 250 294
#     4   9  17  32  49  67  94 125 157 198 245 291
#     4   8  15  28  44  64  91 121 154 194 240 287
#     4  11  21  32  47  71  99 130 167 206 250 301
#
# _framework density 16.232792
#
# number of rings (size 3 to 8) (size 9 to 14) (size 15 to 20)
#    0.000    2.286    2.857    2.571    0.000    2.286 
#    0.000    1.429    0.000    1.286    0.000    1.000 
#    0.000    0.000    0.000    7.571    0.000    0.286 
#
# Total GULP energy -311821.405912 kJ/mol
# GULP energy per Si atom -5568.239391 kJ/mol
# Density = 1.619585 g / cm^3
# Si number density = 16.232792 Si / 1000 Ang^3
#
#
#
# Elastic Constant Matrix: (Units=GPa)
#
#
# Indices 1 2 3 4 5 6 
#
# 1 71.8734 38.4383 25.3316 0.0000 0.0000 0.0000
# 2 38.4383 76.4966 28.0450 0.0000 0.0000 0.0000
# 3 25.3316 28.0450 48.3268 0.0000 0.0000 0.0000
# 4 0.0000 0.0000 0.0000 17.4108 0.0000 0.0000
# 5 0.0000 0.0000 0.0000 0.0000 19.7693 0.0000
# 6 0.0000 0.0000 0.0000 0.0000 0.0000 16.3726
#
#
#
# Elastic Compliance Matrix: (Units=1/GPa)
#
#
# Indices 1 2 3 4 5 6 
#
# 1 0.020309 -0.008005 -0.006000 0.000000 0.000000 0.000000
# 2 -0.008005 0.019761 -0.007271 0.000000 0.000000 0.000000
# 3 -0.006000 -0.007271 0.028057 0.000000 0.000000 0.000000
# 4 0.000000 0.000000 0.000000 0.057436 0.000000 0.000000
# 5 0.000000 0.000000 0.000000 0.000000 0.050583 0.000000
# 6 0.000000 0.000000 0.000000 0.000000 0.000000 0.061078
#
#
# Mechanical properties :
#
#
# Convention : Reuss Voigt Hill
#
# Bulk Modulus (GPa) = 39.10230 42.25850 40.68040
# Shear Modulus (GPa) = 17.34291 17.70267 17.52279
#
# Velocity S-wave (km/s) = 3.27217 3.30593 3.28909
# Velocity P-wave (km/s) = 6.19813 6.37664 6.28802
#
# Compressibility (1/GPa) = 0.02557394
#
# Stress axis : x y z
#
# Youngs Moduli (GPa) = 49.23832 50.60495 35.64157
#
# Poissons Ratio (x) = 0.40512 0.21385
# Poissons Ratio (y) = 0.39418 0.25916
# Poissons Ratio (z) = 0.29542 0.36797
#
# Static dielectric constant tensor:
#      x y z
#    x 1.564050 0.000000 0.000000 
#    y 0.000000 1.791200 0.000000 
#    z 0.000000 0.000000 1.554710 
# 
# From -- ./inp_files/41102.got.cif
#   From: 2010.05.17/outbox.cif.g08.bks.cpg/sg71_21_cif.got.tgz:41102.got - 2010.06.03 16:22:01.
