data_PCOD9517579
_publ_section_title
;
Structure prediction by ZEFSAII (Michael W. Deem and Ramdas Pophale) SiO2 
 PCOD9517579
Probable space group: I M M M
;
_chemical_formula_sum "Si O2"
_cell_formula_units_Z 80
_cell_length_a 7.494408
_cell_length_b 40.573240
_cell_length_c 15.009308
_cell_angle_alpha 90.000000
_cell_angle_beta 90.000000
_cell_angle_gamma 90.000000
_cell_volume 4563.916523
_symmetry_space_group_name_H-M "I M M M"
_symmetry_group_IT_number 71
_symmetry_cell_setting 'orthorhombic'
loop_
_space_group_symop_operation_xyz
x,y,z
-x,-y,z
x,-y,-z
-x,y,-z
-x,-y,-z
x,y,-z
-x,y,z
x,-y,z
1/2+x,1/2+y,1/2+z
1/2-x,1/2-y,1/2+z
1/2+x,1/2-y,1/2-z
1/2-x,1/2+y,1/2-z
1/2-x,1/2-y,1/2-z
1/2+x,1/2+y,1/2-z
1/2-x,1/2+y,1/2+z
1/2+x,1/2-y,1/2+z
loop_
_atom_site_type_symbol
_atom_site_label
_atom_site_fract_x
_atom_site_fract_y
_atom_site_fract_z
Si Si1 0.289481 0.891806 0.398279
Si Si2 0.781776 0.700064 0.601516
Si Si3 0.715583 0.275199 0.897219
Si Si4 0.293883 0.164544 0.728193
Si Si5 0.714783 0.535438 0.103973
O O1 0.215760 0.890353 0.500000
O O2 0.500000 0.884865 0.406406
O O3 0.212803 0.864677 0.331192
O O4 0.271707 0.928980 0.361387
O O5 0.727984 0.692905 0.500000
O O6 0.728237 0.737729 0.623525
O O7 0.716403 0.674949 0.676448
O O8 0.000000 0.700080 0.603007
O O9 0.500000 0.276410 0.892229
O O10 0.789351 0.302520 0.831554
O O11 0.765556 0.282180 0.000000
O O12 0.500000 0.155344 0.745155
O O13 0.500000 0.535313 0.105545
O O14 0.774916 0.500000 0.142334
O O15 0.771286 0.535544 0.000000
#
# Coordination Sequence:
#
# PCOD9517579 Si02
#       5
#    16  16  16  16  16
#     4   9  17  26  35  53  81 106 126 150 184 226
#     4   8  15  28  43  57  74  99 133 170 204 237
#     4   9  17  28  41  57  77 102 132 164 199 239
#     4  10  18  27  41  59  79 103 131 164 199 234
#     4   8  14  25  40  56  74  99 130 156 176 208
#
# _framework density 17.528804000000001
#
# number of rings (size 3 to 8) (size 9 to 14) (size 15 to 20)
#    0.000    3.200    0.000    3.000    0.000    2.400 
#    0.000    4.000    0.000    1.800    0.000    0.000 
#    0.000    0.800    0.000   10.000    0.000    2.000 
#
# Total GULP energy -222839.765361 kJ/mol
# GULP energy per Si atom -5570.994134 kJ/mol
# Density = 1.748891 g / cm^3
# Si number density = 17.528804 Si / 1000 Ang^3
#
#
#
# Elastic Constant Matrix: (Units=GPa)
#
#
# Indices 1 2 3 4 5 6 
#
# 1 44.6865 0.0896 -0.6521 0.0000 0.0000 0.0000
# 2 0.0896 132.1323 82.4925 0.0000 0.0000 0.0000
# 3 -0.6521 82.4925 75.9351 0.0000 0.0000 0.0000
# 4 0.0000 0.0000 0.0000 13.6223 0.0000 0.0000
# 5 0.0000 0.0000 0.0000 0.0000 3.0505 0.0000
# 6 0.0000 0.0000 0.0000 0.0000 0.0000 11.5136
#
#
#
# Elastic Compliance Matrix: (Units=1/GPa)
#
#
# Indices 1 2 3 4 5 6 
#
# 1 0.022388 -0.000420 0.000649 0.000000 0.000000 0.000000
# 2 -0.000420 0.023528 -0.025564 0.000000 0.000000 0.000000
# 3 0.000649 -0.025564 0.040946 0.000000 0.000000 0.000000
# 4 0.000000 0.000000 0.000000 0.073409 0.000000 0.000000
# 5 0.000000 0.000000 0.000000 0.000000 0.327816 0.000000
# 6 0.000000 0.000000 0.000000 0.000000 0.000000 0.086854
#
#
# Mechanical properties :
#
#
# Convention : Reuss Voigt Hill
#
# Bulk Modulus (GPa) = 27.63006 46.29042 36.96024
# Shear Modulus (GPa) = 7.84096 17.02553 12.43325
#
# Velocity S-wave (km/s) = 2.11729 3.11993 2.66616
# Velocity P-wave (km/s) = 4.66627 6.28046 5.53255
#
# Compressibility (1/GPa) = 0.03619246
#
# Stress axis : x y z
#
# Youngs Moduli (GPa) = 44.66588 42.50181 24.42233
#
# Poissons Ratio (x) = 0.01786 -0.01585
# Poissons Ratio (y) = 0.01877 0.62433
# Poissons Ratio (z) = -0.02898 1.08651
#
# Static dielectric constant tensor:
#      x y z
#    x 1.651630 0.000000 0.000000 
#    y 0.000000 1.622500 0.000000 
#    z 0.000000 0.000000 1.597440 
# 
# From -- ./inp_files/22425.got.cif
#   From: 2010.05.17/outbox.cif.g08.bks.cpg/sg71_12_cif.got.tgz:22425.got - 2010.06.03 16:22:01.
