data_PCOD9517780
_publ_section_title
;
Structure prediction by ZEFSAII (Michael W. Deem and Ramdas Pophale) SiO2 
 PCOD9517780
Probable space group: I M M M
;
_chemical_formula_sum "Si O2"
_cell_formula_units_Z 72
_cell_length_a 8.668951
_cell_length_b 34.525652
_cell_length_c 14.803422
_cell_angle_alpha 90.000000
_cell_angle_beta 90.000000
_cell_angle_gamma 90.000000
_cell_volume 4430.681753
_symmetry_space_group_name_H-M "I M M M"
_symmetry_group_IT_number 71
_symmetry_cell_setting 'orthorhombic'
loop_
_space_group_symop_operation_xyz
x,y,z
-x,-y,z
x,-y,-z
-x,y,-z
-x,-y,-z
x,y,-z
-x,y,z
x,-y,z
1/2+x,1/2+y,1/2+z
1/2-x,1/2-y,1/2+z
1/2+x,1/2-y,1/2-z
1/2-x,1/2+y,1/2-z
1/2-x,1/2-y,1/2-z
1/2+x,1/2+y,1/2-z
1/2-x,1/2+y,1/2+z
1/2+x,1/2-y,1/2+z
loop_
_atom_site_type_symbol
_atom_site_label
_atom_site_fract_x
_atom_site_fract_y
_atom_site_fract_z
Si Si1 0.684647 0.315445 0.598334
Si Si2 0.314441 0.841145 0.291001
Si Si3 0.179057 0.000000 0.390660
Si Si4 0.184695 0.763177 0.653195
Si Si5 0.185636 0.418218 0.895423
O O1 0.719785 0.333774 0.500000
O O2 0.500000 0.314248 0.609631
O O3 0.755536 0.334915 0.688175
O O4 0.748121 0.271506 0.594326
O O5 0.500000 0.837991 0.290692
O O6 0.247227 0.806731 0.354038
O O7 0.267329 0.882252 0.333122
O O8 0.255463 0.040235 0.361303
O O9 0.193321 0.000000 0.500000
O O10 0.000000 0.000000 0.366862
O O11 0.250000 0.750000 0.750000
O O12 0.000000 0.763050 0.650603
O O13 0.000000 0.419153 0.896691
O O14 0.237534 0.412706 0.000000
#
# Coordination Sequence:
#
# PCOD9517780 Si02
#       5
#    16  16   8  16  16
#     4  10  20  33  48  65  89 124 162 199 239 279
#     4  10  19  31  48  70  95 123 157 195 232 273
#     4   9  17  29  47  71  96 121 150 185 223 266
#     4  10  18  29  45  63  87 118 152 192 234 273
#     4   9  18  32  49  69  95 126 154 181 221 275
#
# _framework density 16.250321
#
# number of rings (size 3 to 8) (size 9 to 14) (size 15 to 20)
#    0.000    2.333    0.000    6.333    0.000    5.778 
#    0.000    2.222    0.000    0.000    0.000    0.778 
#    0.000    6.222    0.000    0.000    0.000    0.000 
#
# Total GULP energy -200494.863654 kJ/mol
# GULP energy per Si atom -5569.301768 kJ/mol
# Density = 1.621333 g / cm^3
# Si number density = 16.250321 Si / 1000 Ang^3
#
#
#
# Elastic Constant Matrix: (Units=GPa)
#
#
# Indices 1 2 3 4 5 6 
#
# 1 61.4291 36.8034 21.6600 0.0000 0.0000 0.0000
# 2 36.8034 147.6046 52.0799 -0.0001 0.0000 0.0000
# 3 21.6600 52.0799 80.0363 -0.0001 0.0000 0.0000
# 4 0.0000 -0.0001 -0.0001 23.2949 0.0000 0.0000
# 5 0.0000 0.0000 0.0000 0.0000 13.6626 0.0000
# 6 0.0000 0.0000 0.0000 0.0000 0.0000 24.7848
#
#
#
# Elastic Compliance Matrix: (Units=1/GPa)
#
#
# Indices 1 2 3 4 5 6 
#
# 1 0.019595 -0.003913 -0.002757 0.000000 0.000000 0.000000
# 2 -0.003913 0.009575 -0.005172 0.000000 0.000000 0.000000
# 3 -0.002757 -0.005172 0.016606 0.000000 0.000000 0.000000
# 4 0.000000 0.000000 0.000000 0.042928 0.000000 0.000000
# 5 0.000000 0.000000 0.000000 0.000000 0.073192 0.000000
# 6 0.000000 0.000000 0.000000 0.000000 0.000000 0.040347
#
#
# Mechanical properties :
#
#
# Convention : Reuss Voigt Hill
#
# Bulk Modulus (GPa) = 45.26293 56.68408 50.97350
# Shear Modulus (GPa) = 21.43241 24.25024 22.84132
#
# Velocity S-wave (km/s) = 3.63559 3.86721 3.75319
# Velocity P-wave (km/s) = 6.74814 7.40932 7.08644
#
# Compressibility (1/GPa) = 0.02209314
#
# Stress axis : x y z
#
# Youngs Moduli (GPa) = 51.03228 104.43531 60.22069
#
# Poissons Ratio (x) = 0.40868 0.16601
# Poissons Ratio (y) = 0.19970 0.31144
# Poissons Ratio (z) = 0.14068 0.54010
#
# Static dielectric constant tensor:
#      x y z
#    x 1.544600 0.000000 0.000000 
#    y 0.000000 1.556390 0.000000 
#    z 0.000000 0.000000 1.562140 
# 
# From -- ./inp_files/16367.got.cif
#   From: 2010.05.17/outbox.cif.g08.bks.cpg/sg71_9_cif.got.tgz:16367.got - 2010.06.03 16:22:01.
