data_PCOD9517756
_publ_section_title
;
Structure prediction by ZEFSAII (Michael W. Deem and Ramdas Pophale) SiO2 
 PCOD9517756
Probable space group: I M M M
;
_chemical_formula_sum "Si O2"
_cell_formula_units_Z 80
_cell_length_a 26.980577
_cell_length_b 24.406815
_cell_length_c 8.950244
_cell_angle_alpha 90.000000
_cell_angle_beta 90.000000
_cell_angle_gamma 90.000000
_cell_volume 5893.824742
_symmetry_space_group_name_H-M "I M M M"
_symmetry_group_IT_number 71
_symmetry_cell_setting 'orthorhombic'
loop_
_space_group_symop_operation_xyz
x,y,z
-x,-y,z
x,-y,-z
-x,y,-z
-x,-y,-z
x,y,-z
-x,y,z
x,-y,z
1/2+x,1/2+y,1/2+z
1/2-x,1/2-y,1/2+z
1/2+x,1/2-y,1/2-z
1/2-x,1/2+y,1/2-z
1/2-x,1/2-y,1/2-z
1/2+x,1/2+y,1/2-z
1/2-x,1/2+y,1/2+z
1/2+x,1/2-y,1/2+z
loop_
_atom_site_type_symbol
_atom_site_label
_atom_site_fract_x
_atom_site_fract_y
_atom_site_fract_z
Si Si1 0.244717 0.619832 0.179346
Si Si2 0.943349 0.384654 0.680234
Si Si3 0.394703 0.000000 0.819644
Si Si4 0.295318 0.284088 0.678841
Si Si5 0.285526 0.000000 0.319910
Si Si6 0.857174 0.683906 0.821159
O O1 0.287575 0.655458 0.256376
O O2 0.242115 0.556161 0.221429
O O3 0.191180 0.646894 0.219043
O O4 0.249669 0.624740 0.000000
O O5 0.942431 0.382777 0.500000
O O6 0.923652 0.444934 0.725163
O O7 0.905215 0.340276 0.743155
O O8 0.000000 0.376698 0.729494
O O9 0.340037 0.000000 0.750885
O O10 0.390893 0.000000 0.000000
O O11 0.290395 0.284693 0.500000
O O12 0.250000 0.250000 0.750000
O O13 0.343016 0.246799 0.716014
O O14 0.291201 0.000000 0.500000
O O15 0.862757 0.679820 0.000000
#
# Coordination Sequence:
#
# PCOD9517756 Si02
#       6
#    16  16   8  16   8  16
#     4   9  17  28  42  60  81 105 133 165 202 242
#     4  10  20  31  42  57  78 105 138 177 215 246
#     4  10  19  30  42  56  76 106 142 177 211 245
#     4   9  17  28  42  59  79 101 129 165 203 245
#     4  10  18  29  43  59  84 110 135 171 206 239
#     4   9  17  29  43  58  76 101 133 169 206 243
#
# _framework density 13.573529000000001
#
# number of rings (size 3 to 8) (size 9 to 14) (size 15 to 20)
#    0.000    2.600    2.000    2.100    0.000    6.400 
#    0.000    0.000    0.000    1.800    0.000    0.000 
#    0.000    0.000    0.000    0.900    0.000   17.600 
#
# Total GULP energy -222768.139849 kJ/mol
# GULP energy per Si atom -5569.203496 kJ/mol
# Density = 1.354264 g / cm^3
# Si number density = 13.573529 Si / 1000 Ang^3
#
#
#
# Elastic Constant Matrix: (Units=GPa)
#
#
# Indices 1 2 3 4 5 6 
#
# 1 72.2228 68.0164 26.2529 0.0000 0.0000 0.0000
# 2 68.0164 124.0493 35.1219 0.0000 0.0000 0.0000
# 3 26.2529 35.1219 16.8839 0.0000 0.0000 0.0000
# 4 0.0000 0.0000 0.0000 20.5886 0.0000 0.0000
# 5 0.0000 0.0000 0.0000 0.0000 19.6412 0.0000
# 6 0.0000 0.0000 0.0000 0.0000 0.0000 13.9129
#
#
#
# Elastic Compliance Matrix: (Units=1/GPa)
#
#
# Indices 1 2 3 4 5 6 
#
# 1 0.035871 -0.009431 -0.036159 0.000000 0.000000 0.000000
# 2 -0.009431 0.022091 -0.031291 0.000000 0.000000 0.000000
# 3 -0.036159 -0.031291 0.180541 0.000000 0.000000 0.000000
# 4 0.000000 0.000000 0.000000 0.048571 0.000000 0.000000
# 5 0.000000 0.000000 0.000000 0.000000 0.050913 0.000000
# 6 0.000000 0.000000 0.000000 0.000000 0.000000 0.071876
#
#
# Mechanical properties :
#
#
# Convention : Reuss Voigt Hill
#
# Bulk Modulus (GPa) = 11.80020 52.43759 32.11890
# Shear Modulus (GPa) = 8.44778 16.41287 12.43033
#
# Velocity S-wave (km/s) = 2.49744 3.48110 3.02946
# Velocity P-wave (km/s) = 4.12659 7.40767 5.99593
#
# Compressibility (1/GPa) = 0.08474431
#
# Stress axis : x y z
#
# Youngs Moduli (GPa) = 27.87762 45.26647 5.53889
#
# Poissons Ratio (x) = 0.42689 0.20028
# Poissons Ratio (y) = 0.26290 0.17332
# Poissons Ratio (z) = 1.00801 1.41642
#
# Static dielectric constant tensor:
#      x y z
#    x 1.416690 0.000000 0.000000 
#    y 0.000000 1.475910 0.000000 
#    z 0.000000 0.000000 1.455530 
# 
# From -- ./inp_files/8451.got.cif
#   From: 2010.05.17/outbox.cif.g08.bks.cpg/sg71_5_cif.got.tgz:8451.got - 2010.06.03 16:22:01.
