data_PCOD9517590
_publ_section_title
;
Structure prediction by ZEFSAII (Michael W. Deem and Ramdas Pophale) SiO2 
 PCOD9517590
Probable space group: I M M M
;
_chemical_formula_sum "Si O2"
_cell_formula_units_Z 80
_cell_length_a 7.675184
_cell_length_b 14.860536
_cell_length_c 40.919742
_cell_angle_alpha 90.000000
_cell_angle_beta 90.000000
_cell_angle_gamma 90.000000
_cell_volume 4667.197259
_symmetry_space_group_name_H-M "I M M M"
_symmetry_group_IT_number 71
_symmetry_cell_setting 'orthorhombic'
loop_
_space_group_symop_operation_xyz
x,y,z
-x,-y,z
x,-y,-z
-x,y,-z
-x,-y,-z
x,y,-z
-x,y,z
x,-y,z
1/2+x,1/2+y,1/2+z
1/2-x,1/2-y,1/2+z
1/2+x,1/2-y,1/2-z
1/2-x,1/2+y,1/2-z
1/2-x,1/2-y,1/2-z
1/2+x,1/2+y,1/2-z
1/2-x,1/2+y,1/2+z
1/2+x,1/2-y,1/2+z
loop_
_atom_site_type_symbol
_atom_site_label
_atom_site_fract_x
_atom_site_fract_y
_atom_site_fract_z
Si Si1 0.290420 0.104747 0.035161
Si Si2 0.707905 0.603020 0.393383
Si Si3 0.709602 0.398384 0.803732
Si Si4 0.787998 0.104417 0.230272
Si Si5 0.208395 0.785064 0.831789
O O1 0.500000 0.104820 0.034674
O O2 0.237821 0.142043 0.070320
O O3 0.232248 0.000000 0.035670
O O4 0.230897 0.143161 0.000000
O O5 0.500000 0.596419 0.389407
O O6 0.777598 0.500000 0.391728
O O7 0.776155 0.665020 0.364102
O O8 0.500000 0.401586 0.802295
O O9 0.770589 0.500000 0.810986
O O10 0.772387 0.373183 0.767001
O O11 0.758240 0.320682 0.828752
O O12 0.722827 0.167222 0.201197
O O13 0.000000 0.109383 0.230625
O O14 0.743666 0.000000 0.223832
O O15 0.000000 0.797329 0.831593
#
# Coordination Sequence:
#
# PCOD9517590 Si02
#       5
#    16  16  16  16  16
#     4   8  14  25  40  57  79 109 141 167 191 223
#     4   9  17  27  39  59  86 112 137 164 196 237
#     4   9  18  31  44  57  75 103 139 175 210 247
#     4   8  14  26  43  60  79 105 135 166 203 247
#     4  10  18  27  42  62  82 105 134 169 207 243
#
# _framework density 17.140908
#
# number of rings (size 3 to 8) (size 9 to 14) (size 15 to 20)
#    0.000    3.200    0.000    3.000    0.000    4.000 
#    0.000    2.000    0.000    3.000    0.000    0.000 
#    0.000    0.800    0.000    8.800    0.000    6.800 
#
# Total GULP energy -222777.358224 kJ/mol
# GULP energy per Si atom -5569.433956 kJ/mol
# Density = 1.710189 g / cm^3
# Si number density = 17.140908 Si / 1000 Ang^3
#
#
#
# Elastic Constant Matrix: (Units=GPa)
#
#
# Indices 1 2 3 4 5 6 
#
# 1 28.3103 0.8101 6.3653 0.0000 0.0000 0.0000
# 2 0.8101 73.8238 79.2348 0.0000 0.0000 0.0000
# 3 6.3653 79.2348 133.5459 0.0000 0.0000 0.0000
# 4 0.0000 0.0000 0.0000 15.0805 0.0000 0.0000
# 5 0.0000 0.0000 0.0000 0.0000 6.4121 0.0000
# 6 0.0000 0.0000 0.0000 0.0000 0.0000 12.5615
#
#
#
# Elastic Compliance Matrix: (Units=1/GPa)
#
#
# Indices 1 2 3 4 5 6 
#
# 1 0.036129 0.003997 -0.004094 0.000000 0.000000 0.000000
# 2 0.003997 0.037738 -0.022581 0.000000 0.000000 0.000000
# 3 -0.004094 -0.022581 0.021081 0.000000 0.000000 0.000000
# 4 0.000000 0.000000 0.000000 0.066311 0.000000 0.000000
# 5 0.000000 0.000000 0.000000 0.000000 0.155955 0.000000
# 6 0.000000 0.000000 0.000000 0.000000 0.000000 0.079608
#
#
# Mechanical properties :
#
#
# Convention : Reuss Voigt Hill
#
# Bulk Modulus (GPa) = 20.16423 45.38896 32.77659
# Shear Modulus (GPa) = 10.90017 16.76214 13.83116
#
# Velocity S-wave (km/s) = 2.52447 3.13054 2.84370
# Velocity P-wave (km/s) = 4.50407 6.29320 5.47225
#
# Compressibility (1/GPa) = 0.04959278
#
# Stress axis : x y z
#
# Youngs Moduli (GPa) = 27.67872 26.49837 47.43623
#
# Poissons Ratio (x) = -0.10592 0.19419
# Poissons Ratio (y) = -0.11064 1.07117
# Poissons Ratio (z) = 0.11331 0.59836
#
# Static dielectric constant tensor:
#      x y z
#    x 1.643900 0.000000 0.000000 
#    y 0.000000 1.567150 0.000000 
#    z 0.000000 0.000000 1.618470 
# 
# From -- ./inp_files/20112.got.cif
#   From: 2010.05.17/outbox.cif.g08.bks.cpg/sg71_11_cif.got.tgz:20112.got - 2010.06.03 16:22:01.
