data_PCOD9517696
_publ_section_title
;
Structure prediction by ZEFSAII (Michael W. Deem and Ramdas Pophale) SiO2 
 PCOD9517696
Probable space group: I M M M
;
_chemical_formula_sum "Si O2"
_cell_formula_units_Z 104
_cell_length_a 31.073733
_cell_length_b 23.529410
_cell_length_c 7.785921
_cell_angle_alpha 90.000000
_cell_angle_beta 90.000000
_cell_angle_gamma 90.000000
_cell_volume 5692.649698
_symmetry_space_group_name_H-M "I M M M"
_symmetry_group_IT_number 71
_symmetry_cell_setting 'orthorhombic'
loop_
_space_group_symop_operation_xyz
x,y,z
-x,-y,z
x,-y,-z
-x,y,-z
-x,-y,-z
x,y,-z
-x,y,z
x,-y,z
1/2+x,1/2+y,1/2+z
1/2-x,1/2-y,1/2+z
1/2+x,1/2-y,1/2-z
1/2-x,1/2+y,1/2-z
1/2-x,1/2-y,1/2-z
1/2+x,1/2+y,1/2-z
1/2-x,1/2+y,1/2+z
1/2+x,1/2-y,1/2+z
loop_
_atom_site_type_symbol
_atom_site_label
_atom_site_fract_x
_atom_site_fract_y
_atom_site_fract_z
Si Si1 0.950692 0.220109 0.707345
Si Si2 0.620332 0.935191 0.704616
Si Si3 0.214146 0.433135 0.293958
Si Si4 0.950151 0.000000 0.710409
Si Si5 0.692074 0.434280 0.292904
Si Si6 0.548864 0.848656 0.706210
Si Si7 0.399055 0.388413 0.205735
O O1 0.951208 0.218047 0.500000
O O2 0.937898 0.283825 0.757356
O O3 0.919798 0.170014 0.771132
O O4 0.000000 0.210756 0.766561
O O5 0.614315 0.939276 0.500000
O O6 0.668348 0.910649 0.731835
O O7 0.583212 0.894102 0.773793
O O8 0.618400 0.000000 0.774457
O O9 0.213417 0.429349 0.500000
O O10 0.214196 0.500000 0.246461
O O11 0.260997 0.412039 0.233867
O O12 0.925276 0.056428 0.769613
O O13 0.949436 0.000000 0.500000
O O14 0.000000 0.000000 0.762032
O O15 0.693488 0.436496 0.500000
O O16 0.686229 0.500000 0.232923
O O17 0.651046 0.397736 0.242485
O O18 0.547120 0.854890 0.500000
O O19 0.500000 0.856600 0.772484
O O20 0.404195 0.388129 0.000000
#
# Coordination Sequence:
#
# PCOD9517696 Si02
#       7
#    16  16  16   8  16  16  16
#     4   9  18  32  48  66  89 120 159 196 227 264
#     4   9  17  29  47  73  99 120 146 183 225 266
#     4   8  15  28  45  65  91 124 154 180 220 275
#     4   9  16  26  41  63  91 119 147 185 234 279
#     4   9  17  29  44  64  93 124 152 186 231 279
#     4   9  18  32  49  69  94 124 154 182 219 270
#     4  10  18  28  45  68  90 117 155 196 234 272
#
# _framework density 18.269172999999999
#
# number of rings (size 3 to 8) (size 9 to 14) (size 15 to 20)
#    0.000    3.000    0.769    1.385    0.000    4.000 
#    0.000    3.077    0.000    2.769    0.000    4.308 
#    0.000    0.000    0.000    0.000    0.000    0.000 
#
# Total GULP energy -289678.509599 kJ/mol
# GULP energy per Si atom -5570.740569 kJ/mol
# Density = 1.822759 g / cm^3
# Si number density = 18.269173 Si / 1000 Ang^3
#
#
#
# Elastic Constant Matrix: (Units=GPa)
#
#
# Indices 1 2 3 4 5 6 
#
# 1 167.9655 102.6061 4.9662 0.0000 0.0000 0.0000
# 2 102.6061 100.1560 1.6694 0.0000 0.0000 0.0000
# 3 4.9662 1.6694 16.4157 0.0000 0.0000 0.0000
# 4 0.0000 0.0000 0.0000 16.2895 0.0000 0.0000
# 5 0.0000 0.0000 0.0000 0.0000 -5.8021 0.0000
# 6 0.0000 0.0000 0.0000 0.0000 0.0000 18.9401
#
#
#
# Elastic Compliance Matrix: (Units=1/GPa)
#
#
# Indices 1 2 3 4 5 6 
#
# 1 0.016077 -0.016417 -0.003194 0.000000 0.000000 0.000000
# 2 -0.016417 0.026765 0.002245 0.000000 0.000000 0.000000
# 3 -0.003194 0.002245 0.061655 0.000000 0.000000 0.000000
# 4 0.000000 0.000000 0.000000 0.061389 0.000000 0.000000
# 5 0.000000 0.000000 0.000000 0.000000 -0.172353 0.000000
# 6 0.000000 0.000000 0.000000 0.000000 0.000000 0.052798
#
#
# Mechanical properties :
#
#
# Convention : Reuss Voigt Hill
#
# Bulk Modulus (GPa) = 14.33387 55.89119 35.11253
# Shear Modulus (GPa) = 47.92998 17.57188 32.75093
#
# Velocity S-wave (km/s) = 5.12761 3.10471 4.23861
# Velocity P-wave (km/s) = 6.55130 6.59635 6.57386
#
# Compressibility (1/GPa) = 0.06976484
#
# Stress axis : x y z
#
# Youngs Moduli (GPa) = 62.20246 37.36199 16.21919
#
# Poissons Ratio (x) = 0.61336 0.05181
# Poissons Ratio (y) = 1.02115 -0.03641
# Poissons Ratio (z) = 0.19868 -0.08386
#
# Static dielectric constant tensor:
#      x y z
#    x 1.654580 0.000000 0.000000 
#    y 0.000000 1.608610 0.000000 
#    z 0.000000 0.000000 1.678210 
# 
# From -- ./inp_files/17261.got.cif
#   From: 2010.05.17/outbox.cif.g08.bks.cpg/sg71_9_cif.got.tgz:17261.got - 2010.06.03 16:22:01.
