data_PCOD9517869
_publ_section_title
;
Structure prediction by ZEFSAII (Michael W. Deem and Ramdas Pophale) SiO2 
 PCOD9517869
Probable space group: I M M M
;
_chemical_formula_sum "Si O2"
_cell_formula_units_Z 80
_cell_length_a 33.625626
_cell_length_b 15.414369
_cell_length_c 7.312580
_cell_angle_alpha 90.000000
_cell_angle_beta 90.000000
_cell_angle_gamma 90.000000
_cell_volume 3790.240429
_symmetry_space_group_name_H-M "I M M M"
_symmetry_group_IT_number 71
_symmetry_cell_setting 'orthorhombic'
loop_
_space_group_symop_operation_xyz
x,y,z
-x,-y,z
x,-y,-z
-x,y,-z
-x,-y,-z
x,y,-z
-x,y,z
x,-y,z
1/2+x,1/2+y,1/2+z
1/2-x,1/2-y,1/2+z
1/2+x,1/2-y,1/2-z
1/2-x,1/2+y,1/2-z
1/2-x,1/2-y,1/2-z
1/2+x,1/2+y,1/2-z
1/2-x,1/2+y,1/2+z
1/2+x,1/2-y,1/2+z
loop_
_atom_site_type_symbol
_atom_site_label
_atom_site_fract_x
_atom_site_fract_y
_atom_site_fract_z
Si Si1 0.153230 0.598289 0.223828
Si Si2 0.608904 0.264767 0.708990
Si Si3 0.453866 0.402563 0.277225
Si Si4 0.258676 0.149010 0.282924
Si Si5 0.173474 0.906050 0.278458
O O1 0.143196 0.500000 0.275327
O O2 0.123076 0.673046 0.287859
O O3 0.198184 0.620774 0.286213
O O4 0.153561 0.602284 0.000000
O O5 0.596763 0.247102 0.500000
O O6 0.574591 0.325864 0.790065
O O7 0.647692 0.326446 0.708781
O O8 0.451675 0.403020 0.500000
O O9 0.500000 0.389376 0.228556
O O10 0.442122 0.500000 0.217725
O O11 0.260104 0.133399 0.500000
O O12 0.250000 0.250000 0.250000
O O13 0.219120 0.101188 0.216523
O O14 0.172871 0.901136 0.500000
O O15 0.157049 0.000000 0.223906
#
# Coordination Sequence:
#
# PCOD9517869 Si02
#       5
#    16  16  16  16  16
#     4   9  17  29  45  64  87 117 152 186 222 264
#     4  10  18  29  48  70  88 113 153 193 220 255
#     4   8  14  25  42  66  94 118 140 174 224 275
#     4  10  18  30  46  62  85 118 153 185 221 263
#     4  10  20  31  44  64  92 123 148 177 225 276
#
# _framework density 21.106839000000001
#
# number of rings (size 3 to 8) (size 9 to 14) (size 15 to 20)
#    0.000    2.600    2.000    1.800    0.000    3.600 
#    0.000    0.000    0.000    4.800    0.000    7.000 
#    0.000    0.000    0.000    1.800    0.000    2.200 
#
# Total GULP energy -223334.652279 kJ/mol
# GULP energy per Si atom -5583.366307 kJ/mol
# Density = 2.105880 g / cm^3
# Si number density = 21.106839 Si / 1000 Ang^3
#
#
#
# Elastic Constant Matrix: (Units=GPa)
#
#
# Indices 1 2 3 4 5 6 
#
# 1 125.2151 86.8755 2.3822 0.0000 0.0000 0.0000
# 2 86.8755 201.1425 -2.1641 0.0000 0.0000 0.0000
# 3 2.3822 -2.1641 86.1201 0.0000 0.0000 0.0000
# 4 0.0000 0.0000 0.0000 1.0109 0.0000 0.0000
# 5 0.0000 0.0000 0.0000 0.0000 1.5716 0.0000
# 6 0.0000 0.0000 0.0000 0.0000 0.0000 32.9101
#
#
#
# Elastic Compliance Matrix: (Units=1/GPa)
#
#
# Indices 1 2 3 4 5 6 
#
# 1 0.011420 -0.004937 -0.000440 0.000000 0.000000 0.000000
# 2 -0.004937 0.007107 0.000315 0.000000 0.000000 0.000000
# 3 -0.000440 0.000315 0.011632 0.000000 0.000000 0.000000
# 4 0.000000 0.000000 0.000000 0.989209 0.000000 0.000000
# 5 0.000000 0.000000 0.000000 0.000000 0.636304 0.000000
# 6 0.000000 0.000000 0.000000 0.000000 0.000000 0.030386
#
#
# Mechanical properties :
#
#
# Convention : Reuss Voigt Hill
#
# Bulk Modulus (GPa) = 49.91182 65.18498 57.54840
# Shear Modulus (GPa) = 2.93624 28.79080 15.86352
#
# Velocity S-wave (km/s) = 1.18074 3.69731 2.74447
# Velocity P-wave (km/s) = 5.05544 7.01265 6.11288
#
# Compressibility (1/GPa) = 0.02003533
#
# Stress axis : x y z
#
# Youngs Moduli (GPa) = 87.56485 140.69805 85.97138
#
# Poissons Ratio (x) = 0.69465 0.03782
# Poissons Ratio (y) = 0.43232 -0.02710
# Poissons Ratio (z) = 0.03853 -0.04434
#
# Static dielectric constant tensor:
#      x y z
#    x 1.739120 0.000000 0.000000 
#    y 0.000000 1.751080 0.000000 
#    z 0.000000 0.000000 1.839120 
# 
# From -- ./inp_files/22436.got.cif
#   From: 2010.05.17/outbox.cif.g08.bks.cpg/sg71_12_cif.got.tgz:22436.got - 2010.06.03 16:22:01.
