data_PCOD9517531
_publ_section_title
;
Structure prediction by ZEFSAII (Michael W. Deem and Ramdas Pophale) SiO2 
 PCOD9517531
Probable space group: I M M M
;
_chemical_formula_sum "Si O2"
_cell_formula_units_Z 104
_cell_length_a 33.914439
_cell_length_b 25.926728
_cell_length_c 7.574417
_cell_angle_alpha 90.000000
_cell_angle_beta 90.000000
_cell_angle_gamma 90.000000
_cell_volume 6660.112421
_symmetry_space_group_name_H-M "I M M M"
_symmetry_group_IT_number 71
_symmetry_cell_setting 'orthorhombic'
loop_
_space_group_symop_operation_xyz
x,y,z
-x,-y,z
x,-y,-z
-x,y,-z
-x,-y,-z
x,y,-z
-x,y,z
x,-y,z
1/2+x,1/2+y,1/2+z
1/2-x,1/2-y,1/2+z
1/2+x,1/2-y,1/2-z
1/2-x,1/2+y,1/2-z
1/2-x,1/2-y,1/2-z
1/2+x,1/2+y,1/2-z
1/2-x,1/2+y,1/2+z
1/2+x,1/2-y,1/2+z
loop_
_atom_site_type_symbol
_atom_site_label
_atom_site_fract_x
_atom_site_fract_y
_atom_site_fract_z
Si Si1 0.123508 0.158969 0.212612
Si Si2 0.544801 0.386325 0.716603
Si Si3 0.668270 0.443632 0.713885
Si Si4 0.951976 0.000000 0.799232
Si Si5 0.807821 0.232735 0.707564
Si Si6 0.739074 0.055901 0.292797
Si Si7 0.734219 0.832856 0.292981
O O1 0.078172 0.154074 0.270061
O O2 0.145225 0.106714 0.275675
O O3 0.149776 0.207549 0.264859
O O4 0.123617 0.157683 0.000000
O O5 0.544173 0.388788 0.500000
O O6 0.500000 0.375878 0.772966
O O7 0.557365 0.443993 0.777545
O O8 0.668467 0.442492 0.500000
O O9 0.651986 0.500000 0.767139
O O10 0.713403 0.441088 0.776463
O O11 0.000000 0.000000 0.809198
O O12 0.935868 0.000000 0.000000
O O13 0.800553 0.236902 0.500000
O O14 0.774052 0.193864 0.782069
O O15 0.799352 0.289579 0.779640
O O16 0.728458 0.053956 0.500000
O O17 0.724815 0.110743 0.217277
O O18 0.727437 0.000000 0.215244
O O19 0.742308 0.841682 0.500000
#
# Coordination Sequence:
#
# PCOD9517531 Si02
#       7
#    16  16  16   8  16  16  16
#     4  10  18  26  39  56  75  96 124 161 198 233
#     4   8  14  23  35  52  73  96 122 155 195 235
#     4   9  17  25  33  50  75  98 121 154 195 232
#     4   7  10  18  32  50  71  93 119 153 193 235
#     4  10  19  29  41  56  73  98 128 158 190 225
#     4   9  16  27  42  57  74  97 124 152 185 227
#     4   9  17  29  42  56  75  98 124 154 188 223
#
# _framework density 15.615353000000001
#
# number of rings (size 3 to 8) (size 9 to 14) (size 15 to 20)
#    0.000    3.000    1.538    1.385    1.077    1.231 
#    0.000    0.000    0.000    0.462    0.000    0.000 
#    0.000    1.846    0.000    0.000    0.000    0.769 
#
# Total GULP energy -289646.492290 kJ/mol
# GULP energy per Si atom -5570.124852 kJ/mol
# Density = 1.557981 g / cm^3
# Si number density = 15.615353 Si / 1000 Ang^3
#
#
#
# Elastic Constant Matrix: (Units=GPa)
#
#
# Indices 1 2 3 4 5 6 
#
# 1 60.5391 44.3366 -5.9753 0.0000 0.0000 0.0000
# 2 44.3366 133.0080 3.5733 0.0000 0.0000 0.0000
# 3 -5.9753 3.5733 34.5313 0.0000 0.0000 0.0000
# 4 0.0000 0.0000 0.0000 1.9664 0.0000 0.0000
# 5 0.0000 0.0000 0.0000 0.0000 -0.8081 0.0000
# 6 0.0000 0.0000 0.0000 0.0000 0.0000 24.8731
#
#
#
# Elastic Compliance Matrix: (Units=1/GPa)
#
#
# Indices 1 2 3 4 5 6 
#
# 1 0.022589 -0.007656 0.004701 0.000000 0.000000 0.000000
# 2 -0.007656 0.010134 -0.002374 0.000000 0.000000 0.000000
# 3 0.004701 -0.002374 0.030018 0.000000 0.000000 0.000000
# 4 0.000000 0.000000 0.000000 0.508553 0.000000 0.000000
# 5 0.000000 0.000000 0.000000 0.000000 -1.237490 0.000000
# 6 0.000000 0.000000 0.000000 0.000000 0.000000 0.040204
#
#
# Mechanical properties :
#
#
# Convention : Reuss Voigt Hill
#
# Bulk Modulus (GPa) = 19.19948 34.66084 26.93016
# Shear Modulus (GPa) = -8.36159 17.61588 4.62715
#
# Velocity S-wave (km/s) = -2.31654 3.36238 1.72326
# Velocity P-wave (km/s) = 2.27306 6.10893 4.60900
#
# Compressibility (1/GPa) = 0.05208475
#
# Stress axis : x y z
#
# Youngs Moduli (GPa) = 44.26863 98.67575 33.31302
#
# Poissons Ratio (x) = 0.75548 -0.15661
# Poissons Ratio (y) = 0.33893 0.07907
# Poissons Ratio (z) = -0.20811 0.23421
#
# Static dielectric constant tensor:
#      x y z
#    x 1.514290 0.000000 0.000000 
#    y 0.000000 1.563780 0.000000 
#    z 0.000000 0.000000 1.595850 
# 
# From -- ./inp_files/17469.got.cif
#   From: 2010.05.17/outbox.cif.g08.bks.cpg/sg71_9_cif.got.tgz:17469.got - 2010.06.03 16:22:01.
