data_PCOD9517454
_publ_section_title
;
Structure prediction by ZEFSAII (Michael W. Deem and Ramdas Pophale) SiO2 
 PCOD9517454
Probable space group: I M M M
;
_chemical_formula_sum "Si O2"
_cell_formula_units_Z 72
_cell_length_a 8.399374
_cell_length_b 27.960873
_cell_length_c 14.942255
_cell_angle_alpha 90.000000
_cell_angle_beta 90.000000
_cell_angle_gamma 90.000000
_cell_volume 3509.245811
_symmetry_space_group_name_H-M "I M M M"
_symmetry_group_IT_number 71
_symmetry_cell_setting 'orthorhombic'
loop_
_space_group_symop_operation_xyz
x,y,z
-x,-y,z
x,-y,-z
-x,y,-z
-x,-y,-z
x,y,-z
-x,y,z
x,-y,z
1/2+x,1/2+y,1/2+z
1/2-x,1/2-y,1/2+z
1/2+x,1/2-y,1/2-z
1/2-x,1/2+y,1/2-z
1/2-x,1/2-y,1/2-z
1/2+x,1/2+y,1/2-z
1/2-x,1/2+y,1/2+z
1/2+x,1/2-y,1/2+z
loop_
_atom_site_type_symbol
_atom_site_label
_atom_site_fract_x
_atom_site_fract_y
_atom_site_fract_z
Si Si1 0.676144 0.198761 0.390764
Si Si2 0.000000 0.151492 0.601639
Si Si3 0.183085 0.299110 0.394725
Si Si4 0.321473 0.391636 0.669401
Si Si5 0.500000 0.556182 0.814354
Si Si6 0.182038 0.443108 0.500000
O O1 0.674429 0.194661 0.500000
O O2 0.500000 0.183702 0.359448
O O3 0.706986 0.254436 0.370063
O O4 0.833703 0.170548 0.358275
O O5 0.000000 0.094112 0.605762
O O6 0.000000 0.168895 0.500000
O O7 0.213458 0.311703 0.500000
O O8 0.209914 0.345584 0.334562
O O9 0.000000 0.282978 0.389237
O O10 0.500000 0.371989 0.653351
O O11 0.348841 0.426515 0.753934
O O12 0.269184 0.424231 0.587304
O O13 0.500000 0.500000 0.832160
O O14 0.180060 0.500000 0.500000
O O15 0.000000 0.424988 0.500000
#
# Coordination Sequence:
#
# PCOD9517454 Si02
#       6
#    16   8  16  16   8   8
#     4   9  17  31  58  91 122 153 188 236 299 364
#     4  10  20  41  67  93 114 148 197 257 317 380
#     4  10  17  29  52  86 124 160 199 235 274 339
#     4  10  21  33  53  78 113 155 201 240 287 338
#     4  10  24  42  60  82 115 153 202 260 319 359
#     4  11  21  33  51  79 113 157 213 255 287 332
#
# _framework density 20.517229
#
# number of rings (size 3 to 8) (size 9 to 14) (size 15 to 20)
#    0.667    1.444    2.222    2.333    0.000    1.556 
#    0.000    3.333    0.000    3.333    0.000    3.111 
#    0.000    0.000    0.000    0.000    0.000    0.000 
#
# Total GULP energy -200707.199267 kJ/mol
# GULP energy per Si atom -5575.199980 kJ/mol
# Density = 2.047053 g / cm^3
# Si number density = 20.517229 Si / 1000 Ang^3
#
#
#
# Elastic Constant Matrix: (Units=GPa)
#
#
# Indices 1 2 3 4 5 6 
#
# 1 119.2412 41.2290 13.5435 0.0002 -0.0001 0.0000
# 2 41.2290 113.3638 1.7967 0.0002 -0.0001 0.0000
# 3 13.5435 1.7967 36.3583 0.0013 -0.0005 0.0000
# 4 0.0002 0.0002 0.0013 14.9667 -0.0008 0.0001
# 5 -0.0001 -0.0001 -0.0005 -0.0008 -3.9088 0.0000
# 6 0.0000 0.0000 0.0000 0.0001 0.0000 26.9182
#
#
#
# Elastic Compliance Matrix: (Units=1/GPa)
#
#
# Indices 1 2 3 4 5 6 
#
# 1 0.010033 -0.003592 -0.003560 0.000000 0.000000 0.000000
# 2 -0.003592 0.010114 0.000838 0.000000 0.000000 0.000000
# 3 -0.003560 0.000838 0.028789 -0.000002 -0.000003 0.000000
# 4 0.000000 0.000000 -0.000002 0.066815 -0.000013 0.000000
# 5 0.000000 0.000000 -0.000003 -0.000013 -0.255833 0.000000
# 6 0.000000 0.000000 0.000000 0.000000 0.000000 0.037150
#
#
# Mechanical properties :
#
#
# Convention : Reuss Voigt Hill
#
# Bulk Modulus (GPa) = 27.54193 42.45576 34.99884
# Shear Modulus (GPa) = -63.93645 21.75482 -21.09081
#
# Velocity S-wave (km/s) = -5.58838 3.25979 -3.20965
# Velocity P-wave (km/s) = 5.30914 5.90813 1.83288
#
# Compressibility (1/GPa) = 0.03630828
#
# Stress axis : x y z
#
# Youngs Moduli (GPa) = 99.67321 98.86913 34.73599
#
# Poissons Ratio (x) = 0.35518 0.12365
# Poissons Ratio (y) = 0.35806 -0.02912
# Poissons Ratio (z) = 0.35481 -0.08289
#
# Static dielectric constant tensor:
#      x y z
#    x 1.753840 0.000000 0.000000 
#    y 0.000000 1.695440 0.000000 
#    z 0.000000 0.000000 1.755260 
# 
# From -- ./inp_files/50719.got.cif
#   From: 2010.05.17/outbox.cif.g08.bks.cpg/sg71_26_cif.got.tgz:50719.got - 2010.06.03 16:22:01.
