data_PCOD9517677
_publ_section_title
;
Structure prediction by ZEFSAII (Michael W. Deem and Ramdas Pophale) SiO2 
 PCOD9517677
Probable space group: I M M M
;
_chemical_formula_sum "Si O2"
_cell_formula_units_Z 104
_cell_length_a 29.531269
_cell_length_b 23.876294
_cell_length_c 7.401251
_cell_angle_alpha 90.000000
_cell_angle_beta 90.000000
_cell_angle_gamma 90.000000
_cell_volume 5218.601807
_symmetry_space_group_name_H-M "I M M M"
_symmetry_group_IT_number 71
_symmetry_cell_setting 'orthorhombic'
loop_
_space_group_symop_operation_xyz
x,y,z
-x,-y,z
x,-y,-z
-x,y,-z
-x,-y,-z
x,y,-z
-x,y,z
x,-y,z
1/2+x,1/2+y,1/2+z
1/2-x,1/2-y,1/2+z
1/2+x,1/2-y,1/2-z
1/2-x,1/2+y,1/2-z
1/2-x,1/2-y,1/2-z
1/2+x,1/2+y,1/2-z
1/2-x,1/2+y,1/2+z
1/2+x,1/2-y,1/2+z
loop_
_atom_site_type_symbol
_atom_site_label
_atom_site_fract_x
_atom_site_fract_y
_atom_site_fract_z
Si Si1 0.891086 0.112934 0.221085
Si Si2 0.201744 0.830711 0.211025
Si Si3 0.445948 0.500000 0.719991
Si Si4 0.947778 0.439728 0.279688
Si Si5 0.395197 0.833314 0.783828
Si Si6 0.448928 0.280633 0.284279
Si Si7 0.700534 0.199122 0.780533
O O1 0.839814 0.130869 0.281112
O O2 0.922484 0.164695 0.280994
O O3 0.916552 0.055189 0.274291
O O4 0.889660 0.112107 0.000000
O O5 0.253109 0.829591 0.286203
O O6 0.192291 0.763853 0.224570
O O7 0.205053 0.845465 0.000000
O O8 0.500000 0.500000 0.775797
O O9 0.447404 0.500000 0.500000
O O10 0.947355 0.438457 0.500000
O O11 0.928823 0.500000 0.224869
O O12 0.922110 0.385951 0.211349
O O13 0.000000 0.436946 0.225751
O O14 0.420823 0.775405 0.749406
O O15 0.344003 0.832258 0.718617
O O16 0.392947 0.838778 0.000000
O O17 0.451796 0.287031 0.500000
O O18 0.500000 0.276256 0.213319
O O19 0.703124 0.200455 0.000000
#
# Coordination Sequence:
#
# PCOD9517677 Si02
#       7
#    16  16   8  16  16  16  16
#     4   9  16  27  43  62  87 119 150 183 225 268
#     4   9  16  28  45  63  87 116 144 175 216 266
#     4   9  16  26  42  64  89 119 157 195 228 271
#     4   8  14  25  41  59  80 110 145 173 200 245
#     4  10  18  28  44  66  89 112 143 181 219 257
#     4  10  19  29  42  64  92 117 143 177 219 264
#     4   9  17  27  42  66  91 113 141 177 216 262
#
# _framework density 19.928709000000001
#
# number of rings (size 3 to 8) (size 9 to 14) (size 15 to 20)
#    0.000    2.846    1.538    1.385    0.000    2.769 
#    0.000    0.000    1.692    0.462    0.000    4.308 
#    0.000    3.692    0.000    0.000    0.000    0.000 
#
# Total GULP energy -289714.419716 kJ/mol
# GULP energy per Si atom -5571.431148 kJ/mol
# Density = 1.988335 g / cm^3
# Si number density = 19.928709 Si / 1000 Ang^3
#
#
#
# Elastic Constant Matrix: (Units=GPa)
#
#
# Indices 1 2 3 4 5 6 
#
# 1 185.4955 118.2994 3.2196 0.0000 0.0000 0.0000
# 2 118.2994 171.1020 0.6925 0.0000 0.0000 0.0000
# 3 3.2196 0.6925 65.3585 0.0000 0.0000 0.0000
# 4 0.0000 0.0000 0.0000 11.3192 0.0000 0.0000
# 5 0.0000 0.0000 0.0000 0.0000 1.0456 0.0000
# 6 0.0000 0.0000 0.0000 0.0000 0.0000 69.8576
#
#
#
# Elastic Compliance Matrix: (Units=1/GPa)
#
#
# Indices 1 2 3 4 5 6 
#
# 1 0.009654 -0.006673 -0.000405 0.000000 0.000000 0.000000
# 2 -0.006673 0.010457 0.000218 0.000000 0.000000 0.000000
# 3 -0.000405 0.000218 0.015318 0.000000 0.000000 0.000000
# 4 0.000000 0.000000 0.000000 0.088346 0.000000 0.000000
# 5 0.000000 0.000000 0.000000 0.000000 0.956421 0.000000
# 6 0.000000 0.000000 0.000000 0.000000 0.000000 0.014315
#
#
# Mechanical properties :
#
#
# Convention : Reuss Voigt Hill
#
# Bulk Modulus (GPa) = 46.06364 74.04210 60.05287
# Shear Modulus (GPa) = 4.48243 36.42745 20.45494
#
# Velocity S-wave (km/s) = 1.50137 4.28002 3.20723
# Velocity P-wave (km/s) = 5.11565 7.85232 6.62679
#
# Compressibility (1/GPa) = 0.02170909
#
# Stress axis : x y z
#
# Youngs Moduli (GPa) = 103.58879 95.62852 65.28328
#
# Poissons Ratio (x) = 0.63811 0.02643
# Poissons Ratio (y) = 0.69123 -0.01423
# Poissons Ratio (z) = 0.04194 -0.02084
#
# Static dielectric constant tensor:
#      x y z
#    x 1.316610 0.000000 0.000000 
#    y 0.000000 1.670950 0.000000 
#    z 0.000000 0.000000 1.815800 
# 
# From -- ./inp_files/11554.got.cif
#   From: 2010.05.17/outbox.cif.g08.bks.cpg/sg71_6_cif.got.tgz:11554.got - 2010.06.03 16:22:01.
