data_PCOD9517613
_publ_section_title
;
Structure prediction by ZEFSAII (Michael W. Deem and Ramdas Pophale) SiO2 
 PCOD9517613
Probable space group: I M M M
;
_chemical_formula_sum "Si O2"
_cell_formula_units_Z 72
_cell_length_a 35.115276
_cell_length_b 14.864134
_cell_length_c 7.748477
_cell_angle_alpha 90.000000
_cell_angle_beta 90.000000
_cell_angle_gamma 90.000000
_cell_volume 4044.380859
_symmetry_space_group_name_H-M "I M M M"
_symmetry_group_IT_number 71
_symmetry_cell_setting 'orthorhombic'
loop_
_space_group_symop_operation_xyz
x,y,z
-x,-y,z
x,-y,-z
-x,y,-z
-x,-y,-z
x,y,-z
-x,y,z
x,-y,z
1/2+x,1/2+y,1/2+z
1/2-x,1/2-y,1/2+z
1/2+x,1/2-y,1/2-z
1/2-x,1/2+y,1/2-z
1/2-x,1/2-y,1/2-z
1/2+x,1/2+y,1/2-z
1/2-x,1/2+y,1/2+z
1/2+x,1/2-y,1/2+z
loop_
_atom_site_type_symbol
_atom_site_label
_atom_site_fract_x
_atom_site_fract_y
_atom_site_fract_z
Si Si1 0.687281 0.398290 0.292223
Si Si2 0.845227 0.284812 0.293315
Si Si3 0.227038 0.604345 0.289973
Si Si4 0.000000 0.397555 0.794729
Si Si5 0.417148 0.103216 0.206481
O O1 0.688776 0.401022 0.500000
O O2 0.678848 0.500000 0.232412
O O3 0.658252 0.320710 0.241938
O O4 0.730145 0.373417 0.230240
O O5 0.845026 0.296397 0.500000
O O6 0.806799 0.332729 0.225458
O O7 0.882832 0.335139 0.226796
O O8 0.227448 0.609278 0.500000
O O9 0.219452 0.500000 0.246026
O O10 0.959322 0.358503 0.741339
O O11 0.000000 0.500000 0.722156
O O12 0.000000 0.402050 0.000000
O O13 0.414993 0.000000 0.274241
O O14 0.413154 0.097499 0.000000
#
# Coordination Sequence:
#
# PCOD9517613 Si02
#       5
#    16  16  16   8  16
#     4   9  18  31  44  58  82 119 155 184 219 260
#     4  10  18  27  44  68  88 110 145 187 222 251
#     4   8  14  26  43  62  86 116 148 180 216 260
#     4   9  17  29  45  65  90 119 146 171 203 248
#     4   9  17  29  45  66  92 119 144 171 209 259
#
# _framework density 17.802475999999999
#
# number of rings (size 3 to 8) (size 9 to 14) (size 15 to 20)
#    0.000    3.000    0.000    3.000    0.000    5.333 
#    0.000    0.000    0.000    3.333    0.000    0.778 
#    0.000    6.222    0.000    0.000    0.000    0.000 
#
# Total GULP energy -200643.858292 kJ/mol
# GULP energy per Si atom -5573.440508 kJ/mol
# Density = 1.776196 g / cm^3
# Si number density = 17.802476 Si / 1000 Ang^3
#
#
#
# Elastic Constant Matrix: (Units=GPa)
#
#
# Indices 1 2 3 4 5 6 
#
# 1 124.9434 86.3263 6.6558 0.0000 0.0000 0.0000
# 2 86.3263 91.4286 1.7648 0.0000 0.0000 0.0000
# 3 6.6558 1.7648 26.6215 0.0000 0.0000 0.0000
# 4 0.0000 0.0000 0.0000 15.1091 0.0000 0.0000
# 5 0.0000 0.0000 0.0000 0.0000 6.8601 0.0000
# 6 0.0000 0.0000 0.0000 0.0000 0.0000 21.7916
#
#
#
# Elastic Compliance Matrix: (Units=1/GPa)
#
#
# Indices 1 2 3 4 5 6 
#
# 1 0.023530 -0.022132 -0.004416 0.000000 0.000000 0.000000
# 2 -0.022132 0.031768 0.003427 0.000000 0.000000 0.000000
# 3 -0.004416 0.003427 0.038440 0.000000 0.000000 0.000000
# 4 0.000000 0.000000 0.000000 0.066185 0.000000 0.000000
# 5 0.000000 0.000000 0.000000 0.000000 0.145771 0.000000
# 6 0.000000 0.000000 0.000000 0.000000 0.000000 0.045889
#
#
# Mechanical properties :
#
#
# Convention : Reuss Voigt Hill
#
# Bulk Modulus (GPa) = 21.05339 48.05413 34.55376
# Shear Modulus (GPa) = 12.08729 18.63527 15.36128
#
# Velocity S-wave (km/s) = 2.60853 3.23891 2.94066
# Velocity P-wave (km/s) = 4.57431 6.40616 5.56611
#
# Compressibility (1/GPa) = 0.04749828
#
# Stress axis : x y z
#
# Youngs Moduli (GPa) = 42.49827 31.47797 26.01424
#
# Poissons Ratio (x) = 0.69667 0.11487
# Poissons Ratio (y) = 0.94057 -0.08916
# Poissons Ratio (z) = 0.18766 -0.10789
#
# Static dielectric constant tensor:
#      x y z
#    x 1.625280 0.000000 0.000000 
#    y 0.000000 1.605020 0.000000 
#    z 0.000000 0.000000 1.660260 
# 
# From -- ./inp_files/6427.got.cif
#   From: 2010.05.17/outbox.cif.g08.bks.cpg/sg71_4_cif.got.tgz:6427.got - 2010.06.03 16:22:01.
