data_PCOD9517564
_publ_section_title
;
Structure prediction by ZEFSAII (Michael W. Deem and Ramdas Pophale) SiO2 
 PCOD9517564
Probable space group: I M M M
;
_chemical_formula_sum "Si O2"
_cell_formula_units_Z 88
_cell_length_a 34.301553
_cell_length_b 9.174482
_cell_length_c 23.481779
_cell_angle_alpha 90.000000
_cell_angle_beta 90.000000
_cell_angle_gamma 90.000000
_cell_volume 7389.691913
_symmetry_space_group_name_H-M "I M M M"
_symmetry_group_IT_number 71
_symmetry_cell_setting 'orthorhombic'
loop_
_space_group_symop_operation_xyz
x,y,z
-x,-y,z
x,-y,-z
-x,y,-z
-x,-y,-z
x,y,-z
-x,y,z
x,-y,z
1/2+x,1/2+y,1/2+z
1/2-x,1/2-y,1/2+z
1/2+x,1/2-y,1/2-z
1/2-x,1/2+y,1/2-z
1/2-x,1/2-y,1/2-z
1/2+x,1/2+y,1/2-z
1/2-x,1/2+y,1/2+z
1/2+x,1/2-y,1/2+z
loop_
_atom_site_type_symbol
_atom_site_label
_atom_site_fract_x
_atom_site_fract_y
_atom_site_fract_z
Si Si1 0.689918 0.168019 0.268691
Si Si2 0.735296 0.674045 0.566045
Si Si3 0.847040 0.825906 0.872632
Si Si4 0.500000 0.668123 0.430853
Si Si5 0.274112 0.667615 0.167488
Si Si6 0.079898 0.327256 0.931602
O O1 0.662414 0.259052 0.310784
O O2 0.696693 0.243206 0.207835
O O3 0.732412 0.168318 0.299448
O O4 0.677582 0.000000 0.263637
O O5 0.738709 0.715026 0.500000
O O6 0.741323 0.500000 0.571410
O O7 0.691419 0.703241 0.588728
O O8 0.764920 0.757052 0.607460
O O9 0.884134 0.749582 0.900636
O O10 0.852126 0.000000 0.869588
O O11 0.500000 0.500000 0.411768
O O12 0.500000 0.666886 0.500000
O O13 0.539216 0.752472 0.413914
O O14 0.286171 0.500000 0.161298
O O15 0.079188 0.500000 0.920230
O O16 0.084093 0.307943 0.000000
#
# Coordination Sequence:
#
# PCOD9517564 Si02
#       6
#    16  16  16   8  16  16
#     4   9  16  26  38  51  67  87 111 139 173 210
#     4   9  17  27  37  50  69  92 116 143 177 214
#     4  10  18  27  39  54  71  90 114 145 179 213
#     4   9  17  29  43  55  67  87 115 143 172 209
#     4   9  16  25  37  51  66  86 112 141 172 207
#     4  10  19  29  40  54  72  92 114 142 177 215
#
# _framework density 11.908480000000001
#
# number of rings (size 3 to 8) (size 9 to 14) (size 15 to 20)
#    0.000    2.636    0.000    3.000    0.000    8.364 
#    0.000    0.000    0.000    0.000    0.000    0.000 
#    0.000    0.000    0.000    0.000    0.000    0.000 
#
# Total GULP energy -245162.430103 kJ/mol
# GULP energy per Si atom -5571.873411 kJ/mol
# Density = 1.188138 g / cm^3
# Si number density = 11.908480 Si / 1000 Ang^3
#
#
#
# Elastic Constant Matrix: (Units=GPa)
#
#
# Indices 1 2 3 4 5 6 
#
# 1 48.2804 48.0223 41.0671 0.0000 0.0000 0.0000
# 2 48.0223 97.2210 58.9618 0.0000 0.0000 0.0000
# 3 41.0671 58.9618 87.9162 0.0000 0.0000 0.0000
# 4 0.0000 0.0000 0.0000 20.1596 0.0000 0.0000
# 5 0.0000 0.0000 0.0000 0.0000 15.5546 0.0000
# 6 0.0000 0.0000 0.0000 0.0000 0.0000 18.6186
#
#
#
# Elastic Compliance Matrix: (Units=1/GPa)
#
#
# Indices 1 2 3 4 5 6 
#
# 1 0.045819 -0.016269 -0.010491 0.000000 0.000000 0.000000
# 2 -0.016269 0.023115 -0.007902 0.000000 0.000000 0.000000
# 3 -0.010491 -0.007902 0.021575 0.000000 0.000000 0.000000
# 4 0.000000 0.000000 0.000000 0.049604 0.000000 0.000000
# 5 0.000000 0.000000 0.000000 0.000000 0.064290 0.000000
# 6 0.000000 0.000000 0.000000 0.000000 0.000000 0.053710
#
#
# Mechanical properties :
#
#
# Convention : Reuss Voigt Hill
#
# Bulk Modulus (GPa) = 47.20999 58.83558 53.02279
# Shear Modulus (GPa) = 14.94772 16.55765 15.75268
#
# Velocity S-wave (km/s) = 3.54675 3.73286 3.64099
# Velocity P-wave (km/s) = 7.51682 8.25183 7.89289
#
# Compressibility (1/GPa) = 0.02118196
#
# Stress axis : x y z
#
# Youngs Moduli (GPa) = 21.82512 43.26254 46.34993
#
# Poissons Ratio (x) = 0.70386 0.48628
# Poissons Ratio (y) = 0.35508 0.36627
# Poissons Ratio (z) = 0.22898 0.34188
#
# Static dielectric constant tensor:
#      x y z
#    x 1.358000 0.000000 0.000000 
#    y 0.000000 1.398180 0.000000 
#    z 0.000000 0.000000 1.371350 
# 
# From -- ./inp_files/11369.got.cif
#   From: 2010.05.17/outbox.cif.g08.bks.cpg/sg71_6_cif.got.tgz:11369.got - 2010.06.03 16:22:01.
