data_PCOD9517444
_publ_section_title
;
Structure prediction by ZEFSAII (Michael W. Deem and Ramdas Pophale) SiO2 
 PCOD9517444
Probable space group: I M M M
;
_chemical_formula_sum "Si O2"
_cell_formula_units_Z 120
_cell_length_a 20.599033
_cell_length_b 14.227113
_cell_length_c 25.138977
_cell_angle_alpha 90.000000
_cell_angle_beta 90.000000
_cell_angle_gamma 90.000000
_cell_volume 7367.348517
_symmetry_space_group_name_H-M "I M M M"
_symmetry_group_IT_number 71
_symmetry_cell_setting 'orthorhombic'
loop_
_space_group_symop_operation_xyz
x,y,z
-x,-y,z
x,-y,-z
-x,y,-z
-x,-y,-z
x,y,-z
-x,y,z
x,-y,z
1/2+x,1/2+y,1/2+z
1/2-x,1/2-y,1/2+z
1/2+x,1/2-y,1/2-z
1/2-x,1/2+y,1/2-z
1/2-x,1/2-y,1/2-z
1/2+x,1/2+y,1/2-z
1/2-x,1/2+y,1/2+z
1/2+x,1/2-y,1/2+z
loop_
_atom_site_type_symbol
_atom_site_label
_atom_site_fract_x
_atom_site_fract_y
_atom_site_fract_z
Si Si1 0.574081 0.609070 0.581262
Si Si2 0.573945 0.886979 0.146208
Si Si3 0.872495 0.388560 0.129018
Si Si4 0.500000 0.886302 0.439371
Si Si5 0.921243 0.694042 0.238065
Si Si6 0.076566 0.898199 0.209454
Si Si7 0.684028 0.889593 0.937708
Si Si8 0.307067 0.742942 0.559767
O O1 0.500000 0.636661 0.567623
O O2 0.582917 0.500000 0.565182
O O3 0.579731 0.611455 0.645556
O O4 0.629553 0.676154 0.560074
O O5 0.500000 0.856239 0.134062
O O6 0.592095 0.847524 0.204047
O O7 0.625170 0.861829 0.100754
O O8 0.573411 0.000000 0.149727
O O9 0.861311 0.500000 0.123988
O O10 0.888656 0.361979 0.189647
O O11 0.817120 0.324258 0.103039
O O12 0.936284 0.361795 0.094113
O O13 0.500000 0.850731 0.500000
O O14 0.500000 0.000000 0.442369
O O15 0.898325 0.802219 0.234414
O O16 0.000000 0.690445 0.229932
O O17 0.000000 0.901613 0.222712
O O18 0.105366 0.000000 0.224209
O O19 0.746099 0.824038 0.928554
O O20 0.700031 0.000000 0.928039
O O21 0.665887 0.881726 0.000000
O O22 0.300168 0.782642 0.500000
#
# Coordination Sequence:
#
# PCOD9517444 Si02
#       8
#    16  16  16   8  16  16  16  16
#     4   9  17  29  44  64  92 126 168 214 253 288
#     4   9  18  32  55  86 110 128 157 198 247 311
#     4  11  21  32  46  66  96 137 178 218 260 295
#     4   9  18  30  42  60  89 127 176 226 259 282
#     4  10  17  29  50  75 103 134 167 209 262 308
#     4   8  14  25  42  64  92 129 169 205 243 288
#     4   9  19  37  57  77 104 134 163 200 253 314
#     4  11  22  33  48  68  93 132 178 217 254 300
#
# _framework density 16.288086
#
# number of rings (size 3 to 8) (size 9 to 14) (size 15 to 20)
#    0.000    2.467    2.000    2.000    0.933    2.667 
#    0.000    2.667    0.000    0.800    0.000    0.000 
#    0.000    0.000    0.000    8.133    0.000    0.267 
#
# Total GULP energy -334508.460909 kJ/mol
# GULP energy per Si atom -5575.141015 kJ/mol
# Density = 1.625101 g / cm^3
# Si number density = 16.288086 Si / 1000 Ang^3
#
#
#
# Elastic Constant Matrix: (Units=GPa)
#
#
# Indices 1 2 3 4 5 6 
#
# 1 67.3012 46.5355 62.3380 0.0000 0.0000 0.0000
# 2 46.5355 77.1640 52.9348 0.0000 0.0000 0.0000
# 3 62.3380 52.9348 95.4035 0.0000 0.0000 0.0000
# 4 0.0000 0.0000 0.0000 19.5624 0.0000 0.0000
# 5 0.0000 0.0000 0.0000 0.0000 40.1618 0.0000
# 6 0.0000 0.0000 0.0000 0.0000 0.0000 15.7787
#
#
#
# Elastic Compliance Matrix: (Units=1/GPa)
#
#
# Indices 1 2 3 4 5 6 
#
# 1 0.042405 -0.010600 -0.021826 0.000000 0.000000 0.000000
# 2 -0.010600 0.023573 -0.006153 0.000000 0.000000 0.000000
# 3 -0.021826 -0.006153 0.028158 0.000000 0.000000 0.000000
# 4 0.000000 0.000000 0.000000 0.051119 0.000000 0.000000
# 5 0.000000 0.000000 0.000000 0.000000 0.024899 0.000000
# 6 0.000000 0.000000 0.000000 0.000000 0.000000 0.063377
#
#
# Mechanical properties :
#
#
# Convention : Reuss Voigt Hill
#
# Bulk Modulus (GPa) = 58.90699 62.60950 60.75825
# Shear Modulus (GPa) = 15.80532 20.30460 18.05496
#
# Velocity S-wave (km/s) = 3.11844 3.53454 3.33299
# Velocity P-wave (km/s) = 7.01502 7.42830 7.22461
#
# Compressibility (1/GPa) = 0.01697591
#
# Stress axis : x y z
#
# Youngs Moduli (GPa) = 23.58215 42.42073 35.51429
#
# Poissons Ratio (x) = 0.44967 0.77515
# Poissons Ratio (y) = 0.24998 0.21853
# Poissons Ratio (z) = 0.51471 0.26103
#
# Static dielectric constant tensor:
#      x y z
#    x 1.533530 0.000000 0.000000 
#    y 0.000000 1.572880 0.000000 
#    z 0.000000 0.000000 1.541300 
# 
# From -- ./inp_files/61424.got.cif
#   From: 2010.05.17/outbox.cif.g08.bks.cpg/sg71_31_cif.got.tgz:61424.got - 2010.06.03 16:22:01.
