data_PCOD9517054
_publ_section_title
;
Structure prediction by ZEFSAII (Michael W. Deem and Ramdas Pophale) SiO2 
 PCOD9517054
Probable space group: F D D D
;
_chemical_formula_sum "Si O2"
_cell_formula_units_Z 104
_cell_length_a 20.767447
_cell_length_b 29.588546
_cell_length_c 7.029104
_cell_angle_alpha 90.000000
_cell_angle_beta 90.000000
_cell_angle_gamma 90.000000
_cell_volume 4319.233710
_symmetry_space_group_name_H-M "F D D D"
_symmetry_group_IT_number 70
_space_group.IT_coordinate_system_code '2'
_symmetry_cell_setting 'orthorhombic'
loop_
_space_group_symop_operation_xyz
x,y,z
1/4-x,1/4-y,z
x,1/4-y,1/4-z
1/4-x,y,1/4-z
-x,-y,-z
3/4+x,3/4+y,-z
-x,3/4+y,3/4+z
3/4+x,-y,3/4+z
x,1/2+y,1/2+z
1/4-x,3/4-y,1/2+z
x,3/4-y,3/4-z
1/4-x,1/2+y,3/4-z
-x,1/2-y,1/2-z
3/4+x,1/4+y,1/2-z
-x,1/4+y,1/4+z
3/4+x,1/2-y,1/4+z
1/2+x,y,1/2+z
3/4-x,1/4-y,1/2+z
1/2+x,1/4-y,3/4-z
3/4-x,y,3/4-z
1/2-x,-y,1/2-z
1/4+x,3/4+y,1/2-z
1/2-x,3/4+y,1/4+z
1/4+x,-y,1/4+z
1/2+x,1/2+y,z
3/4-x,3/4-y,z
1/2+x,3/4-y,1/4-z
3/4-x,1/2+y,1/4-z
1/2-x,1/2-y,-z
1/4+x,1/4+y,-z
1/2-x,1/4+y,3/4+z
1/4+x,1/2-y,3/4+z
loop_
_atom_site_type_symbol
_atom_site_label
_atom_site_fract_x
_atom_site_fract_y
_atom_site_fract_z
Si Si1 0.769034 0.836786 0.141115
Si Si2 0.263387 0.683265 0.959969
Si Si3 0.125000 0.625000 0.625000
Si Si4 0.810688 0.508383 0.482743
O O1 0.785538 0.826207 0.362219
O O2 0.726175 0.882807 0.133661
O O3 0.728186 0.792534 0.095484
O O4 0.829425 0.846174 0.011616
O O5 0.229919 0.716517 0.812770
O O6 0.319153 0.709624 0.076297
O O7 0.875000 0.496261 0.375000
#
# Coordination Sequence:
#
# PCOD9517054 Si02
#       4
#    32  32   8  32
#     4   9  20  40  62 102 143 186 245 294 364 437
#     4   8  18  38  67 101 137 188 244 296 374 435
#     4  12  24  38  68 100 146 200 244 290 366 456
#     4   9  17  37  72 101 141 185 245 307 367 439
#
# _framework density 24.078347000000001
#
# number of rings (size 3 to 8) (size 9 to 14) (size 15 to 20)
#    1.846    1.231    0.000    0.000    2.154    2.462 
#    5.538    1.538    0.000    1.846    0.000    0.000 
#    0.000    0.000    0.000    0.000    0.000    0.000 
#
# Total GULP energy -144903.835893 kJ/mol
# GULP energy per Si atom -5573.224457 kJ/mol
# Density = 2.402354 g / cm^3
# Si number density = 24.078347 Si / 1000 Ang^3
#
#
#
# Elastic Constant Matrix: (Units=GPa)
#
#
# Indices 1 2 3 4 5 6 
#
# 1 39.7386 23.9129 31.9208 0.0182 -0.0098 -0.0067
# 2 23.9129 197.8076 41.2820 0.0113 -0.0054 -0.0040
# 3 31.9208 41.2820 99.2060 0.0502 -0.0167 -0.0116
# 4 0.0182 0.0113 0.0502 -57.4373 -0.0285 -0.0271
# 5 -0.0098 -0.0054 -0.0167 -0.0285 52.3435 0.0072
# 6 -0.0067 -0.0040 -0.0116 -0.0271 0.0072 13.7731
#
#
#
# Elastic Compliance Matrix: (Units=1/GPa)
#
#
# Indices 1 2 3 4 5 6 
#
# 1 0.034672 -0.002040 -0.010307 0.000002 0.000003 0.000008
# 2 -0.002040 0.005656 -0.001697 -0.000001 0.000000 -0.000001
# 3 -0.010307 -0.001697 0.014103 0.000009 0.000002 0.000006
# 4 0.000002 -0.000001 0.000009 -0.017410 -0.000009 -0.000034
# 5 0.000003 0.000000 0.000002 -0.000009 0.019105 -0.000010
# 6 0.000008 -0.000001 0.000006 -0.000034 -0.000010 0.072605
#
#
# Mechanical properties :
#
#
# Convention : Reuss Voigt Hill
#
# Bulk Modulus (GPa) = 37.96304 58.99817 48.48061
# Shear Modulus (GPa) = 30.19330 17.71162 23.95246
#
# Velocity S-wave (km/s) = 3.54497 2.71511 3.15742
# Velocity P-wave (km/s) = 5.70583 5.86386 5.78538
#
# Compressibility (1/GPa) = 0.02634141
#
# Stress axis : x y z
#
# Youngs Moduli (GPa) = 28.84208 176.79468 70.90856
#
# Poissons Ratio (x) = 0.36073 0.73085
# Poissons Ratio (y) = 0.05885 0.12035
# Poissons Ratio (z) = 0.29727 0.30005
#
# Static dielectric constant tensor:
#      x y z
#    x 1.926990 0.000010 -0.000060 
#    y 0.000010 2.032770 -0.000010 
#    z -0.000060 -0.000010 1.910760 
# 
# From -- ./inp_files/10810.got.cif
#   From: 2010.05.17/outbox.cif.g08.bks.cpg/sg70_6_cif.got.tgz:10810.got - 2010.06.03 15:57:51.
