data_PCOD9517363
_publ_section_title
;
Structure prediction by ZEFSAII (Michael W. Deem and Ramdas Pophale) SiO2 
 PCOD9517363
Probable space group: I M M M
;
_chemical_formula_sum "Si O2"
_cell_formula_units_Z 104
_cell_length_a 25.090131
_cell_length_b 29.500403
_cell_length_c 7.925612
_cell_angle_alpha 90.000000
_cell_angle_beta 90.000000
_cell_angle_gamma 90.000000
_cell_volume 5866.292117
_symmetry_space_group_name_H-M "I M M M"
_symmetry_group_IT_number 71
_symmetry_cell_setting 'orthorhombic'
loop_
_space_group_symop_operation_xyz
x,y,z
-x,-y,z
x,-y,-z
-x,y,-z
-x,-y,-z
x,y,-z
-x,y,z
x,-y,z
1/2+x,1/2+y,1/2+z
1/2-x,1/2-y,1/2+z
1/2+x,1/2-y,1/2-z
1/2-x,1/2+y,1/2-z
1/2-x,1/2-y,1/2-z
1/2+x,1/2+y,1/2-z
1/2-x,1/2+y,1/2+z
1/2+x,1/2-y,1/2+z
loop_
_atom_site_type_symbol
_atom_site_label
_atom_site_fract_x
_atom_site_fract_y
_atom_site_fract_z
Si Si1 0.560944 0.372809 0.201806
Si Si2 0.939029 0.774870 0.200852
Si Si3 0.439084 0.823158 0.799604
Si Si4 0.736565 0.947327 0.705371
Si Si5 0.143441 0.052155 0.706487
Si Si6 0.438602 0.000000 0.706593
Si Si7 0.626194 0.088528 0.297155
O O1 0.500000 0.375317 0.268826
O O2 0.583660 0.322552 0.236758
O O3 0.599388 0.412326 0.266535
O O4 0.557753 0.377916 0.000000
O O5 0.916202 0.726115 0.250084
O O6 0.000000 0.773933 0.269176
O O7 0.940733 0.776938 0.000000
O O8 0.500000 0.827339 0.729461
O O9 0.402791 0.864853 0.745014
O O10 0.442863 0.824303 0.000000
O O11 0.737372 0.945713 0.500000
O O12 0.796376 0.935529 0.761228
O O13 0.686926 0.917395 0.764696
O O14 0.726379 0.000000 0.750080
O O15 0.143175 0.052845 0.500000
O O16 0.132849 0.000000 0.755977
O O17 0.408255 0.954646 0.762853
O O18 0.500000 0.000000 0.760222
O O19 0.438108 0.000000 0.500000
O O20 0.627934 0.085211 0.500000
#
# Coordination Sequence:
#
# PCOD9517363 Si02
#       7
#    16  16  16  16  16   8  16
#     4   9  16  26  43  69  98 124 148 178 221 267
#     4   9  17  30  48  67  87 115 151 187 222 266
#     4  10  20  32  45  64  91 119 146 181 228 277
#     4   8  13  24  42  64  88 116 155 194 223 253
#     4   8  14  24  41  67  97 125 152 184 218 257
#     4   9  16  24  37  61  89 113 140 180 226 265
#     4  10  17  27  45  66  87 115 152 192 226 262
#
# _framework density 17.728404999999999
#
# number of rings (size 3 to 8) (size 9 to 14) (size 15 to 20)
#    0.000    3.000    0.769    2.308    0.000    3.692 
#    0.000    1.923    0.000    3.692    0.000    4.308 
#    0.000    0.000    0.000    0.000    0.000    0.000 
#
# Total GULP energy -289650.178428 kJ/mol
# GULP energy per Si atom -5570.195739 kJ/mol
# Density = 1.768805 g / cm^3
# Si number density = 17.728405 Si / 1000 Ang^3
#
#
#
# Elastic Constant Matrix: (Units=GPa)
#
#
# Indices 1 2 3 4 5 6 
#
# 1 111.9229 97.6246 9.7172 0.0000 0.0000 0.0000
# 2 97.6246 164.7036 5.1622 0.0000 0.0000 0.0000
# 3 9.7172 5.1622 15.7018 0.0000 0.0000 0.0000
# 4 0.0000 0.0000 0.0000 15.7370 0.0000 0.0000
# 5 0.0000 0.0000 0.0000 0.0000 4.5130 0.0000
# 6 0.0000 0.0000 0.0000 0.0000 0.0000 9.2034
#
#
#
# Elastic Compliance Matrix: (Units=1/GPa)
#
#
# Indices 1 2 3 4 5 6 
#
# 1 0.019529 -0.011313 -0.008366 0.000000 0.000000 0.000000
# 2 -0.011313 0.012688 0.002830 0.000000 0.000000 0.000000
# 3 -0.008366 0.002830 0.067934 0.000000 0.000000 0.000000
# 4 0.000000 0.000000 0.000000 0.063544 0.000000 0.000000
# 5 0.000000 0.000000 0.000000 0.000000 0.221581 0.000000
# 6 0.000000 0.000000 0.000000 0.000000 0.000000 0.108656
#
#
# Mechanical properties :
#
#
# Convention : Reuss Voigt Hill
#
# Bulk Modulus (GPa) = 15.04846 57.48180 36.26513
# Shear Modulus (GPa) = 9.09451 17.87898 13.48675
#
# Velocity S-wave (km/s) = 2.26739 3.17912 2.76115
# Velocity P-wave (km/s) = 3.91937 6.78010 5.53765
#
# Compressibility (1/GPa) = 0.06645199
#
# Stress axis : x y z
#
# Youngs Moduli (GPa) = 51.20598 78.81172 14.72018
#
# Poissons Ratio (x) = 0.89161 0.12315
# Poissons Ratio (y) = 0.57930 -0.04165
# Poissons Ratio (z) = 0.42840 -0.22301
#
# Static dielectric constant tensor:
#      x y z
#    x -16.394920 0.000000 0.000000 
#    y 0.000000 1.603570 0.000000 
#    z 0.000000 0.000000 1.642080 
# 
# From -- ./inp_files/13597.got.cif
#   From: 2010.05.17/outbox.cif.g08.bks.cpg/sg71_7_cif.got.tgz:13597.got - 2010.06.03 16:22:01.
