data_PCOD9517020
_publ_section_title
;
Structure prediction by ZEFSAII (Michael W. Deem and Ramdas Pophale) SiO2 
 PCOD9517020
Probable space group: F D D D
;
_chemical_formula_sum "Si O2"
_cell_formula_units_Z 80
_cell_length_a 7.354447
_cell_length_b 20.090735
_cell_length_c 20.845893
_cell_angle_alpha 90.000000
_cell_angle_beta 90.000000
_cell_angle_gamma 90.000000
_cell_volume 3080.110889
_symmetry_space_group_name_H-M "F D D D"
_symmetry_group_IT_number 70
_space_group.IT_coordinate_system_code '2'
_symmetry_cell_setting 'orthorhombic'
loop_
_space_group_symop_operation_xyz
x,y,z
1/4-x,1/4-y,z
x,1/4-y,1/4-z
1/4-x,y,1/4-z
-x,-y,-z
3/4+x,3/4+y,-z
-x,3/4+y,3/4+z
3/4+x,-y,3/4+z
x,1/2+y,1/2+z
1/4-x,3/4-y,1/2+z
x,3/4-y,3/4-z
1/4-x,1/2+y,3/4-z
-x,1/2-y,1/2-z
3/4+x,1/4+y,1/2-z
-x,1/4+y,1/4+z
3/4+x,1/2-y,1/4+z
1/2+x,y,1/2+z
3/4-x,1/4-y,1/2+z
1/2+x,1/4-y,3/4-z
3/4-x,y,3/4-z
1/2-x,-y,1/2-z
1/4+x,3/4+y,1/2-z
1/2-x,3/4+y,1/4+z
1/4+x,-y,1/4+z
1/2+x,1/2+y,z
3/4-x,3/4-y,z
1/2+x,3/4-y,1/4-z
3/4-x,1/2+y,1/4-z
1/2-x,1/2-y,-z
1/4+x,1/4+y,-z
1/2-x,1/4+y,3/4+z
1/4+x,1/2-y,3/4+z
loop_
_atom_site_type_symbol
_atom_site_label
_atom_site_fract_x
_atom_site_fract_y
_atom_site_fract_z
Si Si1 0.125000 0.625000 0.406878
Si Si2 0.656037 0.876277 0.481077
Si Si3 0.406788 0.229675 0.124574
O O1 0.298469 0.617772 0.453626
O O2 0.100240 0.555621 0.370792
O O3 0.603040 0.942850 0.441496
O O4 0.599828 0.815505 0.434279
O O5 0.875000 0.875000 0.487354
O O6 0.625000 0.227403 0.125000
#
# Coordination Sequence:
#
# PCOD9517020 Si02
#       3
#    16  32  32
#     4  12  22  41  70 104 124 182 225 262 340 398
#     4   9  21  44  68  90 135 175 217 275 333 387
#     4   9  21  43  61  99 135 170 222 278 323 390
#
# _framework density 25.973092000000001
#
# number of rings (size 3 to 8) (size 9 to 14) (size 15 to 20)
#    0.000    2.400    0.000    3.600    0.000    9.600 
#   18.000    4.000    0.000    0.000    0.000    0.000 
#    0.000    0.000    0.000    0.000    0.000    0.000 
#
# Total GULP energy -112262.626766 kJ/mol
# GULP energy per Si atom -5613.131338 kJ/mol
# Density = 2.591398 g / cm^3
# Si number density = 25.973092 Si / 1000 Ang^3
#
#
#
# Elastic Constant Matrix: (Units=GPa)
#
#
# Indices 1 2 3 4 5 6 
#
# 1 109.2921 11.0545 9.1342 0.0000 0.0000 0.0000
# 2 11.0545 220.8447 56.9341 0.0000 0.0000 0.0000
# 3 9.1342 56.9341 67.3258 0.0000 0.0000 0.0000
# 4 0.0000 0.0000 0.0000 27.1788 0.0000 0.0000
# 5 0.0000 0.0000 0.0000 0.0000 32.1774 0.0000
# 6 0.0000 0.0000 0.0000 0.0000 0.0000 33.0429
#
#
#
# Elastic Compliance Matrix: (Units=1/GPa)
#
#
# Indices 1 2 3 4 5 6 
#
# 1 0.009260 -0.000179 -0.001105 0.000000 0.000000 0.000000
# 2 -0.000179 0.005794 -0.004875 0.000000 0.000000 0.000000
# 3 -0.001105 -0.004875 0.019126 0.000000 0.000000 0.000000
# 4 0.000000 0.000000 0.000000 0.036793 0.000000 0.000000
# 5 0.000000 0.000000 0.000000 0.000000 0.031078 0.000000
# 6 0.000000 0.000000 0.000000 0.000000 0.000000 0.030264
#
#
# Mechanical properties :
#
#
# Convention : Reuss Voigt Hill
#
# Bulk Modulus (GPa) = 45.74245 61.30090 53.52167
# Shear Modulus (GPa) = 32.91194 39.83582 36.37388
#
# Velocity S-wave (km/s) = 3.56357 3.92054 3.74631
# Velocity P-wave (km/s) = 5.88063 6.64433 6.27411
#
# Compressibility (1/GPa) = 0.02186153
#
# Stress axis : x y z
#
# Youngs Moduli (GPa) = 107.98863 172.59564 52.28487
#
# Poissons Ratio (x) = 0.03082 0.05779
# Poissons Ratio (y) = 0.01928 0.25491
# Poissons Ratio (z) = 0.11936 0.84147
#
# Static dielectric constant tensor:
#      x y z
#    x 2.043380 0.000000 0.000000 
#    y 0.000000 2.002820 0.000000 
#    z 0.000000 0.000000 2.045090 
# 
# From -- ./inp_files/6803.got.cif
#   From: 2010.05.17/outbox.cif.g08.bks.cpg/sg70_4_cif.got.tgz:6803.got - 2010.06.03 15:57:51.
