data_PCOD9517108
_publ_section_title
;
Structure prediction by ZEFSAII (Michael W. Deem and Ramdas Pophale) SiO2 
 PCOD9517108
Probable space group: F D D D
;
_chemical_formula_sum "Si O2"
_cell_formula_units_Z 80
_cell_length_a 18.886951
_cell_length_b 14.593610
_cell_length_c 10.926655
_cell_angle_alpha 90.000000
_cell_angle_beta 90.000000
_cell_angle_gamma 90.000000
_cell_volume 3011.700773
_symmetry_space_group_name_H-M "F D D D"
_symmetry_group_IT_number 70
_space_group.IT_coordinate_system_code '2'
_symmetry_cell_setting 'orthorhombic'
loop_
_space_group_symop_operation_xyz
x,y,z
1/4-x,1/4-y,z
x,1/4-y,1/4-z
1/4-x,y,1/4-z
-x,-y,-z
3/4+x,3/4+y,-z
-x,3/4+y,3/4+z
3/4+x,-y,3/4+z
x,1/2+y,1/2+z
1/4-x,3/4-y,1/2+z
x,3/4-y,3/4-z
1/4-x,1/2+y,3/4-z
-x,1/2-y,1/2-z
3/4+x,1/4+y,1/2-z
-x,1/4+y,1/4+z
3/4+x,1/2-y,1/4+z
1/2+x,y,1/2+z
3/4-x,1/4-y,1/2+z
1/2+x,1/4-y,3/4-z
3/4-x,y,3/4-z
1/2-x,-y,1/2-z
1/4+x,3/4+y,1/2-z
1/2-x,3/4+y,1/4+z
1/4+x,-y,1/4+z
1/2+x,1/2+y,z
3/4-x,3/4-y,z
1/2+x,3/4-y,1/4-z
3/4-x,1/2+y,1/4-z
1/2-x,1/2-y,-z
1/4+x,1/4+y,-z
1/2-x,1/4+y,3/4+z
1/4+x,1/2-y,3/4+z
loop_
_atom_site_type_symbol
_atom_site_label
_atom_site_fract_x
_atom_site_fract_y
_atom_site_fract_z
Si Si1 0.219072 0.225110 0.673666
Si Si2 0.125000 0.369745 0.125000
Si Si3 0.366145 0.269596 0.071625
O O1 0.200698 0.125000 0.625000
O O2 0.186699 0.307717 0.592583
O O3 0.302705 0.236024 0.672356
O O4 0.181436 0.235188 0.806520
O O5 0.088273 0.302237 0.221937
O O6 0.375000 0.375000 0.033333
#
# Coordination Sequence:
#
# PCOD9517108 Si02
#       3
#    32  16  32
#     4  12  27  50  78 111 155 212 266 318 392 486
#     4  12  26  44  76 116 156 202 266 334 392 456
#     4  12  28  49  77 115 160 208 263 326 398 472
#
# _framework density 26.563064000000001
#
# number of rings (size 3 to 8) (size 9 to 14) (size 15 to 20)
#    0.000    0.000    0.000    9.600    0.000   14.400 
#    0.000    0.000    0.000    0.000    0.000    0.000 
#    0.000    0.000    0.000    0.000    0.000    0.000 
#
# Total GULP energy -112138.238125 kJ/mol
# GULP energy per Si atom -5606.911906 kJ/mol
# Density = 2.650261 g / cm^3
# Si number density = 26.563064 Si / 1000 Ang^3
#
#
#
# Elastic Constant Matrix: (Units=GPa)
#
#
# Indices 1 2 3 4 5 6 
#
# 1 123.6464 28.7114 40.7649 0.0000 0.0000 0.0000
# 2 28.7114 278.4719 101.2003 0.0000 0.0000 0.0000
# 3 40.7649 101.2003 168.2651 0.0000 0.0000 0.0000
# 4 0.0000 0.0000 0.0000 55.4957 0.0000 0.0000
# 5 0.0000 0.0000 0.0000 0.0000 20.8082 0.0000
# 6 0.0000 0.0000 0.0000 0.0000 0.0000 52.6341
#
#
#
# Elastic Compliance Matrix: (Units=1/GPa)
#
#
# Indices 1 2 3 4 5 6 
#
# 1 0.008796 -0.000170 -0.002029 0.000000 0.000000 0.000000
# 2 -0.000170 0.004599 -0.002725 0.000000 0.000000 0.000000
# 3 -0.002029 -0.002725 0.008073 0.000000 0.000000 0.000000
# 4 0.000000 0.000000 0.000000 0.018019 0.000000 0.000000
# 5 0.000000 0.000000 0.000000 0.000000 0.048058 0.000000
# 6 0.000000 0.000000 0.000000 0.000000 0.000000 0.018999
#
#
# Mechanical properties :
#
#
# Convention : Reuss Voigt Hill
#
# Bulk Modulus (GPa) = 86.04827 101.30407 93.67617
# Shear Modulus (GPa) = 41.57498 52.43473 47.00485
#
# Velocity S-wave (km/s) = 3.96048 4.44776 4.21117
# Velocity P-wave (km/s) = 7.30604 8.03721 7.68033
#
# Compressibility (1/GPa) = 0.01162138
#
# Stress axis : x y z
#
# Youngs Moduli (GPa) = 113.68969 217.45200 123.86493
#
# Poissons Ratio (x) = 0.03686 0.25132
# Poissons Ratio (y) = 0.01927 0.33750
# Poissons Ratio (z) = 0.23067 0.59250
#
# Static dielectric constant tensor:
#      x y z
#    x 2.155770 0.000000 0.000000 
#    y 0.000000 1.992460 0.000000 
#    z 0.000000 0.000000 2.339890 
# 
# From -- ./inp_files/18227.got.cif
#   From: 2010.05.17/outbox.cif.g08.bks.cpg/sg70_10_cif.got.tgz:18227.got - 2010.06.03 15:57:51.
