data_PCOD9517061
_publ_section_title
;
Structure prediction by ZEFSAII (Michael W. Deem and Ramdas Pophale) SiO2 
 PCOD9517061
Probable space group: F D D D
;
_chemical_formula_sum "Si O2"
_cell_formula_units_Z 128
_cell_length_a 26.525568
_cell_length_b 15.421635
_cell_length_c 13.402565
_cell_angle_alpha 90.000000
_cell_angle_beta 90.000000
_cell_angle_gamma 90.000000
_cell_volume 5482.555472
_symmetry_space_group_name_H-M "F D D D"
_symmetry_group_IT_number 70
_space_group.IT_coordinate_system_code '2'
_symmetry_cell_setting 'orthorhombic'
loop_
_space_group_symop_operation_xyz
x,y,z
1/4-x,1/4-y,z
x,1/4-y,1/4-z
1/4-x,y,1/4-z
-x,-y,-z
3/4+x,3/4+y,-z
-x,3/4+y,3/4+z
3/4+x,-y,3/4+z
x,1/2+y,1/2+z
1/4-x,3/4-y,1/2+z
x,3/4-y,3/4-z
1/4-x,1/2+y,3/4-z
-x,1/2-y,1/2-z
3/4+x,1/4+y,1/2-z
-x,1/4+y,1/4+z
3/4+x,1/2-y,1/4+z
1/2+x,y,1/2+z
3/4-x,1/4-y,1/2+z
1/2+x,1/4-y,3/4-z
3/4-x,y,3/4-z
1/2-x,-y,1/2-z
1/4+x,3/4+y,1/2-z
1/2-x,3/4+y,1/4+z
1/4+x,-y,1/4+z
1/2+x,1/2+y,z
3/4-x,3/4-y,z
1/2+x,3/4-y,1/4-z
3/4-x,1/2+y,1/4-z
1/2-x,1/2-y,-z
1/4+x,1/4+y,-z
1/2-x,1/4+y,3/4+z
1/4+x,1/2-y,3/4+z
loop_
_atom_site_type_symbol
_atom_site_label
_atom_site_fract_x
_atom_site_fract_y
_atom_site_fract_z
Si Si1 0.527571 0.625000 0.625000
Si Si2 0.223448 0.875000 0.375000
Si Si3 0.335123 0.452405 0.202741
Si Si4 0.460893 0.754036 0.508543
Si Si5 0.620137 0.381590 0.011603
O O1 0.559817 0.558455 0.560498
O O2 0.494242 0.673509 0.544073
O O3 0.260154 0.802468 0.329040
O O4 0.185119 0.850425 0.465820
O O5 0.375000 0.375000 0.195062
O O6 0.296842 0.441730 0.110527
O O7 0.358713 0.548881 0.199020
O O8 0.405810 0.715993 0.486031
O O9 0.625000 0.350384 0.125000
#
# Coordination Sequence:
#
# PCOD9517061 Si02
#       5
#    16  16  32  32  32
#     4  12  24  44  76 107 142 207 272 335 393 474
#     4  12  27  50  77 119 154 211 261 333 412 476
#     4  12  24  46  75 109 151 203 270 333 393 476
#     4  12  27  47  76 112 157 206 265 329 415 487
#     4  12  26  51  76 110 161 203 265 334 397 488
#
# _framework density 23.346776999999999
#
# number of rings (size 3 to 8) (size 9 to 14) (size 15 to 20)
#    0.000    0.000    5.000    5.625    3.500    3.000 
#    0.000    0.000    0.000    0.000    0.000    0.000 
#    0.000    0.000    0.000    0.000    0.000    0.000 
#
# Total GULP energy -178933.012619 kJ/mol
# GULP energy per Si atom -5591.656644 kJ/mol
# Density = 2.329364 g / cm^3
# Si number density = 23.346777 Si / 1000 Ang^3
#
#
#
# Elastic Constant Matrix: (Units=GPa)
#
#
# Indices 1 2 3 4 5 6 
#
# 1 99.9340 49.7902 43.6325 0.0000 0.0000 0.0000
# 2 49.7902 81.6450 34.3275 0.0000 0.0000 0.0000
# 3 43.6325 34.3275 96.4913 0.0000 0.0000 0.0000
# 4 0.0000 0.0000 0.0000 52.7840 0.0000 0.0000
# 5 0.0000 0.0000 0.0000 0.0000 56.5157 0.0000
# 6 0.0000 0.0000 0.0000 0.0000 0.0000 113.0243
#
#
#
# Elastic Compliance Matrix: (Units=1/GPa)
#
#
# Indices 1 2 3 4 5 6 
#
# 1 0.015800 -0.007798 -0.004370 0.000000 0.000000 0.000000
# 2 -0.007798 0.018251 -0.002967 0.000000 0.000000 0.000000
# 3 -0.004370 -0.002967 0.013395 0.000000 0.000000 0.000000
# 4 0.000000 0.000000 0.000000 0.018945 0.000000 0.000000
# 5 0.000000 0.000000 0.000000 0.000000 0.017694 0.000000
# 6 0.000000 0.000000 0.000000 0.000000 0.000000 0.008848
#
#
# Mechanical properties :
#
#
# Convention : Reuss Voigt Hill
#
# Bulk Modulus (GPa) = 58.22052 59.28562 58.75307
# Shear Modulus (GPa) = 38.78110 54.48614 46.63362
#
# Velocity S-wave (km/s) = 4.08007 4.83616 4.47411
# Velocity P-wave (km/s) = 6.86931 7.52550 7.20488
#
# Compressibility (1/GPa) = 0.01717607
#
# Stress axis : x y z
#
# Youngs Moduli (GPa) = 63.29141 54.79165 74.65269
#
# Poissons Ratio (x) = 0.42726 0.32627
# Poissons Ratio (y) = 0.49354 0.22148
# Poissons Ratio (z) = 0.27661 0.16256
#
# Static dielectric constant tensor:
#      x y z
#    x 1.936740 0.000000 0.000000 
#    y 0.000000 1.946010 0.000000 
#    z 0.000000 0.000000 1.743310 
# 
# From -- ./inp_files/29664.got.cif
#   From: 2010.05.17/outbox.cif.g08.bks.cpg/sg70_15_cif.got.tgz:29664.got - 2010.06.03 15:57:51.
