data_PCOD9517486
_publ_section_title
;
Structure prediction by ZEFSAII (Michael W. Deem and Ramdas Pophale) SiO2 
 PCOD9517486
Probable space group: I M M M
;
_chemical_formula_sum "Si O2"
_cell_formula_units_Z 80
_cell_length_a 17.327521
_cell_length_b 28.163670
_cell_length_c 8.804171
_cell_angle_alpha 90.000000
_cell_angle_beta 90.000000
_cell_angle_gamma 90.000000
_cell_volume 4296.493409
_symmetry_space_group_name_H-M "I M M M"
_symmetry_group_IT_number 71
_symmetry_cell_setting 'orthorhombic'
loop_
_space_group_symop_operation_xyz
x,y,z
-x,-y,z
x,-y,-z
-x,y,-z
-x,-y,-z
x,y,-z
-x,y,z
x,-y,z
1/2+x,1/2+y,1/2+z
1/2-x,1/2-y,1/2+z
1/2+x,1/2-y,1/2-z
1/2-x,1/2+y,1/2-z
1/2-x,1/2-y,1/2-z
1/2+x,1/2+y,1/2-z
1/2-x,1/2+y,1/2+z
1/2+x,1/2-y,1/2+z
loop_
_atom_site_type_symbol
_atom_site_label
_atom_site_fract_x
_atom_site_fract_y
_atom_site_fract_z
Si Si1 0.176104 0.051625 0.175800
Si Si2 0.646787 0.713596 0.183347
Si Si3 0.000000 0.158623 0.668463
Si Si4 0.409300 0.186553 0.681972
Si Si5 0.733102 0.855555 0.182959
Si Si6 0.000000 0.947351 0.739680
O O1 0.218690 0.098144 0.238608
O O2 0.082791 0.055104 0.177440
O O3 0.195092 0.000000 0.246878
O O4 0.199499 0.049875 0.000000
O O5 0.578203 0.678108 0.238267
O O6 0.619185 0.764620 0.240490
O O7 0.722702 0.691312 0.257370
O O8 0.655844 0.713272 0.000000
O O9 0.000000 0.180220 0.500000
O O10 0.000000 0.102439 0.654993
O O11 0.399911 0.189906 0.500000
O O12 0.500000 0.179484 0.714690
O O13 0.352676 0.146639 0.749308
O O14 0.731551 0.854469 0.000000
O O15 0.000000 0.000000 0.667072
#
# Coordination Sequence:
#
# PCOD9517486 Si02
#       6
#    16  16   8  16  16   8
#     4   9  18  32  52  80 112 145 181 222 266 316
#     4  11  21  37  57  80 114 150 187 226 270 321
#     4  10  20  32  49  76 112 153 186 223 267 312
#     4  11  24  41  59  80 107 141 184 231 279 331
#     4  11  22  36  58  85 112 145 183 225 274 327
#     4  10  17  31  52  77 111 148 190 225 262 312
#
# _framework density 18.619835999999999
#
# number of rings (size 3 to 8) (size 9 to 14) (size 15 to 20)
#    0.000    1.600    3.000    2.700    0.000    2.600 
#    0.000    0.000    0.000    3.000    0.000    4.200 
#    0.000    0.000    0.000    0.000    0.000    0.000 
#
# Total GULP energy -222850.878726 kJ/mol
# GULP energy per Si atom -5571.271968 kJ/mol
# Density = 1.857746 g / cm^3
# Si number density = 18.619836 Si / 1000 Ang^3
#
#
#
# Elastic Constant Matrix: (Units=GPa)
#
#
# Indices 1 2 3 4 5 6 
#
# 1 140.2777 59.5068 39.7753 0.0001 0.0001 -0.0001
# 2 59.5068 103.8029 20.6533 -0.0001 -0.0004 0.0000
# 3 39.7753 20.6533 62.0860 -0.0005 0.0010 -0.0004
# 4 0.0001 -0.0001 -0.0005 8.2160 -0.0005 0.0001
# 5 0.0001 -0.0004 0.0010 -0.0005 78.9779 0.0001
# 6 -0.0001 0.0000 -0.0004 0.0001 0.0001 25.9060
#
#
#
# Elastic Compliance Matrix: (Units=1/GPa)
#
#
# Indices 1 2 3 4 5 6 
#
# 1 0.010787 -0.005150 -0.005198 -0.000001 0.000000 0.000000
# 2 -0.005150 0.012775 -0.000951 0.000000 0.000000 0.000000
# 3 -0.005198 -0.000951 0.019753 0.000001 0.000000 0.000000
# 4 -0.000001 0.000000 0.000001 0.121714 0.000001 0.000000
# 5 0.000000 0.000000 0.000000 0.000001 0.012662 0.000000
# 6 0.000000 0.000000 0.000000 0.000000 0.000000 0.038601
#
#
# Mechanical properties :
#
#
# Convention : Reuss Voigt Hill
#
# Bulk Modulus (GPa) = 48.26482 60.67083 54.46783
# Shear Modulus (GPa) = 20.34229 35.03540 27.68884
#
# Velocity S-wave (km/s) = 3.30889 4.34247 3.86043
# Velocity P-wave (km/s) = 6.36992 7.60246 7.01332
#
# Compressibility (1/GPa) = 0.02071902
#
# Stress axis : x y z
#
# Youngs Moduli (GPa) = 92.70397 78.27836 50.62596
#
# Poissons Ratio (x) = 0.40311 0.26313
# Poissons Ratio (y) = 0.47740 0.04812
# Poissons Ratio (z) = 0.48184 0.07440
#
# Static dielectric constant tensor:
#      x y z
#    x 1.684630 0.000000 0.000000 
#    y 0.000000 1.680910 0.000000 
#    z 0.000000 0.000000 1.649310 
# 
# From -- ./inp_files/8416.got.cif
#   From: 2010.05.17/outbox.cif.g08.bks.cpg/sg71_5_cif.got.tgz:8416.got - 2010.06.03 16:22:01.
