data_PCOD9517665
_publ_section_title
;
Structure prediction by ZEFSAII (Michael W. Deem and Ramdas Pophale) SiO2 
 PCOD9517665
Probable space group: I M M M
;
_chemical_formula_sum "Si O2"
_cell_formula_units_Z 116
_cell_length_a 27.959057
_cell_length_b 8.004379
_cell_length_c 28.081680
_cell_angle_alpha 90.000000
_cell_angle_beta 90.000000
_cell_angle_gamma 90.000000
_cell_volume 6284.536450
_symmetry_space_group_name_H-M "I M M M"
_symmetry_group_IT_number 71
_symmetry_cell_setting 'orthorhombic'
loop_
_space_group_symop_operation_xyz
x,y,z
-x,-y,z
x,-y,-z
-x,y,-z
-x,-y,-z
x,y,-z
-x,y,z
x,-y,z
1/2+x,1/2+y,1/2+z
1/2-x,1/2-y,1/2+z
1/2+x,1/2-y,1/2-z
1/2-x,1/2+y,1/2-z
1/2-x,1/2-y,1/2-z
1/2+x,1/2+y,1/2-z
1/2-x,1/2+y,1/2+z
1/2+x,1/2-y,1/2+z
loop_
_atom_site_type_symbol
_atom_site_label
_atom_site_fract_x
_atom_site_fract_y
_atom_site_fract_z
Si Si1 0.000000 0.207723 0.000000
Si Si2 0.783408 0.801694 0.186238
Si Si3 0.208999 0.200925 0.448232
Si Si4 0.136522 0.801324 0.255152
Si Si5 0.180962 0.301711 0.346173
Si Si6 0.554211 0.798934 0.682960
Si Si7 0.080715 0.296469 0.074917
Si Si8 0.686333 0.202237 0.416203
O O1 0.958346 0.216491 0.958811
O O2 0.816210 0.729623 0.228114
O O3 0.730768 0.729146 0.175908
O O4 0.811568 0.772309 0.137185
O O5 0.778146 0.000000 0.194317
O O6 0.191889 0.260869 0.500000
O O7 0.179778 0.249391 0.401225
O O8 0.264315 0.257145 0.440776
O O9 0.209944 0.000000 0.449229
O O10 0.139285 0.747578 0.309979
O O11 0.090736 0.752284 0.224174
O O12 0.139733 0.000000 0.253792
O O13 0.184949 0.500000 0.346102
O O14 0.500000 0.737884 0.690579
O O15 0.571719 0.749861 0.630065
O O16 0.553199 0.000000 0.682459
O O17 0.074924 0.500000 0.070428
O O18 0.135311 0.253158 0.061785
O O19 0.687329 0.000000 0.413609
#
# Coordination Sequence:
#
# PCOD9517665 Si02
#       8
#     4  16  16  16  16  16  16  16
#     4  12  21  28  44  72 101 126 169 236 287 310
#     4   9  18  31  47  70  97 128 163 202 252 309
#     4   9  18  32  48  70 101 135 169 207 249 296
#     4  11  21  33  51  74  99 130 166 207 260 315
#     4  10  20  33  50  73 102 132 167 207 249 304
#     4  10  20  35  52  72  98 130 170 215 266 316
#     4  10  18  28  43  66  95 126 165 219 274 312
#     4   9  17  28  45  67  92 126 169 212 256 305
#
# _framework density 18.458003999999999
#
# number of rings (size 3 to 8) (size 9 to 14) (size 15 to 20)
#    0.000    2.207    2.069    1.862    0.966    1.655 
#    0.000    0.000    0.000    0.000    0.000    3.379 
#    0.000    0.552    0.000    5.793    0.000    2.483 
#
# Total GULP energy -323068.740374 kJ/mol
# GULP energy per Si atom -5570.150696 kJ/mol
# Density = 1.841599 g / cm^3
# Si number density = 18.458004 Si / 1000 Ang^3
#
#
#
# Elastic Constant Matrix: (Units=GPa)
#
#
# Indices 1 2 3 4 5 6 
#
# 1 49.2195 8.4561 62.2174 0.0000 0.0000 0.0000
# 2 8.4561 17.4549 15.2610 0.0000 0.0000 0.0000
# 3 62.2174 15.2610 157.0766 0.0000 0.0000 0.0000
# 4 0.0000 0.0000 0.0000 77.6729 0.0000 0.0000
# 5 0.0000 0.0000 0.0000 0.0000 653.9118 0.0000
# 6 0.0000 0.0000 0.0000 0.0000 0.0000 -30.1868
#
#
#
# Elastic Compliance Matrix: (Units=1/GPa)
#
#
# Indices 1 2 3 4 5 6 
#
# 1 0.041303 -0.006235 -0.015754 0.000000 0.000000 0.000000
# 2 -0.006235 0.063550 -0.003704 0.000000 0.000000 0.000000
# 3 -0.015754 -0.003704 0.012966 0.000000 0.000000 0.000000
# 4 0.000000 0.000000 0.000000 0.012875 0.000000 0.000000
# 5 0.000000 0.000000 0.000000 0.000000 0.001529 0.000000
# 6 0.000000 0.000000 0.000000 0.000000 0.000000 -0.033127
#
#
# Mechanical properties :
#
#
# Convention : Reuss Voigt Hill
#
# Bulk Modulus (GPa) = 15.05310 43.95779 29.50545
# Shear Modulus (GPa) = 28.96398 149.46734 89.21566
#
# Velocity S-wave (km/s) = 3.96559 9.00848 6.95984
# Velocity P-wave (km/s) = 5.39823 11.49219 8.97807
#
# Compressibility (1/GPa) = 0.06643148
#
# Stress axis : x y z
#
# Youngs Moduli (GPa) = 24.21139 15.73555 77.12257
#
# Poissons Ratio (x) = 0.09812 1.21500
# Poissons Ratio (y) = 0.15097 0.28570
# Poissons Ratio (z) = 0.38143 0.05829
#
# Static dielectric constant tensor:
#      x y z
#    x 1.643880 0.000000 0.000000 
#    y 0.000000 1.672760 0.000000 
#    z 0.000000 0.000000 1.671160 
# 
# From -- ./inp_files/62058.got.cif
#   From: 2010.05.17/outbox.cif.g08.bks.cpg/sg71_32_cif.got.tgz:62058.got - 2010.06.03 16:22:01.
