data_PCOD9517909
_publ_section_title
;
Structure prediction by ZEFSAII (Michael W. Deem and Ramdas Pophale) SiO2 
 PCOD9517909
Probable space group: I M M M
;
_chemical_formula_sum "Si O2"
_cell_formula_units_Z 116
_cell_length_a 32.379285
_cell_length_b 22.702892
_cell_length_c 8.851514
_cell_angle_alpha 90.000000
_cell_angle_beta 90.000000
_cell_angle_gamma 90.000000
_cell_volume 6506.778129
_symmetry_space_group_name_H-M "I M M M"
_symmetry_group_IT_number 71
_symmetry_cell_setting 'orthorhombic'
loop_
_space_group_symop_operation_xyz
x,y,z
-x,-y,z
x,-y,-z
-x,y,-z
-x,-y,-z
x,y,-z
-x,y,z
x,-y,z
1/2+x,1/2+y,1/2+z
1/2-x,1/2-y,1/2+z
1/2+x,1/2-y,1/2-z
1/2-x,1/2+y,1/2-z
1/2-x,1/2-y,1/2-z
1/2+x,1/2+y,1/2-z
1/2-x,1/2+y,1/2+z
1/2+x,1/2-y,1/2+z
loop_
_atom_site_type_symbol
_atom_site_label
_atom_site_fract_x
_atom_site_fract_y
_atom_site_fract_z
Si Si1 0.162152 0.932952 0.818593
Si Si2 0.195455 0.699715 0.682075
Si Si3 0.433498 0.594204 0.319069
Si Si4 0.452562 0.731067 0.680711
Si Si5 0.500000 0.500000 0.778459
Si Si6 0.952759 0.568614 0.181889
Si Si7 0.896431 0.331323 0.319279
Si Si8 0.718966 0.667538 0.180451
O O1 0.114141 0.919380 0.785539
O O2 0.191527 0.885188 0.743393
O O3 0.171503 0.000000 0.772035
O O4 0.166673 0.929153 0.000000
O O5 0.198412 0.695978 0.500000
O O6 0.151255 0.674395 0.730002
O O7 0.234807 0.667729 0.753727
O O8 0.199316 0.768945 0.723728
O O9 0.440626 0.583127 0.500000
O O10 0.443087 0.662526 0.289906
O O11 0.464051 0.551312 0.231922
O O12 0.448814 0.740150 0.500000
O O13 0.500000 0.743813 0.723246
O O14 0.421275 0.774089 0.763521
O O15 0.945949 0.500000 0.221104
O O16 0.919965 0.612166 0.254213
O O17 0.000000 0.584178 0.226321
O O18 0.950701 0.573475 0.000000
O O19 0.897063 0.333322 0.500000
O O20 0.720519 0.664915 0.000000
#
# Coordination Sequence:
#
# PCOD9517909 Si02
#       8
#    16  16  16  16   4  16  16  16
#     4  10  20  33  51  78 109 142 178 219 271 321
#     4   9  20  38  57  79 107 136 168 214 271 324
#     4  10  18  29  49  77 109 146 190 238 277 307
#     4  10  20  32  48  75 110 147 186 228 271 310
#     4  12  17  28  52  80 113 146 195 252 277 298
#     4   9  19  37  59  81 108 143 179 216 259 308
#     4  11  22  35  54  81 111 142 174 214 267 321
#     4  10  20  36  59  81 101 133 177 221 265 318
#
# _framework density 17.827563999999999
#
# number of rings (size 3 to 8) (size 9 to 14) (size 15 to 20)
#    0.000    2.069    1.379    3.103    0.000    4.414 
#    0.000    1.379    0.000    0.828    0.000    1.931 
#    0.000    0.000    0.000    0.000    0.000    0.000 
#
# Total GULP energy -323368.231114 kJ/mol
# GULP energy per Si atom -5575.314330 kJ/mol
# Density = 1.778699 g / cm^3
# Si number density = 17.827564 Si / 1000 Ang^3
#
#
#
# Elastic Constant Matrix: (Units=GPa)
#
#
# Indices 1 2 3 4 5 6 
#
# 1 173.4899 94.6476 47.2193 0.0000 0.0000 0.0000
# 2 94.6476 95.9025 34.7219 0.0000 0.0000 0.0000
# 3 47.2193 34.7219 20.3805 0.0000 0.0000 0.0000
# 4 0.0000 0.0000 0.0000 16.0101 0.0000 0.0000
# 5 0.0000 0.0000 0.0000 0.0000 162.3131 0.0000
# 6 0.0000 0.0000 0.0000 0.0000 0.0000 -116.3404
#
#
#
# Elastic Compliance Matrix: (Units=1/GPa)
#
#
# Indices 1 2 3 4 5 6 
#
# 1 0.017065 -0.006595 -0.028302 0.000000 0.000000 0.000000
# 2 -0.006595 0.029761 -0.035425 0.000000 0.000000 0.000000
# 3 -0.028302 -0.035425 0.174993 0.000000 0.000000 0.000000
# 4 0.000000 0.000000 0.000000 0.062461 0.000000 0.000000
# 5 0.000000 0.000000 0.000000 0.000000 0.006161 0.000000
# 6 0.000000 0.000000 0.000000 0.000000 0.000000 -0.008595
#
#
# Mechanical properties :
#
#
# Convention : Reuss Voigt Hill
#
# Bulk Modulus (GPa) = 12.31902 71.43895 41.87898
# Shear Modulus (GPa) = 11.12231 19.94216 15.53224
#
# Velocity S-wave (km/s) = 2.50047 3.34820 2.95489
# Velocity P-wave (km/s) = 3.90661 7.42337 5.93161
#
# Compressibility (1/GPa) = 0.08117531
#
# Stress axis : x y z
#
# Youngs Moduli (GPa) = 58.60024 33.60060 5.71452
#
# Poissons Ratio (x) = 0.22158 0.16173
# Poissons Ratio (y) = 0.38644 0.20244
# Poissons Ratio (z) = 1.65851 1.19031
#
# Static dielectric constant tensor:
#      x y z
#    x 1.585290 0.000000 0.000000 
#    y 0.000000 1.588770 0.000000 
#    z 0.000000 0.000000 1.614940 
# 
# From -- ./inp_files/17339.got.cif
#   From: 2010.05.17/outbox.cif.g08.bks.cpg/sg71_9_cif.got.tgz:17339.got - 2010.06.03 16:22:01.
