data_PCOD9517754
_publ_section_title
;
Structure prediction by ZEFSAII (Michael W. Deem and Ramdas Pophale) SiO2 
 PCOD9517754
Probable space group: I M M M
;
_chemical_formula_sum "Si O2"
_cell_formula_units_Z 100
_cell_length_a 8.960712
_cell_length_b 14.513130
_cell_length_c 33.749046
_cell_angle_alpha 90.000000
_cell_angle_beta 90.000000
_cell_angle_gamma 90.000000
_cell_volume 4388.995197
_symmetry_space_group_name_H-M "I M M M"
_symmetry_group_IT_number 71
_symmetry_cell_setting 'orthorhombic'
loop_
_space_group_symop_operation_xyz
x,y,z
-x,-y,z
x,-y,-z
-x,y,-z
-x,-y,-z
x,y,-z
-x,y,z
x,-y,z
1/2+x,1/2+y,1/2+z
1/2-x,1/2-y,1/2+z
1/2+x,1/2-y,1/2-z
1/2-x,1/2+y,1/2-z
1/2-x,1/2-y,1/2-z
1/2+x,1/2+y,1/2-z
1/2-x,1/2+y,1/2+z
1/2+x,1/2-y,1/2+z
loop_
_atom_site_type_symbol
_atom_site_label
_atom_site_fract_x
_atom_site_fract_y
_atom_site_fract_z
Si Si1 0.196177 0.500000 0.500000
Si Si2 0.330558 0.638699 0.712653
Si Si3 0.170279 0.363079 0.792464
Si Si4 0.829940 0.864507 0.373146
Si Si5 0.667619 0.858905 0.865232
Si Si6 0.331290 0.635923 0.558216
Si Si7 0.825610 0.644125 0.955170
O O1 0.211677 0.579817 0.533687
O O2 0.500000 0.608875 0.705546
O O3 0.273485 0.609419 0.755700
O O4 0.330940 0.750867 0.709865
O O5 0.217320 0.611025 0.678169
O O6 0.232980 0.392759 0.835116
O O7 0.000000 0.392871 0.787230
O O8 0.834283 0.752771 0.369066
O O9 0.762235 0.888888 0.416190
O O10 0.000000 0.896120 0.370024
O O11 0.500000 0.890074 0.874816
O O12 0.794543 0.884487 0.896466
O O13 0.500000 0.606806 0.547446
O O14 0.321020 0.744210 0.548619
O O15 0.000000 0.617476 0.952086
O O16 0.773918 0.619400 0.000000
#
# Coordination Sequence:
#
# PCOD9517754 Si02
#       7
#     4  16  16  16  16  16  16
#     4  12  21  32  49  62  69  84 113 150 189 232
#     4   9  15  23  36  52  68  86 106 125 147 182
#     4   9  15  22  33  50  70  89 105 124 150 183
#     4   9  16  24  34  48  66  86 108 133 159 190
#     4   9  17  28  38  50  67  86 104 126 158 199
#     4  10  18  29  43  56  67  81 105 138 176 218
#     4   9  16  26  38  50  64  84 110 140 174 213
#
# _framework density 22.78426
#
# number of rings (size 3 to 8) (size 9 to 14) (size 15 to 20)
#    0.000    2.720    0.800    2.640    0.000    8.000 
#    0.000    1.200    0.000    0.000    0.000    0.000 
#    0.000    0.000    0.000    0.000    0.000    0.000 
#
# Total GULP energy -278683.906473 kJ/mol
# GULP energy per Si atom -5573.678129 kJ/mol
# Density = 2.273240 g / cm^3
# Si number density = 22.784260 Si / 1000 Ang^3
#
#
#
# Elastic Constant Matrix: (Units=GPa)
#
#
# Indices 1 2 3 4 5 6 
#
# 1 106.2803 -0.0757 56.0640 0.0000 0.0000 0.0000
# 2 -0.0757 91.2934 -1.1514 0.0000 0.0000 0.0000
# 3 56.0640 -1.1514 177.7929 0.0000 0.0000 0.0000
# 4 0.0000 0.0000 0.0000 -6.2466 0.0000 0.0000
# 5 0.0000 0.0000 0.0000 0.0000 200.4666 0.0000
# 6 0.0000 0.0000 0.0000 0.0000 0.0000 -21.4614
#
#
#
# Elastic Compliance Matrix: (Units=1/GPa)
#
#
# Indices 1 2 3 4 5 6 
#
# 1 0.011287 -0.000036 -0.003559 0.000000 0.000000 0.000000
# 2 -0.000036 0.010955 0.000082 0.000000 0.000000 0.000000
# 3 -0.003559 0.000082 0.006747 0.000000 0.000000 0.000000
# 4 0.000000 0.000000 0.000000 -0.160086 0.000000 0.000000
# 5 0.000000 0.000000 0.000000 0.000000 0.004988 0.000000
# 6 0.000000 0.000000 0.000000 0.000000 0.000000 -0.046595
#
#
# Mechanical properties :
#
#
# Convention : Reuss Voigt Hill
#
# Bulk Modulus (GPa) = 45.53029 53.89339 49.71184
# Shear Modulus (GPa) = -31.57407 55.92035 12.17314
#
# Velocity S-wave (km/s) = -3.72665 4.95951 2.31395
# Velocity P-wave (km/s) = 1.22856 7.51670 5.38563
#
# Compressibility (1/GPa) = 0.02196340
#
# Stress axis : x y z
#
# Youngs Moduli (GPa) = 88.60059 91.28503 148.20508
#
# Poissons Ratio (x) = 0.00324 0.52750
# Poissons Ratio (y) = 0.00315 -0.01217
# Poissons Ratio (z) = 0.31535 -0.00750
#
# Static dielectric constant tensor:
#      x y z
#    x 1.800940 0.000000 0.000000 
#    y 0.000000 1.915580 0.000000 
#    z 0.000000 0.000000 1.823220 
# 
# From -- ./inp_files/68564.got.cif
#   From: 2010.05.17/outbox.cif.g08.bks.cpg/sg71_35_cif.got.tgz:68564.got - 2010.06.03 16:22:01.
