data_PCOD9517374
_publ_section_title
;
Structure prediction by ZEFSAII (Michael W. Deem and Ramdas Pophale) SiO2 
 PCOD9517374
Probable space group: I M M M
;
_chemical_formula_sum "Si O2"
_cell_formula_units_Z 88
_cell_length_a 7.346205
_cell_length_b 24.024834
_cell_length_c 21.426765
_cell_angle_alpha 90.000000
_cell_angle_beta 90.000000
_cell_angle_gamma 90.000000
_cell_volume 3781.638802
_symmetry_space_group_name_H-M "I M M M"
_symmetry_group_IT_number 71
_symmetry_cell_setting 'orthorhombic'
loop_
_space_group_symop_operation_xyz
x,y,z
-x,-y,z
x,-y,-z
-x,y,-z
-x,-y,-z
x,y,-z
-x,y,z
x,-y,z
1/2+x,1/2+y,1/2+z
1/2-x,1/2-y,1/2+z
1/2+x,1/2-y,1/2-z
1/2-x,1/2+y,1/2-z
1/2-x,1/2-y,1/2-z
1/2+x,1/2+y,1/2-z
1/2-x,1/2+y,1/2+z
1/2+x,1/2-y,1/2+z
loop_
_atom_site_type_symbol
_atom_site_label
_atom_site_fract_x
_atom_site_fract_y
_atom_site_fract_z
Si Si1 0.223260 0.348283 0.135584
Si Si2 0.791837 0.400977 0.364174
Si Si3 0.719580 0.238754 0.000000
Si Si4 0.203957 0.632690 0.000000
Si Si5 0.785462 0.566955 0.500000
Si Si6 0.277741 0.939349 0.734507
Si Si7 0.706399 0.278968 0.637850
O O1 0.284872 0.375023 0.069166
O O2 0.279277 0.388532 0.190960
O O3 0.282478 0.283803 0.145912
O O4 0.000000 0.345827 0.131780
O O5 0.711834 0.411245 0.433204
O O6 0.711360 0.432981 0.305354
O O7 0.794855 0.336437 0.341176
O O8 0.000000 0.420527 0.370138
O O9 0.800646 0.300245 0.000000
O O10 0.786253 0.212504 0.936710
O O11 0.500000 0.240466 0.000000
O O12 0.000000 0.608445 0.000000
O O13 0.772764 0.500000 0.500000
O O14 0.000000 0.584274 0.500000
O O15 0.500000 0.936986 0.735827
O O16 0.227172 0.000000 0.709387
O O17 0.500000 0.278366 0.661247
#
# Coordination Sequence:
#
# PCOD9517374 Si02
#       7
#    16  16   8   8   8  16  16
#     4   8  15  28  46  68  96 130 163 196 242 302
#     4  10  19  30  48  73  97 124 164 210 249 290
#     4  10  17  27  46  72 101 128 158 197 237 283
#     4   8  14  27  46  68  97 129 155 186 237 296
#     4   9  17  30  48  70  95 123 158 200 242 282
#     4   9  17  30  48  70  96 126 163 210 258 296
#     4  10  19  31  47  69 101 136 164 195 245 302
#
# _framework density 23.270334999999999
#
# number of rings (size 3 to 8) (size 9 to 14) (size 15 to 20)
#    0.000    2.818    0.000    3.545    0.000    3.636 
#    0.000    0.455    0.000    9.818    0.000    0.000 
#    0.000   11.636    0.000    0.000    0.000    0.000 
#
# Total GULP energy -245178.258691 kJ/mol
# GULP energy per Si atom -5572.233152 kJ/mol
# Density = 2.321737 g / cm^3
# Si number density = 23.270335 Si / 1000 Ang^3
#
#
#
# Elastic Constant Matrix: (Units=GPa)
#
#
# Indices 1 2 3 4 5 6 
#
# 1 92.0172 -4.2901 1.4007 0.0000 0.0000 0.0000
# 2 -4.2901 111.3947 53.5386 0.0000 0.0000 0.0000
# 3 1.4007 53.5386 110.1648 -0.0001 0.0000 0.0000
# 4 0.0000 0.0000 -0.0001 34.3501 0.0000 0.0000
# 5 0.0000 0.0000 0.0000 0.0000 -15.8602 0.0000
# 6 0.0000 0.0000 0.0000 0.0000 0.0000 9.8360
#
#
#
# Elastic Compliance Matrix: (Units=1/GPa)
#
#
# Indices 1 2 3 4 5 6 
#
# 1 0.010904 0.000635 -0.000447 0.000000 0.000000 0.000000
# 2 0.000635 0.011750 -0.005718 0.000000 0.000000 0.000000
# 3 -0.000447 -0.005718 0.011862 0.000000 0.000000 0.000000
# 4 0.000000 0.000000 0.000000 0.029112 0.000000 0.000000
# 5 0.000000 0.000000 0.000000 0.000000 -0.063051 0.000000
# 6 0.000000 0.000000 0.000000 0.000000 0.000000 0.101667
#
#
# Mechanical properties :
#
#
# Convention : Reuss Voigt Hill
#
# Bulk Modulus (GPa) = 42.63568 46.09723 44.36645
# Shear Modulus (GPa) = 41.28013 23.19368 32.23690
#
# Velocity S-wave (km/s) = 4.21638 3.16049 3.72603
# Velocity P-wave (km/s) = 6.48579 5.75940 6.13336
#
# Compressibility (1/GPa) = 0.02345453
#
# Stress axis : x y z
#
# Youngs Moduli (GPa) = 91.70993 85.10710 84.30258
#
# Poissons Ratio (x) = -0.05403 0.03770
# Poissons Ratio (y) = -0.05822 0.48207
# Poissons Ratio (z) = 0.04101 0.48667
#
# Static dielectric constant tensor:
#      x y z
#    x 1.916420 0.000000 0.000000 
#    y 0.000000 1.831140 0.000000 
#    z 0.000000 0.000000 1.939190 
# 
# From -- ./inp_files/50604.got.cif
#   From: 2010.05.17/outbox.cif.g08.bks.cpg/sg71_26_cif.got.tgz:50604.got - 2010.06.03 16:22:01.
