data_PCOD9517422
_publ_section_title
;
Structure prediction by ZEFSAII (Michael W. Deem and Ramdas Pophale) SiO2 
 PCOD9517422
Probable space group: I M M M
;
_chemical_formula_sum "Si O2"
_cell_formula_units_Z 96
_cell_length_a 7.668787
_cell_length_b 28.790688
_cell_length_c 21.314938
_cell_angle_alpha 90.000000
_cell_angle_beta 90.000000
_cell_angle_gamma 90.000000
_cell_volume 4706.117783
_symmetry_space_group_name_H-M "I M M M"
_symmetry_group_IT_number 71
_symmetry_cell_setting 'orthorhombic'
loop_
_space_group_symop_operation_xyz
x,y,z
-x,-y,z
x,-y,-z
-x,y,-z
-x,-y,-z
x,y,-z
-x,y,z
x,-y,z
1/2+x,1/2+y,1/2+z
1/2-x,1/2-y,1/2+z
1/2+x,1/2-y,1/2-z
1/2-x,1/2+y,1/2-z
1/2-x,1/2-y,1/2-z
1/2+x,1/2+y,1/2-z
1/2-x,1/2+y,1/2+z
1/2+x,1/2-y,1/2+z
loop_
_atom_site_type_symbol
_atom_site_label
_atom_site_fract_x
_atom_site_fract_y
_atom_site_fract_z
Si Si1 0.301139 0.081136 0.301257
Si Si2 0.204849 0.184150 0.708315
Si Si3 0.707812 0.277799 0.656789
Si Si4 0.703869 0.944488 0.433307
Si Si5 0.208841 0.635415 0.571382
Si Si6 0.713424 0.052938 0.163565
O O1 0.500000 0.062371 0.302296
O O2 0.302129 0.136593 0.303326
O O3 0.213631 0.067407 0.366650
O O4 0.227052 0.064588 0.234576
O O5 0.227421 0.224774 0.657144
O O6 0.270179 0.202539 0.775875
O O7 0.000000 0.173683 0.714096
O O8 0.500000 0.275532 0.658643
O O9 0.757347 0.314801 0.603858
O O10 0.778867 0.927564 0.500000
O O11 0.500000 0.928835 0.431843
O O12 0.702041 0.000000 0.435735
O O13 0.276204 0.633352 0.500000
O O14 0.273643 0.593301 0.615900
O O15 0.000000 0.630111 0.568467
O O16 0.500000 0.054784 0.163869
O O17 0.762577 0.000000 0.146799
#
# Coordination Sequence:
#
# PCOD9517422 Si02
#       6
#    16  16  16  16  16  16
#     4  10  17  28  50  77 104 136 173 214 258 305
#     4  10  20  33  53  78 104 130 164 212 264 313
#     4  10  20  35  55  77 100 131 171 213 258 311
#     4   8  14  25  43  70 102 133 167 208 252 297
#     4  10  20  34  53  77 108 143 176 217 269 317
#     4   9  17  29  48  76 106 136 177 224 262 304
#
# _framework density 20.398980000000002
#
# number of rings (size 3 to 8) (size 9 to 14) (size 15 to 20)
#    0.000    2.500    1.667    2.000    0.000    4.000 
#    0.000    2.500    0.000    7.000    0.000    2.333 
#    0.000    0.000    0.000    0.000    0.000    0.000 
#
# Total GULP energy -267513.380633 kJ/mol
# GULP energy per Si atom -5573.195430 kJ/mol
# Density = 2.035255 g / cm^3
# Si number density = 20.398980 Si / 1000 Ang^3
#
#
#
# Elastic Constant Matrix: (Units=GPa)
#
#
# Indices 1 2 3 4 5 6 
#
# 1 43.5963 -2.5337 4.4483 0.0000 0.0000 0.0000
# 2 -2.5337 78.1619 37.6484 0.0000 0.0000 0.0000
# 3 4.4483 37.6484 146.9378 0.0000 0.0000 0.0000
# 4 0.0000 0.0000 0.0000 20.4311 0.0000 0.0000
# 5 0.0000 0.0000 0.0000 0.0000 3.2994 0.0000
# 6 0.0000 0.0000 0.0000 0.0000 0.0000 75.8801
#
#
#
# Elastic Compliance Matrix: (Units=1/GPa)
#
#
# Indices 1 2 3 4 5 6 
#
# 1 0.023114 0.001239 -0.001017 0.000000 0.000000 0.000000
# 2 0.001239 0.014662 -0.003794 0.000000 0.000000 0.000000
# 3 -0.001017 -0.003794 0.007809 0.000000 0.000000 0.000000
# 4 0.000000 0.000000 0.000000 0.048945 0.000000 0.000000
# 5 0.000000 0.000000 0.000000 0.000000 0.303085 0.000000
# 6 0.000000 0.000000 0.000000 0.000000 0.000000 0.013179
#
#
# Mechanical properties :
#
#
# Convention : Reuss Voigt Hill
#
# Bulk Modulus (GPa) = 26.01493 38.64687 32.33090
# Shear Modulus (GPa) = 11.60767 35.19765 23.40266
#
# Velocity S-wave (km/s) = 2.38803 4.15837 3.39078
# Velocity P-wave (km/s) = 4.51490 6.48404 5.58691
#
# Compressibility (1/GPa) = 0.03843946
#
# Stress axis : x y z
#
# Youngs Moduli (GPa) = 43.26466 68.20512 128.06517
#
# Poissons Ratio (x) = -0.08452 0.13027
# Poissons Ratio (y) = -0.05361 0.48589
# Poissons Ratio (z) = 0.04401 0.25878
#
# Static dielectric constant tensor:
#      x y z
#    x 1.767370 0.000000 0.000000 
#    y 0.000000 1.720030 0.000000 
#    z 0.000000 0.000000 1.761990 
# 
# From -- ./inp_files/14816.got.cif
#   From: 2010.05.17/outbox.cif.g08.bks.cpg/sg71_8_cif.got.tgz:14816.got - 2010.06.03 16:22:01.
