data_PCOD9517872
_publ_section_title
;
Structure prediction by ZEFSAII (Michael W. Deem and Ramdas Pophale) SiO2 
 PCOD9517872
Probable space group: I M M M
;
_chemical_formula_sum "Si O2"
_cell_formula_units_Z 80
_cell_length_a 19.350578
_cell_length_b 7.660445
_cell_length_c 27.550628
_cell_angle_alpha 90.000000
_cell_angle_beta 90.000000
_cell_angle_gamma 90.000000
_cell_volume 4083.940851
_symmetry_space_group_name_H-M "I M M M"
_symmetry_group_IT_number 71
_symmetry_cell_setting 'orthorhombic'
loop_
_space_group_symop_operation_xyz
x,y,z
-x,-y,z
x,-y,-z
-x,y,-z
-x,-y,-z
x,y,-z
-x,y,z
x,-y,z
1/2+x,1/2+y,1/2+z
1/2-x,1/2-y,1/2+z
1/2+x,1/2-y,1/2-z
1/2-x,1/2+y,1/2-z
1/2-x,1/2-y,1/2-z
1/2+x,1/2+y,1/2-z
1/2-x,1/2+y,1/2+z
1/2+x,1/2-y,1/2+z
loop_
_atom_site_type_symbol
_atom_site_label
_atom_site_fract_x
_atom_site_fract_y
_atom_site_fract_z
Si Si1 0.219375 0.792038 0.697784
Si Si2 0.075648 0.787678 0.057028
Si Si3 0.576643 0.713700 0.844903
Si Si4 0.135030 0.796431 0.446534
Si Si5 0.779928 0.203078 0.903782
O O1 0.250000 0.750000 0.750000
O O2 0.140234 0.731912 0.689233
O O3 0.263478 0.717534 0.653152
O O4 0.219861 0.000000 0.691540
O O5 0.144522 0.724968 0.083625
O O6 0.000000 0.726644 0.074383
O O7 0.074854 0.000000 0.060695
O O8 0.081369 0.745422 0.000000
O O9 0.500000 0.770089 0.830660
O O10 0.576826 0.500000 0.845551
O O11 0.595026 0.775331 0.899604
O O12 0.123177 0.719250 0.500000
O O13 0.216083 0.787494 0.432526
O O14 0.115585 0.000000 0.449121
O O15 0.778717 0.000000 0.918046
#
# Coordination Sequence:
#
# PCOD9517872 Si02
#       5
#    16  16  16  16  16
#     4  10  20  35  54  73  93 119 152 193 239 284
#     4   8  14  25  42  66  95 125 159 198 233 265
#     4   8  15  29  49  72  95 120 155 196 231 266
#     4   9  17  28  44  69 100 131 160 192 230 271
#     4  10  18  29  48  71  94 123 159 198 237 279
#
# _framework density 19.588923999999999
#
# number of rings (size 3 to 8) (size 9 to 14) (size 15 to 20)
#    0.000    3.000    0.000    3.600    0.000    1.600 
#    0.000    3.000    0.000   23.400    0.000   12.600 
#    0.000    0.000    0.000    0.000    0.000    0.000 
#
# Total GULP energy -222963.436770 kJ/mol
# GULP energy per Si atom -5574.085919 kJ/mol
# Density = 1.954434 g / cm^3
# Si number density = 19.588924 Si / 1000 Ang^3
#
#
#
# Elastic Constant Matrix: (Units=GPa)
#
#
# Indices 1 2 3 4 5 6 
#
# 1 161.2634 -5.3976 51.8654 0.0000 0.0000 0.0000
# 2 -5.3976 37.6811 -9.0401 0.0000 0.0000 0.0000
# 3 51.8654 -9.0401 87.8384 0.0000 0.0000 0.0000
# 4 0.0000 0.0000 0.0000 14.1713 0.0000 0.0000
# 5 0.0000 0.0000 0.0000 0.0000 12.7287 0.0000
# 6 0.0000 0.0000 0.0000 0.0000 0.0000 15.3720
#
#
#
# Elastic Compliance Matrix: (Units=1/GPa)
#
#
# Indices 1 2 3 4 5 6 
#
# 1 0.007655 0.000012 -0.004519 0.000000 0.000000 0.000000
# 2 0.000012 0.027210 0.002793 0.000000 0.000000 0.000000
# 3 -0.004519 0.002793 0.014340 0.000000 0.000000 0.000000
# 4 0.000000 0.000000 0.000000 0.070565 0.000000 0.000000
# 5 0.000000 0.000000 0.000000 0.000000 0.078563 0.000000
# 6 0.000000 0.000000 0.000000 0.000000 0.000000 0.065054
#
#
# Mechanical properties :
#
#
# Convention : Reuss Voigt Hill
#
# Bulk Modulus (GPa) = 21.84407 40.18206 31.01307
# Shear Modulus (GPa) = 17.72595 25.07806 21.40200
#
# Velocity S-wave (km/s) = 3.01141 3.58189 3.30897
# Velocity P-wave (km/s) = 4.82358 6.13708 5.51954
#
# Compressibility (1/GPa) = 0.04577901
#
# Stress axis : x y z
#
# Youngs Moduli (GPa) = 130.63862 36.75071 69.73486
#
# Poissons Ratio (x) = -0.00046 0.31510
# Poissons Ratio (y) = -0.00163 -0.19477
# Poissons Ratio (z) = 0.59030 -0.10265
#
# Static dielectric constant tensor:
#      x y z
#    x 1.718630 0.000000 0.000000 
#    y 0.000000 1.761300 0.000000 
#    z 0.000000 0.000000 1.682980 
# 
# From -- ./inp_files/8262.got.cif
#   From: 2010.05.17/outbox.cif.g08.bks.cpg/sg71_5_cif.got.tgz:8262.got - 2010.06.03 16:22:01.
