data_PCOD9517600
_publ_section_title
;
Structure prediction by ZEFSAII (Michael W. Deem and Ramdas Pophale) SiO2 
 PCOD9517600
Probable space group: I M M M
;
_chemical_formula_sum "Si O2"
_cell_formula_units_Z 100
_cell_length_a 29.599721
_cell_length_b 27.319182
_cell_length_c 7.499859
_cell_angle_alpha 90.000000
_cell_angle_beta 90.000000
_cell_angle_gamma 90.000000
_cell_volume 6064.687220
_symmetry_space_group_name_H-M "I M M M"
_symmetry_group_IT_number 71
_symmetry_cell_setting 'orthorhombic'
loop_
_space_group_symop_operation_xyz
x,y,z
-x,-y,z
x,-y,-z
-x,y,-z
-x,-y,-z
x,y,-z
-x,y,z
x,-y,z
1/2+x,1/2+y,1/2+z
1/2-x,1/2-y,1/2+z
1/2+x,1/2-y,1/2-z
1/2-x,1/2+y,1/2-z
1/2-x,1/2-y,1/2-z
1/2+x,1/2+y,1/2-z
1/2-x,1/2+y,1/2+z
1/2+x,1/2-y,1/2+z
loop_
_atom_site_type_symbol
_atom_site_label
_atom_site_fract_x
_atom_site_fract_y
_atom_site_fract_z
Si Si1 0.337660 0.500000 0.000000
Si Si2 0.195593 0.927271 0.204811
Si Si3 0.947509 0.554815 0.782336
Si Si4 0.875696 0.368899 0.796793
Si Si5 0.313092 0.212555 0.715510
Si Si6 0.285730 0.679743 0.209969
Si Si7 0.699538 0.945247 0.785405
O O1 0.334139 0.457217 0.156931
O O2 0.191907 0.868558 0.211635
O O3 0.247915 0.937972 0.258943
O O4 0.189803 0.942963 0.000000
O O5 0.933286 0.500000 0.724608
O O6 0.915592 0.598341 0.715674
O O7 0.000000 0.561377 0.734681
O O8 0.945023 0.554740 0.000000
O O9 0.855340 0.319148 0.716978
O O10 0.832645 0.405135 0.798171
O O11 0.889590 0.357717 0.000000
O O12 0.312706 0.208722 0.500000
O O13 0.312163 0.269634 0.761249
O O14 0.265295 0.189720 0.780676
O O15 0.281651 0.670984 0.000000
O O16 0.686014 0.000000 0.731224
O O17 0.695731 0.941315 0.000000
#
# Coordination Sequence:
#
# PCOD9517600 Si02
#       7
#     4  16  16  16  16  16  16
#     4  12  22  32  48  62  84 116 147 182 211 276
#     4  11  21  32  45  62  86 112 142 181 223 260
#     4   8  14  25  40  61  85 107 136 178 229 282
#     4  10  18  27  43  61  77 102 137 178 221 270
#     4   9  18  28  40  58  80 103 140 180 220 267
#     4  10  18  30  44  59  79 111 140 175 223 270
#     4  10  20  29  37  54  79 103 130 171 221 263
#
# _framework density 16.488897999999999
#
# number of rings (size 3 to 8) (size 9 to 14) (size 15 to 20)
#    0.000    2.240    3.200    1.680    1.120    2.240 
#    0.000    0.000    0.000    0.480    0.000    2.240 
#    0.000    0.000    0.000    0.000    0.000    0.000 
#
# Total GULP energy -278394.695071 kJ/mol
# GULP energy per Si atom -5567.893901 kJ/mol
# Density = 1.645137 g / cm^3
# Si number density = 16.488898 Si / 1000 Ang^3
#
#
#
# Elastic Constant Matrix: (Units=GPa)
#
#
# Indices 1 2 3 4 5 6 
#
# 1 39.2617 30.5650 2.6016 0.0000 0.0000 0.0000
# 2 30.5650 133.4715 13.4884 0.0000 0.0000 0.0000
# 3 2.6016 13.4884 65.6416 0.0000 0.0000 0.0000
# 4 0.0000 0.0000 0.0000 17.3603 0.0000 0.0000
# 5 0.0000 0.0000 0.0000 0.0000 0.0345 0.0000
# 6 0.0000 0.0000 0.0000 0.0000 0.0000 33.4973
#
#
#
# Elastic Compliance Matrix: (Units=1/GPa)
#
#
# Indices 1 2 3 4 5 6 
#
# 1 0.030999 -0.007123 0.000235 0.000000 0.000000 0.000000
# 2 -0.007123 0.009288 -0.001626 0.000000 0.000000 0.000000
# 3 0.000235 -0.001626 0.015559 0.000000 0.000000 0.000000
# 4 0.000000 0.000000 0.000000 0.057603 0.000000 0.000000
# 5 0.000000 0.000000 0.000000 0.000000 28.983183 0.000000
# 6 0.000000 0.000000 0.000000 0.000000 0.000000 0.029853
#
#
# Mechanical properties :
#
#
# Convention : Reuss Voigt Hill
#
# Bulk Modulus (GPa) = 25.76087 36.85385 31.30736
# Shear Modulus (GPa) = 0.17149 22.95973 11.56561
#
# Velocity S-wave (km/s) = 0.32284 3.73558 2.65130
# Velocity P-wave (km/s) = 3.97442 6.40354 5.32923
#
# Compressibility (1/GPa) = 0.03881857
#
# Stress axis : x y z
#
# Youngs Moduli (GPa) = 32.25865 107.66976 64.27108
#
# Poissons Ratio (x) = 0.76689 -0.01510
# Poissons Ratio (y) = 0.22977 0.10452
# Poissons Ratio (z) = -0.00758 0.17509
#
# Static dielectric constant tensor:
#      x y z
#    x 1.532910 0.000000 0.000000 
#    y 0.000000 1.592280 0.000000 
#    z 0.000000 0.000000 1.616560 
# 
# From -- ./inp_files/17438.got.cif
#   From: 2010.05.17/outbox.cif.g08.bks.cpg/sg71_9_cif.got.tgz:17438.got - 2010.06.03 16:22:01.
