data_PCOD9517624
_publ_section_title
;
Structure prediction by ZEFSAII (Michael W. Deem and Ramdas Pophale) SiO2 
 PCOD9517624
Probable space group: I M M M
;
_chemical_formula_sum "Si O2"
_cell_formula_units_Z 88
_cell_length_a 31.399186
_cell_length_b 7.338715
_cell_length_c 21.026098
_cell_angle_alpha 90.000000
_cell_angle_beta 90.000000
_cell_angle_gamma 90.000000
_cell_volume 4845.036977
_symmetry_space_group_name_H-M "I M M M"
_symmetry_group_IT_number 71
_symmetry_cell_setting 'orthorhombic'
loop_
_space_group_symop_operation_xyz
x,y,z
-x,-y,z
x,-y,-z
-x,y,-z
-x,-y,-z
x,y,-z
-x,y,z
x,-y,z
1/2+x,1/2+y,1/2+z
1/2-x,1/2-y,1/2+z
1/2+x,1/2-y,1/2-z
1/2-x,1/2+y,1/2-z
1/2-x,1/2-y,1/2-z
1/2+x,1/2+y,1/2-z
1/2-x,1/2+y,1/2+z
1/2+x,1/2-y,1/2+z
loop_
_atom_site_type_symbol
_atom_site_label
_atom_site_fract_x
_atom_site_fract_y
_atom_site_fract_z
Si Si1 0.632503 0.777775 0.199533
Si Si2 0.451488 0.777208 0.858822
Si Si3 0.725540 0.214701 0.430787
Si Si4 0.448089 0.208459 0.000000
Si Si5 0.706845 0.781608 0.709050
Si Si6 0.326417 0.780879 0.068217
O O1 0.583118 0.724051 0.193856
O O2 0.664908 0.715304 0.253850
O O3 0.652049 0.717026 0.132258
O O4 0.633322 0.000000 0.201390
O O5 0.500000 0.719946 0.846832
O O6 0.451721 0.000000 0.861973
O O7 0.437861 0.715620 0.930167
O O8 0.711553 0.289373 0.500000
O O9 0.710002 0.289717 0.363102
O O10 0.776645 0.233721 0.429196
O O11 0.715322 0.000000 0.431469
O O12 0.500000 0.202340 0.000000
O O13 0.431714 0.000000 0.000000
O O14 0.750000 0.750000 0.750000
O O15 0.703657 0.000000 0.704841
O O16 0.329803 0.000000 0.068529
O O17 0.343700 0.716433 0.000000
#
# Coordination Sequence:
#
# PCOD9517624 Si02
#       6
#    16  16  16   8  16  16
#     4   9  16  23  33  50  71  97 125 152 184 219
#     4   8  13  20  29  43  66  94 121 147 178 217
#     4   9  17  28  40  52  70  99 130 156 181 214
#     4   7  10  16  26  40  60  90 121 145 173 211
#     4  10  18  28  40  55  77 100 124 155 187 221
#     4   9  16  24  35  53  76  99 123 152 186 220
#
# _framework density 18.162915999999999
#
# number of rings (size 3 to 8) (size 9 to 14) (size 15 to 20)
#    0.000    3.182    1.818    1.091    1.273    0.000 
#    0.000    0.000    0.000    0.000    0.000    0.000 
#    0.000    3.636    0.000   14.727    0.000    4.727 
#
# Total GULP energy -245196.139192 kJ/mol
# GULP energy per Si atom -5572.639527 kJ/mol
# Density = 1.812158 g / cm^3
# Si number density = 18.162916 Si / 1000 Ang^3
#
#
#
# Elastic Constant Matrix: (Units=GPa)
#
#
# Indices 1 2 3 4 5 6 
#
# 1 112.3564 -0.4176 80.3483 0.0000 0.0000 0.0000
# 2 -0.4176 70.8291 9.0189 0.0000 0.0000 0.0000
# 3 80.3483 9.0189 159.1817 0.0000 0.0000 0.0000
# 4 0.0000 0.0000 0.0000 -2.6496 0.0000 0.0000
# 5 0.0000 0.0000 0.0000 0.0000 35.1335 0.0000
# 6 0.0000 0.0000 0.0000 0.0000 0.0000 -0.7540
#
#
#
# Elastic Compliance Matrix: (Units=1/GPa)
#
#
# Indices 1 2 3 4 5 6 
#
# 1 0.013996 0.000989 -0.007121 0.000000 0.000000 0.000000
# 2 0.000989 0.014291 -0.001309 0.000000 0.000000 0.000000
# 3 -0.007121 -0.001309 0.009951 0.000000 0.000000 0.000000
# 4 0.000000 0.000000 0.000000 -0.377412 0.000000 0.000000
# 5 0.000000 0.000000 0.000000 0.000000 0.028463 0.000000
# 6 0.000000 0.000000 0.000000 0.000000 0.000000 -1.326347
#
#
# Mechanical properties :
#
#
# Convention : Reuss Voigt Hill
#
# Bulk Modulus (GPa) = 42.81439 57.80736 50.31088
# Shear Modulus (GPa) = -3.09714 23.24049 10.07167
#
# Velocity S-wave (km/s) = -1.30725 3.58097 2.35738
# Velocity P-wave (km/s) = 4.62007 6.99957 5.93039
#
# Compressibility (1/GPa) = 0.02335663
#
# Stress axis : x y z
#
# Youngs Moduli (GPa) = 71.44868 69.97410 100.49731
#
# Poissons Ratio (x) = -0.06922 0.71561
# Poissons Ratio (y) = -0.07068 0.13155
# Poissons Ratio (z) = 0.50876 0.09160
#
# Static dielectric constant tensor:
#      x y z
#    x 1.636380 0.000000 0.000000 
#    y 0.000000 1.610870 0.000000 
#    z 0.000000 0.000000 1.652760 
# 
# From -- ./inp_files/11379.got.cif
#   From: 2010.05.17/outbox.cif.g08.bks.cpg/sg71_6_cif.got.tgz:11379.got - 2010.06.03 16:22:01.
