data_PCOD9517884
_publ_section_title
;
Structure prediction by ZEFSAII (Michael W. Deem and Ramdas Pophale) SiO2 
 PCOD9517884
Probable space group: I M M M
;
_chemical_formula_sum "Si O2"
_cell_formula_units_Z 64
_cell_length_a 25.416337
_cell_length_b 8.372272
_cell_length_c 14.775337
_cell_angle_alpha 90.000000
_cell_angle_beta 90.000000
_cell_angle_gamma 90.000000
_cell_volume 3144.080701
_symmetry_space_group_name_H-M "I M M M"
_symmetry_group_IT_number 71
_symmetry_cell_setting 'orthorhombic'
loop_
_space_group_symop_operation_xyz
x,y,z
-x,-y,z
x,-y,-z
-x,y,-z
-x,-y,-z
x,y,-z
-x,y,z
x,-y,z
1/2+x,1/2+y,1/2+z
1/2-x,1/2-y,1/2+z
1/2+x,1/2-y,1/2-z
1/2-x,1/2+y,1/2-z
1/2-x,1/2-y,1/2-z
1/2+x,1/2+y,1/2-z
1/2-x,1/2+y,1/2+z
1/2+x,1/2-y,1/2+z
loop_
_atom_site_type_symbol
_atom_site_label
_atom_site_fract_x
_atom_site_fract_y
_atom_site_fract_z
Si Si1 0.057072 0.500000 0.848127
Si Si2 0.333087 0.319859 0.108660
Si Si3 0.058039 0.317890 0.330113
Si Si4 0.225011 0.174800 0.889244
Si Si5 0.174147 0.500000 0.102627
O O1 0.058238 0.648740 0.777755
O O2 0.111184 0.500000 0.900174
O O3 0.000000 0.500000 0.893989
O O4 0.318013 0.500000 0.134312
O O5 0.390812 0.277934 0.143388
O O6 0.285962 0.202769 0.136014
O O7 0.335528 0.313030 0.000000
O O8 0.062437 0.500000 0.368478
O O9 0.000000 0.254787 0.355519
O O10 0.193719 0.331945 0.856864
O O11 0.206704 0.000000 0.857876
O O12 0.221731 0.172747 0.000000
O O13 0.195802 0.500000 0.000000
#
# Coordination Sequence:
#
# PCOD9517884 Si02
#       5
#     8  16  16  16   8
#     4   8  18  37  55  72 100 134 170 216 263 313
#     4  10  18  29  48  74 105 138 178 221 253 294
#     4   8  17  33  49  64  94 138 174 211 254 299
#     4   9  17  30  50  76 107 139 165 202 261 312
#     4  10  18  33  58  83 104 128 168 216 263 317
#
# _framework density 20.355712
#
# number of rings (size 3 to 8) (size 9 to 14) (size 15 to 20)
#    0.750    2.250    1.250    0.750    0.000    2.750 
#    0.000    5.000    0.000    2.250    0.000    3.500 
#    0.000    0.000    0.000    0.000    0.000    0.000 
#
# Total GULP energy -178152.702425 kJ/mol
# GULP energy per Si atom -5567.271951 kJ/mol
# Density = 2.030938 g / cm^3
# Si number density = 20.355712 Si / 1000 Ang^3
#
#
#
# Elastic Constant Matrix: (Units=GPa)
#
#
# Indices 1 2 3 4 5 6 
#
# 1 120.9614 53.1516 10.7992 0.0000 0.0000 0.0000
# 2 53.1516 127.0909 13.5407 0.0000 0.0000 0.0000
# 3 10.7992 13.5407 38.4246 0.0000 0.0000 0.0000
# 4 0.0000 0.0000 0.0000 -54.4626 0.0000 0.0000
# 5 0.0000 0.0000 0.0000 0.0000 28.2216 0.0000
# 6 0.0000 0.0000 0.0000 0.0000 0.0000 16.7681
#
#
#
# Elastic Compliance Matrix: (Units=1/GPa)
#
#
# Indices 1 2 3 4 5 6 
#
# 1 0.010202 -0.004116 -0.001417 0.000000 0.000000 0.000000
# 2 -0.004116 0.009836 -0.002309 0.000000 0.000000 0.000000
# 3 -0.001417 -0.002309 0.027237 0.000000 0.000000 0.000000
# 4 0.000000 0.000000 0.000000 -0.018361 0.000000 0.000000
# 5 0.000000 0.000000 0.000000 0.000000 0.035434 0.000000
# 6 0.000000 0.000000 0.000000 0.000000 0.000000 0.059637
#
#
# Mechanical properties :
#
#
# Convention : Reuss Voigt Hill
#
# Bulk Modulus (GPa) = 31.65476 49.05109 40.35293
# Shear Modulus (GPa) = 33.28926 12.03780 22.66353
#
# Velocity S-wave (km/s) = 4.04837 2.43445 3.34035
# Velocity P-wave (km/s) = 6.11857 5.66139 5.89442
#
# Compressibility (1/GPa) = 0.03159082
#
# Stress axis : x y z
#
# Youngs Moduli (GPa) = 98.01914 101.67046 36.71476
#
# Poissons Ratio (x) = 0.41845 0.05202
# Poissons Ratio (y) = 0.40342 0.08479
# Poissons Ratio (z) = 0.13889 0.23479
#
# Static dielectric constant tensor:
#      x y z
#    x 1.700400 0.000000 0.000000 
#    y 0.000000 1.747960 0.000000 
#    z 0.000000 0.000000 1.751930 
# 
# From -- ./inp_files/47875.got.cif
#   From: 2010.05.17/outbox.cif.g08.bks.cpg/sg71_24_cif.got.tgz:47875.got - 2010.06.03 16:22:01.
