data_PCOD9517336
_publ_section_title
;
Structure prediction by ZEFSAII (Michael W. Deem and Ramdas Pophale) SiO2 
 PCOD9517336
Probable space group: I M M M
;
_chemical_formula_sum "Si O2"
_cell_formula_units_Z 116
_cell_length_a 29.609833
_cell_length_b 23.932322
_cell_length_c 7.384634
_cell_angle_alpha 90.000000
_cell_angle_beta 90.000000
_cell_angle_gamma 90.000000
_cell_volume 5232.988387
_symmetry_space_group_name_H-M "I M M M"
_symmetry_group_IT_number 71
_symmetry_cell_setting 'orthorhombic'
loop_
_space_group_symop_operation_xyz
x,y,z
-x,-y,z
x,-y,-z
-x,y,-z
-x,-y,-z
x,y,-z
-x,y,z
x,-y,z
1/2+x,1/2+y,1/2+z
1/2-x,1/2-y,1/2+z
1/2+x,1/2-y,1/2-z
1/2-x,1/2+y,1/2-z
1/2-x,1/2-y,1/2-z
1/2+x,1/2+y,1/2-z
1/2-x,1/2+y,1/2+z
1/2+x,1/2-y,1/2+z
loop_
_atom_site_type_symbol
_atom_site_label
_atom_site_fract_x
_atom_site_fract_y
_atom_site_fract_z
Si Si1 0.686542 0.750506 0.708565
Si Si2 0.358752 0.062496 0.286079
Si Si3 0.951728 0.624930 0.717960
Si Si4 0.500000 0.405121 0.500000
Si Si5 0.076079 0.129974 0.721542
Si Si6 0.084387 0.740820 0.281976
Si Si7 0.821611 0.876109 0.298028
Si Si8 0.774498 0.634739 0.222843
O O1 0.697392 0.739177 0.500000
O O2 0.634879 0.771810 0.715759
O O3 0.683874 0.691434 0.807402
O O4 0.717611 0.800682 0.778044
O O5 0.350130 0.058686 0.500000
O O6 0.407394 0.090814 0.266764
O O7 0.317789 0.100075 0.214817
O O8 0.359031 0.000000 0.210888
O O9 0.952547 0.625614 0.500000
O O10 0.946112 0.689334 0.777841
O O11 0.000000 0.602277 0.781638
O O12 0.460390 0.402217 0.339880
O O13 0.071772 0.124489 0.500000
O O14 0.070401 0.196296 0.768374
O O15 0.127978 0.114791 0.774702
O O16 0.085756 0.740887 0.500000
O O17 0.822472 0.900097 0.500000
O O18 0.773163 0.891112 0.214611
O O19 0.773609 0.635839 0.000000
#
# Coordination Sequence:
#
# PCOD9517336 Si02
#       8
#    16  16  16   4  16  16  16  16
#     4  10  17  26  46  71  98 123 159 202 245 306
#     4  10  21  38  56  75  98 123 160 212 266 321
#     4  10  21  36  53  70  91 126 168 215 267 316
#     4  12  22  32  52  70 104 148 188 212 254 294
#     4   9  20  34  48  71 102 142 181 220 254 299
#     4   9  18  32  47  64  95 127 167 213 262 305
#     4   9  18  32  47  66 100 133 164 202 248 301
#     4   9  17  31  50  72  95 128 159 197 256 319
#
# _framework density 22.167066999999999
#
# number of rings (size 3 to 8) (size 9 to 14) (size 15 to 20)
#    0.000    2.483    1.379    1.862    4.828    0.828 
#    0.000    2.759    0.000    0.000    0.000    0.000 
#    0.000    0.000    0.000    1.241    0.000   17.655 
#
# Total GULP energy -323039.192396 kJ/mol
# GULP energy per Si atom -5569.641248 kJ/mol
# Density = 2.211661 g / cm^3
# Si number density = 22.167067 Si / 1000 Ang^3
#
#
#
# Elastic Constant Matrix: (Units=GPa)
#
#
# Indices 1 2 3 4 5 6 
#
# 1 179.0556 14.6419 10.8200 0.0000 0.0000 0.0000
# 2 14.6419 14.3611 -2.5489 0.0000 0.0000 0.0000
# 3 10.8200 -2.5489 90.8184 0.0000 0.0000 0.0000
# 4 0.0000 0.0000 0.0000 3.2502 0.0000 0.0000
# 5 0.0000 0.0000 0.0000 0.0000 14.3040 0.0000
# 6 0.0000 0.0000 0.0000 0.0000 0.0000 76.5213
#
#
#
# Elastic Compliance Matrix: (Units=1/GPa)
#
#
# Indices 1 2 3 4 5 6 
#
# 1 0.006168 -0.006451 -0.000916 0.000000 0.000000 0.000000
# 2 -0.006451 0.076728 0.002922 0.000000 0.000000 0.000000
# 3 -0.000916 0.002922 0.011202 0.000000 0.000000 0.000000
# 4 0.000000 0.000000 0.000000 0.307673 0.000000 0.000000
# 5 0.000000 0.000000 0.000000 0.000000 0.069910 0.000000
# 6 0.000000 0.000000 0.000000 0.000000 0.000000 0.013068
#
#
# Mechanical properties :
#
#
# Convention : Reuss Voigt Hill
#
# Bulk Modulus (GPa) = 11.73593 36.67345 24.20469
# Shear Modulus (GPa) = 9.57777 36.23658 22.90718
#
# Velocity S-wave (km/s) = 2.08089 4.04753 3.21812
# Velocity P-wave (km/s) = 3.32855 6.19866 4.97507
#
# Compressibility (1/GPa) = 0.08520845
#
# Stress axis : x y z
#
# Youngs Moduli (GPa) = 162.13494 13.03304 89.26892
#
# Poissons Ratio (x) = 0.08407 0.08176
# Poissons Ratio (y) = 1.04591 -0.26084
# Poissons Ratio (z) = 0.14849 -0.03808
#
# Static dielectric constant tensor:
#      x y z
#    x 1.880820 0.000000 0.000000 
#    y 0.000000 1.795740 0.000000 
#    z 0.000000 0.000000 2.228490 
# 
# From -- ./inp_files/15660.got.cif
#   From: 2010.05.17/outbox.cif.g08.bks.cpg/sg71_8_cif.got.tgz:15660.got - 2010.06.03 16:22:01.
