data_PCOD9517803
_publ_section_title
;
Structure prediction by ZEFSAII (Michael W. Deem and Ramdas Pophale) SiO2 
 PCOD9517803
Probable space group: I M M M
;
_chemical_formula_sum "Si O2"
_cell_formula_units_Z 128
_cell_length_a 15.081236
_cell_length_b 19.994600
_cell_length_c 22.346733
_cell_angle_alpha 90.000000
_cell_angle_beta 90.000000
_cell_angle_gamma 90.000000
_cell_volume 6738.507196
_symmetry_space_group_name_H-M "I M M M"
_symmetry_group_IT_number 71
_symmetry_cell_setting 'orthorhombic'
loop_
_space_group_symop_operation_xyz
x,y,z
-x,-y,z
x,-y,-z
-x,y,-z
-x,-y,-z
x,y,-z
-x,y,z
x,-y,z
1/2+x,1/2+y,1/2+z
1/2-x,1/2-y,1/2+z
1/2+x,1/2-y,1/2-z
1/2-x,1/2+y,1/2-z
1/2-x,1/2-y,1/2-z
1/2+x,1/2+y,1/2-z
1/2-x,1/2+y,1/2+z
1/2+x,1/2-y,1/2+z
loop_
_atom_site_type_symbol
_atom_site_label
_atom_site_fract_x
_atom_site_fract_y
_atom_site_fract_z
Si Si1 0.339053 0.926279 0.683334
Si Si2 0.107074 0.794144 0.434453
Si Si3 0.893159 0.074520 0.882750
Si Si4 0.604014 0.283645 0.805426
Si Si5 0.108437 0.785012 0.065626
Si Si6 0.653154 0.424450 0.756335
Si Si7 0.221114 0.074473 0.565826
Si Si8 0.601443 0.218562 0.313528
O O1 0.257827 0.923430 0.730222
O O2 0.291302 0.919330 0.618844
O O3 0.396993 0.861004 0.691359
O O4 0.380660 0.000000 0.686882
O O5 0.131779 0.765103 0.500000
O O6 0.138512 0.763296 0.371103
O O7 0.148029 0.868288 0.432117
O O8 0.000000 0.796853 0.432727
O O9 0.865417 0.137971 0.921888
O O10 0.867405 0.086119 0.813484
O O11 0.000000 0.073388 0.884976
O O12 0.861697 0.000000 0.900494
O O13 0.500000 0.266526 0.806251
O O14 0.613490 0.363293 0.794131
O O15 0.643849 0.249218 0.746337
O O16 0.139622 0.742252 0.122764
O O17 0.000000 0.782155 0.064328
O O18 0.139385 0.762467 0.000000
O O19 0.621655 0.500000 0.772045
O O20 0.264123 0.078699 0.500000
O O21 0.181564 0.000000 0.571732
O O22 0.500000 0.243601 0.314617
#
# Coordination Sequence:
#
# PCOD9517803 Si02
#       8
#    16  16  16  16  16  16  16  16
#     4  10  21  35  50  69  90 117 157 203 248 288
#     4   9  17  28  43  66  98 133 162 186 214 260
#     4   9  16  27  44  67  99 135 164 189 221 269
#     4  10  18  30  48  71  99 129 158 188 226 274
#     4   9  17  30  47  68  95 124 158 201 241 276
#     4  10  18  29  45  70  99 126 155 186 225 275
#     4   9  17  30  45  63  92 126 158 193 232 273
#     4  10  21  36  52  69  90 120 158 200 249 295
#
# _framework density 18.995305999999999
#
# number of rings (size 3 to 8) (size 9 to 14) (size 15 to 20)
#    0.000    2.500    2.500    0.375    0.000    2.500 
#    0.000    3.750    0.000    0.000    0.000    3.500 
#    0.000    0.500    0.000    4.875    0.000    0.000 
#
# Total GULP energy -356388.338263 kJ/mol
# GULP energy per Si atom -5568.567785 kJ/mol
# Density = 1.895207 g / cm^3
# Si number density = 18.995306 Si / 1000 Ang^3
#
#
#
# Elastic Constant Matrix: (Units=GPa)
#
#
# Indices 1 2 3 4 5 6 
#
# 1 24.3150 -2.7229 5.2948 0.0000 0.0000 0.0000
# 2 -2.7229 67.2827 48.0941 0.0000 0.0000 0.0000
# 3 5.2948 48.0941 144.5061 0.0000 0.0000 0.0000
# 4 0.0000 0.0000 0.0000 2.7217 0.0000 0.0000
# 5 0.0000 0.0000 0.0000 0.0000 -3.1709 0.0000
# 6 0.0000 0.0000 0.0000 0.0000 0.0000 194.6425
#
#
#
# Elastic Compliance Matrix: (Units=1/GPa)
#
#
# Indices 1 2 3 4 5 6 
#
# 1 0.042143 0.003686 -0.002771 0.000000 0.000000 0.000000
# 2 0.003686 0.019825 -0.006733 0.000000 0.000000 0.000000
# 3 -0.002771 -0.006733 0.009263 0.000000 0.000000 0.000000
# 4 0.000000 0.000000 0.000000 0.367423 0.000000 0.000000
# 5 0.000000 0.000000 0.000000 0.000000 -0.315367 0.000000
# 6 0.000000 0.000000 0.000000 0.000000 0.000000 0.005138
#
#
# Mechanical properties :
#
#
# Convention : Reuss Voigt Hill
#
# Bulk Modulus (GPa) = 16.78000 37.49286 27.13643
# Shear Modulus (GPa) = 31.26471 51.20117 41.23294
#
# Velocity S-wave (km/s) = 4.06139 5.19742 4.66412
# Velocity P-wave (km/s) = 5.55393 7.46983 6.58196
#
# Compressibility (1/GPa) = 0.05959475
#
# Stress axis : x y z
#
# Youngs Moduli (GPa) = 23.72867 50.44214 107.96185
#
# Poissons Ratio (x) = -0.18594 0.29916
# Poissons Ratio (y) = -0.08747 0.72691
# Poissons Ratio (z) = 0.06575 0.33963
#
# Static dielectric constant tensor:
#      x y z
#    x 1.637130 0.000000 0.000000 
#    y 0.000000 1.671610 0.000000 
#    z 0.000000 0.000000 1.732460 
# 
# From -- ./inp_files/54457.got.cif
#   From: 2010.05.17/outbox.cif.g08.bks.cpg/sg71_28_cif.got.tgz:54457.got - 2010.06.03 16:22:01.
