data_PCOD9517282
_publ_section_title
;
Structure prediction by ZEFSAII (Michael W. Deem and Ramdas Pophale) SiO2 
 PCOD9517282
Probable space group: I M M M
;
_chemical_formula_sum "Si O2"
_cell_formula_units_Z 30
_cell_length_a 8.251548
_cell_length_b 33.062081
_cell_length_c 5.222895
_cell_angle_alpha 90.000000
_cell_angle_beta 90.000000
_cell_angle_gamma 90.000000
_cell_volume 1424.875473
_symmetry_space_group_name_H-M "I M M M"
_symmetry_group_IT_number 71
_symmetry_cell_setting 'orthorhombic'
loop_
_space_group_symop_operation_xyz
x,y,z
-x,-y,z
x,-y,-z
-x,y,-z
-x,-y,-z
x,y,-z
-x,y,z
x,-y,z
1/2+x,1/2+y,1/2+z
1/2-x,1/2-y,1/2+z
1/2+x,1/2-y,1/2-z
1/2-x,1/2+y,1/2-z
1/2-x,1/2-y,1/2-z
1/2+x,1/2+y,1/2-z
1/2-x,1/2+y,1/2+z
1/2+x,1/2-y,1/2+z
loop_
_atom_site_type_symbol
_atom_site_label
_atom_site_fract_x
_atom_site_fract_y
_atom_site_fract_z
Si Si1 0.268039 0.000000 0.000000
Si Si2 0.692656 0.633507 0.000000
Si Si3 0.806882 0.586832 0.500000
Si Si4 0.693620 0.774265 0.500000
Si Si5 0.500000 0.000000 0.500000
O O1 0.201288 0.045734 0.000000
O O2 0.362699 0.000000 0.271337
O O3 0.768551 0.612679 0.750530
O O4 0.500000 0.627769 0.000000
O O5 0.731843 0.681004 0.000000
O O6 0.000000 0.576400 0.500000
O O7 0.500000 0.777678 0.500000
O O8 0.750000 0.750000 0.250000
#
# Coordination Sequence:
#
# PCOD9517282 Si02
#       5
#     4   8   8   8   2
#     4  11  22  36  67  96 135 168 231 278 345 386
#     4  12  27  45  64  97 140 180 217 275 339 400
#     4  12  23  42  69  98 130 173 232 282 331 396
#     4  12  25  46  73 102 133 174 222 273 335 402
#     4  10  16  34  56  94 126 158 216 270 338 374
#
# _framework density 21.054469000000001
#
# number of rings (size 3 to 8) (size 9 to 14) (size 15 to 20)
#    0.000    0.267    2.667    8.800    0.000    0.000 
#    0.000    4.000    0.000    0.000    0.000    0.000 
#    0.000    0.000    0.000    0.000    0.000    0.000 
#
# Total GULP energy -83602.575747 kJ/mol
# GULP energy per Si atom -5573.505050 kJ/mol
# Density = 2.100655 g / cm^3
# Si number density = 21.054469 Si / 1000 Ang^3
#
#
#
# Elastic Constant Matrix: (Units=GPa)
#
#
# Indices 1 2 3 4 5 6 
#
# 1 110.1913 10.6976 27.4332 0.0303 -0.0100 0.0072
# 2 10.6976 193.5011 82.6816 0.0346 -0.0073 0.0125
# 3 27.4332 82.6816 238.6098 0.0653 -0.0477 0.0269
# 4 0.0303 0.0346 0.0653 -24.3716 0.0375 -0.0165
# 5 -0.0100 -0.0073 -0.0477 0.0375 34.2280 0.0179
# 6 0.0072 0.0125 0.0269 -0.0165 0.0179 5.7108
#
#
#
# Elastic Compliance Matrix: (Units=1/GPa)
#
#
# Indices 1 2 3 4 5 6 
#
# 1 0.009343 -0.000068 -0.001051 0.000009 0.000001 -0.000007
# 2 -0.000068 0.006067 -0.002094 0.000003 -0.000002 -0.000003
# 3 -0.001051 -0.002094 0.005037 0.000009 0.000006 -0.000018
# 4 0.000009 0.000003 0.000009 -0.041031 0.000045 -0.000119
# 5 0.000001 -0.000002 0.000006 0.000045 0.029216 -0.000091
# 6 -0.000007 -0.000003 -0.000018 -0.000119 -0.000091 0.175106
#
#
# Mechanical properties :
#
#
# Convention : Reuss Voigt Hill
#
# Bulk Modulus (GPa) = 71.31705 87.10300 79.21003
# Shear Modulus (GPa) = 25.66239 31.21276 28.43758
#
# Velocity S-wave (km/s) = 3.49500 3.85447 3.67913
# Velocity P-wave (km/s) = 7.08752 7.82748 7.46667
#
# Compressibility (1/GPa) = 0.01402189
#
# Stress axis : x y z
#
# Youngs Moduli (GPa) = 107.02872 164.83756 198.51157
#
# Poissons Ratio (x) = 0.01113 0.20860
# Poissons Ratio (y) = 0.00723 0.41576
# Poissons Ratio (z) = 0.11247 0.34523
#
# Static dielectric constant tensor:
#      x y z
#    x 1.798890 0.000000 0.000000 
#    y 0.000000 1.774590 0.000000 
#    z 0.000000 0.000000 1.679920 
# 
# From -- ./inp_files/170.got.cif
#   From: 2010.05.17/outbox.cif.g08.bks.cpg/sg71_1_cif.got.tgz:170.got - 2010.06.03 16:22:01.
