data_PCOD9517805
_publ_section_title
;
Structure prediction by ZEFSAII (Michael W. Deem and Ramdas Pophale) SiO2 
 PCOD9517805
Probable space group: I M M M
;
_chemical_formula_sum "Si O2"
_cell_formula_units_Z 80
_cell_length_a 25.074547
_cell_length_b 8.103140
_cell_length_c 24.685867
_cell_angle_alpha 90.000000
_cell_angle_beta 90.000000
_cell_angle_gamma 90.000000
_cell_volume 5015.737771
_symmetry_space_group_name_H-M "I M M M"
_symmetry_group_IT_number 71
_symmetry_cell_setting 'orthorhombic'
loop_
_space_group_symop_operation_xyz
x,y,z
-x,-y,z
x,-y,-z
-x,y,-z
-x,-y,-z
x,y,-z
-x,y,z
x,-y,z
1/2+x,1/2+y,1/2+z
1/2-x,1/2-y,1/2+z
1/2+x,1/2-y,1/2-z
1/2-x,1/2+y,1/2-z
1/2-x,1/2-y,1/2-z
1/2+x,1/2+y,1/2-z
1/2-x,1/2+y,1/2+z
1/2+x,1/2-y,1/2+z
loop_
_atom_site_type_symbol
_atom_site_label
_atom_site_fract_x
_atom_site_fract_y
_atom_site_fract_z
Si Si1 0.168289 0.696806 0.270900
Si Si2 0.059075 0.303519 0.892922
Si Si3 0.233762 0.698627 0.165379
Si Si4 0.170507 0.297665 0.060528
Si Si5 0.059567 0.196299 0.230268
O O1 0.168348 0.500000 0.269019
O O2 0.196937 0.759458 0.215441
O O3 0.206154 0.752331 0.319767
O O4 0.107712 0.756274 0.269380
O O5 0.056997 0.500000 0.902376
O O6 0.110397 0.240969 0.925108
O O7 0.068549 0.275879 0.828915
O O8 0.000000 0.235196 0.905967
O O9 0.230777 0.500000 0.165558
O O10 0.209822 0.757078 0.108497
O O11 0.170005 0.500000 0.061570
O O12 0.185483 0.246564 0.000000
O O13 0.000000 0.245987 0.248401
O O14 0.059984 0.000000 0.222729
#
# Coordination Sequence:
#
# PCOD9517805 Si02
#       5
#    16  16  16  16  16
#     4  10  18  29  46  65  85 112 144 181 220 262
#     4   9  16  27  42  60  84 114 151 190 221 252
#     4   9  17  29  43  63  87 113 145 181 221 261
#     4   9  16  27  43  63  87 114 148 188 224 256
#     4  10  19  29  43  64  89 116 144 177 219 263
#
# _framework density 15.949795999999999
#
# number of rings (size 3 to 8) (size 9 to 14) (size 15 to 20)
#    0.000    2.600    2.000    1.200    0.000    2.400 
#    0.000    2.000    0.000    2.400    0.000    2.800 
#    0.000    0.800    0.000    9.200    0.000    2.600 
#
# Total GULP energy -222916.642272 kJ/mol
# GULP energy per Si atom -5572.916057 kJ/mol
# Density = 1.591349 g / cm^3
# Si number density = 15.949796 Si / 1000 Ang^3
#
#
#
# Elastic Constant Matrix: (Units=GPa)
#
#
# Indices 1 2 3 4 5 6 
#
# 1 108.1079 2.3476 64.2257 0.0000 0.0000 0.0000
# 2 2.3476 7.7315 6.3275 0.0000 0.0000 0.0000
# 3 64.2257 6.3275 88.1309 0.0000 0.0000 0.0000
# 4 0.0000 0.0000 0.0000 8.6044 0.0000 0.0000
# 5 0.0000 0.0000 0.0000 0.0000 21.0732 0.0000
# 6 0.0000 0.0000 0.0000 0.0000 0.0000 16.6529
#
#
#
# Elastic Compliance Matrix: (Units=1/GPa)
#
#
# Indices 1 2 3 4 5 6 
#
# 1 0.016502 0.005133 -0.012394 0.000000 0.000000 0.000000
# 2 0.005133 0.139012 -0.013721 0.000000 0.000000 0.000000
# 3 -0.012394 -0.013721 0.021364 0.000000 0.000000 0.000000
# 4 0.000000 0.000000 0.000000 0.116220 0.000000 0.000000
# 5 0.000000 0.000000 0.000000 0.000000 0.047454 0.000000
# 6 0.000000 0.000000 0.000000 0.000000 0.000000 0.060049
#
#
# Mechanical properties :
#
#
# Convention : Reuss Voigt Hill
#
# Bulk Modulus (GPa) = 7.41220 38.86354 23.13787
# Shear Modulus (GPa) = 10.25564 18.00409 14.12986
#
# Velocity S-wave (km/s) = 2.53849 3.36340 2.97963
# Velocity P-wave (km/s) = 3.63994 6.28509 5.13573
#
# Compressibility (1/GPa) = 0.13491267
#
# Stress axis : x y z
#
# Youngs Moduli (GPa) = 60.59912 7.19364 46.80701
#
# Poissons Ratio (x) = -0.03693 0.58014
# Poissons Ratio (y) = -0.31106 0.64225
# Poissons Ratio (z) = 0.75109 0.09871
#
# Static dielectric constant tensor:
#      x y z
#    x 1.560610 0.000000 0.000000 
#    y 0.000000 1.565420 0.000000 
#    z 0.000000 0.000000 1.514490 
# 
# From -- ./inp_files/8634.got.cif
#   From: 2010.05.17/outbox.cif.g08.bks.cpg/sg71_5_cif.got.tgz:8634.got - 2010.06.03 16:22:01.
