data_PCOD9517645
_publ_section_title
;
Structure prediction by ZEFSAII (Michael W. Deem and Ramdas Pophale) SiO2 
 PCOD9517645
Probable space group: I M M M
;
_chemical_formula_sum "Si O2"
_cell_formula_units_Z 80
_cell_length_a 19.808912
_cell_length_b 23.652810
_cell_length_c 7.974325
_cell_angle_alpha 90.000000
_cell_angle_beta 90.000000
_cell_angle_gamma 90.000000
_cell_volume 3736.261782
_symmetry_space_group_name_H-M "I M M M"
_symmetry_group_IT_number 71
_symmetry_cell_setting 'orthorhombic'
loop_
_space_group_symop_operation_xyz
x,y,z
-x,-y,z
x,-y,-z
-x,y,-z
-x,-y,-z
x,y,-z
-x,y,z
x,-y,z
1/2+x,1/2+y,1/2+z
1/2-x,1/2-y,1/2+z
1/2+x,1/2-y,1/2-z
1/2-x,1/2+y,1/2-z
1/2-x,1/2-y,1/2-z
1/2+x,1/2+y,1/2-z
1/2-x,1/2+y,1/2+z
1/2+x,1/2-y,1/2+z
loop_
_atom_site_type_symbol
_atom_site_label
_atom_site_fract_x
_atom_site_fract_y
_atom_site_fract_z
Si Si1 0.209573 0.624432 0.806163
Si Si2 0.146111 0.733915 0.301059
Si Si3 0.000000 0.873178 0.302598
Si Si4 0.354248 0.365436 0.793783
Si Si5 0.500000 0.241905 0.299071
Si Si6 0.072968 0.564915 0.299332
O O1 0.197769 0.691736 0.786394
O O2 0.283253 0.608923 0.734527
O O3 0.142111 0.596587 0.737711
O O4 0.212021 0.609671 0.000000
O O5 0.157027 0.731313 0.500000
O O6 0.148389 0.799083 0.245212
O O7 0.069509 0.714288 0.261182
O O8 0.926179 0.890500 0.234955
O O9 0.000000 0.887090 0.500000
O O10 0.000000 0.804871 0.282191
O O11 0.355377 0.366431 0.000000
O O12 0.500000 0.246542 0.500000
O O13 0.068414 0.564043 0.500000
O O14 0.078702 0.500000 0.240009
O O15 0.000000 0.587170 0.234951
#
# Coordination Sequence:
#
# PCOD9517645 Si02
#       6
#    16  16   8  16   8  16
#     4  11  21  31  48  77 105 125 158 210 261 298
#     4  10  19  32  47  64  95 140 177 202 237 295
#     4   8  14  30  50  64  89 132 171 193 228 288
#     4   8  16  30  48  71  99 134 171 205 241 289
#     4  10  18  28  42  64  91 122 165 214 252 277
#     4   9  20  40  60  74  93 127 171 212 253 309
#
# _framework density 21.411776
#
# number of rings (size 3 to 8) (size 9 to 14) (size 15 to 20)
#    0.000    2.600    0.000    4.500    1.400    0.800 
#    0.000   10.000    0.000    0.000    0.000    0.700 
#    0.000    5.600    0.000    0.000    0.000    0.000 
#
# Total GULP energy -222965.618674 kJ/mol
# GULP energy per Si atom -5574.140467 kJ/mol
# Density = 2.136304 g / cm^3
# Si number density = 21.411776 Si / 1000 Ang^3
#
#
#
# Elastic Constant Matrix: (Units=GPa)
#
#
# Indices 1 2 3 4 5 6 
#
# 1 240.1844 33.0676 10.1229 0.0000 0.0000 0.0000
# 2 33.0676 19.5198 3.8070 0.0000 0.0000 0.0000
# 3 10.1229 3.8070 20.6439 0.0000 0.0000 0.0000
# 4 0.0000 0.0000 0.0000 -1.3471 0.0000 0.0000
# 5 0.0000 0.0000 0.0000 0.0000 10.5695 0.0000
# 6 0.0000 0.0000 0.0000 0.0000 0.0000 18.7223
#
#
#
# Elastic Compliance Matrix: (Units=1/GPa)
#
#
# Indices 1 2 3 4 5 6 
#
# 1 0.005450 -0.009036 -0.001006 0.000000 0.000000 0.000000
# 2 -0.009036 0.068124 -0.008132 0.000000 0.000000 0.000000
# 3 -0.001006 -0.008132 0.050433 0.000000 0.000000 0.000000
# 4 0.000000 0.000000 0.000000 -0.742330 0.000000 0.000000
# 5 0.000000 0.000000 0.000000 0.000000 0.094612 0.000000
# 6 0.000000 0.000000 0.000000 0.000000 0.000000 0.053412
#
#
# Mechanical properties :
#
#
# Convention : Reuss Voigt Hill
#
# Bulk Modulus (GPa) = 11.40786 41.59366 26.50076
# Shear Modulus (GPa) = -12.35390 21.14566 4.39588
#
# Velocity S-wave (km/s) = -2.40462 3.14597 1.43439
# Velocity P-wave (km/s) = 1.53954 5.71524 3.89190
#
# Compressibility (1/GPa) = 0.08765886
#
# Stress axis : x y z
#
# Youngs Moduli (GPa) = 183.48814 14.67911 19.82814
#
# Poissons Ratio (x) = 0.13264 0.01995
# Poissons Ratio (y) = 1.65805 0.16124
# Poissons Ratio (z) = 0.18459 0.11937
#
# Static dielectric constant tensor:
#      x y z
#    x 1.916930 0.000000 0.000000 
#    y 0.000000 1.764810 0.000000 
#    z 0.000000 0.000000 1.750810 
# 
# From -- ./inp_files/8460.got.cif
#   From: 2010.05.17/outbox.cif.g08.bks.cpg/sg71_5_cif.got.tgz:8460.got - 2010.06.03 16:22:01.
