data_PCOD9517217
_publ_section_title
;
Structure prediction by ZEFSAII (Michael W. Deem and Ramdas Pophale) SiO2 
 PCOD9517217
Probable space group: I M M M
;
_chemical_formula_sum "Si O2"
_cell_formula_units_Z 120
_cell_length_a 21.502435
_cell_length_b 23.612898
_cell_length_c 15.134733
_cell_angle_alpha 90.000000
_cell_angle_beta 90.000000
_cell_angle_gamma 90.000000
_cell_volume 7684.430700
_symmetry_space_group_name_H-M "I M M M"
_symmetry_group_IT_number 71
_symmetry_cell_setting 'orthorhombic'
loop_
_space_group_symop_operation_xyz
x,y,z
-x,-y,z
x,-y,-z
-x,y,-z
-x,-y,-z
x,y,-z
-x,y,z
x,-y,z
1/2+x,1/2+y,1/2+z
1/2-x,1/2-y,1/2+z
1/2+x,1/2-y,1/2-z
1/2-x,1/2+y,1/2-z
1/2-x,1/2-y,1/2-z
1/2+x,1/2+y,1/2-z
1/2-x,1/2+y,1/2+z
1/2+x,1/2-y,1/2+z
loop_
_atom_site_type_symbol
_atom_site_label
_atom_site_fract_x
_atom_site_fract_y
_atom_site_fract_z
Si Si1 0.568814 0.728800 0.896520
Si Si2 0.316055 0.352865 0.101447
Si Si3 0.376602 0.065506 0.308905
Si Si4 0.752415 0.348952 0.602019
Si Si5 0.571352 0.068378 0.500000
Si Si6 0.121869 0.326455 0.711981
Si Si7 0.269148 0.434809 0.755681
Si Si8 0.787668 0.267249 0.838180
O O1 0.500000 0.703827 0.885667
O O2 0.624463 0.685750 0.875701
O O3 0.576112 0.783702 0.835904
O O4 0.576309 0.744373 0.000000
O O5 0.308890 0.403930 0.169263
O O6 0.255287 0.312937 0.112617
O O7 0.321039 0.371254 0.000000
O O8 0.393605 0.082776 0.409078
O O9 0.403192 0.112571 0.242238
O O10 0.302481 0.067303 0.290529
O O11 0.396867 0.000000 0.295301
O O12 0.757575 0.365410 0.500000
O O13 0.820375 0.334621 0.643497
O O14 0.727371 0.397788 0.666639
O O15 0.710883 0.291856 0.609995
O O16 0.500000 0.089395 0.500000
O O17 0.568726 0.000000 0.500000
O O18 0.150743 0.296418 0.799713
O O19 0.285578 0.500000 0.741887
O O20 0.750000 0.250000 0.750000
#
# Coordination Sequence:
#
# PCOD9517217 Si02
#       8
#    16  16  16  16   8  16  16  16
#     4  10  20  32  48  71  95 123 163 204 238 284
#     4  11  19  31  51  71  98 130 158 194 248 298
#     4   9  18  30  45  66  93 123 159 200 237 280
#     4  10  17  28  46  67  96 130 157 188 232 286
#     4   9  18  32  46  58  80 120 163 197 232 280
#     4  10  17  29  46  68  97 126 157 196 242 283
#     4  10  20  32  46  71 101 125 158 201 240 290
#     4  10  15  27  46  71  94 120 155 191 236 288
#
# _framework density 15.615990999999999
#
# number of rings (size 3 to 8) (size 9 to 14) (size 15 to 20)
#    0.000    2.067    6.667    0.800    0.933    1.067 
#    1.200    0.000    0.000    1.600    0.000    2.800 
#    0.000    0.000    0.000    4.800    0.000    0.000 
#
# Total GULP energy -334150.479134 kJ/mol
# GULP energy per Si atom -5569.174652 kJ/mol
# Density = 1.558045 g / cm^3
# Si number density = 15.615991 Si / 1000 Ang^3
#
#
#
# Elastic Constant Matrix: (Units=GPa)
#
#
# Indices 1 2 3 4 5 6 
#
# 1 36.6193 21.4965 18.9198 0.0000 0.0000 0.0000
# 2 21.4965 93.4399 44.5495 0.0000 0.0000 0.0000
# 3 18.9198 44.5495 89.6092 0.0000 0.0000 0.0000
# 4 0.0000 0.0000 0.0000 13.3734 0.0000 0.0000
# 5 0.0000 0.0000 0.0000 0.0000 14.3693 0.0000
# 6 0.0000 0.0000 0.0000 0.0000 0.0000 7.9543
#
#
#
# Elastic Compliance Matrix: (Units=1/GPa)
#
#
# Indices 1 2 3 4 5 6 
#
# 1 0.032707 -0.005547 -0.004148 0.000000 0.000000 0.000000
# 2 -0.005547 0.014968 -0.006270 0.000000 0.000000 0.000000
# 3 -0.004148 -0.006270 0.015153 0.000000 0.000000 0.000000
# 4 0.000000 0.000000 0.000000 0.074776 0.000000 0.000000
# 5 0.000000 0.000000 0.000000 0.000000 0.069593 0.000000
# 6 0.000000 0.000000 0.000000 0.000000 0.000000 0.125718
#
#
# Mechanical properties :
#
#
# Convention : Reuss Voigt Hill
#
# Bulk Modulus (GPa) = 32.36512 43.28889 37.82701
# Shear Modulus (GPa) = 13.32827 16.11957 14.72392
#
# Velocity S-wave (km/s) = 2.92464 3.21635 3.07396
# Velocity P-wave (km/s) = 5.67233 6.44781 6.07246
#
# Compressibility (1/GPa) = 0.03089746
#
# Stress axis : x y z
#
# Youngs Moduli (GPa) = 30.57424 66.81134 65.99553
#
# Poissons Ratio (x) = 0.37059 0.27376
# Poissons Ratio (y) = 0.16959 0.41379
# Poissons Ratio (z) = 0.12682 0.41891
#
# Static dielectric constant tensor:
#      x y z
#    x 1.529790 0.000000 0.000000 
#    y 0.000000 1.547310 0.000000 
#    z 0.000000 0.000000 1.526010 
# 
# From -- ./inp_files/38528.got.cif
#   From: 2010.05.17/outbox.cif.g08.bks.cpg/sg71_20_cif.got.tgz:38528.got - 2010.06.03 16:22:01.
