data_PCOD9517790
_publ_section_title
;
Structure prediction by ZEFSAII (Michael W. Deem and Ramdas Pophale) SiO2 
 PCOD9517790
Probable space group: I M M M
;
_chemical_formula_sum "Si O2"
_cell_formula_units_Z 112
_cell_length_a 25.867059
_cell_length_b 7.302612
_cell_length_c 27.849411
_cell_angle_alpha 90.000000
_cell_angle_beta 90.000000
_cell_angle_gamma 90.000000
_cell_volume 5260.672848
_symmetry_space_group_name_H-M "I M M M"
_symmetry_group_IT_number 71
_symmetry_cell_setting 'orthorhombic'
loop_
_space_group_symop_operation_xyz
x,y,z
-x,-y,z
x,-y,-z
-x,y,-z
-x,-y,-z
x,y,-z
-x,y,z
x,-y,z
1/2+x,1/2+y,1/2+z
1/2-x,1/2-y,1/2+z
1/2+x,1/2-y,1/2-z
1/2-x,1/2+y,1/2-z
1/2-x,1/2-y,1/2-z
1/2+x,1/2+y,1/2-z
1/2-x,1/2+y,1/2+z
1/2+x,1/2-y,1/2+z
loop_
_atom_site_type_symbol
_atom_site_label
_atom_site_fract_x
_atom_site_fract_y
_atom_site_fract_z
Si Si1 0.189759 0.781401 0.765354
Si Si2 0.560503 0.722785 0.554790
Si Si3 0.579638 0.722759 0.000000
Si Si4 0.698363 0.722421 0.000000
Si Si5 0.249513 0.721867 0.097946
Si Si6 0.944512 0.223200 0.393551
Si Si7 0.140328 0.207416 0.864735
Si Si8 0.843758 0.223140 0.664094
O O1 0.250000 0.750000 0.750000
O O2 0.163349 0.710127 0.814592
O O3 0.157330 0.719744 0.719158
O O4 0.186880 0.000000 0.769643
O O5 0.575781 0.779724 0.500000
O O6 0.500000 0.771783 0.561447
O O7 0.563348 0.500000 0.554777
O O8 0.596624 0.786213 0.599227
O O9 0.557288 0.781536 0.050870
O O10 0.576112 0.500000 0.000000
O O11 0.639231 0.777936 0.000000
O O12 0.726641 0.780173 0.952223
O O13 0.697707 0.500000 0.000000
O O14 0.246559 0.500000 0.099160
O O15 0.192759 0.796425 0.104630
O O16 0.290225 0.778855 0.138809
O O17 0.893727 0.284536 0.365417
O O18 0.000000 0.276787 0.372507
O O19 0.942520 0.000000 0.393617
O O20 0.122785 0.000000 0.853415
O O21 0.843858 0.000000 0.662951
#
# Coordination Sequence:
#
# PCOD9517790 Si02
#       8
#    16  16   8   8  16  16  16  16
#     4  10  19  31  46  66  93 121 151 187 226 270
#     4   8  15  30  50  69  92 123 153 183 230 288
#     4   9  13  20  33  53  81 113 149 185 215 252
#     4   9  16  25  39  62  90 123 154 180 217 270
#     4  10  18  29  45  65  94 128 154 178 223 280
#     4   9  15  22  34  54  82 116 150 181 217 260
#     4  10  20  31  47  73  95 114 152 198 228 262
#     4   9  16  27  41  57  84 122 153 179 219 269
#
# _framework density 21.290050999999998
#
# number of rings (size 3 to 8) (size 9 to 14) (size 15 to 20)
#    0.000    2.714    2.857    0.643    1.000    0.857 
#    0.000    0.714    0.000    4.714    0.000    1.000 
#    0.000    3.429    0.000    1.286    0.000    1.429 
#
# Total GULP energy -312273.455830 kJ/mol
# GULP energy per Si atom -5576.311711 kJ/mol
# Density = 2.124159 g / cm^3
# Si number density = 21.290051 Si / 1000 Ang^3
#
#
#
# Elastic Constant Matrix: (Units=GPa)
#
#
# Indices 1 2 3 4 5 6 
#
# 1 137.7306 -0.1441 82.7311 0.0000 0.0000 0.0000
# 2 -0.1441 88.0034 6.3831 0.0000 0.0000 0.0000
# 3 82.7311 6.3831 164.2599 0.0000 0.0000 0.0000
# 4 0.0000 0.0000 0.0000 -16.6481 0.0000 0.0000
# 5 0.0000 0.0000 0.0000 0.0000 20.5927 0.0000
# 6 0.0000 0.0000 0.0000 0.0000 0.0000 9.8774
#
#
#
# Elastic Compliance Matrix: (Units=1/GPa)
#
#
# Indices 1 2 3 4 5 6 
#
# 1 0.010424 0.000399 -0.005266 0.000000 0.000000 0.000000
# 2 0.000399 0.011411 -0.000644 0.000000 0.000000 0.000000
# 3 -0.005266 -0.000644 0.008765 0.000000 0.000000 0.000000
# 4 0.000000 0.000000 0.000000 -0.060067 0.000000 0.000000
# 5 0.000000 0.000000 0.000000 0.000000 0.048561 0.000000
# 6 0.000000 0.000000 0.000000 0.000000 0.000000 0.101241
#
#
# Mechanical properties :
#
#
# Convention : Reuss Voigt Hill
#
# Bulk Modulus (GPa) = 51.07892 63.10379 57.09136
# Shear Modulus (GPa) = 36.26287 22.83266 29.54777
#
# Velocity S-wave (km/s) = 4.13156 3.27839 3.72945
# Velocity P-wave (km/s) = 6.84132 6.63588 6.73938
#
# Compressibility (1/GPa) = 0.01957755
#
# Stress axis : x y z
#
# Youngs Moduli (GPa) = 95.93367 87.63787 114.08985
#
# Poissons Ratio (x) = -0.03497 0.60075
# Poissons Ratio (y) = -0.03828 0.07352
# Poissons Ratio (z) = 0.50515 0.05647
#
# Static dielectric constant tensor:
#      x y z
#    x 1.730210 0.000000 0.000000 
#    y 0.000000 1.941840 0.000000 
#    z 0.000000 0.000000 1.771470 
# 
# From -- ./inp_files/61710.got.cif
#   From: 2010.05.17/outbox.cif.g08.bks.cpg/sg71_31_cif.got.tgz:61710.got - 2010.06.03 16:22:01.
