data_PCOD9517641
_publ_section_title
;
Structure prediction by ZEFSAII (Michael W. Deem and Ramdas Pophale) SiO2 
 PCOD9517641
Probable space group: I M M M
;
_chemical_formula_sum "Si O2"
_cell_formula_units_Z 96
_cell_length_a 14.358215
_cell_length_b 13.978019
_cell_length_c 32.235896
_cell_angle_alpha 90.000000
_cell_angle_beta 90.000000
_cell_angle_gamma 90.000000
_cell_volume 6469.725053
_symmetry_space_group_name_H-M "I M M M"
_symmetry_group_IT_number 71
_symmetry_cell_setting 'orthorhombic'
loop_
_space_group_symop_operation_xyz
x,y,z
-x,-y,z
x,-y,-z
-x,y,-z
-x,-y,-z
x,y,-z
-x,y,z
x,-y,z
1/2+x,1/2+y,1/2+z
1/2-x,1/2-y,1/2+z
1/2+x,1/2-y,1/2-z
1/2-x,1/2+y,1/2-z
1/2-x,1/2-y,1/2-z
1/2+x,1/2+y,1/2-z
1/2-x,1/2+y,1/2+z
1/2+x,1/2-y,1/2+z
loop_
_atom_site_type_symbol
_atom_site_label
_atom_site_fract_x
_atom_site_fract_y
_atom_site_fract_z
Si Si1 0.233651 0.884285 0.623803
Si Si2 0.796326 0.885684 0.210219
Si Si3 0.895269 0.385763 0.250955
Si Si4 0.393575 0.616192 0.047126
Si Si5 0.391298 0.775718 0.663486
Si Si6 0.393727 0.384176 0.202190
O O1 0.178716 0.854981 0.582392
O O2 0.332044 0.833184 0.629797
O O3 0.170875 0.856053 0.663734
O O4 0.243771 0.000000 0.624203
O O5 0.688439 0.859665 0.218337
O O6 0.843662 0.825290 0.174131
O O7 0.849611 0.860597 0.253279
O O8 0.803675 0.000000 0.204145
O O9 0.886902 0.500000 0.244058
O O10 0.883574 0.335632 0.206571
O O11 0.000000 0.365925 0.266139
O O12 0.500000 0.645757 0.056863
O O13 0.394023 0.500000 0.047303
O O14 0.371353 0.646347 0.000000
O O15 0.500000 0.765958 0.653688
O O16 0.500000 0.349946 0.198861
O O17 0.396572 0.500000 0.200769
#
# Coordination Sequence:
#
# PCOD9517641 Si02
#       6
#    16  16  16  16  16  16
#     4  10  18  28  42  62  88 115 142 173 210 252
#     4  10  19  32  44  56  79 112 150 190 225 253
#     4   9  17  29  43  58  78 106 141 180 219 258
#     4   8  14  26  45  68  93 119 142 165 202 255
#     4  11  21  30  42  59  81 112 151 186 217 255
#     4   9  16  25  38  57  81 109 142 180 215 244
#
# _framework density 14.838343999999999
#
# number of rings (size 3 to 8) (size 9 to 14) (size 15 to 20)
#    0.000    2.500    1.667    2.500    0.000    4.000 
#    0.000    0.833    0.000    0.500    0.000    2.333 
#    0.000    0.667    0.000    3.333    0.000    0.167 
#
# Total GULP energy -267668.706721 kJ/mol
# GULP energy per Si atom -5576.431390 kJ/mol
# Density = 1.480457 g / cm^3
# Si number density = 14.838344 Si / 1000 Ang^3
#
#
#
# Elastic Constant Matrix: (Units=GPa)
#
#
# Indices 1 2 3 4 5 6 
#
# 1 129.5937 29.1706 45.2932 0.0000 0.0000 0.0000
# 2 29.1706 46.8316 22.9052 0.0000 0.0000 0.0000
# 3 45.2932 22.9052 57.5805 0.0000 0.0000 0.0000
# 4 0.0000 0.0000 0.0000 10.3951 0.0000 0.0000
# 5 0.0000 0.0000 0.0000 0.0000 22.9377 0.0000
# 6 0.0000 0.0000 0.0000 0.0000 0.0000 14.1622
#
#
#
# Elastic Compliance Matrix: (Units=1/GPa)
#
#
# Indices 1 2 3 4 5 6 
#
# 1 0.011029 -0.003261 -0.007378 0.000000 0.000000 0.000000
# 2 -0.003261 0.027475 -0.008364 0.000000 0.000000 0.000000
# 3 -0.007378 -0.008364 0.026498 0.000000 0.000000 0.000000
# 4 0.000000 0.000000 0.000000 0.096199 0.000000 0.000000
# 5 0.000000 0.000000 0.000000 0.000000 0.043596 0.000000
# 6 0.000000 0.000000 0.000000 0.000000 0.000000 0.070610
#
#
# Mechanical properties :
#
#
# Convention : Reuss Voigt Hill
#
# Bulk Modulus (GPa) = 37.04385 47.63821 42.34103
# Shear Modulus (GPa) = 15.50796 18.60811 17.05804
#
# Velocity S-wave (km/s) = 3.23635 3.54511 3.39424
# Velocity P-wave (km/s) = 6.24375 6.99511 6.63008
#
# Compressibility (1/GPa) = 0.02699503
#
# Stress axis : x y z
#
# Youngs Moduli (GPa) = 90.66801 36.39621 37.73845
#
# Poissons Ratio (x) = 0.11869 0.27845
# Poissons Ratio (y) = 0.29568 0.31566
# Poissons Ratio (z) = 0.66898 0.30443
#
# Static dielectric constant tensor:
#      x y z
#    x 1.523030 0.000000 0.000000 
#    y 0.000000 1.513810 0.000000 
#    z 0.000000 0.000000 1.461910 
# 
# From -- ./inp_files/35239.got.cif
#   From: 2010.05.17/outbox.cif.g08.bks.cpg/sg71_18_cif.got.tgz:35239.got - 2010.06.03 16:22:01.
