data_PCOD9517082
_publ_section_title
;
Structure prediction by ZEFSAII (Michael W. Deem and Ramdas Pophale) SiO2 
 PCOD9517082
Probable space group: F D D D
;
_chemical_formula_sum "Si O2"
_cell_formula_units_Z 176
_cell_length_a 10.461141
_cell_length_b 30.979269
_cell_length_c 20.457155
_cell_angle_alpha 90.000000
_cell_angle_beta 90.000000
_cell_angle_gamma 90.000000
_cell_volume 6629.724129
_symmetry_space_group_name_H-M "F D D D"
_symmetry_group_IT_number 70
_space_group.IT_coordinate_system_code '2'
_symmetry_cell_setting 'orthorhombic'
loop_
_space_group_symop_operation_xyz
x,y,z
1/4-x,1/4-y,z
x,1/4-y,1/4-z
1/4-x,y,1/4-z
-x,-y,-z
3/4+x,3/4+y,-z
-x,3/4+y,3/4+z
3/4+x,-y,3/4+z
x,1/2+y,1/2+z
1/4-x,3/4-y,1/2+z
x,3/4-y,3/4-z
1/4-x,1/2+y,3/4-z
-x,1/2-y,1/2-z
3/4+x,1/4+y,1/2-z
-x,1/4+y,1/4+z
3/4+x,1/2-y,1/4+z
1/2+x,y,1/2+z
3/4-x,1/4-y,1/2+z
1/2+x,1/4-y,3/4-z
3/4-x,y,3/4-z
1/2-x,-y,1/2-z
1/4+x,3/4+y,1/2-z
1/2-x,3/4+y,1/4+z
1/4+x,-y,1/4+z
1/2+x,1/2+y,z
3/4-x,3/4-y,z
1/2+x,3/4-y,1/4-z
3/4-x,1/2+y,1/4-z
1/2-x,1/2-y,-z
1/4+x,1/4+y,-z
1/2-x,1/4+y,3/4+z
1/4+x,1/2-y,3/4+z
loop_
_atom_site_type_symbol
_atom_site_label
_atom_site_fract_x
_atom_site_fract_y
_atom_site_fract_z
Si Si1 0.101883 0.485580 0.055819
Si Si2 0.125000 0.625000 0.774543
Si Si3 0.266629 0.044501 0.153548
Si Si4 0.262260 0.682442 0.233568
Si Si5 0.378194 0.594784 0.212858
Si Si6 0.890817 0.452067 0.626812
O O1 0.181209 0.531028 0.055360
O O2 0.006583 0.470013 0.115233
O O3 0.140677 0.441219 0.019172
O O4 0.000000 0.500000 0.000000
O O5 0.242228 0.629647 0.725888
O O6 0.107682 0.665329 0.822795
O O7 0.341458 0.050234 0.222690
O O8 0.362516 0.070670 0.105554
O O9 0.125000 0.055939 0.125000
O O10 0.278794 0.993891 0.140703
O O11 0.269840 0.631208 0.217360
O O12 0.202324 0.684766 0.306138
#
# Coordination Sequence:
#
# PCOD9517082 Si02
#       6
#    32  16  32  32  32  32
#     4  12  24  53  76 115 167 208 272 358 419 492
#     4  12  26  48  81 122 163 218 288 350 428 520
#     4  12  28  51  78 115 167 212 271 348 428 499
#     4  12  27  47  81 114 156 222 274 331 434 511
#     4  12  27  48  79 117 161 212 276 346 420 505
#     4  12  27  47  80 115 162 215 274 353 421 506
#
# _framework density 26.547107
#
# number of rings (size 3 to 8) (size 9 to 14) (size 15 to 20)
#    0.000    0.000    5.455    3.273    2.545    1.455 
#    0.000    0.000    0.000    0.000    0.000    0.000 
#    0.000    0.000    0.000    0.000    0.000    0.000 
#
# Total GULP energy -245654.648325 kJ/mol
# GULP energy per Si atom -5583.060189 kJ/mol
# Density = 2.648668 g / cm^3
# Si number density = 26.547107 Si / 1000 Ang^3
#
#
#
# Elastic Constant Matrix: (Units=GPa)
#
#
# Indices 1 2 3 4 5 6 
#
# 1 144.1424 63.3789 20.7044 0.0000 0.0000 0.0000
# 2 63.3789 190.9794 46.5522 0.0000 0.0000 0.0000
# 3 20.7044 46.5522 82.8253 0.0000 0.0000 0.0000
# 4 0.0000 0.0000 0.0000 46.5330 0.0000 0.0000
# 5 0.0000 0.0000 0.0000 0.0000 31.1194 0.0000
# 6 0.0000 0.0000 0.0000 0.0000 0.0000 36.3123
#
#
#
# Elastic Compliance Matrix: (Units=1/GPa)
#
#
# Indices 1 2 3 4 5 6 
#
# 1 0.008148 -0.002558 -0.000599 0.000000 0.000000 0.000000
# 2 -0.002558 0.006871 -0.003222 0.000000 0.000000 0.000000
# 3 -0.000599 -0.003222 0.014034 0.000000 0.000000 0.000000
# 4 0.000000 0.000000 0.000000 0.021490 0.000000 0.000000
# 5 0.000000 0.000000 0.000000 0.000000 0.032134 0.000000
# 6 0.000000 0.000000 0.000000 0.000000 0.000000 0.027539
#
#
# Mechanical properties :
#
#
# Convention : Reuss Voigt Hill
#
# Bulk Modulus (GPa) = 61.37004 75.46869 68.41936
# Shear Modulus (GPa) = 38.93874 41.94706 40.44290
#
# Velocity S-wave (km/s) = 3.83401 3.97936 3.90736
# Velocity P-wave (km/s) = 6.53966 7.04299 6.79598
#
# Compressibility (1/GPa) = 0.01629460
#
# Stress axis : x y z
#
# Youngs Moduli (GPa) = 122.72299 145.54941 71.25363
#
# Poissons Ratio (x) = 0.37233 0.04269
# Poissons Ratio (y) = 0.31394 0.22959
# Poissons Ratio (z) = 0.07353 0.46898
#
# Static dielectric constant tensor:
#      x y z
#    x 2.183400 0.000000 0.000000 
#    y 0.000000 2.174000 0.000000 
#    z 0.000000 0.000000 0.488050 
# 
# From -- ./inp_files/50413.got.cif
#   From: 2010.05.17/outbox.cif.g08.bks.cpg/sg70_26_cif.got.tgz:50413.got - 2010.06.03 15:57:51.
