data_PCOD9517529
_publ_section_title
;
Structure prediction by ZEFSAII (Michael W. Deem and Ramdas Pophale) SiO2 
 PCOD9517529
Probable space group: I M M M
;
_chemical_formula_sum "Si O2"
_cell_formula_units_Z 120
_cell_length_a 27.963696
_cell_length_b 7.325216
_cell_length_c 28.855065
_cell_angle_alpha 90.000000
_cell_angle_beta 90.000000
_cell_angle_gamma 90.000000
_cell_volume 5910.674786
_symmetry_space_group_name_H-M "I M M M"
_symmetry_group_IT_number 71
_symmetry_cell_setting 'orthorhombic'
loop_
_space_group_symop_operation_xyz
x,y,z
-x,-y,z
x,-y,-z
-x,y,-z
-x,-y,-z
x,y,-z
-x,y,z
x,-y,z
1/2+x,1/2+y,1/2+z
1/2-x,1/2-y,1/2+z
1/2+x,1/2-y,1/2-z
1/2-x,1/2+y,1/2-z
1/2-x,1/2-y,1/2-z
1/2+x,1/2+y,1/2-z
1/2-x,1/2+y,1/2+z
1/2+x,1/2-y,1/2+z
loop_
_atom_site_type_symbol
_atom_site_label
_atom_site_fract_x
_atom_site_fract_y
_atom_site_fract_z
Si Si1 0.447609 0.281692 0.817645
Si Si2 0.209128 0.223290 0.447520
Si Si3 0.754240 0.281855 0.857929
Si Si4 0.396536 0.285677 0.056516
Si Si5 0.842898 0.223717 0.690573
Si Si6 0.000000 0.777676 0.444746
Si Si7 0.153166 0.216528 0.203205
Si Si8 0.948993 0.781438 0.794265
O O1 0.500000 0.212946 0.833731
O O2 0.448473 0.500000 0.826309
O O3 0.394171 0.217681 0.830973
O O4 0.447305 0.255800 0.761605
O O5 0.217131 0.282985 0.500000
O O6 0.249055 0.279710 0.410941
O O7 0.156025 0.284653 0.431342
O O8 0.207080 0.000000 0.448435
O O9 0.750845 0.500000 0.858336
O O10 0.705830 0.215617 0.833285
O O11 0.802158 0.242312 0.830129
O O12 0.396451 0.500000 0.069052
O O13 0.448124 0.213661 0.073172
O O14 0.397654 0.275400 0.000000
O O15 0.839100 0.282768 0.744269
O O16 0.843904 0.000000 0.689113
O O17 0.000000 0.737115 0.500000
O O18 0.000000 0.000000 0.440843
O O19 0.101481 0.287506 0.186567
O O20 0.147609 0.000000 0.208296
O O21 0.000000 0.707865 0.810888
O O22 0.950437 0.000000 0.801562
#
# Coordination Sequence:
#
# PCOD9517529 Si02
#       8
#    16  16  16  16  16   8  16  16
#     4   7   9  15  29  47  68  96 127 156 185 218
#     4   8  14  24  36  48  65  95 132 162 188 223
#     4  10  18  26  38  55  78 104 130 160 191 225
#     4   7   9  14  25  40  57  80 112 146 180 220
#     4   8  14  23  35  53  77 104 130 156 189 226
#     4   7   8  10  20  38  56  76 105 141 181 223
#     4   9  16  26  40  58  80 103 127 154 184 224
#     4   7  10  18  34  55  74  94 123 153 178 209
#
# _framework density 20.302250000000001
#
# number of rings (size 3 to 8) (size 9 to 14) (size 15 to 20)
#    0.000    4.067    0.000    4.400    0.000    0.000 
#    0.000    0.000    1.467    0.800    0.000    0.000 
#    0.000    2.133    0.000    6.667    0.000    8.000 
#
# Total GULP energy -334290.932895 kJ/mol
# GULP energy per Si atom -5571.515548 kJ/mol
# Density = 2.025604 g / cm^3
# Si number density = 20.302250 Si / 1000 Ang^3
#
#
#
# Elastic Constant Matrix: (Units=GPa)
#
#
# Indices 1 2 3 4 5 6 
#
# 1 202.2425 5.5504 83.7252 0.0000 0.0000 0.0000
# 2 5.5504 73.7461 0.4845 0.0000 0.0000 0.0000
# 3 83.7252 0.4845 81.0059 0.0000 0.0000 0.0000
# 4 0.0000 0.0000 0.0000 -4.2570 0.0000 0.0000
# 5 0.0000 0.0000 0.0000 0.0000 35.2770 0.0000
# 6 0.0000 0.0000 0.0000 0.0000 0.0000 -32.2712
#
#
#
# Elastic Compliance Matrix: (Units=1/GPa)
#
#
# Indices 1 2 3 4 5 6 
#
# 1 0.008668 -0.000594 -0.008956 0.000000 0.000000 0.000000
# 2 -0.000594 0.013601 0.000532 0.000000 0.000000 0.000000
# 3 -0.008956 0.000532 0.021598 0.000000 0.000000 0.000000
# 4 0.000000 0.000000 0.000000 -0.234907 0.000000 0.000000
# 5 0.000000 0.000000 0.000000 0.000000 0.028347 0.000000
# 6 0.000000 0.000000 0.000000 0.000000 0.000000 -0.030987
#
#
# Mechanical properties :
#
#
# Convention : Reuss Voigt Hill
#
# Bulk Modulus (GPa) = 38.70991 59.61274 49.16133
# Shear Modulus (GPa) = -29.93413 17.56537 -6.18438
#
# Velocity S-wave (km/s) = -3.84399 2.94461 -1.74722
# Velocity P-wave (km/s) = 0.77037 6.40213 4.49410
#
# Compressibility (1/GPa) = 0.02583318
#
# Stress axis : x y z
#
# Youngs Moduli (GPa) = 115.36086 73.52279 46.30029
#
# Poissons Ratio (x) = 0.04364 0.41466
# Poissons Ratio (y) = 0.06848 -0.02464
# Poissons Ratio (z) = 1.03316 -0.03913
#
# Static dielectric constant tensor:
#      x y z
#    x 1.777560 0.000000 0.000000 
#    y 0.000000 1.844650 0.000000 
#    z 0.000000 0.000000 1.728930 
# 
# From -- ./inp_files/71094.got.cif
#   From: 2010.05.17/outbox.cif.g08.bks.cpg/sg71_36_cif.got.tgz:71094.got - 2010.06.03 16:22:01.
