data_PCOD9517041
_publ_section_title
;
Structure prediction by ZEFSAII (Michael W. Deem and Ramdas Pophale) SiO2 
 PCOD9517041
Probable space group: F D D D
;
_chemical_formula_sum "Si O2"
_cell_formula_units_Z 120
_cell_length_a 23.954738
_cell_length_b 8.938093
_cell_length_c 27.370224
_cell_angle_alpha 90.000000
_cell_angle_beta 90.000000
_cell_angle_gamma 90.000000
_cell_volume 5860.229794
_symmetry_space_group_name_H-M "F D D D"
_symmetry_group_IT_number 70
_space_group.IT_coordinate_system_code '2'
_symmetry_cell_setting 'orthorhombic'
loop_
_space_group_symop_operation_xyz
x,y,z
1/4-x,1/4-y,z
x,1/4-y,1/4-z
1/4-x,y,1/4-z
-x,-y,-z
3/4+x,3/4+y,-z
-x,3/4+y,3/4+z
3/4+x,-y,3/4+z
x,1/2+y,1/2+z
1/4-x,3/4-y,1/2+z
x,3/4-y,3/4-z
1/4-x,1/2+y,3/4-z
-x,1/2-y,1/2-z
3/4+x,1/4+y,1/2-z
-x,1/4+y,1/4+z
3/4+x,1/2-y,1/4+z
1/2+x,y,1/2+z
3/4-x,1/4-y,1/2+z
1/2+x,1/4-y,3/4-z
3/4-x,y,3/4-z
1/2-x,-y,1/2-z
1/4+x,3/4+y,1/2-z
1/2-x,3/4+y,1/4+z
1/4+x,-y,1/4+z
1/2+x,1/2+y,z
3/4-x,3/4-y,z
1/2+x,3/4-y,1/4-z
3/4-x,1/2+y,1/4-z
1/2-x,1/2-y,-z
1/4+x,1/4+y,-z
1/2-x,1/4+y,3/4+z
1/4+x,1/2-y,3/4+z
loop_
_atom_site_type_symbol
_atom_site_label
_atom_site_fract_x
_atom_site_fract_y
_atom_site_fract_z
Si Si1 0.416028 0.007338 0.667902
Si Si2 0.875000 0.375000 0.375000
Si Si3 0.338816 0.029581 0.537352
Si Si4 0.040866 0.404413 0.682052
Si Si5 0.995670 0.625000 0.125000
O O1 0.418416 0.125000 0.625000
O O2 0.385895 0.092649 0.711175
O O3 0.375000 0.875000 0.653704
O O4 0.477410 0.957509 0.678437
O O5 0.915723 0.485086 0.344795
O O6 0.305475 0.073546 0.488808
O O7 0.296073 0.048756 0.583936
O O8 0.375000 0.875000 0.536327
O O9 0.034580 0.243882 0.654400
#
# Coordination Sequence:
#
# PCOD9517041 Si02
#       5
#    32   8  32  32  16
#     4  12  23  43  77 105 145 192 256 317 371 440
#     4  12  28  52  72 112 154 206 240 314 384 460
#     4  12  26  46  75 115 145 201 255 313 383 448
#     4  12  27  49  73 111 155 198 251 307 388 453
#     4  12  26  46  78 108 155 195 254 318 374 446
#
# _framework density 20.477011999999998
#
# number of rings (size 3 to 8) (size 9 to 14) (size 15 to 20)
#    0.000    0.000    6.667    3.200    0.000    3.733 
#    0.000    0.000    0.000    0.000    0.000    0.000 
#    0.000    0.000    0.000    0.000    0.000    0.000 
#
# Total GULP energy -167367.811401 kJ/mol
# GULP energy per Si atom -5578.927047 kJ/mol
# Density = 2.043041 g / cm^3
# Si number density = 20.477012 Si / 1000 Ang^3
#
#
#
# Elastic Constant Matrix: (Units=GPa)
#
#
# Indices 1 2 3 4 5 6 
#
# 1 127.3132 46.6556 91.8278 -0.0010 0.0000 0.0000
# 2 46.6556 128.0394 86.6380 -0.0039 0.0000 0.0000
# 3 91.8278 86.6380 156.0457 0.0000 0.0000 0.0000
# 4 -0.0010 -0.0039 0.0000 7554.0804 0.0084 0.0024
# 5 0.0000 0.0000 0.0000 0.0084 -15.9994 0.0000
# 6 0.0000 0.0000 0.0000 0.0024 0.0000 39.8125
#
#
#
# Elastic Compliance Matrix: (Units=1/GPa)
#
#
# Indices 1 2 3 4 5 6 
#
# 1 0.013691 0.000741 -0.008468 0.000000 0.000000 0.000000
# 2 0.000741 0.012550 -0.007404 0.000000 0.000000 0.000000
# 3 -0.008468 -0.007404 0.015502 0.000000 0.000000 0.000000
# 4 0.000000 0.000000 0.000000 0.000132 0.000000 0.000000
# 5 0.000000 0.000000 0.000000 0.000000 -0.062503 0.000000
# 6 0.000000 0.000000 0.000000 0.000000 0.000000 0.025118
#
#
# Mechanical properties :
#
#
# Convention : Reuss Voigt Hill
#
# Bulk Modulus (GPa) = 87.09818 95.73789 91.41804
# Shear Modulus (GPa) = 129.60101 1527.99716 828.79909
#
# Velocity S-wave (km/s) = 7.96419 27.34632 20.14013
# Velocity P-wave (km/s) = 11.27821 32.31022 24.19864
#
# Compressibility (1/GPa) = 0.01148130
#
# Stress axis : x y z
#
# Youngs Moduli (GPa) = 73.04124 79.68157 64.50601
#
# Poissons Ratio (x) = -0.05906 0.54625
# Poissons Ratio (y) = -0.05414 0.47761
# Poissons Ratio (z) = 0.61853 0.58997
#
# Static dielectric constant tensor:
#      x y z
#    x 1.644450 0.000000 0.000000 
#    y 0.000000 1.757250 0.000000 
#    z 0.000000 0.000000 1.637080 
# 
# From -- ./inp_files/10718.got.cif
#   From: 2010.05.17/outbox.cif.g08.bks.cpg/sg70_6_cif.got.tgz:10718.got - 2010.06.03 15:57:51.
