data_PCOD9517856
_publ_section_title
;
Structure prediction by ZEFSAII (Michael W. Deem and Ramdas Pophale) SiO2 
 PCOD9517856
Probable space group: I M M M
;
_chemical_formula_sum "Si O2"
_cell_formula_units_Z 104
_cell_length_a 13.292323
_cell_length_b 19.807051
_cell_length_c 25.112328
_cell_angle_alpha 90.000000
_cell_angle_beta 90.000000
_cell_angle_gamma 90.000000
_cell_volume 6611.616898
_symmetry_space_group_name_H-M "I M M M"
_symmetry_group_IT_number 71
_symmetry_cell_setting 'orthorhombic'
loop_
_space_group_symop_operation_xyz
x,y,z
-x,-y,z
x,-y,-z
-x,y,-z
-x,-y,-z
x,y,-z
-x,y,z
x,-y,z
1/2+x,1/2+y,1/2+z
1/2-x,1/2-y,1/2+z
1/2+x,1/2-y,1/2-z
1/2-x,1/2+y,1/2-z
1/2-x,1/2-y,1/2-z
1/2+x,1/2+y,1/2-z
1/2-x,1/2+y,1/2+z
1/2+x,1/2-y,1/2+z
loop_
_atom_site_type_symbol
_atom_site_label
_atom_site_fract_x
_atom_site_fract_y
_atom_site_fract_z
Si Si1 0.377741 0.685561 0.059782
Si Si2 0.803165 0.080948 0.870727
Si Si3 0.610627 0.791146 0.762011
Si Si4 0.000000 0.081993 0.061427
Si Si5 0.116373 0.675113 0.386859
Si Si6 0.184355 0.141425 0.753300
Si Si7 0.879182 0.075521 0.355284
O O1 0.500000 0.683044 0.060504
O O2 0.353242 0.762020 0.076288
O O3 0.341136 0.631805 0.103318
O O4 0.344174 0.669910 0.000000
O O5 0.699602 0.116743 0.889062
O O6 0.822669 0.104776 0.810000
O O7 0.898585 0.101684 0.907005
O O8 0.793477 0.000000 0.872482
O O9 0.500000 0.813411 0.745337
O O10 0.616337 0.796094 0.826324
O O11 0.700022 0.838116 0.741865
O O12 0.628621 0.713803 0.745486
O O13 0.000000 0.000000 0.060831
O O14 0.000000 0.104971 0.000000
O O15 0.000000 0.654833 0.398404
O O16 0.144390 0.097487 0.704770
O O17 0.000000 0.074360 0.360533
O O18 0.841407 0.000000 0.366281
#
# Coordination Sequence:
#
# PCOD9517856 Si02
#       7
#    16  16  16   8  16  16  16
#     4   9  17  30  47  68  95 126 160 192 230 287
#     4  10  21  33  49  74  98 128 167 203 243 292
#     4   9  17  29  47  68  96 131 161 193 240 293
#     4   9  20  38  52  64  94 134 164 198 244 288
#     4   9  17  32  51  71  96 128 164 201 246 288
#     4  10  18  29  47  72 100 126 159 200 243 284
#     4  10  19  29  45  69  99 130 154 190 239 284
#
# _framework density 15.729889
#
# number of rings (size 3 to 8) (size 9 to 14) (size 15 to 20)
#    0.000    2.538    1.538    0.923    2.154    1.231 
#    0.000    1.538    0.000    1.385    0.000    4.308 
#    0.000    0.000    0.000    1.385    0.000    0.154 
#
# Total GULP energy -289664.952237 kJ/mol
# GULP energy per Si atom -5570.479851 kJ/mol
# Density = 1.569409 g / cm^3
# Si number density = 15.729889 Si / 1000 Ang^3
#
#
#
# Elastic Constant Matrix: (Units=GPa)
#
#
# Indices 1 2 3 4 5 6 
#
# 1 71.9403 41.0196 30.5353 0.0000 0.0000 0.0000
# 2 41.0196 84.9849 47.8600 0.0000 0.0000 0.0000
# 3 30.5353 47.8600 78.0761 0.0000 0.0000 0.0000
# 4 0.0000 0.0000 0.0000 13.1184 0.0000 0.0000
# 5 0.0000 0.0000 0.0000 0.0000 -11.9193 0.0000
# 6 0.0000 0.0000 0.0000 0.0000 0.0000 14.4458
#
#
#
# Elastic Compliance Matrix: (Units=1/GPa)
#
#
# Indices 1 2 3 4 5 6 
#
# 1 0.019585 -0.007849 -0.002848 0.000000 0.000000 0.000000
# 2 -0.007849 0.021116 -0.009874 0.000000 0.000000 0.000000
# 3 -0.002848 -0.009874 0.019975 0.000000 0.000000 0.000000
# 4 0.000000 0.000000 0.000000 0.076229 0.000000 0.000000
# 5 0.000000 0.000000 0.000000 0.000000 -0.083898 0.000000
# 6 0.000000 0.000000 0.000000 0.000000 0.000000 0.069224
#
#
# Mechanical properties :
#
#
# Convention : Reuss Voigt Hill
#
# Bulk Modulus (GPa) = 51.19609 52.64792 51.92200
# Shear Modulus (GPa) = 29.43174 10.83475 20.13324
#
# Velocity S-wave (km/s) = 4.33028 2.62735 3.58150
# Velocity P-wave (km/s) = 7.59075 6.53809 7.08400
#
# Compressibility (1/GPa) = 0.01953274
#
# Stress axis : x y z
#
# Youngs Moduli (GPa) = 51.06021 47.35732 50.06320
#
# Poissons Ratio (x) = 0.37171 0.14259
# Poissons Ratio (y) = 0.40077 0.49434
# Poissons Ratio (z) = 0.14543 0.46762
#
# Static dielectric constant tensor:
#      x y z
#    x 1.534390 0.000000 0.000000 
#    y 0.000000 1.520760 0.000000 
#    z 0.000000 0.000000 1.520690 
# 
# From -- ./inp_files/60079.got.cif
#   From: 2010.05.17/outbox.cif.g08.bks.cpg/sg71_31_cif.got.tgz:60079.got - 2010.06.03 16:22:01.
