data_PCOD9517491
_publ_section_title
;
Structure prediction by ZEFSAII (Michael W. Deem and Ramdas Pophale) SiO2 
 PCOD9517491
Probable space group: I M M M
;
_chemical_formula_sum "Si O2"
_cell_formula_units_Z 52
_cell_length_a 22.795134
_cell_length_b 9.858228
_cell_length_c 12.540786
_cell_angle_alpha 90.000000
_cell_angle_beta 90.000000
_cell_angle_gamma 90.000000
_cell_volume 2818.160768
_symmetry_space_group_name_H-M "I M M M"
_symmetry_group_IT_number 71
_symmetry_cell_setting 'orthorhombic'
loop_
_space_group_symop_operation_xyz
x,y,z
-x,-y,z
x,-y,-z
-x,y,-z
-x,-y,-z
x,y,-z
-x,y,z
x,-y,z
1/2+x,1/2+y,1/2+z
1/2-x,1/2-y,1/2+z
1/2+x,1/2-y,1/2-z
1/2-x,1/2+y,1/2-z
1/2-x,1/2-y,1/2-z
1/2+x,1/2+y,1/2-z
1/2-x,1/2+y,1/2+z
1/2+x,1/2-y,1/2+z
loop_
_atom_site_type_symbol
_atom_site_label
_atom_site_fract_x
_atom_site_fract_y
_atom_site_fract_z
Si Si1 0.715550 0.000000 0.871729
Si Si2 0.120661 0.294837 0.288760
Si Si3 0.336768 0.500000 0.000000
Si Si4 0.170671 0.000000 0.731879
Si Si5 0.570301 0.000000 0.376599
Si Si6 0.934297 0.235006 0.500000
O O1 0.679964 0.130426 0.827839
O O2 0.779742 0.000000 0.820895
O O3 0.715656 0.000000 0.000000
O O4 0.132749 0.137424 0.264058
O O5 0.095655 0.371426 0.186818
O O6 0.076744 0.312354 0.389362
O O7 0.302445 0.500000 0.111032
O O8 0.381538 0.373724 0.000000
O O9 0.500000 0.000000 0.370760
O O10 0.587879 0.000000 0.500000
O O11 0.000000 0.177895 0.500000
#
# Coordination Sequence:
#
# PCOD9517491 Si02
#       6
#     8  16   4   8   8   8
#     4  11  21  37  54  80 116 155 199 244 281 339
#     4  10  21  38  57  86 116 146 198 238 286 356
#     4   8  19  34  50  84 120 142 187 232 280 358
#     4  10  21  38  59  81 116 156 188 243 293 327
#     4  10  22  40  59  81 116 152 187 235 288 348
#     4  10  17  31  58  85 113 145 179 235 297 337
#
# _framework density 18.451751000000002
#
# number of rings (size 3 to 8) (size 9 to 14) (size 15 to 20)
#    0.000    2.000    1.538    2.077    0.000    1.231 
#    5.538    4.615    0.000    1.846    0.000    0.000 
#    0.000    0.000    0.000    0.000    0.000    0.000 
#
# Total GULP energy -144998.352141 kJ/mol
# GULP energy per Si atom -5576.859698 kJ/mol
# Density = 1.840975 g / cm^3
# Si number density = 18.451751 Si / 1000 Ang^3
#
#
#
# Elastic Constant Matrix: (Units=GPa)
#
#
# Indices 1 2 3 4 5 6 
#
# 1 61.8937 26.8499 52.4510 0.0000 0.0000 0.0000
# 2 26.8499 133.0633 62.2247 0.0000 0.0000 0.0000
# 3 52.4510 62.2247 182.7908 0.0000 0.0000 0.0000
# 4 0.0000 0.0000 0.0000 51.6077 0.0000 0.0000
# 5 0.0000 0.0000 0.0000 0.0000 21.4726 0.0000
# 6 0.0000 0.0000 0.0000 0.0000 0.0000 38.9808
#
#
#
# Elastic Compliance Matrix: (Units=1/GPa)
#
#
# Indices 1 2 3 4 5 6 
#
# 1 0.021683 -0.001743 -0.005628 0.000000 0.000000 0.000000
# 2 -0.001743 0.009078 -0.002590 0.000000 0.000000 0.000000
# 3 -0.005628 -0.002590 0.007967 0.000000 0.000000 0.000000
# 4 0.000000 0.000000 0.000000 0.019377 0.000000 0.000000
# 5 0.000000 0.000000 0.000000 0.000000 0.046571 0.000000
# 6 0.000000 0.000000 0.000000 0.000000 0.000000 0.025654
#
#
# Mechanical properties :
#
#
# Convention : Reuss Voigt Hill
#
# Bulk Modulus (GPa) = 53.17746 73.42212 63.29979
# Shear Modulus (GPa) = 31.94447 38.16035 35.05241
#
# Velocity S-wave (km/s) = 4.16534 4.55259 4.36326
# Velocity P-wave (km/s) = 7.21219 8.21660 7.73072
#
# Compressibility (1/GPa) = 0.01880496
#
# Stress axis : x y z
#
# Youngs Moduli (GPa) = 46.11993 110.15390 125.51018
#
# Poissons Ratio (x) = 0.19202 0.70641
# Poissons Ratio (y) = 0.08040 0.32509
# Poissons Ratio (z) = 0.25958 0.28532
#
# Static dielectric constant tensor:
#      x y z
#    x 1.615700 0.000000 0.000000 
#    y 0.000000 1.667750 0.000000 
#    z 0.000000 0.000000 1.649450 
# 
# From -- ./inp_files/25099.got.cif
#   From: 2010.05.17/outbox.cif.g08.bks.cpg/sg71_13_cif.got.tgz:25099.got - 2010.06.03 16:22:01.
