data_PCOD9517418
_publ_section_title
;
Structure prediction by ZEFSAII (Michael W. Deem and Ramdas Pophale) SiO2 
 PCOD9517418
Probable space group: I M M M
;
_chemical_formula_sum "Si O2"
_cell_formula_units_Z 104
_cell_length_a 24.270148
_cell_length_b 28.176091
_cell_length_c 7.946808
_cell_angle_alpha 90.000000
_cell_angle_beta 90.000000
_cell_angle_gamma 90.000000
_cell_volume 5434.328484
_symmetry_space_group_name_H-M "I M M M"
_symmetry_group_IT_number 71
_symmetry_cell_setting 'orthorhombic'
loop_
_space_group_symop_operation_xyz
x,y,z
-x,-y,z
x,-y,-z
-x,y,-z
-x,-y,-z
x,y,-z
-x,y,z
x,-y,z
1/2+x,1/2+y,1/2+z
1/2-x,1/2-y,1/2+z
1/2+x,1/2-y,1/2-z
1/2-x,1/2+y,1/2-z
1/2-x,1/2-y,1/2-z
1/2+x,1/2+y,1/2-z
1/2-x,1/2+y,1/2+z
1/2+x,1/2-y,1/2+z
loop_
_atom_site_type_symbol
_atom_site_label
_atom_site_fract_x
_atom_site_fract_y
_atom_site_fract_z
Si Si1 0.671642 0.291874 0.299201
Si Si2 0.210714 0.054285 0.294335
Si Si3 0.797616 0.689096 0.698413
Si Si4 0.000000 0.055911 0.199955
Si Si5 0.891339 0.116614 0.701138
Si Si6 0.058512 0.443214 0.800097
Si Si7 0.327667 0.909944 0.305705
O O1 0.672621 0.288373 0.500000
O O2 0.733309 0.308668 0.244786
O O3 0.671063 0.238600 0.227712
O O4 0.623681 0.329045 0.251212
O O5 0.210998 0.057660 0.500000
O O6 0.161436 0.087245 0.232769
O O7 0.270686 0.070317 0.232258
O O8 0.200222 0.000000 0.249830
O O9 0.797735 0.678541 0.500000
O O10 0.824682 0.646409 0.797787
O O11 0.053648 0.087813 0.247347
O O12 0.000000 0.000000 0.265631
O O13 0.000000 0.051686 0.000000
O O14 0.891234 0.115889 0.500000
O O15 0.059066 0.500000 0.791310
O O16 0.115384 0.425611 0.723857
O O17 0.000000 0.426203 0.728646
O O18 0.058409 0.430652 0.000000
O O19 0.328390 0.927008 0.500000
#
# Coordination Sequence:
#
# PCOD9517418 Si02
#       7
#    16  16  16   8  16  16  16
#     4  10  20  35  56  80 108 140 177 221 274 333
#     4   9  17  28  46  76 109 138 172 217 268 324
#     4  10  20  33  52  79 111 141 176 220 273 331
#     4  11  25  43  61  83 115 155 197 237 280 337
#     4  11  21  36  59  84 112 144 184 232 284 338
#     4   8  14  25  44  72 104 138 177 218 256 300
#     4  10  17  28  49  76 106 139 177 221 270 320
#
# _framework density 19.137599000000002
#
# number of rings (size 3 to 8) (size 9 to 14) (size 15 to 20)
#    0.000    2.231    1.538    3.000    0.000    4.308 
#    0.000    0.000    1.692    3.231    0.000    1.077 
#    0.000    0.000    0.000    0.000    0.000    0.000 
#
# Total GULP energy -289743.056223 kJ/mol
# GULP energy per Si atom -5571.981850 kJ/mol
# Density = 1.909404 g / cm^3
# Si number density = 19.137599 Si / 1000 Ang^3
#
#
#
# Elastic Constant Matrix: (Units=GPa)
#
#
# Indices 1 2 3 4 5 6 
#
# 1 98.6891 1.7690 0.5827 0.0000 0.0000 0.0000
# 2 1.7690 29.2991 -9.6055 0.0000 0.0000 0.0000
# 3 0.5827 -9.6055 31.7861 0.0000 0.0000 0.0000
# 4 0.0000 0.0000 0.0000 13.8052 0.0000 0.0000
# 5 0.0000 0.0000 0.0000 0.0000 9.8954 0.0000
# 6 0.0000 0.0000 0.0000 0.0000 0.0000 28.2341
#
#
#
# Elastic Compliance Matrix: (Units=1/GPa)
#
#
# Indices 1 2 3 4 5 6 
#
# 1 0.010149 -0.000748 -0.000412 0.000000 0.000000 0.000000
# 2 -0.000748 0.037939 0.011479 0.000000 0.000000 0.000000
# 3 -0.000412 0.011479 0.034937 0.000000 0.000000 0.000000
# 4 0.000000 0.000000 0.000000 0.072437 0.000000 0.000000
# 5 0.000000 0.000000 0.000000 0.000000 0.101057 0.000000
# 6 0.000000 0.000000 0.000000 0.000000 0.000000 0.035418
#
#
# Mechanical properties :
#
#
# Convention : Reuss Voigt Hill
#
# Bulk Modulus (GPa) = 9.64678 16.14076 12.89377
# Shear Modulus (GPa) = 16.34776 21.52214 18.93495
#
# Velocity S-wave (km/s) = 2.92588 3.35714 3.14890
# Velocity P-wave (km/s) = 4.05784 4.84557 4.46910
#
# Compressibility (1/GPa) = 0.10366149
#
# Stress axis : x y z
#
# Youngs Moduli (GPa) = 98.53509 26.35810 28.62335
#
# Poissons Ratio (x) = 0.01971 0.01179
# Poissons Ratio (y) = 0.07369 -0.32855
# Poissons Ratio (z) = 0.04060 -0.30255
#
# Static dielectric constant tensor:
#      x y z
#    x 1.688470 0.000000 0.000000 
#    y 0.000000 1.672760 0.000000 
#    z 0.000000 0.000000 1.686410 
# 
# From -- ./inp_files/13289.got.cif
#   From: 2010.05.17/outbox.cif.g08.bks.cpg/sg71_7_cif.got.tgz:13289.got - 2010.06.03 16:22:01.
