data_PCOD9517138
_publ_section_title
;
Structure prediction by ZEFSAII (Michael W. Deem and Ramdas Pophale) SiO2 
 PCOD9517138
Probable space group: F D D D
;
_chemical_formula_sum "Si O2"
_cell_formula_units_Z 72
_cell_length_a 8.968262
_cell_length_b 23.046932
_cell_length_c 12.340718
_cell_angle_alpha 90.000000
_cell_angle_beta 90.000000
_cell_angle_gamma 90.000000
_cell_volume 2550.714412
_symmetry_space_group_name_H-M "F D D D"
_symmetry_group_IT_number 70
_space_group.IT_coordinate_system_code '2'
_symmetry_cell_setting 'orthorhombic'
loop_
_space_group_symop_operation_xyz
x,y,z
1/4-x,1/4-y,z
x,1/4-y,1/4-z
1/4-x,y,1/4-z
-x,-y,-z
3/4+x,3/4+y,-z
-x,3/4+y,3/4+z
3/4+x,-y,3/4+z
x,1/2+y,1/2+z
1/4-x,3/4-y,1/2+z
x,3/4-y,3/4-z
1/4-x,1/2+y,3/4-z
-x,1/2-y,1/2-z
3/4+x,1/4+y,1/2-z
-x,1/4+y,1/4+z
3/4+x,1/2-y,1/4+z
1/2+x,y,1/2+z
3/4-x,1/4-y,1/2+z
1/2+x,1/4-y,3/4-z
3/4-x,y,3/4-z
1/2-x,-y,1/2-z
1/4+x,3/4+y,1/2-z
1/2-x,3/4+y,1/4+z
1/4+x,-y,1/4+z
1/2+x,1/2+y,z
3/4-x,3/4-y,z
1/2+x,3/4-y,1/4-z
3/4-x,1/2+y,1/4-z
1/2-x,1/2-y,-z
1/4+x,1/4+y,-z
1/2-x,1/4+y,3/4+z
1/4+x,1/2-y,3/4+z
loop_
_atom_site_type_symbol
_atom_site_label
_atom_site_fract_x
_atom_site_fract_y
_atom_site_fract_z
Si Si1 0.007497 0.417807 0.700645
Si Si2 0.870902 0.031491 0.579093
Si Si3 0.125000 0.625000 0.625000
O O1 0.125000 0.385868 0.625000
O O2 0.050789 0.440986 0.817692
O O3 0.875000 0.375000 0.718466
O O4 0.964006 0.474208 0.632999
O O5 0.738884 0.080811 0.559589
O O6 0.000000 0.000000 0.500000
#
# Coordination Sequence:
#
# PCOD9517138 Si02
#       3
#    32  32   8
#     4  12  29  56  92 135 184 245 318 403 488 580
#     4  12  28  54  88 134 188 245 319 396 481 587
#     4  12  28  52  98 132 196 250 326 394 496 590
#
# _framework density 28.227385000000002
#
# number of rings (size 3 to 8) (size 9 to 14) (size 15 to 20)
#    0.000    0.000    2.222    5.333    3.111    5.333 
#    0.000    0.000    4.889    0.000    0.000    0.000 
#    0.000    0.000    0.000    0.000    0.000    0.000 
#
# Total GULP energy -100473.855209 kJ/mol
# GULP energy per Si atom -5581.880845 kJ/mol
# Density = 2.816314 g / cm^3
# Si number density = 28.227385 Si / 1000 Ang^3
#
#
#
# Elastic Constant Matrix: (Units=GPa)
#
#
# Indices 1 2 3 4 5 6 
#
# 1 207.7068 83.0570 132.4351 0.0000 0.0000 0.0000
# 2 83.0570 195.1967 72.5861 0.0000 0.0000 0.0000
# 3 132.4351 72.5861 184.3527 0.0000 0.0000 0.0000
# 4 0.0000 0.0000 0.0000 74.7484 0.0000 0.0000
# 5 0.0000 0.0000 0.0000 0.0000 41.6443 0.0000
# 6 0.0000 0.0000 0.0000 0.0000 0.0000 103.2810
#
#
#
# Elastic Compliance Matrix: (Units=1/GPa)
#
#
# Indices 1 2 3 4 5 6 
#
# 1 0.009360 -0.001737 -0.006041 0.000000 0.000000 0.000000
# 2 -0.001737 0.006324 -0.001242 0.000000 0.000000 0.000000
# 3 -0.006041 -0.001242 0.010253 0.000000 0.000000 0.000000
# 4 0.000000 0.000000 0.000000 0.013378 0.000000 0.000000
# 5 0.000000 0.000000 0.000000 0.000000 0.024013 0.000000
# 6 0.000000 0.000000 0.000000 0.000000 0.000000 0.009682
#
#
# Mechanical properties :
#
#
# Convention : Reuss Voigt Hill
#
# Bulk Modulus (GPa) = 126.61158 129.26806 127.93982
# Shear Modulus (GPa) = 53.37164 63.87993 58.62578
#
# Velocity S-wave (km/s) = 4.35302 4.76231 4.56226
# Velocity P-wave (km/s) = 8.37954 8.72549 8.55426
#
# Compressibility (1/GPa) = 0.00789817
#
# Stress axis : x y z
#
# Youngs Moduli (GPa) = 106.83299 158.12800 97.53279
#
# Poissons Ratio (x) = 0.27461 0.58915
# Poissons Ratio (y) = 0.18553 0.12118
# Poissons Ratio (z) = 0.64533 0.19646
#
# Static dielectric constant tensor:
#      x y z
#    x 2.485440 0.000000 0.000000 
#    y 0.000000 2.204330 0.000000 
#    z 0.000000 0.000000 2.150580 
# 
# From -- ./inp_files/23523.got.cif
#   From: 2010.05.17/outbox.cif.g08.bks.cpg/sg70_12_cif.got.tgz:23523.got - 2010.06.03 15:57:51.
