data_PCOD9517069
_publ_section_title
;
Structure prediction by ZEFSAII (Michael W. Deem and Ramdas Pophale) SiO2 
 PCOD9517069
Probable space group: F D D D
;
_chemical_formula_sum "Si O2"
_cell_formula_units_Z 176
_cell_length_a 30.283096
_cell_length_b 11.851994
_cell_length_c 23.272921
_cell_angle_alpha 90.000000
_cell_angle_beta 90.000000
_cell_angle_gamma 90.000000
_cell_volume 8353.002119
_symmetry_space_group_name_H-M "F D D D"
_symmetry_group_IT_number 70
_space_group.IT_coordinate_system_code '2'
_symmetry_cell_setting 'orthorhombic'
loop_
_space_group_symop_operation_xyz
x,y,z
1/4-x,1/4-y,z
x,1/4-y,1/4-z
1/4-x,y,1/4-z
-x,-y,-z
3/4+x,3/4+y,-z
-x,3/4+y,3/4+z
3/4+x,-y,3/4+z
x,1/2+y,1/2+z
1/4-x,3/4-y,1/2+z
x,3/4-y,3/4-z
1/4-x,1/2+y,3/4-z
-x,1/2-y,1/2-z
3/4+x,1/4+y,1/2-z
-x,1/4+y,1/4+z
3/4+x,1/2-y,1/4+z
1/2+x,y,1/2+z
3/4-x,1/4-y,1/2+z
1/2+x,1/4-y,3/4-z
3/4-x,y,3/4-z
1/2-x,-y,1/2-z
1/4+x,3/4+y,1/2-z
1/2-x,3/4+y,1/4+z
1/4+x,-y,1/4+z
1/2+x,1/2+y,z
3/4-x,3/4-y,z
1/2+x,3/4-y,1/4-z
3/4-x,1/2+y,1/4-z
1/2-x,1/2-y,-z
1/4+x,1/4+y,-z
1/2-x,1/4+y,3/4+z
1/4+x,1/2-y,3/4+z
loop_
_atom_site_type_symbol
_atom_site_label
_atom_site_fract_x
_atom_site_fract_y
_atom_site_fract_z
Si Si1 0.039635 0.675728 0.565691
Si Si2 0.297230 0.206609 0.253375
Si Si3 0.427070 0.659098 0.867447
Si Si4 0.448851 0.969538 0.991244
Si Si5 0.625000 0.625000 0.247141
Si Si6 0.382512 0.111283 0.193198
O O1 0.022126 0.625000 0.625000
O O2 0.054821 0.801264 0.582854
O O3 0.082338 0.606902 0.543501
O O4 0.001443 0.678575 0.518928
O O5 0.301976 0.175763 0.320249
O O6 0.306794 0.339022 0.243872
O O7 0.334278 0.143085 0.216843
O O8 0.375000 0.644375 0.875000
O O9 0.436315 0.762964 0.825258
O O10 0.417712 0.053958 0.027384
O O11 0.500000 0.000000 0.000000
O O12 0.611625 0.517314 0.285353
O O13 0.385313 0.125000 0.125000
#
# Coordination Sequence:
#
# PCOD9517069 Si02
#       6
#    32  32  32  32  16  32
#     4  12  25  45  73 109 151 194 245 311 367 443
#     4  12  26  45  75 109 149 188 249 304 370 442
#     4  12  24  47  75 107 140 198 252 297 365 442
#     4  12  25  49  71 108 145 190 244 301 371 436
#     4  12  25  50  74 104 148 199 250 304 374 440
#     4  12  28  46  74 108 144 196 243 307 377 439
#
# _framework density 21.070269
#
# number of rings (size 3 to 8) (size 9 to 14) (size 15 to 20)
#    0.000    0.000    5.455    4.091    2.545    8.000 
#    0.000    0.000    0.000    0.000    0.000    0.000 
#    0.000    0.000    0.000    0.000    0.000    0.000 
#
# Total GULP energy -246416.163931 kJ/mol
# GULP energy per Si atom -5600.367362 kJ/mol
# Density = 2.102231 g / cm^3
# Si number density = 21.070269 Si / 1000 Ang^3
#
#
#
# Elastic Constant Matrix: (Units=GPa)
#
#
# Indices 1 2 3 4 5 6 
#
# 1 148.3754 8.5075 63.5530 0.0000 0.0000 0.0000
# 2 8.5075 55.1004 14.4196 0.0000 0.0000 0.0000
# 3 63.5530 14.4196 174.7464 0.0000 0.0000 0.0000
# 4 0.0000 0.0000 0.0000 26.7098 0.0000 0.0000
# 5 0.0000 0.0000 0.0000 0.0000 42.7811 0.0000
# 6 0.0000 0.0000 0.0000 0.0000 0.0000 27.3456
#
#
#
# Elastic Compliance Matrix: (Units=1/GPa)
#
#
# Indices 1 2 3 4 5 6 
#
# 1 0.007996 -0.000484 -0.002868 0.000000 0.000000 0.000000
# 2 -0.000484 0.018579 -0.001357 0.000000 0.000000 0.000000
# 3 -0.002868 -0.001357 0.006878 0.000000 0.000000 0.000000
# 4 0.000000 0.000000 0.000000 0.037439 0.000000 0.000000
# 5 0.000000 0.000000 0.000000 0.000000 0.023375 0.000000
# 6 0.000000 0.000000 0.000000 0.000000 0.000000 0.036569
#
#
# Mechanical properties :
#
#
# Convention : Reuss Voigt Hill
#
# Bulk Modulus (GPa) = 41.60790 61.24249 51.42520
# Shear Modulus (GPa) = 33.72347 38.81677 36.27012
#
# Velocity S-wave (km/s) = 4.00499 4.29680 4.15346
# Velocity P-wave (km/s) = 6.41691 7.33114 6.88921
#
# Compressibility (1/GPa) = 0.02403390
#
# Stress axis : x y z
#
# Youngs Moduli (GPa) = 125.06451 53.82548 145.39883
#
# Poissons Ratio (x) = 0.02605 0.41701
# Poissons Ratio (y) = 0.06053 0.19731
# Poissons Ratio (z) = 0.35869 0.07304
#
# Static dielectric constant tensor:
#      x y z
#    x 1.722410 0.000000 0.000000 
#    y 0.000000 1.790280 0.000000 
#    z 0.000000 0.000000 1.734080 
# 
# From -- ./inp_files/22297.got.cif
#   From: 2010.05.17/outbox.cif.g08.bks.cpg/sg70_12_cif.got.tgz:22297.got - 2010.06.03 15:57:51.
