data_PCOD9517465
_publ_section_title
;
Structure prediction by ZEFSAII (Michael W. Deem and Ramdas Pophale) SiO2 
 PCOD9517465
Probable space group: I M M M
;
_chemical_formula_sum "Si O2"
_cell_formula_units_Z 96
_cell_length_a 21.019752
_cell_length_b 21.582929
_cell_length_c 14.045961
_cell_angle_alpha 90.000000
_cell_angle_beta 90.000000
_cell_angle_gamma 90.000000
_cell_volume 6372.200437
_symmetry_space_group_name_H-M "I M M M"
_symmetry_group_IT_number 71
_symmetry_cell_setting 'orthorhombic'
loop_
_space_group_symop_operation_xyz
x,y,z
-x,-y,z
x,-y,-z
-x,y,-z
-x,-y,-z
x,y,-z
-x,y,z
x,-y,z
1/2+x,1/2+y,1/2+z
1/2-x,1/2-y,1/2+z
1/2+x,1/2-y,1/2-z
1/2-x,1/2+y,1/2-z
1/2-x,1/2-y,1/2-z
1/2+x,1/2+y,1/2-z
1/2-x,1/2+y,1/2+z
1/2+x,1/2-y,1/2+z
loop_
_atom_site_type_symbol
_atom_site_label
_atom_site_fract_x
_atom_site_fract_y
_atom_site_fract_z
Si Si1 0.253880 0.207119 0.109181
Si Si2 0.397693 0.164859 0.109286
Si Si3 0.928938 0.426511 0.222325
Si Si4 0.298771 0.663535 0.199655
Si Si5 0.928600 0.807726 0.613879
Si Si6 0.301412 0.925748 0.389641
O O1 0.321064 0.170653 0.113954
O O2 0.270761 0.276880 0.142361
O O3 0.208043 0.178899 0.188848
O O4 0.231690 0.206454 0.000000
O O5 0.421516 0.114228 0.182953
O O6 0.422388 0.233926 0.133616
O O7 0.415903 0.151599 0.000000
O O8 0.923339 0.500000 0.243235
O O9 0.870761 0.409572 0.152896
O O10 0.000000 0.416303 0.182147
O O11 0.371586 0.658162 0.167367
O O12 0.253916 0.607058 0.169961
O O13 0.919090 0.814296 0.500000
O O14 0.000000 0.828056 0.637698
O O15 0.296865 0.906880 0.500000
O O16 0.295165 0.000000 0.384782
#
# Coordination Sequence:
#
# PCOD9517465 Si02
#       6
#    16  16  16  16  16  16
#     4   9  17  28  47  72  92 115 148 188 231 271
#     4   9  16  29  45  63  90 121 151 184 224 270
#     4  10  20  31  42  60  88 122 159 194 225 260
#     4  10  17  30  50  68  91 120 151 187 228 276
#     4   9  17  28  45  70  94 117 148 184 226 279
#     4  10  20  33  48  65  87 119 159 196 227 266
#
# _framework density 15.065439
#
# number of rings (size 3 to 8) (size 9 to 14) (size 15 to 20)
#    0.000    2.500    1.667    3.000    0.000    1.667 
#    0.000    2.500    0.000    1.500    0.000    2.333 
#    0.000    0.000    0.000    1.500    0.000    0.167 
#
# Total GULP energy -267472.044666 kJ/mol
# GULP energy per Si atom -5572.334264 kJ/mol
# Density = 1.503115 g / cm^3
# Si number density = 15.065439 Si / 1000 Ang^3
#
#
#
# Elastic Constant Matrix: (Units=GPa)
#
#
# Indices 1 2 3 4 5 6 
#
# 1 105.8452 20.9644 42.2826 0.0000 0.0000 0.0000
# 2 20.9644 19.7277 20.3923 0.0000 0.0000 0.0000
# 3 42.2826 20.3923 89.1488 0.0000 0.0000 0.0000
# 4 0.0000 0.0000 0.0000 18.1669 0.0000 0.0000
# 5 0.0000 0.0000 0.0000 0.0000 23.1360 0.0000
# 6 0.0000 0.0000 0.0000 0.0000 0.0000 13.6216
#
#
#
# Elastic Compliance Matrix: (Units=1/GPa)
#
#
# Indices 1 2 3 4 5 6 
#
# 1 0.012932 -0.009695 -0.003916 0.000000 0.000000 0.000000
# 2 -0.009695 0.073656 -0.012250 0.000000 0.000000 0.000000
# 3 -0.003916 -0.012250 0.015877 0.000000 0.000000 0.000000
# 4 0.000000 0.000000 0.000000 0.055045 0.000000 0.000000
# 5 0.000000 0.000000 0.000000 0.000000 0.043223 0.000000
# 6 0.000000 0.000000 0.000000 0.000000 0.000000 0.073413
#
#
# Mechanical properties :
#
#
# Convention : Reuss Voigt Hill
#
# Bulk Modulus (GPa) = 19.70734 42.44449 31.07592
# Shear Modulus (GPa) = 14.58651 19.72372 17.15511
#
# Velocity S-wave (km/s) = 3.11498 3.62222 3.37813
# Velocity P-wave (km/s) = 5.10363 6.76229 5.99064
#
# Compressibility (1/GPa) = 0.05074251
#
# Stress axis : x y z
#
# Youngs Moduli (GPa) = 77.32501 13.57663 62.98552
#
# Poissons Ratio (x) = 0.13163 0.24665
# Poissons Ratio (y) = 0.74968 0.77157
# Poissons Ratio (z) = 0.30281 0.16631
#
# Static dielectric constant tensor:
#      x y z
#    x 1.516650 0.000000 0.000000 
#    y 0.000000 1.483840 0.000000 
#    z 0.000000 0.000000 1.495050 
# 
# From -- ./inp_files/27570.got.cif
#   From: 2010.05.17/outbox.cif.g08.bks.cpg/sg71_14_cif.got.tgz:27570.got - 2010.06.03 16:22:01.
