data_PCOD9517227
_publ_section_title
;
Structure prediction by ZEFSAII (Michael W. Deem and Ramdas Pophale) SiO2 
 PCOD9517227
Probable space group: I M M M
;
_chemical_formula_sum "Si O2"
_cell_formula_units_Z 96
_cell_length_a 22.189267
_cell_length_b 7.431027
_cell_length_c 26.130345
_cell_angle_alpha 90.000000
_cell_angle_beta 90.000000
_cell_angle_gamma 90.000000
_cell_volume 4308.607559
_symmetry_space_group_name_H-M "I M M M"
_symmetry_group_IT_number 71
_symmetry_cell_setting 'orthorhombic'
loop_
_space_group_symop_operation_xyz
x,y,z
-x,-y,z
x,-y,-z
-x,y,-z
-x,-y,-z
x,y,-z
-x,y,z
x,-y,z
1/2+x,1/2+y,1/2+z
1/2-x,1/2-y,1/2+z
1/2+x,1/2-y,1/2-z
1/2-x,1/2+y,1/2-z
1/2-x,1/2-y,1/2-z
1/2+x,1/2+y,1/2-z
1/2-x,1/2+y,1/2+z
1/2+x,1/2-y,1/2+z
loop_
_atom_site_type_symbol
_atom_site_label
_atom_site_fract_x
_atom_site_fract_y
_atom_site_fract_z
Si Si1 0.500000 0.251990 0.940347
Si Si2 0.365581 0.717107 0.057005
Si Si3 0.877982 0.220930 0.268364
Si Si4 0.358935 0.708847 0.345332
Si Si5 0.429808 0.280700 0.443235
Si Si6 0.000000 0.797066 0.319527
Si Si7 0.781001 0.782672 0.349061
O O1 0.430491 0.188520 0.940120
O O2 0.500000 0.313085 0.880720
O O3 0.500000 0.323732 0.000000
O O4 0.378587 0.500000 0.062892
O O5 0.319854 0.770422 0.101194
O O6 0.340485 0.743642 0.000000
O O7 0.877252 0.284122 0.209951
O O8 0.818603 0.277036 0.299445
O O9 0.937751 0.282067 0.298519
O O10 0.876520 0.000000 0.269034
O O11 0.377574 0.500000 0.343531
O O12 0.390460 0.785845 0.395783
O O13 0.287018 0.717299 0.349939
O O14 0.410192 0.220926 0.500000
O O15 0.500000 0.232853 0.436505
O O16 0.426968 0.500000 0.443883
O O17 0.000000 0.000000 0.298552
O O18 0.778722 0.000000 0.349102
#
# Coordination Sequence:
#
# PCOD9517227 Si02
#       7
#     8  16  16  16  16   8  16
#     4  10  16  23  40  66  96 127 157 194 239 277
#     4   9  16  25  40  65  95 124 155 192 233 274
#     4   9  18  29  44  68  96 122 153 194 237 273
#     4  10  20  32  49  72  94 121 157 192 228 278
#     4   8  15  29  49  72  95 116 145 194 247 282
#     4  10  16  25  42  68  97 121 151 199 243 271
#     4  10  19  32  47  66  97 132 157 184 227 276
#
# _framework density 22.28098
#
# number of rings (size 3 to 8) (size 9 to 14) (size 15 to 20)
#    0.000    2.667    1.667    1.750    1.167    2.500 
#    0.000    0.000    0.000    0.500    0.000    4.667 
#    0.000    2.000    0.000    0.000    0.000    0.000 
#
# Total GULP energy -267447.782228 kJ/mol
# GULP energy per Si atom -5571.828796 kJ/mol
# Density = 2.223027 g / cm^3
# Si number density = 22.280980 Si / 1000 Ang^3
#
#
#
# Elastic Constant Matrix: (Units=GPa)
#
#
# Indices 1 2 3 4 5 6 
#
# 1 105.1057 -3.4238 101.3126 0.0000 0.0000 0.0000
# 2 -3.4238 68.7397 12.1848 0.0000 0.0000 0.0000
# 3 101.3126 12.1848 236.6567 0.0000 0.0000 0.0000
# 4 0.0000 0.0000 0.0000 -11.1460 0.0000 0.0000
# 5 0.0000 0.0000 0.0000 0.0000 27.6217 0.0000
# 6 0.0000 0.0000 0.0000 0.0000 0.0000 13.1475
#
#
#
# Elastic Compliance Matrix: (Units=1/GPa)
#
#
# Indices 1 2 3 4 5 6 
#
# 1 0.016491 0.002092 -0.007168 0.000000 0.000000 0.000000
# 2 0.002092 0.014947 -0.001665 0.000000 0.000000 0.000000
# 3 -0.007168 -0.001665 0.007380 0.000000 0.000000 0.000000
# 4 0.000000 0.000000 0.000000 -0.089718 0.000000 0.000000
# 5 0.000000 0.000000 0.000000 0.000000 0.036203 0.000000
# 6 0.000000 0.000000 0.000000 0.000000 0.000000 0.076060
#
#
# Mechanical properties :
#
#
# Convention : Reuss Voigt Hill
#
# Bulk Modulus (GPa) = 39.46893 70.07215 54.77054
# Shear Modulus (GPa) = 60.03084 25.95320 42.99202
#
# Velocity S-wave (km/s) = 5.19626 3.41664 4.39742
# Velocity P-wave (km/s) = 7.33172 6.86164 7.10057
#
# Compressibility (1/GPa) = 0.02533638
#
# Stress axis : x y z
#
# Youngs Moduli (GPa) = 60.63783 66.90309 135.50633
#
# Poissons Ratio (x) = -0.13996 0.97126
# Poissons Ratio (y) = -0.12685 0.22564
# Poissons Ratio (z) = 0.43463 0.11140
#
# Static dielectric constant tensor:
#      x y z
#    x 1.750710 0.000000 0.000000 
#    y 0.000000 1.921200 0.000000 
#    z 0.000000 0.000000 1.795710 
# 
# From -- ./inp_files/61280.got.cif
#   From: 2010.05.17/outbox.cif.g08.bks.cpg/sg71_31_cif.got.tgz:61280.got - 2010.06.03 16:22:01.
