data_PCOD9517174
_publ_section_title
;
Structure prediction by ZEFSAII (Michael W. Deem and Ramdas Pophale) SiO2 
 PCOD9517174
Probable space group: F D D D
;
_chemical_formula_sum "Si O2"
_cell_formula_units_Z 52
_cell_length_a 21.000000
_cell_length_b 27.000000
_cell_length_c 18.000000
_cell_angle_alpha 90.000000
_cell_angle_beta 90.000000
_cell_angle_gamma 90.000000
_cell_volume 10206.000000
_symmetry_space_group_name_H-M "F D D D"
_symmetry_group_IT_number 70
_space_group.IT_coordinate_system_code '2'
_symmetry_cell_setting 'orthorhombic'
loop_
_space_group_symop_operation_xyz
x,y,z
1/4-x,1/4-y,z
x,1/4-y,1/4-z
1/4-x,y,1/4-z
-x,-y,-z
3/4+x,3/4+y,-z
-x,3/4+y,3/4+z
3/4+x,-y,3/4+z
x,1/2+y,1/2+z
1/4-x,3/4-y,1/2+z
x,3/4-y,3/4-z
1/4-x,1/2+y,3/4-z
-x,1/2-y,1/2-z
3/4+x,1/4+y,1/2-z
-x,1/4+y,1/4+z
3/4+x,1/2-y,1/4+z
1/2+x,y,1/2+z
3/4-x,1/4-y,1/2+z
1/2+x,1/4-y,3/4-z
3/4-x,y,3/4-z
1/2-x,-y,1/2-z
1/4+x,3/4+y,1/2-z
1/2-x,3/4+y,1/4+z
1/4+x,-y,1/4+z
1/2+x,1/2+y,z
3/4-x,3/4-y,z
1/2+x,3/4-y,1/4-z
3/4-x,1/2+y,1/4-z
1/2-x,1/2-y,-z
1/4+x,1/4+y,-z
1/2-x,1/4+y,3/4+z
1/4+x,1/2-y,3/4+z
loop_
_atom_site_type_symbol
_atom_site_label
_atom_site_fract_x
_atom_site_fract_y
_atom_site_fract_z
Si Si1 0.796982 0.672506 0.015480
Si Si2 0.234783 0.622468 0.378798
Si Si3 0.941484 0.023211 0.587936
Si Si4 0.889319 0.945419 0.101900
Si Si5 0.351970 0.125000 0.625000
Si Si6 0.189533 0.286186 0.580868
Si Si7 0.675121 0.027459 0.690560
O O1 0.852708 0.645851 0.059990
O O2 0.743560 0.696212 0.070404
O O3 0.766413 0.632628 0.958703
O O4 0.816575 0.719896 0.964522
O O5 0.172407 0.587672 0.381534
O O6 0.202274 0.674718 0.357868
O O7 0.284962 0.592766 0.329617
O O8 0.942193 0.080784 0.599242
O O9 0.933072 0.013962 0.500763
O O10 0.879679 0.000296 0.626183
O O11 0.004390 0.996339 0.617366
O O12 0.900409 0.945002 0.014352
O O13 0.125000 0.283903 0.625000
O O14 0.625000 0.032251 0.625000
#
# Coordination Sequence:
#
# PCOD9517174 Si02
#       7
#    32  32  32  32  16  32  32
#     4  10  22  36  56  90 119 156 201 246 297 362
#     4   9  19  36  62  84 117 151 199 241 296 362
#     4  10  22  40  62  86 122 156 198 253 304 358
#     4   9  18  39  58  88 117 158 192 240 303 359
#     4  12  22  38  58  86 124 154 194 252 300 354
#     4  10  21  42  64  88 114 156 208 251 301 369
#     4  10  21  38  56  84 125 159 198 244 294 367
#
# _framework density 5.0950420000000003
#
# number of rings (size 3 to 8) (size 9 to 14) (size 15 to 20)
#    0.000    2.154    1.538    0.923    2.154    1.846 
#    2.769    0.385    0.000    0.000    0.000    0.000 
#    0.000    0.000    0.000    0.000    0.000    0.000 
#
# Total GULP energy -289626.922666 kJ/mol
# GULP energy per Si atom -5569.748513 kJ/mol
# Density = 0.508345 g / cm^3
# Si number density = 5.095042 Si / 1000 Ang^3
#
#
#
# Elastic Constant Matrix: (Units=GPa)
#
#
# Indices 1 2 3 4 5 6 
#
# 1 94.0479 24.2711 28.8402 0.0000 0.0000 0.0000
# 2 24.2711 69.2714 -0.2633 0.0000 0.0000 0.0000
# 3 28.8402 -0.2633 29.5836 0.0000 0.0000 0.0000
# 4 0.0000 0.0000 0.0000 17.2913 0.0000 0.0000
# 5 0.0000 0.0000 0.0000 0.0000 12.4367 0.0000
# 6 0.0000 0.0000 0.0000 0.0000 0.0000 3.0985
#
#
#
# Elastic Compliance Matrix: (Units=1/GPa)
#
#
# Indices 1 2 3 4 5 6 
#
# 1 0.017468 -0.006185 -0.017084 0.000000 0.000000 0.000000
# 2 -0.006185 0.016627 0.006178 0.000000 0.000000 0.000000
# 3 -0.017084 0.006178 0.050512 0.000000 0.000000 0.000000
# 4 0.000000 0.000000 0.000000 0.057832 0.000000 0.000000
# 5 0.000000 0.000000 0.000000 0.000000 0.080407 0.000000
# 6 0.000000 0.000000 0.000000 0.000000 0.000000 0.322738
#
#
# Mechanical properties :
#
#
# Convention : Reuss Voigt Hill
#
# Bulk Modulus (GPa) = 19.83189 33.17767 26.50478
# Shear Modulus (GPa) = 8.38116 15.90229 12.14173
#
# Velocity S-wave (km/s) = 2.03011 2.79638 2.44347
# Velocity P-wave (km/s) = 3.90477 5.17118 4.58194
#
# Compressibility (1/GPa) = 0.05042383
#
# Stress axis : x y z
#
# Youngs Moduli (GPa) = 57.24717 60.14438 19.79711
#
# Poissons Ratio (x) = 0.37201 0.33822
# Poissons Ratio (y) = 0.35409 -0.12230
# Poissons Ratio (z) = 0.97802 -0.37157
#
# Static dielectric constant tensor:
#      x y z
#    x 1.756840 0.000000 0.000000 
#    y 0.000000 1.786810 0.000000 
#    z 0.000000 0.000000 1.697470 
# 
# From -- ./inp_files/36702.got.cif
#   From: 2010.05.17/outbox.ucp.g08.bks.cvg/sg70_19_cif.got.tgz:36702.got - 2010.06.11 16:26:41.
