data_PCOD9517464
_publ_section_title
;
Structure prediction by ZEFSAII (Michael W. Deem and Ramdas Pophale) SiO2 
 PCOD9517464
Probable space group: I M M M
;
_chemical_formula_sum "Si O2"
_cell_formula_units_Z 96
_cell_length_a 12.915964
_cell_length_b 19.980595
_cell_length_c 23.183790
_cell_angle_alpha 90.000000
_cell_angle_beta 90.000000
_cell_angle_gamma 90.000000
_cell_volume 5983.009288
_symmetry_space_group_name_H-M "I M M M"
_symmetry_group_IT_number 71
_symmetry_cell_setting 'orthorhombic'
loop_
_space_group_symop_operation_xyz
x,y,z
-x,-y,z
x,-y,-z
-x,y,-z
-x,-y,-z
x,y,-z
-x,y,z
x,-y,z
1/2+x,1/2+y,1/2+z
1/2-x,1/2-y,1/2+z
1/2+x,1/2-y,1/2-z
1/2-x,1/2+y,1/2-z
1/2-x,1/2-y,1/2-z
1/2+x,1/2+y,1/2-z
1/2-x,1/2+y,1/2+z
1/2+x,1/2-y,1/2+z
loop_
_atom_site_type_symbol
_atom_site_label
_atom_site_fract_x
_atom_site_fract_y
_atom_site_fract_z
Si Si1 0.685648 0.173053 0.684949
Si Si2 0.500000 0.081605 0.852178
Si Si3 0.880871 0.816954 0.764234
Si Si4 0.825359 0.421700 0.563467
Si Si5 0.615781 0.627516 0.391287
Si Si6 0.878968 0.720184 0.066239
Si Si7 0.500000 0.080459 0.719092
O O1 0.795292 0.163658 0.716900
O O2 0.638437 0.240418 0.714658
O O3 0.689229 0.187511 0.616551
O O4 0.603945 0.113425 0.693792
O O5 0.400159 0.106273 0.887329
O O6 0.500000 0.101500 0.786270
O O7 0.500000 0.000000 0.850813
O O8 0.868664 0.860217 0.822920
O O9 0.000000 0.823152 0.744822
O O10 0.842376 0.391745 0.500000
O O11 0.851250 0.500000 0.559482
O O12 0.707403 0.414932 0.582258
O O13 0.500000 0.601080 0.400642
O O14 0.622643 0.700304 0.421481
O O15 0.000000 0.699777 0.074491
O O16 0.849906 0.706770 0.000000
O O17 0.500000 0.000000 0.713817
#
# Coordination Sequence:
#
# PCOD9517464 Si02
#       7
#    16   8  16  16  16  16   8
#     4  10  17  30  49  72  96 121 160 193 237 288
#     4   9  19  32  43  57  82 123 161 184 220 268
#     4   9  17  30  50  71  94 121 156 205 238 274
#     4  10  19  30  43  59  85 122 162 196 223 264
#     4   9  17  29  44  65  87 114 151 191 236 274
#     4   9  16  28  47  67  91 120 149 186 230 283
#     4  11  20  31  49  73 101 124 152 197 244 292
#
# _framework density 16.045437
#
# number of rings (size 3 to 8) (size 9 to 14) (size 15 to 20)
#    0.000    2.500    1.667    2.750    0.000    2.333 
#    0.000    0.833    0.000    3.000    0.000    0.000 
#    0.000    0.000    0.000    1.500    0.000    0.000 
#
# Total GULP energy -267373.090281 kJ/mol
# GULP energy per Si atom -5570.272714 kJ/mol
# Density = 1.600892 g / cm^3
# Si number density = 16.045437 Si / 1000 Ang^3
#
#
#
# Elastic Constant Matrix: (Units=GPa)
#
#
# Indices 1 2 3 4 5 6 
#
# 1 66.7173 2.5780 42.0525 0.0000 0.0000 0.0000
# 2 2.5780 18.2461 10.2270 0.0000 0.0000 0.0000
# 3 42.0525 10.2270 108.1935 0.0000 0.0000 0.0000
# 4 0.0000 0.0000 0.0000 12.7981 0.0000 0.0000
# 5 0.0000 0.0000 0.0000 0.0000 19.8526 0.0000
# 6 0.0000 0.0000 0.0000 0.0000 0.0000 10.9614
#
#
#
# Elastic Compliance Matrix: (Units=1/GPa)
#
#
# Indices 1 2 3 4 5 6 
#
# 1 0.019897 0.001609 -0.007886 0.000000 0.000000 0.000000
# 2 0.001609 0.058002 -0.006108 0.000000 0.000000 0.000000
# 3 -0.007886 -0.006108 0.012885 0.000000 0.000000 0.000000
# 4 0.000000 0.000000 0.000000 0.078137 0.000000 0.000000
# 5 0.000000 0.000000 0.000000 0.000000 0.050371 0.000000
# 6 0.000000 0.000000 0.000000 0.000000 0.000000 0.091230
#
#
# Mechanical properties :
#
#
# Convention : Reuss Voigt Hill
#
# Bulk Modulus (GPa) = 15.14817 33.65243 24.40030
# Shear Modulus (GPa) = 13.99399 17.94237 15.96818
#
# Velocity S-wave (km/s) = 2.95642 3.34761 3.15808
# Velocity P-wave (km/s) = 4.59513 5.99673 5.34209
#
# Compressibility (1/GPa) = 0.06601457
#
# Stress axis : x y z
#
# Youngs Moduli (GPa) = 50.25946 17.24068 77.60979
#
# Poissons Ratio (x) = -0.02773 0.61199
# Poissons Ratio (y) = -0.08085 0.47403
# Poissons Ratio (z) = 0.39632 0.10530
#
# Static dielectric constant tensor:
#      x y z
#    x 1.541810 0.000000 0.000000 
#    y 0.000000 1.537900 0.000000 
#    z 0.000000 0.000000 1.564670 
# 
# From -- ./inp_files/52047.got.cif
#   From: 2010.05.17/outbox.cif.g08.bks.cpg/sg71_27_cif.got.tgz:52047.got - 2010.06.03 16:22:01.
