data_PCOD9517330
_publ_section_title
;
Structure prediction by ZEFSAII (Michael W. Deem and Ramdas Pophale) SiO2 
 PCOD9517330
Probable space group: I M M M
;
_chemical_formula_sum "Si O2"
_cell_formula_units_Z 100
_cell_length_a 34.023543
_cell_length_b 21.334104
_cell_length_c 7.426750
_cell_angle_alpha 90.000000
_cell_angle_beta 90.000000
_cell_angle_gamma 90.000000
_cell_volume 5390.794159
_symmetry_space_group_name_H-M "I M M M"
_symmetry_group_IT_number 71
_symmetry_cell_setting 'orthorhombic'
loop_
_space_group_symop_operation_xyz
x,y,z
-x,-y,z
x,-y,-z
-x,y,-z
-x,-y,-z
x,y,-z
-x,y,z
x,-y,z
1/2+x,1/2+y,1/2+z
1/2-x,1/2-y,1/2+z
1/2+x,1/2-y,1/2-z
1/2-x,1/2+y,1/2-z
1/2-x,1/2-y,1/2-z
1/2+x,1/2+y,1/2-z
1/2-x,1/2+y,1/2+z
1/2+x,1/2-y,1/2+z
loop_
_atom_site_type_symbol
_atom_site_label
_atom_site_fract_x
_atom_site_fract_y
_atom_site_fract_z
Si Si1 0.660075 0.112756 0.290616
Si Si2 0.086419 0.696937 0.282544
Si Si3 0.662969 0.000000 0.000000
Si Si4 0.364533 0.320461 0.289352
Si Si5 0.000000 0.713440 0.290669
Si Si6 0.000000 0.139345 0.782123
Si Si7 0.580501 0.571893 0.279496
Si Si8 0.295303 0.763118 0.285145
O O1 0.668678 0.097355 0.500000
O O2 0.616801 0.144556 0.282396
O O3 0.662488 0.054869 0.157737
O O4 0.689198 0.168857 0.226408
O O5 0.086461 0.696112 0.500000
O O6 0.103712 0.764339 0.225017
O O7 0.041729 0.690553 0.215847
O O8 0.357339 0.333105 0.500000
O O9 0.384337 0.383124 0.215418
O O10 0.324545 0.290778 0.212398
O O11 0.000000 0.789001 0.280678
O O12 0.000000 0.694925 0.500000
O O13 0.039184 0.102915 0.724601
O O14 0.000000 0.141123 0.000000
O O15 0.580632 0.572463 0.500000
O O16 0.583673 0.500000 0.222805
O O17 0.301194 0.763797 0.500000
O O18 0.250000 0.750000 0.250000
#
# Coordination Sequence:
#
# PCOD9517330 Si02
#       8
#    16  16   4  16   8   8  16  16
#     4  10  22  39  61  93 121 152 195 240 280 345
#     4  10  18  32  51  78 109 144 188 236 295 338
#     4  12  22  40  68  91 126 160 190 222 300 345
#     4   9  17  30  48  73 101 136 184 242 285 342
#     4  10  20  29  47  75 111 141 180 242 289 338
#     4  10  17  26  44  70  94 137 187 227 280 330
#     4   9  16  26  43  67 101 138 183 231 280 335
#     4   9  19  33  56  84 116 143 186 240 289 335
#
# _framework density 18.550144
#
# number of rings (size 3 to 8) (size 9 to 14) (size 15 to 20)
#    0.000    2.400    2.400    1.920    1.120    2.240 
#    0.000    0.000    1.760    3.360    0.000    1.120 
#    0.000    0.000    0.000    0.000    0.000    0.000 
#
# Total GULP energy -278370.871423 kJ/mol
# GULP energy per Si atom -5567.417428 kJ/mol
# Density = 1.850792 g / cm^3
# Si number density = 18.550144 Si / 1000 Ang^3
#
#
#
# Elastic Constant Matrix: (Units=GPa)
#
#
# Indices 1 2 3 4 5 6 
#
# 1 150.9479 71.3537 9.9063 0.0000 0.0000 0.0000
# 2 71.3537 140.9029 28.4835 0.0000 0.0000 0.0000
# 3 9.9063 28.4835 74.3450 0.0000 0.0000 0.0000
# 4 0.0000 0.0000 0.0000 -6.6344 0.0000 0.0000
# 5 0.0000 0.0000 0.0000 0.0000 13.3277 0.0000
# 6 0.0000 0.0000 0.0000 0.0000 0.0000 4.9672
#
#
#
# Elastic Compliance Matrix: (Units=1/GPa)
#
#
# Indices 1 2 3 4 5 6 
#
# 1 0.008732 -0.004538 0.000575 0.000000 0.000000 0.000000
# 2 -0.004538 0.010052 -0.003246 0.000000 0.000000 0.000000
# 3 0.000575 -0.003246 0.014618 0.000000 0.000000 0.000000
# 4 0.000000 0.000000 0.000000 -0.150729 0.000000 0.000000
# 5 0.000000 0.000000 0.000000 0.000000 0.075032 0.000000
# 6 0.000000 0.000000 0.000000 0.000000 0.000000 0.201320
#
#
# Mechanical properties :
#
#
# Convention : Reuss Voigt Hill
#
# Bulk Modulus (GPa) = 52.67900 65.07588 58.87744
# Shear Modulus (GPa) = 27.81327 19.42893 23.62110
#
# Velocity S-wave (km/s) = 3.87635 3.23983 3.57230
# Velocity P-wave (km/s) = 6.96381 7.01089 6.98739
#
# Compressibility (1/GPa) = 0.01898290
#
# Stress axis : x y z
#
# Youngs Moduli (GPa) = 114.51663 99.48696 68.40929
#
# Poissons Ratio (x) = 0.45151 -0.03935
# Poissons Ratio (y) = 0.51972 0.22208
# Poissons Ratio (z) = -0.06587 0.32296
#
# Static dielectric constant tensor:
#      x y z
#    x 1.666570 0.000000 0.000000 
#    y 0.000000 1.603600 0.000000 
#    z 0.000000 0.000000 1.683580 
# 
# From -- ./inp_files/17064.got.cif
#   From: 2010.05.17/outbox.cif.g08.bks.cpg/sg71_9_cif.got.tgz:17064.got - 2010.06.03 16:22:01.
