data_PCOD9517940
_publ_section_title
;
Structure prediction by ZEFSAII (Michael W. Deem and Ramdas Pophale) SiO2 
 PCOD9517940
Probable space group: I M M M
;
_chemical_formula_sum "Si O2"
_cell_formula_units_Z 96
_cell_length_a 25.533262
_cell_length_b 33.224037
_cell_length_c 7.941604
_cell_angle_alpha 90.000000
_cell_angle_beta 90.000000
_cell_angle_gamma 90.000000
_cell_volume 6737.005951
_symmetry_space_group_name_H-M "I M M M"
_symmetry_group_IT_number 71
_symmetry_cell_setting 'orthorhombic'
loop_
_space_group_symop_operation_xyz
x,y,z
-x,-y,z
x,-y,-z
-x,y,-z
-x,-y,-z
x,y,-z
-x,y,z
x,-y,z
1/2+x,1/2+y,1/2+z
1/2-x,1/2-y,1/2+z
1/2+x,1/2-y,1/2-z
1/2-x,1/2+y,1/2-z
1/2-x,1/2-y,1/2-z
1/2+x,1/2+y,1/2-z
1/2-x,1/2+y,1/2+z
1/2+x,1/2-y,1/2+z
loop_
_atom_site_type_symbol
_atom_site_label
_atom_site_fract_x
_atom_site_fract_y
_atom_site_fract_z
Si Si1 0.750832 0.313818 0.202730
Si Si2 0.057743 0.720002 0.698307
Si Si3 0.674639 0.046776 0.000000
Si Si4 0.556483 0.924091 0.000000
Si Si5 0.665700 0.252337 0.299756
Si Si6 0.299180 0.895418 0.304246
Si Si7 0.581045 0.868878 0.314439
O O1 0.697045 0.292754 0.255669
O O2 0.797659 0.284485 0.266547
O O3 0.759983 0.359912 0.252416
O O4 0.753652 0.313357 0.000000
O O5 0.057773 0.710886 0.500000
O O6 0.107052 0.748325 0.733557
O O7 0.066842 0.677619 0.790768
O O8 0.000000 0.735927 0.743957
O O9 0.610952 0.051483 0.000000
O O10 0.696062 0.069418 0.833070
O O11 0.688126 0.000000 0.000000
O O12 0.558846 0.895535 0.163954
O O13 0.500000 0.945620 0.000000
O O14 0.663342 0.248365 0.500000
O O15 0.288647 0.907597 0.500000
O O16 0.356253 0.874106 0.306060
O O17 0.564139 0.882577 0.500000
#
# Coordination Sequence:
#
# PCOD9517940 Si02
#       7
#    16  16   8   8  16  16  16
#     4   9  17  30  44  64  88 114 145 181 230 269
#     4  11  21  30  40  57  86 122 157 193 230 265
#     4  10  22  35  50  70  86 112 145 188 238 285
#     4  10  20  33  46  64  84 110 146 187 235 286
#     4  10  19  28  42  64  88 115 148 188 225 266
#     4   9  18  32  51  68  88 114 143 182 227 283
#     4  10  18  30  45  63  85 110 147 188 228 274
#
# _framework density 14.249653
#
# number of rings (size 3 to 8) (size 9 to 14) (size 15 to 20)
#    0.000    2.167    2.500    1.500    1.167    3.500 
#    0.000    0.000    0.000    0.000    0.000    4.667 
#    0.000    0.000    0.000    0.000    0.000    1.667 
#
# Total GULP energy -267580.617138 kJ/mol
# GULP energy per Si atom -5574.596190 kJ/mol
# Density = 1.421722 g / cm^3
# Si number density = 14.249653 Si / 1000 Ang^3
#
#
#
# Elastic Constant Matrix: (Units=GPa)
#
#
# Indices 1 2 3 4 5 6 
#
# 1 74.0243 43.5853 23.6509 0.0000 0.0000 0.0000
# 2 43.5853 75.8502 40.6366 0.0000 0.0000 0.0000
# 3 23.6509 40.6366 74.3344 0.0000 0.0000 0.0000
# 4 0.0000 0.0000 0.0000 13.5096 0.0000 0.0000
# 5 0.0000 0.0000 0.0000 0.0000 -29.4088 0.0000
# 6 0.0000 0.0000 0.0000 0.0000 0.0000 0.0255
#
#
#
# Elastic Compliance Matrix: (Units=1/GPa)
#
#
# Indices 1 2 3 4 5 6 
#
# 1 0.020418 -0.011670 -0.000117 0.000000 0.000000 0.000000
# 2 -0.011670 0.025315 -0.010126 0.000000 0.000000 0.000000
# 3 -0.000117 -0.010126 0.019025 0.000000 0.000000 0.000000
# 4 0.000000 0.000000 0.000000 0.074021 0.000000 0.000000
# 5 0.000000 0.000000 0.000000 0.000000 -0.034003 0.000000
# 6 0.000000 0.000000 0.000000 0.000000 0.000000 39.170611
#
#
# Mechanical properties :
#
#
# Convention : Reuss Voigt Hill
#
# Bulk Modulus (GPa) = 47.77188 48.88382 48.32785
# Shear Modulus (GPa) = 0.12714 4.58100 2.35407
#
# Velocity S-wave (km/s) = 0.29903 1.79494 1.28670
# Velocity P-wave (km/s) = 5.80663 6.21896 6.01633
#
# Compressibility (1/GPa) = 0.02093282
#
# Stress axis : x y z
#
# Youngs Moduli (GPa) = 48.97746 39.50296 52.56161
#
# Poissons Ratio (x) = 0.46100 0.00613
# Poissons Ratio (y) = 0.57156 0.53223
# Poissons Ratio (z) = 0.00571 0.40000
#
# Static dielectric constant tensor:
#      x y z
#    x 1.490200 0.000000 0.000000 
#    y 0.000000 1.444270 0.000000 
#    z 0.000000 0.000000 1.503560 
# 
# From -- ./inp_files/13174.got.cif
#   From: 2010.05.17/outbox.cif.g08.bks.cpg/sg71_7_cif.got.tgz:13174.got - 2010.06.03 16:22:01.
