data_PCOD9517310
_publ_section_title
;
Structure prediction by ZEFSAII (Michael W. Deem and Ramdas Pophale) SiO2 
 PCOD9517310
Probable space group: I M M M
;
_chemical_formula_sum "Si O2"
_cell_formula_units_Z 104
_cell_length_a 23.979171
_cell_length_b 17.188381
_cell_length_c 20.955752
_cell_angle_alpha 90.000000
_cell_angle_beta 90.000000
_cell_angle_gamma 90.000000
_cell_volume 8637.188277
_symmetry_space_group_name_H-M "I M M M"
_symmetry_group_IT_number 71
_symmetry_cell_setting 'orthorhombic'
loop_
_space_group_symop_operation_xyz
x,y,z
-x,-y,z
x,-y,-z
-x,y,-z
-x,-y,-z
x,y,-z
-x,y,z
x,-y,z
1/2+x,1/2+y,1/2+z
1/2-x,1/2-y,1/2+z
1/2+x,1/2-y,1/2-z
1/2-x,1/2+y,1/2-z
1/2-x,1/2-y,1/2-z
1/2+x,1/2+y,1/2-z
1/2-x,1/2+y,1/2+z
1/2+x,1/2-y,1/2+z
loop_
_atom_site_type_symbol
_atom_site_label
_atom_site_fract_x
_atom_site_fract_y
_atom_site_fract_z
Si Si1 0.748424 0.907908 0.075823
Si Si2 0.935609 0.094880 0.000000
Si Si3 0.372305 0.842658 0.076938
Si Si4 0.567498 0.411991 0.000000
Si Si5 0.066701 0.191115 0.621968
Si Si6 0.132691 0.905601 0.124629
Si Si7 0.936343 0.500000 0.577388
Si Si8 0.934303 0.091994 0.749430
O O1 0.692947 0.858815 0.088583
O O2 0.803073 0.882764 0.114511
O O3 0.737116 0.000000 0.087825
O O4 0.761307 0.902373 0.000000
O O5 0.903526 0.120485 0.936272
O O6 0.000000 0.119044 0.000000
O O7 0.934964 0.000000 0.000000
O O8 0.398623 0.769793 0.113163
O O9 0.404580 0.921523 0.095742
O O10 0.379784 0.831517 0.000000
O O11 0.582834 0.365044 0.936719
O O12 0.588922 0.500000 0.000000
O O13 0.500000 0.416049 0.000000
O O14 0.075769 0.144811 0.687612
O O15 0.000000 0.207620 0.616627
O O16 0.103645 0.883808 0.190838
O O17 0.132316 0.000000 0.122811
O O18 0.936741 0.500000 0.500000
O O19 0.000000 0.500000 0.599705
O O20 0.000000 0.098463 0.766672
O O21 0.924496 0.000000 0.735262
#
# Coordination Sequence:
#
# PCOD9517310 Si02
#       8
#    16   8  16   8  16  16   8  16
#     4   9  15  25  39  55  77 101 129 152 185 225
#     4   9  14  20  33  56  78  94 119 157 189 219
#     4  10  17  26  38  56  76 100 127 161 195 231
#     4   9  16  26  39  53  69  93 128 166 197 221
#     4  10  18  27  39  55  75  99 130 164 198 230
#     4   9  15  24  38  56  75 101 128 156 184 225
#     4   9  16  24  36  54  76  98 120 155 199 239
#     4   9  17  28  40  55  77 104 130 157 194 232
#
# _framework density 12.040955
#
# number of rings (size 3 to 8) (size 9 to 14) (size 15 to 20)
#    0.000    2.692    2.308    1.385    0.000    4.308 
#    0.000    0.769    0.000    0.000    0.000    0.000 
#    0.000    0.000    0.000    0.000    0.000    0.385 
#
# Total GULP energy -289475.694149 kJ/mol
# GULP energy per Si atom -5566.840272 kJ/mol
# Density = 1.201355 g / cm^3
# Si number density = 12.040955 Si / 1000 Ang^3
#
#
#
# Elastic Constant Matrix: (Units=GPa)
#
#
# Indices 1 2 3 4 5 6 
#
# 1 90.0485 44.9860 54.9065 0.0000 0.0000 0.0000
# 2 44.9860 68.6792 39.6306 0.0000 0.0000 0.0000
# 3 54.9065 39.6306 77.2940 0.0000 0.0000 0.0000
# 4 0.0000 0.0000 0.0000 6.8475 0.0000 0.0000
# 5 0.0000 0.0000 0.0000 0.0000 15.6394 0.0000
# 6 0.0000 0.0000 0.0000 0.0000 0.0000 11.4823
#
#
#
# Elastic Compliance Matrix: (Units=1/GPa)
#
#
# Indices 1 2 3 4 5 6 
#
# 1 0.022131 -0.007704 -0.011771 0.000000 0.000000 0.000000
# 2 -0.007704 0.023360 -0.006505 0.000000 0.000000 0.000000
# 3 -0.011771 -0.006505 0.024634 0.000000 0.000000 0.000000
# 4 0.000000 0.000000 0.000000 0.146039 0.000000 0.000000
# 5 0.000000 0.000000 0.000000 0.000000 0.063941 0.000000
# 6 0.000000 0.000000 0.000000 0.000000 0.000000 0.087090
#
#
# Mechanical properties :
#
#
# Convention : Reuss Voigt Hill
#
# Bulk Modulus (GPa) = 55.04721 57.22975 56.13848
# Shear Modulus (GPa) = 11.75887 13.22709 12.49298
#
# Velocity S-wave (km/s) = 3.12841 3.31797 3.22458
# Velocity P-wave (km/s) = 7.67236 7.89373 7.78383
#
# Compressibility (1/GPa) = 0.01816622
#
# Stress axis : x y z
#
# Youngs Moduli (GPa) = 45.18524 42.80795 40.59355
#
# Poissons Ratio (x) = 0.32979 0.47783
# Poissons Ratio (y) = 0.34810 0.26405
# Poissons Ratio (z) = 0.53188 0.27846
#
# Static dielectric constant tensor:
#      x y z
#    x 1.394770 0.000000 0.000000 
#    y 0.000000 1.373490 0.000000 
#    z 0.000000 0.000000 1.381360 
# 
# From -- ./inp_files/48271.got.cif
#   From: 2010.05.17/outbox.cif.g08.bks.cpg/sg71_25_cif.got.tgz:48271.got - 2010.06.03 16:22:01.
