data_PCOD9517975
_publ_section_title
;
Structure prediction by ZEFSAII (Michael W. Deem and Ramdas Pophale) SiO2 
 PCOD9517975
Probable space group: I M M M
;
_chemical_formula_sum "Si O2"
_cell_formula_units_Z 96
_cell_length_a 29.376006
_cell_length_b 7.879577
_cell_length_c 25.700736
_cell_angle_alpha 90.000000
_cell_angle_beta 90.000000
_cell_angle_gamma 90.000000
_cell_volume 5948.962244
_symmetry_space_group_name_H-M "I M M M"
_symmetry_group_IT_number 71
_symmetry_cell_setting 'orthorhombic'
loop_
_space_group_symop_operation_xyz
x,y,z
-x,-y,z
x,-y,-z
-x,y,-z
-x,-y,-z
x,y,-z
-x,y,z
x,-y,z
1/2+x,1/2+y,1/2+z
1/2-x,1/2-y,1/2+z
1/2+x,1/2-y,1/2-z
1/2-x,1/2+y,1/2-z
1/2-x,1/2-y,1/2-z
1/2+x,1/2+y,1/2-z
1/2-x,1/2+y,1/2+z
1/2+x,1/2-y,1/2+z
loop_
_atom_site_type_symbol
_atom_site_label
_atom_site_fract_x
_atom_site_fract_y
_atom_site_fract_z
Si Si1 0.948099 0.500000 0.313877
Si Si2 0.616687 0.308739 0.188090
Si Si3 0.051838 0.500000 0.812405
Si Si4 0.303525 0.703676 0.000000
Si Si5 0.801202 0.297994 0.000000
Si Si6 0.880149 0.799066 0.188197
Si Si7 0.700014 0.298016 0.387204
Si Si8 0.304210 0.798330 0.113802
O O1 0.919533 0.666685 0.328783
O O2 0.949902 0.500000 0.250746
O O3 0.000000 0.500000 0.332936
O O4 0.599059 0.500000 0.181321
O O5 0.626333 0.284365 0.249595
O O6 0.662578 0.285429 0.155307
O O7 0.079588 0.669953 0.827016
O O8 0.000000 0.500000 0.831627
O O9 0.322159 0.765873 0.055139
O O10 0.303990 0.500000 0.000000
O O11 0.251028 0.767052 0.000000
O O12 0.820011 0.240962 0.944455
O O13 0.800408 0.500000 0.000000
O O14 0.834813 0.743944 0.157382
O O15 0.889180 0.000000 0.177183
O O16 0.704094 0.500000 0.383035
O O17 0.751941 0.230851 0.383351
O O18 0.303826 0.000000 0.123169
#
# Coordination Sequence:
#
# PCOD9517975 Si02
#       8
#     8  16   8   8   8  16  16  16
#     4   9  18  34  52  71  97 127 163 208 250 288
#     4  10  19  32  49  72 101 129 162 200 241 294
#     4   9  18  32  52  73  95 127 163 206 252 290
#     4   9  17  29  43  65  93 124 169 209 237 278
#     4   9  17  27  43  67  91 122 167 208 239 278
#     4   9  19  33  48  71 101 129 162 200 241 295
#     4   9  18  31  46  66  97 134 166 199 239 285
#     4  10  18  30  47  68  98 134 167 200 239 284
#
# _framework density 16.137267999999999
#
# number of rings (size 3 to 8) (size 9 to 14) (size 15 to 20)
#    0.000    2.667    0.833    1.000    1.167    4.000 
#    0.000    3.333    0.000    0.000    0.000    2.333 
#    0.000    4.667    0.000    0.000    0.000    0.000 
#
# Total GULP energy -267265.014480 kJ/mol
# GULP energy per Si atom -5568.021135 kJ/mol
# Density = 1.610054 g / cm^3
# Si number density = 16.137268 Si / 1000 Ang^3
#
#
#
# Elastic Constant Matrix: (Units=GPa)
#
#
# Indices 1 2 3 4 5 6 
#
# 1 100.2597 46.2513 45.9314 0.0000 0.0000 0.0000
# 2 46.2513 75.4876 32.8733 0.0000 0.0000 0.0000
# 3 45.9314 32.8733 57.4983 0.0000 0.0000 0.0000
# 4 0.0000 0.0000 0.0000 17.4489 0.0000 0.0000
# 5 0.0000 0.0000 0.0000 0.0000 -1.5293 0.0000
# 6 0.0000 0.0000 0.0000 0.0000 0.0000 18.0666
#
#
#
# Elastic Compliance Matrix: (Units=1/GPa)
#
#
# Indices 1 2 3 4 5 6 
#
# 1 0.017693 -0.006239 -0.010567 0.000000 0.000000 0.000000
# 2 -0.006239 0.019839 -0.006359 0.000000 0.000000 0.000000
# 3 -0.010567 -0.006359 0.029468 0.000000 0.000000 0.000000
# 4 0.000000 0.000000 0.000000 0.057310 0.000000 0.000000
# 5 0.000000 0.000000 0.000000 0.000000 -0.653884 0.000000
# 6 0.000000 0.000000 0.000000 0.000000 0.000000 0.055351
#
#
# Mechanical properties :
#
#
# Convention : Reuss Voigt Hill
#
# Bulk Modulus (GPa) = 48.37554 53.70639 51.04097
# Shear Modulus (GPa) = -11.87637 14.00987 1.06675
#
# Velocity S-wave (km/s) = -2.71580 2.94967 0.81393
# Velocity P-wave (km/s) = 4.49539 6.70477 5.70800
#
# Compressibility (1/GPa) = 0.02067160
#
# Stress axis : x y z
#
# Youngs Moduli (GPa) = 56.51906 50.40624 33.93483
#
# Poissons Ratio (x) = 0.31448 0.35858
# Poissons Ratio (y) = 0.35262 0.21578
# Poissons Ratio (z) = 0.59723 0.32051
#
# Static dielectric constant tensor:
#      x y z
#    x 1.533150 0.000000 0.000000 
#    y 0.000000 1.564740 0.000000 
#    z 0.000000 0.000000 1.545150 
# 
# From -- ./inp_files/12970.got.cif
#   From: 2010.05.17/outbox.cif.g08.bks.cpg/sg71_7_cif.got.tgz:12970.got - 2010.06.03 16:22:01.
