data_PCOD9517191
_publ_section_title
;
Structure prediction by ZEFSAII (Michael W. Deem and Ramdas Pophale) SiO2 
 PCOD9517191
Probable space group: F D D D
;
_chemical_formula_sum "Si O2"
_cell_formula_units_Z 60
_cell_length_a 21.000000
_cell_length_b 21.000000
_cell_length_c 27.000000
_cell_angle_alpha 90.000000
_cell_angle_beta 90.000000
_cell_angle_gamma 90.000000
_cell_volume 11907.000000
_symmetry_space_group_name_H-M "F D D D"
_symmetry_group_IT_number 70
_space_group.IT_coordinate_system_code '2'
_symmetry_cell_setting 'orthorhombic'
loop_
_space_group_symop_operation_xyz
x,y,z
1/4-x,1/4-y,z
x,1/4-y,1/4-z
1/4-x,y,1/4-z
-x,-y,-z
3/4+x,3/4+y,-z
-x,3/4+y,3/4+z
3/4+x,-y,3/4+z
x,1/2+y,1/2+z
1/4-x,3/4-y,1/2+z
x,3/4-y,3/4-z
1/4-x,1/2+y,3/4-z
-x,1/2-y,1/2-z
3/4+x,1/4+y,1/2-z
-x,1/4+y,1/4+z
3/4+x,1/2-y,1/4+z
1/2+x,y,1/2+z
3/4-x,1/4-y,1/2+z
1/2+x,1/4-y,3/4-z
3/4-x,y,3/4-z
1/2-x,-y,1/2-z
1/4+x,3/4+y,1/2-z
1/2-x,3/4+y,1/4+z
1/4+x,-y,1/4+z
1/2+x,1/2+y,z
3/4-x,3/4-y,z
1/2+x,3/4-y,1/4-z
3/4-x,1/2+y,1/4-z
1/2-x,1/2-y,-z
1/4+x,1/4+y,-z
1/2-x,1/4+y,3/4+z
1/4+x,1/2-y,3/4+z
loop_
_atom_site_type_symbol
_atom_site_label
_atom_site_fract_x
_atom_site_fract_y
_atom_site_fract_z
Si Si1 0.432821 0.242491 0.666118
Si Si2 0.974351 0.612773 0.433514
Si Si3 0.808114 0.229904 0.889369
Si Si4 0.858373 0.556346 0.488509
Si Si5 0.426627 0.551453 0.606884
Si Si6 0.812338 0.913305 0.980467
Si Si7 0.011572 0.125000 0.125000
Si Si8 0.304371 0.192451 0.498916
O O1 0.476095 0.305533 0.669822
O O2 0.409003 0.212043 0.717904
O O3 0.365934 0.248061 0.637471
O O4 0.470214 0.187564 0.636657
O O5 0.004783 0.645508 0.482612
O O6 0.963413 0.668772 0.393405
O O7 0.906164 0.580716 0.445795
O O8 0.875000 0.261050 0.875000
O O9 0.749959 0.279619 0.889213
O O10 0.825853 0.204148 0.943625
O O11 0.824343 0.489030 0.478576
O O12 0.807433 0.613309 0.500794
O O13 0.419129 0.625000 0.625000
O O14 0.407439 0.545063 0.549300
O O15 0.875000 0.875000 0.999056
O O16 0.799598 0.888487 0.925170
O O17 0.250000 0.250000 0.500000
#
# Coordination Sequence:
#
# PCOD9517191 Si02
#       8
#    32  32  32  32  32  32  16  32
#     4  12  23  43  69 102 135 182 234 282 341 423
#     4  12  26  43  69 103 140 183 233 286 346 425
#     4  11  25  44  68  97 134 176 225 287 355 409
#     4  12  22  44  72  96 141 185 226 297 350 413
#     4  11  23  43  72  97 130 178 227 284 345 415
#     4  12  26  43  66 103 145 185 235 284 350 428
#     4  12  25  40  66 104 139 188 232 284 352 420
#     4  10  23  45  68  99 136 175 230 292 353 415
#
# _framework density 5.039053
#
# number of rings (size 3 to 8) (size 9 to 14) (size 15 to 20)
#    0.000    0.533    6.000    2.200    1.867    0.267 
#    0.000    1.333    0.000    5.600    0.000    0.000 
#    0.000    0.000    0.000    0.000    0.000    0.000 
#
# Total GULP energy -334285.339597 kJ/mol
# GULP energy per Si atom -5571.422327 kJ/mol
# Density = 0.502758 g / cm^3
# Si number density = 5.039053 Si / 1000 Ang^3
#
#
#
# Elastic Constant Matrix: (Units=GPa)
#
#
# Indices 1 2 3 4 5 6 
#
# 1 81.3850 33.4822 10.0910 0.0000 0.0000 0.0000
# 2 33.4822 98.5825 -3.1932 0.0000 0.0000 0.0000
# 3 10.0910 -3.1932 93.7304 0.0000 0.0000 0.0000
# 4 0.0000 0.0000 0.0000 24.4977 0.0000 0.0000
# 5 0.0000 0.0000 0.0000 0.0000 15.0639 0.0000
# 6 0.0000 0.0000 0.0000 0.0000 0.0000 45.3516
#
#
#
# Elastic Compliance Matrix: (Units=1/GPa)
#
#
# Indices 1 2 3 4 5 6 
#
# 1 0.014560 -0.005002 -0.001738 0.000000 0.000000 0.000000
# 2 -0.005002 0.011873 0.000943 0.000000 0.000000 0.000000
# 3 -0.001738 0.000943 0.010888 0.000000 0.000000 0.000000
# 4 0.000000 0.000000 0.000000 0.040820 0.000000 0.000000
# 5 0.000000 0.000000 0.000000 0.000000 0.066384 0.000000
# 6 0.000000 0.000000 0.000000 0.000000 0.000000 0.022050
#
#
# Mechanical properties :
#
#
# Convention : Reuss Voigt Hill
#
# Bulk Modulus (GPa) = 38.86744 39.38422 39.12583
# Shear Modulus (GPa) = 26.77453 32.53717 29.65585
#
# Velocity S-wave (km/s) = 3.64861 4.02213 3.83992
# Velocity P-wave (km/s) = 6.08891 6.41498 6.25407
#
# Compressibility (1/GPa) = 0.02572848
#
# Stress axis : x y z
#
# Youngs Moduli (GPa) = 68.67927 84.22445 91.84318
#
# Poissons Ratio (x) = 0.42125 0.15962
# Poissons Ratio (y) = 0.34350 -0.08660
# Poissons Ratio (z) = 0.11936 -0.07942
#
# Static dielectric constant tensor:
#      x y z
#    x 1.762420 0.000000 0.000000 
#    y 0.000000 1.696870 0.000000 
#    z 0.000000 0.000000 1.777380 
# 
# From -- ./inp_files/60567.got.cif
#   From: 2010.05.17/outbox.ucp.g08.bks.cvg/sg70_31_cif.got.tgz:60567.got - 2010.06.11 16:26:41.
