data_PCOD9517879
_publ_section_title
;
Structure prediction by ZEFSAII (Michael W. Deem and Ramdas Pophale) SiO2 
 PCOD9517879
Probable space group: I M M M
;
_chemical_formula_sum "Si O2"
_cell_formula_units_Z 120
_cell_length_a 24.535898
_cell_length_b 22.497731
_cell_length_c 14.095804
_cell_angle_alpha 90.000000
_cell_angle_beta 90.000000
_cell_angle_gamma 90.000000
_cell_volume 7780.912465
_symmetry_space_group_name_H-M "I M M M"
_symmetry_group_IT_number 71
_symmetry_cell_setting 'orthorhombic'
loop_
_space_group_symop_operation_xyz
x,y,z
-x,-y,z
x,-y,-z
-x,y,-z
-x,-y,-z
x,y,-z
-x,y,z
x,-y,z
1/2+x,1/2+y,1/2+z
1/2-x,1/2-y,1/2+z
1/2+x,1/2-y,1/2-z
1/2-x,1/2+y,1/2-z
1/2-x,1/2-y,1/2-z
1/2+x,1/2+y,1/2-z
1/2-x,1/2+y,1/2+z
1/2+x,1/2-y,1/2+z
loop_
_atom_site_type_symbol
_atom_site_label
_atom_site_fract_x
_atom_site_fract_y
_atom_site_fract_z
Si Si1 0.500000 0.428657 0.113078
Si Si2 0.746746 0.930693 0.798846
Si Si3 0.245436 0.247888 0.862831
Si Si4 0.437206 0.772203 0.886865
Si Si5 0.158968 0.851089 0.891557
Si Si6 0.597906 0.352762 0.802651
Si Si7 0.784636 0.878171 0.605681
Si Si8 0.662797 0.849158 0.892682
O O1 0.500000 0.500000 0.121196
O O2 0.447180 0.399876 0.163237
O O3 0.500000 0.413401 0.000000
O O4 0.794145 0.897946 0.859773
O O5 0.759732 0.918187 0.688737
O O6 0.691243 0.897670 0.827345
O O7 0.745637 0.000000 0.819097
O O8 0.250000 0.250000 0.750000
O O9 0.190392 0.212565 0.887706
O O10 0.252936 0.315100 0.895754
O O11 0.295807 0.207056 0.895542
O O12 0.500000 0.788457 0.872406
O O13 0.423496 0.712180 0.831197
O O14 0.394800 0.823455 0.859821
O O15 0.429169 0.760820 0.000000
O O16 0.113873 0.854611 0.808755
O O17 0.141334 0.861737 0.000000
O O18 0.653844 0.363968 0.860322
O O19 0.784452 0.903726 0.500000
O O20 0.657934 0.872256 0.000000
#
# Coordination Sequence:
#
# PCOD9517879 Si02
#       8
#     8  16  16  16  16  16  16  16
#     4  11  24  40  55  73  99 133 173 213 255 300
#     4  10  21  34  48  69  99 135 172 200 233 292
#     4  11  15  29  48  76 105 131 159 197 248 301
#     4  10  18  29  50  77 103 125 156 201 253 303
#     4  10  21  34  51  74 103 134 168 206 249 296
#     4  11  20  33  52  74 100 131 167 206 252 295
#     4  11  20  30  50  75 105 134 159 200 251 299
#     4  10  18  29  48  72  98 127 161 199 242 292
#
# _framework density 15.422356000000001
#
# number of rings (size 3 to 8) (size 9 to 14) (size 15 to 20)
#    0.000    1.533    6.000    3.600    0.000    3.467 
#    0.000    0.333    0.000    0.800    0.000    1.867 
#    0.000    0.000    0.000    1.200    0.000    0.000 
#
# Total GULP energy -334633.135768 kJ/mol
# GULP energy per Si atom -5577.218929 kJ/mol
# Density = 1.538725 g / cm^3
# Si number density = 15.422356 Si / 1000 Ang^3
#
#
#
# Elastic Constant Matrix: (Units=GPa)
#
#
# Indices 1 2 3 4 5 6 
#
# 1 89.7400 38.0330 41.9844 0.0000 0.0000 0.0000
# 2 38.0330 64.1142 19.0325 0.0000 0.0000 0.0000
# 3 41.9844 19.0325 115.3561 0.0000 0.0000 0.0000
# 4 0.0000 0.0000 0.0000 6.4681 0.0000 0.0000
# 5 0.0000 0.0000 0.0000 0.0000 15.1077 0.0000
# 6 0.0000 0.0000 0.0000 0.0000 0.0000 11.0601
#
#
#
# Elastic Compliance Matrix: (Units=1/GPa)
#
#
# Indices 1 2 3 4 5 6 
#
# 1 0.017068 -0.008707 -0.004775 0.000000 0.000000 0.000000
# 2 -0.008707 0.020842 -0.000270 0.000000 0.000000 0.000000
# 3 -0.004775 -0.000270 0.010451 0.000000 0.000000 0.000000
# 4 0.000000 0.000000 0.000000 0.154605 0.000000 0.000000
# 5 0.000000 0.000000 0.000000 0.000000 0.066191 0.000000
# 6 0.000000 0.000000 0.000000 0.000000 0.000000 0.090415
#
#
# Mechanical properties :
#
#
# Convention : Reuss Voigt Hill
#
# Bulk Modulus (GPa) = 47.94546 51.92332 49.93439
# Shear Modulus (GPa) = 12.68942 17.87121 15.28032
#
# Velocity S-wave (km/s) = 2.87155 3.40779 3.15110
# Velocity P-wave (km/s) = 6.49232 7.01603 6.75925
#
# Compressibility (1/GPa) = 0.02085703
#
# Stress axis : x y z
#
# Youngs Moduli (GPa) = 58.59080 47.97926 95.68201
#
# Poissons Ratio (x) = 0.41776 0.45690
# Poissons Ratio (y) = 0.51015 0.02581
# Poissons Ratio (z) = 0.27978 0.01294
#
# Static dielectric constant tensor:
#      x y z
#    x 1.508490 0.000000 0.000000 
#    y 0.000000 1.502890 0.000000 
#    z 0.000000 0.000000 1.548460 
# 
# From -- ./inp_files/38531.got.cif
#   From: 2010.05.17/outbox.cif.g08.bks.cpg/sg71_20_cif.got.tgz:38531.got - 2010.06.03 16:22:01.
