data_PCOD9517588
_publ_section_title
;
Structure prediction by ZEFSAII (Michael W. Deem and Ramdas Pophale) SiO2 
 PCOD9517588
Probable space group: I M M M
;
_chemical_formula_sum "Si O2"
_cell_formula_units_Z 104
_cell_length_a 33.219666
_cell_length_b 29.144566
_cell_length_c 8.964439
_cell_angle_alpha 90.000000
_cell_angle_beta 90.000000
_cell_angle_gamma 90.000000
_cell_volume 8679.125543
_symmetry_space_group_name_H-M "I M M M"
_symmetry_group_IT_number 71
_symmetry_cell_setting 'orthorhombic'
loop_
_space_group_symop_operation_xyz
x,y,z
-x,-y,z
x,-y,-z
-x,y,-z
-x,-y,-z
x,y,-z
-x,y,z
x,-y,z
1/2+x,1/2+y,1/2+z
1/2-x,1/2-y,1/2+z
1/2+x,1/2-y,1/2-z
1/2-x,1/2+y,1/2-z
1/2-x,1/2-y,1/2-z
1/2+x,1/2+y,1/2-z
1/2-x,1/2+y,1/2+z
1/2+x,1/2-y,1/2+z
loop_
_atom_site_type_symbol
_atom_site_label
_atom_site_fract_x
_atom_site_fract_y
_atom_site_fract_z
Si Si1 0.811897 0.267176 0.329873
Si Si2 0.138246 0.500000 0.330698
Si Si3 0.153710 0.647063 0.823177
Si Si4 0.914465 0.591961 0.675135
Si Si5 0.230631 0.596339 0.679958
Si Si6 0.723619 0.315372 0.671104
Si Si7 0.721934 0.000000 0.323621
Si Si8 0.000000 0.553411 0.317986
O O1 0.826254 0.267793 0.500000
O O2 0.838288 0.300820 0.228570
O O3 0.767266 0.290125 0.328830
O O4 0.805524 0.215962 0.269014
O O5 0.155706 0.500000 0.500000
O O6 0.110626 0.544568 0.316139
O O7 0.174227 0.500000 0.214057
O O8 0.110790 0.628659 0.767878
O O9 0.188470 0.616361 0.743528
O O10 0.158105 0.642595 0.000000
O O11 0.915546 0.605274 0.500000
O O12 0.959438 0.579721 0.726755
O O13 0.227667 0.594973 0.500000
O O14 0.265198 0.633261 0.720662
O O15 0.237910 0.546464 0.747883
O O16 0.709527 0.316162 0.500000
O O17 0.728538 0.000000 0.500000
O O18 0.000000 0.500000 0.268826
O O19 0.000000 0.551912 0.500000
#
# Coordination Sequence:
#
# PCOD9517588 Si02
#       8
#    16   8  16  16  16  16   8   8
#     4   9  16  26  40  55  71  90 110 134 169 210
#     4  10  18  27  42  54  68  91 113 142 178 220
#     4  11  20  28  39  55  73  90 113 143 176 213
#     4  10  18  29  44  58  71  88 114 145 181 223
#     4  10  19  30  41  52  70  95 119 141 173 212
#     4   8  15  26  39  54  70  89 112 138 167 204
#     4  12  22  28  37  55  75  93 119 150 180 211
#     4   9  16  28  45  61  69  85 117 147 177 222
#
# _framework density 11.982775
#
# number of rings (size 3 to 8) (size 9 to 14) (size 15 to 20)
#    0.000    2.231    2.308    3.923    0.000    4.308 
#    0.000    0.385    0.000    0.462    0.000    0.000 
#    0.000    0.000    0.000    0.000    0.000    0.000 
#
# Total GULP energy -289780.333689 kJ/mol
# GULP energy per Si atom -5572.698725 kJ/mol
# Density = 1.195550 g / cm^3
# Si number density = 11.982775 Si / 1000 Ang^3
#
#
#
# Elastic Constant Matrix: (Units=GPa)
#
#
# Indices 1 2 3 4 5 6 
#
# 1 33.0748 33.2928 22.9882 0.0000 0.0000 0.0000
# 2 33.2928 90.5868 40.8053 0.0000 0.0000 0.0000
# 3 22.9882 40.8053 65.5929 0.0000 0.0000 0.0000
# 4 0.0000 0.0000 0.0000 17.4793 0.0000 0.0000
# 5 0.0000 0.0000 0.0000 0.0000 6.3847 0.0000
# 6 0.0000 0.0000 0.0000 0.0000 0.0000 11.4201
#
#
#
# Elastic Compliance Matrix: (Units=1/GPa)
#
#
# Indices 1 2 3 4 5 6 
#
# 1 0.051318 -0.014948 -0.008686 0.000000 0.000000 0.000000
# 2 -0.014948 0.019691 -0.007011 0.000000 0.000000 0.000000
# 3 -0.008686 -0.007011 0.022651 0.000000 0.000000 0.000000
# 4 0.000000 0.000000 0.000000 0.057211 0.000000 0.000000
# 5 0.000000 0.000000 0.000000 0.000000 0.156625 0.000000
# 6 0.000000 0.000000 0.000000 0.000000 0.000000 0.087565
#
#
# Mechanical properties :
#
#
# Convention : Reuss Voigt Hill
#
# Bulk Modulus (GPa) = 30.89267 42.60302 36.74784
# Shear Modulus (GPa) = 10.70340 13.20136 11.95238
#
# Velocity S-wave (km/s) = 2.99194 3.32278 3.16169
# Velocity P-wave (km/s) = 6.14593 7.09591 6.63794
#
# Compressibility (1/GPa) = 0.03237014
#
# Stress axis : x y z
#
# Youngs Moduli (GPa) = 19.48633 50.78479 44.14737
#
# Poissons Ratio (x) = 0.75912 0.38348
# Poissons Ratio (y) = 0.29128 0.30952
# Poissons Ratio (z) = 0.16926 0.35605
#
# Static dielectric constant tensor:
#      x y z
#    x 1.366390 0.000000 0.000000 
#    y 0.000000 1.403450 0.000000 
#    z 0.000000 0.000000 1.407990 
# 
# From -- ./inp_files/15812.got.cif
#   From: 2010.05.17/outbox.cif.g08.bks.cpg/sg71_8_cif.got.tgz:15812.got - 2010.06.03 16:22:01.
