data_PCOD9517212
_publ_section_title
;
Structure prediction by ZEFSAII (Michael W. Deem and Ramdas Pophale) SiO2 
 PCOD9517212
Probable space group: I M M M
;
_chemical_formula_sum "Si O2"
_cell_formula_units_Z 100
_cell_length_a 22.664460
_cell_length_b 27.631873
_cell_length_c 8.336354
_cell_angle_alpha 90.000000
_cell_angle_beta 90.000000
_cell_angle_gamma 90.000000
_cell_volume 5220.737397
_symmetry_space_group_name_H-M "I M M M"
_symmetry_group_IT_number 71
_symmetry_cell_setting 'orthorhombic'
loop_
_space_group_symop_operation_xyz
x,y,z
-x,-y,z
x,-y,-z
-x,y,-z
-x,-y,-z
x,y,-z
-x,y,z
x,-y,z
1/2+x,1/2+y,1/2+z
1/2-x,1/2-y,1/2+z
1/2+x,1/2-y,1/2-z
1/2-x,1/2+y,1/2-z
1/2-x,1/2-y,1/2-z
1/2+x,1/2+y,1/2-z
1/2-x,1/2+y,1/2+z
1/2+x,1/2-y,1/2+z
loop_
_atom_site_type_symbol
_atom_site_label
_atom_site_fract_x
_atom_site_fract_y
_atom_site_fract_z
Si Si1 0.432181 0.727405 0.190689
Si Si2 0.885629 0.672909 0.807601
Si Si3 0.362598 0.000000 0.683195
Si Si4 0.932566 0.122231 0.809187
Si Si5 0.203812 0.594865 0.196683
Si Si6 0.500000 0.000000 0.745062
Si Si7 0.500000 0.893668 0.694844
Si Si8 0.171216 0.944530 0.693029
O O1 0.500000 0.736038 0.246342
O O2 0.395100 0.774346 0.235944
O O3 0.412589 0.676537 0.264704
O O4 0.432665 0.721834 0.000000
O O5 0.827950 0.643955 0.750703
O O6 0.942337 0.638652 0.773875
O O7 0.883481 0.677966 0.000000
O O8 0.335976 0.950757 0.752608
O O9 0.433118 0.000000 0.677073
O O10 0.340801 0.000000 0.500000
O O11 0.887791 0.083000 0.741555
O O12 0.000000 0.116647 0.747740
O O13 0.933918 0.117759 0.000000
O O14 0.270486 0.584390 0.247774
O O15 0.202355 0.596104 0.000000
O O16 0.500000 0.943158 0.797590
O O17 0.500000 0.906454 0.500000
O O18 0.174009 0.946141 0.500000
O O19 0.173132 0.000000 0.751429
#
# Coordination Sequence:
#
# PCOD9517212 Si02
#       8
#    16  16   8  16  16   4   8  16
#     4  10  20  35  56  81 110 145 183 227 281 340
#     4  10  18  29  48  77 111 147 189 233 274 316
#     4  10  15  22  38  66 107 148 186 227 272 308
#     4  10  22  40  62  87 112 137 171 223 281 336
#     4   9  17  29  47  74 110 150 189 227 266 314
#     4  12  17  20  36  74 119 150 185 242 287 312
#     4  10  17  22  37  69 108 145 183 230 276 310
#     4  10  20  36  59  85 115 151 185 219 266 327
#
# _framework density 19.154381999999998
#
# number of rings (size 3 to 8) (size 9 to 14) (size 15 to 20)
#    0.000    2.080    3.200    1.680    0.000    2.240 
#    0.000    3.200    0.000    0.000    0.000    2.240 
#    0.000    0.000    0.000    0.000    0.000    0.000 
#
# Total GULP energy -278705.994697 kJ/mol
# GULP energy per Si atom -5574.119894 kJ/mol
# Density = 1.911079 g / cm^3
# Si number density = 19.154382 Si / 1000 Ang^3
#
#
#
# Elastic Constant Matrix: (Units=GPa)
#
#
# Indices 1 2 3 4 5 6 
#
# 1 109.9954 68.7244 13.4361 0.0000 0.0000 0.0000
# 2 68.7244 100.2636 12.1305 0.0000 0.0000 0.0000
# 3 13.4361 12.1305 9.9649 0.0000 0.0000 0.0000
# 4 0.0000 0.0000 0.0000 11.9758 0.0000 0.0000
# 5 0.0000 0.0000 0.0000 0.0000 11.1660 0.0000
# 6 0.0000 0.0000 0.0000 0.0000 0.0000 26.3820
#
#
#
# Elastic Compliance Matrix: (Units=1/GPa)
#
#
# Indices 1 2 3 4 5 6 
#
# 1 0.016722 -0.010242 -0.010078 0.000000 0.000000 0.000000
# 2 -0.010242 0.017970 -0.008065 0.000000 0.000000 0.000000
# 3 -0.010078 -0.008065 0.123759 0.000000 0.000000 0.000000
# 4 0.000000 0.000000 0.000000 0.083502 0.000000 0.000000
# 5 0.000000 0.000000 0.000000 0.000000 0.089558 0.000000
# 6 0.000000 0.000000 0.000000 0.000000 0.000000 0.037905
#
#
# Mechanical properties :
#
#
# Convention : Reuss Voigt Hill
#
# Bulk Modulus (GPa) = 9.83488 45.42288 27.62888
# Shear Modulus (GPa) = 10.86771 18.30028 14.58399
#
# Velocity S-wave (km/s) = 2.38455 3.09432 2.76233
# Velocity P-wave (km/s) = 3.56751 6.04417 4.96282
#
# Compressibility (1/GPa) = 0.10167890
#
# Stress axis : x y z
#
# Youngs Moduli (GPa) = 59.80246 55.64843 8.08025
#
# Poissons Ratio (x) = 0.56997 0.08143
# Poissons Ratio (y) = 0.61252 0.06517
# Poissons Ratio (z) = 0.60271 0.44881
#
# Static dielectric constant tensor:
#      x y z
#    x 1.661950 0.000000 0.000000 
#    y 0.000000 1.654160 0.000000 
#    z 0.000000 0.000000 1.690820 
# 
# From -- ./inp_files/11222.got.cif
#   From: 2010.05.17/outbox.cif.g08.bks.cpg/sg71_6_cif.got.tgz:11222.got - 2010.06.03 16:22:01.
