data_PCOD9517253
_publ_section_title
;
Structure prediction by ZEFSAII (Michael W. Deem and Ramdas Pophale) SiO2 
 PCOD9517253
Probable space group: I M M M
;
_chemical_formula_sum "Si O2"
_cell_formula_units_Z 88
_cell_length_a 7.561551
_cell_length_b 24.810955
_cell_length_c 31.882472
_cell_angle_alpha 90.000000
_cell_angle_beta 90.000000
_cell_angle_gamma 90.000000
_cell_volume 5981.448305
_symmetry_space_group_name_H-M "I M M M"
_symmetry_group_IT_number 71
_symmetry_cell_setting 'orthorhombic'
loop_
_space_group_symop_operation_xyz
x,y,z
-x,-y,z
x,-y,-z
-x,y,-z
-x,-y,-z
x,y,-z
-x,y,z
x,-y,z
1/2+x,1/2+y,1/2+z
1/2-x,1/2-y,1/2+z
1/2+x,1/2-y,1/2-z
1/2-x,1/2+y,1/2-z
1/2-x,1/2-y,1/2-z
1/2+x,1/2+y,1/2-z
1/2-x,1/2+y,1/2+z
1/2+x,1/2-y,1/2+z
loop_
_atom_site_type_symbol
_atom_site_label
_atom_site_fract_x
_atom_site_fract_y
_atom_site_fract_z
Si Si1 0.292398 0.174351 0.837400
Si Si2 0.209427 0.279355 0.794171
Si Si3 0.711934 0.000000 0.765381
Si Si4 0.282392 0.936979 0.000000
Si Si5 0.217268 0.618494 0.250883
Si Si6 0.210132 0.000000 0.135786
Si Si7 0.204195 0.607964 0.587475
O O1 0.500000 0.160757 0.838369
O O2 0.278148 0.238047 0.828934
O O3 0.222859 0.142896 0.796038
O O4 0.215939 0.152371 0.881006
O O5 0.250000 0.250000 0.750000
O O6 0.274374 0.340058 0.785563
O O7 0.000000 0.281613 0.799800
O O8 0.776494 0.943097 0.747169
O O9 0.751006 0.000000 0.814933
O O10 0.500000 0.000000 0.760504
O O11 0.220327 0.906987 0.957921
O O12 0.500000 0.937756 0.000000
O O13 0.229155 0.000000 0.000000
O O14 0.000000 0.619448 0.251368
O O15 0.288574 0.947149 0.114160
O O16 0.000000 0.000000 0.129257
O O17 0.000000 0.623128 0.579494
#
# Coordination Sequence:
#
# PCOD9517253 Si02
#       7
#    16  16   8   8  16   8  16
#     4   9  16  26  40  55  69  91 121 150 184 218
#     4   9  16  26  37  53  73  92 118 148 181 215
#     4  10  16  28  43  53  70  98 125 151 185 220
#     4   9  16  26  46  62  66  86 126 161 188 221
#     4   8  14  23  38  55  68  89 119 147 178 213
#     4  12  22  27  35  56  77  94 122 154 193 227
#     4  10  18  31  45  55  69  93 126 157 190 231
#
# _framework density 14.712156
#
# number of rings (size 3 to 8) (size 9 to 14) (size 15 to 20)
#    0.000    2.636    2.727    2.455    0.000    0.727 
#    0.000    1.818    0.000    0.000    0.000    0.000 
#    0.000    0.000    0.000    0.000    0.000    0.909 
#
# Total GULP energy -245004.138809 kJ/mol
# GULP energy per Si atom -5568.275882 kJ/mol
# Density = 1.467867 g / cm^3
# Si number density = 14.712156 Si / 1000 Ang^3
#
#
#
# Elastic Constant Matrix: (Units=GPa)
#
#
# Indices 1 2 3 4 5 6 
#
# 1 35.1747 0.2592 -0.3629 0.0000 0.0000 0.0000
# 2 0.2592 107.7602 61.3000 0.0000 0.0000 0.0000
# 3 -0.3629 61.3000 80.1324 0.0000 0.0000 0.0000
# 4 0.0000 0.0000 0.0000 17.3392 0.0000 0.0000
# 5 0.0000 0.0000 0.0000 0.0000 2.3287 0.0000
# 6 0.0000 0.0000 0.0000 0.0000 0.0000 9.6288
#
#
#
# Elastic Compliance Matrix: (Units=1/GPa)
#
#
# Indices 1 2 3 4 5 6 
#
# 1 0.028435 -0.000251 0.000321 0.000000 0.000000 0.000000
# 2 -0.000251 0.016432 -0.012571 0.000000 0.000000 0.000000
# 3 0.000321 -0.012571 0.022097 0.000000 0.000000 0.000000
# 4 0.000000 0.000000 0.000000 0.057673 0.000000 0.000000
# 5 0.000000 0.000000 0.000000 0.000000 0.429433 0.000000
# 6 0.000000 0.000000 0.000000 0.000000 0.000000 0.103855
#
#
# Mechanical properties :
#
#
# Convention : Reuss Voigt Hill
#
# Bulk Modulus (GPa) = 23.83149 38.38445 31.10797
# Shear Modulus (GPa) = 7.17449 16.65073 11.91261
#
# Velocity S-wave (km/s) = 2.21069 3.36782 2.84863
# Velocity P-wave (km/s) = 4.76968 6.42417 5.65773
#
# Compressibility (1/GPa) = 0.04196129
#
# Stress axis : x y z
#
# Youngs Moduli (GPa) = 35.16833 60.85844 45.25410
#
# Poissons Ratio (x) = 0.01526 -0.01451
# Poissons Ratio (y) = 0.00882 0.56889
# Poissons Ratio (z) = -0.01128 0.76505
#
# Static dielectric constant tensor:
#      x y z
#    x 1.565370 0.000000 0.000000 
#    y 0.000000 1.519250 0.000000 
#    z 0.000000 0.000000 1.484190 
# 
# From -- ./inp_files/68407.got.cif
#   From: 2010.05.17/outbox.cif.g08.bks.cpg/sg71_35_cif.got.tgz:68407.got - 2010.06.03 16:22:01.
