data_PCOD9517977
_publ_section_title
;
Structure prediction by ZEFSAII (Michael W. Deem and Ramdas Pophale) SiO2 
 PCOD9517977
Probable space group: I M M M
;
_chemical_formula_sum "Si O2"
_cell_formula_units_Z 80
_cell_length_a 14.730313
_cell_length_b 19.702798
_cell_length_c 13.054792
_cell_angle_alpha 90.000000
_cell_angle_beta 90.000000
_cell_angle_gamma 90.000000
_cell_volume 3788.871153
_symmetry_space_group_name_H-M "I M M M"
_symmetry_group_IT_number 71
_symmetry_cell_setting 'orthorhombic'
loop_
_space_group_symop_operation_xyz
x,y,z
-x,-y,z
x,-y,-z
-x,y,-z
-x,-y,-z
x,y,-z
-x,y,z
x,-y,z
1/2+x,1/2+y,1/2+z
1/2-x,1/2-y,1/2+z
1/2+x,1/2-y,1/2-z
1/2-x,1/2+y,1/2-z
1/2-x,1/2-y,1/2-z
1/2+x,1/2+y,1/2-z
1/2-x,1/2+y,1/2+z
1/2+x,1/2-y,1/2+z
loop_
_atom_site_type_symbol
_atom_site_label
_atom_site_fract_x
_atom_site_fract_y
_atom_site_fract_z
Si Si1 0.349057 0.422372 0.500000
Si Si2 0.388942 0.077864 0.616397
Si Si3 0.888367 0.188498 0.617823
Si Si4 0.605024 0.168238 0.199095
Si Si5 0.892020 0.076822 0.777335
Si Si6 0.632766 0.922420 0.000000
O O1 0.386418 0.500000 0.500000
O O2 0.377351 0.392608 0.609120
O O3 0.241312 0.424681 0.500000
O O4 0.362372 0.095268 0.500000
O O5 0.500000 0.077889 0.619119
O O6 0.355604 0.129071 0.703352
O O7 0.361347 0.000000 0.637930
O O8 0.860201 0.182126 0.500000
O O9 0.855075 0.259817 0.664742
O O10 0.859150 0.126002 0.688323
O O11 0.000000 0.190055 0.617447
O O12 0.500000 0.182404 0.225195
O O13 0.605416 0.118319 0.101389
O O14 0.000000 0.071073 0.763919
O O15 0.853206 0.000000 0.774522
O O16 0.600263 0.000000 0.000000
#
# Coordination Sequence:
#
# PCOD9517977 Si02
#       6
#     8  16  16  16  16   8
#     4   9  19  35  51  73 103 126 157 210 256 288
#     4   8  14  25  41  62  89 122 164 212 249 276
#     4   9  17  30  48  73 105 131 155 200 251 288
#     4  10  18  30  47  69 102 138 169 204 241 282
#     4   9  17  32  56  79  97 123 159 199 250 311
#     4  11  21  31  49  73  98 135 175 207 241 283
#
# _framework density 21.114467999999999
#
# number of rings (size 3 to 8) (size 9 to 14) (size 15 to 20)
#    0.000    2.800    1.000    1.800    0.000    3.200 
#    1.800    3.000    0.000    1.200    0.000    2.800 
#    0.000    0.000    0.000    0.000    0.000    0.000 
#
# Total GULP energy -223176.004439 kJ/mol
# GULP energy per Si atom -5579.400111 kJ/mol
# Density = 2.106641 g / cm^3
# Si number density = 21.114468 Si / 1000 Ang^3
#
#
#
# Elastic Constant Matrix: (Units=GPa)
#
#
# Indices 1 2 3 4 5 6 
#
# 1 42.3256 3.0992 2.4165 0.0000 0.0000 0.0000
# 2 3.0992 135.3232 115.8095 0.0000 0.0000 0.0000
# 3 2.4165 115.8095 215.0455 0.0000 0.0000 0.0000
# 4 0.0000 0.0000 0.0000 71.5218 0.0000 0.0000
# 5 0.0000 0.0000 0.0000 0.0000 -30.7726 0.0000
# 6 0.0000 0.0000 0.0000 0.0000 0.0000 1.6547
#
#
#
# Elastic Compliance Matrix: (Units=1/GPa)
#
#
# Indices 1 2 3 4 5 6 
#
# 1 0.023666 -0.000583 0.000048 0.000000 0.000000 0.000000
# 2 -0.000583 0.013721 -0.007383 0.000000 0.000000 0.000000
# 3 0.000048 -0.007383 0.008626 0.000000 0.000000 0.000000
# 4 0.000000 0.000000 0.000000 0.013982 0.000000 0.000000
# 5 0.000000 0.000000 0.000000 0.000000 -0.032496 0.000000
# 6 0.000000 0.000000 0.000000 0.000000 0.000000 0.604347
#
#
# Mechanical properties :
#
#
# Convention : Reuss Voigt Hill
#
# Bulk Modulus (GPa) = 33.13745 70.59386 51.86565
# Shear Modulus (GPa) = 7.60178 26.57205 17.08691
#
# Velocity S-wave (km/s) = 1.89950 3.55135 2.84782
# Velocity P-wave (km/s) = 4.53200 7.09384 5.95238
#
# Compressibility (1/GPa) = 0.03017734
#
# Stress axis : x y z
#
# Youngs Moduli (GPa) = 42.25417 72.87933 115.93453
#
# Poissons Ratio (x) = 0.04250 -0.00558
# Poissons Ratio (y) = 0.02464 0.85593
# Poissons Ratio (z) = -0.00203 0.53806
#
# Static dielectric constant tensor:
#      x y z
#    x 1.774100 0.000000 0.000000 
#    y 0.000000 1.757710 0.000000 
#    z 0.000000 0.000000 1.742260 
# 
# From -- ./inp_files/25564.got.cif
#   From: 2010.05.17/outbox.cif.g08.bks.cpg/sg71_13_cif.got.tgz:25564.got - 2010.06.03 16:22:01.
