data_PCOD9517355
_publ_section_title
;
Structure prediction by ZEFSAII (Michael W. Deem and Ramdas Pophale) SiO2 
 PCOD9517355
Probable space group: I M M M
;
_chemical_formula_sum "Si O2"
_cell_formula_units_Z 88
_cell_length_a 7.572104
_cell_length_b 26.693095
_cell_length_c 28.640258
_cell_angle_alpha 90.000000
_cell_angle_beta 90.000000
_cell_angle_gamma 90.000000
_cell_volume 5788.851758
_symmetry_space_group_name_H-M "I M M M"
_symmetry_group_IT_number 71
_symmetry_cell_setting 'orthorhombic'
loop_
_space_group_symop_operation_xyz
x,y,z
-x,-y,z
x,-y,-z
-x,y,-z
-x,-y,-z
x,y,-z
-x,y,z
x,-y,z
1/2+x,1/2+y,1/2+z
1/2-x,1/2-y,1/2+z
1/2+x,1/2-y,1/2-z
1/2-x,1/2+y,1/2-z
1/2-x,1/2-y,1/2-z
1/2+x,1/2+y,1/2-z
1/2-x,1/2+y,1/2+z
1/2+x,1/2-y,1/2+z
loop_
_atom_site_type_symbol
_atom_site_label
_atom_site_fract_x
_atom_site_fract_y
_atom_site_fract_z
Si Si1 0.000000 0.651265 0.946742
Si Si2 0.211810 0.293811 0.354960
Si Si3 0.699714 0.369814 0.281570
Si Si4 0.500000 0.117117 0.650433
Si Si5 0.290433 0.310161 0.190541
Si Si6 0.500000 0.059116 0.744547
Si Si7 0.209005 0.762708 0.446655
O O1 0.831241 0.688400 0.941251
O O2 0.000000 0.610694 0.905324
O O3 0.000000 0.632072 0.000000
O O4 0.283660 0.344171 0.331980
O O5 0.264848 0.245441 0.324067
O O6 0.259512 0.278071 0.407636
O O7 0.000000 0.297891 0.352583
O O8 0.500000 0.386443 0.273536
O O9 0.739368 0.325317 0.244236
O O10 0.833581 0.413723 0.268864
O O11 0.328471 0.150743 0.662353
O O12 0.500000 0.073454 0.689195
O O13 0.500000 0.315012 0.180692
O O14 0.500000 0.000000 0.750599
O O15 0.232213 0.745050 0.500000
O O16 0.000000 0.774398 0.439900
#
# Coordination Sequence:
#
# PCOD9517355 Si02
#       7
#     8  16  16   8  16   8  16
#     4  10  18  28  44  67  94 126 163 190 220 273
#     4  10  17  27  43  65  98 130 153 184 218 266
#     4  10  20  31  47  69  91 118 154 188 236 284
#     4  10  18  30  50  67  88 127 160 190 241 271
#     4   9  18  28  40  65  96 125 153 183 214 274
#     4  10  22  40  52  65  89 116 160 210 244 285
#     4   9  18  29  40  60  95 137 165 183 213 256
#
# _framework density 15.201634
#
# number of rings (size 3 to 8) (size 9 to 14) (size 15 to 20)
#    0.000    2.364    2.727    0.545    2.545    0.364 
#    0.000    0.000    0.000    0.273    0.000    0.000 
#    0.000    1.455    0.000   15.273    0.000    0.000 
#
# Total GULP energy -245092.518844 kJ/mol
# GULP energy per Si atom -5570.284519 kJ/mol
# Density = 1.516703 g / cm^3
# Si number density = 15.201634 Si / 1000 Ang^3
#
#
#
# Elastic Constant Matrix: (Units=GPa)
#
#
# Indices 1 2 3 4 5 6 
#
# 1 53.0522 30.5983 24.9541 0.0000 0.0000 0.0000
# 2 30.5983 74.8534 37.5677 0.0000 0.0000 0.0000
# 3 24.9541 37.5677 69.9414 0.0000 0.0000 0.0000
# 4 0.0000 0.0000 0.0000 11.2188 0.0000 0.0000
# 5 0.0000 0.0000 0.0000 0.0000 11.3644 0.0000
# 6 0.0000 0.0000 0.0000 0.0000 0.0000 5.1280
#
#
#
# Elastic Compliance Matrix: (Units=1/GPa)
#
#
# Indices 1 2 3 4 5 6 
#
# 1 0.025812 -0.008118 -0.004849 0.000000 0.000000 0.000000
# 2 -0.008118 0.020843 -0.008299 0.000000 0.000000 0.000000
# 3 -0.004849 -0.008299 0.020486 0.000000 0.000000 0.000000
# 4 0.000000 0.000000 0.000000 0.089136 0.000000 0.000000
# 5 0.000000 0.000000 0.000000 0.000000 0.087994 0.000000
# 6 0.000000 0.000000 0.000000 0.000000 0.000000 0.195009
#
#
# Mechanical properties :
#
#
# Convention : Reuss Voigt Hill
#
# Bulk Modulus (GPa) = 40.63602 42.67635 41.65618
# Shear Modulus (GPa) = 10.20376 12.52401 11.36388
#
# Velocity S-wave (km/s) = 2.59362 2.87341 2.73709
# Velocity P-wave (km/s) = 5.97984 6.25645 6.11971
#
# Compressibility (1/GPa) = 0.02460871
#
# Stress axis : x y z
#
# Youngs Moduli (GPa) = 38.74136 47.97777 48.81495
#
# Poissons Ratio (x) = 0.38947 0.23671
# Poissons Ratio (y) = 0.31449 0.40512
# Poissons Ratio (z) = 0.18786 0.39817
#
# Static dielectric constant tensor:
#      x y z
#    x 1.542600 0.000000 0.000000 
#    y 0.000000 1.450800 0.000000 
#    z 0.000000 0.000000 1.554530 
# 
# From -- ./inp_files/68409.got.cif
#   From: 2010.05.17/outbox.cif.g08.bks.cpg/sg71_35_cif.got.tgz:68409.got - 2010.06.03 16:22:01.
