data_PCOD9517738
_publ_section_title
;
Structure prediction by ZEFSAII (Michael W. Deem and Ramdas Pophale) SiO2 
 PCOD9517738
Probable space group: I M M M
;
_chemical_formula_sum "Si O2"
_cell_formula_units_Z 104
_cell_length_a 30.846232
_cell_length_b 10.362296
_cell_length_c 16.988766
_cell_angle_alpha 90.000000
_cell_angle_beta 90.000000
_cell_angle_gamma 90.000000
_cell_volume 5430.251559
_symmetry_space_group_name_H-M "I M M M"
_symmetry_group_IT_number 71
_symmetry_cell_setting 'orthorhombic'
loop_
_space_group_symop_operation_xyz
x,y,z
-x,-y,z
x,-y,-z
-x,y,-z
-x,-y,-z
x,y,-z
-x,y,z
x,-y,z
1/2+x,1/2+y,1/2+z
1/2-x,1/2-y,1/2+z
1/2+x,1/2-y,1/2-z
1/2-x,1/2+y,1/2-z
1/2-x,1/2-y,1/2-z
1/2+x,1/2+y,1/2-z
1/2-x,1/2+y,1/2+z
1/2+x,1/2-y,1/2+z
loop_
_atom_site_type_symbol
_atom_site_label
_atom_site_fract_x
_atom_site_fract_y
_atom_site_fract_z
Si Si1 0.095850 0.849339 0.868631
Si Si2 0.331051 0.147502 0.624152
Si Si3 0.949284 0.000000 0.406197
Si Si4 0.000000 0.149629 0.868236
Si Si5 0.500000 0.141377 0.768400
Si Si6 0.267989 0.350156 0.910878
Si Si7 0.085487 0.758620 0.685741
Si Si8 0.677965 0.852446 0.813072
O O1 0.132478 0.751195 0.898364
O O2 0.047618 0.832108 0.905695
O O3 0.091073 0.815289 0.774988
O O4 0.107862 0.000000 0.877218
O O5 0.283827 0.168755 0.587957
O O6 0.322616 0.155889 0.718207
O O7 0.345247 0.000000 0.606976
O O8 0.925864 0.876028 0.370705
O O9 0.947953 0.000000 0.500000
O O10 0.000000 0.000000 0.380912
O O11 0.000000 0.248595 0.796905
O O12 0.000000 0.000000 0.840925
O O13 0.455767 0.164138 0.814972
O O14 0.500000 0.000000 0.732073
O O15 0.275685 0.500000 0.887253
O O16 0.289976 0.250127 0.852042
O O17 0.284646 0.332890 0.000000
O O18 0.129223 0.686018 0.663166
O O19 0.688473 0.000000 0.834784
#
# Coordination Sequence:
#
# PCOD9517738 Si02
#       8
#    16  16   8   8   8  16  16  16
#     4   9  16  27  49  76 103 135 163 203 253 299
#     4   9  19  35  53  77 108 135 167 212 259 308
#     4  11  22  34  50  70  92 134 187 225 249 290
#     4   8  16  26  42  72 110 136 161 199 242 293
#     4  10  18  28  48  69  96 131 165 204 258 306
#     4  10  22  39  57  76 100 135 175 212 254 308
#     4  10  19  32  50  70 101 128 169 214 259 300
#     4  10  21  35  54  81 107 132 164 213 271 316
#
# _framework density 19.151968
#
# number of rings (size 3 to 8) (size 9 to 14) (size 15 to 20)
#    0.000    2.385    1.538    0.923    2.154    5.846 
#    0.000    0.000    0.000    1.846    0.000    0.538 
#    0.000    4.308    0.000    0.000    0.000    0.000 
#
# Total GULP energy -289991.247150 kJ/mol
# GULP energy per Si atom -5576.754753 kJ/mol
# Density = 1.910838 g / cm^3
# Si number density = 19.151968 Si / 1000 Ang^3
#
#
#
# Elastic Constant Matrix: (Units=GPa)
#
#
# Indices 1 2 3 4 5 6 
#
# 1 104.0581 77.7064 21.9534 0.0000 0.0000 0.0000
# 2 77.7064 128.0435 28.5033 0.0000 0.0000 0.0000
# 3 21.9534 28.5033 44.4405 0.0000 0.0000 0.0000
# 4 0.0000 0.0000 0.0000 -0.0846 0.0000 0.0000
# 5 0.0000 0.0000 0.0000 0.0000 -18.2257 0.0000
# 6 0.0000 0.0000 0.0000 0.0000 0.0000 36.8065
#
#
#
# Elastic Compliance Matrix: (Units=1/GPa)
#
#
# Indices 1 2 3 4 5 6 
#
# 1 0.017752 -0.010290 -0.002169 0.000000 0.000000 0.000000
# 2 -0.010290 0.015076 -0.004586 0.000000 0.000000 0.000000
# 3 -0.002169 -0.004586 0.026515 0.000000 0.000000 0.000000
# 4 0.000000 0.000000 0.000000-11.813405 0.000000 0.000000
# 5 0.000000 0.000000 0.000000 0.000000 -0.054868 0.000000
# 6 0.000000 0.000000 0.000000 0.000000 0.000000 0.027169
#
#
# Mechanical properties :
#
#
# Convention : Reuss Voigt Hill
#
# Bulk Modulus (GPa) = 39.60166 59.20758 49.40462
# Shear Modulus (GPa) = -0.42592 13.59117 6.58262
#
# Velocity S-wave (km/s) = -0.47209 2.66681 1.85594
# Velocity P-wave (km/s) = 4.51944 6.36115 5.51768
#
# Compressibility (1/GPa) = 0.02525147
#
# Stress axis : x y z
#
# Youngs Moduli (GPa) = 56.33103 66.33194 37.71458
#
# Poissons Ratio (x) = 0.68259 0.08182
# Poissons Ratio (y) = 0.57967 0.17295
# Poissons Ratio (z) = 0.12221 0.30419
#
# Static dielectric constant tensor:
#      x y z
#    x 1.688840 0.000000 0.000000 
#    y 0.000000 1.640140 0.000000 
#    z 0.000000 0.000000 1.662520 
# 
# From -- ./inp_files/56768.got.cif
#   From: 2010.05.17/outbox.cif.g08.bks.cpg/sg71_29_cif.got.tgz:56768.got - 2010.06.03 16:22:01.
