data_PCOD9517139
_publ_section_title
;
Structure prediction by ZEFSAII (Michael W. Deem and Ramdas Pophale) SiO2 
 PCOD9517139
Probable space group: F D D D
;
_chemical_formula_sum "Si O2"
_cell_formula_units_Z 80
_cell_length_a 25.269279
_cell_length_b 14.555638
_cell_length_c 8.062052
_cell_angle_alpha 90.000000
_cell_angle_beta 90.000000
_cell_angle_gamma 90.000000
_cell_volume 2965.307197
_symmetry_space_group_name_H-M "F D D D"
_symmetry_group_IT_number 70
_space_group.IT_coordinate_system_code '2'
_symmetry_cell_setting 'orthorhombic'
loop_
_space_group_symop_operation_xyz
x,y,z
1/4-x,1/4-y,z
x,1/4-y,1/4-z
1/4-x,y,1/4-z
-x,-y,-z
3/4+x,3/4+y,-z
-x,3/4+y,3/4+z
3/4+x,-y,3/4+z
x,1/2+y,1/2+z
1/4-x,3/4-y,1/2+z
x,3/4-y,3/4-z
1/4-x,1/2+y,3/4-z
-x,1/2-y,1/2-z
3/4+x,1/4+y,1/2-z
-x,1/4+y,1/4+z
3/4+x,1/2-y,1/4+z
1/2+x,y,1/2+z
3/4-x,1/4-y,1/2+z
1/2+x,1/4-y,3/4-z
3/4-x,y,3/4-z
1/2-x,-y,1/2-z
1/4+x,3/4+y,1/2-z
1/2-x,3/4+y,1/4+z
1/4+x,-y,1/4+z
1/2+x,1/2+y,z
3/4-x,3/4-y,z
1/2+x,3/4-y,1/4-z
3/4-x,1/2+y,1/4-z
1/2-x,1/2-y,-z
1/4+x,1/4+y,-z
1/2-x,1/4+y,3/4+z
1/4+x,1/2-y,3/4+z
loop_
_atom_site_type_symbol
_atom_site_label
_atom_site_fract_x
_atom_site_fract_y
_atom_site_fract_z
Si Si1 0.404516 0.125000 0.125000
Si Si2 0.169686 0.550621 0.949383
Si Si3 0.771138 0.646848 0.319746
O O1 0.367615 0.214296 0.149303
O O2 0.440142 0.105891 0.288812
O O3 0.125000 0.625000 0.977119
O O4 0.212886 0.605822 0.842614
O O5 0.210191 0.503655 0.082589
O O6 0.779200 0.625000 0.125000
#
# Coordination Sequence:
#
# PCOD9517139 Si02
#       3
#    16  32  32
#     4  12  30  54  85 126 171 220 282 346 424 500
#     4  12  29  54  88 124 172 223 281 351 421 501
#     4  12  29  53  84 126 167 218 285 342 418 506
#
# _framework density 26.978657999999999
#
# number of rings (size 3 to 8) (size 9 to 14) (size 15 to 20)
#    0.000    0.000    2.000    4.800    0.000   16.800 
#    0.000    0.000    0.000    0.000    0.000    0.000 
#    0.000    0.000    0.000    0.000    0.000    0.000 
#
# Total GULP energy -111393.893714 kJ/mol
# GULP energy per Si atom -5569.694686 kJ/mol
# Density = 2.691725 g / cm^3
# Si number density = 26.978658 Si / 1000 Ang^3
#
#
#
# Elastic Constant Matrix: (Units=GPa)
#
#
# Indices 1 2 3 4 5 6 
#
# 1 281.5212 129.1187 127.3022 0.0000 0.0000 0.0000
# 2 129.1187 211.4681 51.4694 0.0000 0.0000 0.0000
# 3 127.3022 51.4694 166.2784 0.0000 0.0000 0.0000
# 4 0.0000 0.0000 0.0000 2.9782 0.0000 0.0000
# 5 0.0000 0.0000 0.0000 0.0000 -134.9210 0.0000
# 6 0.0000 0.0000 0.0000 0.0000 0.0000 -16.7297
#
#
#
# Elastic Compliance Matrix: (Units=1/GPa)
#
#
# Indices 1 2 3 4 5 6 
#
# 1 0.006998 -0.003211 -0.004364 0.000000 0.000000 0.000000
# 2 -0.003211 0.006587 0.000419 0.000000 0.000000 0.000000
# 3 -0.004364 0.000419 0.009225 0.000000 0.000000 0.000000
# 4 0.000000 0.000000 0.000000 0.335772 0.000000 0.000000
# 5 0.000000 0.000000 0.000000 0.000000 -0.007412 0.000000
# 6 0.000000 0.000000 0.000000 0.000000 0.000000 -0.059774
#
#
# Mechanical properties :
#
#
# Convention : Reuss Voigt Hill
#
# Bulk Modulus (GPa) = 117.65236 141.67203 129.66220
# Shear Modulus (GPa) = 16.20531 -6.30934 4.94799
#
# Velocity S-wave (km/s) = 2.45352 -1.53092 1.35574
# Velocity P-wave (km/s) = 7.19239 7.03574 7.11450
#
# Compressibility (1/GPa) = 0.00849962
#
# Stress axis : x y z
#
# Youngs Moduli (GPa) = 142.89742 151.80812 108.39882
#
# Poissons Ratio (x) = 0.48742 0.47303
# Poissons Ratio (y) = 0.45881 -0.04543
# Poissons Ratio (z) = 0.62358 -0.06363
#
# Static dielectric constant tensor:
#      x y z
#    x 2.095890 0.000000 0.000000 
#    y 0.000000 1.856670 0.000000 
#    z 0.000000 0.000000 2.297640 
# 
# From -- ./inp_files/10153.got.cif
#   From: 2010.05.17/outbox.cif.g08.bks.cpg/sg70_6_cif.got.tgz:10153.got - 2010.06.03 15:57:51.
