data_PCOD9517992
_publ_section_title
;
Structure prediction by ZEFSAII (Michael W. Deem and Ramdas Pophale) SiO2 
 PCOD9517992
Probable space group: I M M M
;
_chemical_formula_sum "Si O2"
_cell_formula_units_Z 112
_cell_length_a 21.008449
_cell_length_b 19.443091
_cell_length_c 17.523291
_cell_angle_alpha 90.000000
_cell_angle_beta 90.000000
_cell_angle_gamma 90.000000
_cell_volume 7157.724405
_symmetry_space_group_name_H-M "I M M M"
_symmetry_group_IT_number 71
_symmetry_cell_setting 'orthorhombic'
loop_
_space_group_symop_operation_xyz
x,y,z
-x,-y,z
x,-y,-z
-x,y,-z
-x,-y,-z
x,y,-z
-x,y,z
x,-y,z
1/2+x,1/2+y,1/2+z
1/2-x,1/2-y,1/2+z
1/2+x,1/2-y,1/2-z
1/2-x,1/2+y,1/2-z
1/2-x,1/2-y,1/2-z
1/2+x,1/2+y,1/2-z
1/2-x,1/2+y,1/2+z
1/2+x,1/2-y,1/2+z
loop_
_atom_site_type_symbol
_atom_site_label
_atom_site_fract_x
_atom_site_fract_y
_atom_site_fract_z
Si Si1 0.335477 0.697317 0.804867
Si Si2 0.322248 0.580964 0.590177
Si Si3 0.160121 0.421315 0.180613
Si Si4 0.793914 0.077789 0.409119
Si Si5 0.722163 0.158331 0.813785
Si Si6 0.575863 0.816511 0.587481
Si Si7 0.575184 0.326984 0.329370
O O1 0.332815 0.638604 0.868890
O O2 0.317620 0.773393 0.834179
O O3 0.279071 0.680253 0.744179
O O4 0.399140 0.692290 0.754675
O O5 0.332231 0.590281 0.500000
O O6 0.315324 0.500000 0.606525
O O7 0.259186 0.621029 0.618090
O O8 0.382056 0.611930 0.636416
O O9 0.138358 0.500000 0.183610
O O10 0.223757 0.418822 0.128373
O O11 0.179288 0.393047 0.263722
O O12 0.110301 0.370779 0.141328
O O13 0.790360 0.086538 0.500000
O O14 0.818264 0.000000 0.393169
O O15 0.597709 0.823488 0.500000
O O16 0.500000 0.826753 0.589472
O O17 0.588484 0.739894 0.618230
O O18 0.500000 0.341234 0.330426
#
# Coordination Sequence:
#
# PCOD9517992 Si02
#       7
#    16  16  16  16  16  16  16
#     4   9  17  30  50  71  93 123 167 202 243 290
#     4  10  21  34  49  73 103 132 165 209 256 299
#     4  10  18  30  48  68  95 131 163 195 240 294
#     4   9  18  30  46  72 102 127 154 196 248 299
#     4   9  17  31  48  71  95 126 162 209 249 291
#     4  10  20  32  46  67  97 132 167 203 241 285
#     4  10  20  35  52  70  96 133 172 206 240 290
#
# _framework density 15.647432
#
# number of rings (size 3 to 8) (size 9 to 14) (size 15 to 20)
#    0.000    2.429    1.429    1.286    2.000    6.286 
#    0.000    1.429    0.000    0.429    0.000    1.000 
#    0.000    0.571    0.000    4.857    0.000    0.000 
#
# Total GULP energy -312076.790756 kJ/mol
# GULP energy per Si atom -5572.799835 kJ/mol
# Density = 1.561182 g / cm^3
# Si number density = 15.647432 Si / 1000 Ang^3
#
#
#
# Elastic Constant Matrix: (Units=GPa)
#
#
# Indices 1 2 3 4 5 6 
#
# 1 36.0451 42.9118 29.7920 0.0000 0.0000 0.0000
# 2 42.9118 105.0382 48.3730 0.0000 0.0000 0.0000
# 3 29.7920 48.3730 48.2718 0.0000 0.0000 0.0000
# 4 0.0000 0.0000 0.0000 27.1487 0.0000 0.0000
# 5 0.0000 0.0000 0.0000 0.0000 19.9497 0.0000
# 6 0.0000 0.0000 0.0000 0.0000 0.0000 17.8594
#
#
#
# Elastic Compliance Matrix: (Units=1/GPa)
#
#
# Indices 1 2 3 4 5 6 
#
# 1 0.068287 -0.015764 -0.026348 0.000000 0.000000 0.000000
# 2 -0.015764 0.021318 -0.011634 0.000000 0.000000 0.000000
# 3 -0.026348 -0.011634 0.048636 0.000000 0.000000 0.000000
# 4 0.000000 0.000000 0.000000 0.036834 0.000000 0.000000
# 5 0.000000 0.000000 0.000000 0.000000 0.050126 0.000000
# 6 0.000000 0.000000 0.000000 0.000000 0.000000 0.055993
#
#
# Mechanical properties :
#
#
# Convention : Reuss Voigt Hill
#
# Bulk Modulus (GPa) = 32.52101 47.94540 40.23321
# Shear Modulus (GPa) = 12.53337 17.54343 15.03840
#
# Velocity S-wave (km/s) = 2.83324 3.35202 3.10349
# Velocity P-wave (km/s) = 5.61531 6.75936 6.21372
#
# Compressibility (1/GPa) = 0.03074935
#
# Stress axis : x y z
#
# Youngs Moduli (GPa) = 14.64411 46.90861 20.56100
#
# Poissons Ratio (x) = 0.73944 0.54175
# Poissons Ratio (y) = 0.23084 0.23921
# Poissons Ratio (z) = 0.38585 0.54573
#
# Static dielectric constant tensor:
#      x y z
#    x 1.506280 0.000000 0.000000 
#    y 0.000000 1.534010 0.000000 
#    z 0.000000 0.000000 1.510520 
# 
# From -- ./inp_files/46376.got.cif
#   From: 2010.05.17/outbox.cif.g08.bks.cpg/sg71_24_cif.got.tgz:46376.got - 2010.06.03 16:22:01.
