data_PCOD9517747
_publ_section_title
;
Structure prediction by ZEFSAII (Michael W. Deem and Ramdas Pophale) SiO2 
 PCOD9517747
Probable space group: I M M M
;
_chemical_formula_sum "Si O2"
_cell_formula_units_Z 88
_cell_length_a 20.655155
_cell_length_b 9.170847
_cell_length_c 26.584853
_cell_angle_alpha 90.000000
_cell_angle_beta 90.000000
_cell_angle_gamma 90.000000
_cell_volume 5035.842858
_symmetry_space_group_name_H-M "I M M M"
_symmetry_group_IT_number 71
_symmetry_cell_setting 'orthorhombic'
loop_
_space_group_symop_operation_xyz
x,y,z
-x,-y,z
x,-y,-z
-x,y,-z
-x,-y,-z
x,y,-z
-x,y,z
x,-y,z
1/2+x,1/2+y,1/2+z
1/2-x,1/2-y,1/2+z
1/2+x,1/2-y,1/2-z
1/2-x,1/2+y,1/2-z
1/2-x,1/2-y,1/2-z
1/2+x,1/2+y,1/2-z
1/2-x,1/2+y,1/2+z
1/2+x,1/2-y,1/2+z
loop_
_atom_site_type_symbol
_atom_site_label
_atom_site_fract_x
_atom_site_fract_y
_atom_site_fract_z
Si Si1 0.131933 0.829642 0.560367
Si Si2 0.228095 0.325871 0.366407
Si Si3 0.000000 0.672982 0.829917
Si Si4 0.000000 0.828083 0.722724
Si Si5 0.143210 0.171214 0.714542
Si Si6 0.869874 0.173383 0.165964
Si Si7 0.000000 0.666167 0.438851
O O1 0.138369 0.818576 0.500000
O O2 0.190818 0.752125 0.588378
O O3 0.065028 0.751030 0.575194
O O4 0.129011 0.000000 0.573899
O O5 0.222039 0.500000 0.370107
O O6 0.192402 0.269705 0.316053
O O7 0.303933 0.289004 0.362679
O O8 0.933489 0.740357 0.850928
O O9 0.000000 0.500000 0.833111
O O10 0.000000 0.727339 0.771873
O O11 0.068848 0.804878 0.696378
O O12 0.000000 0.000000 0.738792
O O13 0.142650 0.200683 0.774365
O O14 0.158864 0.000000 0.707414
O O15 0.881850 0.000000 0.161436
O O16 0.000000 0.500000 0.420064
O O17 0.000000 0.660989 0.500000
#
# Coordination Sequence:
#
# PCOD9517747 Si02
#       7
#    16  16   8   8  16  16   8
#     4  10  21  37  55  74  99 132 167 204 249 297
#     4  11  22  33  49  74 101 131 166 204 247 292
#     4  10  18  28  49  75  95 122 163 208 244 282
#     4   8  16  31  47  64  93 135 172 201 242 289
#     4   9  17  31  49  68  97 135 170 204 241 287
#     4   9  19  35  51  69  99 136 166 196 242 296
#     4   9  17  32  55  78  99 126 164 210 251 288
#
# _framework density 17.474730999999998
#
# number of rings (size 3 to 8) (size 9 to 14) (size 15 to 20)
#    0.000    2.455    0.000    3.818    0.000    7.273 
#    0.000    2.727    0.000    0.000    0.000    0.636 
#    0.000    5.091    0.000    0.000    0.000    0.000 
#
# Total GULP energy -245514.340995 kJ/mol
# GULP energy per Si atom -5579.871386 kJ/mol
# Density = 1.743496 g / cm^3
# Si number density = 17.474731 Si / 1000 Ang^3
#
#
#
# Elastic Constant Matrix: (Units=GPa)
#
#
# Indices 1 2 3 4 5 6 
#
# 1 176.8096 98.1254 40.0925 0.0000 0.0000 0.0000
# 2 98.1254 106.3011 32.7036 0.0000 0.0000 0.0000
# 3 40.0925 32.7036 38.5879 0.0000 0.0000 0.0000
# 4 0.0000 0.0000 0.0000 21.7584 0.0000 0.0000
# 5 0.0000 0.0000 0.0000 0.0000 66.5057 0.0000
# 6 0.0000 0.0000 0.0000 0.0000 0.0000 24.1526
#
#
#
# Elastic Compliance Matrix: (Units=1/GPa)
#
#
# Indices 1 2 3 4 5 6 
#
# 1 0.012078 -0.009859 -0.004193 0.000000 0.000000 0.000000
# 2 -0.009859 0.020773 -0.007362 0.000000 0.000000 0.000000
# 3 -0.004193 -0.007362 0.036511 0.000000 0.000000 0.000000
# 4 0.000000 0.000000 0.000000 0.045959 0.000000 0.000000
# 5 0.000000 0.000000 0.000000 0.000000 0.015036 0.000000
# 6 0.000000 0.000000 0.000000 0.000000 0.000000 0.041403
#
#
# Mechanical properties :
#
#
# Convention : Reuss Voigt Hill
#
# Bulk Modulus (GPa) = 37.68818 73.72685 55.70752
# Shear Modulus (GPa) = 22.37788 32.53514 27.45651
#
# Velocity S-wave (km/s) = 3.58241 4.31958 3.96815
# Velocity P-wave (km/s) = 6.22299 8.19515 7.27620
#
# Compressibility (1/GPa) = 0.02653352
#
# Stress axis : x y z
#
# Youngs Moduli (GPa) = 82.79243 48.13918 27.38904
#
# Poissons Ratio (x) = 0.47462 0.11486
# Poissons Ratio (y) = 0.81628 0.20163
# Poissons Ratio (z) = 0.34719 0.35438
#
# Static dielectric constant tensor:
#      x y z
#    x 1.609130 0.000000 0.000000 
#    y 0.000000 1.578510 0.000000 
#    z 0.000000 0.000000 1.599800 
# 
# From -- ./inp_files/70421.got.cif
#   From: 2010.05.17/outbox.cif.g08.bks.cpg/sg71_36_cif.got.tgz:70421.got - 2010.06.03 16:22:01.
