data_PCOD9517971
_publ_section_title
;
Structure prediction by ZEFSAII (Michael W. Deem and Ramdas Pophale) SiO2 
 PCOD9517971
Probable space group: I M M M
;
_chemical_formula_sum "Si O2"
_cell_formula_units_Z 104
_cell_length_a 25.702095
_cell_length_b 11.778973
_cell_length_c 18.066411
_cell_angle_alpha 90.000000
_cell_angle_beta 90.000000
_cell_angle_gamma 90.000000
_cell_volume 5469.502645
_symmetry_space_group_name_H-M "I M M M"
_symmetry_group_IT_number 71
_symmetry_cell_setting 'orthorhombic'
loop_
_space_group_symop_operation_xyz
x,y,z
-x,-y,z
x,-y,-z
-x,y,-z
-x,-y,-z
x,y,-z
-x,y,z
x,-y,z
1/2+x,1/2+y,1/2+z
1/2-x,1/2-y,1/2+z
1/2+x,1/2-y,1/2-z
1/2-x,1/2+y,1/2-z
1/2-x,1/2-y,1/2-z
1/2+x,1/2+y,1/2-z
1/2-x,1/2+y,1/2+z
1/2+x,1/2-y,1/2+z
loop_
_atom_site_type_symbol
_atom_site_label
_atom_site_fract_x
_atom_site_fract_y
_atom_site_fract_z
Si Si1 0.557676 0.636378 0.842827
Si Si2 0.765192 0.785632 0.918351
Si Si3 0.939395 0.778104 0.823837
Si Si4 0.273300 0.623677 0.264385
Si Si5 0.563385 0.500000 0.415118
Si Si6 0.366429 0.866143 0.582381
Si Si7 0.831923 0.870369 0.620292
O O1 0.500000 0.662202 0.873282
O O2 0.559610 0.500000 0.830126
O O3 0.562473 0.696271 0.763156
O O4 0.608285 0.663346 0.891491
O O5 0.777276 0.871843 0.852431
O O6 0.810277 0.691433 0.911933
O O7 0.710583 0.718273 0.908656
O O8 0.767139 0.836501 0.000000
O O9 0.903363 0.678395 0.853165
O O10 0.000000 0.757160 0.842585
O O11 0.921151 0.888796 0.869668
O O12 0.247246 0.500000 0.245586
O O13 0.250000 0.750000 0.250000
O O14 0.322601 0.624873 0.209663
O O15 0.500000 0.500000 0.416105
O O16 0.581624 0.500000 0.500000
O O17 0.387793 0.835818 0.500000
O O18 0.360840 0.000000 0.585935
O O19 0.822967 0.000000 0.593232
#
# Coordination Sequence:
#
# PCOD9517971 Si02
#       7
#    16  16  16  16   8  16  16
#     4   9  16  28  47  72  98 122 156 209 267 318
#     4  10  20  34  51  73 103 138 178 223 267 313
#     4  10  18  30  47  67  92 124 165 213 263 316
#     4   9  18  33  53  79 109 140 178 218 259 313
#     4   9  16  26  42  64  90 120 157 201 252 314
#     4  10  21  34  45  62  93 134 176 216 258 308
#     4   9  17  30  51  74  98 137 177 213 262 324
#
# _framework density 19.014526
#
# number of rings (size 3 to 8) (size 9 to 14) (size 15 to 20)
#    0.000    2.538    0.769    1.846    0.000    3.077 
#    1.385    0.769    0.000    0.462    0.000    2.154 
#    0.000    0.000    0.000    5.538    0.000    0.308 
#
# Total GULP energy -289592.708423 kJ/mol
# GULP energy per Si atom -5569.090547 kJ/mol
# Density = 1.897125 g / cm^3
# Si number density = 19.014526 Si / 1000 Ang^3
#
#
#
# Elastic Constant Matrix: (Units=GPa)
#
#
# Indices 1 2 3 4 5 6 
#
# 1 80.1794 13.5290 3.9093 0.0000 0.0000 0.0000
# 2 13.5290 70.6451 4.5341 0.0000 0.0000 0.0000
# 3 3.9093 4.5341 48.7808 0.0000 0.0000 0.0000
# 4 0.0000 0.0000 0.0000 13.6417 0.0000 0.0000
# 5 0.0000 0.0000 0.0000 0.0000 16.2345 0.0000
# 6 0.0000 0.0000 0.0000 0.0000 0.0000 16.5078
#
#
#
# Elastic Compliance Matrix: (Units=1/GPa)
#
#
# Indices 1 2 3 4 5 6 
#
# 1 0.012920 -0.002422 -0.000810 0.000000 0.000000 0.000000
# 2 -0.002422 0.014694 -0.001172 0.000000 0.000000 0.000000
# 3 -0.000810 -0.001172 0.020674 0.000000 0.000000 0.000000
# 4 0.000000 0.000000 0.000000 0.073305 0.000000 0.000000
# 5 0.000000 0.000000 0.000000 0.000000 0.061597 0.000000
# 6 0.000000 0.000000 0.000000 0.000000 0.000000 0.060578
#
#
# Mechanical properties :
#
#
# Convention : Reuss Voigt Hill
#
# Bulk Modulus (GPa) = 25.32943 27.06113 26.19528
# Shear Modulus (GPa) = 18.81565 21.11898 19.96731
#
# Velocity S-wave (km/s) = 3.14911 3.33630 3.24405
# Velocity P-wave (km/s) = 5.15486 5.39480 5.27619
#
# Compressibility (1/GPa) = 0.03947976
#
# Stress axis : x y z
#
# Youngs Moduli (GPa) = 77.39777 68.05338 48.37061
#
# Poissons Ratio (x) = 0.16485 0.03919
# Poissons Ratio (y) = 0.18748 0.05668
# Poissons Ratio (z) = 0.06271 0.07974
#
# Static dielectric constant tensor:
#      x y z
#    x 1.687910 0.000000 0.000000 
#    y 0.000000 1.663870 0.000000 
#    z 0.000000 0.000000 1.710810 
# 
# From -- ./inp_files/48834.got.cif
#   From: 2010.05.17/outbox.cif.g08.bks.cpg/sg71_25_cif.got.tgz:48834.got - 2010.06.03 16:22:01.
