data_PCOD9517077
_publ_section_title
;
Structure prediction by ZEFSAII (Michael W. Deem and Ramdas Pophale) SiO2 
 PCOD9517077
Probable space group: F D D D
;
_chemical_formula_sum "Si O2"
_cell_formula_units_Z 176
_cell_length_a 11.169354
_cell_length_b 24.959076
_cell_length_c 24.959078
_cell_angle_alpha 90.000000
_cell_angle_beta 90.000000
_cell_angle_gamma 90.000000
_cell_volume 6958.010782
_symmetry_space_group_name_H-M "F D D D"
_symmetry_group_IT_number 70
_space_group.IT_coordinate_system_code '2'
_symmetry_cell_setting 'orthorhombic'
loop_
_space_group_symop_operation_xyz
x,y,z
1/4-x,1/4-y,z
x,1/4-y,1/4-z
1/4-x,y,1/4-z
-x,-y,-z
3/4+x,3/4+y,-z
-x,3/4+y,3/4+z
3/4+x,-y,3/4+z
x,1/2+y,1/2+z
1/4-x,3/4-y,1/2+z
x,3/4-y,3/4-z
1/4-x,1/2+y,3/4-z
-x,1/2-y,1/2-z
3/4+x,1/4+y,1/2-z
-x,1/4+y,1/4+z
3/4+x,1/2-y,1/4+z
1/2+x,y,1/2+z
3/4-x,1/4-y,1/2+z
1/2+x,1/4-y,3/4-z
3/4-x,y,3/4-z
1/2-x,-y,1/2-z
1/4+x,3/4+y,1/2-z
1/2-x,3/4+y,1/4+z
1/4+x,-y,1/4+z
1/2+x,1/2+y,z
3/4-x,3/4-y,z
1/2+x,3/4-y,1/4-z
3/4-x,1/2+y,1/4-z
1/2-x,1/2-y,-z
1/4+x,1/4+y,-z
1/2-x,1/4+y,3/4+z
1/4+x,1/2-y,3/4+z
loop_
_atom_site_type_symbol
_atom_site_label
_atom_site_fract_x
_atom_site_fract_y
_atom_site_fract_z
Si Si1 0.208164 0.077661 0.804940
Si Si2 0.208164 0.804940 0.577661
Si Si3 0.440259 0.115078 0.741382
Si Si4 0.250000 0.006217 0.493783
Si Si5 0.440259 0.741382 0.615078
Si Si6 0.125000 0.875000 0.875000
O O1 0.125000 0.125000 0.828397
O O2 0.307149 0.104547 0.766837
O O3 0.116519 0.038647 0.774193
O O4 0.254561 0.036887 0.849857
O O5 0.125000 0.828397 0.625000
O O6 0.254561 0.849857 0.536887
O O7 0.307149 0.766837 0.604547
O O8 0.116519 0.774193 0.538647
O O9 0.490878 0.056397 0.734683
O O10 0.439764 0.139224 0.681363
O O11 0.259122 0.015317 0.556397
O O12 0.439764 0.681363 0.639224
#
# Coordination Sequence:
#
# PCOD9517077 Si02
#       6
#    32  32  32  32  32  16
#     4  12  24  50  73 104 149 193 246 307 372 449
#     4  12  24  50  73 104 149 193 246 307 372 449
#     4  12  27  46  76 108 147 197 246 309 374 455
#     4  12  26  44  72 106 146 194 246 304 376 440
#     4  12  27  46  76 108 147 197 246 309 374 455
#     4  12  24  52  70 108 156 186 244 308 386 440
#
# _framework density 25.294585000000001
#
# number of rings (size 3 to 8) (size 9 to 14) (size 15 to 20)
#    0.000    0.000    7.273    1.091    5.091    0.000 
#    0.000    6.364    0.000    0.000    0.000    0.000 
#    0.000    0.000    0.000    0.000    0.000    0.000 
#
# Total GULP energy -246377.184241 kJ/mol
# GULP energy per Si atom -5599.481460 kJ/mol
# Density = 2.523701 g / cm^3
# Si number density = 25.294585 Si / 1000 Ang^3
#
#
#
# Elastic Constant Matrix: (Units=GPa)
#
#
# Indices 1 2 3 4 5 6 
#
# 1 102.7643 20.8381 20.8381 0.0000 0.0000 0.0000
# 2 20.8381 153.3624 28.1449 0.0000 0.0000 0.0000
# 3 20.8381 28.1449 153.3624 0.0000 0.0000 0.0000
# 4 0.0000 0.0000 0.0000 48.3215 0.0000 0.0000
# 5 0.0000 0.0000 0.0000 0.0000 -28.4333 0.0000
# 6 0.0000 0.0000 0.0000 0.0000 0.0000 -28.4333
#
#
#
# Elastic Compliance Matrix: (Units=1/GPa)
#
#
# Indices 1 2 3 4 5 6 
#
# 1 0.010206 -0.001172 -0.001172 0.000000 0.000000 0.000000
# 2 -0.001172 0.006882 -0.001104 0.000000 0.000000 0.000000
# 3 -0.001172 -0.001104 0.006882 0.000000 0.000000 0.000000
# 4 0.000000 0.000000 0.000000 0.020695 0.000000 0.000000
# 5 0.000000 0.000000 0.000000 0.000000 -0.035170 0.000000
# 6 0.000000 0.000000 0.000000 0.000000 0.000000 -0.035170
#
#
# Mechanical properties :
#
#
# Convention : Reuss Voigt Hill
#
# Bulk Modulus (GPa) = 58.56104 61.01460 59.78782
# Shear Modulus (GPa) = -382.03182 20.93551 -180.54816
#
# Velocity S-wave (km/s) = -12.30288 2.88004 -8.45773
# Velocity P-wave (km/s) = 13.36461 5.93578 8.46697
#
# Compressibility (1/GPa) = 0.01707620
#
# Stress axis : x y z
#
# Youngs Moduli (GPa) = 97.97965 145.30058 145.30060
#
# Poissons Ratio (x) = 0.17025 0.17025
# Poissons Ratio (y) = 0.11481 0.16039
# Poissons Ratio (z) = 0.11481 0.16039
#
# Static dielectric constant tensor:
#      x y z
#    x 2.025310 0.000000 0.000000 
#    y 0.000000 2.019560 0.000000 
#    z 0.000000 0.000000 2.019560 
# 
# From -- ./inp_files/58582.got.cif
#   From: 2010.05.17/outbox.cif.g08.bks.cpg/sg70_30_cif.got.tgz:58582.got - 2010.06.03 15:57:51.
