data_PCOD9517322
_publ_section_title
;
Structure prediction by ZEFSAII (Michael W. Deem and Ramdas Pophale) SiO2 
 PCOD9517322
Probable space group: I M M M
;
_chemical_formula_sum "Si O2"
_cell_formula_units_Z 80
_cell_length_a 20.095786
_cell_length_b 7.711728
_cell_length_c 34.453568
_cell_angle_alpha 90.000000
_cell_angle_beta 90.000000
_cell_angle_gamma 90.000000
_cell_volume 5339.380910
_symmetry_space_group_name_H-M "I M M M"
_symmetry_group_IT_number 71
_symmetry_cell_setting 'orthorhombic'
loop_
_space_group_symop_operation_xyz
x,y,z
-x,-y,z
x,-y,-z
-x,y,-z
-x,-y,-z
x,y,-z
-x,y,z
x,-y,z
1/2+x,1/2+y,1/2+z
1/2-x,1/2-y,1/2+z
1/2+x,1/2-y,1/2-z
1/2-x,1/2+y,1/2-z
1/2-x,1/2-y,1/2-z
1/2+x,1/2+y,1/2-z
1/2-x,1/2+y,1/2+z
1/2+x,1/2-y,1/2+z
loop_
_atom_site_type_symbol
_atom_site_label
_atom_site_fract_x
_atom_site_fract_y
_atom_site_fract_z
Si Si1 0.000000 0.211479 0.335722
Si Si2 0.575427 0.791845 0.956334
Si Si3 0.354147 0.707406 0.734106
Si Si4 0.134142 0.792179 0.377342
Si Si5 0.000000 0.788622 0.755006
Si Si6 0.274165 0.709074 0.189754
O O1 0.933636 0.273212 0.357046
O O2 0.000000 0.256843 0.290588
O O3 0.000000 0.000000 0.337198
O O4 0.500000 0.728643 0.946631
O O5 0.626903 0.746686 0.922661
O O6 0.572121 0.000000 0.957643
O O7 0.591373 0.730675 0.000000
O O8 0.358715 0.500000 0.738444
O O9 0.429219 0.772887 0.728331
O O10 0.320882 0.772430 0.774474
O O11 0.300988 0.743211 0.700512
O O12 0.195593 0.729387 0.351092
O O13 0.133781 0.000000 0.373946
O O14 0.000000 0.000000 0.757736
O O15 0.277260 0.500000 0.190290
#
# Coordination Sequence:
#
# PCOD9517322 Si02
#       6
#     8  16  16  16   8  16
#     4   9  14  22  36  56  75  94 128 167 197 220
#     4   9  18  30  40  53  77 104 126 155 198 237
#     4   9  16  26  40  55  73 100 131 161 193 231
#     4  10  17  26  42  58  73  98 133 168 195 225
#     4   9  14  24  41  56  72  99 135 167 194 226
#     4   9  17  27  38  55  78 100 124 160 201 232
#
# _framework density 14.983010999999999
#
# number of rings (size 3 to 8) (size 9 to 14) (size 15 to 20)
#    0.000    2.800    3.000    0.600    0.000    1.200 
#    0.000    1.500    0.000    1.200    0.000    0.000 
#    0.000    0.000    0.000    0.900    0.000   17.600 
#
# Total GULP energy -222802.287553 kJ/mol
# GULP energy per Si atom -5570.057189 kJ/mol
# Density = 1.494891 g / cm^3
# Si number density = 14.983011 Si / 1000 Ang^3
#
#
#
# Elastic Constant Matrix: (Units=GPa)
#
#
# Indices 1 2 3 4 5 6 
#
# 1 122.0359 7.1324 66.0748 0.0000 0.0000 0.0000
# 2 7.1324 20.3921 0.0338 0.0000 0.0000 0.0000
# 3 66.0748 0.0338 98.9217 0.0000 0.0000 0.0000
# 4 0.0000 0.0000 0.0000 12.3775 0.0000 0.0000
# 5 0.0000 0.0000 0.0000 0.0000 24.5558 0.0000
# 6 0.0000 0.0000 0.0000 0.0000 0.0000 12.5378
#
#
#
# Elastic Compliance Matrix: (Units=1/GPa)
#
#
# Indices 1 2 3 4 5 6 
#
# 1 0.013259 -0.004623 -0.008855 0.000000 0.000000 0.000000
# 2 -0.004623 0.050650 0.003070 0.000000 0.000000 0.000000
# 3 -0.008855 0.003070 0.016022 0.000000 0.000000 0.000000
# 4 0.000000 0.000000 0.000000 0.080792 0.000000 0.000000
# 5 0.000000 0.000000 0.000000 0.000000 0.040724 0.000000
# 6 0.000000 0.000000 0.000000 0.000000 0.000000 0.079759
#
#
# Mechanical properties :
#
#
# Convention : Reuss Voigt Hill
#
# Bulk Modulus (GPa) = 16.91542 43.09241 30.00392
# Shear Modulus (GPa) = 15.54121 21.10146 18.32133
#
# Velocity S-wave (km/s) = 3.22414 3.75688 3.50066
# Velocity P-wave (km/s) = 5.01740 6.90233 6.03393
#
# Compressibility (1/GPa) = 0.05911764
#
# Stress axis : x y z
#
# Youngs Moduli (GPa) = 75.42239 19.74323 62.41278
#
# Poissons Ratio (x) = 0.09127 0.55264
# Poissons Ratio (y) = 0.34865 -0.19163
# Poissons Ratio (z) = 0.66783 -0.06062
#
# Static dielectric constant tensor:
#      x y z
#    x 1.509980 0.000000 0.000000 
#    y 0.000000 1.562930 0.000000 
#    z 0.000000 0.000000 1.504130 
# 
# From -- ./inp_files/11301.got.cif
#   From: 2010.05.17/outbox.cif.g08.bks.cpg/sg71_6_cif.got.tgz:11301.got - 2010.06.03 16:22:01.
