data_PCOD9517104
_publ_section_title
;
Structure prediction by ZEFSAII (Michael W. Deem and Ramdas Pophale) SiO2 
 PCOD9517104
Probable space group: F D D D
;
_chemical_formula_sum "Si O2"
_cell_formula_units_Z 80
_cell_length_a 10.385416
_cell_length_b 11.352531
_cell_length_c 27.980508
_cell_angle_alpha 90.000000
_cell_angle_beta 90.000000
_cell_angle_gamma 90.000000
_cell_volume 3298.923077
_symmetry_space_group_name_H-M "F D D D"
_symmetry_group_IT_number 70
_space_group.IT_coordinate_system_code '2'
_symmetry_cell_setting 'orthorhombic'
loop_
_space_group_symop_operation_xyz
x,y,z
1/4-x,1/4-y,z
x,1/4-y,1/4-z
1/4-x,y,1/4-z
-x,-y,-z
3/4+x,3/4+y,-z
-x,3/4+y,3/4+z
3/4+x,-y,3/4+z
x,1/2+y,1/2+z
1/4-x,3/4-y,1/2+z
x,3/4-y,3/4-z
1/4-x,1/2+y,3/4-z
-x,1/2-y,1/2-z
3/4+x,1/4+y,1/2-z
-x,1/4+y,1/4+z
3/4+x,1/2-y,1/4+z
1/2+x,y,1/2+z
3/4-x,1/4-y,1/2+z
1/2+x,1/4-y,3/4-z
3/4-x,y,3/4-z
1/2-x,-y,1/2-z
1/4+x,3/4+y,1/2-z
1/2-x,3/4+y,1/4+z
1/4+x,-y,1/4+z
1/2+x,1/2+y,z
3/4-x,3/4-y,z
1/2+x,3/4-y,1/4-z
3/4-x,1/2+y,1/4-z
1/2-x,1/2-y,-z
1/4+x,1/4+y,-z
1/2-x,1/4+y,3/4+z
1/4+x,1/2-y,3/4+z
loop_
_atom_site_type_symbol
_atom_site_label
_atom_site_fract_x
_atom_site_fract_y
_atom_site_fract_z
Si Si1 0.742318 0.304736 0.052938
Si Si2 0.538625 0.741540 0.194336
Si Si3 0.836114 0.625000 0.625000
O O1 0.875000 0.375000 0.058783
O O2 0.623805 0.391852 0.063240
O O3 0.751305 0.198869 0.089172
O O4 0.750000 0.250000 0.000000
O O5 0.625000 0.625000 0.189264
O O6 0.500000 0.750000 0.250000
O O7 0.423906 0.714353 0.157270
#
# Coordination Sequence:
#
# PCOD9517104 Si02
#       3
#    32  32  16
#     4  12  26  52  77 118 162 213 285 336 413 496
#     4  12  25  51  81 111 166 215 271 346 415 485
#     4  12  27  50  85 118 162 223 270 341 418 496
#
# _framework density 24.250336999999998
#
# number of rings (size 3 to 8) (size 9 to 14) (size 15 to 20)
#    0.000    0.000    8.000    0.600    0.000    1.600 
#   14.400    0.000    0.000    0.000    0.000    0.000 
#    0.000    0.000    0.000    0.000    0.000    0.000 
#
# Total GULP energy -112240.529189 kJ/mol
# GULP energy per Si atom -5612.026459 kJ/mol
# Density = 2.419514 g / cm^3
# Si number density = 24.250337 Si / 1000 Ang^3
#
#
#
# Elastic Constant Matrix: (Units=GPa)
#
#
# Indices 1 2 3 4 5 6 
#
# 1 120.3016 98.0014 78.4518 0.0000 0.0000 0.0000
# 2 98.0014 201.0437 117.0123 0.0000 0.0000 0.0000
# 3 78.4518 117.0123 226.2660 0.0000 0.0000 0.0000
# 4 0.0000 0.0000 0.0000 64.4049 0.0000 0.0000
# 5 0.0000 0.0000 0.0000 0.0000 40.2703 0.0000
# 6 0.0000 0.0000 0.0000 0.0000 0.0000 70.0343
#
#
#
# Elastic Compliance Matrix: (Units=1/GPa)
#
#
# Indices 1 2 3 4 5 6 
#
# 1 0.014362 -0.005869 -0.001944 0.000000 0.000000 0.000000
# 2 -0.005869 0.009514 -0.002885 0.000000 0.000000 0.000000
# 3 -0.001944 -0.002885 0.006586 0.000000 0.000000 0.000000
# 4 0.000000 0.000000 0.000000 0.015527 0.000000 0.000000
# 5 0.000000 0.000000 0.000000 0.000000 0.024832 0.000000
# 6 0.000000 0.000000 0.000000 0.000000 0.000000 0.014279
#
#
# Mechanical properties :
#
#
# Convention : Reuss Voigt Hill
#
# Bulk Modulus (GPa) = 110.32357 126.06025 118.19191
# Shear Modulus (GPa) = 45.65448 51.88496 48.76972
#
# Velocity S-wave (km/s) = 4.34364 4.63055 4.48939
# Velocity P-wave (km/s) = 8.41122 8.98249 8.70154
#
# Compressibility (1/GPa) = 0.00906425
#
# Stress axis : x y z
#
# Youngs Moduli (GPa) = 69.63056 105.10449 151.84050
#
# Poissons Ratio (x) = 0.61687 0.29523
# Poissons Ratio (y) = 0.40867 0.43811
# Poissons Ratio (z) = 0.13538 0.30326
#
# Static dielectric constant tensor:
#      x y z
#    x 1.962780 0.000000 0.000000 
#    y 0.000000 1.912910 0.000000 
#    z 0.000000 0.000000 1.971390 
# 
# From -- ./inp_files/13823.got.cif
#   From: 2010.05.17/outbox.cif.g08.bks.cpg/sg70_7_cif.got.tgz:13823.got - 2010.06.03 15:57:51.
