data_PCOD9517817
_publ_section_title
;
Structure prediction by ZEFSAII (Michael W. Deem and Ramdas Pophale) SiO2 
 PCOD9517817
Probable space group: I M M M
;
_chemical_formula_sum "Si O2"
_cell_formula_units_Z 104
_cell_length_a 27.848936
_cell_length_b 7.405712
_cell_length_c 22.984428
_cell_angle_alpha 90.000000
_cell_angle_beta 90.000000
_cell_angle_gamma 90.000000
_cell_volume 4740.336001
_symmetry_space_group_name_H-M "I M M M"
_symmetry_group_IT_number 71
_symmetry_cell_setting 'orthorhombic'
loop_
_space_group_symop_operation_xyz
x,y,z
-x,-y,z
x,-y,-z
-x,y,-z
-x,-y,-z
x,y,-z
-x,y,z
x,-y,z
1/2+x,1/2+y,1/2+z
1/2-x,1/2-y,1/2+z
1/2+x,1/2-y,1/2-z
1/2-x,1/2+y,1/2-z
1/2-x,1/2-y,1/2-z
1/2+x,1/2+y,1/2-z
1/2-x,1/2+y,1/2+z
1/2+x,1/2-y,1/2+z
loop_
_atom_site_type_symbol
_atom_site_label
_atom_site_fract_x
_atom_site_fract_y
_atom_site_fract_z
Si Si1 0.312899 0.785354 0.309288
Si Si2 0.652628 0.279761 0.937494
Si Si3 0.296285 0.282383 0.179739
Si Si4 0.442287 0.707125 0.760263
Si Si5 0.906686 0.703116 0.863331
Si Si6 0.000000 0.720509 0.068191
Si Si7 0.054063 0.779511 0.389848
O O1 0.322783 0.761997 0.240303
O O2 0.258772 0.715434 0.317387
O O3 0.354007 0.712375 0.352519
O O4 0.311861 0.000000 0.319580
O O5 0.654232 0.500000 0.936457
O O6 0.679281 0.218042 0.879407
O O7 0.596829 0.227609 0.931871
O O8 0.672334 0.221621 0.000000
O O9 0.295061 0.500000 0.177799
O O10 0.500000 0.702890 0.758101
O O11 0.424659 0.500000 0.756386
O O12 0.424948 0.806047 0.703181
O O13 0.431497 0.778269 0.824500
O O14 0.899812 0.500000 0.886825
O O15 0.950896 0.784168 0.900102
O O16 0.000000 0.500000 0.073765
O O17 0.000000 0.765332 0.000000
O O18 0.000000 0.719720 0.403545
O O19 0.052580 0.000000 0.387961
#
# Coordination Sequence:
#
# PCOD9517817 Si02
#       7
#    16  16  16  16  16   8  16
#     4   9  18  30  47  71  93 113 146 193 234 269
#     4   9  16  25  39  59  84 117 151 179 212 256
#     4   9  17  31  48  67  93 121 148 183 231 278
#     4   9  16  26  42  65  91 117 145 178 218 263
#     4  10  18  29  46  67  89 115 150 187 222 266
#     4   9  18  32  47  63  89 125 156 183 226 284
#     4   8  14  23  35  56  86 115 144 177 211 252
#
# _framework density 21.939371999999999
#
# number of rings (size 3 to 8) (size 9 to 14) (size 15 to 20)
#    0.000    3.000    0.769    1.846    0.000    2.154 
#    0.000    2.308    0.000    6.000    0.000    0.000 
#    0.000    3.692    0.000   13.231    0.000   10.769 
#
# Total GULP energy -289981.871397 kJ/mol
# GULP energy per Si atom -5576.574450 kJ/mol
# Density = 2.188944 g / cm^3
# Si number density = 21.939372 Si / 1000 Ang^3
#
#
#
# Elastic Constant Matrix: (Units=GPa)
#
#
# Indices 1 2 3 4 5 6 
#
# 1 128.4214 1.8471 78.2866 0.0000 0.0000 0.0000
# 2 1.8471 72.8975 -2.0343 0.0000 0.0000 0.0000
# 3 78.2866 -2.0343 120.7848 0.0000 0.0000 0.0000
# 4 0.0000 0.0000 0.0000 12.1795 0.0000 0.0000
# 5 0.0000 0.0000 0.0000 0.0000 24.8834 0.0000
# 6 0.0000 0.0000 0.0000 0.0000 0.0000 -0.6463
#
#
#
# Elastic Compliance Matrix: (Units=1/GPa)
#
#
# Indices 1 2 3 4 5 6 
#
# 1 0.012896 -0.000560 -0.008368 0.000000 0.000000 0.000000
# 2 -0.000560 0.013749 0.000595 0.000000 0.000000 0.000000
# 3 -0.008368 0.000595 0.013713 0.000000 0.000000 0.000000
# 4 0.000000 0.000000 0.000000 0.082105 0.000000 0.000000
# 5 0.000000 0.000000 0.000000 0.000000 0.040188 0.000000
# 6 0.000000 0.000000 0.000000 0.000000 0.000000 -1.547251
#
#
# Mechanical properties :
#
#
# Convention : Reuss Voigt Hill
#
# Bulk Modulus (GPa) = 42.21098 53.14471 47.67785
# Shear Modulus (GPa) = -3.67637 23.55027 9.93695
#
# Velocity S-wave (km/s) = -1.29589 3.27987 2.13052
# Velocity P-wave (km/s) = 4.12825 6.21445 5.27551
#
# Compressibility (1/GPa) = 0.02369052
#
# Stress axis : x y z
#
# Youngs Moduli (GPa) = 77.54248 72.73419 72.92372
#
# Poissons Ratio (x) = 0.04075 0.61023
# Poissons Ratio (y) = 0.04345 -0.04337
# Poissons Ratio (z) = 0.64888 -0.04326
#
# Static dielectric constant tensor:
#      x y z
#    x 1.848730 0.000000 0.000000 
#    y 0.000000 1.884640 0.000000 
#    z 0.000000 0.000000 1.757480 
# 
# From -- ./inp_files/56661.got.cif
#   From: 2010.05.17/outbox.cif.g08.bks.cpg/sg71_29_cif.got.tgz:56661.got - 2010.06.03 16:22:01.
