data_PCOD9517181
_publ_section_title
;
Structure prediction by ZEFSAII (Michael W. Deem and Ramdas Pophale) SiO2 
 PCOD9517181
Probable space group: F D D D
;
_chemical_formula_sum "Si O2"
_cell_formula_units_Z 54
_cell_length_a 15.000000
_cell_length_b 27.000000
_cell_length_c 27.000000
_cell_angle_alpha 90.000000
_cell_angle_beta 90.000000
_cell_angle_gamma 90.000000
_cell_volume 10935.000000
_symmetry_space_group_name_H-M "F D D D"
_symmetry_group_IT_number 70
_space_group.IT_coordinate_system_code '2'
_symmetry_cell_setting 'orthorhombic'
loop_
_space_group_symop_operation_xyz
x,y,z
1/4-x,1/4-y,z
x,1/4-y,1/4-z
1/4-x,y,1/4-z
-x,-y,-z
3/4+x,3/4+y,-z
-x,3/4+y,3/4+z
3/4+x,-y,3/4+z
x,1/2+y,1/2+z
1/4-x,3/4-y,1/2+z
x,3/4-y,3/4-z
1/4-x,1/2+y,3/4-z
-x,1/2-y,1/2-z
3/4+x,1/4+y,1/2-z
-x,1/4+y,1/4+z
3/4+x,1/2-y,1/4+z
1/2+x,y,1/2+z
3/4-x,1/4-y,1/2+z
1/2+x,1/4-y,3/4-z
3/4-x,y,3/4-z
1/2-x,-y,1/2-z
1/4+x,3/4+y,1/2-z
1/2-x,3/4+y,1/4+z
1/4+x,-y,1/4+z
1/2+x,1/2+y,z
3/4-x,3/4-y,z
1/2+x,3/4-y,1/4-z
3/4-x,1/2+y,1/4-z
1/2-x,1/2-y,-z
1/4+x,1/4+y,-z
1/2-x,1/4+y,3/4+z
1/4+x,1/2-y,3/4+z
loop_
_atom_site_type_symbol
_atom_site_label
_atom_site_fract_x
_atom_site_fract_y
_atom_site_fract_z
Si Si1 0.858510 0.140013 0.741273
Si Si2 0.119131 0.068478 0.371205
Si Si3 0.685629 0.785692 0.672820
Si Si4 0.725733 0.815875 0.315828
Si Si5 0.125000 0.247977 0.125000
Si Si6 0.925957 0.213131 0.102179
Si Si7 0.875000 0.875000 0.375000
Si Si8 0.518048 0.953662 0.537812
O O1 0.863223 0.178265 0.787719
O O2 0.941788 0.105011 0.725229
O O3 0.835949 0.175086 0.693714
O O4 0.789418 0.096441 0.757352
O O5 0.125000 0.125000 0.390794
O O6 0.185640 0.058781 0.324444
O O7 0.019274 0.063943 0.351039
O O8 0.142704 0.020570 0.405785
O O9 0.625000 0.771654 0.625000
O O10 0.732447 0.737617 0.698498
O O11 0.640360 0.805580 0.352993
O O12 0.807442 0.841698 0.343664
O O13 0.217932 0.217796 0.134680
O O14 0.152011 0.280399 0.076114
O O15 0.500000 0.000000 0.500000
#
# Coordination Sequence:
#
# PCOD9517181 Si02
#       8
#    32  32  32  32  16  32   8  32
#     4  12  24  42  74 103 143 180 252 297 354 437
#     4  10  21  44  64  98 144 193 226 291 378 426
#     4  11  25  44  72 102 141 189 241 297 363 431
#     4  11  24  48  71 104 141 191 236 305 360 434
#     4  10  24  42  68 102 156 189 223 304 372 440
#     4  10  23  43  70 106 142 183 249 290 360 446
#     4  12  20  48  78  86 140 194 224 288 392 384
#     4  11  24  41  68 104 146 191 237 290 371 447
#
# _framework density 4.9382720000000004
#
# number of rings (size 3 to 8) (size 9 to 14) (size 15 to 20)
#    0.000    1.185    3.704    2.667    5.185    0.000 
#    2.667    9.630    0.000    0.000    0.000    0.000 
#    0.000    0.000    0.000    0.000    0.000    0.000 
#
# Total GULP energy -301202.919001 kJ/mol
# GULP energy per Si atom -5577.831833 kJ/mol
# Density = 0.492703 g / cm^3
# Si number density = 4.938272 Si / 1000 Ang^3
#
#
#
# Elastic Constant Matrix: (Units=GPa)
#
#
# Indices 1 2 3 4 5 6 
#
# 1 116.9744 24.5115 24.6985 0.0000 0.0000 0.0000
# 2 24.5115 166.0289 51.9346 0.0000 0.0000 0.0000
# 3 24.6985 51.9346 84.4915 0.0000 0.0000 0.0000
# 4 0.0000 0.0000 0.0000 48.3410 0.0000 0.0000
# 5 0.0000 0.0000 0.0000 0.0000 33.2106 0.0000
# 6 0.0000 0.0000 0.0000 0.0000 0.0000 34.1145
#
#
#
# Elastic Compliance Matrix: (Units=1/GPa)
#
#
# Indices 1 2 3 4 5 6 
#
# 1 0.009165 -0.000638 -0.002287 0.000000 0.000000 0.000000
# 2 -0.000638 0.007501 -0.004424 0.000000 0.000000 0.000000
# 3 -0.002287 -0.004424 0.015224 0.000000 0.000000 0.000000
# 4 0.000000 0.000000 0.000000 0.020686 0.000000 0.000000
# 5 0.000000 0.000000 0.000000 0.000000 0.030111 0.000000
# 6 0.000000 0.000000 0.000000 0.000000 0.000000 0.029313
#
#
# Mechanical properties :
#
#
# Convention : Reuss Voigt Hill
#
# Bulk Modulus (GPa) = 58.16773 63.30933 60.73853
# Shear Modulus (GPa) = 37.75588 40.88989 39.32289
#
# Velocity S-wave (km/s) = 4.37669 4.55472 4.46659
# Velocity P-wave (km/s) = 7.41970 7.73179 7.57735
#
# Compressibility (1/GPa) = 0.01719166
#
# Stress axis : x y z
#
# Youngs Moduli (GPa) = 109.10539 133.31303 65.68725
#
# Poissons Ratio (x) = 0.08501 0.15025
# Poissons Ratio (y) = 0.06957 0.29062
# Poissons Ratio (z) = 0.24956 0.58982
#
# Static dielectric constant tensor:
#      x y z
#    x 1.703620 0.000000 0.000000 
#    y 0.000000 1.740350 0.000000 
#    z 0.000000 0.000000 1.711500 
# 
# From -- ./inp_files/58791.got.cif
#   From: 2010.05.17/outbox.ucp.g08.bks.cvg/sg70_30_cif.got.tgz:58791.got - 2010.06.11 16:26:41.
