data_PCOD9517725
_publ_section_title
;
Structure prediction by ZEFSAII (Michael W. Deem and Ramdas Pophale) SiO2 
 PCOD9517725
Probable space group: I M M M
;
_chemical_formula_sum "Si O2"
_cell_formula_units_Z 72
_cell_length_a 29.609877
_cell_length_b 10.090220
_cell_length_c 13.791259
_cell_angle_alpha 90.000000
_cell_angle_beta 90.000000
_cell_angle_gamma 90.000000
_cell_volume 4120.416839
_symmetry_space_group_name_H-M "I M M M"
_symmetry_group_IT_number 71
_symmetry_cell_setting 'orthorhombic'
loop_
_space_group_symop_operation_xyz
x,y,z
-x,-y,z
x,-y,-z
-x,y,-z
-x,-y,-z
x,y,-z
-x,y,z
x,-y,z
1/2+x,1/2+y,1/2+z
1/2-x,1/2-y,1/2+z
1/2+x,1/2-y,1/2-z
1/2-x,1/2+y,1/2-z
1/2-x,1/2-y,1/2-z
1/2+x,1/2+y,1/2-z
1/2-x,1/2+y,1/2+z
1/2+x,1/2-y,1/2+z
loop_
_atom_site_type_symbol
_atom_site_label
_atom_site_fract_x
_atom_site_fract_y
_atom_site_fract_z
Si Si1 0.221055 0.500000 0.117504
Si Si2 0.319823 0.500000 0.617952
Si Si3 0.619497 0.000000 0.701450
Si Si4 0.172526 0.500000 0.384216
Si Si5 0.050695 0.708020 0.116910
Si Si6 0.252390 0.785114 0.882717
Si Si7 0.922508 0.000000 0.882391
O O1 0.169288 0.500000 0.153176
O O2 0.246332 0.365734 0.150035
O O3 0.220065 0.500000 0.000000
O O4 0.321213 0.500000 0.500000
O O5 0.291363 0.370867 0.646330
O O6 0.370837 0.500000 0.652650
O O7 0.590080 0.124780 0.666569
O O8 0.629261 0.000000 0.815956
O O9 0.164455 0.500000 0.500000
O O10 0.203401 0.628618 0.359037
O O11 0.054627 0.862266 0.145055
O O12 0.000000 0.660666 0.139578
O O13 0.056475 0.697465 0.000000
O O14 0.252074 0.782189 0.000000
O O15 0.922186 0.000000 0.000000
#
# Coordination Sequence:
#
# PCOD9517725 Si02
#       7
#     8   8   8   8  16  16   8
#     4  10  18  28  46  75 103 125 156 198 244 295
#     4   8  12  21  40  64  90 124 161 187 211 256
#     4  12  22  31  50  74  99 130 165 209 250 286
#     4   9  20  38  52  64  89 131 176 211 248 290
#     4  10  20  34  51  74 105 134 157 187 237 301
#     4   8  15  29  47  65  93 129 159 195 240 281
#     4   9  16  28  49  74 102 137 165 181 212 279
#
# _framework density 17.473960000000002
#
# number of rings (size 3 to 8) (size 9 to 14) (size 15 to 20)
#    0.000    2.667    0.000    4.333    0.000    6.667 
#    0.000    1.111    0.000    1.333    0.000    0.000 
#    0.000    1.778    0.000    0.000    0.000    0.000 
#
# Total GULP energy -200831.346812 kJ/mol
# GULP energy per Si atom -5578.648523 kJ/mol
# Density = 1.743419 g / cm^3
# Si number density = 17.473960 Si / 1000 Ang^3
#
#
#
# Elastic Constant Matrix: (Units=GPa)
#
#
# Indices 1 2 3 4 5 6 
#
# 1 99.0547 55.3547 36.9990 0.0000 0.0000 0.0000
# 2 55.3547 154.0669 21.8015 0.0000 0.0000 0.0000
# 3 36.9990 21.8015 70.5476 0.0000 0.0000 0.0000
# 4 0.0000 0.0000 0.0000 -13.0777 0.0000 0.0000
# 5 0.0000 0.0000 0.0000 0.0000 23.5892 0.0000
# 6 0.0000 0.0000 0.0000 0.0000 0.0000 53.4662
#
#
#
# Elastic Compliance Matrix: (Units=1/GPa)
#
#
# Indices 1 2 3 4 5 6 
#
# 1 0.015025 -0.004479 -0.006496 0.000000 0.000000 0.000000
# 2 -0.004479 0.008123 -0.000161 0.000000 0.000000 0.000000
# 3 -0.006496 -0.000161 0.017631 0.000000 0.000000 0.000000
# 4 0.000000 0.000000 0.000000 -0.076466 0.000000 0.000000
# 5 0.000000 0.000000 0.000000 0.000000 0.042392 0.000000
# 6 0.000000 0.000000 0.000000 0.000000 0.000000 0.018703
#
#
# Mechanical properties :
#
#
# Convention : Reuss Voigt Hill
#
# Bulk Modulus (GPa) = 54.03316 61.33107 57.68211
# Shear Modulus (GPa) = 92.85236 26.76314 59.80775
#
# Velocity S-wave (km/s) = 7.29746 3.91781 5.85671
# Velocity P-wave (km/s) = 10.09916 7.45925 8.87788
#
# Compressibility (1/GPa) = 0.01850716
#
# Stress axis : x y z
#
# Youngs Moduli (GPa) = 66.55709 123.11075 56.71742
#
# Poissons Ratio (x) = 0.55142 0.36841
# Poissons Ratio (y) = 0.29811 0.00914
# Poissons Ratio (z) = 0.43233 0.01984
#
# Static dielectric constant tensor:
#      x y z
#    x 1.564540 0.000000 0.000000 
#    y 0.000000 1.635730 0.000000 
#    z 0.000000 0.000000 1.605850 
# 
# From -- ./inp_files/40749.got.cif
#   From: 2010.05.17/outbox.cif.g08.bks.cpg/sg71_21_cif.got.tgz:40749.got - 2010.06.03 16:22:01.
