data_PCOD9517428
_publ_section_title
;
Structure prediction by ZEFSAII (Michael W. Deem and Ramdas Pophale) SiO2 
 PCOD9517428
Probable space group: I M M M
;
_chemical_formula_sum "Si O2"
_cell_formula_units_Z 80
_cell_length_a 24.410848
_cell_length_b 27.049856
_cell_length_c 8.575535
_cell_angle_alpha 90.000000
_cell_angle_beta 90.000000
_cell_angle_gamma 90.000000
_cell_volume 5662.510858
_symmetry_space_group_name_H-M "I M M M"
_symmetry_group_IT_number 71
_symmetry_cell_setting 'orthorhombic'
loop_
_space_group_symop_operation_xyz
x,y,z
-x,-y,z
x,-y,-z
-x,y,-z
-x,-y,-z
x,y,-z
-x,y,z
x,-y,z
1/2+x,1/2+y,1/2+z
1/2-x,1/2-y,1/2+z
1/2+x,1/2-y,1/2-z
1/2-x,1/2+y,1/2-z
1/2-x,1/2-y,1/2-z
1/2+x,1/2+y,1/2-z
1/2-x,1/2+y,1/2+z
1/2+x,1/2-y,1/2+z
loop_
_atom_site_type_symbol
_atom_site_label
_atom_site_fract_x
_atom_site_fract_y
_atom_site_fract_z
Si Si1 0.186127 0.647704 0.687317
Si Si2 0.880054 0.257181 0.812489
Si Si3 0.500000 0.899043 0.687173
Si Si4 0.387281 0.943865 0.811663
Si Si5 0.000000 0.284216 0.189557
Si Si6 0.783044 0.797729 0.685789
O O1 0.186585 0.651717 0.500000
O O2 0.148091 0.691916 0.753763
O O3 0.158738 0.595978 0.734319
O O4 0.247369 0.656880 0.750166
O O5 0.943343 0.258775 0.761972
O O6 0.844214 0.212012 0.746395
O O7 0.876959 0.256631 0.000000
O O8 0.500000 0.899649 0.500000
O O9 0.445585 0.925640 0.747901
O O10 0.500000 0.841652 0.739728
O O11 0.376125 0.000000 0.761073
O O12 0.390107 0.943296 0.000000
O O13 0.000000 0.284700 0.000000
O O14 0.781939 0.797293 0.500000
O O15 0.750000 0.750000 0.750000
#
# Coordination Sequence:
#
# PCOD9517428 Si02
#       6
#    16  16   8  16   8  16
#     4  10  18  29  44  60  77 104 138 172 211 250
#     4  10  17  29  44  60  82 107 135 168 205 246
#     4  11  20  32  45  60  80 108 146 183 219 251
#     4  10  21  34  45  59  81 109 143 182 220 254
#     4   9  18  28  42  61  84 110 137 173 210 239
#     4  10  18  28  42  61  81 102 130 167 207 249
#
# _framework density 14.128007
#
# number of rings (size 3 to 8) (size 9 to 14) (size 15 to 20)
#    0.000    2.000    2.000    6.000    0.000    2.400 
#    0.000    2.000    0.000    0.000    0.000    0.000 
#    0.000    0.000    0.000    0.900    0.000   20.600 
#
# Total GULP energy -223013.136337 kJ/mol
# GULP energy per Si atom -5575.328408 kJ/mol
# Density = 1.409585 g / cm^3
# Si number density = 14.128007 Si / 1000 Ang^3
#
#
#
# Elastic Constant Matrix: (Units=GPa)
#
#
# Indices 1 2 3 4 5 6 
#
# 1 126.9464 71.4443 32.2450 0.0000 0.0000 0.0000
# 2 71.4443 77.8089 25.7174 0.0000 0.0000 0.0000
# 3 32.2450 25.7174 53.2093 0.0000 0.0000 0.0000
# 4 0.0000 0.0000 0.0000 13.9349 0.0000 0.0000
# 5 0.0000 0.0000 0.0000 0.0000 18.2466 0.0000
# 6 0.0000 0.0000 0.0000 0.0000 0.0000 12.1456
#
#
#
# Elastic Compliance Matrix: (Units=1/GPa)
#
#
# Indices 1 2 3 4 5 6 
#
# 1 0.016756 -0.014316 -0.003235 0.000000 0.000000 0.000000
# 2 -0.014316 0.027527 -0.004629 0.000000 0.000000 0.000000
# 3 -0.003235 -0.004629 0.022991 0.000000 0.000000 0.000000
# 4 0.000000 0.000000 0.000000 0.071762 0.000000 0.000000
# 5 0.000000 0.000000 0.000000 0.000000 0.054805 0.000000
# 6 0.000000 0.000000 0.000000 0.000000 0.000000 0.082334
#
#
# Mechanical properties :
#
#
# Convention : Reuss Voigt Hill
#
# Bulk Modulus (GPa) = 43.64035 57.41978 50.53007
# Shear Modulus (GPa) = 15.23581 17.43594 16.33588
#
# Velocity S-wave (km/s) = 3.28748 3.51684 3.40409
# Velocity P-wave (km/s) = 6.73545 7.56450 7.16198
#
# Compressibility (1/GPa) = 0.02291457
#
# Stress axis : x y z
#
# Youngs Moduli (GPa) = 59.67987 36.32771 43.49478
#
# Poissons Ratio (x) = 0.52008 0.14070
# Poissons Ratio (y) = 0.85439 0.20133
# Poissons Ratio (z) = 0.19305 0.16816
#
# Static dielectric constant tensor:
#      x y z
#    x 1.487910 0.000000 0.000000 
#    y 0.000000 1.459920 0.000000 
#    z 0.000000 0.000000 1.479710 
# 
# From -- ./inp_files/13066.got.cif
#   From: 2010.05.17/outbox.cif.g08.bks.cpg/sg71_7_cif.got.tgz:13066.got - 2010.06.03 16:22:01.
