data_PCOD9517107
_publ_section_title
;
Structure prediction by ZEFSAII (Michael W. Deem and Ramdas Pophale) SiO2 
 PCOD9517107
Probable space group: F D D D
;
_chemical_formula_sum "Si O2"
_cell_formula_units_Z 112
_cell_length_a 24.324602
_cell_length_b 12.804256
_cell_length_c 14.278683
_cell_angle_alpha 90.000000
_cell_angle_beta 90.000000
_cell_angle_gamma 90.000000
_cell_volume 4447.216205
_symmetry_space_group_name_H-M "F D D D"
_symmetry_group_IT_number 70
_space_group.IT_coordinate_system_code '2'
_symmetry_cell_setting 'orthorhombic'
loop_
_space_group_symop_operation_xyz
x,y,z
1/4-x,1/4-y,z
x,1/4-y,1/4-z
1/4-x,y,1/4-z
-x,-y,-z
3/4+x,3/4+y,-z
-x,3/4+y,3/4+z
3/4+x,-y,3/4+z
x,1/2+y,1/2+z
1/4-x,3/4-y,1/2+z
x,3/4-y,3/4-z
1/4-x,1/2+y,3/4-z
-x,1/2-y,1/2-z
3/4+x,1/4+y,1/2-z
-x,1/4+y,1/4+z
3/4+x,1/2-y,1/4+z
1/2+x,y,1/2+z
3/4-x,1/4-y,1/2+z
1/2+x,1/4-y,3/4-z
3/4-x,y,3/4-z
1/2-x,-y,1/2-z
1/4+x,3/4+y,1/2-z
1/2-x,3/4+y,1/4+z
1/4+x,-y,1/4+z
1/2+x,1/2+y,z
3/4-x,3/4-y,z
1/2+x,3/4-y,1/4-z
3/4-x,1/2+y,1/4-z
1/2-x,1/2-y,-z
1/4+x,1/4+y,-z
1/2-x,1/4+y,3/4+z
1/4+x,1/2-y,3/4+z
loop_
_atom_site_type_symbol
_atom_site_label
_atom_site_fract_x
_atom_site_fract_y
_atom_site_fract_z
Si Si1 0.625000 0.125000 0.443028
Si Si2 0.433462 0.049345 0.853151
Si Si3 0.956244 0.060741 0.717658
Si Si4 0.300504 0.203531 0.052297
O O1 0.581513 0.207410 0.489261
O O2 0.664713 0.208102 0.395551
O O3 0.375000 0.996299 0.875000
O O4 0.417681 0.137350 0.775789
O O5 0.483014 0.980564 0.811434
O O6 0.456247 0.110833 0.944498
O O7 0.935784 0.125000 0.625000
O O8 0.276858 0.125000 0.125000
O O9 0.250000 0.250000 0.000000
#
# Coordination Sequence:
#
# PCOD9517107 Si02
#       4
#    16  32  32  32
#     4  12  26  43  82 103 160 196 248 321 378 453
#     4  12  27  47  77 110 152 202 256 308 382 457
#     4  12  28  49  73 115 154 202 256 314 382 457
#     4  12  26  47  76 114 150 196 256 316 382 451
#
# _framework density 25.184293
#
# number of rings (size 3 to 8) (size 9 to 14) (size 15 to 20)
#    0.000    0.000    5.714    3.429    0.000    1.714 
#    0.000    0.000    0.000    0.000    0.000    0.000 
#    0.000    0.000    0.000    0.000    0.000    0.000 
#
# Total GULP energy -156424.275859 kJ/mol
# GULP energy per Si atom -5586.581281 kJ/mol
# Density = 2.512697 g / cm^3
# Si number density = 25.184293 Si / 1000 Ang^3
#
#
#
# Elastic Constant Matrix: (Units=GPa)
#
#
# Indices 1 2 3 4 5 6 
#
# 1 181.3614 68.0129 29.0839 0.0000 0.0000 0.0000
# 2 68.0129 129.9336 57.7507 0.0000 0.0000 0.0000
# 3 29.0839 57.7507 136.9823 0.0000 0.0000 0.0000
# 4 0.0000 0.0000 0.0000 27.6040 0.0000 0.0000
# 5 0.0000 0.0000 0.0000 0.0000 18.4931 0.0000
# 6 0.0000 0.0000 0.0000 0.0000 0.0000 37.8500
#
#
#
# Elastic Compliance Matrix: (Units=1/GPa)
#
#
# Indices 1 2 3 4 5 6 
#
# 1 0.006861 -0.003623 0.000071 0.000000 0.000000 0.000000
# 2 -0.003623 0.011384 -0.004030 0.000000 0.000000 0.000000
# 3 0.000071 -0.004030 0.008984 0.000000 0.000000 0.000000
# 4 0.000000 0.000000 0.000000 0.036227 0.000000 0.000000
# 5 0.000000 0.000000 0.000000 0.000000 0.054074 0.000000
# 6 0.000000 0.000000 0.000000 0.000000 0.000000 0.026420
#
#
# Mechanical properties :
#
#
# Convention : Reuss Voigt Hill
#
# Bulk Modulus (GPa) = 82.88735 84.21915 83.55325
# Shear Modulus (GPa) = 30.64921 36.35141 33.50031
#
# Velocity S-wave (km/s) = 3.49233 3.80335 3.65116
# Velocity P-wave (km/s) = 7.01752 7.26643 7.14306
#
# Compressibility (1/GPa) = 0.01206457
#
# Stress axis : x y z
#
# Youngs Moduli (GPa) = 145.74868 87.84399 111.30527
#
# Poissons Ratio (x) = 0.31824 -0.00786
# Poissons Ratio (y) = 0.52802 0.44858
# Poissons Ratio (z) = -0.01029 0.35402
#
# Static dielectric constant tensor:
#      x y z
#    x 2.226840 0.000000 0.000000 
#    y 0.000000 2.047560 0.000000 
#    z 0.000000 0.000000 2.007760 
# 
# From -- ./inp_files/25213.got.cif
#   From: 2010.05.17/outbox.cif.g08.bks.cpg/sg70_13_cif.got.tgz:25213.got - 2010.06.03 15:57:51.
