data_PCOD9517213
_publ_section_title
;
Structure prediction by ZEFSAII (Michael W. Deem and Ramdas Pophale) SiO2 
 PCOD9517213
Probable space group: I M M M
;
_chemical_formula_sum "Si O2"
_cell_formula_units_Z 68
_cell_length_a 7.505062
_cell_length_b 17.381400
_cell_length_c 23.063288
_cell_angle_alpha 90.000000
_cell_angle_beta 90.000000
_cell_angle_gamma 90.000000
_cell_volume 3008.570971
_symmetry_space_group_name_H-M "I M M M"
_symmetry_group_IT_number 71
_symmetry_cell_setting 'orthorhombic'
loop_
_space_group_symop_operation_xyz
x,y,z
-x,-y,z
x,-y,-z
-x,y,-z
-x,-y,-z
x,y,-z
-x,y,z
x,-y,z
1/2+x,1/2+y,1/2+z
1/2-x,1/2-y,1/2+z
1/2+x,1/2-y,1/2-z
1/2-x,1/2+y,1/2-z
1/2-x,1/2-y,1/2-z
1/2+x,1/2+y,1/2-z
1/2-x,1/2+y,1/2+z
1/2+x,1/2-y,1/2+z
loop_
_atom_site_type_symbol
_atom_site_label
_atom_site_fract_x
_atom_site_fract_y
_atom_site_fract_z
Si Si1 0.296083 0.318187 0.000000
Si Si2 0.212011 0.256632 0.382966
Si Si3 0.740739 0.000000 0.500000
Si Si4 0.785391 0.086930 0.164822
Si Si5 0.787002 0.000000 0.373277
Si Si6 0.785670 0.143594 0.289344
O O1 0.215917 0.285373 0.940366
O O2 0.500000 0.289667 0.000000
O O3 0.306215 0.410512 0.000000
O O4 0.240948 0.347572 0.381546
O O5 0.283111 0.218718 0.323104
O O6 0.000000 0.241582 0.381623
O O7 0.682019 0.000000 0.567044
O O8 0.715492 0.118518 0.226794
O O9 0.000000 0.082989 0.168469
O O10 0.721723 0.000000 0.154162
O O11 0.754027 0.074150 0.334190
O O12 0.000000 0.000000 0.389207
O O13 0.000000 0.150470 0.282343
#
# Coordination Sequence:
#
# PCOD9517213 Si02
#       6
#     8  16   4  16   8  16
#     4  10  19  30  48  78 110 135 164 204 252 304
#     4  10  20  33  51  78 108 133 162 207 260 306
#     4  12  17  24  48  80 113 142 167 198 241 304
#     4  10  20  35  54  74  98 134 177 214 250 297
#     4  10  15  22  42  76 110 136 163 201 246 293
#     4   9  16  28  48  75 106 135 165 204 250 299
#
# _framework density 22.602093
#
# number of rings (size 3 to 8) (size 9 to 14) (size 15 to 20)
#    0.000    2.118    3.529    1.765    0.000    0.471 
#    0.000    1.176    0.000    3.529    0.000    3.294 
#    0.000    0.000    0.000    0.000    0.000    0.000 
#
# Total GULP energy -189594.091896 kJ/mol
# GULP energy per Si atom -5576.296820 kJ/mol
# Density = 2.255065 g / cm^3
# Si number density = 22.602093 Si / 1000 Ang^3
#
#
#
# Elastic Constant Matrix: (Units=GPa)
#
#
# Indices 1 2 3 4 5 6 
#
# 1 60.8630 -4.0309 7.4482 0.0000 0.0000 0.0000
# 2 -4.0309 170.1817 53.4302 0.0000 0.0000 0.0000
# 3 7.4482 53.4302 86.5024 0.0000 0.0000 0.0000
# 4 0.0000 0.0000 0.0000 20.4834 0.0000 0.0000
# 5 0.0000 0.0000 0.0000 0.0000 -88.3015 0.0000
# 6 0.0000 0.0000 0.0000 0.0000 0.0000 26.5853
#
#
#
# Elastic Compliance Matrix: (Units=1/GPa)
#
#
# Indices 1 2 3 4 5 6 
#
# 1 0.016756 0.001054 -0.002094 0.000000 0.000000 0.000000
# 2 0.001054 0.007356 -0.004634 0.000000 0.000000 0.000000
# 3 -0.002094 -0.004634 0.014603 0.000000 0.000000 0.000000
# 4 0.000000 0.000000 0.000000 0.048820 0.000000 0.000000
# 5 0.000000 0.000000 0.000000 0.000000 -0.011325 0.000000
# 6 0.000000 0.000000 0.000000 0.000000 0.000000 0.037615
#
#
# Mechanical properties :
#
#
# Convention : Reuss Voigt Hill
#
# Bulk Modulus (GPa) = 36.53972 47.91580 42.22776
# Shear Modulus (GPa) = 37.23106 9.13341 23.18224
#
# Velocity S-wave (km/s) = 4.06302 2.01239 3.20608
# Velocity P-wave (km/s) = 6.18163 5.16192 5.69464
#
# Compressibility (1/GPa) = 0.02736748
#
# Stress axis : x y z
#
# Youngs Moduli (GPa) = 59.67857 135.94207 68.47789
#
# Poissons Ratio (x) = -0.14333 0.14340
# Poissons Ratio (y) = -0.06292 0.31736
# Poissons Ratio (z) = 0.12497 0.63001
#
# Static dielectric constant tensor:
#      x y z
#    x 1.921090 0.000000 0.000000 
#    y 0.000000 1.816400 0.000000 
#    z 0.000000 0.000000 1.837450 
# 
# From -- ./inp_files/42092.got.cif
#   From: 2010.05.17/outbox.cif.g08.bks.cpg/sg71_22_cif.got.tgz:42092.got - 2010.06.03 16:22:01.
