data_PCOD9517517
_publ_section_title
;
Structure prediction by ZEFSAII (Michael W. Deem and Ramdas Pophale) SiO2 
 PCOD9517517
Probable space group: I M M M
;
_chemical_formula_sum "Si O2"
_cell_formula_units_Z 88
_cell_length_a 7.644422
_cell_length_b 25.134368
_cell_length_c 31.153920
_cell_angle_alpha 90.000000
_cell_angle_beta 90.000000
_cell_angle_gamma 90.000000
_cell_volume 5985.843024
_symmetry_space_group_name_H-M "I M M M"
_symmetry_group_IT_number 71
_symmetry_cell_setting 'orthorhombic'
loop_
_space_group_symop_operation_xyz
x,y,z
-x,-y,z
x,-y,-z
-x,y,-z
-x,-y,-z
x,y,-z
-x,y,z
x,-y,z
1/2+x,1/2+y,1/2+z
1/2-x,1/2-y,1/2+z
1/2+x,1/2-y,1/2-z
1/2-x,1/2+y,1/2-z
1/2-x,1/2-y,1/2-z
1/2+x,1/2+y,1/2-z
1/2-x,1/2+y,1/2+z
1/2+x,1/2-y,1/2+z
loop_
_atom_site_type_symbol
_atom_site_label
_atom_site_fract_x
_atom_site_fract_y
_atom_site_fract_z
Si Si1 0.214262 0.437559 0.500000
Si Si2 0.790498 0.180697 0.163427
Si Si3 0.792329 0.717316 0.793367
Si Si4 0.700472 0.500000 0.253717
Si Si5 0.209774 0.398768 0.591802
Si Si6 0.794323 0.115496 0.246417
Si Si7 0.286736 0.000000 0.147658
O O1 0.265169 0.500000 0.500000
O O2 0.273636 0.408526 0.543487
O O3 0.000000 0.437547 0.500000
O O4 0.727087 0.241300 0.170539
O O5 0.754496 0.154252 0.117831
O O6 0.721731 0.142744 0.202470
O O7 0.000000 0.182693 0.169214
O O8 0.750000 0.750000 0.750000
O O9 0.720202 0.658823 0.784172
O O10 0.000000 0.711161 0.797568
O O11 0.500000 0.500000 0.237429
O O12 0.781343 0.557529 0.242579
O O13 0.706161 0.500000 0.305465
O O14 0.268268 0.448104 0.621265
O O15 0.000000 0.401882 0.589898
O O16 0.000000 0.106704 0.237930
O O17 0.500000 0.000000 0.151477
#
# Coordination Sequence:
#
# PCOD9517517 Si02
#       7
#     8  16  16   8  16  16   8
#     4   9  16  28  41  53  73  97 121 154 195 232
#     4   9  17  28  40  53  71  94 120 152 190 226
#     4   9  17  28  40  53  71  94 119 151 188 222
#     4  10  18  28  39  53  77 104 122 147 191 230
#     4  10  18  27  41  56  70  93 125 159 193 228
#     4   9  17  27  39  55  74  97 122 149 184 223
#     4  10  18  25  36  56  72  90 126 162 189 223
#
# _framework density 14.701355
#
# number of rings (size 3 to 8) (size 9 to 14) (size 15 to 20)
#    0.000    2.636    2.727    1.636    0.000    4.364 
#    0.000    0.455    0.000    0.545    0.000    0.000 
#    0.000    0.000    0.000    0.000    0.000    0.909 
#
# Total GULP energy -244969.119111 kJ/mol
# GULP energy per Si atom -5567.479980 kJ/mol
# Density = 1.466789 g / cm^3
# Si number density = 14.701355 Si / 1000 Ang^3
#
#
#
# Elastic Constant Matrix: (Units=GPa)
#
#
# Indices 1 2 3 4 5 6 
#
# 1 25.3739 0.4945 -5.0636 0.0000 0.0000 0.0000
# 2 0.4945 130.1686 51.2382 0.0000 0.0000 0.0000
# 3 -5.0636 51.2382 62.3297 0.0000 0.0000 0.0000
# 4 0.0000 0.0000 0.0000 21.6350 0.0000 0.0000
# 5 0.0000 0.0000 0.0000 0.0000 9.6218 0.0000
# 6 0.0000 0.0000 0.0000 0.0000 0.0000 11.1252
#
#
#
# Elastic Compliance Matrix: (Units=1/GPa)
#
#
# Indices 1 2 3 4 5 6 
#
# 1 0.040459 -0.002140 0.005046 0.000000 0.000000 0.000000
# 2 -0.002140 0.011471 -0.009603 0.000000 0.000000 0.000000
# 3 0.005046 -0.009603 0.024348 0.000000 0.000000 0.000000
# 4 0.000000 0.000000 0.000000 0.046222 0.000000 0.000000
# 5 0.000000 0.000000 0.000000 0.000000 0.103931 0.000000
# 6 0.000000 0.000000 0.000000 0.000000 0.000000 0.089886
#
#
# Mechanical properties :
#
#
# Convention : Reuss Voigt Hill
#
# Bulk Modulus (GPa) = 15.90243 34.57893 25.24068
# Shear Modulus (GPa) = 14.25833 19.88992 17.07413
#
# Velocity S-wave (km/s) = 3.11764 3.68221 3.41163
# Velocity P-wave (km/s) = 4.87853 6.45370 5.72059
#
# Compressibility (1/GPa) = 0.06288349
#
# Stress axis : x y z
#
# Youngs Moduli (GPa) = 24.71623 87.17938 41.07109
#
# Poissons Ratio (x) = 0.18656 -0.20725
# Poissons Ratio (y) = 0.05289 0.39442
# Poissons Ratio (z) = -0.12472 0.83721
#
# Static dielectric constant tensor:
#      x y z
#    x 1.583840 0.000000 0.000000 
#    y 0.000000 1.540930 0.000000 
#    z 0.000000 0.000000 1.469860 
# 
# From -- ./inp_files/62258.got.cif
#   From: 2010.05.17/outbox.cif.g08.bks.cpg/sg71_32_cif.got.tgz:62258.got - 2010.06.03 16:22:01.
