data_PCOD9517463
_publ_section_title
;
Structure prediction by ZEFSAII (Michael W. Deem and Ramdas Pophale) SiO2 
 PCOD9517463
Probable space group: I M M M
;
_chemical_formula_sum "Si O2"
_cell_formula_units_Z 68
_cell_length_a 17.326307
_cell_length_b 7.305013
_cell_length_c 26.431803
_cell_angle_alpha 90.000000
_cell_angle_beta 90.000000
_cell_angle_gamma 90.000000
_cell_volume 3345.444175
_symmetry_space_group_name_H-M "I M M M"
_symmetry_group_IT_number 71
_symmetry_cell_setting 'orthorhombic'
loop_
_space_group_symop_operation_xyz
x,y,z
-x,-y,z
x,-y,-z
-x,y,-z
-x,-y,-z
x,y,-z
-x,y,z
x,-y,z
1/2+x,1/2+y,1/2+z
1/2-x,1/2-y,1/2+z
1/2+x,1/2-y,1/2-z
1/2-x,1/2+y,1/2-z
1/2-x,1/2-y,1/2-z
1/2+x,1/2+y,1/2-z
1/2-x,1/2+y,1/2+z
1/2+x,1/2-y,1/2+z
loop_
_atom_site_type_symbol
_atom_site_label
_atom_site_fract_x
_atom_site_fract_y
_atom_site_fract_z
Si Si1 0.802642 0.222920 0.148115
Si Si2 0.625030 0.209964 0.853374
Si Si3 0.000000 0.000000 0.612769
Si Si4 0.088008 0.222754 0.942546
Si Si5 0.413468 0.721687 0.737385
O O1 0.713643 0.275776 0.145356
O O2 0.851751 0.282571 0.099549
O O3 0.847799 0.282721 0.198551
O O4 0.803400 0.000000 0.149139
O O5 0.567399 0.340882 0.882751
O O6 0.600269 0.214227 0.794337
O O7 0.621499 0.000000 0.871304
O O8 0.000000 0.278075 0.930751
O O9 0.088366 0.000000 0.942112
O O10 0.106125 0.279232 0.000000
O O11 0.500000 0.774091 0.720567
O O12 0.411997 0.500000 0.739181
#
# Coordination Sequence:
#
# PCOD9517463 Si02
#       5
#    16  16   4  16  16
#     4   9  18  28  45  75 108 141 179 223 262 306
#     4  11  21  35  53  75 104 141 182 221 264 311
#     4  12  22  40  56  70 103 140 183 222 270 322
#     4   8  13  24  44  74 112 148 178 211 259 316
#     4  10  17  30  48  71 107 145 178 215 259 306
#
# _framework density 20.326149000000001
#
# number of rings (size 3 to 8) (size 9 to 14) (size 15 to 20)
#    0.000    2.353    2.353    2.471    0.000    2.824 
#    2.118    0.000    0.000    0.000    0.000    2.471 
#    0.000    7.529    0.000    0.235    0.000    0.000 
#
# Total GULP energy -189406.727836 kJ/mol
# GULP energy per Si atom -5570.786113 kJ/mol
# Density = 2.027989 g / cm^3
# Si number density = 20.326149 Si / 1000 Ang^3
#
#
#
# Elastic Constant Matrix: (Units=GPa)
#
#
# Indices 1 2 3 4 5 6 
#
# 1 127.9225 22.0109 6.7549 0.0000 0.0000 0.0000
# 2 22.0109 103.5863 -4.0756 0.0000 0.0000 0.0000
# 3 6.7549 -4.0756 16.5024 0.0000 0.0000 0.0000
# 4 0.0000 0.0000 0.0000 -20.8015 0.0000 0.0000
# 5 0.0000 0.0000 0.0000 0.0000-6953.4332 0.0000
# 6 0.0000 0.0000 0.0000 0.0000 0.0000 1.5817
#
#
#
# Elastic Compliance Matrix: (Units=1/GPa)
#
#
# Indices 1 2 3 4 5 6 
#
# 1 0.008355 -0.001929 -0.003896 0.000000 0.000000 0.000000
# 2 -0.001929 0.010194 0.003307 0.000000 0.000000 0.000000
# 3 -0.003896 0.003307 0.063009 0.000000 0.000000 0.000000
# 4 0.000000 0.000000 0.000000 -0.048074 0.000000 0.000000
# 5 0.000000 0.000000 0.000000 0.000000 -0.000144 0.000000
# 6 0.000000 0.000000 0.000000 0.000000 0.000000 0.632220
#
#
# Mechanical properties :
#
#
# Convention : Reuss Voigt Hill
#
# Bulk Modulus (GPa) = 13.06821 33.04351 23.05586
# Shear Modulus (GPa) = 7.18285 -1379.64251 -686.22983
#
# Velocity S-wave (km/s) = 1.88188 -26.08114 -18.39408
# Velocity P-wave (km/s) = 3.34143 29.84420 20.97035
#
# Compressibility (1/GPa) = 0.07652156
#
# Stress axis : x y z
#
# Youngs Moduli (GPa) = 119.69153 98.09974 15.87085
#
# Poissons Ratio (x) = 0.18919 0.06184
# Poissons Ratio (y) = 0.23084 -0.05248
# Poissons Ratio (z) = 0.46634 -0.32441
#
# Static dielectric constant tensor:
#      x y z
#    x 1.702430 0.000000 0.000000 
#    y 0.000000 1.987550 0.000000 
#    z 0.000000 0.000000 1.683370 
# 
# From -- ./inp_files/62998.got.cif
#   From: 2010.05.17/outbox.cif.g08.bks.cpg/sg71_32_cif.got.tgz:62998.got - 2010.06.03 16:22:01.
