data_PCOD9517661
_publ_section_title
;
Structure prediction by ZEFSAII (Michael W. Deem and Ramdas Pophale) SiO2 
 PCOD9517661
Probable space group: I M M M
;
_chemical_formula_sum "Si O2"
_cell_formula_units_Z 104
_cell_length_a 24.386814
_cell_length_b 24.124612
_cell_length_c 7.608751
_cell_angle_alpha 90.000000
_cell_angle_beta 90.000000
_cell_angle_gamma 90.000000
_cell_volume 4476.398845
_symmetry_space_group_name_H-M "I M M M"
_symmetry_group_IT_number 71
_symmetry_cell_setting 'orthorhombic'
loop_
_space_group_symop_operation_xyz
x,y,z
-x,-y,z
x,-y,-z
-x,y,-z
-x,-y,-z
x,y,-z
-x,y,z
x,-y,z
1/2+x,1/2+y,1/2+z
1/2-x,1/2-y,1/2+z
1/2+x,1/2-y,1/2-z
1/2-x,1/2+y,1/2-z
1/2-x,1/2-y,1/2-z
1/2+x,1/2+y,1/2-z
1/2-x,1/2+y,1/2+z
1/2+x,1/2-y,1/2+z
loop_
_atom_site_type_symbol
_atom_site_label
_atom_site_fract_x
_atom_site_fract_y
_atom_site_fract_z
Si Si1 0.438422 0.000000 0.785863
Si Si2 0.410948 0.319865 0.803072
Si Si3 0.742997 0.416690 0.698663
Si Si4 0.637066 0.101876 0.784723
Si Si5 0.439451 0.799215 0.785162
Si Si6 0.619316 0.560157 0.206876
Si Si7 0.204573 0.792558 0.194356
O O1 0.406323 0.944887 0.735525
O O2 0.500000 0.000000 0.721243
O O3 0.439492 0.000000 0.000000
O O4 0.437285 0.264725 0.721865
O O5 0.406061 0.381859 0.720693
O O6 0.347782 0.300204 0.814292
O O7 0.433771 0.326517 0.000000
O O8 0.744735 0.439056 0.500000
O O9 0.803509 0.419746 0.779770
O O10 0.685833 0.437262 0.779610
O O11 0.734221 0.351143 0.688554
O O12 0.610893 0.161038 0.729198
O O13 0.641819 0.104406 0.000000
O O14 0.500000 0.822411 0.741462
O O15 0.436392 0.797030 0.000000
O O16 0.601920 0.500000 0.280298
O O17 0.606258 0.560484 0.000000
O O18 0.250000 0.750000 0.250000
O O19 0.183648 0.778998 0.000000
#
# Coordination Sequence:
#
# PCOD9517661 Si02
#       7
#     8  16  16  16  16  16  16
#     4   9  16  24  34  52  83 119 147 175 222 273
#     4   9  17  30  47  66  89 120 155 191 234 282
#     4   9  18  29  43  65  91 119 152 188 224 269
#     4   9  16  25  38  60  89 118 147 184 228 268
#     4   9  16  27  45  66  88 117 155 195 232 275
#     4   9  18  31  46  65  92 123 153 186 228 282
#     4  10  18  28  43  65  93 123 153 187 230 279
#
# _framework density 23.232959999999999
#
# number of rings (size 3 to 8) (size 9 to 14) (size 15 to 20)
#    0.000    2.846    0.000    1.846    1.077    5.231 
#    0.000    0.000    0.000    0.923    0.000    3.231 
#    0.000    2.462    0.000    7.692    0.000    8.000 
#
# Total GULP energy -289728.522464 kJ/mol
# GULP energy per Si atom -5571.702355 kJ/mol
# Density = 2.318008 g / cm^3
# Si number density = 23.232960 Si / 1000 Ang^3
#
#
#
# Elastic Constant Matrix: (Units=GPa)
#
#
# Indices 1 2 3 4 5 6 
#
# 1 53.0276 1.0329 -1.5625 0.0000 0.0000 0.0000
# 2 1.0329 147.5924 2.9917 0.0000 0.0000 0.0000
# 3 -1.5625 2.9917 56.7913 0.0000 0.0000 0.0000
# 4 0.0000 0.0000 0.0000 -0.4805 0.0000 0.0000
# 5 0.0000 0.0000 0.0000 0.0000 0.3785 0.0000
# 6 0.0000 0.0000 0.0000 0.0000 0.0000 439.0644
#
#
#
# Elastic Compliance Matrix: (Units=1/GPa)
#
#
# Indices 1 2 3 4 5 6 
#
# 1 0.018876 -0.000143 0.000527 0.000000 0.000000 0.000000
# 2 -0.000143 0.006784 -0.000361 0.000000 0.000000 0.000000
# 3 0.000527 -0.000361 0.017642 0.000000 0.000000 0.000000
# 4 0.000000 0.000000 0.000000 -2.081040 0.000000 0.000000
# 5 0.000000 0.000000 0.000000 0.000000 2.641774 0.000000
# 6 0.000000 0.000000 0.000000 0.000000 0.000000 0.002278
#
#
# Mechanical properties :
#
#
# Convention : Reuss Voigt Hill
#
# Bulk Modulus (GPa) = 23.06932 29.14838 26.10885
# Shear Modulus (GPa) = 8.05519 104.78910 56.42215
#
# Velocity S-wave (km/s) = 1.86405 6.72321 4.93337
# Velocity P-wave (km/s) = 3.81890 8.53476 6.61159
#
# Compressibility (1/GPa) = 0.04334761
#
# Stress axis : x y z
#
# Youngs Moduli (GPa) = 52.97616 147.41136 56.68334
#
# Poissons Ratio (x) = 0.02105 -0.02986
# Poissons Ratio (y) = 0.00756 0.02048
# Poissons Ratio (z) = -0.02791 0.05326
#
# Static dielectric constant tensor:
#      x y z
#    x 1.915300 0.000000 0.000000 
#    y 0.000000 1.885920 0.000000 
#    z 0.000000 0.000000 2.034430 
# 
# From -- ./inp_files/15308.got.cif
#   From: 2010.05.17/outbox.cif.g08.bks.cpg/sg71_8_cif.got.tgz:15308.got - 2010.06.03 16:22:01.
