data_PCOD9517469
_publ_section_title
;
Structure prediction by ZEFSAII (Michael W. Deem and Ramdas Pophale) SiO2 
 PCOD9517469
Probable space group: I M M M
;
_chemical_formula_sum "Si O2"
_cell_formula_units_Z 128
_cell_length_a 20.427022
_cell_length_b 19.852617
_cell_length_c 20.251357
_cell_angle_alpha 90.000000
_cell_angle_beta 90.000000
_cell_angle_gamma 90.000000
_cell_volume 8212.529649
_symmetry_space_group_name_H-M "I M M M"
_symmetry_group_IT_number 71
_symmetry_cell_setting 'orthorhombic'
loop_
_space_group_symop_operation_xyz
x,y,z
-x,-y,z
x,-y,-z
-x,y,-z
-x,-y,-z
x,y,-z
-x,y,z
x,-y,z
1/2+x,1/2+y,1/2+z
1/2-x,1/2-y,1/2+z
1/2+x,1/2-y,1/2-z
1/2-x,1/2+y,1/2-z
1/2-x,1/2-y,1/2-z
1/2+x,1/2+y,1/2-z
1/2-x,1/2+y,1/2+z
1/2+x,1/2-y,1/2+z
loop_
_atom_site_type_symbol
_atom_site_label
_atom_site_fract_x
_atom_site_fract_y
_atom_site_fract_z
Si Si1 0.262956 0.075567 0.809916
Si Si2 0.632268 0.924137 0.690439
Si Si3 0.927451 0.286575 0.378868
Si Si4 0.762219 0.575390 0.922255
Si Si5 0.369559 0.075787 0.922478
Si Si6 0.072570 0.285962 0.779931
Si Si7 0.708278 0.718255 0.310636
Si Si8 0.295703 0.283177 0.922926
O O1 0.315344 0.082115 0.750317
O O2 0.305233 0.081778 0.877001
O O3 0.214031 0.137784 0.805553
O O4 0.234954 0.000000 0.806420
O O5 0.674306 0.916343 0.623628
O O6 0.582362 0.863459 0.698593
O O7 0.604882 0.000000 0.693145
O O8 0.916308 0.363671 0.401186
O O9 0.922755 0.283846 0.299604
O O10 0.868294 0.243154 0.407935
O O11 0.000000 0.264261 0.399119
O O12 0.735781 0.500000 0.908486
O O13 0.713972 0.637406 0.908405
O O14 0.778792 0.578317 0.000000
O O15 0.396205 0.000000 0.911301
O O16 0.354537 0.082504 0.000000
O O17 0.134463 0.245005 0.807353
O O18 0.000000 0.262131 0.799186
O O19 0.750000 0.750000 0.250000
O O20 0.745350 0.743574 0.376149
O O21 0.281297 0.271937 0.000000
#
# Coordination Sequence:
#
# PCOD9517469 Si02
#       8
#    16  16  16  16  16  16  16  16
#     4  10  19  30  49  77  99 127 170 212 252 295
#     4  10  17  30  51  73 100 130 165 206 250 299
#     4  11  22  34  48  70 104 141 174 209 249 298
#     4   9  18  31  50  77 102 125 161 209 261 308
#     4  10  19  31  46  68 103 140 169 200 243 295
#     4  11  22  34  51  76 104 137 173 210 255 301
#     4  12  18  34  56  73  99 134 170 215 255 295
#     4  11  20  31  53  79  99 131 172 214 253 296
#
# _framework density 15.585941
#
# number of rings (size 3 to 8) (size 9 to 14) (size 15 to 20)
#    0.000    1.500    6.250    0.375    0.000    1.500 
#    0.000    1.875    0.000    2.250    0.000    5.250 
#    0.000    0.000    0.000    4.250    0.000    0.000 
#
# Total GULP energy -356894.173854 kJ/mol
# GULP energy per Si atom -5576.471466 kJ/mol
# Density = 1.555047 g / cm^3
# Si number density = 15.585941 Si / 1000 Ang^3
#
#
#
# Elastic Constant Matrix: (Units=GPa)
#
#
# Indices 1 2 3 4 5 6 
#
# 1 92.7134 49.6538 31.0026 0.0000 0.0000 0.0000
# 2 49.6538 100.6706 28.2084 0.0000 0.0000 0.0000
# 3 31.0026 28.2084 53.6108 0.0000 0.0000 0.0000
# 4 0.0000 0.0000 0.0000 21.1932 0.0000 0.0000
# 5 0.0000 0.0000 0.0000 0.0000 12.5545 0.0000
# 6 0.0000 0.0000 0.0000 0.0000 0.0000 17.5564
#
#
#
# Elastic Compliance Matrix: (Units=1/GPa)
#
#
# Indices 1 2 3 4 5 6 
#
# 1 0.016173 -0.006282 -0.006047 0.000000 0.000000 0.000000
# 2 -0.006282 0.014092 -0.003782 0.000000 0.000000 0.000000
# 3 -0.006047 -0.003782 0.024140 0.000000 0.000000 0.000000
# 4 0.000000 0.000000 0.000000 0.047185 0.000000 0.000000
# 5 0.000000 0.000000 0.000000 0.000000 0.079653 0.000000
# 6 0.000000 0.000000 0.000000 0.000000 0.000000 0.056959
#
#
# Mechanical properties :
#
#
# Convention : Reuss Voigt Hill
#
# Bulk Modulus (GPa) = 45.08127 51.63605 48.35866
# Shear Modulus (GPa) = 17.99749 19.46947 18.73348
#
# Velocity S-wave (km/s) = 3.40181 3.53819 3.47067
# Velocity P-wave (km/s) = 6.66460 7.06354 6.86697
#
# Compressibility (1/GPa) = 0.02218216
#
# Stress axis : x y z
#
# Youngs Moduli (GPa) = 61.83300 70.96368 41.42587
#
# Poissons Ratio (x) = 0.44583 0.25049
# Poissons Ratio (y) = 0.38846 0.15665
# Poissons Ratio (z) = 0.37389 0.26835
#
# Static dielectric constant tensor:
#      x y z
#    x 1.493950 0.000000 0.000000 
#    y 0.000000 1.550010 0.000000 
#    z 0.000000 0.000000 1.528070 
# 
# From -- ./inp_files/47722.got.cif
#   From: 2010.05.17/outbox.cif.g08.bks.cpg/sg71_24_cif.got.tgz:47722.got - 2010.06.03 16:22:01.
