data_PCOD9517501
_publ_section_title
;
Structure prediction by ZEFSAII (Michael W. Deem and Ramdas Pophale) SiO2 
 PCOD9517501
Probable space group: I M M M
;
_chemical_formula_sum "Si O2"
_cell_formula_units_Z 72
_cell_length_a 18.624576
_cell_length_b 7.334514
_cell_length_c 24.035505
_cell_angle_alpha 90.000000
_cell_angle_beta 90.000000
_cell_angle_gamma 90.000000
_cell_volume 3283.303184
_symmetry_space_group_name_H-M "I M M M"
_symmetry_group_IT_number 71
_symmetry_cell_setting 'orthorhombic'
loop_
_space_group_symop_operation_xyz
x,y,z
-x,-y,z
x,-y,-z
-x,y,-z
-x,-y,-z
x,y,-z
-x,y,z
x,-y,z
1/2+x,1/2+y,1/2+z
1/2-x,1/2-y,1/2+z
1/2+x,1/2-y,1/2-z
1/2-x,1/2+y,1/2-z
1/2-x,1/2-y,1/2-z
1/2+x,1/2+y,1/2-z
1/2-x,1/2+y,1/2+z
1/2+x,1/2-y,1/2+z
loop_
_atom_site_type_symbol
_atom_site_label
_atom_site_fract_x
_atom_site_fract_y
_atom_site_fract_z
Si Si1 0.892965 0.210929 0.500000
Si Si2 0.225219 0.781010 0.000000
Si Si3 0.920261 0.777556 0.374232
Si Si4 0.726486 0.281822 0.186684
Si Si5 0.500000 0.224085 0.434891
Si Si6 0.852856 0.293792 0.887664
O O1 0.807412 0.224542 0.500000
O O2 0.915139 0.284101 0.560867
O O3 0.916061 0.000000 0.500000
O O4 0.186485 0.702852 0.053401
O O5 0.219917 0.000000 0.000000
O O6 0.850941 0.717446 0.337625
O O7 0.000000 0.726249 0.353053
O O8 0.917776 0.000000 0.375184
O O9 0.724325 0.500000 0.177752
O O10 0.750000 0.250000 0.250000
O O11 0.793779 0.206368 0.151834
O O12 0.500000 0.279454 0.500000
O O13 0.570114 0.287013 0.401867
O O14 0.500000 0.000000 0.436030
O O15 0.866117 0.500000 0.867003
#
# Coordination Sequence:
#
# PCOD9517501 Si02
#       6
#     8   8  16  16   8  16
#     4  10  17  32  57  83 109 138 175 214 262 331
#     4  12  22  30  50  83 114 144 174 217 268 321
#     4   9  17  31  56  87 109 132 173 223 268 314
#     4  10  21  37  57  77 105 143 184 226 262 310
#     4   9  16  28  56  86 106 130 172 225 262 315
#     4  10  19  36  57  78 103 142 185 220 266 320
#
# _framework density 21.929136
#
# number of rings (size 3 to 8) (size 9 to 14) (size 15 to 20)
#    0.000    2.111    3.333    1.333    0.000    2.222 
#    2.000    1.111    0.000    2.667    0.000    0.000 
#    0.000    0.000    0.000    0.000    0.000    0.000 
#
# Total GULP energy -200784.432131 kJ/mol
# GULP energy per Si atom -5577.345337 kJ/mol
# Density = 2.187922 g / cm^3
# Si number density = 21.929136 Si / 1000 Ang^3
#
#
#
# Elastic Constant Matrix: (Units=GPa)
#
#
# Indices 1 2 3 4 5 6 
#
# 1 263.2217 6.4651 99.6180 0.0000 0.0000 0.0000
# 2 6.4651 97.9208 -6.4451 0.0000 0.0000 0.0000
# 3 99.6180 -6.4451 148.8014 0.0000 0.0000 0.0000
# 4 0.0000 0.0000 0.0000 -74.2790 0.0000 0.0000
# 5 0.0000 0.0000 0.0000 0.0000 5.5284 0.0000
# 6 0.0000 0.0000 0.0000 0.0000 0.0000 -142.9520
#
#
#
# Elastic Compliance Matrix: (Units=1/GPa)
#
#
# Indices 1 2 3 4 5 6 
#
# 1 0.005119 -0.000565 -0.003452 0.000000 0.000000 0.000000
# 2 -0.000565 0.010304 0.000825 0.000000 0.000000 0.000000
# 3 -0.003452 0.000825 0.009067 0.000000 0.000000 0.000000
# 4 0.000000 0.000000 0.000000 -0.013463 0.000000 0.000000
# 5 0.000000 0.000000 0.000000 0.000000 0.180885 0.000000
# 6 0.000000 0.000000 0.000000 0.000000 0.000000 -0.006995
#
#
# Mechanical properties :
#
#
# Convention : Reuss Voigt Hill
#
# Bulk Modulus (GPa) = 55.23123 78.80223 67.01673
# Shear Modulus (GPa) = 25.33741 -14.98680 5.17531
#
# Velocity S-wave (km/s) = 3.40284 -2.61707 1.53790
# Velocity P-wave (km/s) = 6.37809 5.18468 5.81210
#
# Compressibility (1/GPa) = 0.01810570
#
# Stress axis : x y z
#
# Youngs Moduli (GPa) = 195.34043 97.05036 110.29162
#
# Poissons Ratio (x) = 0.05485 0.38069
# Poissons Ratio (y) = 0.11040 -0.09095
# Poissons Ratio (z) = 0.67425 -0.08003
#
# Static dielectric constant tensor:
#      x y z
#    x 1.833840 0.000000 0.000000 
#    y 0.000000 1.864920 0.000000 
#    z 0.000000 0.000000 1.741610 
# 
# From -- ./inp_files/12206.got.cif
#   From: 2010.05.17/outbox.cif.g08.bks.cpg/sg71_7_cif.got.tgz:12206.got - 2010.06.03 16:22:01.
