data_PCOD9517275
_publ_section_title
;
Structure prediction by ZEFSAII (Michael W. Deem and Ramdas Pophale) SiO2 
 PCOD9517275
Probable space group: I M M M
;
_chemical_formula_sum "Si O2"
_cell_formula_units_Z 72
_cell_length_a 18.441010
_cell_length_b 24.679736
_cell_length_c 7.543482
_cell_angle_alpha 90.000000
_cell_angle_beta 90.000000
_cell_angle_gamma 90.000000
_cell_volume 3433.183933
_symmetry_space_group_name_H-M "I M M M"
_symmetry_group_IT_number 71
_symmetry_cell_setting 'orthorhombic'
loop_
_space_group_symop_operation_xyz
x,y,z
-x,-y,z
x,-y,-z
-x,y,-z
-x,-y,-z
x,y,-z
-x,y,z
x,-y,z
1/2+x,1/2+y,1/2+z
1/2-x,1/2-y,1/2+z
1/2+x,1/2-y,1/2-z
1/2-x,1/2+y,1/2-z
1/2-x,1/2-y,1/2-z
1/2+x,1/2+y,1/2-z
1/2-x,1/2+y,1/2+z
1/2+x,1/2-y,1/2+z
loop_
_atom_site_type_symbol
_atom_site_label
_atom_site_fract_x
_atom_site_fract_y
_atom_site_fract_z
Si Si1 0.381304 0.500000 0.206904
Si Si2 0.580401 0.375953 0.286632
Si Si3 0.152239 0.607681 0.717316
Si Si4 0.500000 0.063617 0.216089
Si Si5 0.221444 0.500000 0.698456
Si Si6 0.773123 0.811631 0.787117
O O1 0.415443 0.559217 0.245001
O O2 0.306643 0.500000 0.311273
O O3 0.364862 0.500000 0.000000
O O4 0.581285 0.372145 0.500000
O O5 0.500000 0.356981 0.225131
O O6 0.650885 0.340523 0.223524
O O7 0.152043 0.610731 0.500000
O O8 0.070370 0.597106 0.772425
O O9 0.193892 0.554364 0.781011
O O10 0.202858 0.655730 0.779448
O O11 0.500000 0.000000 0.272804
O O12 0.500000 0.061394 0.000000
O O13 0.189211 0.500000 0.500000
O O14 0.750000 0.750000 0.750000
O O15 0.777208 0.817238 0.000000
#
# Coordination Sequence:
#
# PCOD9517275 Si02
#       6
#     8  16  16   8   8  16
#     4  12  23  33  53  88 122 144 170 222 287 338
#     4  10  21  39  62  83 107 145 189 225 264 329
#     4   9  16  28  50  77 106 138 173 217 267 321
#     4   9  14  22  44  82 114 130 156 209 270 319
#     4  10  16  30  55  78 105 145 186 217 258 328
#     4  10  21  38  57  77 104 142 187 227 265 310
#
# _framework density 20.971786000000002
#
# number of rings (size 3 to 8) (size 9 to 14) (size 15 to 20)
#    0.000    2.111    3.333    1.333    0.000    2.667 
#    2.000    0.000    0.000    0.000    0.000    3.111 
#    0.000    0.000    0.000    0.000    0.000    0.000 
#
# Total GULP energy -200424.937225 kJ/mol
# GULP energy per Si atom -5567.359367 kJ/mol
# Density = 2.092405 g / cm^3
# Si number density = 20.971786 Si / 1000 Ang^3
#
#
#
# Elastic Constant Matrix: (Units=GPa)
#
#
# Indices 1 2 3 4 5 6 
#
# 1 205.7991 117.3773 10.6096 0.0000 0.0000 0.0000
# 2 117.3773 180.9308 -1.2769 0.0000 0.0000 0.0000
# 3 10.6096 -1.2769 56.5140 0.0000 0.0000 0.0000
# 4 0.0000 0.0000 0.0000 25.0065 0.0000 0.0000
# 5 0.0000 0.0000 0.0000 0.0000 14.7567 0.0000
# 6 0.0000 0.0000 0.0000 0.0000 0.0000 7.5672
#
#
#
# Elastic Compliance Matrix: (Units=1/GPa)
#
#
# Indices 1 2 3 4 5 6 
#
# 1 0.007853 -0.005106 -0.001590 0.000000 0.000000 0.000000
# 2 -0.005106 0.008848 0.001158 0.000000 0.000000 0.000000
# 3 -0.001590 0.001158 0.018019 0.000000 0.000000 0.000000
# 4 0.000000 0.000000 0.000000 0.039990 0.000000 0.000000
# 5 0.000000 0.000000 0.000000 0.000000 0.067766 0.000000
# 6 0.000000 0.000000 0.000000 0.000000 0.000000 0.132149
#
#
# Mechanical properties :
#
#
# Convention : Reuss Voigt Hill
#
# Bulk Modulus (GPa) = 42.29074 77.40712 59.84893
# Shear Modulus (GPa) = 17.03108 30.56834 23.79971
#
# Velocity S-wave (km/s) = 2.85282 3.82199 3.37240
# Velocity P-wave (km/s) = 5.57322 7.51445 6.61543
#
# Compressibility (1/GPa) = 0.02364584
#
# Stress axis : x y z
#
# Youngs Moduli (GPa) = 127.33624 113.02529 55.49592
#
# Poissons Ratio (x) = 0.57710 0.08822
# Poissons Ratio (y) = 0.65017 -0.06429
# Poissons Ratio (z) = 0.20242 -0.13094
#
# Static dielectric constant tensor:
#      x y z
#    x 1.801420 0.000000 0.000000 
#    y 0.000000 1.680180 0.000000 
#    z 0.000000 0.000000 1.822810 
# 
# From -- ./inp_files/8016.got.cif
#   From: 2010.05.17/outbox.cif.g08.bks.cpg/sg71_5_cif.got.tgz:8016.got - 2010.06.03 16:22:01.
