data_PCOD9517183
_publ_section_title
;
Structure prediction by ZEFSAII (Michael W. Deem and Ramdas Pophale) SiO2 
 PCOD9517183
Probable space group: F D D D
;
_chemical_formula_sum "Si O2"
_cell_formula_units_Z 28
_cell_length_a 30.000000
_cell_length_b 30.000000
_cell_length_c 6.000000
_cell_angle_alpha 90.000000
_cell_angle_beta 90.000000
_cell_angle_gamma 90.000000
_cell_volume 5400.000000
_symmetry_space_group_name_H-M "F D D D"
_symmetry_group_IT_number 70
_space_group.IT_coordinate_system_code '2'
_symmetry_cell_setting 'orthorhombic'
loop_
_space_group_symop_operation_xyz
x,y,z
1/4-x,1/4-y,z
x,1/4-y,1/4-z
1/4-x,y,1/4-z
-x,-y,-z
3/4+x,3/4+y,-z
-x,3/4+y,3/4+z
3/4+x,-y,3/4+z
x,1/2+y,1/2+z
1/4-x,3/4-y,1/2+z
x,3/4-y,3/4-z
1/4-x,1/2+y,3/4-z
-x,1/2-y,1/2-z
3/4+x,1/4+y,1/2-z
-x,1/4+y,1/4+z
3/4+x,1/2-y,1/4+z
1/2+x,y,1/2+z
3/4-x,1/4-y,1/2+z
1/2+x,1/4-y,3/4-z
3/4-x,y,3/4-z
1/2-x,-y,1/2-z
1/4+x,3/4+y,1/2-z
1/2-x,3/4+y,1/4+z
1/4+x,-y,1/4+z
1/2+x,1/2+y,z
3/4-x,3/4-y,z
1/2+x,3/4-y,1/4-z
3/4-x,1/2+y,1/4-z
1/2-x,1/2-y,-z
1/4+x,1/4+y,-z
1/2-x,1/4+y,3/4+z
1/4+x,1/2-y,3/4+z
loop_
_atom_site_type_symbol
_atom_site_label
_atom_site_fract_x
_atom_site_fract_y
_atom_site_fract_z
Si Si1 0.208624 0.486763 0.414078
Si Si2 0.125000 0.750413 0.125000
Si Si3 0.742289 0.896932 0.626686
Si Si4 0.580363 0.689647 0.246127
O O1 0.250000 0.500000 0.250000
O O2 0.164257 0.475271 0.266602
O O3 0.221265 0.446024 0.579490
O O4 0.195510 0.529223 0.566184
O O5 0.152207 0.720213 0.300738
O O6 0.735211 0.875000 0.375000
O O7 0.795285 0.904207 0.660185
O O8 0.728131 0.875000 0.875000
O O9 0.625000 0.673208 0.125000
#
# Coordination Sequence:
#
# PCOD9517183 Si02
#       4
#    32  16  32  32
#     4  11  22  44  75  98 135 184 247 290 342 423
#     4  10  22  40  77 100 126 180 256 294 334 410
#     4  12  27  43  68 104 146 187 223 287 373 430
#     4  10  23  43  69 101 132 180 240 289 346 420
#
# _framework density 5.1851849999999997
#
# number of rings (size 3 to 8) (size 9 to 14) (size 15 to 20)
#    0.000    1.143    2.857    2.571    8.000    0.571 
#    0.000    0.000    9.429    0.000    0.000    0.000 
#    0.000    0.000    0.000    0.000    0.000    0.000 
#
# Total GULP energy -156249.461027 kJ/mol
# GULP energy per Si atom -5580.337894 kJ/mol
# Density = 0.517338 g / cm^3
# Si number density = 5.185185 Si / 1000 Ang^3
#
#
#
# Elastic Constant Matrix: (Units=GPa)
#
#
# Indices 1 2 3 4 5 6 
#
# 1 89.5885 15.5949 35.4965 -0.0340 0.0308 0.0062
# 2 15.5949 70.6479 37.2390 -0.0398 0.0653 0.0135
# 3 35.4965 37.2390 156.2168 -0.0117 0.0734 0.0533
# 4 -0.0340 -0.0398 -0.0117 40.2324 0.0398 0.0227
# 5 0.0308 0.0653 0.0734 0.0398 64.6463 -0.0382
# 6 0.0062 0.0135 0.0533 0.0227 -0.0382 29.2482
#
#
#
# Elastic Compliance Matrix: (Units=1/GPa)
#
#
# Indices 1 2 3 4 5 6 
#
# 1 0.012392 -0.001431 -0.002475 0.000008 -0.000002 0.000003
# 2 -0.001431 0.016354 -0.003573 0.000014 -0.000012 -0.000001
# 3 -0.002475 -0.003573 0.007815 -0.000003 -0.000004 -0.000012
# 4 0.000008 0.000014 -0.000003 0.024856 -0.000015 -0.000019
# 5 -0.000002 -0.000012 -0.000004 -0.000015 0.015469 0.000020
# 6 0.000003 -0.000001 -0.000012 -0.000019 0.000020 0.034190
#
#
# Mechanical properties :
#
#
# Convention : Reuss Voigt Hill
#
# Bulk Modulus (GPa) = 46.28883 54.79044 50.53964
# Shear Modulus (GPa) = 37.52768 42.03356 39.78062
#
# Velocity S-wave (km/s) = 4.25828 4.50668 4.38424
# Velocity P-wave (km/s) = 6.82229 7.31809 7.07453
#
# Compressibility (1/GPa) = 0.02160348
#
# Stress axis : x y z
#
# Youngs Moduli (GPa) = 80.69901 61.14661 127.95133
#
# Poissons Ratio (x) = 0.08750 0.31663
# Poissons Ratio (y) = 0.11548 0.45721
# Poissons Ratio (z) = 0.19970 0.21850
#
# Static dielectric constant tensor:
#      x y z
#    x 1.747780 0.000040 0.000060 
#    y 0.000040 1.788990 -0.000100 
#    z 0.000060 -0.000100 1.772470 
# 
# From -- ./inp_files/4044.got.cif
#   From: 2010.05.17/outbox.ucp.g08.bks.cvg/sg70_3_cif.got.tgz:4044.got - 2010.06.11 16:26:41.
