data_PCOD9517351
_publ_section_title
;
Structure prediction by ZEFSAII (Michael W. Deem and Ramdas Pophale) SiO2 
 PCOD9517351
Probable space group: I M M M
;
_chemical_formula_sum "Si O2"
_cell_formula_units_Z 104
_cell_length_a 15.880246
_cell_length_b 16.338729
_cell_length_c 26.603111
_cell_angle_alpha 90.000000
_cell_angle_beta 90.000000
_cell_angle_gamma 90.000000
_cell_volume 6902.523943
_symmetry_space_group_name_H-M "I M M M"
_symmetry_group_IT_number 71
_symmetry_cell_setting 'orthorhombic'
loop_
_space_group_symop_operation_xyz
x,y,z
-x,-y,z
x,-y,-z
-x,y,-z
-x,-y,-z
x,y,-z
-x,y,z
x,-y,z
1/2+x,1/2+y,1/2+z
1/2-x,1/2-y,1/2+z
1/2+x,1/2-y,1/2-z
1/2-x,1/2+y,1/2-z
1/2-x,1/2-y,1/2-z
1/2+x,1/2+y,1/2-z
1/2-x,1/2+y,1/2+z
1/2+x,1/2-y,1/2+z
loop_
_atom_site_type_symbol
_atom_site_label
_atom_site_fract_x
_atom_site_fract_y
_atom_site_fract_z
Si Si1 0.909008 0.098328 0.246992
Si Si2 0.690024 0.170139 0.646300
Si Si3 0.898915 0.593337 0.057471
Si Si4 0.400327 0.901327 0.254314
Si Si5 0.370309 0.596717 0.858857
Si Si6 0.250836 0.184300 0.204740
Si Si7 0.000000 0.900026 0.442126
O O1 0.901212 0.129280 0.304687
O O2 0.828325 0.126595 0.216358
O O3 0.000000 0.126043 0.226857
O O4 0.908555 0.000000 0.248459
O O5 0.637052 0.158156 0.596176
O O6 0.634536 0.138059 0.693577
O O7 0.771838 0.113426 0.640306
O O8 0.727866 0.260066 0.657058
O O9 0.874524 0.500000 0.072397
O O10 0.000000 0.595787 0.058205
O O11 0.871032 0.606027 0.000000
O O12 0.500000 0.883532 0.247952
O O13 0.338741 0.863706 0.211387
O O14 0.390259 0.000000 0.256592
O O15 0.386353 0.500000 0.857365
O O16 0.420259 0.626514 0.907943
O O17 0.250000 0.250000 0.250000
O O18 0.000000 0.871625 0.500000
O O19 0.000000 0.000000 0.444508
#
# Coordination Sequence:
#
# PCOD9517351 Si02
#       7
#    16  16  16  16  16  16   8
#     4  10  18  30  47  62  84 122 160 188 223 274
#     4  11  20  30  43  70  92 119 154 192 236 275
#     4   9  18  32  49  68  91 123 162 197 227 266
#     4  10  19  31  47  65  91 127 160 194 233 273
#     4  10  17  27  43  59  81 117 155 189 225 265
#     4  10  20  30  41  67  95 119 154 195 230 280
#     4   9  18  30  42  62  86 112 157 203 230 255
#
# _framework density 15.066953
#
# number of rings (size 3 to 8) (size 9 to 14) (size 15 to 20)
#    0.000    2.077    3.846    2.769    0.000    4.923 
#    1.385    1.538    0.000    0.000    0.000    0.000 
#    0.000    2.462    0.000   10.154    0.000    0.000 
#
# Total GULP energy -289480.694033 kJ/mol
# GULP energy per Si atom -5566.936424 kJ/mol
# Density = 1.503266 g / cm^3
# Si number density = 15.066953 Si / 1000 Ang^3
#
#
#
# Elastic Constant Matrix: (Units=GPa)
#
#
# Indices 1 2 3 4 5 6 
#
# 1 106.9453 30.8056 34.0155 0.0000 0.0000 0.0000
# 2 30.8056 39.3228 25.4006 0.0000 0.0000 0.0000
# 3 34.0155 25.4006 69.3023 0.0000 0.0000 0.0000
# 4 0.0000 0.0000 0.0000 20.2807 0.0000 0.0000
# 5 0.0000 0.0000 0.0000 0.0000 0.2357 0.0000
# 6 0.0000 0.0000 0.0000 0.0000 0.0000 11.7885
#
#
#
# Elastic Compliance Matrix: (Units=1/GPa)
#
#
# Indices 1 2 3 4 5 6 
#
# 1 0.012651 -0.007730 -0.003376 0.000000 0.000000 0.000000
# 2 -0.007730 0.038042 -0.010149 0.000000 0.000000 0.000000
# 3 -0.003376 -0.010149 0.019807 0.000000 0.000000 0.000000
# 4 0.000000 0.000000 0.000000 0.049308 0.000000 0.000000
# 5 0.000000 0.000000 0.000000 0.000000 4.242200 0.000000
# 6 0.000000 0.000000 0.000000 0.000000 0.000000 0.084828
#
#
# Mechanical properties :
#
#
# Convention : Reuss Voigt Hill
#
# Bulk Modulus (GPa) = 35.72836 44.00154 39.86495
# Shear Modulus (GPa) = 1.11144 14.81756 7.96450
#
# Velocity S-wave (km/s) = 0.85981 3.13940 2.30164
# Velocity P-wave (km/s) = 4.97496 6.51218 5.79477
#
# Compressibility (1/GPa) = 0.02798897
#
# Stress axis : x y z
#
# Youngs Moduli (GPa) = 79.04467 26.28673 50.48831
#
# Poissons Ratio (x) = 0.20320 0.17046
# Poissons Ratio (y) = 0.61101 0.51241
# Poissons Ratio (z) = 0.26688 0.26679
#
# Static dielectric constant tensor:
#      x y z
#    x 1.540890 0.000000 0.000000 
#    y 0.000000 1.552480 0.000000 
#    z 0.000000 0.000000 1.507490 
# 
# From -- ./inp_files/60072.got.cif
#   From: 2010.05.17/outbox.cif.g08.bks.cpg/sg71_31_cif.got.tgz:60072.got - 2010.06.03 16:22:01.
