data_PCOD9517729
_publ_section_title
;
Structure prediction by ZEFSAII (Michael W. Deem and Ramdas Pophale) SiO2 
 PCOD9517729
Probable space group: I M M M
;
_chemical_formula_sum "Si O2"
_cell_formula_units_Z 88
_cell_length_a 9.211647
_cell_length_b 26.972863
_cell_length_c 20.845998
_cell_angle_alpha 90.000000
_cell_angle_beta 90.000000
_cell_angle_gamma 90.000000
_cell_volume 5179.490314
_symmetry_space_group_name_H-M "I M M M"
_symmetry_group_IT_number 71
_symmetry_cell_setting 'orthorhombic'
loop_
_space_group_symop_operation_xyz
x,y,z
-x,-y,z
x,-y,-z
-x,y,-z
-x,-y,-z
x,y,-z
-x,y,z
x,-y,z
1/2+x,1/2+y,1/2+z
1/2-x,1/2-y,1/2+z
1/2+x,1/2-y,1/2-z
1/2-x,1/2+y,1/2-z
1/2-x,1/2-y,1/2-z
1/2+x,1/2+y,1/2-z
1/2-x,1/2+y,1/2+z
1/2+x,1/2-y,1/2+z
loop_
_atom_site_type_symbol
_atom_site_label
_atom_site_fract_x
_atom_site_fract_y
_atom_site_fract_z
Si Si1 0.329932 0.215588 0.358878
Si Si2 0.173876 0.057911 0.630096
Si Si3 0.674478 0.359810 0.231144
Si Si4 0.326688 0.222592 0.500000
Si Si5 0.164769 0.560415 0.000000
Si Si6 0.827071 0.834071 0.871311
Si Si7 0.672991 0.171003 0.000000
O O1 0.500000 0.207348 0.345862
O O2 0.237195 0.187370 0.306411
O O3 0.298793 0.197067 0.431776
O O4 0.305236 0.274827 0.360203
O O5 0.216872 0.092311 0.689574
O O6 0.252335 0.074253 0.564853
O O7 0.000000 0.061895 0.621219
O O8 0.207634 0.000000 0.641560
O O9 0.500000 0.356281 0.231169
O O10 0.719346 0.360099 0.305348
O O11 0.500000 0.236116 0.500000
O O12 0.231014 0.272209 0.500000
O O13 0.161037 0.500000 0.000000
O O14 0.000000 0.579255 0.000000
O O15 0.740272 0.850215 0.934352
O O16 0.000000 0.840920 0.881842
O O17 0.500000 0.169042 0.000000
#
# Coordination Sequence:
#
# PCOD9517729 Si02
#       7
#    16  16  16   8   8  16   8
#     4   9  17  29  45  64  91 124 153 186 224 261
#     4   9  18  33  50  68  92 120 151 190 231 265
#     4  10  20  31  46  68  91 119 153 185 223 272
#     4   8  16  31  45  60  88 127 160 184 222 265
#     4   9  17  30  49  70  90 118 157 194 227 266
#     4   9  18  33  48  64  91 123 150 179 222 271
#     4  10  18  28  47  71  89 112 150 189 220 258
#
# _framework density 16.990089000000001
#
# number of rings (size 3 to 8) (size 9 to 14) (size 15 to 20)
#    0.000    2.818    0.000    2.727    0.000    6.182 
#    0.000    1.818    0.000    0.000    0.000    0.636 
#    0.000    5.091    0.000    0.000    0.000    0.000 
#
# Total GULP energy -245265.679368 kJ/mol
# GULP energy per Si atom -5574.219986 kJ/mol
# Density = 1.695142 g / cm^3
# Si number density = 16.990089 Si / 1000 Ang^3
#
#
#
# Elastic Constant Matrix: (Units=GPa)
#
#
# Indices 1 2 3 4 5 6 
#
# 1 39.1362 23.0901 64.2231 0.0000 0.0000 0.0000
# 2 23.0901 38.4725 44.7256 0.0000 0.0000 0.0000
# 3 64.2231 44.7256 189.0595 0.0001 0.0000 0.0000
# 4 0.0000 0.0000 0.0001 -64.1430 0.0000 0.0000
# 5 0.0000 0.0000 0.0000 0.0000 20.4943 0.0000
# 6 0.0000 0.0000 0.0000 0.0000 0.0000 11.2476
#
#
#
# Elastic Compliance Matrix: (Units=1/GPa)
#
#
# Indices 1 2 3 4 5 6 
#
# 1 0.066296 -0.018770 -0.018080 0.000000 0.000000 0.000000
# 2 -0.018770 0.041167 -0.003363 0.000000 0.000000 0.000000
# 3 -0.018080 -0.003363 0.012227 0.000000 0.000000 0.000000
# 4 0.000000 0.000000 0.000000 -0.015590 0.000000 0.000000
# 5 0.000000 0.000000 0.000000 0.000000 0.048794 0.000000
# 6 0.000000 0.000000 0.000000 0.000000 0.000000 0.088908
#
#
# Mechanical properties :
#
#
# Convention : Reuss Voigt Hill
#
# Bulk Modulus (GPa) = 25.46876 58.97176 42.22026
# Shear Modulus (GPa) = 14.91137 2.49508 8.70323
#
# Velocity S-wave (km/s) = 2.96573 1.21315 2.26576
# Velocity P-wave (km/s) = 5.17207 6.06195 5.63460
#
# Compressibility (1/GPa) = 0.03926378
#
# Stress axis : x y z
#
# Youngs Moduli (GPa) = 15.08392 24.29129 81.78853
#
# Poissons Ratio (x) = 0.45595 1.47875
# Poissons Ratio (y) = 0.28312 0.27503
# Poissons Ratio (z) = 0.27272 0.08169
#
# Static dielectric constant tensor:
#      x y z
#    x 1.563380 0.000000 0.000000 
#    y 0.000000 1.577440 0.000000 
#    z 0.000000 0.000000 1.600390 
# 
# From -- ./inp_files/51094.got.cif
#   From: 2010.05.17/outbox.cif.g08.bks.cpg/sg71_26_cif.got.tgz:51094.got - 2010.06.03 16:22:01.
