data_PCOD9517967
_publ_section_title
;
Structure prediction by ZEFSAII (Michael W. Deem and Ramdas Pophale) SiO2 
 PCOD9517967
Probable space group: I M M M
;
_chemical_formula_sum "Si O2"
_cell_formula_units_Z 104
_cell_length_a 26.996428
_cell_length_b 16.799897
_cell_length_c 16.204083
_cell_angle_alpha 90.000000
_cell_angle_beta 90.000000
_cell_angle_gamma 90.000000
_cell_volume 7349.154591
_symmetry_space_group_name_H-M "I M M M"
_symmetry_group_IT_number 71
_symmetry_cell_setting 'orthorhombic'
loop_
_space_group_symop_operation_xyz
x,y,z
-x,-y,z
x,-y,-z
-x,y,-z
-x,-y,-z
x,y,-z
-x,y,z
x,-y,z
1/2+x,1/2+y,1/2+z
1/2-x,1/2-y,1/2+z
1/2+x,1/2-y,1/2-z
1/2-x,1/2+y,1/2-z
1/2-x,1/2-y,1/2-z
1/2+x,1/2+y,1/2-z
1/2-x,1/2+y,1/2+z
1/2+x,1/2-y,1/2+z
loop_
_atom_site_type_symbol
_atom_site_label
_atom_site_fract_x
_atom_site_fract_y
_atom_site_fract_z
Si Si1 0.558382 0.169660 0.333881
Si Si2 0.939891 0.500000 0.905574
Si Si3 0.786654 0.777032 0.595125
Si Si4 0.057479 0.773686 0.000000
Si Si5 0.733144 0.908030 0.294876
Si Si6 0.348782 0.781295 0.244334
Si Si7 0.704391 0.650617 0.645501
Si Si8 0.861506 0.911169 0.000000
O O1 0.500000 0.171294 0.313162
O O2 0.573649 0.080057 0.358246
O O3 0.565068 0.220692 0.417894
O O4 0.594172 0.201242 0.262545
O O5 0.000000 0.500000 0.910753
O O6 0.921296 0.500000 0.000000
O O7 0.799865 0.789118 0.500000
O O8 0.761889 0.855759 0.635929
O O9 0.831275 0.746776 0.653843
O O10 0.745059 0.707963 0.603011
O O11 0.095464 0.845867 0.000000
O O12 0.000000 0.799427 0.000000
O O13 0.683878 0.858111 0.271415
O O14 0.767239 0.901959 0.213089
O O15 0.724494 0.000000 0.317095
O O16 0.331145 0.710459 0.304472
O O17 0.673195 0.603004 0.579172
O O18 0.881836 0.000000 0.000000
#
# Coordination Sequence:
#
# PCOD9517967 Si02
#       8
#    16   8  16   8  16  16  16   8
#     4  10  18  30  47  66  93 125 154 185 225 273
#     4   9  16  26  42  68  93 117 151 185 218 264
#     4   9  17  31  50  64  89 122 151 189 227 275
#     4  10  20  32  46  62  91 127 152 187 229 271
#     4   9  18  30  44  68  97 118 146 186 229 271
#     4   9  18  30  47  65  87 125 155 184 225 270
#     4   9  17  31  45  63  90 121 153 182 219 271
#     4  12  20  27  47  67  88 120 158 195 218 258
#
# _framework density 14.151287
#
# number of rings (size 3 to 8) (size 9 to 14) (size 15 to 20)
#    0.000    2.538    3.077    2.308    1.077    0.462 
#    0.000    0.000    0.000    0.462    0.000    0.000 
#    0.000    1.846    0.000    4.000    0.000    0.000 
#
# Total GULP energy -289626.406629 kJ/mol
# GULP energy per Si atom -5569.738589 kJ/mol
# Density = 1.411908 g / cm^3
# Si number density = 14.151287 Si / 1000 Ang^3
#
#
#
# Elastic Constant Matrix: (Units=GPa)
#
#
# Indices 1 2 3 4 5 6 
#
# 1 67.9781 28.5911 37.5633 0.0000 0.0000 0.0000
# 2 28.5911 83.3111 26.9071 0.0000 0.0000 0.0000
# 3 37.5633 26.9071 94.9216 0.0000 0.0000 0.0000
# 4 0.0000 0.0000 0.0000 10.0316 0.0000 0.0000
# 5 0.0000 0.0000 0.0000 0.0000 16.0584 0.0000
# 6 0.0000 0.0000 0.0000 0.0000 0.0000 16.1322
#
#
#
# Elastic Compliance Matrix: (Units=1/GPa)
#
#
# Indices 1 2 3 4 5 6 
#
# 1 0.020467 -0.004852 -0.006724 0.000000 0.000000 0.000000
# 2 -0.004852 0.014363 -0.002151 0.000000 0.000000 0.000000
# 3 -0.006724 -0.002151 0.013806 0.000000 0.000000 0.000000
# 4 0.000000 0.000000 0.000000 0.099685 0.000000 0.000000
# 5 0.000000 0.000000 0.000000 0.000000 0.062273 0.000000
# 6 0.000000 0.000000 0.000000 0.000000 0.000000 0.061988
#
#
# Mechanical properties :
#
#
# Convention : Reuss Voigt Hill
#
# Bulk Modulus (GPa) = 47.21248 48.03709 47.62479
# Shear Modulus (GPa) = 16.28150 18.65439 17.46794
#
# Velocity S-wave (km/s) = 3.39563 3.63466 3.51717
# Velocity P-wave (km/s) = 6.98633 7.18564 7.08669
#
# Compressibility (1/GPa) = 0.02118084
#
# Stress axis : x y z
#
# Youngs Moduli (GPa) = 48.85925 69.62207 72.43396
#
# Poissons Ratio (x) = 0.33783 0.48704
# Poissons Ratio (y) = 0.23708 0.15583
# Poissons Ratio (z) = 0.32852 0.14978
#
# Static dielectric constant tensor:
#      x y z
#    x 1.459370 0.000000 0.000000 
#    y 0.000000 1.465600 0.000000 
#    z 0.000000 0.000000 1.454000 
# 
# From -- ./inp_files/49019.got.cif
#   From: 2010.05.17/outbox.cif.g08.bks.cpg/sg71_25_cif.got.tgz:49019.got - 2010.06.03 16:22:01.
