data_PCOD9517528
_publ_section_title
;
Structure prediction by ZEFSAII (Michael W. Deem and Ramdas Pophale) SiO2 
 PCOD9517528
Probable space group: I M M M
;
_chemical_formula_sum "Si O2"
_cell_formula_units_Z 72
_cell_length_a 24.288409
_cell_length_b 9.123638
_cell_length_c 23.214945
_cell_angle_alpha 90.000000
_cell_angle_beta 90.000000
_cell_angle_gamma 90.000000
_cell_volume 5144.400502
_symmetry_space_group_name_H-M "I M M M"
_symmetry_group_IT_number 71
_symmetry_cell_setting 'orthorhombic'
loop_
_space_group_symop_operation_xyz
x,y,z
-x,-y,z
x,-y,-z
-x,y,-z
-x,-y,-z
x,y,-z
-x,y,z
x,-y,z
1/2+x,1/2+y,1/2+z
1/2-x,1/2-y,1/2+z
1/2+x,1/2-y,1/2-z
1/2-x,1/2+y,1/2-z
1/2-x,1/2-y,1/2-z
1/2+x,1/2+y,1/2-z
1/2-x,1/2+y,1/2+z
1/2+x,1/2-y,1/2+z
loop_
_atom_site_type_symbol
_atom_site_label
_atom_site_fract_x
_atom_site_fract_y
_atom_site_fract_z
Si Si1 0.565643 0.672877 0.500000
Si Si2 0.860587 0.323176 0.093946
Si Si3 0.203303 0.168335 0.327219
Si Si4 0.330100 0.831379 0.718529
Si Si5 0.244203 0.673452 0.565493
O O1 0.580152 0.500000 0.500000
O O2 0.500000 0.686769 0.500000
O O3 0.592467 0.751369 0.444708
O O4 0.859497 0.500000 0.088168
O O5 0.864594 0.287819 0.162066
O O6 0.802472 0.256997 0.072404
O O7 0.266635 0.172758 0.303987
O O8 0.167373 0.233143 0.275205
O O9 0.204540 0.263020 0.385277
O O10 0.189850 0.000000 0.339230
O O11 0.342281 0.000000 0.733211
O O12 0.224581 0.695033 0.500000
O O13 0.253037 0.500000 0.574803
#
# Coordination Sequence:
#
# PCOD9517528 Si02
#       5
#     8  16  16  16  16
#     4  11  23  35  45  59  79 101 127 163 207 249
#     4  10  19  30  45  59  72  94 126 163 200 237
#     4   9  16  24  36  54  74  98 125 156 189 223
#     4   8  15  26  38  54  73  93 119 154 194 231
#     4  10  18  26  38  55  77 104 131 160 195 232
#
# _framework density 13.995799999999999
#
# number of rings (size 3 to 8) (size 9 to 14) (size 15 to 20)
#    0.000    2.556    1.111    3.667    0.000    8.444 
#    0.000    0.000    0.000    0.000    0.000    0.000 
#    0.000    0.000    0.000    0.000    0.000    1.111 
#
# Total GULP energy -200482.225749 kJ/mol
# GULP energy per Si atom -5568.950715 kJ/mol
# Density = 1.396394 g / cm^3
# Si number density = 13.995800 Si / 1000 Ang^3
#
#
#
# Elastic Constant Matrix: (Units=GPa)
#
#
# Indices 1 2 3 4 5 6 
#
# 1 24.5109 22.9715 32.6097 0.0000 0.0000 0.0000
# 2 22.9715 96.3173 78.0627 0.0000 0.0000 0.0000
# 3 32.6097 78.0627 125.4491 0.0000 0.0000 0.0000
# 4 0.0000 0.0000 0.0000 27.2405 0.0000 0.0000
# 5 0.0000 0.0000 0.0000 0.0000 10.4009 0.0000
# 6 0.0000 0.0000 0.0000 0.0000 0.0000 11.1920
#
#
#
# Elastic Compliance Matrix: (Units=1/GPa)
#
#
# Indices 1 2 3 4 5 6 
#
# 1 0.062957 -0.003534 -0.014167 0.000000 0.000000 0.000000
# 2 -0.003534 0.021144 -0.012239 0.000000 0.000000 0.000000
# 3 -0.014167 -0.012239 0.019270 0.000000 0.000000 0.000000
# 4 0.000000 0.000000 0.000000 0.036710 0.000000 0.000000
# 5 0.000000 0.000000 0.000000 0.000000 0.096146 0.000000
# 6 0.000000 0.000000 0.000000 0.000000 0.000000 0.089350
#
#
# Mechanical properties :
#
#
# Convention : Reuss Voigt Hill
#
# Bulk Modulus (GPa) = 22.99204 57.06279 40.02742
# Shear Modulus (GPa) = 12.50149 17.27557 14.88853
#
# Velocity S-wave (km/s) = 2.99194 3.51713 3.26511
# Velocity P-wave (km/s) = 5.32908 7.57321 6.54800
#
# Compressibility (1/GPa) = 0.04349331
#
# Stress axis : x y z
#
# Youngs Moduli (GPa) = 15.88383 47.29370 51.89477
#
# Poissons Ratio (x) = 0.16711 0.73517
# Poissons Ratio (y) = 0.05613 0.63514
# Poissons Ratio (z) = 0.22502 0.57883
#
# Static dielectric constant tensor:
#      x y z
#    x 1.417990 0.000000 0.000000 
#    y 0.000000 1.470630 0.000000 
#    z 0.000000 0.000000 1.489780 
# 
# From -- ./inp_files/7905.got.cif
#   From: 2010.05.17/outbox.cif.g08.bks.cpg/sg71_4_cif.got.tgz:7905.got - 2010.06.03 16:22:01.
