data_PCOD9517152
_publ_section_title
;
Structure prediction by ZEFSAII (Michael W. Deem and Ramdas Pophale) SiO2 
 PCOD9517152
Probable space group: F D D D
;
_chemical_formula_sum "Si O2"
_cell_formula_units_Z 80
_cell_length_a 14.812611
_cell_length_b 14.332520
_cell_length_c 13.808645
_cell_angle_alpha 90.000000
_cell_angle_beta 90.000000
_cell_angle_gamma 90.000000
_cell_volume 2931.603550
_symmetry_space_group_name_H-M "F D D D"
_symmetry_group_IT_number 70
_space_group.IT_coordinate_system_code '2'
_symmetry_cell_setting 'orthorhombic'
loop_
_space_group_symop_operation_xyz
x,y,z
1/4-x,1/4-y,z
x,1/4-y,1/4-z
1/4-x,y,1/4-z
-x,-y,-z
3/4+x,3/4+y,-z
-x,3/4+y,3/4+z
3/4+x,-y,3/4+z
x,1/2+y,1/2+z
1/4-x,3/4-y,1/2+z
x,3/4-y,3/4-z
1/4-x,1/2+y,3/4-z
-x,1/2-y,1/2-z
3/4+x,1/4+y,1/2-z
-x,1/4+y,1/4+z
3/4+x,1/2-y,1/4+z
1/2+x,y,1/2+z
3/4-x,1/4-y,1/2+z
1/2+x,1/4-y,3/4-z
3/4-x,y,3/4-z
1/2-x,-y,1/2-z
1/4+x,3/4+y,1/2-z
1/2-x,3/4+y,1/4+z
1/4+x,-y,1/4+z
1/2+x,1/2+y,z
3/4-x,3/4-y,z
1/2+x,3/4-y,1/4-z
3/4-x,1/2+y,1/4-z
1/2-x,1/2-y,-z
1/4+x,1/4+y,-z
1/2-x,1/4+y,3/4+z
1/4+x,1/2-y,3/4+z
loop_
_atom_site_type_symbol
_atom_site_label
_atom_site_fract_x
_atom_site_fract_y
_atom_site_fract_z
Si Si1 0.781722 0.922079 0.006612
Si Si2 0.125000 0.905978 0.625000
Si Si3 0.882319 0.487037 0.065306
O O1 0.875000 0.875000 0.978976
O O2 0.709423 0.861212 0.069473
O O3 0.813392 0.001114 0.085120
O O4 0.717180 0.967088 0.927951
O O5 0.086065 0.968176 0.536204
O O6 0.875000 0.375000 0.054385
#
# Coordination Sequence:
#
# PCOD9517152 Si02
#       3
#    32  16  32
#     4   9  18  30  50  84 110 140 186 246 281 329
#     4   8  17  28  48  78 110 133 184 236 282 315
#     4   9  17  30  51  83 108 139 189 242 276 329
#
# _framework density 27.288820999999999
#
# number of rings (size 3 to 8) (size 9 to 14) (size 15 to 20)
#    2.400    0.800    0.000    1.800    0.000    0.000 
#    0.000    0.000    0.000    9.600    0.000    0.000 
#    0.000    0.000    0.000    0.000    0.000    0.000 
#
# Total GULP energy -111334.637112 kJ/mol
# GULP energy per Si atom -5566.731856 kJ/mol
# Density = 2.722671 g / cm^3
# Si number density = 27.288821 Si / 1000 Ang^3
#
#
#
# Elastic Constant Matrix: (Units=GPa)
#
#
# Indices 1 2 3 4 5 6 
#
# 1 195.5232 19.9288 23.3804 0.0000 0.0000 0.0000
# 2 19.9288 63.0197 16.6208 0.0000 0.0000 0.0000
# 3 23.3804 16.6208 96.8100 0.0000 0.0000 0.0000
# 4 0.0000 0.0000 0.0000 -2.9520 0.0000 0.0000
# 5 0.0000 0.0000 0.0000 0.0000 -15.1595 0.0000
# 6 0.0000 0.0000 0.0000 0.0000 0.0000 46.1231
#
#
#
# Elastic Compliance Matrix: (Units=1/GPa)
#
#
# Indices 1 2 3 4 5 6 
#
# 1 0.005386 -0.001425 -0.001056 0.000000 0.000000 0.000000
# 2 -0.001425 0.016997 -0.002574 0.000000 0.000000 0.000000
# 3 -0.001056 -0.002574 0.011027 0.000000 0.000000 0.000000
# 4 0.000000 0.000000 0.000000 -0.338758 0.000000 0.000000
# 5 0.000000 0.000000 0.000000 0.000000 -0.065965 0.000000
# 6 0.000000 0.000000 0.000000 0.000000 0.000000 0.021681
#
#
# Mechanical properties :
#
#
# Convention : Reuss Voigt Hill
#
# Bulk Modulus (GPa) = 42.91838 52.80144 47.85991
# Shear Modulus (GPa) = -15.07133 25.29719 5.11293
#
# Velocity S-wave (km/s) = -2.35263 3.04800 1.37029
# Velocity P-wave (km/s) = 2.89513 5.63721 4.48107
#
# Compressibility (1/GPa) = 0.02330004
#
# Stress axis : x y z
#
# Youngs Moduli (GPa) = 185.66705 58.83223 90.69043
#
# Poissons Ratio (x) = 0.08382 0.09578
# Poissons Ratio (y) = 0.26451 0.23345
# Poissons Ratio (z) = 0.19609 0.15144
#
# Static dielectric constant tensor:
#      x y z
#    x 2.316770 0.000000 0.000000 
#    y 0.000000 2.163000 0.000000 
#    z 0.000000 0.000000 2.203710 
# 
# From -- ./inp_files/14490.got.cif
#   From: 2010.05.17/outbox.cif.g08.bks.cpg/sg70_8_cif.got.tgz:14490.got - 2010.06.03 15:57:51.
