data_PCOD9517299
_publ_section_title
;
Structure prediction by ZEFSAII (Michael W. Deem and Ramdas Pophale) SiO2 
 PCOD9517299
Probable space group: I M M M
;
_chemical_formula_sum "Si O2"
_cell_formula_units_Z 120
_cell_length_a 30.663963
_cell_length_b 7.312559
_cell_length_c 28.143531
_cell_angle_alpha 90.000000
_cell_angle_beta 90.000000
_cell_angle_gamma 90.000000
_cell_volume 6310.681330
_symmetry_space_group_name_H-M "I M M M"
_symmetry_group_IT_number 71
_symmetry_cell_setting 'orthorhombic'
loop_
_space_group_symop_operation_xyz
x,y,z
-x,-y,z
x,-y,-z
-x,y,-z
-x,-y,-z
x,y,-z
-x,y,z
x,-y,z
1/2+x,1/2+y,1/2+z
1/2-x,1/2-y,1/2+z
1/2+x,1/2-y,1/2-z
1/2-x,1/2+y,1/2-z
1/2-x,1/2-y,1/2-z
1/2+x,1/2+y,1/2-z
1/2-x,1/2+y,1/2+z
1/2+x,1/2-y,1/2+z
loop_
_atom_site_type_symbol
_atom_site_label
_atom_site_fract_x
_atom_site_fract_y
_atom_site_fract_z
Si Si1 0.289263 0.212102 0.802520
Si Si2 0.324450 0.211396 0.910293
Si Si3 0.233630 0.776392 0.052414
Si Si4 0.298915 0.280526 0.654569
Si Si5 0.500000 0.777249 0.946423
Si Si6 0.863506 0.715683 0.767584
Si Si7 0.917795 0.723453 0.385423
Si Si8 0.550307 0.222754 0.780514
O O1 0.309082 0.213576 0.855449
O O2 0.240730 0.289324 0.811440
O O3 0.325652 0.292734 0.767444
O O4 0.283248 0.000000 0.788510
O O5 0.283793 0.285314 0.939900
O O6 0.372565 0.290979 0.907503
O O7 0.328867 0.000000 0.925753
O O8 0.208133 0.718249 0.100225
O O9 0.233716 0.000000 0.053236
O O10 0.217963 0.721090 0.000000
O O11 0.294163 0.500000 0.653498
O O12 0.344339 0.238020 0.679827
O O13 0.542593 0.721016 0.918324
O O14 0.500000 0.000000 0.946418
O O15 0.500000 0.714740 0.000000
O O16 0.865292 0.500000 0.756568
O O17 0.912376 0.782326 0.756840
O O18 0.915051 0.500000 0.384170
O O19 0.929689 0.776614 0.331703
O O20 0.500000 0.284676 0.774752
O O21 0.548010 0.000000 0.780004
#
# Coordination Sequence:
#
# PCOD9517299 Si02
#       8
#    16  16  16  16   8  16  16  16
#     4   8  13  22  35  54  77 101 128 158 191 227
#     4   8  12  18  30  47  67  92 125 163 196 222
#     4   8  14  24  37  52  71  99 133 162 188 227
#     4   9  17  27  39  57  82 106 129 160 198 236
#     4   9  16  20  22  34  58  92 133 171 204 237
#     4  10  17  25  40  59  79 103 134 166 194 233
#     4   9  13  19  29  40  62  95 129 165 202 237
#     4   9  15  23  36  53  72  99 135 170 200 234
#
# _framework density 19.015378999999999
#
# number of rings (size 3 to 8) (size 9 to 14) (size 15 to 20)
#    0.000    3.267    2.000    2.000    0.000    0.533 
#    0.000    2.667    0.000    0.800    0.000    0.000 
#    0.000    0.533    0.000    6.667    0.000    1.333 
#
# Total GULP energy -334374.793616 kJ/mol
# GULP energy per Si atom -5572.913227 kJ/mol
# Density = 1.897210 g / cm^3
# Si number density = 19.015379 Si / 1000 Ang^3
#
#
#
# Elastic Constant Matrix: (Units=GPa)
#
#
# Indices 1 2 3 4 5 6 
#
# 1 98.7834 1.3993 65.4975 0.0000 0.0000 0.0000
# 2 1.3993 74.9474 2.0036 0.0000 0.0000 0.0000
# 3 65.4975 2.0036 104.8761 0.0000 0.0000 0.0000
# 4 0.0000 0.0000 0.0000 154.3343 0.0000 0.0000
# 5 0.0000 0.0000 0.0000 0.0000 19.7193 0.0000
# 6 0.0000 0.0000 0.0000 0.0000 0.0000 -3.3228
#
#
#
# Elastic Compliance Matrix: (Units=1/GPa)
#
#
# Indices 1 2 3 4 5 6 
#
# 1 0.017278 -0.000034 -0.010790 0.000000 0.000000 0.000000
# 2 -0.000034 0.013350 -0.000234 0.000000 0.000000 0.000000
# 3 -0.010790 -0.000234 0.016278 0.000000 0.000000 0.000000
# 4 0.000000 0.000000 0.000000 0.006479 0.000000 0.000000
# 5 0.000000 0.000000 0.000000 0.000000 0.050712 0.000000
# 6 0.000000 0.000000 0.000000 0.000000 0.000000 -0.300949
#
#
# Mechanical properties :
#
#
# Convention : Reuss Voigt Hill
#
# Bulk Modulus (GPa) = 40.33861 46.26752 43.30306
# Shear Modulus (GPa) = -30.03461 48.12659 9.04599
#
# Velocity S-wave (km/s) = -3.97859 5.03629 2.18347
# Velocity P-wave (km/s) = 0.39260 7.62912 5.40174
#
# Compressibility (1/GPa) = 0.02479015
#
# Stress axis : x y z
#
# Youngs Moduli (GPa) = 57.87849 74.90870 61.43316
#
# Poissons Ratio (x) = 0.00256 0.66284
# Poissons Ratio (y) = 0.00198 0.01436
# Poissons Ratio (z) = 0.62448 0.01751
#
# Static dielectric constant tensor:
#      x y z
#    x 1.682110 0.000000 0.000000 
#    y 0.000000 1.913250 0.000000 
#    z 0.000000 0.000000 1.651780 
# 
# From -- ./inp_files/67239.got.cif
#   From: 2010.05.17/outbox.cif.g08.bks.cpg/sg71_34_cif.got.tgz:67239.got - 2010.06.03 16:22:01.
