data_PCOD9517999
_publ_section_title
;
Structure prediction by ZEFSAII (Michael W. Deem and Ramdas Pophale) SiO2 
 PCOD9517999
Probable space group: I M M M
;
_chemical_formula_sum "Si O2"
_cell_formula_units_Z 80
_cell_length_a 11.639987
_cell_length_b 21.240789
_cell_length_c 21.448361
_cell_angle_alpha 90.000000
_cell_angle_beta 90.000000
_cell_angle_gamma 90.000000
_cell_volume 5302.946562
_symmetry_space_group_name_H-M "I M M M"
_symmetry_group_IT_number 71
_symmetry_cell_setting 'orthorhombic'
loop_
_space_group_symop_operation_xyz
x,y,z
-x,-y,z
x,-y,-z
-x,y,-z
-x,-y,-z
x,y,-z
-x,y,z
x,-y,z
1/2+x,1/2+y,1/2+z
1/2-x,1/2-y,1/2+z
1/2+x,1/2-y,1/2-z
1/2-x,1/2+y,1/2-z
1/2-x,1/2-y,1/2-z
1/2+x,1/2+y,1/2-z
1/2-x,1/2+y,1/2+z
1/2+x,1/2-y,1/2+z
loop_
_atom_site_type_symbol
_atom_site_label
_atom_site_fract_x
_atom_site_fract_y
_atom_site_fract_z
Si Si1 0.863205 0.750229 0.165541
Si Si2 0.000000 0.426504 0.121009
Si Si3 0.779361 0.350201 0.073627
Si Si4 0.635950 0.426471 0.833840
Si Si5 0.281376 0.851333 0.232386
Si Si6 0.000000 0.573699 0.272561
O O1 0.805516 0.716647 0.106099
O O2 0.799711 0.814325 0.184584
O O3 0.838649 0.701422 0.222400
O O4 0.000000 0.757025 0.157651
O O5 0.888943 0.392745 0.092962
O O6 0.000000 0.420337 0.196327
O O7 0.000000 0.500000 0.105896
O O8 0.673172 0.385109 0.106730
O O9 0.767824 0.346014 0.000000
O O10 0.500000 0.422391 0.823372
O O11 0.667518 0.500000 0.842156
O O12 0.705602 0.396612 0.776360
O O13 0.385525 0.891519 0.204672
O O14 0.000000 0.500000 0.286964
#
# Coordination Sequence:
#
# PCOD9517999 Si02
#       6
#    16   8  16  16  16   8
#     4  10  18  31  46  66  94 124 161 197 237 284
#     4  11  19  30  47  70  98 127 162 201 235 272
#     4  11  21  33  47  67  94 130 170 202 235 273
#     4  10  20  33  47  66  94 128 164 201 241 285
#     4  10  18  30  48  70  92 123 157 198 246 290
#     4  11  18  31  52  75 101 122 155 202 245 288
#
# _framework density 15.085953
#
# number of rings (size 3 to 8) (size 9 to 14) (size 15 to 20)
#    0.000    1.600    6.000    2.100    0.000    2.400 
#    1.800    1.000    0.000    0.000    0.000    0.000 
#    0.000    4.000    0.000    9.800    0.000    0.000 
#
# Total GULP energy -223170.724669 kJ/mol
# GULP energy per Si atom -5579.268117 kJ/mol
# Density = 1.505162 g / cm^3
# Si number density = 15.085953 Si / 1000 Ang^3
#
#
#
# Elastic Constant Matrix: (Units=GPa)
#
#
# Indices 1 2 3 4 5 6 
#
# 1 90.8788 55.0118 23.7758 0.0000 0.0000 0.0000
# 2 55.0118 93.7781 41.6832 0.0000 0.0000 0.0000
# 3 23.7758 41.6832 48.9768 0.0000 0.0000 0.0000
# 4 0.0000 0.0000 0.0000 12.8814 0.0000 0.0000
# 5 0.0000 0.0000 0.0000 0.0000 8.6351 0.0000
# 6 0.0000 0.0000 0.0000 0.0000 0.0000 27.1354
#
#
#
# Elastic Compliance Matrix: (Units=1/GPa)
#
#
# Indices 1 2 3 4 5 6 
#
# 1 0.017067 -0.010180 0.000379 0.000000 0.000000 0.000000
# 2 -0.010180 0.023224 -0.014824 0.000000 0.000000 0.000000
# 3 0.000379 -0.014824 0.032850 0.000000 0.000000 0.000000
# 4 0.000000 0.000000 0.000000 0.077631 0.000000 0.000000
# 5 0.000000 0.000000 0.000000 0.000000 0.115807 0.000000
# 6 0.000000 0.000000 0.000000 0.000000 0.000000 0.036852
#
#
# Mechanical properties :
#
#
# Convention : Reuss Voigt Hill
#
# Bulk Modulus (GPa) = 41.85608 52.73058 47.29333
# Shear Modulus (GPa) = 13.86404 17.27458 15.56931
#
# Velocity S-wave (km/s) = 3.03479 3.38757 3.21602
# Velocity P-wave (km/s) = 6.33129 7.09437 6.72367
#
# Compressibility (1/GPa) = 0.02389139
#
# Stress axis : x y z
#
# Youngs Moduli (GPa) = 58.59295 43.05820 30.44127
#
# Poissons Ratio (x) = 0.43834 -0.01154
# Poissons Ratio (y) = 0.59649 0.45126
# Poissons Ratio (z) = -0.02221 0.63829
#
# Static dielectric constant tensor:
#      x y z
#    x 1.523490 0.000000 0.000000 
#    y 0.000000 1.506890 0.000000 
#    z 0.000000 0.000000 1.474420 
# 
# From -- ./inp_files/23847.got.cif
#   From: 2010.05.17/outbox.cif.g08.bks.cpg/sg71_12_cif.got.tgz:23847.got - 2010.06.03 16:22:01.
