data_PCOD9517576
_publ_section_title
;
Structure prediction by ZEFSAII (Michael W. Deem and Ramdas Pophale) SiO2 
 PCOD9517576
Probable space group: I M M M
;
_chemical_formula_sum "Si O2"
_cell_formula_units_Z 64
_cell_length_a 16.312323
_cell_length_b 11.287825
_cell_length_c 13.940360
_cell_angle_alpha 90.000000
_cell_angle_beta 90.000000
_cell_angle_gamma 90.000000
_cell_volume 2566.847511
_symmetry_space_group_name_H-M "I M M M"
_symmetry_group_IT_number 71
_symmetry_cell_setting 'orthorhombic'
loop_
_space_group_symop_operation_xyz
x,y,z
-x,-y,z
x,-y,-z
-x,y,-z
-x,-y,-z
x,y,-z
-x,y,z
x,-y,z
1/2+x,1/2+y,1/2+z
1/2-x,1/2-y,1/2+z
1/2+x,1/2-y,1/2-z
1/2-x,1/2+y,1/2-z
1/2-x,1/2-y,1/2-z
1/2+x,1/2+y,1/2-z
1/2-x,1/2+y,1/2+z
1/2+x,1/2-y,1/2+z
loop_
_atom_site_type_symbol
_atom_site_label
_atom_site_fract_x
_atom_site_fract_y
_atom_site_fract_z
Si Si1 0.595511 0.500000 0.116412
Si Si2 0.864899 0.500000 0.886650
Si Si3 0.624307 0.251188 0.385280
Si Si4 0.317165 0.747638 0.115412
Si Si5 0.881083 0.000000 0.886099
Si Si6 0.305030 0.000000 0.186388
O O1 0.500000 0.500000 0.143977
O O2 0.638115 0.374467 0.144359
O O3 0.599569 0.500000 0.000000
O O4 0.911400 0.377900 0.868903
O O5 0.798302 0.500000 0.801534
O O6 0.836208 0.500000 0.000000
O O7 0.622475 0.263654 0.500000
O O8 0.720533 0.242308 0.358597
O O9 0.589547 0.374093 0.347319
O O10 0.346723 0.874964 0.156294
O O11 0.321978 0.755012 0.000000
O O12 0.782986 0.000000 0.866909
O O13 0.896833 0.000000 0.000000
#
# Coordination Sequence:
#
# PCOD9517576 Si02
#       6
#     8   8  16  16   8   8
#     4   9  17  29  46  68  93 115 130 154 199 256
#     4  10  19  28  37  55  83 114 152 188 216 242
#     4   8  14  25  39  54  78 112 144 178 210 236
#     4   9  16  28  45  64  87 114 143 169 200 247
#     4   8  14  24  37  54  74 100 139 179 210 240
#     4  10  18  27  41  58  82 115 147 179 212 239
#
# _framework density 24.933308
#
# number of rings (size 3 to 8) (size 9 to 14) (size 15 to 20)
#    0.000    3.125    0.000    3.375    0.000    7.000 
#    0.000    1.875    0.000    3.000    0.000    0.000 
#    0.000    3.000    0.000    0.000    0.000    0.000 
#
# Total GULP energy -178406.311883 kJ/mol
# GULP energy per Si atom -5575.197246 kJ/mol
# Density = 2.487656 g / cm^3
# Si number density = 24.933308 Si / 1000 Ang^3
#
#
#
# Elastic Constant Matrix: (Units=GPa)
#
#
# Indices 1 2 3 4 5 6 
#
# 1 110.1922 74.2022 27.6431 0.0000 0.0000 0.0000
# 2 74.2022 389.3700 25.0095 0.0000 0.0000 0.0000
# 3 27.6431 25.0095 131.3482 0.0000 0.0000 0.0000
# 4 0.0000 0.0000 0.0000 1.9193 0.0000 0.0000
# 5 0.0000 0.0000 0.0000 0.0000 -9.8571 0.0000
# 6 0.0000 0.0000 0.0000 0.0000 0.0000 41.1552
#
#
#
# Elastic Compliance Matrix: (Units=1/GPa)
#
#
# Indices 1 2 3 4 5 6 
#
# 1 0.010867 -0.001948 -0.001916 0.000000 0.000000 0.000000
# 2 -0.001948 0.002949 -0.000152 0.000000 0.000000 0.000000
# 3 -0.001916 -0.000152 0.008046 0.000000 0.000000 0.000000
# 4 0.000000 0.000000 0.000000 0.521036 0.000000 0.000000
# 5 0.000000 0.000000 0.000000 0.000000 -0.101450 0.000000
# 6 0.000000 0.000000 0.000000 0.000000 0.000000 0.024298
#
#
# Mechanical properties :
#
#
# Convention : Reuss Voigt Hill
#
# Bulk Modulus (GPa) = 72.30310 98.29111 85.29711
# Shear Modulus (GPa) = 10.45176 40.24718 25.34947
#
# Velocity S-wave (km/s) = 2.04963 4.02206 3.19202
# Velocity P-wave (km/s) = 5.88752 7.81514 6.91879
#
# Compressibility (1/GPa) = 0.01383066
#
# Stress axis : x y z
#
# Youngs Moduli (GPa) = 92.01767 339.07434 124.29306
#
# Poissons Ratio (x) = 0.66049 0.23817
# Poissons Ratio (y) = 0.17924 0.01884
# Poissons Ratio (z) = 0.17633 0.05140
#
# Static dielectric constant tensor:
#      x y z
#    x 1.910100 0.000000 0.000000 
#    y 0.000000 2.077380 0.000000 
#    z 0.000000 0.000000 1.966560 
# 
# From -- ./inp_files/35856.got.cif
#   From: 2010.05.17/outbox.cif.g08.bks.cpg/sg71_18_cif.got.tgz:35856.got - 2010.06.03 16:22:01.
