data_PCOD9517861
_publ_section_title
;
Structure prediction by ZEFSAII (Michael W. Deem and Ramdas Pophale) SiO2 
 PCOD9517861
Probable space group: I M M M
;
_chemical_formula_sum "Si O2"
_cell_formula_units_Z 80
_cell_length_a 29.191144
_cell_length_b 8.086246
_cell_length_c 17.406616
_cell_angle_alpha 90.000000
_cell_angle_beta 90.000000
_cell_angle_gamma 90.000000
_cell_volume 4108.775508
_symmetry_space_group_name_H-M "I M M M"
_symmetry_group_IT_number 71
_symmetry_cell_setting 'orthorhombic'
loop_
_space_group_symop_operation_xyz
x,y,z
-x,-y,z
x,-y,-z
-x,y,-z
-x,-y,-z
x,y,-z
-x,y,z
x,-y,z
1/2+x,1/2+y,1/2+z
1/2-x,1/2-y,1/2+z
1/2+x,1/2-y,1/2-z
1/2-x,1/2+y,1/2-z
1/2-x,1/2-y,1/2-z
1/2+x,1/2+y,1/2-z
1/2-x,1/2+y,1/2+z
1/2+x,1/2-y,1/2+z
loop_
_atom_site_type_symbol
_atom_site_label
_atom_site_fract_x
_atom_site_fract_y
_atom_site_fract_z
Si Si1 0.565540 0.187722 0.500000
Si Si2 0.278390 0.691637 0.650768
Si Si3 0.817715 0.804058 0.412995
Si Si4 0.949756 0.699982 0.170931
Si Si5 0.159969 0.182155 0.000000
Si Si6 0.641693 0.700226 0.761190
O O1 0.552599 0.262272 0.417562
O O2 0.620336 0.186452 0.500000
O O3 0.548342 0.000000 0.500000
O O4 0.267442 0.500000 0.669439
O O5 0.231713 0.779774 0.627018
O O6 0.309009 0.693774 0.574346
O O7 0.312762 0.760489 0.715481
O O8 0.818313 0.733710 0.500000
O O9 0.853798 0.741242 0.349366
O O10 0.825214 0.000000 0.420043
O O11 0.947992 0.500000 0.167954
O O12 0.905220 0.754096 0.218403
O O13 0.000000 0.747892 0.202479
O O14 0.137504 0.000000 0.000000
O O15 0.644403 0.500000 0.759488
#
# Coordination Sequence:
#
# PCOD9517861 Si02
#       6
#     8  16  16  16   8  16
#     4  10  19  32  52  76 104 138 170 201 243 295
#     4  10  19  32  50  73 104 139 172 205 245 294
#     4  10  21  35  52  75 103 134 171 214 255 298
#     4  10  21  36  54  77 104 133 167 208 252 300
#     4  10  18  29  47  73 108 142 167 201 244 289
#     4  10  21  36  53  75 103 135 171 211 254 300
#
# _framework density 19.470521000000002
#
# number of rings (size 3 to 8) (size 9 to 14) (size 15 to 20)
#    0.000    2.000    3.000    0.900    0.000    4.000 
#    0.000    0.000    0.000    2.400    0.000    4.200 
#    0.000    0.000    0.000    0.000    0.000    0.000 
#
# Total GULP energy -222995.147697 kJ/mol
# GULP energy per Si atom -5574.878692 kJ/mol
# Density = 1.942621 g / cm^3
# Si number density = 19.470521 Si / 1000 Ang^3
#
#
#
# Elastic Constant Matrix: (Units=GPa)
#
#
# Indices 1 2 3 4 5 6 
#
# 1 95.7875 5.6961 79.7718 0.0000 0.0000 0.0000
# 2 5.6961 13.7765 14.4623 0.0000 0.0000 0.0000
# 3 79.7718 14.4623 163.1684 0.0000 0.0000 0.0000
# 4 0.0000 0.0000 0.0000 31.1205 0.0000 0.0000
# 5 0.0000 0.0000 0.0000 0.0000 4.4941 0.0000
# 6 0.0000 0.0000 0.0000 0.0000 0.0000 13.6940
#
#
#
# Elastic Compliance Matrix: (Units=1/GPa)
#
#
# Indices 1 2 3 4 5 6 
#
# 1 0.017656 0.001942 -0.008804 0.000000 0.000000 0.000000
# 2 0.001942 0.080248 -0.008062 0.000000 0.000000 0.000000
# 3 -0.008804 -0.008062 0.011148 0.000000 0.000000 0.000000
# 4 0.000000 0.000000 0.000000 0.032133 0.000000 0.000000
# 5 0.000000 0.000000 0.000000 0.000000 0.222515 0.000000
# 6 0.000000 0.000000 0.000000 0.000000 0.000000 0.073025
#
#
# Mechanical properties :
#
#
# Convention : Reuss Voigt Hill
#
# Bulk Modulus (GPa) = 12.62569 52.51029 32.56799
# Shear Modulus (GPa) = 10.14251 21.38187 15.76219
#
# Velocity S-wave (km/s) = 2.28483 3.31745 2.84833
# Velocity P-wave (km/s) = 3.66868 6.45768 5.25171
#
# Compressibility (1/GPa) = 0.07920360
#
# Stress axis : x y z
#
# Youngs Moduli (GPa) = 56.63655 12.46135 89.70576
#
# Poissons Ratio (x) = -0.02420 0.78979
# Poissons Ratio (y) = -0.11000 0.72323
# Poissons Ratio (z) = 0.49864 0.10047
#
# Static dielectric constant tensor:
#      x y z
#    x 1.660020 0.000000 0.000000 
#    y 0.000000 1.730570 0.000000 
#    z 0.000000 0.000000 1.724720 
# 
# From -- ./inp_files/8436.got.cif
#   From: 2010.05.17/outbox.cif.g08.bks.cpg/sg71_5_cif.got.tgz:8436.got - 2010.06.03 16:22:01.
