data_PCOD9517200
_publ_section_title
;
Structure prediction by ZEFSAII (Michael W. Deem and Ramdas Pophale) SiO2 
 PCOD9517200
Probable space group: F D D D
;
_chemical_formula_sum "Si O2"
_cell_formula_units_Z 52
_cell_length_a 18.000000
_cell_length_b 27.000000
_cell_length_c 21.000000
_cell_angle_alpha 90.000000
_cell_angle_beta 90.000000
_cell_angle_gamma 90.000000
_cell_volume 10206.000000
_symmetry_space_group_name_H-M "F D D D"
_symmetry_group_IT_number 70
_space_group.IT_coordinate_system_code '2'
_symmetry_cell_setting 'orthorhombic'
loop_
_space_group_symop_operation_xyz
x,y,z
1/4-x,1/4-y,z
x,1/4-y,1/4-z
1/4-x,y,1/4-z
-x,-y,-z
3/4+x,3/4+y,-z
-x,3/4+y,3/4+z
3/4+x,-y,3/4+z
x,1/2+y,1/2+z
1/4-x,3/4-y,1/2+z
x,3/4-y,3/4-z
1/4-x,1/2+y,3/4-z
-x,1/2-y,1/2-z
3/4+x,1/4+y,1/2-z
-x,1/4+y,1/4+z
3/4+x,1/2-y,1/4+z
1/2+x,y,1/2+z
3/4-x,1/4-y,1/2+z
1/2+x,1/4-y,3/4-z
3/4-x,y,3/4-z
1/2-x,-y,1/2-z
1/4+x,3/4+y,1/2-z
1/2-x,3/4+y,1/4+z
1/4+x,-y,1/4+z
1/2+x,1/2+y,z
3/4-x,3/4-y,z
1/2+x,3/4-y,1/4-z
3/4-x,1/2+y,1/4-z
1/2-x,1/2-y,-z
1/4+x,1/4+y,-z
1/2-x,1/4+y,3/4+z
1/4+x,1/2-y,3/4+z
loop_
_atom_site_type_symbol
_atom_site_label
_atom_site_fract_x
_atom_site_fract_y
_atom_site_fract_z
Si Si1 0.145821 0.044490 0.247611
Si Si2 0.125000 0.775674 0.625000
Si Si3 0.763115 0.420930 0.826312
Si Si4 0.483938 0.380567 0.798131
Si Si5 0.625000 0.998568 0.125000
Si Si6 0.358054 0.202975 0.233577
Si Si7 0.625000 0.125000 0.277888
Si Si8 0.048157 0.710728 0.890541
O O1 0.218105 0.076505 0.228981
O O2 0.076543 0.081969 0.233711
O O3 0.160549 0.030666 0.321694
O O4 0.134541 0.004214 0.192025
O O5 0.208999 0.797979 0.632221
O O6 0.749841 0.375000 0.875000
O O7 0.805502 0.464737 0.863508
O O8 0.689370 0.443228 0.794939
O O9 0.817021 0.402049 0.769542
O O10 0.475154 0.375000 0.875000
O O11 0.562098 0.402690 0.777446
O O12 0.612736 0.968909 0.191749
O O13 0.315887 0.243540 0.188810
O O14 0.583767 0.086150 0.323568
#
# Coordination Sequence:
#
# PCOD9517200 Si02
#       8
#    32  16  32  32  16  32  16  32
#     4  11  22  41  71  98 147 192 232 291 362 430
#     4  12  24  47  71 106 145 199 240 301 359 448
#     4  12  24  47  76  99 142 193 237 297 370 429
#     4  11  21  43  69 104 144 188 231 288 364 434
#     4  12  25  48  69 104 145 185 242 305 360 421
#     4  12  27  42  76 110 139 189 247 301 353 439
#     4  12  25  48  66 101 142 194 238 302 374 427
#     4  12  27  44  71 107 144 188 250 300 364 428
#
# _framework density 5.0950420000000003
#
# number of rings (size 3 to 8) (size 9 to 14) (size 15 to 20)
#    0.000    0.308    6.154    2.769    2.154    3.692 
#    0.000    0.000    0.000    0.000    0.000    0.000 
#    0.000    0.000    0.000    0.000    0.000    0.000 
#
# Total GULP energy -290577.200431 kJ/mol
# GULP energy per Si atom -5588.023085 kJ/mol
# Density = 0.508345 g / cm^3
# Si number density = 5.095042 Si / 1000 Ang^3
#
#
#
# Elastic Constant Matrix: (Units=GPa)
#
#
# Indices 1 2 3 4 5 6 
#
# 1 148.2820 31.9530 44.7575 0.0000 0.0000 0.0000
# 2 31.9530 45.3775 38.1864 0.0000 0.0000 0.0000
# 3 44.7575 38.1864 187.2117 0.0000 0.0000 0.0000
# 4 0.0000 0.0000 0.0000 27.5326 0.0000 0.0000
# 5 0.0000 0.0000 0.0000 0.0000 27.6529 0.0000
# 6 0.0000 0.0000 0.0000 0.0000 0.0000 38.1093
#
#
#
# Elastic Compliance Matrix: (Units=1/GPa)
#
#
# Indices 1 2 3 4 5 6 
#
# 1 0.008083 -0.004908 -0.000931 0.000000 0.000000 0.000000
# 2 -0.004908 0.029584 -0.004861 0.000000 0.000000 0.000000
# 3 -0.000931 -0.004861 0.006556 0.000000 0.000000 0.000000
# 4 0.000000 0.000000 0.000000 0.036321 0.000000 0.000000
# 5 0.000000 0.000000 0.000000 0.000000 0.036163 0.000000
# 6 0.000000 0.000000 0.000000 0.000000 0.000000 0.026240
#
#
# Mechanical properties :
#
#
# Convention : Reuss Voigt Hill
#
# Bulk Modulus (GPa) = 43.81723 67.85168 55.83445
# Shear Modulus (GPa) = 29.07770 36.39058 32.73414
#
# Velocity S-wave (km/s) = 3.78135 4.23021 4.01206
# Velocity P-wave (km/s) = 6.37271 7.56471 6.99415
#
# Compressibility (1/GPa) = 0.02282207
#
# Stress axis : x y z
#
# Youngs Moduli (GPa) = 123.72314 33.80220 152.53861
#
# Poissons Ratio (x) = 0.16589 0.14206
# Poissons Ratio (y) = 0.60720 0.74150
# Poissons Ratio (z) = 0.11522 0.16431
#
# Static dielectric constant tensor:
#      x y z
#    x 1.760620 0.000000 0.000000 
#    y 0.000000 1.757990 0.000000 
#    z 0.000000 0.000000 1.698290 
# 
# From -- ./inp_files/43984.got.cif
#   From: 2010.05.17/outbox.ucp.g08.bks.cvg/sg70_22_cif.got.tgz:43984.got - 2010.06.11 16:26:41.
