data_PCOD9517039
_publ_section_title
;
Structure prediction by ZEFSAII (Michael W. Deem and Ramdas Pophale) SiO2 
 PCOD9517039
Probable space group: F D D D
;
_chemical_formula_sum "Si O2"
_cell_formula_units_Z 96
_cell_length_a 25.778777
_cell_length_b 14.025998
_cell_length_c 12.771103
_cell_angle_alpha 90.000000
_cell_angle_beta 90.000000
_cell_angle_gamma 90.000000
_cell_volume 4617.686978
_symmetry_space_group_name_H-M "F D D D"
_symmetry_group_IT_number 70
_space_group.IT_coordinate_system_code '2'
_symmetry_cell_setting 'orthorhombic'
loop_
_space_group_symop_operation_xyz
x,y,z
1/4-x,1/4-y,z
x,1/4-y,1/4-z
1/4-x,y,1/4-z
-x,-y,-z
3/4+x,3/4+y,-z
-x,3/4+y,3/4+z
3/4+x,-y,3/4+z
x,1/2+y,1/2+z
1/4-x,3/4-y,1/2+z
x,3/4-y,3/4-z
1/4-x,1/2+y,3/4-z
-x,1/2-y,1/2-z
3/4+x,1/4+y,1/2-z
-x,1/4+y,1/4+z
3/4+x,1/2-y,1/4+z
1/2+x,y,1/2+z
3/4-x,1/4-y,1/2+z
1/2+x,1/4-y,3/4-z
3/4-x,y,3/4-z
1/2-x,-y,1/2-z
1/4+x,3/4+y,1/2-z
1/2-x,3/4+y,1/4+z
1/4+x,-y,1/4+z
1/2+x,1/2+y,z
3/4-x,3/4-y,z
1/2+x,3/4-y,1/4-z
3/4-x,1/2+y,1/4-z
1/2-x,1/2-y,-z
1/4+x,1/4+y,-z
1/2-x,1/4+y,3/4+z
1/4+x,1/2-y,3/4+z
loop_
_atom_site_type_symbol
_atom_site_label
_atom_site_fract_x
_atom_site_fract_y
_atom_site_fract_z
Si Si1 0.104487 0.519535 0.817987
Si Si2 0.336267 0.656206 0.732150
Si Si3 0.738863 0.735066 0.621049
O O1 0.125000 0.625000 0.795890
O O2 0.130953 0.438728 0.746367
O O3 0.125436 0.486318 0.933375
O O4 0.043053 0.505530 0.819041
O O5 0.304838 0.625000 0.625000
O O6 0.303176 0.697227 0.825335
O O7 0.722978 0.625000 0.625000
O O8 0.750000 0.750000 0.500000
#
# Coordination Sequence:
#
# PCOD9517039 Si02
#       3
#    32  32  32
#     4   9  19  42  64  96 147 173 236 289 351 428
#     4   8  21  42  63  99 150 174 234 296 352 421
#     4  12  23  41  73 102 135 189 242 291 355 425
#
# _framework density 20.789628
#
# number of rings (size 3 to 8) (size 9 to 14) (size 15 to 20)
#    2.000    0.000    3.333    2.000    0.000    2.667 
#    0.000    3.333    0.000    0.000    0.000    0.000 
#    0.000    0.000    0.000    0.000    0.000    0.000 
#
# Total GULP energy -133666.247329 kJ/mol
# GULP energy per Si atom -5569.426972 kJ/mol
# Density = 2.074231 g / cm^3
# Si number density = 20.789628 Si / 1000 Ang^3
#
#
#
# Elastic Constant Matrix: (Units=GPa)
#
#
# Indices 1 2 3 4 5 6 
#
# 1 103.3559 50.9206 18.8190 0.0000 0.0000 0.0000
# 2 50.9206 134.8640 11.1804 0.0000 0.0000 0.0000
# 3 18.8190 11.1804 73.7189 0.0000 0.0000 0.0000
# 4 0.0000 0.0000 0.0000 7.2046 0.0000 0.0000
# 5 0.0000 0.0000 0.0000 0.0000 29.2124 0.0000
# 6 0.0000 0.0000 0.0000 0.0000 0.0000 33.7079
#
#
#
# Elastic Compliance Matrix: (Units=1/GPa)
#
#
# Indices 1 2 3 4 5 6 
#
# 1 0.012315 -0.004445 -0.002470 0.000000 0.000000 0.000000
# 2 -0.004445 0.009114 -0.000247 0.000000 0.000000 0.000000
# 3 -0.002470 -0.000247 0.014233 0.000000 0.000000 0.000000
# 4 0.000000 0.000000 0.000000 0.138799 0.000000 0.000000
# 5 0.000000 0.000000 0.000000 0.000000 0.034232 0.000000
# 6 0.000000 0.000000 0.000000 0.000000 0.000000 0.029667
#
#
# Mechanical properties :
#
#
# Convention : Reuss Voigt Hill
#
# Bulk Modulus (GPa) = 46.86602 52.64207 49.75405
# Shear Modulus (GPa) = 19.24584 29.42626 24.33605
#
# Velocity S-wave (km/s) = 3.04590 3.76630 3.42509
# Velocity P-wave (km/s) = 5.91286 6.65505 6.29490
#
# Compressibility (1/GPa) = 0.02133742
#
# Stress axis : x y z
#
# Youngs Moduli (GPa) = 81.20246 109.72501 70.25917
#
# Poissons Ratio (x) = 0.48773 0.17351
# Poissons Ratio (y) = 0.36094 0.01739
# Poissons Ratio (z) = 0.20054 0.02716
#
# Static dielectric constant tensor:
#      x y z
#    x 1.752000 0.000000 0.000000 
#    y 0.000000 1.754980 0.000000 
#    z 0.000000 0.000000 1.800960 
# 
# From -- ./inp_files/24967.got.cif
#   From: 2010.05.17/outbox.cif.g08.bks.cpg/sg70_13_cif.got.tgz:24967.got - 2010.06.03 15:57:51.
