data_PCOD9517812
_publ_section_title
;
Structure prediction by ZEFSAII (Michael W. Deem and Ramdas Pophale) SiO2 
 PCOD9517812
Probable space group: I M M M
;
_chemical_formula_sum "Si O2"
_cell_formula_units_Z 120
_cell_length_a 13.494026
_cell_length_b 19.382762
_cell_length_c 30.414099
_cell_angle_alpha 90.000000
_cell_angle_beta 90.000000
_cell_angle_gamma 90.000000
_cell_volume 7954.853044
_symmetry_space_group_name_H-M "I M M M"
_symmetry_group_IT_number 71
_symmetry_cell_setting 'orthorhombic'
loop_
_space_group_symop_operation_xyz
x,y,z
-x,-y,z
x,-y,-z
-x,y,-z
-x,-y,-z
x,y,-z
-x,y,z
x,-y,z
1/2+x,1/2+y,1/2+z
1/2-x,1/2-y,1/2+z
1/2+x,1/2-y,1/2-z
1/2-x,1/2+y,1/2-z
1/2-x,1/2-y,1/2-z
1/2+x,1/2+y,1/2-z
1/2-x,1/2+y,1/2+z
1/2+x,1/2-y,1/2+z
loop_
_atom_site_type_symbol
_atom_site_label
_atom_site_fract_x
_atom_site_fract_y
_atom_site_fract_z
Si Si1 0.222507 0.081398 0.296983
Si Si2 0.201146 0.081672 0.599708
Si Si3 0.119826 0.174072 0.049094
Si Si4 0.385468 0.820512 0.591449
Si Si5 0.000000 0.083923 0.449047
Si Si6 0.614045 0.192874 0.303952
Si Si7 0.620974 0.579717 0.370346
Si Si8 0.118830 0.156202 0.218412
O O1 0.188263 0.090088 0.347613
O O2 0.322285 0.126079 0.292643
O O3 0.149666 0.114680 0.261485
O O4 0.235905 0.000000 0.289248
O O5 0.300491 0.122315 0.585900
O O6 0.101470 0.105650 0.575087
O O7 0.214519 0.000000 0.591244
O O8 0.138723 0.252865 0.063152
O O9 0.155050 0.122477 0.087100
O O10 0.000000 0.167642 0.048235
O O11 0.156842 0.159334 0.000000
O O12 0.500000 0.842301 0.582015
O O13 0.383774 0.799096 0.642984
O O14 0.000000 0.104834 0.500000
O O15 0.000000 0.000000 0.447486
O O16 0.500000 0.183117 0.290952
O O17 0.652859 0.264259 0.283397
O O18 0.500000 0.581127 0.370316
O O19 0.651117 0.500000 0.371740
O O20 0.653881 0.616502 0.325400
O O21 0.000000 0.159031 0.215882
#
# Coordination Sequence:
#
# PCOD9517812 Si02
#       8
#    16  16  16  16   8  16  16  16
#     4  10  20  30  44  69  95 119 150 192 235 273
#     4   9  19  32  47  69  92 118 155 197 236 277
#     4   9  16  26  41  61  86 117 149 181 220 265
#     4   9  16  29  47  67  93 121 152 190 232 278
#     4   9  18  34  52  64  84 122 159 193 236 284
#     4   9  17  31  48  63  86 122 157 188 224 274
#     4   9  16  26  40  60  87 118 151 182 215 263
#     4  10  18  29  46  66  90 122 154 185 224 272
#
# _framework density 15.085129999999999
#
# number of rings (size 3 to 8) (size 9 to 14) (size 15 to 20)
#    0.000    2.733    1.333    0.800    0.933    2.133 
#    0.000    4.000    0.000    0.000    0.000    3.733 
#    0.000    0.000    0.000    0.067    0.000    2.467 
#
# Total GULP energy -334055.453700 kJ/mol
# GULP energy per Si atom -5567.590895 kJ/mol
# Density = 1.505080 g / cm^3
# Si number density = 15.085130 Si / 1000 Ang^3
#
#
#
# Elastic Constant Matrix: (Units=GPa)
#
#
# Indices 1 2 3 4 5 6 
#
# 1 61.7089 48.4058 38.7412 0.0000 0.0000 0.0000
# 2 48.4058 85.7192 38.2054 0.0000 0.0000 0.0000
# 3 38.7412 38.2054 53.4123 0.0000 0.0000 0.0000
# 4 0.0000 0.0000 0.0000 16.6604 0.0000 0.0000
# 5 0.0000 0.0000 0.0000 0.0000 14.1376 0.0000
# 6 0.0000 0.0000 0.0000 0.0000 0.0000 17.5263
#
#
#
# Elastic Compliance Matrix: (Units=1/GPa)
#
#
# Indices 1 2 3 4 5 6 
#
# 1 0.038059 -0.013489 -0.017957 0.000000 0.000000 0.000000
# 2 -0.013489 0.021906 -0.005886 0.000000 0.000000 0.000000
# 3 -0.017957 -0.005886 0.035957 0.000000 0.000000 0.000000
# 4 0.000000 0.000000 0.000000 0.060023 0.000000 0.000000
# 5 0.000000 0.000000 0.000000 0.000000 0.070734 0.000000
# 6 0.000000 0.000000 0.000000 0.000000 0.000000 0.057057
#
#
# Mechanical properties :
#
#
# Convention : Reuss Voigt Hill
#
# Bulk Modulus (GPa) = 47.03724 50.17171 48.60447
# Shear Modulus (GPa) = 13.68041 14.69738 14.18889
#
# Velocity S-wave (km/s) = 3.01471 3.12476 3.07023
# Velocity P-wave (km/s) = 6.58535 6.80809 6.69765
#
# Compressibility (1/GPa) = 0.02125975
#
# Stress axis : x y z
#
# Youngs Moduli (GPa) = 26.27466 45.64874 27.81091
#
# Poissons Ratio (x) = 0.61574 0.49940
# Poissons Ratio (y) = 0.35441 0.16369
# Poissons Ratio (z) = 0.47182 0.26868
#
# Static dielectric constant tensor:
#      x y z
#    x 1.486150 0.000000 0.000000 
#    y 0.000000 1.496120 0.000000 
#    z 0.000000 0.000000 1.510100 
# 
# From -- ./inp_files/64849.got.cif
#   From: 2010.05.17/outbox.cif.g08.bks.cpg/sg71_33_cif.got.tgz:64849.got - 2010.06.03 16:22:01.
