data_PCOD9517427
_publ_section_title
;
Structure prediction by ZEFSAII (Michael W. Deem and Ramdas Pophale) SiO2 
 PCOD9517427
Probable space group: I M M M
;
_chemical_formula_sum "Si O2"
_cell_formula_units_Z 88
_cell_length_a 15.626158
_cell_length_b 11.832572
_cell_length_c 28.544469
_cell_angle_alpha 90.000000
_cell_angle_beta 90.000000
_cell_angle_gamma 90.000000
_cell_volume 5277.804942
_symmetry_space_group_name_H-M "I M M M"
_symmetry_group_IT_number 71
_symmetry_cell_setting 'orthorhombic'
loop_
_space_group_symop_operation_xyz
x,y,z
-x,-y,z
x,-y,-z
-x,y,-z
-x,-y,-z
x,y,-z
-x,y,z
x,-y,z
1/2+x,1/2+y,1/2+z
1/2-x,1/2-y,1/2+z
1/2+x,1/2-y,1/2-z
1/2-x,1/2+y,1/2-z
1/2-x,1/2-y,1/2-z
1/2+x,1/2+y,1/2-z
1/2-x,1/2+y,1/2+z
1/2+x,1/2-y,1/2+z
loop_
_atom_site_type_symbol
_atom_site_label
_atom_site_fract_x
_atom_site_fract_y
_atom_site_fract_z
Si Si1 0.276219 0.803301 0.053903
Si Si2 0.746806 0.867024 0.637926
Si Si3 0.401418 0.367149 0.790702
Si Si4 0.594454 0.500000 0.346132
Si Si5 0.097428 0.500000 0.557013
Si Si6 0.397771 0.263041 0.309143
Si Si7 0.863462 0.000000 0.050305
O O1 0.256690 0.705176 0.090541
O O2 0.353109 0.885700 0.070703
O O3 0.196785 0.889846 0.051764
O O4 0.292783 0.765360 0.000000
O O5 0.830433 0.845800 0.670152
O O6 0.663166 0.829480 0.667636
O O7 0.742551 0.000000 0.627751
O O8 0.500000 0.355012 0.806977
O O9 0.391781 0.500000 0.775864
O O10 0.389244 0.284556 0.746365
O O11 0.500000 0.500000 0.323534
O O12 0.634245 0.617693 0.331019
O O13 0.586979 0.500000 0.401695
O O14 0.100385 0.500000 0.500000
O O15 0.000000 0.500000 0.572667
O O16 0.500000 0.247345 0.319405
O O17 0.907619 0.000000 0.000000
#
# Coordination Sequence:
#
# PCOD9517427 Si02
#       7
#    16  16  16   8   8  16   8
#     4   9  18  32  50  73 102 135 172 215 258 303
#     4  11  22  33  51  77 104 145 182 205 248 308
#     4   9  18  34  54  77 102 128 166 217 267 313
#     4  10  17  28  53  80  95 124 165 210 269 311
#     4   8  15  30  54  79 100 129 169 217 274 315
#     4  10  19  34  55  76 101 132 171 218 264 312
#     4   9  16  30  50  72  99 125 159 216 267 293
#
# _framework density 16.673598999999999
#
# number of rings (size 3 to 8) (size 9 to 14) (size 15 to 20)
#    0.000    2.455    2.727    1.636    0.000    1.636 
#    0.000    0.000    2.000    0.545    0.000    6.364 
#    0.000    0.000    0.000    0.000    0.000    0.000 
#
# Total GULP energy -244946.513802 kJ/mol
# GULP energy per Si atom -5566.966223 kJ/mol
# Density = 1.663565 g / cm^3
# Si number density = 16.673599 Si / 1000 Ang^3
#
#
#
# Elastic Constant Matrix: (Units=GPa)
#
#
# Indices 1 2 3 4 5 6 
#
# 1 93.0898 49.2214 45.2479 0.0000 0.0000 0.0000
# 2 49.2214 102.2465 58.3894 0.0000 0.0000 0.0000
# 3 45.2479 58.3894 95.4340 0.0000 0.0000 0.0000
# 4 0.0000 0.0000 0.0000 87.9193 0.0000 0.0000
# 5 0.0000 0.0000 0.0000 0.0000 18.9008 0.0000
# 6 0.0000 0.0000 0.0000 0.0000 0.0000 25.1322
#
#
#
# Elastic Compliance Matrix: (Units=1/GPa)
#
#
# Indices 1 2 3 4 5 6 
#
# 1 0.015465 -0.005007 -0.004269 0.000000 0.000000 0.000000
# 2 -0.005007 0.016654 -0.007815 0.000000 0.000000 0.000000
# 3 -0.004269 -0.007815 0.017284 0.000000 0.000000 0.000000
# 4 0.000000 0.000000 0.000000 0.011374 0.000000 0.000000
# 5 0.000000 0.000000 0.000000 0.000000 0.052908 0.000000
# 6 0.000000 0.000000 0.000000 0.000000 0.000000 0.039790
#
#
# Mechanical properties :
#
#
# Convention : Reuss Voigt Hill
#
# Bulk Modulus (GPa) = 65.70177 66.27640 65.98908
# Shear Modulus (GPa) = 25.94312 35.58456 30.76384
#
# Velocity S-wave (km/s) = 3.94882 4.62474 4.30008
# Velocity P-wave (km/s) = 7.76409 8.26760 8.01980
#
# Compressibility (1/GPa) = 0.01522029
#
# Stress axis : x y z
#
# Youngs Moduli (GPa) = 64.66349 60.04696 57.85677
#
# Poissons Ratio (x) = 0.30065 0.24698
# Poissons Ratio (y) = 0.32376 0.45217
# Poissons Ratio (z) = 0.27604 0.46928
#
# Static dielectric constant tensor:
#      x y z
#    x 1.568280 0.000000 0.000000 
#    y 0.000000 1.556660 0.000000 
#    z 0.000000 0.000000 1.571310 
# 
# From -- ./inp_files/69853.got.cif
#   From: 2010.05.17/outbox.cif.g08.bks.cpg/sg71_35_cif.got.tgz:69853.got - 2010.06.03 16:22:01.
