data_PCOD9517207
_publ_section_title
;
Structure prediction by ZEFSAII (Michael W. Deem and Ramdas Pophale) SiO2 
 PCOD9517207
Probable space group: F D D D
;
_chemical_formula_sum "Si O2"
_cell_formula_units_Z 48
_cell_length_a 27.000000
_cell_length_b 12.000000
_cell_length_c 30.000000
_cell_angle_alpha 90.000000
_cell_angle_beta 90.000000
_cell_angle_gamma 90.000000
_cell_volume 9720.000000
_symmetry_space_group_name_H-M "F D D D"
_symmetry_group_IT_number 70
_space_group.IT_coordinate_system_code '2'
_symmetry_cell_setting 'orthorhombic'
loop_
_space_group_symop_operation_xyz
x,y,z
1/4-x,1/4-y,z
x,1/4-y,1/4-z
1/4-x,y,1/4-z
-x,-y,-z
3/4+x,3/4+y,-z
-x,3/4+y,3/4+z
3/4+x,-y,3/4+z
x,1/2+y,1/2+z
1/4-x,3/4-y,1/2+z
x,3/4-y,3/4-z
1/4-x,1/2+y,3/4-z
-x,1/2-y,1/2-z
3/4+x,1/4+y,1/2-z
-x,1/4+y,1/4+z
3/4+x,1/2-y,1/4+z
1/2+x,y,1/2+z
3/4-x,1/4-y,1/2+z
1/2+x,1/4-y,3/4-z
3/4-x,y,3/4-z
1/2-x,-y,1/2-z
1/4+x,3/4+y,1/2-z
1/2-x,3/4+y,1/4+z
1/4+x,-y,1/4+z
1/2+x,1/2+y,z
3/4-x,3/4-y,z
1/2+x,3/4-y,1/4-z
3/4-x,1/2+y,1/4-z
1/2-x,1/2-y,-z
1/4+x,1/4+y,-z
1/2-x,1/4+y,3/4+z
1/4+x,1/2-y,3/4+z
loop_
_atom_site_type_symbol
_atom_site_label
_atom_site_fract_x
_atom_site_fract_y
_atom_site_fract_z
Si Si1 0.484926 0.705093 0.450992
Si Si2 0.829894 0.959542 0.191961
Si Si3 0.484926 0.044907 0.799008
Si Si4 0.722081 0.375000 0.875000
Si Si5 0.670106 0.209542 0.441961
Si Si6 0.375000 0.125000 0.767581
Si Si7 0.777919 0.625000 0.125000
O O1 0.527310 0.608142 0.446317
O O2 0.500000 0.750000 0.500000
O O3 0.425586 0.668433 0.455456
O O4 0.496357 0.795531 0.410499
O O5 0.875000 0.875000 0.180445
O O6 0.814034 0.048480 0.154736
O O7 0.851298 0.028275 0.235229
O O8 0.527310 0.141858 0.803683
O O9 0.425586 0.081567 0.794544
O O10 0.496358 0.954469 0.839501
O O11 0.625000 0.125000 0.430445
O O12 0.648702 0.278275 0.485229
O O13 0.685966 0.298480 0.404736
#
# Coordination Sequence:
#
# PCOD9517207 Si02
#       7
#    32  32  32  16  32  32  16
#     4  12  26  49  76 107 149 197 251 311 379 453
#     4  12  25  47  77 110 147 192 254 313 376 447
#     4  12  26  49  76 107 149 197 251 311 379 453
#     4  12  28  47  73 114 152 194 253 315 380 454
#     4  12  25  47  77 110 147 192 254 313 376 447
#     4  12  26  47  79 108 150 200 248 312 382 450
#     4  12  28  47  73 114 152 194 253 315 380 454
#
# _framework density 4.9382720000000004
#
# number of rings (size 3 to 8) (size 9 to 14) (size 15 to 20)
#    0.000    0.000    6.667    2.000    0.000   10.000 
#    0.000    5.000    0.000    0.000    0.000    0.000 
#    0.000    0.000    0.000    0.000    0.000    0.000 
#
# Total GULP energy -267762.815213 kJ/mol
# GULP energy per Si atom -5578.391984 kJ/mol
# Density = 0.492703 g / cm^3
# Si number density = 4.938272 Si / 1000 Ang^3
#
#
#
# Elastic Constant Matrix: (Units=GPa)
#
#
# Indices 1 2 3 4 5 6 
#
# 1 226.3023 81.3890 62.3908 0.0000 0.0000 0.0000
# 2 81.3890 138.3510 68.1418 0.0000 0.0000 0.0000
# 3 62.3908 68.1418 120.4382 0.0000 0.0000 0.0000
# 4 0.0000 0.0000 0.0000 58.5296 0.0000 0.0000
# 5 0.0000 0.0000 0.0000 0.0000 44.2569 0.0000
# 6 0.0000 0.0000 0.0000 0.0000 0.0000 53.0851
#
#
#
# Elastic Compliance Matrix: (Units=1/GPa)
#
#
# Indices 1 2 3 4 5 6 
#
# 1 0.005791 -0.002674 -0.001487 0.000000 0.000000 0.000000
# 2 -0.002674 0.011255 -0.004983 0.000000 0.000000 0.000000
# 3 -0.001487 -0.004983 0.011892 0.000000 0.000000 0.000000
# 4 0.000000 0.000000 0.000000 0.017085 0.000000 0.000000
# 5 0.000000 0.000000 0.000000 0.000000 0.022595 0.000000
# 6 0.000000 0.000000 0.000000 0.000000 0.000000 0.018838
#
#
# Mechanical properties :
#
#
# Convention : Reuss Voigt Hill
#
# Bulk Modulus (GPa) = 93.88857 100.99276 97.44067
# Shear Modulus (GPa) = 45.74818 49.38565 47.56691
#
# Velocity S-wave (km/s) = 4.81771 5.00557 4.91254
# Velocity P-wave (km/s) = 8.86461 9.20034 9.03404
#
# Compressibility (1/GPa) = 0.01065092
#
# Stress axis : x y z
#
# Youngs Moduli (GPa) = 172.69650 88.84691 84.08820
#
# Poissons Ratio (x) = 0.23760 0.12501
# Poissons Ratio (y) = 0.46183 0.41899
# Poissons Ratio (z) = 0.25674 0.44270
#
# Static dielectric constant tensor:
#      x y z
#    x 1.704610 0.000000 0.000000 
#    y 0.000000 1.798490 0.000000 
#    z 0.000000 0.000000 1.739540 
# 
# From -- ./inp_files/68408.got.cif
#   From: 2010.05.17/outbox.ucp.g08.bks.cvg/sg70_35_cif.got.tgz:68408.got - 2010.06.11 16:26:41.
