data_PCOD9517666
_publ_section_title
;
Structure prediction by ZEFSAII (Michael W. Deem and Ramdas Pophale) SiO2 
 PCOD9517666
Probable space group: I M M M
;
_chemical_formula_sum "Si O2"
_cell_formula_units_Z 104
_cell_length_a 25.311590
_cell_length_b 28.508019
_cell_length_c 7.673765
_cell_angle_alpha 90.000000
_cell_angle_beta 90.000000
_cell_angle_gamma 90.000000
_cell_volume 5537.260585
_symmetry_space_group_name_H-M "I M M M"
_symmetry_group_IT_number 71
_symmetry_cell_setting 'orthorhombic'
loop_
_space_group_symop_operation_xyz
x,y,z
-x,-y,z
x,-y,-z
-x,y,-z
-x,-y,-z
x,y,-z
-x,y,z
x,-y,z
1/2+x,1/2+y,1/2+z
1/2-x,1/2-y,1/2+z
1/2+x,1/2-y,1/2-z
1/2-x,1/2+y,1/2-z
1/2-x,1/2-y,1/2-z
1/2+x,1/2+y,1/2-z
1/2-x,1/2+y,1/2+z
1/2+x,1/2-y,1/2+z
loop_
_atom_site_type_symbol
_atom_site_label
_atom_site_fract_x
_atom_site_fract_y
_atom_site_fract_z
Si Si1 0.107101 0.146152 0.798406
Si Si2 0.181211 0.307336 0.297584
Si Si3 0.000000 0.806822 0.787715
Si Si4 0.000000 0.698327 0.789199
Si Si5 0.409770 0.872477 0.201537
Si Si6 0.500000 0.055331 0.786551
Si Si7 0.702292 0.704713 0.199437
Si Si8 0.560132 0.553109 0.789518
O O1 0.053140 0.168388 0.725514
O O2 0.157445 0.166263 0.704223
O O3 0.099785 0.090897 0.783614
O O4 0.112136 0.159983 0.000000
O O5 0.164754 0.304678 0.500000
O O6 0.144674 0.349502 0.223083
O O7 0.244338 0.314134 0.286861
O O8 0.178018 0.253655 0.225773
O O9 0.000000 0.752492 0.741307
O O10 0.000000 0.810474 0.000000
O O11 0.949435 0.671502 0.715675
O O12 0.000000 0.694443 0.000000
O O13 0.447087 0.915447 0.271667
O O14 0.399324 0.885455 0.000000
O O15 0.500000 0.000000 0.737865
O O16 0.500000 0.057471 0.000000
O O17 0.717359 0.715351 0.000000
O O18 0.500000 0.564296 0.732609
O O19 0.571538 0.500000 0.737217
O O20 0.560837 0.555141 0.000000
#
# Coordination Sequence:
#
# PCOD9517666 Si02
#       8
#    16  16   8   8  16   8  16  16
#     4  11  20  32  48  69  97 127 161 199 242 290
#     4   9  18  33  50  69  93 127 167 204 242 287
#     4   9  19  30  41  64  97 128 155 190 235 283
#     4  10  18  28  43  66  97 129 157 185 229 284
#     4   9  17  30  48  69  95 124 158 196 236 285
#     4   8  14  26  47  75 101 124 151 188 236 286
#     4  10  20  32  48  70  96 126 164 204 246 292
#     4   9  18  33  51  70  93 121 155 196 242 290
#
# _framework density 18.781849999999999
#
# number of rings (size 3 to 8) (size 9 to 14) (size 15 to 20)
#    0.000    2.538    0.769    3.000    0.000    1.538 
#    0.000    3.077    0.000    4.615    0.000    2.154 
#    0.000    0.000    0.000    0.000    0.000    0.000 
#
# Total GULP energy -289627.093480 kJ/mol
# GULP energy per Si atom -5569.751798 kJ/mol
# Density = 1.873910 g / cm^3
# Si number density = 18.781850 Si / 1000 Ang^3
#
#
#
# Elastic Constant Matrix: (Units=GPa)
#
#
# Indices 1 2 3 4 5 6 
#
# 1 107.9769 67.7707 2.0027 0.0000 0.0000 0.0000
# 2 67.7707 121.4904 0.7002 0.0000 0.0000 0.0000
# 3 2.0027 0.7002 38.5608 0.0000 0.0000 0.0000
# 4 0.0000 0.0000 0.0000 16.2359 0.0000 0.0000
# 5 0.0000 0.0000 0.0000 0.0000 -14.4759 0.0000
# 6 0.0000 0.0000 0.0000 0.0000 0.0000 29.5762
#
#
#
# Elastic Compliance Matrix: (Units=1/GPa)
#
#
# Indices 1 2 3 4 5 6 
#
# 1 0.014264 -0.007954 -0.000596 0.000000 0.000000 0.000000
# 2 -0.007954 0.012667 0.000183 0.000000 0.000000 0.000000
# 3 -0.000596 0.000183 0.025961 0.000000 0.000000 0.000000
# 4 0.000000 0.000000 0.000000 0.061592 0.000000 0.000000
# 5 0.000000 0.000000 0.000000 0.000000 -0.069080 0.000000
# 6 0.000000 0.000000 0.000000 0.000000 0.000000 0.033811
#
#
# Mechanical properties :
#
#
# Convention : Reuss Voigt Hill
#
# Bulk Modulus (GPa) = 27.65644 45.44170 36.54907
# Shear Modulus (GPa) = 46.29596 19.43755 32.86676
#
# Velocity S-wave (km/s) = 4.97019 3.22049 4.18774
# Velocity P-wave (km/s) = 6.90609 6.17056 6.54866
#
# Compressibility (1/GPa) = 0.03615795
#
# Stress axis : x y z
#
# Youngs Moduli (GPa) = 70.10517 78.94676 38.51977
#
# Poissons Ratio (x) = 0.62791 0.02297
# Poissons Ratio (y) = 0.55759 -0.00705
# Poissons Ratio (z) = 0.04181 -0.01445
#
# Static dielectric constant tensor:
#      x y z
#    x 1.657460 0.000000 0.000000 
#    y 0.000000 1.655420 0.000000 
#    z 0.000000 0.000000 1.726000 
# 
# From -- ./inp_files/13664.got.cif
#   From: 2010.05.17/outbox.cif.g08.bks.cpg/sg71_7_cif.got.tgz:13664.got - 2010.06.03 16:22:01.
