data_PCOD9517597
_publ_section_title
;
Structure prediction by ZEFSAII (Michael W. Deem and Ramdas Pophale) SiO2 
 PCOD9517597
Probable space group: I M M M
;
_chemical_formula_sum "Si O2"
_cell_formula_units_Z 112
_cell_length_a 30.793361
_cell_length_b 17.538186
_cell_length_c 13.758450
_cell_angle_alpha 90.000000
_cell_angle_beta 90.000000
_cell_angle_gamma 90.000000
_cell_volume 7430.384280
_symmetry_space_group_name_H-M "I M M M"
_symmetry_group_IT_number 71
_symmetry_cell_setting 'orthorhombic'
loop_
_space_group_symop_operation_xyz
x,y,z
-x,-y,z
x,-y,-z
-x,y,-z
-x,-y,-z
x,y,-z
-x,y,z
x,-y,z
1/2+x,1/2+y,1/2+z
1/2-x,1/2-y,1/2+z
1/2+x,1/2-y,1/2-z
1/2-x,1/2+y,1/2-z
1/2-x,1/2-y,1/2-z
1/2+x,1/2+y,1/2-z
1/2-x,1/2+y,1/2+z
1/2+x,1/2-y,1/2+z
loop_
_atom_site_type_symbol
_atom_site_label
_atom_site_fract_x
_atom_site_fract_y
_atom_site_fract_z
Si Si1 0.333752 0.911824 0.803785
Si Si2 0.449889 0.500000 0.141341
Si Si3 0.715141 0.909649 0.388716
Si Si4 0.303032 0.646707 0.197345
Si Si5 0.762942 0.090517 0.888306
Si Si6 0.631844 0.766006 0.115815
Si Si7 0.651167 0.500000 0.108986
Si Si8 0.951607 0.835603 0.384326
O O1 0.321737 0.895633 0.691361
O O2 0.287831 0.901748 0.860525
O O3 0.367196 0.852159 0.847246
O O4 0.346625 0.000000 0.813550
O O5 0.500000 0.500000 0.099779
O O6 0.400786 0.500000 0.099914
O O7 0.449205 0.587212 0.179597
O O8 0.702591 0.896869 0.500000
O O9 0.757708 0.862004 0.360344
O O10 0.726940 0.000000 0.377218
O O11 0.290628 0.637106 0.310044
O O12 0.329065 0.721720 0.168987
O O13 0.332321 0.575129 0.163360
O O14 0.772923 0.000000 0.876410
O O15 0.769998 0.111914 0.000000
O O16 0.587099 0.721842 0.136551
O O17 0.638983 0.762559 0.000000
O O18 0.670020 0.500000 0.000000
O O19 0.947261 0.858797 0.500000
O O20 0.000000 0.802818 0.374086
#
# Coordination Sequence:
#
# PCOD9517597 Si02
#       8
#    16   8  16  16  16  16   8  16
#     4   9  19  34  48  63  82 116 160 191 221 268
#     4  10  18  27  42  65  94 126 150 171 212 270
#     4   9  16  28  46  66  92 121 145 178 224 267
#     4  11  19  28  41  68  92 118 153 185 220 265
#     4   9  17  31  47  61  86 124 160 191 221 254
#     4  11  21  30  44  66  91 117 148 190 226 260
#     4  12  18  25  41  63  96 126 145 175 216 268
#     4   9  17  28  42  63  92 121 144 170 214 268
#
# _framework density 15.073245
#
# number of rings (size 3 to 8) (size 9 to 14) (size 15 to 20)
#    0.000    2.143    2.857    3.214    0.000    4.714 
#    0.000    2.143    0.000    0.429    0.000    2.000 
#    0.000    4.571    0.000    3.571    0.000    0.000 
#
# Total GULP energy -311746.041037 kJ/mol
# GULP energy per Si atom -5566.893590 kJ/mol
# Density = 1.503894 g / cm^3
# Si number density = 15.073245 Si / 1000 Ang^3
#
#
#
# Elastic Constant Matrix: (Units=GPa)
#
#
# Indices 1 2 3 4 5 6 
#
# 1 52.9290 40.7170 23.9165 0.0000 0.0000 0.0000
# 2 40.7170 79.3182 29.0948 0.0000 0.0000 0.0000
# 3 23.9165 29.0948 91.1887 0.0000 0.0000 0.0000
# 4 0.0000 0.0000 0.0000 17.4879 0.0000 0.0000
# 5 0.0000 0.0000 0.0000 0.0000 7.7942 0.0000
# 6 0.0000 0.0000 0.0000 0.0000 0.0000 16.0929
#
#
#
# Elastic Compliance Matrix: (Units=1/GPa)
#
#
# Indices 1 2 3 4 5 6 
#
# 1 0.032231 -0.015227 -0.003595 0.000000 0.000000 0.000000
# 2 -0.015227 0.021472 -0.002857 0.000000 0.000000 0.000000
# 3 -0.003595 -0.002857 0.012821 0.000000 0.000000 0.000000
# 4 0.000000 0.000000 0.000000 0.057182 0.000000 0.000000
# 5 0.000000 0.000000 0.000000 0.000000 0.128301 0.000000
# 6 0.000000 0.000000 0.000000 0.000000 0.000000 0.062139
#
#
# Mechanical properties :
#
#
# Convention : Reuss Voigt Hill
#
# Bulk Modulus (GPa) = 43.16732 45.65471 44.41102
# Shear Modulus (GPa) = 13.69013 16.92219 15.30616
#
# Velocity S-wave (km/s) = 3.01697 3.35425 3.19007
# Velocity P-wave (km/s) = 6.39036 6.73466 6.56477
#
# Compressibility (1/GPa) = 0.02316567
#
# Stress axis : x y z
#
# Youngs Moduli (GPa) = 31.02573 46.57224 77.99802
#
# Poissons Ratio (x) = 0.70915 0.28042
# Poissons Ratio (y) = 0.47242 0.22286
# Poissons Ratio (z) = 0.11154 0.13307
#
# Static dielectric constant tensor:
#      x y z
#    x 1.486250 0.000000 0.000000 
#    y 0.000000 1.534300 0.000000 
#    z 0.000000 0.000000 1.503200 
# 
# From -- ./inp_files/41210.got.cif
#   From: 2010.05.17/outbox.cif.g08.bks.cpg/sg71_21_cif.got.tgz:41210.got - 2010.06.03 16:22:01.
