data_PCOD9518530
_publ_section_title
;
Structure prediction by ZEFSAII (Michael W. Deem and Ramdas Pophale) SiO2 
 PCOD9518530
Probable space group: I M M M
;
_chemical_formula_sum "Si O2"
_cell_formula_units_Z 88
_cell_length_a 18.117814
_cell_length_b 16.389572
_cell_length_c 16.759226
_cell_angle_alpha 90.000000
_cell_angle_beta 90.000000
_cell_angle_gamma 90.000000
_cell_volume 4976.538483
_symmetry_space_group_name_H-M "I M M M"
_symmetry_group_IT_number 71
_symmetry_cell_setting 'orthorhombic'
loop_
_space_group_symop_operation_xyz
x,y,z
-x,-y,z
x,-y,-z
-x,y,-z
-x,-y,-z
x,y,-z
-x,y,z
x,-y,z
1/2+x,1/2+y,1/2+z
1/2-x,1/2-y,1/2+z
1/2+x,1/2-y,1/2-z
1/2-x,1/2+y,1/2-z
1/2-x,1/2-y,1/2-z
1/2+x,1/2+y,1/2-z
1/2-x,1/2+y,1/2+z
1/2+x,1/2-y,1/2+z
loop_
_atom_site_type_symbol
_atom_site_label
_atom_site_fract_x
_atom_site_fract_y
_atom_site_fract_z
Si Si1 0.243702 0.136580 0.087902
Si Si2 0.089607 0.098714 0.500000
Si Si3 0.080210 0.186354 0.089172
Si Si4 0.776667 0.589770 0.762655
Si Si5 0.669631 0.704520 0.862974
Si Si6 0.582893 0.810681 0.735572
O O1 0.154839 0.135086 0.094233
O O2 0.271549 0.092683 0.166809
O O3 0.276040 0.229139 0.095483
O O4 0.264919 0.105764 0.000000
O O5 0.127277 0.144778 0.424184
O O6 0.000000 0.109937 0.500000
O O7 0.103067 0.000000 0.500000
O O8 0.083334 0.252296 0.158652
O O9 0.000000 0.143550 0.096571
O O10 0.082097 0.223473 0.000000
O O11 0.760068 0.500000 0.792861
O O12 0.719833 0.653211 0.801561
O O13 0.859067 0.618473 0.781225
O O14 0.612713 0.757457 0.810070
O O15 0.500000 0.838979 0.750665
#
# Coordination Sequence:
#
# PCOD9518530 Si02
#       6
#    16   8  16  16  16  16
#     4  10  18  34  58  78 102 140 185 221 260 313
#     4  11  24  38  54  78 108 138 170 217 282 332
#     4   9  16  28  51  81 105 126 165 217 260 306
#     4  11  22  35  52  80 114 142 175 220 272 326
#     4  11  19  37  54  81 101 137 183 225 263 309
#     4  10  19  34  57  79 104 141 184 224 262 314
#
# _framework density 17.682974000000002
#
# number of rings (size 3 to 8) (size 9 to 14) (size 15 to 20)
#    0.000    1.727    4.545    2.182    0.000    0.727 
#    0.000    0.000    0.000    1.636    0.000    7.636 
#    0.000    0.000    0.000    0.000    0.000    0.000 
#
# Total GULP energy -245087.217202 kJ/mol
# GULP energy per Si atom -5570.164027 kJ/mol
# Density = 1.764273 g / cm^3
# Si number density = 17.682974 Si / 1000 Ang^3
#
#
#
# Elastic Constant Matrix: (Units=GPa)
#
#
# Indices 1 2 3 4 5 6 
#
# 1 90.3712 3.0073 1.2647 0.0000 0.0000 0.0000
# 2 3.0073 45.2622 -6.0486 0.0000 0.0000 0.0000
# 3 1.2647 -6.0486 58.4498 0.0000 0.0000 0.0000
# 4 0.0000 0.0000 0.0000 7.9987 0.0000 0.0000
# 5 0.0000 0.0000 0.0000 0.0000 26.8841 0.0000
# 6 0.0000 0.0000 0.0000 0.0000 0.0000 13.4868
#
#
#
# Elastic Compliance Matrix: (Units=1/GPa)
#
#
# Indices 1 2 3 4 5 6 
#
# 1 0.011096 -0.000780 -0.000321 0.000000 0.000000 0.000000
# 2 -0.000780 0.022458 0.002341 0.000000 0.000000 0.000000
# 3 -0.000321 0.002341 0.017358 0.000000 0.000000 0.000000
# 4 0.000000 0.000000 0.000000 0.125020 0.000000 0.000000
# 5 0.000000 0.000000 0.000000 0.000000 0.037197 0.000000
# 6 0.000000 0.000000 0.000000 0.000000 0.000000 0.074147
#
#
# Mechanical properties :
#
#
# Convention : Reuss Voigt Hill
#
# Bulk Modulus (GPa) = 18.72940 21.17000 19.94970
# Shear Modulus (GPa) = 16.52386 22.73125 19.62756
#
# Velocity S-wave (km/s) = 3.06019 3.58926 3.33523
# Velocity P-wave (km/s) = 4.80637 5.40139 5.11254
#
# Compressibility (1/GPa) = 0.05339199
#
# Stress axis : x y z
#
# Youngs Moduli (GPa) = 90.12319 44.52728 57.61067
#
# Poissons Ratio (x) = 0.03474 0.01848
# Poissons Ratio (y) = 0.07031 -0.13486
# Poissons Ratio (z) = 0.02891 -0.10424
#
# Static dielectric constant tensor:
#      x y z
#    x 1.618950 0.000000 0.000000 
#    y 0.000000 1.588850 0.000000 
#    z 0.000000 0.000000 1.611330 
# 
# From -- ./inp_files/36353.got.cif
#   From: 2010.05.17/outbox.cif.g08.bks.cpg/sg71_19_cif.got.tgz:36353.got - 2010.06.03 16:22:01.
