data_PCOD9518503
_publ_section_title
;
Structure prediction by ZEFSAII (Michael W. Deem and Ramdas Pophale) SiO2 
 PCOD9518503
Probable space group: I M M M
;
_chemical_formula_sum "Si O2"
_cell_formula_units_Z 96
_cell_length_a 12.733750
_cell_length_b 16.151651
_cell_length_c 24.469449
_cell_angle_alpha 90.000000
_cell_angle_beta 90.000000
_cell_angle_gamma 90.000000
_cell_volume 5032.658148
_symmetry_space_group_name_H-M "I M M M"
_symmetry_group_IT_number 71
_symmetry_cell_setting 'orthorhombic'
loop_
_space_group_symop_operation_xyz
x,y,z
-x,-y,z
x,-y,-z
-x,y,-z
-x,-y,-z
x,y,-z
-x,y,z
x,-y,z
1/2+x,1/2+y,1/2+z
1/2-x,1/2-y,1/2+z
1/2+x,1/2-y,1/2-z
1/2-x,1/2+y,1/2-z
1/2-x,1/2-y,1/2-z
1/2+x,1/2+y,1/2-z
1/2-x,1/2+y,1/2+z
1/2+x,1/2-y,1/2+z
loop_
_atom_site_type_symbol
_atom_site_label
_atom_site_fract_x
_atom_site_fract_y
_atom_site_fract_z
Si Si1 0.115116 0.097521 0.319808
Si Si2 0.617500 0.900380 0.143772
Si Si3 0.772530 0.186107 0.062456
Si Si4 0.000000 0.401413 0.851806
Si Si5 0.679529 0.100823 0.264589
Si Si6 0.000000 0.254919 0.934640
Si Si7 0.622959 0.345821 0.940355
O O1 0.207163 0.133479 0.282843
O O2 0.139386 0.104633 0.384422
O O3 0.000000 0.134609 0.310137
O O4 0.109892 0.000000 0.307501
O O5 0.500000 0.872077 0.127251
O O6 0.708657 0.871390 0.103553
O O7 0.641108 0.870561 0.205435
O O8 0.615654 0.000000 0.144602
O O9 0.704144 0.270414 0.061595
O O10 0.892232 0.206452 0.078891
O O11 0.773528 0.153714 0.000000
O O12 0.900686 0.381816 0.813379
O O13 0.000000 0.342363 0.903777
O O14 0.000000 0.500000 0.864342
O O15 0.683359 0.000000 0.261322
O O16 0.000000 0.267602 0.000000
O O17 0.500000 0.319033 0.939109
O O18 0.637312 0.387890 0.000000
#
# Coordination Sequence:
#
# PCOD9518503 Si02
#       7
#    16  16  16   8  16   8  16
#     4   9  17  29  46  71 105 143 182 219 257 315
#     4  10  20  37  62  86 106 132 176 233 286 335
#     4  10  21  38  57  77 109 146 175 218 279 333
#     4  10  18  33  60  85 108 148 196 234 271 311
#     4   9  17  32  53  77 106 139 174 223 280 323
#     4  10  22  39  55  78 118 158 188 222 269 325
#     4   9  17  30  49  73 102 138 178 222 275 320
#
# _framework density 19.075406000000001
#
# number of rings (size 3 to 8) (size 9 to 14) (size 15 to 20)
#    0.000    2.500    0.833    1.500    0.000    1.833 
#    1.500    6.250    0.000    7.500    0.000    0.000 
#    0.000    0.000    0.000    0.000    0.000    0.000 
#
# Total GULP energy -267507.357558 kJ/mol
# GULP energy per Si atom -5573.069949 kJ/mol
# Density = 1.903199 g / cm^3
# Si number density = 19.075406 Si / 1000 Ang^3
#
#
#
# Elastic Constant Matrix: (Units=GPa)
#
#
# Indices 1 2 3 4 5 6 
#
# 1 145.4803 31.6034 64.1860 0.0000 0.0000 0.0000
# 2 31.6034 21.4215 27.9283 0.0000 0.0000 0.0000
# 3 64.1860 27.9283 75.5910 0.0000 0.0000 0.0000
# 4 0.0000 0.0000 0.0000 38.0677 0.0000 0.0000
# 5 0.0000 0.0000 0.0000 0.0000 23.8353 0.0000
# 6 0.0000 0.0000 0.0000 0.0000 0.0000 14.3973
#
#
#
# Elastic Compliance Matrix: (Units=1/GPa)
#
#
# Indices 1 2 3 4 5 6 
#
# 1 0.011713 -0.008322 -0.006871 0.000000 0.000000 0.000000
# 2 -0.008322 0.095980 -0.028394 0.000000 0.000000 0.000000
# 3 -0.006871 -0.028394 0.029554 0.000000 0.000000 0.000000
# 4 0.000000 0.000000 0.000000 0.026269 0.000000 0.000000
# 5 0.000000 0.000000 0.000000 0.000000 0.041955 0.000000
# 6 0.000000 0.000000 0.000000 0.000000 0.000000 0.069458
#
#
# Mechanical properties :
#
#
# Convention : Reuss Voigt Hill
#
# Bulk Modulus (GPa) = 19.97160 54.43647 37.20404
# Shear Modulus (GPa) = 13.19977 23.17839 18.18908
#
# Velocity S-wave (km/s) = 2.63340 3.48960 3.09129
# Velocity P-wave (km/s) = 4.44285 6.69596 5.68220
#
# Compressibility (1/GPa) = 0.05007111
#
# Stress axis : x y z
#
# Youngs Moduli (GPa) = 85.37327 10.41889 33.83604
#
# Poissons Ratio (x) = 0.08671 0.23249
# Poissons Ratio (y) = 0.71052 0.96075
# Poissons Ratio (z) = 0.58661 0.29584
#
# Static dielectric constant tensor:
#      x y z
#    x 1.695220 0.000000 0.000000 
#    y 0.000000 1.655200 0.000000 
#    z 0.000000 0.000000 1.661090 
# 
# From -- ./inp_files/52032.got.cif
#   From: 2010.05.17/outbox.cif.g08.bks.cpg/sg71_27_cif.got.tgz:52032.got - 2010.06.03 16:22:01.
