data_PCOD9518682
_publ_section_title
;
Structure prediction by ZEFSAII (Michael W. Deem and Ramdas Pophale) SiO2 
 PCOD9518682
Probable space group: I M M M
;
_chemical_formula_sum "Si O2"
_cell_formula_units_Z 96
_cell_length_a 13.200216
_cell_length_b 13.737937
_cell_length_c 19.603571
_cell_angle_alpha 90.000000
_cell_angle_beta 90.000000
_cell_angle_gamma 90.000000
_cell_volume 3554.984800
_symmetry_space_group_name_H-M "I M M M"
_symmetry_group_IT_number 71
_symmetry_cell_setting 'orthorhombic'
loop_
_space_group_symop_operation_xyz
x,y,z
-x,-y,z
x,-y,-z
-x,y,-z
-x,-y,-z
x,y,-z
-x,y,z
x,-y,z
1/2+x,1/2+y,1/2+z
1/2-x,1/2-y,1/2+z
1/2+x,1/2-y,1/2-z
1/2-x,1/2+y,1/2-z
1/2-x,1/2-y,1/2-z
1/2+x,1/2+y,1/2-z
1/2-x,1/2+y,1/2+z
1/2+x,1/2-y,1/2+z
loop_
_atom_site_type_symbol
_atom_site_label
_atom_site_fract_x
_atom_site_fract_y
_atom_site_fract_z
Si Si1 0.877884 0.675394 0.778303
Si Si2 0.880288 0.325318 0.625673
Si Si3 0.615408 0.602765 0.721217
Si Si4 0.167804 0.136372 0.072889
Si Si5 0.880187 0.109056 0.420060
Si Si6 0.381623 0.864686 0.424484
O O1 0.865348 0.634148 0.702380
O O2 0.842092 0.788388 0.771210
O O3 0.842601 0.618006 0.846382
O O4 0.000000 0.683444 0.787810
O O5 0.789948 0.370511 0.581490
O O6 0.857728 0.208276 0.620856
O O7 0.000000 0.338151 0.606909
O O8 0.500000 0.606000 0.747403
O O9 0.659654 0.500000 0.747793
O O10 0.617196 0.595504 0.639763
O O11 0.135233 0.249270 0.073057
O O12 0.136733 0.098638 0.000000
O O13 0.862958 0.132357 0.500000
O O14 0.000000 0.099061 0.412163
O O15 0.837598 0.000000 0.406944
O O16 0.344561 0.898576 0.500000
O O17 0.500000 0.889503 0.424073
#
# Coordination Sequence:
#
# PCOD9518682 Si02
#       6
#    16  16  16  16  16  16
#     4   8  15  27  43  64  88 116 148 179 223 283
#     4  10  19  29  43  66  97 129 159 193 231 276
#     4   9  18  32  49  70  96 122 152 201 260 305
#     4  10  19  29  44  66  92 126 165 199 237 287
#     4   8  14  25  40  57  80 114 153 189 227 269
#     4   8  14  26  42  59  82 109 139 181 228 273
#
# _framework density 27.004335000000001
#
# number of rings (size 3 to 8) (size 9 to 14) (size 15 to 20)
#    0.000    3.167    0.000    2.500    0.000    5.667 
#    0.000    4.167    0.000    0.500    0.000    1.167 
#    0.000    2.667    0.000   17.500    0.000    0.667 
#
# Total GULP energy -267559.554729 kJ/mol
# GULP energy per Si atom -5574.157390 kJ/mol
# Density = 2.694287 g / cm^3
# Si number density = 27.004335 Si / 1000 Ang^3
#
#
#
# Elastic Constant Matrix: (Units=GPa)
#
#
# Indices 1 2 3 4 5 6 
#
# 1 131.6057 17.5566 -7.9865 0.0000 0.0000 0.0000
# 2 17.5566 100.5720 32.4424 0.0000 0.0000 0.0000
# 3 -7.9865 32.4424 202.0133 0.0000 0.0000 0.0000
# 4 0.0000 0.0000 0.0000 -25.7069 0.0000 0.0000
# 5 0.0000 0.0000 0.0000 0.0000 16.1827 0.0000
# 6 0.0000 0.0000 0.0000 0.0000 0.0000 -106.3985
#
#
#
# Elastic Compliance Matrix: (Units=1/GPa)
#
#
# Indices 1 2 3 4 5 6 
#
# 1 0.007839 -0.001549 0.000559 0.000000 0.000000 0.000000
# 2 -0.001549 0.010792 -0.001794 0.000000 0.000000 0.000000
# 3 0.000559 -0.001794 0.005260 0.000000 0.000000 0.000000
# 4 0.000000 0.000000 0.000000 -0.038900 0.000000 0.000000
# 5 0.000000 0.000000 0.000000 0.000000 0.061795 0.000000
# 6 0.000000 0.000000 0.000000 0.000000 0.000000 -0.009399
#
#
# Mechanical properties :
#
#
# Convention : Reuss Voigt Hill
#
# Bulk Modulus (GPa) = 54.57672 57.57953 56.07813
# Shear Modulus (GPa) = 101.90766 2.96068 52.43417
#
# Velocity S-wave (km/s) = 6.14975 1.04821 4.41125
# Velocity P-wave (km/s) = 8.40715 4.77845 6.83790
#
# Compressibility (1/GPa) = 0.01832283
#
# Stress axis : x y z
#
# Youngs Moduli (GPa) = 127.56819 92.65861 190.09856
#
# Poissons Ratio (x) = 0.14349 -0.10619
# Poissons Ratio (y) = 0.19755 0.34112
# Poissons Ratio (z) = -0.07126 0.16627
#
# Static dielectric constant tensor:
#      x y z
#    x 2.099950 0.000000 0.000000 
#    y 0.000000 2.031430 0.000000 
#    z 0.000000 0.000000 2.102920 
# 
# From -- ./inp_files/52984.got.cif
#   From: 2010.05.17/outbox.cif.g08.bks.cpg/sg71_27_cif.got.tgz:52984.got - 2010.06.03 16:22:01.
