data_PCOD9518851
_publ_section_title
;
Structure prediction by ZEFSAII (Michael W. Deem and Ramdas Pophale) SiO2 
 PCOD9518851
Probable space group: I M M M
;
_chemical_formula_sum "Si O2"
_cell_formula_units_Z 112
_cell_length_a 8.658784
_cell_length_b 28.109385
_cell_length_c 27.428808
_cell_angle_alpha 90.000000
_cell_angle_beta 90.000000
_cell_angle_gamma 90.000000
_cell_volume 6675.982419
_symmetry_space_group_name_H-M "I M M M"
_symmetry_group_IT_number 71
_symmetry_cell_setting 'orthorhombic'
loop_
_space_group_symop_operation_xyz
x,y,z
-x,-y,z
x,-y,-z
-x,y,-z
-x,-y,-z
x,y,-z
-x,y,z
x,-y,z
1/2+x,1/2+y,1/2+z
1/2-x,1/2-y,1/2+z
1/2+x,1/2-y,1/2-z
1/2-x,1/2+y,1/2-z
1/2-x,1/2-y,1/2-z
1/2+x,1/2+y,1/2-z
1/2-x,1/2+y,1/2+z
1/2+x,1/2-y,1/2+z
loop_
_atom_site_type_symbol
_atom_site_label
_atom_site_fract_x
_atom_site_fract_y
_atom_site_fract_z
Si Si1 0.186077 0.101497 0.055322
Si Si2 0.684969 0.944317 0.395396
Si Si3 0.316228 0.197681 0.758287
Si Si4 0.822887 0.057555 0.500000
Si Si5 0.186903 0.948034 0.208679
Si Si6 0.685435 0.390648 0.802913
Si Si7 0.175490 0.500000 0.440822
Si Si8 0.686785 0.645551 0.349075
O O1 0.231919 0.141475 0.094419
O O2 0.000000 0.100285 0.054792
O O3 0.240521 0.049096 0.071947
O O4 0.241095 0.109741 0.000000
O O5 0.500000 0.943554 0.393621
O O6 0.740495 0.929281 0.449422
O O7 0.751339 0.909243 0.354286
O O8 0.734640 0.000000 0.387321
O O9 0.500000 0.197471 0.754139
O O10 0.250000 0.250000 0.750000
O O11 0.249073 0.158575 0.720082
O O12 0.265161 0.182202 0.812717
O O13 0.000000 0.074071 0.500000
O O14 0.823263 0.000000 0.500000
O O15 0.227901 0.931002 0.262947
O O16 0.231588 0.905764 0.173120
O O17 0.000000 0.950050 0.206624
O O18 0.248914 0.000000 0.196838
O O19 0.500000 0.387112 0.804798
O O20 0.173170 0.500000 0.500000
O O21 0.000000 0.500000 0.423072
O O22 0.500000 0.650892 0.345417
#
# Coordination Sequence:
#
# PCOD9518851 Si02
#       8
#    16  16  16   8  16  16   8  16
#     4   9  17  29  46  69  98 134 175 213 246 288
#     4  10  19  30  46  72 108 145 178 214 253 294
#     4  11  22  38  58  78 101 125 158 205 259 313
#     4   9  17  29  45  67  97 139 187 223 251 289
#     4   8  14  24  40  63  93 129 165 199 236 281
#     4  10  19  32  50  74 101 132 170 206 249 306
#     4   9  17  27  39  59  93 135 175 213 249 284
#     4   9  18  31  49  73 100 130 168 207 249 299
#
# _framework density 16.776555999999999
#
# number of rings (size 3 to 8) (size 9 to 14) (size 15 to 20)
#    0.000    2.571    0.000    3.857    1.000    3.714 
#    0.000    0.000    0.000    1.714    1.857    0.000 
#    0.000    0.000    0.000    0.000    0.000    0.000 
#
# Total GULP energy -312047.505070 kJ/mol
# GULP energy per Si atom -5572.276876 kJ/mol
# Density = 1.673837 g / cm^3
# Si number density = 16.776556 Si / 1000 Ang^3
#
#
#
# Elastic Constant Matrix: (Units=GPa)
#
#
# Indices 1 2 3 4 5 6 
#
# 1 59.7329 29.0574 40.0315 0.0000 0.0000 0.0000
# 2 29.0574 88.0900 44.1225 0.0000 0.0000 0.0000
# 3 40.0315 44.1225 123.1890 0.0000 0.0000 0.0000
# 4 0.0000 0.0000 0.0000 17.7072 0.0000 0.0000
# 5 0.0000 0.0000 0.0000 0.0000 21.0553 0.0000
# 6 0.0000 0.0000 0.0000 0.0000 0.0000 18.9167
#
#
#
# Elastic Compliance Matrix: (Units=1/GPa)
#
#
# Indices 1 2 3 4 5 6 
#
# 1 0.022869 -0.004657 -0.005764 0.000000 0.000000 0.000000
# 2 -0.004657 0.014782 -0.003781 0.000000 0.000000 0.000000
# 3 -0.005764 -0.003781 0.011345 0.000000 0.000000 0.000000
# 4 0.000000 0.000000 0.000000 0.056474 0.000000 0.000000
# 5 0.000000 0.000000 0.000000 0.000000 0.047494 0.000000
# 6 0.000000 0.000000 0.000000 0.000000 0.000000 0.052863
#
#
# Mechanical properties :
#
#
# Convention : Reuss Voigt Hill
#
# Bulk Modulus (GPa) = 48.56052 55.27051 51.91552
# Shear Modulus (GPa) = 20.73871 22.05588 21.39730
#
# Velocity S-wave (km/s) = 3.51974 3.62979 3.57519
# Velocity P-wave (km/s) = 6.74732 7.11223 6.93218
#
# Compressibility (1/GPa) = 0.02059286
#
# Stress axis : x y z
#
# Youngs Moduli (GPa) = 43.72704 67.64974 88.14549
#
# Poissons Ratio (x) = 0.31503 0.50804
# Poissons Ratio (y) = 0.20362 0.33330
# Poissons Ratio (z) = 0.25203 0.25580
#
# Static dielectric constant tensor:
#      x y z
#    x 1.574580 0.000000 0.000000 
#    y 0.000000 1.550340 0.000000 
#    z 0.000000 0.000000 1.600920 
# 
# From -- ./inp_files/68676.got.cif
#   From: 2010.05.17/outbox.cif.g08.bks.cpg/sg71_35_cif.got.tgz:68676.got - 2010.06.03 16:22:01.
