data_PCOD9518848
_publ_section_title
;
Structure prediction by ZEFSAII (Michael W. Deem and Ramdas Pophale) SiO2 
 PCOD9518848
Probable space group: I M M M
;
_chemical_formula_sum "Si O2"
_cell_formula_units_Z 88
_cell_length_a 25.520437
_cell_length_b 20.916353
_cell_length_c 8.853310
_cell_angle_alpha 90.000000
_cell_angle_beta 90.000000
_cell_angle_gamma 90.000000
_cell_volume 4725.847910
_symmetry_space_group_name_H-M "I M M M"
_symmetry_group_IT_number 71
_symmetry_cell_setting 'orthorhombic'
loop_
_space_group_symop_operation_xyz
x,y,z
-x,-y,z
x,-y,-z
-x,y,-z
-x,-y,-z
x,y,-z
-x,y,z
x,-y,z
1/2+x,1/2+y,1/2+z
1/2-x,1/2-y,1/2+z
1/2+x,1/2-y,1/2-z
1/2-x,1/2+y,1/2-z
1/2-x,1/2-y,1/2-z
1/2+x,1/2+y,1/2-z
1/2-x,1/2+y,1/2+z
1/2+x,1/2-y,1/2+z
loop_
_atom_site_type_symbol
_atom_site_label
_atom_site_fract_x
_atom_site_fract_y
_atom_site_fract_z
Si Si1 0.898576 0.257775 0.176775
Si Si2 0.208797 0.299097 0.321519
Si Si3 0.056777 0.394255 0.179979
Si Si4 0.326061 0.928212 0.682524
Si Si5 0.936024 0.000000 0.174541
Si Si6 0.437004 0.630951 0.171646
O O1 0.848154 0.272000 0.277636
O O2 0.937576 0.317644 0.198021
O O3 0.921983 0.190597 0.225439
O O4 0.883645 0.257923 0.000000
O O5 0.216281 0.302236 0.500000
O O6 0.250000 0.250000 0.250000
O O7 0.207519 0.370795 0.252699
O O8 0.112719 0.421380 0.234192
O O9 0.000000 0.415383 0.241851
O O10 0.055866 0.408074 0.000000
O O11 0.326111 0.920435 0.500000
O O12 0.308091 0.000000 0.718246
O O13 0.918300 0.064083 0.258589
O O14 0.000000 0.000000 0.176992
O O15 0.920044 0.000000 0.000000
O O16 0.500000 0.627828 0.166594
O O17 0.417933 0.639582 0.000000
#
# Coordination Sequence:
#
# PCOD9518848 Si02
#       6
#    16  16  16  16   8  16
#     4  10  19  32  51  76 104 136 177 221 267 318
#     4  11  22  38  60  82 105 135 176 225 279 333
#     4   8  14  25  44  74 110 145 181 218 252 292
#     4   9  18  33  54  82 115 149 185 224 267 318
#     4   9  17  29  45  65  91 131 179 217 253 305
#     4  10  19  30  46  71 104 139 174 215 265 318
#
# _framework density 18.620996000000002
#
# number of rings (size 3 to 8) (size 9 to 14) (size 15 to 20)
#    0.000    2.455    0.000    4.636    0.000    3.636 
#    0.000    1.818    2.000    4.909    0.000    5.091 
#    0.000    0.000    0.000    0.000    0.000    0.000 
#
# Total GULP energy -245292.960745 kJ/mol
# GULP energy per Si atom -5574.840017 kJ/mol
# Density = 1.857861 g / cm^3
# Si number density = 18.620996 Si / 1000 Ang^3
#
#
#
# Elastic Constant Matrix: (Units=GPa)
#
#
# Indices 1 2 3 4 5 6 
#
# 1 51.2371 24.8956 21.4559 0.0000 0.0000 0.0000
# 2 24.8956 143.8638 49.6690 0.0000 0.0000 0.0000
# 3 21.4559 49.6690 72.0410 0.0000 0.0000 0.0000
# 4 0.0000 0.0000 0.0000 26.7410 0.0000 0.0000
# 5 0.0000 0.0000 0.0000 0.0000 20.0039 0.0000
# 6 0.0000 0.0000 0.0000 0.0000 0.0000 4.4548
#
#
#
# Elastic Compliance Matrix: (Units=1/GPa)
#
#
# Indices 1 2 3 4 5 6 
#
# 1 0.022771 -0.002099 -0.005335 0.000000 0.000000 0.000000
# 2 -0.002099 0.009316 -0.005798 0.000000 0.000000 0.000000
# 3 -0.005335 -0.005798 0.019467 0.000000 0.000000 0.000000
# 4 0.000000 0.000000 0.000000 0.037396 0.000000 0.000000
# 5 0.000000 0.000000 0.000000 0.000000 0.049990 0.000000
# 6 0.000000 0.000000 0.000000 0.000000 0.000000 0.224476
#
#
# Mechanical properties :
#
#
# Convention : Reuss Voigt Hill
#
# Bulk Modulus (GPa) = 39.85464 51.02033 45.43749
# Shear Modulus (GPa) = 12.55517 21.64803 17.10160
#
# Velocity S-wave (km/s) = 2.59945 3.41333 3.03381
# Velocity P-wave (km/s) = 5.51897 6.55693 6.06021
#
# Compressibility (1/GPa) = 0.02509118
#
# Stress axis : x y z
#
# Youngs Moduli (GPa) = 43.91580 107.34340 51.36833
#
# Poissons Ratio (x) = 0.22527 0.27405
# Poissons Ratio (y) = 0.09216 0.29783
# Poissons Ratio (z) = 0.23429 0.62236
#
# Static dielectric constant tensor:
#      x y z
#    x 1.652920 0.000000 0.000000 
#    y 0.000000 1.647430 0.000000 
#    z 0.000000 0.000000 1.636520 
# 
# From -- ./inp_files/12507.got.cif
#   From: 2010.05.17/outbox.cif.g08.bks.cpg/sg71_7_cif.got.tgz:12507.got - 2010.06.03 16:22:01.
