data_PCOD9518554
_publ_section_title
;
Structure prediction by ZEFSAII (Michael W. Deem and Ramdas Pophale) SiO2 
 PCOD9518554
Probable space group: I M M M
;
_chemical_formula_sum "Si O2"
_cell_formula_units_Z 56
_cell_length_a 15.337880
_cell_length_b 13.302522
_cell_length_c 16.028698
_cell_angle_alpha 90.000000
_cell_angle_beta 90.000000
_cell_angle_gamma 90.000000
_cell_volume 3270.375102
_symmetry_space_group_name_H-M "I M M M"
_symmetry_group_IT_number 71
_symmetry_cell_setting 'orthorhombic'
loop_
_space_group_symop_operation_xyz
x,y,z
-x,-y,z
x,-y,-z
-x,y,-z
-x,-y,-z
x,y,-z
-x,y,z
x,-y,z
1/2+x,1/2+y,1/2+z
1/2-x,1/2-y,1/2+z
1/2+x,1/2-y,1/2-z
1/2-x,1/2+y,1/2-z
1/2-x,1/2-y,1/2-z
1/2+x,1/2+y,1/2-z
1/2-x,1/2+y,1/2+z
1/2+x,1/2-y,1/2+z
loop_
_atom_site_type_symbol
_atom_site_label
_atom_site_fract_x
_atom_site_fract_y
_atom_site_fract_z
Si Si1 0.000000 0.685771 0.599973
Si Si2 0.896459 0.886368 0.000000
Si Si3 0.155394 0.382650 0.282013
Si Si4 0.500000 0.387280 0.201041
Si Si5 0.350573 0.309521 0.678936
O O1 0.914750 0.637984 0.644535
O O2 0.000000 0.802269 0.629906
O O3 0.000000 0.674800 0.500000
O O4 0.871055 0.829533 0.916523
O O5 0.000000 0.895284 0.000000
O O6 0.858981 0.000000 0.000000
O O7 0.153606 0.500000 0.260496
O O8 0.252297 0.347993 0.307696
O O9 0.135113 0.305965 0.206516
O O10 0.500000 0.500000 0.167852
O O11 0.583683 0.370065 0.260673
#
# Coordination Sequence:
#
# PCOD9518554 Si02
#       5
#     8   8  16   8  16
#     4  10  23  37  51  79 110 139 184 222 251 312
#     4  11  20  32  55  84 112 134 166 222 274 311
#     4  10  21  38  57  75 106 146 178 216 264 311
#     4  10  18  35  59  79 106 139 172 219 274 317
#     4  10  21  35  56  84 107 134 179 220 262 323
#
# _framework density 17.123418000000001
#
# number of rings (size 3 to 8) (size 9 to 14) (size 15 to 20)
#    0.000    1.857    1.429    3.000    2.000    1.429 
#    0.000    0.714    0.000    0.857    0.000    0.000 
#    0.000    0.000    0.000    0.000    0.000    0.000 
#
# Total GULP energy -156184.365663 kJ/mol
# GULP energy per Si atom -5578.013059 kJ/mol
# Density = 1.708444 g / cm^3
# Si number density = 17.123418 Si / 1000 Ang^3
#
#
#
# Elastic Constant Matrix: (Units=GPa)
#
#
# Indices 1 2 3 4 5 6 
#
# 1 104.6698 29.0449 33.6146 0.0000 0.0000 0.0000
# 2 29.0449 168.5218 64.7955 0.0000 0.0000 0.0000
# 3 33.6146 64.7955 131.3850 0.0000 0.0000 0.0000
# 4 0.0000 0.0000 0.0000 9.1377 0.0000 0.0000
# 5 0.0000 0.0000 0.0000 0.0000 4.9954 0.0000
# 6 0.0000 0.0000 0.0000 0.0000 0.0000 -4.7193
#
#
#
# Elastic Compliance Matrix: (Units=1/GPa)
#
#
# Indices 1 2 3 4 5 6 
#
# 1 0.010534 -0.000962 -0.002221 0.000000 0.000000 0.000000
# 2 -0.000962 0.007410 -0.003408 0.000000 0.000000 0.000000
# 3 -0.002221 -0.003408 0.009860 0.000000 0.000000 0.000000
# 4 0.000000 0.000000 0.000000 0.109437 0.000000 0.000000
# 5 0.000000 0.000000 0.000000 0.000000 0.200184 0.000000
# 6 0.000000 0.000000 0.000000 0.000000 0.000000 -0.211894
#
#
# Mechanical properties :
#
#
# Convention : Reuss Voigt Hill
#
# Bulk Modulus (GPa) = 68.38719 73.27629 70.83174
# Shear Modulus (GPa) = 34.82197 20.35752 27.58974
#
# Velocity S-wave (km/s) = 4.51442 3.45174 4.01837
# Velocity P-wave (km/s) = 8.19743 7.66629 7.93630
#
# Compressibility (1/GPa) = 0.01462262
#
# Stress axis : x y z
#
# Youngs Moduli (GPa) = 94.93143 134.94852 101.41592
#
# Poissons Ratio (x) = 0.12977 0.22523
# Poissons Ratio (y) = 0.09129 0.34568
# Poissons Ratio (z) = 0.21083 0.45997
#
# Static dielectric constant tensor:
#      x y z
#    x 1.609010 0.000000 0.000000 
#    y 0.000000 1.595570 0.000000 
#    z 0.000000 0.000000 1.532850 
# 
# From -- ./inp_files/21149.got.cif
#   From: 2010.05.17/outbox.cif.g08.bks.cpg/sg71_11_cif.got.tgz:21149.got - 2010.06.03 16:22:01.
