data_PCOD9518615
_publ_section_title
;
Structure prediction by ZEFSAII (Michael W. Deem and Ramdas Pophale) SiO2 
 PCOD9518615
Probable space group: I M M M
;
_chemical_formula_sum "Si O2"
_cell_formula_units_Z 112
_cell_length_a 25.944022
_cell_length_b 15.455700
_cell_length_c 15.584868
_cell_angle_alpha 90.000000
_cell_angle_beta 90.000000
_cell_angle_gamma 90.000000
_cell_volume 6249.267450
_symmetry_space_group_name_H-M "I M M M"
_symmetry_group_IT_number 71
_symmetry_cell_setting 'orthorhombic'
loop_
_space_group_symop_operation_xyz
x,y,z
-x,-y,z
x,-y,-z
-x,y,-z
-x,-y,-z
x,y,-z
-x,y,z
x,-y,z
1/2+x,1/2+y,1/2+z
1/2-x,1/2-y,1/2+z
1/2+x,1/2-y,1/2-z
1/2-x,1/2+y,1/2-z
1/2-x,1/2-y,1/2-z
1/2+x,1/2+y,1/2-z
1/2-x,1/2+y,1/2+z
1/2+x,1/2-y,1/2+z
loop_
_atom_site_type_symbol
_atom_site_label
_atom_site_fract_x
_atom_site_fract_y
_atom_site_fract_z
Si Si1 0.707741 0.725441 0.407056
Si Si2 0.805991 0.640877 0.655839
Si Si3 0.917062 0.597286 0.400894
Si Si4 0.058915 0.728402 0.250111
Si Si5 0.562798 0.099016 0.400675
Si Si6 0.753185 0.406448 0.168178
Si Si7 0.155542 0.177938 0.734482
O O1 0.683382 0.725265 0.500000
O O2 0.758697 0.665588 0.404664
O O3 0.725653 0.823032 0.382531
O O4 0.672644 0.686762 0.332752
O O5 0.855067 0.597702 0.612661
O O6 0.782744 0.595887 0.740273
O O7 0.826165 0.732962 0.690470
O O8 0.928495 0.618772 0.500000
O O9 0.935893 0.500000 0.383021
O O10 0.938611 0.665464 0.332788
O O11 0.079697 0.669298 0.170080
O O12 0.094228 0.812204 0.267361
O O13 0.000000 0.751086 0.232021
O O14 0.577635 0.117019 0.500000
O O15 0.500000 0.098686 0.398170
O O16 0.579441 0.000000 0.379507
O O17 0.761567 0.500000 0.127075
O O18 0.692354 0.392035 0.189508
#
# Coordination Sequence:
#
# PCOD9518615 Si02
#       7
#    16  16  16  16  16  16  16
#     4   9  16  27  45  68  93 116 138 172 218 266
#     4   8  15  29  45  62  87 119 145 164 202 264
#     4  10  19  28  41  64  90 114 145 184 219 254
#     4  10  19  31  45  58  81 119 157 190 223 259
#     4   8  14  25  41  60  79 101 135 177 218 261
#     4   9  16  28  47  67  89 117 145 175 217 268
#     4   8  17  30  43  62  85 113 148 180 212 253
#
# _framework density 17.922101000000001
#
# number of rings (size 3 to 8) (size 9 to 14) (size 15 to 20)
#    0.000    3.143    0.000    3.429    0.000    2.000 
#    0.000    1.429    0.000    4.286    0.000    0.000 
#    0.000    0.000    0.000   19.143    0.000    0.000 
#
# Total GULP energy -311777.006529 kJ/mol
# GULP energy per Si atom -5567.446545 kJ/mol
# Density = 1.788131 g / cm^3
# Si number density = 17.922101 Si / 1000 Ang^3
#
#
#
# Elastic Constant Matrix: (Units=GPa)
#
#
# Indices 1 2 3 4 5 6 
#
# 1 52.2815 -4.3970 -12.0964 0.0000 0.0000 0.0000
# 2 -4.3970 21.0724 -16.8983 0.0000 0.0000 0.0000
# 3 -12.0964 -16.8983 56.8550 0.0000 0.0000 0.0000
# 4 0.0000 0.0000 0.0000 5.2185 0.0000 0.0000
# 5 0.0000 0.0000 0.0000 0.0000 9.7930 0.0000
# 6 0.0000 0.0000 0.0000 0.0000 0.0000 6.1775
#
#
#
# Elastic Compliance Matrix: (Units=1/GPa)
#
#
# Indices 1 2 3 4 5 6 
#
# 1 0.021868 0.010890 0.007889 0.000000 0.000000 0.000000
# 2 0.010890 0.067728 0.022447 0.000000 0.000000 0.000000
# 3 0.007889 0.022447 0.025939 0.000000 0.000000 0.000000
# 4 0.000000 0.000000 0.000000 0.191626 0.000000 0.000000
# 5 0.000000 0.000000 0.000000 0.000000 0.102114 0.000000
# 6 0.000000 0.000000 0.000000 0.000000 0.000000 0.161877
#
#
# Mechanical properties :
#
#
# Convention : Reuss Voigt Hill
#
# Bulk Modulus (GPa) = 5.05083 7.04727 6.04905
# Shear Modulus (GPa) = 9.01395 15.14451 12.07923
#
# Velocity S-wave (km/s) = 2.24509 2.91007 2.59894
# Velocity P-wave (km/s) = 3.08948 3.90283 3.51973
#
# Compressibility (1/GPa) = 0.19798723
#
# Stress axis : x y z
#
# Youngs Moduli (GPa) = 45.72800 14.76488 38.55239
#
# Poissons Ratio (x) = -0.16079 -0.30415
# Poissons Ratio (y) = -0.49796 -0.86538
# Poissons Ratio (z) = -0.36076 -0.33143
#
# Static dielectric constant tensor:
#      x y z
#    x 1.677560 0.000000 0.000000 
#    y 0.000000 1.609940 0.000000 
#    z 0.000000 0.000000 1.617310 
# 
# From -- ./inp_files/40351.got.cif
#   From: 2010.05.17/outbox.cif.g08.bks.cpg/sg71_21_cif.got.tgz:40351.got - 2010.06.03 16:22:01.
