data_PCOD9518790
_publ_section_title
;
Structure prediction by ZEFSAII (Michael W. Deem and Ramdas Pophale) SiO2 
 PCOD9518790
Probable space group: I M M M
;
_chemical_formula_sum "Si O2"
_cell_formula_units_Z 104
_cell_length_a 25.023665
_cell_length_b 34.024526
_cell_length_c 8.709301
_cell_angle_alpha 90.000000
_cell_angle_beta 90.000000
_cell_angle_gamma 90.000000
_cell_volume 7415.258604
_symmetry_space_group_name_H-M "I M M M"
_symmetry_group_IT_number 71
_symmetry_cell_setting 'orthorhombic'
loop_
_space_group_symop_operation_xyz
x,y,z
-x,-y,z
x,-y,-z
-x,y,-z
-x,-y,-z
x,y,-z
-x,y,z
x,-y,z
1/2+x,1/2+y,1/2+z
1/2-x,1/2-y,1/2+z
1/2+x,1/2-y,1/2-z
1/2-x,1/2+y,1/2-z
1/2-x,1/2-y,1/2-z
1/2+x,1/2+y,1/2-z
1/2-x,1/2+y,1/2+z
1/2+x,1/2-y,1/2+z
loop_
_atom_site_type_symbol
_atom_site_label
_atom_site_fract_x
_atom_site_fract_y
_atom_site_fract_z
Si Si1 0.268324 0.310877 0.683714
Si Si2 0.439732 0.338999 0.317588
Si Si3 0.836401 0.120175 0.681463
Si Si4 0.940469 0.751650 0.317675
Si Si5 0.500000 0.452270 0.324876
Si Si6 0.332203 0.768459 0.316447
Si Si7 0.381797 0.454498 0.313955
O O1 0.264547 0.311671 0.500000
O O2 0.292181 0.351426 0.744918
O O3 0.308776 0.274950 0.725142
O O4 0.211612 0.298974 0.755311
O O5 0.430134 0.342809 0.500000
O O6 0.500000 0.353572 0.284485
O O7 0.393150 0.360548 0.227752
O O8 0.438319 0.293304 0.270273
O O9 0.830072 0.119489 0.500000
O O10 0.839839 0.076325 0.748750
O O11 0.935183 0.758763 0.500000
O O12 0.890236 0.727143 0.258268
O O13 0.000000 0.734881 0.290338
O O14 0.500000 0.500000 0.334726
O O15 0.500000 0.436751 0.500000
O O16 0.441921 0.442992 0.257254
O O17 0.335868 0.770406 0.500000
O O18 0.383082 0.452171 0.500000
O O19 0.371988 0.500000 0.273100
#
# Coordination Sequence:
#
# PCOD9518790 Si02
#       7
#    16  16  16  16   8  16  16
#     4  10  20  33  48  64  84 112 145 180 216 259
#     4  10  20  32  44  58  79 109 144 180 219 262
#     4  12  23  32  45  64  88 109 137 178 222 268
#     4  10  19  30  45  65  89 115 143 177 216 257
#     4   7  12  26  47  65  77  97 133 173 213 261
#     4  10  19  31  48  66  87 114 143 178 218 257
#     4   9  18  33  50  64  80 106 140 176 216 265
#
# _framework density 14.025134
#
# number of rings (size 3 to 8) (size 9 to 14) (size 15 to 20)
#    0.000    2.077    1.538    4.154    1.077    3.385 
#    0.000    0.000    0.000    1.385    0.000    0.000 
#    0.000    0.000    0.000    0.000    0.000    0.769 
#
# Total GULP energy -290127.316587 kJ/mol
# GULP energy per Si atom -5579.371473 kJ/mol
# Density = 1.399321 g / cm^3
# Si number density = 14.025134 Si / 1000 Ang^3
#
#
#
# Elastic Constant Matrix: (Units=GPa)
#
#
# Indices 1 2 3 4 5 6 
#
# 1 85.1872 39.5157 24.8472 0.0000 0.0000 0.0000
# 2 39.5157 68.0629 18.3005 0.0000 0.0000 0.0000
# 3 24.8472 18.3005 36.1606 0.0000 0.0000 0.0000
# 4 0.0000 0.0000 0.0000 17.6381 0.0000 0.0000
# 5 0.0000 0.0000 0.0000 0.0000 20.6834 0.0000
# 6 0.0000 0.0000 0.0000 0.0000 0.0000 25.3435
#
#
#
# Elastic Compliance Matrix: (Units=1/GPa)
#
#
# Indices 1 2 3 4 5 6 
#
# 1 0.017931 -0.008215 -0.008163 0.000000 0.000000 0.000000
# 2 -0.008215 0.020770 -0.004867 0.000000 0.000000 0.000000
# 3 -0.008163 -0.004867 0.035727 0.000000 0.000000 0.000000
# 4 0.000000 0.000000 0.000000 0.056695 0.000000 0.000000
# 5 0.000000 0.000000 0.000000 0.000000 0.048348 0.000000
# 6 0.000000 0.000000 0.000000 0.000000 0.000000 0.039458
#
#
# Mechanical properties :
#
#
# Convention : Reuss Voigt Hill
#
# Bulk Modulus (GPa) = 31.31119 39.41528 35.36324
# Shear Modulus (GPa) = 18.37798 19.84949 19.11373
#
# Velocity S-wave (km/s) = 3.62382 3.76610 3.69564
# Velocity P-wave (km/s) = 6.31529 6.86117 6.59388
#
# Compressibility (1/GPa) = 0.03193746
#
# Stress axis : x y z
#
# Youngs Moduli (GPa) = 55.77050 48.14534 27.99040
#
# Poissons Ratio (x) = 0.39553 0.22849
# Poissons Ratio (y) = 0.45817 0.13622
# Poissons Ratio (z) = 0.45526 0.23431
#
# Static dielectric constant tensor:
#      x y z
#    x 1.470580 0.000000 0.000000 
#    y 0.000000 1.466290 0.000000 
#    z 0.000000 0.000000 1.464940 
# 
# From -- ./inp_files/13653.got.cif
#   From: 2010.05.17/outbox.cif.g08.bks.cpg/sg71_7_cif.got.tgz:13653.got - 2010.06.03 16:22:01.
