data_PCOD9518200
_publ_section_title
;
Structure prediction by ZEFSAII (Michael W. Deem and Ramdas Pophale) SiO2 
 PCOD9518200
Probable space group: I M M M
;
_chemical_formula_sum "Si O2"
_cell_formula_units_Z 88
_cell_length_a 31.466154
_cell_length_b 17.229685
_cell_length_c 7.324597
_cell_angle_alpha 90.000000
_cell_angle_beta 90.000000
_cell_angle_gamma 90.000000
_cell_volume 3971.044338
_symmetry_space_group_name_H-M "I M M M"
_symmetry_group_IT_number 71
_symmetry_cell_setting 'orthorhombic'
loop_
_space_group_symop_operation_xyz
x,y,z
-x,-y,z
x,-y,-z
-x,y,-z
-x,-y,-z
x,y,-z
-x,y,z
x,-y,z
1/2+x,1/2+y,1/2+z
1/2-x,1/2-y,1/2+z
1/2+x,1/2-y,1/2-z
1/2-x,1/2+y,1/2-z
1/2-x,1/2-y,1/2-z
1/2+x,1/2+y,1/2-z
1/2-x,1/2+y,1/2+z
1/2+x,1/2-y,1/2+z
loop_
_atom_site_type_symbol
_atom_site_label
_atom_site_fract_x
_atom_site_fract_y
_atom_site_fract_z
Si Si1 0.500000 0.909676 0.722684
Si Si2 0.754901 0.500000 0.291692
Si Si3 0.224025 0.830977 0.781447
Si Si4 0.873005 0.189442 0.777140
Si Si5 0.908820 0.645760 0.777704
Si Si6 0.046559 0.909688 0.778100
Si Si7 0.853040 0.500000 0.221297
O O1 0.500000 0.909524 0.500000
O O2 0.456957 0.868332 0.782352
O O3 0.500000 0.000000 0.777072
O O4 0.738271 0.500000 0.500000
O O5 0.741757 0.414914 0.213492
O O6 0.805620 0.500000 0.291396
O O7 0.250000 0.750000 0.750000
O O8 0.175207 0.824602 0.717182
O O9 0.223737 0.836698 0.000000
O O10 0.888372 0.274179 0.720550
O O11 0.910550 0.131984 0.716791
O O12 0.872141 0.186619 0.000000
O O13 0.879292 0.574973 0.721172
O O14 0.909687 0.645756 0.000000
O O15 0.000000 0.877956 0.720637
O O16 0.047958 0.000000 0.728003
O O17 0.046655 0.905553 0.000000
O O18 0.850969 0.500000 0.000000
#
# Coordination Sequence:
#
# PCOD9518200 Si02
#       7
#     8   8  16  16  16  16   8
#     4   9  14  22  34  56  93 125 149 189 241 287
#     4  10  22  36  53  75 100 134 172 212 260 309
#     4  10  21  37  54  75 104 136 173 216 261 307
#     4   9  17  26  41  62  88 123 161 196 237 292
#     4   9  16  24  38  63  91 122 156 191 236 289
#     4   8  14  23  35  55  85 120 154 187 229 285
#     4  10  18  31  50  70  96 127 163 203 246 293
#
# _framework density 22.160418
#
# number of rings (size 3 to 8) (size 9 to 14) (size 15 to 20)
#    0.000    2.818    0.909    1.636    2.545    2.182 
#    0.000    0.000    0.000    0.000    0.000    1.273 
#    0.000    0.727    0.000    2.000    0.000    2.727 
#
# Total GULP energy -245556.122240 kJ/mol
# GULP energy per Si atom -5580.820960 kJ/mol
# Density = 2.210998 g / cm^3
# Si number density = 22.160418 Si / 1000 Ang^3
#
#
#
# Elastic Constant Matrix: (Units=GPa)
#
#
# Indices 1 2 3 4 5 6 
#
# 1 247.7946 137.1201 2.9360 0.0000 0.0000 0.0000
# 2 137.1201 182.4584 6.6538 0.0000 0.0000 0.0000
# 3 2.9360 6.6538 87.4932 0.0000 0.0000 0.0000
# 4 0.0000 0.0000 0.0000 -15.9118 0.0000 0.0000
# 5 0.0000 0.0000 0.0000 0.0000 34.6991 0.0000
# 6 0.0000 0.0000 0.0000 0.0000 0.0000 94.0476
#
#
#
# Elastic Compliance Matrix: (Units=1/GPa)
#
#
# Indices 1 2 3 4 5 6 
#
# 1 0.006911 -0.005200 0.000164 0.000000 0.000000 0.000000
# 2 -0.005200 0.009408 -0.000541 0.000000 0.000000 0.000000
# 3 0.000164 -0.000541 0.011465 0.000000 0.000000 0.000000
# 4 0.000000 0.000000 0.000000 -0.062846 0.000000 0.000000
# 5 0.000000 0.000000 0.000000 0.000000 0.028819 0.000000
# 6 0.000000 0.000000 0.000000 0.000000 0.000000 0.010633
#
#
# Mechanical properties :
#
#
# Convention : Reuss Voigt Hill
#
# Bulk Modulus (GPa) = 60.13273 90.12954 75.13113
# Shear Modulus (GPa) = 237.10981 47.30272 142.20627
#
# Velocity S-wave (km/s) = 10.35516 4.62514 8.01939
# Velocity P-wave (km/s) = 13.04479 8.32360 10.94186
#
# Compressibility (1/GPa) = 0.01662988
#
# Stress axis : x y z
#
# Youngs Moduli (GPa) = 144.69800 106.29210 87.22108
#
# Poissons Ratio (x) = 0.55268 -0.01426
# Poissons Ratio (y) = 0.75238 0.04719
# Poissons Ratio (z) = -0.02366 0.05750
#
# Static dielectric constant tensor:
#      x y z
#    x 1.769860 0.000000 0.000000 
#    y 0.000000 1.776640 0.000000 
#    z 0.000000 0.000000 1.919460 
# 
# From -- ./inp_files/16721.got.cif
#   From: 2010.05.17/outbox.cif.g08.bks.cpg/sg71_9_cif.got.tgz:16721.got - 2010.06.03 16:22:01.
