data_PCOD9518351
_publ_section_title
;
Structure prediction by ZEFSAII (Michael W. Deem and Ramdas Pophale) SiO2 
 PCOD9518351
Probable space group: I M M M
;
_chemical_formula_sum "Si O2"
_cell_formula_units_Z 80
_cell_length_a 11.902479
_cell_length_b 18.245704
_cell_length_c 23.345147
_cell_angle_alpha 90.000000
_cell_angle_beta 90.000000
_cell_angle_gamma 90.000000
_cell_volume 5069.844766
_symmetry_space_group_name_H-M "I M M M"
_symmetry_group_IT_number 71
_symmetry_cell_setting 'orthorhombic'
loop_
_space_group_symop_operation_xyz
x,y,z
-x,-y,z
x,-y,-z
-x,y,-z
-x,-y,-z
x,y,-z
-x,y,z
x,-y,z
1/2+x,1/2+y,1/2+z
1/2-x,1/2-y,1/2+z
1/2+x,1/2-y,1/2-z
1/2-x,1/2+y,1/2-z
1/2-x,1/2-y,1/2-z
1/2+x,1/2+y,1/2-z
1/2-x,1/2+y,1/2+z
1/2+x,1/2-y,1/2+z
loop_
_atom_site_type_symbol
_atom_site_label
_atom_site_fract_x
_atom_site_fract_y
_atom_site_fract_z
Si Si1 0.751555 0.912867 0.860481
Si Si2 0.370013 0.835002 0.241582
Si Si3 0.000000 0.087296 0.697746
Si Si4 0.500000 0.588518 0.332412
Si Si5 0.134377 0.291950 0.567450
Si Si6 0.192553 0.807244 0.332232
O O1 0.698632 0.890823 0.799017
O O2 0.682391 0.867994 0.907588
O O3 0.882051 0.887600 0.859615
O O4 0.746319 0.000000 0.868630
O O5 0.500000 0.854963 0.245098
O O6 0.309949 0.827377 0.302703
O O7 0.358220 0.757016 0.208745
O O8 0.109258 0.124355 0.670475
O O9 0.000000 0.107457 0.765289
O O10 0.000000 0.000000 0.692933
O O11 0.500000 0.500000 0.335319
O O12 0.153641 0.285323 0.500000
O O13 0.192771 0.228926 0.605369
O O14 0.000000 0.288434 0.578202
#
# Coordination Sequence:
#
# PCOD9518351 Si02
#       6
#    16  16   8   8  16  16
#     4  10  19  32  50  75 106 137 170 204 244 298
#     4  10  19  29  48  74 101 135 164 200 252 301
#     4  11  18  30  53  79 102 129 162 200 256 310
#     4   9  18  30  47  75 109 136 158 199 252 294
#     4  10  21  36  53  70  94 135 174 212 254 287
#     4  10  18  32  49  70 101 128 165 206 251 304
#
# _framework density 15.779576
#
# number of rings (size 3 to 8) (size 9 to 14) (size 15 to 20)
#    0.000    2.000    4.000    1.800    0.000    2.000 
#    0.000    1.500    0.000    3.000    0.000    0.000 
#    0.000    0.000    0.000    3.600    0.000    0.000 
#
# Total GULP energy -223027.852211 kJ/mol
# GULP energy per Si atom -5575.696305 kJ/mol
# Density = 1.574366 g / cm^3
# Si number density = 15.779576 Si / 1000 Ang^3
#
#
#
# Elastic Constant Matrix: (Units=GPa)
#
#
# Indices 1 2 3 4 5 6 
#
# 1 85.9110 -4.9886 42.4874 0.0000 0.0000 0.0000
# 2 -4.9886 45.3167 25.4197 0.0000 0.0000 0.0000
# 3 42.4874 25.4197 101.4414 0.0000 0.0000 0.0000
# 4 0.0000 0.0000 0.0000 11.0325 0.0000 0.0000
# 5 0.0000 0.0000 0.0000 0.0000 21.2079 0.0000
# 6 0.0000 0.0000 0.0000 0.0000 0.0000 18.2873
#
#
#
# Elastic Compliance Matrix: (Units=1/GPa)
#
#
# Indices 1 2 3 4 5 6 
#
# 1 0.016171 0.006492 -0.008400 0.000000 0.000000 0.000000
# 2 0.006492 0.028282 -0.009806 0.000000 0.000000 0.000000
# 3 -0.008400 -0.009806 0.015833 0.000000 0.000000 0.000000
# 4 0.000000 0.000000 0.000000 0.090642 0.000000 0.000000
# 5 0.000000 0.000000 0.000000 0.000000 0.047152 0.000000
# 6 0.000000 0.000000 0.000000 0.000000 0.000000 0.054683
#
#
# Mechanical properties :
#
#
# Convention : Reuss Voigt Hill
#
# Bulk Modulus (GPa) = 27.13081 39.83403 33.48242
# Shear Modulus (GPa) = 17.33238 21.42225 19.37732
#
# Velocity S-wave (km/s) = 3.31782 3.68855 3.50808
# Velocity P-wave (km/s) = 5.64873 6.59086 6.13790
#
# Compressibility (1/GPa) = 0.03685847
#
# Stress axis : x y z
#
# Youngs Moduli (GPa) = 61.83888 35.35797 63.15790
#
# Poissons Ratio (x) = -0.22954 0.53051
# Poissons Ratio (y) = -0.40145 0.61934
# Poissons Ratio (z) = 0.51944 0.34673
#
# Static dielectric constant tensor:
#      x y z
#    x 1.542240 0.000000 0.000000 
#    y 0.000000 1.526870 0.000000 
#    z 0.000000 0.000000 1.514660 
# 
# From -- ./inp_files/58820.got.cif
#   From: 2010.05.17/outbox.cif.g08.bks.cpg/sg71_30_cif.got.tgz:58820.got - 2010.06.03 16:22:01.
