data_PCOD9518720
_publ_section_title
;
Structure prediction by ZEFSAII (Michael W. Deem and Ramdas Pophale) SiO2 
 PCOD9518720
Probable space group: I M M M
;
_chemical_formula_sum "Si O2"
_cell_formula_units_Z 120
_cell_length_a 20.354147
_cell_length_b 13.473925
_cell_length_c 23.517295
_cell_angle_alpha 90.000000
_cell_angle_beta 90.000000
_cell_angle_gamma 90.000000
_cell_volume 6449.624036
_symmetry_space_group_name_H-M "I M M M"
_symmetry_group_IT_number 71
_symmetry_cell_setting 'orthorhombic'
loop_
_space_group_symop_operation_xyz
x,y,z
-x,-y,z
x,-y,-z
-x,y,-z
-x,-y,-z
x,y,-z
-x,y,z
x,-y,z
1/2+x,1/2+y,1/2+z
1/2-x,1/2-y,1/2+z
1/2+x,1/2-y,1/2-z
1/2-x,1/2+y,1/2-z
1/2-x,1/2-y,1/2-z
1/2+x,1/2+y,1/2-z
1/2-x,1/2+y,1/2+z
1/2+x,1/2-y,1/2+z
loop_
_atom_site_type_symbol
_atom_site_label
_atom_site_fract_x
_atom_site_fract_y
_atom_site_fract_z
Si Si1 0.671132 0.885380 0.671942
Si Si2 0.201262 0.616134 0.294636
Si Si3 0.923737 0.201196 0.806388
Si Si4 0.425953 0.751764 0.183258
Si Si5 0.231449 0.707223 0.062425
Si Si6 0.617516 0.776597 0.065445
Si Si7 0.925572 0.500000 0.432099
Si Si8 0.681707 0.387712 0.380442
O O1 0.716329 0.869572 0.727874
O O2 0.612183 0.806527 0.680084
O O3 0.709841 0.861945 0.614339
O O4 0.649069 0.000000 0.672851
O O5 0.188477 0.500000 0.303425
O O6 0.135101 0.674737 0.307824
O O7 0.261449 0.642537 0.335132
O O8 0.918501 0.180768 0.738371
O O9 0.885044 0.123987 0.845302
O O10 0.000000 0.206339 0.820548
O O11 0.500000 0.794369 0.189336
O O12 0.418625 0.720376 0.117309
O O13 0.307106 0.741907 0.066360
O O14 0.188627 0.807300 0.070383
O O15 0.220873 0.663196 0.000000
O O16 0.609611 0.894829 0.079370
O O17 0.593275 0.762761 0.000000
O O18 0.931668 0.500000 0.500000
O O19 0.000000 0.500000 0.407783
O O20 0.692740 0.500000 0.399104
#
# Coordination Sequence:
#
# PCOD9518720 Si02
#       8
#    16  16  16  16  16  16   8  16
#     4   9  19  35  56  78 104 137 172 219 270 319
#     4   9  18  31  49  76 101 133 179 216 261 313
#     4   9  20  35  53  81 108 132 169 217 271 326
#     4  10  19  29  46  70 103 144 176 215 258 299
#     4  10  21  33  51  79 108 140 178 219 259 309
#     4  10  20  31  44  66 103 150 189 218 253 297
#     4   9  18  30  42  60  94 144 193 225 250 294
#     4  10  20  34  55  77 103 141 176 216 265 315
#
# _framework density 18.605737000000001
#
# number of rings (size 3 to 8) (size 9 to 14) (size 15 to 20)
#    0.000    2.467    1.333    0.400    3.733    3.733 
#    0.000    2.667    0.000    6.400    0.000    7.467 
#    0.000    1.600    0.000   17.733    0.000    0.000 
#
# Total GULP energy -334116.173950 kJ/mol
# GULP energy per Si atom -5568.602899 kJ/mol
# Density = 1.856339 g / cm^3
# Si number density = 18.605737 Si / 1000 Ang^3
#
#
#
# Elastic Constant Matrix: (Units=GPa)
#
#
# Indices 1 2 3 4 5 6 
#
# 1 68.8998 -10.9061 20.0722 0.0000 0.0000 0.0000
# 2 -10.9061 23.1430 -5.6853 0.0000 0.0000 0.0000
# 3 20.0722 -5.6853 100.1475 0.0000 0.0000 0.0000
# 4 0.0000 0.0000 0.0000 18.5478 0.0000 0.0000
# 5 0.0000 0.0000 0.0000 0.0000 7.1416 0.0000
# 6 0.0000 0.0000 0.0000 0.0000 0.0000 116.3950
#
#
#
# Elastic Compliance Matrix: (Units=1/GPa)
#
#
# Indices 1 2 3 4 5 6 
#
# 1 0.016475 0.007051 -0.002902 0.000000 0.000000 0.000000
# 2 0.007051 0.046838 0.001246 0.000000 0.000000 0.000000
# 3 -0.002902 0.001246 0.010638 0.000000 0.000000 0.000000
# 4 0.000000 0.000000 0.000000 0.053915 0.000000 0.000000
# 5 0.000000 0.000000 0.000000 0.000000 0.140024 0.000000
# 6 0.000000 0.000000 0.000000 0.000000 0.000000 0.008591
#
#
# Mechanical properties :
#
#
# Convention : Reuss Voigt Hill
#
# Bulk Modulus (GPa) = 11.80061 22.12799 16.96430
# Shear Modulus (GPa) = 17.01036 40.99752 29.00394
#
# Velocity S-wave (km/s) = 3.02694 4.69923 3.95254
# Velocity P-wave (km/s) = 4.30961 6.43137 5.47427
#
# Compressibility (1/GPa) = 0.08474141
#
# Stress axis : x y z
#
# Youngs Moduli (GPa) = 60.69688 21.35000 94.00617
#
# Poissons Ratio (x) = -0.15054 0.27279
# Poissons Ratio (y) = -0.42798 -0.11711
# Poissons Ratio (z) = 0.17613 -0.02660
#
# Static dielectric constant tensor:
#      x y z
#    x 1.643520 0.000000 0.000000 
#    y 0.000000 1.641270 0.000000 
#    z 0.000000 0.000000 1.704880 
# 
# From -- ./inp_files/61410.got.cif
#   From: 2010.05.17/outbox.cif.g08.bks.cpg/sg71_31_cif.got.tgz:61410.got - 2010.06.03 16:22:01.
