data_PCOD9518188
_publ_section_title
;
Structure prediction by ZEFSAII (Michael W. Deem and Ramdas Pophale) SiO2 
 PCOD9518188
Probable space group: I M M M
;
_chemical_formula_sum "Si O2"
_cell_formula_units_Z 116
_cell_length_a 8.147990
_cell_length_b 27.496788
_cell_length_c 28.284458
_cell_angle_alpha 90.000000
_cell_angle_beta 90.000000
_cell_angle_gamma 90.000000
_cell_volume 6336.950484
_symmetry_space_group_name_H-M "I M M M"
_symmetry_group_IT_number 71
_symmetry_cell_setting 'orthorhombic'
loop_
_space_group_symop_operation_xyz
x,y,z
-x,-y,z
x,-y,-z
-x,y,-z
-x,-y,-z
x,y,-z
-x,y,z
x,-y,z
1/2+x,1/2+y,1/2+z
1/2-x,1/2-y,1/2+z
1/2+x,1/2-y,1/2-z
1/2-x,1/2+y,1/2-z
1/2-x,1/2-y,1/2-z
1/2+x,1/2+y,1/2-z
1/2-x,1/2+y,1/2+z
1/2+x,1/2-y,1/2+z
loop_
_atom_site_type_symbol
_atom_site_label
_atom_site_fract_x
_atom_site_fract_y
_atom_site_fract_z
Si Si1 0.193505 0.447779 0.788897
Si Si2 0.205018 0.500000 0.500000
Si Si3 0.311853 0.689090 0.292308
Si Si4 0.304219 0.573229 0.580670
Si Si5 0.807471 0.075484 0.186415
Si Si6 0.198562 0.318741 0.444809
Si Si7 0.188806 0.758917 0.630398
Si Si8 0.693746 0.841350 0.308587
O O1 0.265032 0.500000 0.804086
O O2 0.214751 0.443915 0.732136
O O3 0.260543 0.396784 0.809276
O O4 0.000000 0.448652 0.799801
O O5 0.213595 0.542097 0.541257
O O6 0.500000 0.705350 0.298187
O O7 0.295794 0.634043 0.311173
O O8 0.201901 0.723741 0.323951
O O9 0.269886 0.685246 0.237160
O O10 0.500000 0.563231 0.575548
O O11 0.253865 0.560325 0.634178
O O12 0.274000 0.630313 0.572139
O O13 0.000000 0.062794 0.191653
O O14 0.235545 0.311680 0.500000
O O15 0.256265 0.273778 0.412489
O O16 0.000000 0.322381 0.439424
O O17 0.274238 0.808803 0.645641
O O18 0.000000 0.770016 0.620251
O O19 0.500000 0.844203 0.299657
#
# Coordination Sequence:
#
# PCOD9518188 Si02
#       8
#    16   4  16  16  16  16  16  16
#     4   9  19  35  52  71  97 131 165 197 238 286
#     4  12  25  36  53  74  97 128 169 226 279 312
#     4  10  18  31  49  72 100 129 164 202 245 296
#     4  11  21  36  53  70  93 125 166 214 265 309
#     4   9  19  31  48  71  94 124 165 208 248 295
#     4  10  22  39  56  73  95 126 165 210 260 309
#     4  11  21  33  51  73  99 129 161 202 252 302
#     4  10  20  33  50  73 103 132 163 199 239 294
#
# _framework density 18.305333999999998
#
# number of rings (size 3 to 8) (size 9 to 14) (size 15 to 20)
#    0.000    1.931    2.069    2.276    0.966    2.483 
#    0.000    0.690    0.000    0.000    0.000    0.000 
#    0.000    0.552    0.000    6.897    0.000    0.000 
#
# Total GULP energy -323284.815546 kJ/mol
# GULP energy per Si atom -5573.876130 kJ/mol
# Density = 1.826367 g / cm^3
# Si number density = 18.305334 Si / 1000 Ang^3
#
#
#
# Elastic Constant Matrix: (Units=GPa)
#
#
# Indices 1 2 3 4 5 6 
#
# 1 15.9558 1.1780 1.1399 0.0000 0.0000 0.0000
# 2 1.1780 107.9267 48.4604 -0.0001 0.0000 0.0000
# 3 1.1399 48.4604 59.3810 -0.0002 0.0000 0.0000
# 4 0.0000 -0.0001 -0.0002-1517.3772 0.0000 0.0001
# 5 0.0000 0.0000 0.0000 0.0000 2.0487 0.0000
# 6 0.0000 0.0000 0.0000 0.0001 0.0000 221.1741
#
#
#
# Elastic Compliance Matrix: (Units=1/GPa)
#
#
# Indices 1 2 3 4 5 6 
#
# 1 0.062763 -0.000227 -0.001019 0.000000 0.000000 0.000000
# 2 -0.000227 0.014625 -0.011931 0.000000 0.000000 0.000000
# 3 -0.001019 -0.011931 0.026597 0.000000 0.000000 0.000000
# 4 0.000000 0.000000 0.000000 -0.000659 0.000000 0.000000
# 5 0.000000 0.000000 0.000000 0.000000 0.488116 0.000000
# 6 0.000000 0.000000 0.000000 0.000000 0.000000 0.004521
#
#
# Mechanical properties :
#
#
# Convention : Reuss Voigt Hill
#
# Bulk Modulus (GPa) = 12.88176 31.64668 22.26422
# Shear Modulus (GPa) = 7.71373 -249.99853 -121.14240
#
# Velocity S-wave (km/s) = 2.05501 -11.69906 -8.14386
# Velocity P-wave (km/s) = 3.56135 12.85164 8.73160
#
# Compressibility (1/GPa) = 0.07762917
#
# Stress axis : x y z
#
# Youngs Moduli (GPa) = 15.93306 68.37469 37.59830
#
# Poissons Ratio (x) = 0.01555 0.03832
# Poissons Ratio (y) = 0.00362 0.44859
# Poissons Ratio (z) = 0.01624 0.81579
#
# Static dielectric constant tensor:
#      x y z
#    x 1.663240 0.000000 0.000000 
#    y 0.000000 1.678430 0.000000 
#    z 0.000000 0.000000 1.603940 
# 
# From -- ./inp_files/63962.got.cif
#   From: 2010.05.17/outbox.cif.g08.bks.cpg/sg71_32_cif.got.tgz:63962.got - 2010.06.03 16:22:01.
