data_PCOD9518440
_publ_section_title
;
Structure prediction by ZEFSAII (Michael W. Deem and Ramdas Pophale) SiO2 
 PCOD9518440
Probable space group: I M M M
;
_chemical_formula_sum "Si O2"
_cell_formula_units_Z 96
_cell_length_a 17.700347
_cell_length_b 18.356347
_cell_length_c 17.189390
_cell_angle_alpha 90.000000
_cell_angle_beta 90.000000
_cell_angle_gamma 90.000000
_cell_volume 5585.068504
_symmetry_space_group_name_H-M "I M M M"
_symmetry_group_IT_number 71
_symmetry_cell_setting 'orthorhombic'
loop_
_space_group_symop_operation_xyz
x,y,z
-x,-y,z
x,-y,-z
-x,y,-z
-x,-y,-z
x,y,-z
-x,y,z
x,-y,z
1/2+x,1/2+y,1/2+z
1/2-x,1/2-y,1/2+z
1/2+x,1/2-y,1/2-z
1/2-x,1/2+y,1/2-z
1/2-x,1/2-y,1/2-z
1/2+x,1/2+y,1/2-z
1/2-x,1/2+y,1/2+z
1/2+x,1/2-y,1/2+z
loop_
_atom_site_type_symbol
_atom_site_label
_atom_site_fract_x
_atom_site_fract_y
_atom_site_fract_z
Si Si1 0.087527 0.803841 0.684389
Si Si2 0.412543 0.152575 0.907780
Si Si3 0.588808 0.772451 0.500000
Si Si4 0.679377 0.081921 0.500000
Si Si5 0.760387 0.870237 0.344464
Si Si6 0.669618 0.279404 0.345967
Si Si7 0.727226 0.917932 0.825086
O O1 0.093750 0.733769 0.628009
O O2 0.149012 0.863531 0.658153
O O3 0.115795 0.780966 0.770525
O O4 0.000000 0.826903 0.685588
O O5 0.500000 0.129475 0.897750
O O6 0.353423 0.102757 0.861811
O O7 0.395631 0.153411 0.000000
O O8 0.500000 0.766744 0.500000
O O9 0.615342 0.856484 0.500000
O O10 0.623375 0.735882 0.576470
O O11 0.729497 0.095938 0.576590
O O12 0.649980 0.000000 0.500000
O O13 0.728692 0.787314 0.337823
O O14 0.728797 0.910912 0.268604
O O15 0.714632 0.355111 0.351226
O O16 0.748425 0.000000 0.847350
#
# Coordination Sequence:
#
# PCOD9518440 Si02
#       7
#    16  16   8   8  16  16  16
#     4  10  18  32  57  82 107 140 184 234 271 314
#     4  10  21  34  52  81 115 144 179 226 276 323
#     4  10  22  37  61  85 109 141 177 222 272 327
#     4  10  22  37  59  87 117 142 168 219 277 328
#     4  10  19  36  57  80 110 145 187 223 268 329
#     4  10  19  36  56  81 110 141 189 229 269 321
#     4  11  21  35  56  79 109 147 186 226 272 326
#
# _framework density 17.188687999999999
#
# number of rings (size 3 to 8) (size 9 to 14) (size 15 to 20)
#    0.000    1.833    3.333    2.000    2.333    0.833 
#    0.000    0.833    0.000   20.000    0.000    0.000 
#    0.000    0.000    0.000    0.000    0.000    0.000 
#
# Total GULP energy -267840.279376 kJ/mol
# GULP energy per Si atom -5580.005820 kJ/mol
# Density = 1.714957 g / cm^3
# Si number density = 17.188688 Si / 1000 Ang^3
#
#
#
# Elastic Constant Matrix: (Units=GPa)
#
#
# Indices 1 2 3 4 5 6 
#
# 1 110.0021 32.4454 52.2798 0.0000 0.0000 0.0000
# 2 32.4454 94.0436 39.2093 0.0000 0.0000 0.0000
# 3 52.2798 39.2093 98.3103 0.0000 0.0000 0.0000
# 4 0.0000 0.0000 0.0000 3.7219 0.0000 0.0000
# 5 0.0000 0.0000 0.0000 0.0000 21.9140 0.0000
# 6 0.0000 0.0000 0.0000 0.0000 0.0000 10.7266
#
#
#
# Elastic Compliance Matrix: (Units=1/GPa)
#
#
# Indices 1 2 3 4 5 6 
#
# 1 0.012425 -0.001837 -0.005874 0.000000 0.000000 0.000000
# 2 -0.001837 0.013026 -0.004218 0.000000 0.000000 0.000000
# 3 -0.005874 -0.004218 0.014978 0.000000 0.000000 0.000000
# 4 0.000000 0.000000 0.000000 0.268681 0.000000 0.000000
# 5 0.000000 0.000000 0.000000 0.000000 0.045633 0.000000
# 6 0.000000 0.000000 0.000000 0.000000 0.000000 0.093226
#
#
# Mechanical properties :
#
#
# Convention : Reuss Voigt Hill
#
# Bulk Modulus (GPa) = 60.35395 61.13611 60.74503
# Shear Modulus (GPa) = 10.47447 19.16727 14.82087
#
# Velocity S-wave (km/s) = 2.47124 3.34295 2.93959
# Velocity P-wave (km/s) = 6.58267 7.10952 6.85116
#
# Compressibility (1/GPa) = 0.01656892
#
# Stress axis : x y z
#
# Youngs Moduli (GPa) = 80.48598 76.77021 66.76425
#
# Poissons Ratio (x) = 0.14105 0.39220
# Poissons Ratio (y) = 0.14788 0.28162
# Poissons Ratio (z) = 0.47280 0.32382
#
# Static dielectric constant tensor:
#      x y z
#    x 1.569770 0.000000 0.000000 
#    y 0.000000 1.568610 0.000000 
#    z 0.000000 0.000000 1.579200 
# 
# From -- ./inp_files/46073.got.cif
#   From: 2010.05.17/outbox.cif.g08.bks.cpg/sg71_24_cif.got.tgz:46073.got - 2010.06.03 16:22:01.
