data_PCOD9518974
_publ_section_title
;
Structure prediction by ZEFSAII (Michael W. Deem and Ramdas Pophale) SiO2 
 PCOD9518974
Probable space group: I M M M
;
_chemical_formula_sum "Si O2"
_cell_formula_units_Z 76
_cell_length_a 30.025794
_cell_length_b 7.598853
_cell_length_c 16.656420
_cell_angle_alpha 90.000000
_cell_angle_beta 90.000000
_cell_angle_gamma 90.000000
_cell_volume 3800.355351
_symmetry_space_group_name_H-M "I M M M"
_symmetry_group_IT_number 71
_symmetry_cell_setting 'orthorhombic'
loop_
_space_group_symop_operation_xyz
x,y,z
-x,-y,z
x,-y,-z
-x,y,-z
-x,-y,-z
x,y,-z
-x,y,z
x,-y,z
1/2+x,1/2+y,1/2+z
1/2-x,1/2-y,1/2+z
1/2+x,1/2-y,1/2-z
1/2-x,1/2+y,1/2-z
1/2-x,1/2-y,1/2-z
1/2+x,1/2+y,1/2-z
1/2-x,1/2+y,1/2+z
1/2+x,1/2-y,1/2+z
loop_
_atom_site_type_symbol
_atom_site_label
_atom_site_fract_x
_atom_site_fract_y
_atom_site_fract_z
Si Si1 0.667115 0.500000 0.500000
Si Si2 0.592503 0.211239 0.500000
Si Si3 0.500000 0.713961 0.906171
Si Si4 0.683670 0.296469 0.902661
Si Si5 0.908597 0.794484 0.330962
Si Si6 0.247898 0.500000 0.593391
Si Si7 0.550173 0.788155 0.330158
O O1 0.636836 0.327327 0.500000
O O2 0.699315 0.500000 0.578746
O O3 0.564879 0.255690 0.579922
O O4 0.600976 0.000000 0.500000
O O5 0.500000 0.500000 0.895856
O O6 0.545722 0.781808 0.867435
O O7 0.500000 0.751485 0.000000
O O8 0.690244 0.500000 0.878450
O O9 0.637700 0.224114 0.865073
O O10 0.724788 0.175599 0.874489
O O11 0.679398 0.296824 0.000000
O O12 0.915328 0.779327 0.235853
O O13 0.907713 0.000000 0.354437
O O14 0.232679 0.500000 0.500000
O O15 0.500000 0.723059 0.313097
O O16 0.549517 0.000000 0.324519
#
# Coordination Sequence:
#
# PCOD9518974 Si02
#       7
#     4   8   8  16  16   8  16
#     4  10  22  40  65  98 110 141 194 260 314 366
#     4  10  23  42  64  90 114 152 193 248 305 370
#     4   9  16  28  45  72 119 162 196 238 272 324
#     4   9  17  31  52  82 114 156 200 231 277 342
#     4  10  19  30  50  82 116 156 203 237 280 339
#     4   8  18  34  56  86 110 141 186 247 298 347
#     4  10  21  38  58  83 119 158 195 237 296 355
#
# _framework density 19.998131000000001
#
# number of rings (size 3 to 8) (size 9 to 14) (size 15 to 20)
#    0.316    2.211    1.053    0.947    2.947    4.632 
#    0.000    0.526    0.000    1.895    0.000    0.000 
#    0.000    0.000    0.000    0.000    0.000    0.000 
#
# Total GULP energy -211784.688441 kJ/mol
# GULP energy per Si atom -5573.281275 kJ/mol
# Density = 1.995261 g / cm^3
# Si number density = 19.998131 Si / 1000 Ang^3
#
#
#
# Elastic Constant Matrix: (Units=GPa)
#
#
# Indices 1 2 3 4 5 6 
#
# 1 75.8613 28.3235 -0.4121 0.0000 0.0000 0.0000
# 2 28.3235 61.1984 -0.4421 0.0000 0.0000 0.0000
# 3 -0.4121 -0.4421 37.8648 0.0000 0.0000 0.0000
# 4 0.0000 0.0000 0.0000 25.8283 0.0000 0.0000
# 5 0.0000 0.0000 0.0000 0.0000 1.7618 0.0000
# 6 0.0000 0.0000 0.0000 0.0000 0.0000 21.6026
#
#
#
# Elastic Compliance Matrix: (Units=1/GPa)
#
#
# Indices 1 2 3 4 5 6 
#
# 1 0.015936 -0.007375 0.000087 0.000000 0.000000 0.000000
# 2 -0.007375 0.019754 0.000150 0.000000 0.000000 0.000000
# 3 0.000087 0.000150 0.026412 0.000000 0.000000 0.000000
# 4 0.000000 0.000000 0.000000 0.038717 0.000000 0.000000
# 5 0.000000 0.000000 0.000000 0.000000 0.567604 0.000000
# 6 0.000000 0.000000 0.000000 0.000000 0.000000 0.046291
#
#
# Mechanical properties :
#
#
# Convention : Reuss Voigt Hill
#
# Bulk Modulus (GPa) = 20.90788 25.54035 23.22411
# Shear Modulus (GPa) = 6.71202 19.66889 13.19046
#
# Velocity S-wave (km/s) = 1.83402 3.13954 2.57102
# Velocity P-wave (km/s) = 3.86813 5.09327 4.52238
#
# Compressibility (1/GPa) = 0.04782885
#
# Stress axis : x y z
#
# Youngs Moduli (GPa) = 62.75167 50.62141 37.86091
#
# Poissons Ratio (x) = 0.37332 -0.00331
# Poissons Ratio (y) = 0.46277 -0.00569
# Poissons Ratio (z) = -0.00548 -0.00761
#
# Static dielectric constant tensor:
#      x y z
#    x 1.702060 0.000000 0.000000 
#    y 0.000000 1.751330 0.000000 
#    z 0.000000 0.000000 1.691750 
# 
# From -- ./inp_files/48649.got.cif
#   From: 2010.05.17/outbox.cif.g08.bks.cpg/sg71_25_cif.got.tgz:48649.got - 2010.06.03 16:22:01.
