data_PCOD9518516
_publ_section_title
;
Structure prediction by ZEFSAII (Michael W. Deem and Ramdas Pophale) SiO2 
 PCOD9518516
Probable space group: I M M M
;
_chemical_formula_sum "Si O2"
_cell_formula_units_Z 58
_cell_length_a 10.755134
_cell_length_b 7.927380
_cell_length_c 34.474343
_cell_angle_alpha 90.000000
_cell_angle_beta 90.000000
_cell_angle_gamma 90.000000
_cell_volume 2939.283662
_symmetry_space_group_name_H-M "I M M M"
_symmetry_group_IT_number 71
_symmetry_cell_setting 'orthorhombic'
loop_
_space_group_symop_operation_xyz
x,y,z
-x,-y,z
x,-y,-z
-x,y,-z
-x,-y,-z
x,y,-z
-x,y,z
x,-y,z
1/2+x,1/2+y,1/2+z
1/2-x,1/2-y,1/2+z
1/2+x,1/2-y,1/2-z
1/2-x,1/2+y,1/2-z
1/2-x,1/2-y,1/2-z
1/2+x,1/2+y,1/2-z
1/2-x,1/2+y,1/2+z
1/2+x,1/2-y,1/2+z
loop_
_atom_site_type_symbol
_atom_site_label
_atom_site_fract_x
_atom_site_fract_y
_atom_site_fract_z
Si Si1 0.640804 0.200839 0.918679
Si Si2 0.744158 0.793215 0.162059
Si Si3 0.500000 0.796844 0.790686
Si Si4 0.000000 0.203127 0.200662
Si Si5 0.742424 0.316372 0.000000
Si Si6 0.000000 0.500000 0.000000
O O1 0.500000 0.269098 0.917254
O O2 0.720724 0.263626 0.882127
O O3 0.701155 0.230626 0.960332
O O4 0.631646 0.000000 0.913315
O O5 0.625070 0.739214 0.187479
O O6 0.874007 0.734424 0.180162
O O7 0.746586 0.000000 0.162746
O O8 0.500000 0.746436 0.745951
O O9 0.500000 0.000000 0.792911
O O10 0.000000 0.000000 0.197386
O O11 0.678522 0.500000 0.000000
O O12 0.888783 0.356026 0.000000
#
# Coordination Sequence:
#
# PCOD9518516 Si02
#       6
#    16  16   8   8   8   2
#     4  10  19  35  61  90 112 139 190 243 284 335
#     4   9  18  33  54  80 110 143 182 234 284 328
#     4  10  18  34  55  74 107 147 183 225 285 337
#     4  10  20  33  51  79 108 144 188 230 275 334
#     4  10  22  40  58  78 117 153 181 218 287 341
#     4   8  24  44  52  72 116 160 186 210 280 344
#
# _framework density 19.732699
#
# number of rings (size 3 to 8) (size 9 to 14) (size 15 to 20)
#    0.414    1.931    1.379    1.655    0.000    3.310 
#    0.000    5.517    0.000    0.000    0.000    0.000 
#    0.000    0.000    0.000    0.000    0.000    0.000 
#
# Total GULP energy -161470.040134 kJ/mol
# GULP energy per Si atom -5567.932418 kJ/mol
# Density = 1.968779 g / cm^3
# Si number density = 19.732699 Si / 1000 Ang^3
#
#
#
# Elastic Constant Matrix: (Units=GPa)
#
#
# Indices 1 2 3 4 5 6 
#
# 1 184.9794 7.9948 114.0831 0.0000 0.0000 0.0000
# 2 7.9948 12.2615 0.0057 0.0000 0.0000 0.0000
# 3 114.0831 0.0057 206.4844 0.0000 0.0000 0.0000
# 4 0.0000 0.0000 0.0000 19.0820 0.0000 0.0000
# 5 0.0000 0.0000 0.0000 0.0000 1.5883 0.0000
# 6 0.0000 0.0000 0.0000 0.0000 0.0000 12.3045
#
#
#
# Elastic Compliance Matrix: (Units=1/GPa)
#
#
# Indices 1 2 3 4 5 6 
#
# 1 0.008566 -0.005583 -0.004733 0.000000 0.000000 0.000000
# 2 -0.005583 0.085195 0.003082 0.000000 0.000000 0.000000
# 3 -0.004733 0.003082 0.007458 0.000000 0.000000 0.000000
# 4 0.000000 0.000000 0.000000 0.052405 0.000000 0.000000
# 5 0.000000 0.000000 0.000000 0.000000 0.629592 0.000000
# 6 0.000000 0.000000 0.000000 0.000000 0.000000 0.081271
#
#
# Mechanical properties :
#
#
# Convention : Reuss Voigt Hill
#
# Bulk Modulus (GPa) = 11.52713 71.98805 41.75759
# Shear Modulus (GPa) = 5.50739 25.37109 15.43924
#
# Velocity S-wave (km/s) = 1.67244 3.58961 2.80021
# Velocity P-wave (km/s) = 3.09576 7.33084 5.62694
#
# Compressibility (1/GPa) = 0.08675190
#
# Stress axis : x y z
#
# Youngs Moduli (GPa) = 116.73945 11.73779 134.08988
#
# Poissons Ratio (x) = 0.06553 0.63460
# Poissons Ratio (y) = 0.65177 -0.41331
# Poissons Ratio (z) = 0.55248 -0.03618
#
# Static dielectric constant tensor:
#      x y z
#    x 1.675370 0.000000 0.000000 
#    y 0.000000 1.726240 0.000000 
#    z 0.000000 0.000000 1.699070 
# 
# From -- ./inp_files/68807.got.cif
#   From: 2010.05.17/outbox.cif.g08.bks.cpg/sg71_35_cif.got.tgz:68807.got - 2010.06.03 16:22:01.
