data_PCOD9518888
_publ_section_title
;
Structure prediction by ZEFSAII (Michael W. Deem and Ramdas Pophale) SiO2 
 PCOD9518888
Probable space group: I M M M
;
_chemical_formula_sum "Si O2"
_cell_formula_units_Z 104
_cell_length_a 13.172607
_cell_length_b 28.310268
_cell_length_c 17.780610
_cell_angle_alpha 90.000000
_cell_angle_beta 90.000000
_cell_angle_gamma 90.000000
_cell_volume 6630.745693
_symmetry_space_group_name_H-M "I M M M"
_symmetry_group_IT_number 71
_symmetry_cell_setting 'orthorhombic'
loop_
_space_group_symop_operation_xyz
x,y,z
-x,-y,z
x,-y,-z
-x,y,-z
-x,-y,-z
x,y,-z
-x,y,z
x,-y,z
1/2+x,1/2+y,1/2+z
1/2-x,1/2-y,1/2+z
1/2+x,1/2-y,1/2-z
1/2-x,1/2+y,1/2-z
1/2-x,1/2-y,1/2-z
1/2+x,1/2+y,1/2-z
1/2-x,1/2+y,1/2+z
1/2+x,1/2-y,1/2+z
loop_
_atom_site_type_symbol
_atom_site_label
_atom_site_fract_x
_atom_site_fract_y
_atom_site_fract_z
Si Si1 0.320817 0.228103 0.137168
Si Si2 0.881413 0.883255 0.799802
Si Si3 0.307295 0.120237 0.909440
Si Si4 0.876767 0.946337 0.343289
Si Si5 0.500000 0.945104 0.908803
Si Si6 0.624403 0.600119 0.000000
Si Si7 0.119287 0.793536 0.500000
Si Si8 0.388553 0.727682 0.708603
O O1 0.337942 0.173817 0.113750
O O2 0.372244 0.242217 0.215988
O O3 0.201518 0.236626 0.151075
O O4 0.355048 0.263142 0.072684
O O5 0.798880 0.889549 0.866033
O O6 0.850318 0.914776 0.728574
O O7 0.880089 0.828354 0.774276
O O8 0.000000 0.893738 0.820557
O O9 0.397923 0.084047 0.887819
O O10 0.294105 0.118481 0.000000
O O11 0.843171 0.925294 0.423167
O O12 0.000000 0.946625 0.345238
O O13 0.841784 0.000000 0.334376
O O14 0.500000 0.000000 0.883272
O O15 0.500000 0.945990 0.000000
O O16 0.500000 0.599204 0.000000
O O17 0.663028 0.653826 0.000000
O O18 0.000000 0.800668 0.500000
O O19 0.500000 0.736579 0.677364
#
# Coordination Sequence:
#
# PCOD9518888 Si02
#       8
#    16  16  16  16   8   8   8  16
#     4  10  19  30  47  72  95 125 168 204 247 289
#     4   9  18  32  48  71 103 136 165 200 248 298
#     4  10  20  33  51  72  97 128 169 214 249 298
#     4   9  16  27  45  68  96 127 161 197 235 291
#     4   9  20  36  52  68  92 125 161 215 269 298
#     4   9  17  28  43  67  97 131 159 190 245 291
#     4  11  20  27  45  70  97 125 157 208 242 285
#     4   9  18  32  47  65  98 135 163 196 243 299
#
# _framework density 15.68451
#
# number of rings (size 3 to 8) (size 9 to 14) (size 15 to 20)
#    0.000    2.538    0.769    1.615    2.154    4.308 
#    0.000    0.385    0.000    0.000    0.000    4.308 
#    0.000    0.077    0.000    2.154    0.000    0.692 
#
# Total GULP energy -289589.995954 kJ/mol
# GULP energy per Si atom -5569.038384 kJ/mol
# Density = 1.564881 g / cm^3
# Si number density = 15.684510 Si / 1000 Ang^3
#
#
#
# Elastic Constant Matrix: (Units=GPa)
#
#
# Indices 1 2 3 4 5 6 
#
# 1 76.2528 37.3792 30.2700 0.0000 0.0000 0.0000
# 2 37.3792 74.9431 45.8708 0.0001 0.0000 0.0000
# 3 30.2700 45.8708 76.5648 0.0002 0.0000 0.0000
# 4 0.0000 0.0001 0.0002 10.7098 0.0000 0.0000
# 5 0.0000 0.0000 0.0000 0.0000 35.2319 0.0000
# 6 0.0000 0.0000 0.0000 0.0000 0.0000 -0.4196
#
#
#
# Elastic Compliance Matrix: (Units=1/GPa)
#
#
# Indices 1 2 3 4 5 6 
#
# 1 0.017705 -0.007179 -0.002699 0.000000 0.000000 0.000000
# 2 -0.007179 0.023980 -0.011529 0.000000 0.000000 -0.000001
# 3 -0.002699 -0.011529 0.021035 0.000000 0.000000 0.000001
# 4 0.000000 0.000000 0.000000 0.093373 0.000000 0.000002
# 5 0.000000 0.000000 0.000000 0.000000 0.028383 0.000000
# 6 0.000000 -0.000001 0.000001 0.000002 0.000000 -2.383122
#
#
# Mechanical properties :
#
#
# Convention : Reuss Voigt Hill
#
# Bulk Modulus (GPa) = 50.23256 50.53340 50.38298
# Shear Modulus (GPa) = -2.32645 16.72045 7.19700
#
# Velocity S-wave (km/s) = -1.21922 3.26858 2.14443
# Velocity P-wave (km/s) = 5.48766 6.82154 6.19063
#
# Compressibility (1/GPa) = 0.01990741
#
# Stress axis : x y z
#
# Youngs Moduli (GPa) = 56.48259 41.70066 47.54023
#
# Poissons Ratio (x) = 0.29935 0.12830
# Poissons Ratio (y) = 0.40547 0.54808
# Poissons Ratio (z) = 0.15243 0.48076
#
# Static dielectric constant tensor:
#      x y z
#    x 1.528160 0.000000 0.000000 
#    y 0.000000 1.531920 0.000000 
#    z 0.000000 0.000000 1.510080 
# 
# From -- ./inp_files/43849.got.cif
#   From: 2010.05.17/outbox.cif.g08.bks.cpg/sg71_22_cif.got.tgz:43849.got - 2010.06.03 16:22:01.
