data_PCOD9518779
_publ_section_title
;
Structure prediction by ZEFSAII (Michael W. Deem and Ramdas Pophale) SiO2 
 PCOD9518779
Probable space group: I M M M
;
_chemical_formula_sum "Si O2"
_cell_formula_units_Z 104
_cell_length_a 20.312600
_cell_length_b 8.410087
_cell_length_c 25.146220
_cell_angle_alpha 90.000000
_cell_angle_beta 90.000000
_cell_angle_gamma 90.000000
_cell_volume 4295.747200
_symmetry_space_group_name_H-M "I M M M"
_symmetry_group_IT_number 71
_symmetry_cell_setting 'orthorhombic'
loop_
_space_group_symop_operation_xyz
x,y,z
-x,-y,z
x,-y,-z
-x,y,-z
-x,-y,-z
x,y,-z
-x,y,z
x,-y,z
1/2+x,1/2+y,1/2+z
1/2-x,1/2-y,1/2+z
1/2+x,1/2-y,1/2-z
1/2-x,1/2+y,1/2-z
1/2-x,1/2-y,1/2-z
1/2+x,1/2+y,1/2-z
1/2-x,1/2+y,1/2+z
1/2+x,1/2-y,1/2+z
loop_
_atom_site_type_symbol
_atom_site_label
_atom_site_fract_x
_atom_site_fract_y
_atom_site_fract_z
Si Si1 0.389453 0.809104 0.670551
Si Si2 0.100724 0.812826 0.942372
Si Si3 0.739944 0.190006 0.940882
Si Si4 0.925824 0.500000 0.437546
Si Si5 0.394209 0.187668 0.786986
Si Si6 0.737953 0.686731 0.173040
Si Si7 0.423877 0.327048 0.896948
O O1 0.420149 0.753636 0.615033
O O2 0.418283 0.767101 0.728217
O O3 0.313097 0.754358 0.675137
O O4 0.387601 0.000000 0.668650
O O5 0.180052 0.793124 0.942756
O O6 0.086033 0.000000 0.942173
O O7 0.077433 0.747599 0.000000
O O8 0.720260 0.289575 0.889111
O O9 0.728679 0.000000 0.933963
O O10 0.716304 0.237722 0.000000
O O11 0.930413 0.500000 0.500000
O O12 0.894659 0.665829 0.421001
O O13 0.000000 0.500000 0.413789
O O14 0.315214 0.214933 0.793290
O O15 0.422553 0.295698 0.833796
O O16 0.408109 0.000000 0.796382
O O17 0.734516 0.500000 0.187042
O O18 0.500000 0.329801 0.915314
O O19 0.396623 0.500000 0.910144
#
# Coordination Sequence:
#
# PCOD9518779 Si02
#       7
#    16  16  16   8  16  16  16
#     4   9  19  31  45  69  98 132 172 214 256 305
#     4   8  14  25  42  63  88 121 161 204 247 291
#     4   8  14  26  42  58  80 116 160 201 245 295
#     4   9  18  36  62  88 112 138 169 213 271 325
#     4  11  21  34  51  70  99 136 173 211 260 313
#     4  10  19  30  44  66  96 128 168 213 259 304
#     4  10  21  38  60  85 110 137 172 215 268 325
#
# _framework density 24.209989
#
# number of rings (size 3 to 8) (size 9 to 14) (size 15 to 20)
#    0.000    2.692    0.769    2.308    0.000    2.769 
#    0.000    5.385    0.000    1.846    0.000    0.000 
#    0.000    0.615    0.000    6.769    0.000    5.231 
#
# Total GULP energy -290379.868533 kJ/mol
# GULP energy per Si atom -5584.228241 kJ/mol
# Density = 2.415489 g / cm^3
# Si number density = 24.209989 Si / 1000 Ang^3
#
#
#
# Elastic Constant Matrix: (Units=GPa)
#
#
# Indices 1 2 3 4 5 6 
#
# 1 68.2872 10.4856 -2.3189 0.0000 0.0000 0.0000
# 2 10.4856 96.3054 37.6392 0.0000 0.0000 0.0000
# 3 -2.3189 37.6392 164.3108 0.0000 0.0000 0.0000
# 4 0.0000 0.0000 0.0000 31.4662 0.0000 0.0000
# 5 0.0000 0.0000 0.0000 0.0000 -10.9806 0.0000
# 6 0.0000 0.0000 0.0000 0.0000 0.0000 -16.5149
#
#
#
# Elastic Compliance Matrix: (Units=1/GPa)
#
#
# Indices 1 2 3 4 5 6 
#
# 1 0.014954 -0.001879 0.000641 0.000000 0.000000 0.000000
# 2 -0.001879 0.011641 -0.002693 0.000000 0.000000 0.000000
# 3 0.000641 -0.002693 0.006712 0.000000 0.000000 0.000000
# 4 0.000000 0.000000 0.000000 0.031780 0.000000 0.000000
# 5 0.000000 0.000000 0.000000 0.000000 -0.091070 0.000000
# 6 0.000000 0.000000 0.000000 0.000000 0.000000 -0.060551
#
#
# Mechanical properties :
#
#
# Convention : Reuss Voigt Hill
#
# Bulk Modulus (GPa) = 39.29897 46.72392 43.01145
# Shear Modulus (GPa) = -71.23423 19.66732 -25.78346
#
# Velocity S-wave (km/s) = -5.43023 2.85329 -3.26696
# Velocity P-wave (km/s) = 4.80091 5.49512 1.89046
#
# Compressibility (1/GPa) = 0.02544596
#
# Stress axis : x y z
#
# Youngs Moduli (GPa) = 66.87034 85.90503 148.98694
#
# Poissons Ratio (x) = 0.16141 -0.09557
# Poissons Ratio (y) = 0.12564 0.40124
# Poissons Ratio (z) = -0.04289 0.23135
#
# Static dielectric constant tensor:
#      x y z
#    x 2.063060 0.000000 0.000000 
#    y 0.000000 1.855460 0.000000 
#    z 0.000000 0.000000 1.948370 
# 
# From -- ./inp_files/61974.got.cif
#   From: 2010.05.17/outbox.cif.g08.bks.cpg/sg71_31_cif.got.tgz:61974.got - 2010.06.03 16:22:01.
