data_PCOD9518167
_publ_section_title
;
Structure prediction by ZEFSAII (Michael W. Deem and Ramdas Pophale) SiO2 
 PCOD9518167
Probable space group: I M M M
;
_chemical_formula_sum "Si O2"
_cell_formula_units_Z 116
_cell_length_a 26.673474
_cell_length_b 28.819873
_cell_length_c 7.656599
_cell_angle_alpha 90.000000
_cell_angle_beta 90.000000
_cell_angle_gamma 90.000000
_cell_volume 5885.827742
_symmetry_space_group_name_H-M "I M M M"
_symmetry_group_IT_number 71
_symmetry_cell_setting 'orthorhombic'
loop_
_space_group_symop_operation_xyz
x,y,z
-x,-y,z
x,-y,-z
-x,y,-z
-x,-y,-z
x,y,-z
-x,y,z
x,-y,z
1/2+x,1/2+y,1/2+z
1/2-x,1/2-y,1/2+z
1/2+x,1/2-y,1/2-z
1/2-x,1/2+y,1/2-z
1/2-x,1/2-y,1/2-z
1/2+x,1/2+y,1/2-z
1/2-x,1/2+y,1/2+z
1/2+x,1/2-y,1/2+z
loop_
_atom_site_type_symbol
_atom_site_label
_atom_site_fract_x
_atom_site_fract_y
_atom_site_fract_z
Si Si1 0.554706 0.299635 0.692604
Si Si2 0.740812 0.052381 0.214066
Si Si3 0.785338 0.190393 0.298747
Si Si4 0.356150 0.768224 0.787564
Si Si5 0.944495 0.054916 0.710424
Si Si6 0.686003 0.859624 0.801021
Si Si7 0.841344 0.896332 0.795443
Si Si8 0.500000 0.657069 0.000000
O O1 0.563920 0.320427 0.500000
O O2 0.500000 0.275232 0.688231
O O3 0.596102 0.261333 0.731457
O O4 0.543747 0.336233 0.846194
O O5 0.700813 0.090728 0.277501
O O6 0.796460 0.069609 0.266135
O O7 0.731643 0.000000 0.270965
O O8 0.739749 0.052996 0.000000
O O9 0.770246 0.195176 0.500000
O O10 0.807852 0.238224 0.229904
O O11 0.739446 0.167404 0.197983
O O12 0.830988 0.153193 0.291539
O O13 0.351222 0.821094 0.723772
O O14 0.355088 0.768837 0.000000
O O15 0.946869 0.059997 0.500000
O O16 0.895154 0.080795 0.771877
O O17 0.000000 0.069643 0.775191
O O18 0.939554 0.000000 0.749658
O O19 0.669711 0.868148 0.000000
O O20 0.833286 0.888608 0.000000
#
# Coordination Sequence:
#
# PCOD9518167 Si02
#       8
#    16  16  16  16  16  16  16   4
#     4   9  17  29  49  71  92 126 162 198 240 281
#     4   8  14  26  44  66  90 116 147 184 227 277
#     4  10  20  31  45  63  90 125 160 198 239 284
#     4  10  18  31  47  66  95 129 160 199 246 286
#     4   9  18  32  49  68  90 114 144 187 240 296
#     4   9  18  30  46  68  95 124 156 195 239 282
#     4  10  19  31  46  64  87 116 155 197 234 279
#     4   8  14  32  48  66 104 116 155 214 229 282
#
# _framework density 19.708356999999999
#
# number of rings (size 3 to 8) (size 9 to 14) (size 15 to 20)
#    0.414    2.345    0.690    2.897    0.000    2.759 
#    0.000    1.379    0.000    4.552    0.000    0.000 
#    0.000    0.552    0.000    8.069    0.000    3.586 
#
# Total GULP energy -323048.516240 kJ/mol
# GULP energy per Si atom -5569.802004 kJ/mol
# Density = 1.966350 g / cm^3
# Si number density = 19.708357 Si / 1000 Ang^3
#
#
#
# Elastic Constant Matrix: (Units=GPa)
#
#
# Indices 1 2 3 4 5 6 
#
# 1 44.9496 24.4005 2.7625 0.0000 0.0000 0.0000
# 2 24.4005 127.1747 9.8633 0.0000 0.0000 0.0000
# 3 2.7625 9.8633 75.1323 0.0000 0.0000 0.0000
# 4 0.0000 0.0000 0.0000 8.2238 0.0000 0.0000
# 5 0.0000 0.0000 0.0000 0.0000 29.6141 0.0000
# 6 0.0000 0.0000 0.0000 0.0000 0.0000 21.3048
#
#
#
# Elastic Compliance Matrix: (Units=1/GPa)
#
#
# Indices 1 2 3 4 5 6 
#
# 1 0.024840 -0.004743 -0.000291 0.000000 0.000000 0.000000
# 2 -0.004743 0.008850 -0.000987 0.000000 0.000000 0.000000
# 3 -0.000291 -0.000987 0.013450 0.000000 0.000000 0.000000
# 4 0.000000 0.000000 0.000000 0.121598 0.000000 0.000000
# 5 0.000000 0.000000 0.000000 0.000000 0.033768 0.000000
# 6 0.000000 0.000000 0.000000 0.000000 0.000000 0.046938
#
#
# Mechanical properties :
#
#
# Convention : Reuss Voigt Hill
#
# Bulk Modulus (GPa) = 28.49237 35.70104 32.09670
# Shear Modulus (GPa) = 18.30263 25.84392 22.07327
#
# Velocity S-wave (km/s) = 3.05072 3.62514 3.35026
# Velocity P-wave (km/s) = 5.18629 5.97295 5.59347
#
# Compressibility (1/GPa) = 0.03509712
#
# Stress axis : x y z
#
# Youngs Moduli (GPa) = 40.25784 112.99596 74.34853
#
# Poissons Ratio (x) = 0.53598 0.02161
# Poissons Ratio (y) = 0.19096 0.07341
# Poissons Ratio (z) = 0.01170 0.11157
#
# Static dielectric constant tensor:
#      x y z
#    x 1.708790 0.000000 0.000000 
#    y 0.000000 1.747970 0.000000 
#    z 0.000000 0.000000 1.775440 
# 
# From -- ./inp_files/17536.got.cif
#   From: 2010.05.17/outbox.cif.g08.bks.cpg/sg71_9_cif.got.tgz:17536.got - 2010.06.03 16:22:01.
