data_PCOD9518284
_publ_section_title
;
Structure prediction by ZEFSAII (Michael W. Deem and Ramdas Pophale) SiO2 
 PCOD9518284
Probable space group: I M M M
;
_chemical_formula_sum "Si O2"
_cell_formula_units_Z 104
_cell_length_a 14.187156
_cell_length_b 22.752337
_cell_length_c 17.523674
_cell_angle_alpha 90.000000
_cell_angle_beta 90.000000
_cell_angle_gamma 90.000000
_cell_volume 5656.483455
_symmetry_space_group_name_H-M "I M M M"
_symmetry_group_IT_number 71
_symmetry_cell_setting 'orthorhombic'
loop_
_space_group_symop_operation_xyz
x,y,z
-x,-y,z
x,-y,-z
-x,y,-z
-x,-y,-z
x,y,-z
-x,y,z
x,-y,z
1/2+x,1/2+y,1/2+z
1/2-x,1/2-y,1/2+z
1/2+x,1/2-y,1/2-z
1/2-x,1/2+y,1/2-z
1/2-x,1/2-y,1/2-z
1/2+x,1/2+y,1/2-z
1/2-x,1/2+y,1/2+z
1/2+x,1/2-y,1/2+z
loop_
_atom_site_type_symbol
_atom_site_label
_atom_site_fract_x
_atom_site_fract_y
_atom_site_fract_z
Si Si1 0.609293 0.141284 0.082665
Si Si2 0.266017 0.374195 0.300556
Si Si3 0.893511 0.775156 0.619198
Si Si4 0.105745 0.930314 0.082496
Si Si5 0.214755 0.352229 0.131638
Si Si6 0.891167 0.239709 0.802217
Si Si7 0.614493 0.928737 0.500000
O O1 0.500000 0.127361 0.093560
O O2 0.669815 0.120311 0.153250
O O3 0.617617 0.211978 0.080876
O O4 0.639338 0.117698 0.000000
O O5 0.336816 0.417294 0.342262
O O6 0.249276 0.381453 0.211075
O O7 0.315329 0.311190 0.319003
O O8 0.809022 0.819615 0.600054
O O9 0.889349 0.759716 0.709876
O O10 0.000000 0.797625 0.603587
O O11 0.000000 0.906565 0.090251
O O12 0.100574 0.000000 0.076390
O O13 0.143040 0.907789 0.000000
O O14 0.144896 0.299791 0.159743
O O15 0.163083 0.395959 0.072970
O O16 0.000000 0.227743 0.824500
O O17 0.500000 0.919833 0.500000
O O18 0.630434 0.000000 0.500000
#
# Coordination Sequence:
#
# PCOD9518284 Si02
#       7
#    16  16  16  16  16  16   8
#     4  10  19  29  45  75 117 153 178 209 261 335
#     4  11  19  33  56  86 114 148 187 235 280 342
#     4   9  17  31  51  82 120 150 177 213 271 350
#     4   9  19  36  56  81 117 158 191 223 269 326
#     4  11  21  37  60  81 109 146 193 240 300 353
#     4  10  18  31  52  85 121 147 178 229 291 347
#     4  11  28  50  65  79 105 147 203 269 323 356
#
# _framework density 18.385981000000001
#
# number of rings (size 3 to 8) (size 9 to 14) (size 15 to 20)
#    0.000    1.923    3.077    2.769    1.077    1.846 
#    1.385    0.000    0.000    1.385    0.000    2.154 
#    0.000    0.000    0.000    0.000    0.000    0.000 
#
# Total GULP energy -289708.238895 kJ/mol
# GULP energy per Si atom -5571.312286 kJ/mol
# Density = 1.834413 g / cm^3
# Si number density = 18.385981 Si / 1000 Ang^3
#
#
#
# Elastic Constant Matrix: (Units=GPa)
#
#
# Indices 1 2 3 4 5 6 
#
# 1 121.2401 25.2006 44.2042 0.0000 0.0000 0.0000
# 2 25.2006 54.1785 33.8040 0.0002 0.0000 0.0000
# 3 44.2042 33.8040 97.0353 0.0003 0.0000 0.0000
# 4 0.0000 0.0002 0.0003 27.1486 0.0000 0.0000
# 5 0.0000 0.0000 0.0000 0.0000 23.7894 0.0000
# 6 0.0000 0.0000 0.0000 0.0000 0.0000 29.0269
#
#
#
# Elastic Compliance Matrix: (Units=1/GPa)
#
#
# Indices 1 2 3 4 5 6 
#
# 1 0.010118 -0.002339 -0.003794 0.000000 0.000000 0.000000
# 2 -0.002339 0.024124 -0.007339 0.000000 0.000000 0.000000
# 3 -0.003794 -0.007339 0.014591 0.000000 0.000000 0.000000
# 4 0.000000 0.000000 0.000000 0.036834 0.000000 0.000000
# 5 0.000000 0.000000 0.000000 0.000000 0.042035 0.000000
# 6 0.000000 0.000000 0.000000 0.000000 0.000000 0.034451
#
#
# Mechanical properties :
#
#
# Convention : Reuss Voigt Hill
#
# Bulk Modulus (GPa) = 45.68510 53.20792 49.44651
# Shear Modulus (GPa) = 25.45917 27.27600 26.36758
#
# Velocity S-wave (km/s) = 3.72520 3.85583 3.79108
# Velocity P-wave (km/s) = 6.58821 6.98752 6.79080
#
# Compressibility (1/GPa) = 0.02188897
#
# Stress axis : x y z
#
# Youngs Moduli (GPa) = 98.83748 41.45208 68.53724
#
# Poissons Ratio (x) = 0.09694 0.26005
# Poissons Ratio (y) = 0.23115 0.50298
# Poissons Ratio (z) = 0.37502 0.30421
#
# Static dielectric constant tensor:
#      x y z
#    x 1.663190 0.000000 0.000000 
#    y 0.000000 1.632000 0.000000 
#    z 0.000000 0.000000 1.677660 
# 
# From -- ./inp_files/44966.got.cif
#   From: 2010.05.17/outbox.cif.g08.bks.cpg/sg71_23_cif.got.tgz:44966.got - 2010.06.03 16:22:01.
