data_PCOD9518092
_publ_section_title
;
Structure prediction by ZEFSAII (Michael W. Deem and Ramdas Pophale) SiO2 
 PCOD9518092
Probable space group: I M M M
;
_chemical_formula_sum "Si O2"
_cell_formula_units_Z 80
_cell_length_a 25.725409
_cell_length_b 21.240941
_cell_length_c 8.602240
_cell_angle_alpha 90.000000
_cell_angle_beta 90.000000
_cell_angle_gamma 90.000000
_cell_volume 4700.538302
_symmetry_space_group_name_H-M "I M M M"
_symmetry_group_IT_number 71
_symmetry_cell_setting 'orthorhombic'
loop_
_space_group_symop_operation_xyz
x,y,z
-x,-y,z
x,-y,-z
-x,y,-z
-x,-y,-z
x,y,-z
-x,y,z
x,-y,z
1/2+x,1/2+y,1/2+z
1/2-x,1/2-y,1/2+z
1/2+x,1/2-y,1/2-z
1/2-x,1/2+y,1/2-z
1/2-x,1/2-y,1/2-z
1/2+x,1/2+y,1/2-z
1/2-x,1/2+y,1/2+z
1/2+x,1/2-y,1/2+z
loop_
_atom_site_type_symbol
_atom_site_label
_atom_site_fract_x
_atom_site_fract_y
_atom_site_fract_z
Si Si1 0.500000 0.602740 0.817271
Si Si2 0.614127 0.756110 0.315443
Si Si3 0.112469 0.113470 0.311247
Si Si4 0.000000 0.241517 0.815224
Si Si5 0.274244 0.430693 0.187635
Si Si6 0.782846 0.308708 0.315958
O O1 0.557244 0.584036 0.756628
O O2 0.500000 0.678171 0.787428
O O3 0.500000 0.587390 0.000000
O O4 0.623237 0.755730 0.500000
O O5 0.617725 0.684343 0.253638
O O6 0.554346 0.776049 0.286207
O O7 0.657932 0.797765 0.236009
O O8 0.110283 0.116837 0.500000
O O9 0.165062 0.077788 0.268451
O O10 0.000000 0.223172 0.000000
O O11 0.256197 0.500000 0.236717
O O12 0.241366 0.373302 0.254027
O O13 0.272017 0.427304 0.000000
O O14 0.779083 0.307117 0.500000
O O15 0.750000 0.250000 0.250000
#
# Coordination Sequence:
#
# PCOD9518092 Si02
#       6
#     8  16  16   8  16  16
#     4   8  14  24  41  66  94 129 170 210 248 289
#     4  10  18  30  50  76 104 134 166 207 254 305
#     4   9  16  28  46  68  98 134 172 211 252 297
#     4   8  16  28  44  71 104 132 161 198 250 306
#     4  10  21  36  52  72 102 139 176 215 260 310
#     4  12  23  35  53  77 103 134 175 219 261 309
#
# _framework density 17.019327000000001
#
# number of rings (size 3 to 8) (size 9 to 14) (size 15 to 20)
#    0.000    2.200    2.000    2.400    0.000    1.200 
#    0.000    0.500    0.000    3.000    0.000    0.700 
#    0.000   15.200    0.000    0.000    0.000    0.000 
#
# Total GULP energy -222986.122769 kJ/mol
# GULP energy per Si atom -5574.653069 kJ/mol
# Density = 1.698059 g / cm^3
# Si number density = 17.019327 Si / 1000 Ang^3
#
#
#
# Elastic Constant Matrix: (Units=GPa)
#
#
# Indices 1 2 3 4 5 6 
#
# 1 117.1423 64.1455 34.2050 0.0000 0.0000 0.0000
# 2 64.1455 100.5450 32.1797 0.0000 0.0000 0.0000
# 3 34.2050 32.1797 40.0068 0.0000 0.0000 0.0000
# 4 0.0000 0.0000 0.0000 14.3306 0.0000 0.0000
# 5 0.0000 0.0000 0.0000 0.0000 21.1481 0.0000
# 6 0.0000 0.0000 0.0000 0.0000 0.0000 10.4629
#
#
#
# Elastic Compliance Matrix: (Units=1/GPa)
#
#
# Indices 1 2 3 4 5 6 
#
# 1 0.014301 -0.007017 -0.006583 0.000000 0.000000 0.000000
# 2 -0.007017 0.016837 -0.007543 0.000000 0.000000 0.000000
# 3 -0.006583 -0.007543 0.036692 0.000000 0.000000 0.000000
# 4 0.000000 0.000000 0.000000 0.069781 0.000000 0.000000
# 5 0.000000 0.000000 0.000000 0.000000 0.047285 0.000000
# 6 0.000000 0.000000 0.000000 0.000000 0.000000 0.095576
#
#
# Mechanical properties :
#
#
# Convention : Reuss Voigt Hill
#
# Bulk Modulus (GPa) = 39.14997 57.63939 48.39468
# Shear Modulus (GPa) = 15.09327 17.66590 16.37959
#
# Velocity S-wave (km/s) = 2.98120 3.22528 3.10564
# Velocity P-wave (km/s) = 5.90790 6.91451 6.43093
#
# Compressibility (1/GPa) = 0.02554280
#
# Stress axis : x y z
#
# Youngs Moduli (GPa) = 69.92383 59.39396 27.25406
#
# Poissons Ratio (x) = 0.41676 0.17942
# Poissons Ratio (y) = 0.49065 0.20559
# Poissons Ratio (z) = 0.46032 0.44803
#
# Static dielectric constant tensor:
#      x y z
#    x 1.627710 0.000000 0.000000 
#    y 0.000000 1.548330 0.000000 
#    z 0.000000 0.000000 1.577450 
# 
# From -- ./inp_files/8381.got.cif
#   From: 2010.05.17/outbox.cif.g08.bks.cpg/sg71_5_cif.got.tgz:8381.got - 2010.06.03 16:22:01.
