data_PCOD9518887
_publ_section_title
;
Structure prediction by ZEFSAII (Michael W. Deem and Ramdas Pophale) SiO2 
 PCOD9518887
Probable space group: I M M M
;
_chemical_formula_sum "Si O2"
_cell_formula_units_Z 80
_cell_length_a 19.631819
_cell_length_b 10.137340
_cell_length_c 25.149493
_cell_angle_alpha 90.000000
_cell_angle_beta 90.000000
_cell_angle_gamma 90.000000
_cell_volume 5005.111864
_symmetry_space_group_name_H-M "I M M M"
_symmetry_group_IT_number 71
_symmetry_cell_setting 'orthorhombic'
loop_
_space_group_symop_operation_xyz
x,y,z
-x,-y,z
x,-y,-z
-x,y,-z
-x,-y,-z
x,y,-z
-x,y,z
x,-y,z
1/2+x,1/2+y,1/2+z
1/2-x,1/2-y,1/2+z
1/2+x,1/2-y,1/2-z
1/2-x,1/2+y,1/2-z
1/2-x,1/2-y,1/2-z
1/2+x,1/2+y,1/2-z
1/2-x,1/2+y,1/2+z
1/2+x,1/2-y,1/2+z
loop_
_atom_site_type_symbol
_atom_site_label
_atom_site_fract_x
_atom_site_fract_y
_atom_site_fract_z
Si Si1 0.127902 0.000000 0.438042
Si Si2 0.720930 0.756113 0.940287
Si Si3 0.381101 0.000000 0.943457
Si Si4 0.354281 0.158166 0.251895
Si Si5 0.500000 0.500000 0.857862
Si Si6 0.500000 0.000000 0.861855
Si Si7 0.765585 0.842838 0.829237
Si Si8 0.500000 0.756652 0.215913
O O1 0.176737 0.874461 0.430806
O O2 0.065906 0.000000 0.396587
O O3 0.103637 0.000000 0.500000
O O4 0.766966 0.790812 0.889694
O O5 0.667059 0.874492 0.941307
O O6 0.752149 0.748023 0.000000
O O7 0.433538 0.000000 0.896935
O O8 0.418011 0.000000 0.000000
O O9 0.310368 0.168946 0.196933
O O10 0.312854 0.247142 0.294009
O O11 0.429594 0.219440 0.247233
O O12 0.357043 0.000000 0.264172
O O13 0.500000 0.375939 0.818319
O O14 0.500000 0.126841 0.826238
O O15 0.782803 0.000000 0.826447
#
# Coordination Sequence:
#
# PCOD9518887 Si02
#       8
#     8  16   8  16   4   4  16   8
#     4  10  21  34  47  70 107 146 184 221 256 302
#     4  10  20  34  52  75 104 137 175 221 267 312
#     4  10  19  30  47  72 101 134 174 215 254 298
#     4  10  21  37  53  77 103 139 177 220 267 322
#     4  12  23  32  50  72 102 148 187 220 260 306
#     4  12  19  32  50  68  98 140 179 212 250 302
#     4  10  20  34  56  78 106 134 174 220 271 321
#     4  12  24  36  53  74 105 140 182 225 266 313
#
# _framework density 15.983658
#
# number of rings (size 3 to 8) (size 9 to 14) (size 15 to 20)
#    0.000    1.600    2.000    3.900    2.800    0.000 
#    0.000    4.000    0.000    0.000    0.000    0.700 
#    0.000    3.200    0.000    0.000    0.000    0.000 
#
# Total GULP energy -222985.675895 kJ/mol
# GULP energy per Si atom -5574.641897 kJ/mol
# Density = 1.594728 g / cm^3
# Si number density = 15.983658 Si / 1000 Ang^3
#
#
#
# Elastic Constant Matrix: (Units=GPa)
#
#
# Indices 1 2 3 4 5 6 
#
# 1 75.5848 32.9306 39.7627 0.0000 0.0000 0.0000
# 2 32.9306 137.5277 41.7854 0.0000 0.0000 0.0000
# 3 39.7627 41.7854 104.0999 0.0000 0.0000 0.0000
# 4 0.0000 0.0000 0.0000 26.4979 0.0000 0.0000
# 5 0.0000 0.0000 0.0000 0.0000 27.1865 0.0000
# 6 0.0000 0.0000 0.0000 0.0000 0.0000 12.8050
#
#
#
# Elastic Compliance Matrix: (Units=1/GPa)
#
#
# Indices 1 2 3 4 5 6 
#
# 1 0.017238 -0.002422 -0.005612 0.000000 0.000000 0.000000
# 2 -0.002422 0.008622 -0.002535 0.000000 0.000000 0.000000
# 3 -0.005612 -0.002535 0.012767 0.000000 0.000000 0.000000
# 4 0.000000 0.000000 0.000000 0.037739 0.000000 0.000000
# 5 0.000000 0.000000 0.000000 0.000000 0.036783 0.000000
# 6 0.000000 0.000000 0.000000 0.000000 0.000000 0.078095
#
#
# Mechanical properties :
#
#
# Convention : Reuss Voigt Hill
#
# Bulk Modulus (GPa) = 57.18419 60.68553 58.93486
# Shear Modulus (GPa) = 22.91348 26.81345 24.86347
#
# Velocity S-wave (km/s) = 3.79034 4.10024 3.94833
# Velocity P-wave (km/s) = 7.41687 7.77596 7.59854
#
# Compressibility (1/GPa) = 0.01748735
#
# Stress axis : x y z
#
# Youngs Moduli (GPa) = 58.01191 115.98707 78.32439
#
# Poissons Ratio (x) = 0.28098 0.43955
# Poissons Ratio (y) = 0.14053 0.19858
# Poissons Ratio (z) = 0.32556 0.29407
#
# Static dielectric constant tensor:
#      x y z
#    x 1.533120 0.000000 0.000000 
#    y 0.000000 4.248430 0.000000 
#    z 0.000000 0.000000 1.581470 
# 
# From -- ./inp_files/60521.got.cif
#   From: 2010.05.17/outbox.cif.g08.bks.cpg/sg71_31_cif.got.tgz:60521.got - 2010.06.03 16:22:01.
