data_PCOD9518594
_publ_section_title
;
Structure prediction by ZEFSAII (Michael W. Deem and Ramdas Pophale) SiO2 
 PCOD9518594
Probable space group: I M M M
;
_chemical_formula_sum "Si O2"
_cell_formula_units_Z 88
_cell_length_a 23.078182
_cell_length_b 9.137296
_cell_length_c 35.143334
_cell_angle_alpha 90.000000
_cell_angle_beta 90.000000
_cell_angle_gamma 90.000000
_cell_volume 7410.751456
_symmetry_space_group_name_H-M "I M M M"
_symmetry_group_IT_number 71
_symmetry_cell_setting 'orthorhombic'
loop_
_space_group_symop_operation_xyz
x,y,z
-x,-y,z
x,-y,-z
-x,y,-z
-x,-y,-z
x,y,-z
-x,y,z
x,-y,z
1/2+x,1/2+y,1/2+z
1/2-x,1/2-y,1/2+z
1/2+x,1/2-y,1/2-z
1/2-x,1/2+y,1/2-z
1/2-x,1/2-y,1/2-z
1/2+x,1/2+y,1/2-z
1/2-x,1/2+y,1/2+z
1/2+x,1/2-y,1/2+z
loop_
_atom_site_type_symbol
_atom_site_label
_atom_site_fract_x
_atom_site_fract_y
_atom_site_fract_z
Si Si1 0.261412 0.332294 0.191234
Si Si2 0.430220 0.173248 0.921730
Si Si3 0.431954 0.173172 0.774324
Si Si4 0.876851 0.176503 0.348021
Si Si5 0.070345 0.831116 0.500000
Si Si6 0.836257 0.832544 0.230267
O O1 0.243766 0.500000 0.184388
O O2 0.309292 0.287224 0.160268
O O3 0.205603 0.232992 0.198103
O O4 0.297883 0.330957 0.230847
O O5 0.500000 0.190188 0.917790
O O6 0.399923 0.254695 0.886785
O O7 0.412513 0.246258 0.961722
O O8 0.417880 0.000000 0.921448
O O9 0.500000 0.195084 0.767474
O O10 0.413096 0.256266 0.812883
O O11 0.391953 0.236309 0.740705
O O12 0.420975 0.000000 0.779110
O O13 0.882252 0.000000 0.347695
O O14 0.000000 0.832666 0.500000
O O15 0.089803 0.000000 0.500000
O O16 0.852152 0.000000 0.222609
#
# Coordination Sequence:
#
# PCOD9518594 Si02
#       6
#    16  16  16  16   8  16
#     4   8  15  26  37  50  67  86 109 137 170 206
#     4  10  19  29  40  54  72  92 113 140 176 214
#     4  10  19  28  37  50  69  92 115 141 176 213
#     4  10  19  28  39  54  70  89 113 143 177 210
#     4   9  17  29  43  55  67  87 115 143 170 205
#     4   9  16  25  38  52  65  85 111 139 170 204
#
# _framework density 11.874639999999999
#
# number of rings (size 3 to 8) (size 9 to 14) (size 15 to 20)
#    0.000    2.636    0.000    4.091    0.000   10.909 
#    0.000    0.000    0.000    0.000    0.000    0.000 
#    0.000    0.000    0.000    0.000    0.000    0.000 
#
# Total GULP energy -245088.151065 kJ/mol
# GULP energy per Si atom -5570.185251 kJ/mol
# Density = 1.184761 g / cm^3
# Si number density = 11.874640 Si / 1000 Ang^3
#
#
#
# Elastic Constant Matrix: (Units=GPa)
#
#
# Indices 1 2 3 4 5 6 
#
# 1 60.1181 54.0225 41.6557 0.0000 0.0000 0.0000
# 2 54.0225 91.5371 46.4639 0.0000 0.0000 0.0000
# 3 41.6557 46.4639 54.6607 0.0000 0.0000 0.0000
# 4 0.0000 0.0000 0.0000 17.6445 0.0000 0.0000
# 5 0.0000 0.0000 0.0000 0.0000 16.4845 0.0000
# 6 0.0000 0.0000 0.0000 0.0000 0.0000 18.4951
#
#
#
# Elastic Compliance Matrix: (Units=1/GPa)
#
#
# Indices 1 2 3 4 5 6 
#
# 1 0.046049 -0.016470 -0.021093 0.000000 0.000000 0.000000
# 2 -0.016470 0.025107 -0.008790 0.000000 0.000000 0.000000
# 3 -0.021093 -0.008790 0.041841 0.000000 0.000000 0.000000
# 4 0.000000 0.000000 0.000000 0.056675 0.000000 0.000000
# 5 0.000000 0.000000 0.000000 0.000000 0.060663 0.000000
# 6 0.000000 0.000000 0.000000 0.000000 0.000000 0.054068
#
#
# Mechanical properties :
#
#
# Convention : Reuss Voigt Hill
#
# Bulk Modulus (GPa) = 49.28364 54.51111 51.89738
# Shear Modulus (GPa) = 13.02516 14.80309 13.91412
#
# Velocity S-wave (km/s) = 3.31552 3.53457 3.42680
# Velocity P-wave (km/s) = 7.50002 7.91598 7.71081
#
# Compressibility (1/GPa) = 0.02029071
#
# Stress axis : x y z
#
# Youngs Moduli (GPa) = 21.71582 39.83015 23.90014
#
# Poissons Ratio (x) = 0.65602 0.50412
# Poissons Ratio (y) = 0.35767 0.21008
# Poissons Ratio (z) = 0.45804 0.35010
#
# Static dielectric constant tensor:
#      x y z
#    x 1.377700 0.000000 0.000000 
#    y 0.000000 1.399370 0.000000 
#    z 0.000000 0.000000 1.365160 
# 
# From -- ./inp_files/11394.got.cif
#   From: 2010.05.17/outbox.cif.g08.bks.cpg/sg71_6_cif.got.tgz:11394.got - 2010.06.03 16:22:01.
