data_PCOD9518515
_publ_section_title
;
Structure prediction by ZEFSAII (Michael W. Deem and Ramdas Pophale) SiO2 
 PCOD9518515
Probable space group: I M M M
;
_chemical_formula_sum "Si O2"
_cell_formula_units_Z 96
_cell_length_a 25.981854
_cell_length_b 24.371095
_cell_length_c 8.471898
_cell_angle_alpha 90.000000
_cell_angle_beta 90.000000
_cell_angle_gamma 90.000000
_cell_volume 5364.458611
_symmetry_space_group_name_H-M "I M M M"
_symmetry_group_IT_number 71
_symmetry_cell_setting 'orthorhombic'
loop_
_space_group_symop_operation_xyz
x,y,z
-x,-y,z
x,-y,-z
-x,y,-z
-x,-y,-z
x,y,-z
-x,y,z
x,-y,z
1/2+x,1/2+y,1/2+z
1/2-x,1/2-y,1/2+z
1/2+x,1/2-y,1/2-z
1/2-x,1/2+y,1/2-z
1/2-x,1/2-y,1/2-z
1/2+x,1/2+y,1/2-z
1/2-x,1/2+y,1/2+z
1/2+x,1/2-y,1/2+z
loop_
_atom_site_type_symbol
_atom_site_label
_atom_site_fract_x
_atom_site_fract_y
_atom_site_fract_z
Si Si1 0.252235 0.688069 0.810562
Si Si2 0.059059 0.184000 0.688849
Si Si3 0.848413 0.618983 0.807495
Si Si4 0.652823 0.616678 0.688994
Si Si5 0.441099 0.805006 0.309187
Si Si6 0.185987 0.500000 0.191062
Si Si7 0.196737 0.000000 0.191003
O O1 0.250000 0.750000 0.750000
O O2 0.201549 0.654207 0.759687
O O3 0.302479 0.657252 0.747753
O O4 0.253504 0.688253 0.000000
O O5 0.060333 0.185549 0.500000
O O6 0.098703 0.138932 0.749132
O O7 0.074092 0.244266 0.752324
O O8 0.000000 0.173941 0.740133
O O9 0.900050 0.649861 0.754695
O O10 0.841067 0.556241 0.755218
O O11 0.849190 0.618592 0.000000
O O12 0.652042 0.617397 0.500000
O O13 0.667810 0.555360 0.742172
O O14 0.440776 0.804672 0.500000
O O15 0.500000 0.815333 0.256970
O O16 0.245123 0.500000 0.245712
O O17 0.185867 0.500000 0.000000
O O18 0.199012 0.000000 0.000000
#
# Coordination Sequence:
#
# PCOD9518515 Si02
#       7
#    16  16  16  16  16   8   8
#     4  11  21  33  51  78 110 142 179 225 277 329
#     4  10  21  37  57  82 109 139 179 223 269 326
#     4   9  18  31  50  76 104 137 180 221 263 317
#     4  11  22  37  56  79 108 141 180 224 274 330
#     4   9  17  32  54  79 109 144 179 219 270 324
#     4  10  18  34  55  73 101 144 184 222 268 321
#     4  10  22  38  55  78 107 140 182 227 270 323
#
# _framework density 17.895562000000002
#
# number of rings (size 3 to 8) (size 9 to 14) (size 15 to 20)
#    0.000    2.000    1.667    2.500    0.000    3.000 
#    0.000    2.500    0.000    5.000    0.000    0.000 
#    0.000    3.333    0.000    0.000    0.000    0.000 
#
# Total GULP energy -267993.938665 kJ/mol
# GULP energy per Si atom -5583.207056 kJ/mol
# Density = 1.785483 g / cm^3
# Si number density = 17.895562 Si / 1000 Ang^3
#
#
#
# Elastic Constant Matrix: (Units=GPa)
#
#
# Indices 1 2 3 4 5 6 
#
# 1 108.2809 84.8744 18.2156 0.0000 0.0000 0.0000
# 2 84.8744 169.3137 21.9922 0.0000 0.0000 0.0000
# 3 18.2156 21.9922 17.7566 0.0000 0.0000 0.0000
# 4 0.0000 0.0000 0.0000 17.7689 0.0000 0.0000
# 5 0.0000 0.0000 0.0000 0.0000 17.7701 0.0000
# 6 0.0000 0.0000 0.0000 0.0000 0.0000 25.7722
#
#
#
# Elastic Compliance Matrix: (Units=1/GPa)
#
#
# Indices 1 2 3 4 5 6 
#
# 1 0.016061 -0.007044 -0.007751 0.000000 0.000000 0.000000
# 2 -0.007044 0.010128 -0.005318 0.000000 0.000000 0.000000
# 3 -0.007751 -0.005318 0.070855 0.000000 0.000000 0.000000
# 4 0.000000 0.000000 0.000000 0.056278 0.000000 0.000000
# 5 0.000000 0.000000 0.000000 0.000000 0.056274 0.000000
# 6 0.000000 0.000000 0.000000 0.000000 0.000000 0.038802
#
#
# Mechanical properties :
#
#
# Convention : Reuss Voigt Hill
#
# Bulk Modulus (GPa) = 17.60027 60.61284 39.10656
# Shear Modulus (GPa) = 16.25681 23.61350 19.93515
#
# Velocity S-wave (km/s) = 3.01728 3.63646 3.34124
# Velocity P-wave (km/s) = 4.68988 7.18162 6.06509
#
# Compressibility (1/GPa) = 0.05681730
#
# Stress axis : x y z
#
# Youngs Moduli (GPa) = 62.26389 98.73586 14.11330
#
# Poissons Ratio (x) = 0.69551 0.10940
# Poissons Ratio (y) = 0.43860 0.07505
# Poissons Ratio (z) = 0.48263 0.52505
#
# Static dielectric constant tensor:
#      x y z
#    x 1.599470 0.000000 0.000000 
#    y 0.000000 1.596540 0.000000 
#    z 0.000000 0.000000 1.612090 
# 
# From -- ./inp_files/12909.got.cif
#   From: 2010.05.17/outbox.cif.g08.bks.cpg/sg71_7_cif.got.tgz:12909.got - 2010.06.03 16:22:01.
