data_PCOD9518433
_publ_section_title
;
Structure prediction by ZEFSAII (Michael W. Deem and Ramdas Pophale) SiO2 
 PCOD9518433
Probable space group: I M M M
;
_chemical_formula_sum "Si O2"
_cell_formula_units_Z 88
_cell_length_a 28.396218
_cell_length_b 8.724399
_cell_length_c 20.069286
_cell_angle_alpha 90.000000
_cell_angle_beta 90.000000
_cell_angle_gamma 90.000000
_cell_volume 4971.963628
_symmetry_space_group_name_H-M "I M M M"
_symmetry_group_IT_number 71
_symmetry_cell_setting 'orthorhombic'
loop_
_space_group_symop_operation_xyz
x,y,z
-x,-y,z
x,-y,-z
-x,y,-z
-x,-y,-z
x,y,-z
-x,y,z
x,-y,z
1/2+x,1/2+y,1/2+z
1/2-x,1/2-y,1/2+z
1/2+x,1/2-y,1/2-z
1/2-x,1/2+y,1/2-z
1/2-x,1/2-y,1/2-z
1/2+x,1/2+y,1/2-z
1/2-x,1/2+y,1/2+z
1/2+x,1/2-y,1/2+z
loop_
_atom_site_type_symbol
_atom_site_label
_atom_site_fract_x
_atom_site_fract_y
_atom_site_fract_z
Si Si1 0.371968 0.316675 0.923789
Si Si2 0.813155 0.815445 0.198026
Si Si3 0.582324 0.315072 0.675079
Si Si4 0.500000 0.312844 0.423660
Si Si5 0.710463 0.817047 0.157681
Si Si6 0.054192 0.316779 0.681202
O O1 0.374032 0.500000 0.920109
O O2 0.321191 0.261184 0.898043
O O3 0.410532 0.248401 0.873789
O O4 0.380097 0.268520 0.000000
O O5 0.862860 0.774008 0.165022
O O6 0.765847 0.775838 0.157702
O O7 0.808820 0.737126 0.270253
O O8 0.812561 0.000000 0.208271
O O9 0.579597 0.500000 0.678725
O O10 0.546174 0.264518 0.617879
O O11 0.566709 0.249652 0.746317
O O12 0.500000 0.500000 0.424737
O O13 0.500000 0.260482 0.500000
O O14 0.705988 0.000000 0.152702
O O15 0.058734 0.500000 0.683466
O O16 0.000000 0.277308 0.665622
#
# Coordination Sequence:
#
# PCOD9518433 Si02
#       6
#    16  16  16   8  16  16
#     4  11  24  40  57  78 109 150 192 234 282 338
#     4   9  18  31  51  81 112 142 181 228 274 324
#     4  10  18  32  56  83 111 147 187 227 271 324
#     4   9  18  32  53  83 114 145 182 223 269 320
#     4  10  19  32  52  80 111 143 181 229 280 325
#     4  11  23  37  56  84 113 141 182 233 282 336
#
# _framework density 17.699245000000001
#
# number of rings (size 3 to 8) (size 9 to 14) (size 15 to 20)
#    0.000    1.909    2.727    1.636    0.000    3.636 
#    0.000    2.727    0.000    4.364    0.000    0.000 
#    0.000    0.000    0.000    0.000    0.000    0.000 
#
# Total GULP energy -245584.468238 kJ/mol
# GULP energy per Si atom -5581.465187 kJ/mol
# Density = 1.765896 g / cm^3
# Si number density = 17.699245 Si / 1000 Ang^3
#
#
#
# Elastic Constant Matrix: (Units=GPa)
#
#
# Indices 1 2 3 4 5 6 
#
# 1 166.8354 36.1485 88.9054 0.0000 0.0000 0.0000
# 2 36.1485 17.6026 26.2937 0.0000 0.0000 0.0000
# 3 88.9054 26.2937 138.8286 0.0000 0.0000 0.0000
# 4 0.0000 0.0000 0.0000 12.0390 0.0000 0.0000
# 5 0.0000 0.0000 0.0000 0.0000 25.2875 0.0000
# 6 0.0000 0.0000 0.0000 0.0000 0.0000 22.1545
#
#
#
# Elastic Compliance Matrix: (Units=1/GPa)
#
#
# Indices 1 2 3 4 5 6 
#
# 1 0.012444 -0.019037 -0.004364 0.000000 0.000000 0.000000
# 2 -0.019037 0.108346 -0.008329 0.000000 0.000000 0.000000
# 3 -0.004364 -0.008329 0.011575 0.000000 0.000000 0.000000
# 4 0.000000 0.000000 0.000000 0.083063 0.000000 0.000000
# 5 0.000000 0.000000 0.000000 0.000000 0.039545 0.000000
# 6 0.000000 0.000000 0.000000 0.000000 0.000000 0.045138
#
#
# Mechanical properties :
#
#
# Convention : Reuss Voigt Hill
#
# Bulk Modulus (GPa) = 14.51264 69.55133 42.03199
# Shear Modulus (GPa) = 12.93531 23.35746 18.14638
#
# Velocity S-wave (km/s) = 2.70634 3.63669 3.20545
# Velocity P-wave (km/s) = 4.24065 7.55086 6.12367
#
# Compressibility (1/GPa) = 0.06890543
#
# Stress axis : x y z
#
# Youngs Moduli (GPa) = 80.35993 9.22972 86.39262
#
# Poissons Ratio (x) = 0.17571 0.37698
# Poissons Ratio (y) = 1.52980 0.71958
# Poissons Ratio (z) = 0.35066 0.07688
#
# Static dielectric constant tensor:
#      x y z
#    x 1.631420 0.000000 0.000000 
#    y 0.000000 1.591870 0.000000 
#    z 0.000000 0.000000 1.565200 
# 
# From -- ./inp_files/49261.got.cif
#   From: 2010.05.17/outbox.cif.g08.bks.cpg/sg71_25_cif.got.tgz:49261.got - 2010.06.03 16:22:01.
