data_PCOD9518801
_publ_section_title
;
Structure prediction by ZEFSAII (Michael W. Deem and Ramdas Pophale) SiO2 
 PCOD9518801
Probable space group: I M M M
;
_chemical_formula_sum "Si O2"
_cell_formula_units_Z 112
_cell_length_a 13.845070
_cell_length_b 29.357735
_cell_length_c 17.533394
_cell_angle_alpha 90.000000
_cell_angle_beta 90.000000
_cell_angle_gamma 90.000000
_cell_volume 7126.621504
_symmetry_space_group_name_H-M "I M M M"
_symmetry_group_IT_number 71
_symmetry_cell_setting 'orthorhombic'
loop_
_space_group_symop_operation_xyz
x,y,z
-x,-y,z
x,-y,-z
-x,y,-z
-x,-y,-z
x,y,-z
-x,y,z
x,-y,z
1/2+x,1/2+y,1/2+z
1/2-x,1/2-y,1/2+z
1/2+x,1/2-y,1/2-z
1/2-x,1/2+y,1/2-z
1/2-x,1/2-y,1/2-z
1/2+x,1/2+y,1/2-z
1/2-x,1/2+y,1/2+z
1/2+x,1/2-y,1/2+z
loop_
_atom_site_type_symbol
_atom_site_label
_atom_site_fract_x
_atom_site_fract_y
_atom_site_fract_z
Si Si1 0.117401 0.597351 0.413752
Si Si2 0.615848 0.000000 0.673708
Si Si3 0.111380 0.684011 0.865276
Si Si4 0.114945 0.315669 0.683179
Si Si5 0.616999 0.000000 0.852945
Si Si6 0.892031 0.863369 0.592504
Si Si7 0.200162 0.766657 0.411113
Si Si8 0.301119 0.088132 0.409547
O O1 0.146974 0.608938 0.500000
O O2 0.145591 0.636273 0.353969
O O3 0.151327 0.546878 0.390999
O O4 0.000000 0.596079 0.412630
O O5 0.638695 0.000000 0.763407
O O6 0.658214 0.045058 0.634775
O O7 0.500000 0.000000 0.665229
O O8 0.127534 0.684210 0.774004
O O9 0.188755 0.718043 0.902053
O O10 0.135137 0.633267 0.894989
O O11 0.000000 0.695293 0.880877
O O12 0.171200 0.275054 0.642029
O O13 0.000000 0.309830 0.668012
O O14 0.500000 0.000000 0.860229
O O15 0.892477 0.864785 0.500000
O O16 0.860400 0.811856 0.611883
O O17 0.806966 0.897479 0.616299
O O18 0.000000 0.873593 0.619728
O O19 0.179371 0.756500 0.500000
O O20 0.299874 0.078757 0.500000
#
# Coordination Sequence:
#
# PCOD9518801 Si02
#       8
#    16   8  16  16   8  16  16  16
#     4   9  16  26  42  64  89 116 146 181 221 268
#     4  11  21  31  44  63  89 119 153 193 231 268
#     4  10  20  33  47  64  91 126 158 187 225 276
#     4  10  19  30  45  67  94 121 151 190 234 275
#     4   9  17  29  43  60  85 119 152 178 216 269
#     4   8  15  29  47  65  86 112 143 181 223 267
#     4  10  19  30  47  69  91 119 156 193 227 268
#     4  10  20  32  47  67  88 115 154 192 227 271
#
# _framework density 15.715722
#
# number of rings (size 3 to 8) (size 9 to 14) (size 15 to 20)
#    0.000    2.429    0.000    4.286    0.000    6.857 
#    0.000    0.357    0.000    1.714    0.000    0.000 
#    0.000    0.000    0.000    0.429    0.000   21.214 
#
# Total GULP energy -312233.107431 kJ/mol
# GULP energy per Si atom -5575.591204 kJ/mol
# Density = 1.567995 g / cm^3
# Si number density = 15.715722 Si / 1000 Ang^3
#
#
#
# Elastic Constant Matrix: (Units=GPa)
#
#
# Indices 1 2 3 4 5 6 
#
# 1 58.3730 10.2971 6.7446 0.0000 0.0000 0.0000
# 2 10.2971 54.3347 1.7061 0.0000 0.0000 0.0000
# 3 6.7446 1.7061 28.6425 0.0001 0.0000 0.0000
# 4 0.0000 0.0000 0.0001 29.3406 0.0000 0.0000
# 5 0.0000 0.0000 0.0000 0.0000 13.3038 0.0000
# 6 0.0000 0.0000 0.0000 0.0000 0.0000 13.7367
#
#
#
# Elastic Compliance Matrix: (Units=1/GPa)
#
#
# Indices 1 2 3 4 5 6 
#
# 1 0.018189 -0.003319 -0.004085 0.000000 0.000000 0.000000
# 2 -0.003319 0.019044 -0.000353 0.000000 0.000000 0.000000
# 3 -0.004085 -0.000353 0.035896 0.000000 0.000000 0.000000
# 4 0.000000 0.000000 0.000000 0.034082 0.000000 0.000000
# 5 0.000000 0.000000 0.000000 0.000000 0.075166 0.000000
# 6 0.000000 0.000000 0.000000 0.000000 0.000000 0.072798
#
#
# Mechanical properties :
#
#
# Convention : Reuss Voigt Hill
#
# Bulk Modulus (GPa) = 17.35647 19.87177 18.61412
# Shear Modulus (GPa) = 17.24762 19.44971 18.34867
#
# Velocity S-wave (km/s) = 3.31641 3.52176 3.42063
# Velocity P-wave (km/s) = 5.07275 5.40454 5.24127
#
# Compressibility (1/GPa) = 0.05761539
#
# Stress axis : x y z
#
# Youngs Moduli (GPa) = 54.97926 52.50870 27.85813
#
# Poissons Ratio (x) = 0.17426 0.11381
# Poissons Ratio (y) = 0.18246 0.00983
# Poissons Ratio (z) = 0.22461 0.01853
#
# Static dielectric constant tensor:
#      x y z
#    x 1.521100 0.000000 0.000000 
#    y 0.000000 1.509000 0.000000 
#    z 0.000000 0.000000 1.521470 
# 
# From -- ./inp_files/35195.got.cif
#   From: 2010.05.17/outbox.cif.g08.bks.cpg/sg71_18_cif.got.tgz:35195.got - 2010.06.03 16:22:01.
