data_PCOD9518249
_publ_section_title
;
Structure prediction by ZEFSAII (Michael W. Deem and Ramdas Pophale) SiO2 
 PCOD9518249
Probable space group: I M M M
;
_chemical_formula_sum "Si O2"
_cell_formula_units_Z 104
_cell_length_a 20.756464
_cell_length_b 23.049414
_cell_length_c 11.571022
_cell_angle_alpha 90.000000
_cell_angle_beta 90.000000
_cell_angle_gamma 90.000000
_cell_volume 5535.858470
_symmetry_space_group_name_H-M "I M M M"
_symmetry_group_IT_number 71
_symmetry_cell_setting 'orthorhombic'
loop_
_space_group_symop_operation_xyz
x,y,z
-x,-y,z
x,-y,-z
-x,y,-z
-x,-y,-z
x,y,-z
-x,y,z
x,-y,z
1/2+x,1/2+y,1/2+z
1/2-x,1/2-y,1/2+z
1/2+x,1/2-y,1/2-z
1/2-x,1/2+y,1/2-z
1/2-x,1/2-y,1/2-z
1/2+x,1/2+y,1/2-z
1/2-x,1/2+y,1/2+z
1/2+x,1/2-y,1/2+z
loop_
_atom_site_type_symbol
_atom_site_label
_atom_site_fract_x
_atom_site_fract_y
_atom_site_fract_z
Si Si1 0.258357 0.654842 0.709036
Si Si2 0.500000 0.433258 0.859554
Si Si3 0.076009 0.741617 0.678235
Si Si4 0.870354 0.616145 0.625842
Si Si5 0.924768 0.430134 0.870408
Si Si6 0.831334 0.265471 0.129300
Si Si7 0.370873 0.367822 0.867694
O O1 0.207077 0.619223 0.635772
O O2 0.213661 0.692001 0.796690
O O3 0.298015 0.702498 0.637249
O O4 0.310425 0.621102 0.785504
O O5 0.500000 0.500000 0.822575
O O6 0.435190 0.399981 0.824786
O O7 0.500000 0.431905 0.000000
O O8 0.101873 0.681972 0.624696
O O9 0.099054 0.737566 0.811020
O O10 0.112831 0.798841 0.633290
O O11 0.000000 0.747717 0.661567
O O12 0.888671 0.589718 0.500000
O O13 0.893859 0.590582 0.749210
O O14 0.921498 0.500000 0.869710
O O15 0.000000 0.412844 0.865658
O O16 0.900261 0.412030 0.000000
O O17 0.834526 0.285563 0.000000
O O18 0.357660 0.385028 0.000000
#
# Coordination Sequence:
#
# PCOD9518249 Si02
#       7
#    16   8  16  16  16  16  16
#     4   9  19  31  46  70 102 140 179 218 271 335
#     4   9  18  32  52  78 103 133 178 231 282 330
#     4  10  20  31  46  75 110 142 179 221 281 342
#     4  11  22  34  53  82 114 146 183 230 277 332
#     4   9  20  40  61  79 105 145 187 225 271 324
#     4   9  17  30  46  65  98 143 185 223 264 326
#     4  10  18  31  52  73 101 141 180 226 280 338
#
# _framework density 18.786607
#
# number of rings (size 3 to 8) (size 9 to 14) (size 15 to 20)
#    0.000    2.385    0.769    3.231    0.000    5.538 
#    0.000    1.538    0.000    1.846    0.000    0.000 
#    0.000   20.923    0.000    0.000    0.000    0.000 
#
# Total GULP energy -289723.595333 kJ/mol
# GULP energy per Si atom -5571.607603 kJ/mol
# Density = 1.874385 g / cm^3
# Si number density = 18.786607 Si / 1000 Ang^3
#
#
#
# Elastic Constant Matrix: (Units=GPa)
#
#
# Indices 1 2 3 4 5 6 
#
# 1 76.4090 6.6223 32.3059 0.0000 0.0000 0.0000
# 2 6.6223 39.2376 18.5009 0.0000 0.0000 0.0000
# 3 32.3059 18.5009 137.8897 0.0000 0.0000 0.0000
# 4 0.0000 0.0000 0.0000 10.5894 0.0000 0.0000
# 5 0.0000 0.0000 0.0000 0.0000 15.3618 0.0000
# 6 0.0000 0.0000 0.0000 0.0000 0.0000 9.8612
#
#
#
# Elastic Compliance Matrix: (Units=1/GPa)
#
#
# Indices 1 2 3 4 5 6 
#
# 1 0.014557 -0.000906 -0.003289 0.000000 0.000000 0.000000
# 2 -0.000906 0.027263 -0.003446 0.000000 0.000000 0.000000
# 3 -0.003289 -0.003446 0.008485 0.000000 0.000000 0.000000
# 4 0.000000 0.000000 0.000000 0.094434 0.000000 0.000000
# 5 0.000000 0.000000 0.000000 0.000000 0.065096 0.000000
# 6 0.000000 0.000000 0.000000 0.000000 0.000000 0.101408
#
#
# Mechanical properties :
#
#
# Convention : Reuss Voigt Hill
#
# Bulk Modulus (GPa) = 28.55209 40.93273 34.74241
# Shear Modulus (GPa) = 14.78420 20.23629 17.51025
#
# Velocity S-wave (km/s) = 2.80831 3.28558 3.05628
# Velocity P-wave (km/s) = 5.07411 6.01905 5.56667
#
# Compressibility (1/GPa) = 0.03502371
#
# Stress axis : x y z
#
# Youngs Moduli (GPa) = 68.69770 36.67926 117.85462
#
# Poissons Ratio (x) = 0.03323 0.38761
# Poissons Ratio (y) = 0.06224 0.40609
# Poissons Ratio (z) = 0.22594 0.12639
#
# Static dielectric constant tensor:
#      x y z
#    x 1.652480 0.000000 0.000000 
#    y 0.000000 1.664240 0.000000 
#    z 0.000000 0.000000 1.693580 
# 
# From -- ./inp_files/26460.got.cif
#   From: 2010.05.17/outbox.cif.g08.bks.cpg/sg71_14_cif.got.tgz:26460.got - 2010.06.03 16:22:01.
