data_PCOD9518678
_publ_section_title
;
Structure prediction by ZEFSAII (Michael W. Deem and Ramdas Pophale) SiO2 
 PCOD9518678
Probable space group: I M M M
;
_chemical_formula_sum "Si O2"
_cell_formula_units_Z 104
_cell_length_a 28.925790
_cell_length_b 7.400994
_cell_length_c 24.029270
_cell_angle_alpha 90.000000
_cell_angle_beta 90.000000
_cell_angle_gamma 90.000000
_cell_volume 5144.176467
_symmetry_space_group_name_H-M "I M M M"
_symmetry_group_IT_number 71
_symmetry_cell_setting 'orthorhombic'
loop_
_space_group_symop_operation_xyz
x,y,z
-x,-y,z
x,-y,-z
-x,y,-z
-x,-y,-z
x,y,-z
-x,y,z
x,-y,z
1/2+x,1/2+y,1/2+z
1/2-x,1/2-y,1/2+z
1/2+x,1/2-y,1/2-z
1/2-x,1/2+y,1/2-z
1/2-x,1/2-y,1/2-z
1/2+x,1/2+y,1/2-z
1/2-x,1/2+y,1/2+z
1/2+x,1/2-y,1/2+z
loop_
_atom_site_type_symbol
_atom_site_label
_atom_site_fract_x
_atom_site_fract_y
_atom_site_fract_z
Si Si1 0.234745 0.716622 0.938520
Si Si2 0.304677 0.216559 0.739541
Si Si3 0.552877 0.219983 0.435303
Si Si4 0.099027 0.278240 0.563824
Si Si5 0.000000 0.711347 0.567697
Si Si6 0.645665 0.779258 0.625498
Si Si7 0.319739 0.214776 0.859627
O O1 0.234068 0.500000 0.941275
O O2 0.183572 0.774708 0.920717
O O3 0.270531 0.760564 0.889500
O O4 0.248367 0.784653 0.000000
O O5 0.250000 0.250000 0.750000
O O6 0.331547 0.281952 0.684390
O O7 0.324912 0.287049 0.797593
O O8 0.308935 0.000000 0.736808
O O9 0.561770 0.272140 0.500000
O O10 0.500000 0.275761 0.421066
O O11 0.594508 0.278646 0.394367
O O12 0.553083 0.000000 0.434484
O O13 0.104569 0.223781 0.500000
O O14 0.098392 0.500000 0.563879
O O15 0.141318 0.213189 0.599756
O O16 0.049227 0.214574 0.585551
O O17 0.000000 0.500000 0.582757
O O18 0.000000 0.719822 0.500000
O O19 0.644613 0.000000 0.627087
O O20 0.326295 0.000000 0.855354
#
# Coordination Sequence:
#
# PCOD9518678 Si02
#       7
#    16  16  16  16   8  16  16
#     4  10  19  29  43  64  89 117 146 175 213 261
#     4  10  19  31  46  62  84 118 153 181 214 258
#     4   8  13  22  39  63  88 115 148 185 228 277
#     4   8  13  22  37  57  81 107 134 167 207 249
#     4   7  10  18  34  54  75 103 135 161 194 246
#     4   9  16  27  42  59  85 118 150 183 217 260
#     4  10  19  29  43  63  87 114 145 180 218 257
#
# _framework density 20.217037000000001
#
# number of rings (size 3 to 8) (size 9 to 14) (size 15 to 20)
#    0.000    3.000    1.538    2.308    0.000    2.769 
#    0.000    0.000    1.692    0.000    0.000    0.538 
#    0.000    5.538    0.000    8.462    0.000    7.692 
#
# Total GULP energy -289727.474325 kJ/mol
# GULP energy per Si atom -5571.682199 kJ/mol
# Density = 2.017102 g / cm^3
# Si number density = 20.217037 Si / 1000 Ang^3
#
#
#
# Elastic Constant Matrix: (Units=GPa)
#
#
# Indices 1 2 3 4 5 6 
#
# 1 159.5815 -0.7012 68.6747 0.0000 0.0000 0.0000
# 2 -0.7012 67.1834 2.8883 0.0000 0.0000 0.0000
# 3 68.6747 2.8883 123.9462 0.0000 0.0000 0.0000
# 4 0.0000 0.0000 0.0000 -0.4736 0.0000 0.0000
# 5 0.0000 0.0000 0.0000 0.0000 15.4449 0.0000
# 6 0.0000 0.0000 0.0000 0.0000 0.0000 4.0668
#
#
#
# Elastic Compliance Matrix: (Units=1/GPa)
#
#
# Indices 1 2 3 4 5 6 
#
# 1 0.008234 0.000282 -0.004569 0.000000 0.000000 0.000000
# 2 0.000282 0.014909 -0.000504 0.000000 0.000000 0.000000
# 3 -0.004569 -0.000504 0.010611 0.000000 0.000000 0.000000
# 4 0.000000 0.000000 0.000000 -2.111448 0.000000 0.000000
# 5 0.000000 0.000000 0.000000 0.000000 0.064746 0.000000
# 6 0.000000 0.000000 0.000000 0.000000 0.000000 0.245894
#
#
# Mechanical properties :
#
#
# Convention : Reuss Voigt Hill
#
# Bulk Modulus (GPa) = 41.36717 54.71496 48.04106
# Shear Modulus (GPa) = -2.85810 22.46423 9.80307
#
# Velocity S-wave (km/s) = -1.19028 3.33701 2.20441
# Velocity P-wave (km/s) = 4.31473 6.47843 5.50395
#
# Compressibility (1/GPa) = 0.02417376
#
# Stress axis : x y z
#
# Youngs Moduli (GPa) = 121.45209 67.07248 94.24109
#
# Poissons Ratio (x) = -0.01894 0.43055
# Poissons Ratio (y) = -0.03429 0.04749
# Poissons Ratio (z) = 0.55487 0.03380
#
# Static dielectric constant tensor:
#      x y z
#    x 1.736670 0.000000 0.000000 
#    y 0.000000 1.855600 0.000000 
#    z 0.000000 0.000000 1.734710 
# 
# From -- ./inp_files/62285.got.cif
#   From: 2010.05.17/outbox.cif.g08.bks.cpg/sg71_32_cif.got.tgz:62285.got - 2010.06.03 16:22:01.
