data_PCOD9518253
_publ_section_title
;
Structure prediction by ZEFSAII (Michael W. Deem and Ramdas Pophale) SiO2 
 PCOD9518253
Probable space group: I M M M
;
_chemical_formula_sum "Si O2"
_cell_formula_units_Z 104
_cell_length_a 28.126964
_cell_length_b 8.623134
_cell_length_c 24.865967
_cell_angle_alpha 90.000000
_cell_angle_beta 90.000000
_cell_angle_gamma 90.000000
_cell_volume 6031.055780
_symmetry_space_group_name_H-M "I M M M"
_symmetry_group_IT_number 71
_symmetry_cell_setting 'orthorhombic'
loop_
_space_group_symop_operation_xyz
x,y,z
-x,-y,z
x,-y,-z
-x,y,-z
-x,-y,-z
x,y,-z
-x,y,z
x,-y,z
1/2+x,1/2+y,1/2+z
1/2-x,1/2-y,1/2+z
1/2+x,1/2-y,1/2-z
1/2-x,1/2+y,1/2-z
1/2-x,1/2-y,1/2-z
1/2+x,1/2+y,1/2-z
1/2-x,1/2+y,1/2+z
1/2+x,1/2-y,1/2+z
loop_
_atom_site_type_symbol
_atom_site_label
_atom_site_fract_x
_atom_site_fract_y
_atom_site_fract_z
Si Si1 0.678375 0.686111 0.350813
Si Si2 0.101082 0.813093 0.937908
Si Si3 0.359804 0.816317 0.761731
Si Si4 0.769846 0.185044 0.306817
Si Si5 0.443880 0.312753 0.175660
Si Si6 0.057396 0.184885 0.442500
Si Si7 0.000000 0.319124 0.065076
O O1 0.682038 0.500000 0.350641
O O2 0.644478 0.735986 0.399823
O O3 0.653793 0.740139 0.295253
O O4 0.731478 0.756399 0.350011
O O5 0.049721 0.755774 0.917044
O O6 0.100032 0.000000 0.938070
O O7 0.107041 0.760804 0.000000
O O8 0.323013 0.751147 0.806588
O O9 0.412056 0.767941 0.779878
O O10 0.354024 0.000000 0.757295
O O11 0.750000 0.250000 0.250000
O O12 0.770788 0.000000 0.305692
O O13 0.500000 0.281529 0.181412
O O14 0.437934 0.500000 0.178254
O O15 0.427544 0.256986 0.116015
O O16 0.074900 0.249319 0.500000
O O17 0.000000 0.199891 0.442627
O O18 0.067075 0.000000 0.442732
O O19 0.000000 0.500000 0.078286
O O20 0.000000 0.301677 0.000000
#
# Coordination Sequence:
#
# PCOD9518253 Si02
#       7
#    16  16  16  16  16  16   8
#     4  10  19  33  53  76  99 124 160 203 248 298
#     4   9  18  33  53  75 100 132 168 206 251 305
#     4  11  21  33  49  70  99 132 167 204 244 291
#     4  10  18  31  52  74  96 120 153 196 239 285
#     4   9  17  30  48  70  98 130 162 197 239 290
#     4   7  10  19  39  66  90 113 147 190 230 268
#     4   9  17  29  47  71  99 131 167 207 246 287
#
# _framework density 17.244078999999999
#
# number of rings (size 3 to 8) (size 9 to 14) (size 15 to 20)
#    0.000    2.692    0.000    6.692    0.000    2.462 
#    1.385    0.000    0.000    1.385    0.000    2.154 
#    0.000    0.000    0.000    0.000    0.000    0.000 
#
# Total GULP energy -289529.747901 kJ/mol
# GULP energy per Si atom -5567.879767 kJ/mol
# Density = 1.720483 g / cm^3
# Si number density = 17.244079 Si / 1000 Ang^3
#
#
#
# Elastic Constant Matrix: (Units=GPa)
#
#
# Indices 1 2 3 4 5 6 
#
# 1 75.8331 28.3713 32.3969 0.0000 0.0000 0.0000
# 2 28.3713 55.8110 10.6234 0.0000 0.0000 0.0000
# 3 32.3969 10.6234 49.7409 0.0000 0.0000 0.0000
# 4 0.0000 0.0000 0.0000 9.8133 0.0000 0.0000
# 5 0.0000 0.0000 0.0000 0.0000 29.6964 0.0000
# 6 0.0000 0.0000 0.0000 0.0000 0.0000 22.9364
#
#
#
# Elastic Compliance Matrix: (Units=1/GPa)
#
#
# Indices 1 2 3 4 5 6 
#
# 1 0.021674 -0.008684 -0.012262 0.000000 0.000000 0.000000
# 2 -0.008684 0.022156 0.000924 0.000000 0.000000 0.000000
# 3 -0.012262 0.000924 0.027893 0.000000 0.000000 0.000000
# 4 0.000000 0.000000 0.000000 0.101903 0.000000 0.000000
# 5 0.000000 0.000000 0.000000 0.000000 0.033674 0.000000
# 6 0.000000 0.000000 0.000000 0.000000 0.000000 0.043599
#
#
# Mechanical properties :
#
#
# Convention : Reuss Voigt Hill
#
# Bulk Modulus (GPa) = 31.56603 36.01869 33.79236
# Shear Modulus (GPa) = 16.58355 19.82210 18.20282
#
# Velocity S-wave (km/s) = 3.10449 3.39411 3.25252
# Velocity P-wave (km/s) = 5.58530 6.02436 5.80898
#
# Compressibility (1/GPa) = 0.03167962
#
# Stress axis : x y z
#
# Youngs Moduli (GPa) = 46.13765 45.13410 35.85093
#
# Poissons Ratio (x) = 0.39194 0.43961
# Poissons Ratio (y) = 0.40066 -0.03312
# Poissons Ratio (z) = 0.56574 -0.04170
#
# Static dielectric constant tensor:
#      x y z
#    x 1.629260 0.000000 0.000000 
#    y 0.000000 1.579090 0.000000 
#    z 0.000000 0.000000 1.621140 
# 
# From -- ./inp_files/56738.got.cif
#   From: 2010.05.17/outbox.cif.g08.bks.cpg/sg71_29_cif.got.tgz:56738.got - 2010.06.03 16:22:01.
