data_PCOD9518815
_publ_section_title
;
Structure prediction by ZEFSAII (Michael W. Deem and Ramdas Pophale) SiO2 
 PCOD9518815
Probable space group: I M M M
;
_chemical_formula_sum "Si O2"
_cell_formula_units_Z 112
_cell_length_a 13.667676
_cell_length_b 30.778743
_cell_length_c 18.001955
_cell_angle_alpha 90.000000
_cell_angle_beta 90.000000
_cell_angle_gamma 90.000000
_cell_volume 7572.952384
_symmetry_space_group_name_H-M "I M M M"
_symmetry_group_IT_number 71
_symmetry_cell_setting 'orthorhombic'
loop_
_space_group_symop_operation_xyz
x,y,z
-x,-y,z
x,-y,-z
-x,y,-z
-x,-y,-z
x,y,-z
-x,y,z
x,-y,z
1/2+x,1/2+y,1/2+z
1/2-x,1/2-y,1/2+z
1/2+x,1/2-y,1/2-z
1/2-x,1/2+y,1/2-z
1/2-x,1/2-y,1/2-z
1/2+x,1/2+y,1/2-z
1/2-x,1/2+y,1/2+z
1/2+x,1/2-y,1/2+z
loop_
_atom_site_type_symbol
_atom_site_label
_atom_site_fract_x
_atom_site_fract_y
_atom_site_fract_z
Si Si1 0.617447 0.450469 0.769575
Si Si2 0.615332 0.714958 0.758962
Si Si3 0.385267 0.871833 0.586973
Si Si4 0.614554 0.254578 0.500000
Si Si5 0.613640 0.358909 0.500000
Si Si6 0.303864 0.785720 0.649609
Si Si7 0.118978 0.871712 0.835483
Si Si8 0.739010 0.550383 0.915880
O O1 0.500000 0.448598 0.772867
O O2 0.644685 0.500000 0.747636
O O3 0.650798 0.413144 0.712827
O O4 0.660607 0.442219 0.851272
O O5 0.500000 0.712359 0.776794
O O6 0.638838 0.758556 0.712622
O O7 0.689980 0.714419 0.827822
O O8 0.641718 0.673481 0.706598
O O9 0.372720 0.858579 0.500000
O O10 0.500000 0.876641 0.600536
O O11 0.340870 0.834666 0.638841
O O12 0.327899 0.916731 0.596021
O O13 0.500000 0.239927 0.500000
O O14 0.613182 0.306644 0.500000
O O15 0.668873 0.237845 0.572934
O O16 0.500000 0.373561 0.500000
O O17 0.656295 0.372962 0.420376
O O18 0.000000 0.872421 0.839269
O O19 0.769926 0.500000 0.911457
O O20 0.700769 0.557559 0.000000
#
# Coordination Sequence:
#
# PCOD9518815 Si02
#       8
#    16  16  16   8   8  16  16  16
#     4   9  17  29  45  64  89 121 153 188 229 272
#     4  10  20  32  46  68  97 126 155 190 233 281
#     4  10  19  30  46  66  88 113 146 190 233 271
#     4  11  18  30  49  68  90 118 159 202 231 270
#     4   9  16  26  45  67  86 114 153 191 227 273
#     4  11  20  30  49  71  92 122 159 194 234 275
#     4   9  16  28  45  64  88 119 152 187 230 276
#     4   9  18  31  45  63  88 119 156 189 224 277
#
# _framework density 14.789476000000001
#
# number of rings (size 3 to 8) (size 9 to 14) (size 15 to 20)
#    0.000    2.286    2.143    2.143    0.000    0.571 
#    0.000    3.571    0.000    3.000    0.000    0.000 
#    0.000    0.000    0.000    0.000    0.000   12.929 
#
# Total GULP energy -311889.561145 kJ/mol
# GULP energy per Si atom -5569.456449 kJ/mol
# Density = 1.475581 g / cm^3
# Si number density = 14.789476 Si / 1000 Ang^3
#
#
#
# Elastic Constant Matrix: (Units=GPa)
#
#
# Indices 1 2 3 4 5 6 
#
# 1 56.9700 25.1903 43.1911 0.0000 0.0000 0.0000
# 2 25.1903 79.4164 51.1030 0.0000 0.0000 0.0000
# 3 43.1911 51.1030 100.4583 0.0000 0.0000 0.0000
# 4 0.0000 0.0000 0.0000 26.3468 0.0000 0.0000
# 5 0.0000 0.0000 0.0000 0.0000 17.5901 0.0000
# 6 0.0000 0.0000 0.0000 0.0000 0.0000 17.6632
#
#
#
# Elastic Compliance Matrix: (Units=1/GPa)
#
#
# Indices 1 2 3 4 5 6 
#
# 1 0.026174 -0.001577 -0.010451 0.000000 0.000000 0.000000
# 2 -0.001577 0.018814 -0.008893 0.000000 0.000000 0.000000
# 3 -0.010451 -0.008893 0.018971 0.000000 0.000000 0.000000
# 4 0.000000 0.000000 0.000000 0.037955 0.000000 0.000000
# 5 0.000000 0.000000 0.000000 0.000000 0.056850 0.000000
# 6 0.000000 0.000000 0.000000 0.000000 0.000000 0.056615
#
#
# Mechanical properties :
#
#
# Convention : Reuss Voigt Hill
#
# Bulk Modulus (GPa) = 45.21226 52.86815 49.04020
# Shear Modulus (GPa) = 18.89687 20.14403 19.52045
#
# Velocity S-wave (km/s) = 3.57840 3.69460 3.63697
# Velocity P-wave (km/s) = 6.90726 7.35016 7.13215
#
# Compressibility (1/GPa) = 0.02211790
#
# Stress axis : x y z
#
# Youngs Moduli (GPa) = 38.20639 53.15059 52.71110
#
# Poissons Ratio (x) = 0.08383 0.55087
# Poissons Ratio (y) = 0.06026 0.46875
# Poissons Ratio (z) = 0.39929 0.47266
#
# Static dielectric constant tensor:
#      x y z
#    x 1.463630 0.000000 0.000000 
#    y 0.000000 1.504880 0.000000 
#    z 0.000000 0.000000 1.499560 
# 
# From -- ./inp_files/45391.got.cif
#   From: 2010.05.17/outbox.cif.g08.bks.cpg/sg71_23_cif.got.tgz:45391.got - 2010.06.03 16:22:01.
