data_PCOD9518772
_publ_section_title
;
Structure prediction by ZEFSAII (Michael W. Deem and Ramdas Pophale) SiO2 
 PCOD9518772
Probable space group: I M M M
;
_chemical_formula_sum "Si O2"
_cell_formula_units_Z 88
_cell_length_a 8.642943
_cell_length_b 24.563077
_cell_length_c 30.905119
_cell_angle_alpha 90.000000
_cell_angle_beta 90.000000
_cell_angle_gamma 90.000000
_cell_volume 6561.072529
_symmetry_space_group_name_H-M "I M M M"
_symmetry_group_IT_number 71
_symmetry_cell_setting 'orthorhombic'
loop_
_space_group_symop_operation_xyz
x,y,z
-x,-y,z
x,-y,-z
-x,y,-z
-x,-y,-z
x,y,-z
-x,y,z
x,-y,z
1/2+x,1/2+y,1/2+z
1/2-x,1/2-y,1/2+z
1/2+x,1/2-y,1/2-z
1/2-x,1/2+y,1/2-z
1/2-x,1/2-y,1/2-z
1/2+x,1/2+y,1/2-z
1/2-x,1/2+y,1/2+z
1/2+x,1/2-y,1/2+z
loop_
_atom_site_type_symbol
_atom_site_label
_atom_site_fract_x
_atom_site_fract_y
_atom_site_fract_z
Si Si1 0.684041 0.901001 0.591345
Si Si2 0.313625 0.434907 0.000000
Si Si3 0.315127 0.218650 0.791796
Si Si4 0.813523 0.823538 0.340501
Si Si5 0.315264 0.382836 0.250454
Si Si6 0.181897 0.000000 0.354369
Si Si7 0.318152 0.000000 0.740172
O O1 0.500000 0.909768 0.592931
O O2 0.743852 0.906813 0.542545
O O3 0.729742 0.846804 0.617470
O O4 0.773383 0.947908 0.617669
O O5 0.275093 0.500000 0.000000
O O6 0.500000 0.430917 0.000000
O O7 0.500000 0.215491 0.788964
O O8 0.250000 0.250000 0.750000
O O9 0.277159 0.260301 0.830508
O O10 0.245766 0.158741 0.786857
O O11 0.768625 0.858820 0.297315
O O12 0.000000 0.829011 0.344961
O O13 0.500000 0.382651 0.250603
O O14 0.253808 0.443591 0.256779
O O15 0.279703 0.000000 0.310819
O O16 0.000000 0.000000 0.343613
O O17 0.500000 0.000000 0.747601
#
# Coordination Sequence:
#
# PCOD9518772 Si02
#       7
#    16   8  16  16  16   8   8
#     4  12  23  33  48  66  82 103 139 180 216 258
#     4  11  23  37  51  61  80 112 138 171 222 269
#     4   9  17  29  44  61  82 106 137 172 208 248
#     4   9  18  31  46  61  82 109 136 170 213 256
#     4  10  19  30  44  61  85 111 137 171 213 255
#     4  12  22  33  45  58  82 110 139 172 217 263
#     4  12  22  30  43  63  84 110 144 179 214 252
#
# _framework density 13.412440999999999
#
# number of rings (size 3 to 8) (size 9 to 14) (size 15 to 20)
#    0.000    1.545    2.727    5.727    0.000    4.000 
#    0.000    0.000    0.000    0.000    0.000    0.000 
#    0.000    0.000    0.000    0.000    0.000    0.909 
#
# Total GULP energy -245425.485570 kJ/mol
# GULP energy per Si atom -5577.851945 kJ/mol
# Density = 1.338191 g / cm^3
# Si number density = 13.412441 Si / 1000 Ang^3
#
#
#
# Elastic Constant Matrix: (Units=GPa)
#
#
# Indices 1 2 3 4 5 6 
#
# 1 47.6320 27.9719 16.8329 0.0000 0.0000 0.0000
# 2 27.9719 106.2833 39.7575 0.0000 0.0000 0.0000
# 3 16.8329 39.7575 49.8829 0.0000 0.0000 0.0000
# 4 0.0000 0.0000 0.0000 3.2825 0.0000 0.0000
# 5 0.0000 0.0000 0.0000 0.0000 16.7071 0.0000
# 6 0.0000 0.0000 0.0000 0.0000 0.0000 23.3075
#
#
#
# Elastic Compliance Matrix: (Units=1/GPa)
#
#
# Indices 1 2 3 4 5 6 
#
# 1 0.025568 -0.004989 -0.004652 0.000000 0.000000 0.000000
# 2 -0.004989 0.014379 -0.009777 0.000000 0.000000 0.000000
# 3 -0.004652 -0.009777 0.029409 0.000000 0.000000 0.000000
# 4 0.000000 0.000000 0.000000 0.304642 0.000000 0.000000
# 5 0.000000 0.000000 0.000000 0.000000 0.059855 0.000000
# 6 0.000000 0.000000 0.000000 0.000000 0.000000 0.042905
#
#
# Mechanical properties :
#
#
# Convention : Reuss Voigt Hill
#
# Bulk Modulus (GPa) = 32.76416 41.43585 37.10001
# Shear Modulus (GPa) = 9.50994 16.60848 13.05921
#
# Velocity S-wave (km/s) = 2.66567 3.52275 3.12374
# Velocity P-wave (km/s) = 5.82714 6.89253 6.38211
#
# Compressibility (1/GPa) = 0.03052116
#
# Stress axis : x y z
#
# Youngs Moduli (GPa) = 39.11152 69.54549 34.00329
#
# Poissons Ratio (x) = 0.34696 0.15817
# Poissons Ratio (y) = 0.19513 0.33244
# Poissons Ratio (z) = 0.18193 0.67994
#
# Static dielectric constant tensor:
#      x y z
#    x 1.443420 0.000000 0.000000 
#    y 0.000000 1.486340 0.000000 
#    z 0.000000 0.000000 1.424720 
# 
# From -- ./inp_files/62256.got.cif
#   From: 2010.05.17/outbox.cif.g08.bks.cpg/sg71_32_cif.got.tgz:62256.got - 2010.06.03 16:22:01.
