data_PCOD9518441
_publ_section_title
;
Structure prediction by ZEFSAII (Michael W. Deem and Ramdas Pophale) SiO2 
 PCOD9518441
Probable space group: I M M M
;
_chemical_formula_sum "Si O2"
_cell_formula_units_Z 82
_cell_length_a 20.661409
_cell_length_b 19.074369
_cell_length_c 11.572050
_cell_angle_alpha 90.000000
_cell_angle_beta 90.000000
_cell_angle_gamma 90.000000
_cell_volume 4560.583548
_symmetry_space_group_name_H-M "I M M M"
_symmetry_group_IT_number 71
_symmetry_cell_setting 'orthorhombic'
loop_
_space_group_symop_operation_xyz
x,y,z
-x,-y,z
x,-y,-z
-x,y,-z
-x,-y,-z
x,y,-z
-x,y,z
x,-y,z
1/2+x,1/2+y,1/2+z
1/2-x,1/2-y,1/2+z
1/2+x,1/2-y,1/2-z
1/2-x,1/2+y,1/2-z
1/2-x,1/2-y,1/2-z
1/2+x,1/2+y,1/2-z
1/2-x,1/2+y,1/2+z
1/2+x,1/2-y,1/2+z
loop_
_atom_site_type_symbol
_atom_site_label
_atom_site_fract_x
_atom_site_fract_y
_atom_site_fract_z
Si Si1 0.729945 0.420174 0.000000
Si Si2 0.424838 0.174061 0.362855
Si Si3 0.312876 0.082136 0.732366
Si Si4 0.000000 0.000000 0.500000
Si Si5 0.687524 0.583336 0.635699
Si Si6 0.927941 0.828430 0.757608
Si Si7 0.591411 0.360907 0.000000
O O1 0.773459 0.411686 0.112648
O O2 0.668359 0.371047 0.000000
O O3 0.705664 0.500000 0.000000
O O4 0.409222 0.168872 0.500000
O O5 0.500000 0.152995 0.349198
O O6 0.376805 0.127358 0.286524
O O7 0.419506 0.254302 0.320903
O O8 0.259749 0.105904 0.826442
O O9 0.328361 0.000000 0.751842
O O10 0.055737 0.063282 0.500000
O O11 0.678022 0.594993 0.500000
O O12 0.684044 0.500000 0.659914
O O13 0.630412 0.621385 0.704460
O O14 0.926320 0.822542 0.618989
O O15 0.000000 0.856329 0.788870
#
# Coordination Sequence:
#
# PCOD9518441 Si02
#       7
#     8  16  16   2  16  16   8
#     4  10  18  32  57  86 114 141 182 237 295 338
#     4  10  22  40  60  84 116 152 189 235 291 350
#     4  10  20  37  62  87 114 145 187 242 297 345
#     4  12  24  32  64  88 126 160 192 248 284 338
#     4  10  22  38  57  83 115 152 193 236 282 341
#     4  11  23  38  56  81 119 156 192 234 283 342
#     4  12  22  36  56  91 119 153 196 236 287 336
#
# _framework density 17.980155
#
# number of rings (size 3 to 8) (size 9 to 14) (size 15 to 20)
#    0.000    1.561    4.390    0.585    1.366    2.732 
#    1.756    1.951    0.000    0.000    0.000    2.732 
#    0.000    0.000    0.000    0.000    0.000    0.000 
#
# Total GULP energy -228460.692446 kJ/mol
# GULP energy per Si atom -5572.212011 kJ/mol
# Density = 1.793923 g / cm^3
# Si number density = 17.980155 Si / 1000 Ang^3
#
#
#
# Elastic Constant Matrix: (Units=GPa)
#
#
# Indices 1 2 3 4 5 6 
#
# 1 119.1305 46.6971 44.5529 0.0000 0.0000 0.0000
# 2 46.6971 33.1461 27.3120 0.0000 0.0000 0.0000
# 3 44.5529 27.3120 68.1795 0.0000 0.0000 0.0000
# 4 0.0000 0.0000 0.0000 18.5077 0.0000 0.0000
# 5 0.0000 0.0000 0.0000 0.0000 12.4708 0.0000
# 6 0.0000 0.0000 0.0000 0.0000 0.0000 28.9140
#
#
#
# Elastic Compliance Matrix: (Units=1/GPa)
#
#
# Indices 1 2 3 4 5 6 
#
# 1 0.019035 -0.024731 -0.002532 0.000000 0.000000 0.000000
# 2 -0.024731 0.077166 -0.014751 0.000000 0.000000 0.000000
# 3 -0.002532 -0.014751 0.022231 0.000000 0.000000 0.000000
# 4 0.000000 0.000000 0.000000 0.054032 0.000000 0.000000
# 5 0.000000 0.000000 0.000000 0.000000 0.080187 0.000000
# 6 0.000000 0.000000 0.000000 0.000000 0.000000 0.034585
#
#
# Mechanical properties :
#
#
# Convention : Reuss Voigt Hill
#
# Bulk Modulus (GPa) = 29.06636 50.84224 39.95430
# Shear Modulus (GPa) = 13.06401 18.77144 15.91773
#
# Velocity S-wave (km/s) = 2.69844 3.23462 2.97862
# Velocity P-wave (km/s) = 5.09015 6.50297 5.83945
#
# Compressibility (1/GPa) = 0.03440403
#
# Stress axis : x y z
#
# Youngs Moduli (GPa) = 52.53437 12.95914 44.98297
#
# Poissons Ratio (x) = 0.32049 0.11389
# Poissons Ratio (y) = 1.29923 0.66354
# Poissons Ratio (z) = 0.13301 0.19116
#
# Static dielectric constant tensor:
#      x y z
#    x 1.627020 0.000000 0.000000 
#    y 0.000000 1.593000 0.000000 
#    z 0.000000 0.000000 1.617860 
# 
# From -- ./inp_files/23878.got.cif
#   From: 2010.05.17/outbox.cif.g08.bks.cpg/sg71_12_cif.got.tgz:23878.got - 2010.06.03 16:22:01.
