data_PCOD9518978
_publ_section_title
;
Structure prediction by ZEFSAII (Michael W. Deem and Ramdas Pophale) SiO2 
 PCOD9518978
Probable space group: I M M M
;
_chemical_formula_sum "Si O2"
_cell_formula_units_Z 88
_cell_length_a 7.452839
_cell_length_b 19.342769
_cell_length_c 29.278164
_cell_angle_alpha 90.000000
_cell_angle_beta 90.000000
_cell_angle_gamma 90.000000
_cell_volume 4220.697469
_symmetry_space_group_name_H-M "I M M M"
_symmetry_group_IT_number 71
_symmetry_cell_setting 'orthorhombic'
loop_
_space_group_symop_operation_xyz
x,y,z
-x,-y,z
x,-y,-z
-x,y,-z
-x,-y,-z
x,y,-z
-x,y,z
x,-y,z
1/2+x,1/2+y,1/2+z
1/2-x,1/2-y,1/2+z
1/2+x,1/2-y,1/2-z
1/2-x,1/2+y,1/2-z
1/2-x,1/2-y,1/2-z
1/2+x,1/2+y,1/2-z
1/2-x,1/2+y,1/2+z
1/2+x,1/2-y,1/2+z
loop_
_atom_site_type_symbol
_atom_site_label
_atom_site_fract_x
_atom_site_fract_y
_atom_site_fract_z
Si Si1 0.217195 0.000000 0.575232
Si Si2 0.288718 0.854803 0.717996
Si Si3 0.288839 0.730544 0.500000
Si Si4 0.219675 0.148355 0.911735
Si Si5 0.218579 0.000000 0.052929
Si Si6 0.217220 0.206488 0.814795
Si Si7 0.215855 0.108233 0.500000
Si Si8 0.709438 0.000000 0.681904
O O1 0.275201 0.066153 0.545035
O O2 0.280629 0.000000 0.627026
O O3 0.000000 0.000000 0.576678
O O4 0.500000 0.855996 0.706701
O O5 0.269241 0.841083 0.771908
O O6 0.216253 0.784668 0.694602
O O7 0.212847 0.928032 0.701251
O O8 0.500000 0.714134 0.500000
O O9 0.217986 0.695948 0.546216
O O10 0.268870 0.812524 0.500000
O O11 0.279148 0.176890 0.862997
O O12 0.000000 0.149479 0.910985
O O13 0.274964 0.070045 0.922259
O O14 0.000000 0.000000 0.052320
O O15 0.275665 0.000000 0.000000
O O16 0.000000 0.208606 0.815071
O O17 0.000000 0.105069 0.500000
O O18 0.500000 0.000000 0.695712
#
# Coordination Sequence:
#
# PCOD9518978 Si02
#       8
#     8  16   8  16   8  16   8   8
#     4   9  20  38  55  73 103 142 176 209 249 300
#     4   9  19  35  51  71 103 134 165 207 256 304
#     4  10  19  30  51  80 105 132 168 214 260 306
#     4   9  17  28  46  74 104 132 166 210 255 298
#     4   9  14  25  42  66 102 134 157 193 249 299
#     4   9  18  33  52  73 100 132 168 211 250 294
#     4   9  20  38  53  71 106 142 172 209 252 300
#     4  10  21  34  54  81 107 135 167 213 265 308
#
# _framework density 20.849634999999999
#
# number of rings (size 3 to 8) (size 9 to 14) (size 15 to 20)
#    0.000    2.818    0.909    0.545    2.545    2.182 
#    0.000    2.727    0.000    0.000    0.000    2.545 
#    0.000    0.000    0.000    0.000    0.000    0.000 
#
# Total GULP energy -245598.798187 kJ/mol
# GULP energy per Si atom -5581.790868 kJ/mol
# Density = 2.080218 g / cm^3
# Si number density = 20.849635 Si / 1000 Ang^3
#
#
#
# Elastic Constant Matrix: (Units=GPa)
#
#
# Indices 1 2 3 4 5 6 
#
# 1 56.8218 -6.1666 -13.0307 0.0000 0.0000 0.0000
# 2 -6.1666 202.5244 133.0518 0.0000 0.0000 0.0000
# 3 -13.0307 133.0518 180.0146 0.0000 0.0000 0.0000
# 4 0.0000 0.0000 0.0000 -68.0089 0.0000 0.0000
# 5 0.0000 0.0000 0.0000 0.0000 7.3623 0.0000
# 6 0.0000 0.0000 0.0000 0.0000 0.0000 7.5963
#
#
#
# Elastic Compliance Matrix: (Units=1/GPa)
#
#
# Indices 1 2 3 4 5 6 
#
# 1 0.017933 -0.000596 0.001739 0.000000 0.000000 0.000000
# 2 -0.000596 0.009618 -0.007152 0.000000 0.000000 0.000000
# 3 0.001739 -0.007152 0.010967 0.000000 0.000000 0.000000
# 4 0.000000 0.000000 0.000000 -0.014704 0.000000 0.000000
# 5 0.000000 0.000000 0.000000 0.000000 0.135828 0.000000
# 6 0.000000 0.000000 0.000000 0.000000 0.000000 0.131642
#
#
# Mechanical properties :
#
#
# Convention : Reuss Voigt Hill
#
# Bulk Modulus (GPa) = 37.73703 74.11887 55.92795
# Shear Modulus (GPa) = 16.01859 11.09036 13.55448
#
# Velocity S-wave (km/s) = 2.77481 2.30884 2.55248
# Velocity P-wave (km/s) = 5.32964 6.53713 5.96402
#
# Compressibility (1/GPa) = 0.02649917
#
# Stress axis : x y z
#
# Youngs Moduli (GPa) = 55.76332 103.96877 91.18025
#
# Poissons Ratio (x) = 0.06200 -0.15855
# Poissons Ratio (y) = 0.03325 0.65214
# Poissons Ratio (z) = -0.09697 0.74361
#
# Static dielectric constant tensor:
#      x y z
#    x 1.802520 0.000000 0.000000 
#    y 0.000000 1.733380 0.000000 
#    z 0.000000 0.000000 1.695360 
# 
# From -- ./inp_files/68109.got.cif
#   From: 2010.05.17/outbox.cif.g08.bks.cpg/sg71_35_cif.got.tgz:68109.got - 2010.06.03 16:22:01.
