data_PCOD9518302
_publ_section_title
;
Structure prediction by ZEFSAII (Michael W. Deem and Ramdas Pophale) SiO2 
 PCOD9518302
Probable space group: I M M M
;
_chemical_formula_sum "Si O2"
_cell_formula_units_Z 104
_cell_length_a 8.396097
_cell_length_b 31.186106
_cell_length_c 20.265643
_cell_angle_alpha 90.000000
_cell_angle_beta 90.000000
_cell_angle_gamma 90.000000
_cell_volume 5306.387801
_symmetry_space_group_name_H-M "I M M M"
_symmetry_group_IT_number 71
_symmetry_cell_setting 'orthorhombic'
loop_
_space_group_symop_operation_xyz
x,y,z
-x,-y,z
x,-y,-z
-x,y,-z
-x,-y,-z
x,y,-z
-x,y,z
x,-y,z
1/2+x,1/2+y,1/2+z
1/2-x,1/2-y,1/2+z
1/2+x,1/2-y,1/2-z
1/2-x,1/2+y,1/2-z
1/2-x,1/2-y,1/2-z
1/2+x,1/2+y,1/2-z
1/2-x,1/2+y,1/2+z
1/2+x,1/2-y,1/2+z
loop_
_atom_site_type_symbol
_atom_site_label
_atom_site_fract_x
_atom_site_fract_y
_atom_site_fract_z
Si Si1 0.188407 0.701567 0.241723
Si Si2 0.694442 0.449258 0.240744
Si Si3 0.684707 0.247128 0.500000
Si Si4 0.690561 0.401344 0.624606
Si Si5 0.307746 0.373139 0.144821
Si Si6 0.806508 0.044820 0.000000
Si Si7 0.810405 0.151896 0.500000
Si Si8 0.313052 0.188243 0.106706
O O1 0.250000 0.750000 0.250000
O O2 0.260973 0.668777 0.188529
O O3 0.221544 0.685521 0.315431
O O4 0.000000 0.702891 0.229587
O O5 0.500000 0.450563 0.241752
O O6 0.744797 0.500000 0.239240
O O7 0.744536 0.421706 0.305603
O O8 0.742960 0.417750 0.180072
O O9 0.500000 0.236045 0.500000
O O10 0.780791 0.202964 0.500000
O O11 0.724347 0.275966 0.435837
O O12 0.500000 0.393934 0.630930
O O13 0.729695 0.435425 0.569625
O O14 0.763172 0.359367 0.589809
O O15 0.500000 0.373626 0.143541
O O16 0.248393 0.366973 0.069589
O O17 0.000000 0.043148 0.000000
O O18 0.725104 0.000000 0.000000
O O19 0.000000 0.144498 0.500000
O O20 0.500000 0.196323 0.097509
#
# Coordination Sequence:
#
# PCOD9518302 Si02
#       8
#    16  16   8  16  16   8   8  16
#     4  11  23  37  57  84 114 149 190 234 284 343
#     4   9  17  31  55  85 115 151 196 246 295 343
#     4  12  25  39  58  84 113 151 199 240 280 341
#     4  10  18  31  53  80 111 149 193 234 275 332
#     4  10  20  37  59  83 115 152 193 241 295 354
#     4   9  17  28  46  76 108 137 176 227 272 311
#     4  10  22  39  58  82 114 152 189 236 303 358
#     4  11  23  38  55  79 115 152 184 228 283 335
#
# _framework density 19.599018999999998
#
# number of rings (size 3 to 8) (size 9 to 14) (size 15 to 20)
#    0.000    1.769    1.538    3.462    0.000    8.615 
#    0.000    0.385    0.000    6.000    0.000    0.000 
#    0.000    1.846    0.000    0.000    0.000    0.000 
#
# Total GULP energy -289604.732678 kJ/mol
# GULP energy per Si atom -5569.321782 kJ/mol
# Density = 1.955441 g / cm^3
# Si number density = 19.599019 Si / 1000 Ang^3
#
#
#
# Elastic Constant Matrix: (Units=GPa)
#
#
# Indices 1 2 3 4 5 6 
#
# 1 350.6469 194.6116 -201.8500 0.0001 0.0000 0.0000
# 2 194.6116 202.8195 -93.8537 0.0001 0.0000 0.0000
# 3 -201.8500 -93.8537 256.9440 -0.0001 0.0000 0.0000
# 4 0.0001 0.0001 -0.0001 42.2408 0.0000 0.0000
# 5 0.0000 0.0000 0.0000 0.0000 19.3019 0.0000
# 6 0.0000 0.0000 0.0000 0.0000 0.0000 8.9330
#
#
#
# Elastic Compliance Matrix: (Units=1/GPa)
#
#
# Indices 1 2 3 4 5 6 
#
# 1 0.009490 -0.006806 0.004969 0.000000 0.000000 0.000000
# 2 -0.006806 0.010815 -0.001397 0.000000 0.000000 0.000000
# 3 0.004969 -0.001397 0.007285 0.000000 0.000000 0.000000
# 4 0.000000 0.000000 0.000000 0.023674 0.000000 0.000000
# 5 0.000000 0.000000 0.000000 0.000000 0.051808 0.000000
# 6 0.000000 0.000000 0.000000 0.000000 0.000000 0.111944
#
#
# Mechanical properties :
#
#
# Convention : Reuss Voigt Hill
#
# Bulk Modulus (GPa) = 47.34436 67.58068 57.46252
# Shear Modulus (GPa) = 21.87938 74.86198 48.37068
#
# Velocity S-wave (km/s) = 3.34481 6.18706 4.97330
# Velocity P-wave (km/s) = 6.25507 9.25182 7.89690
#
# Compressibility (1/GPa) = 0.02112184
#
# Stress axis : x y z
#
# Youngs Moduli (GPa) = 105.37618 92.46188 137.26496
#
# Poissons Ratio (x) = 0.62934 -0.68204
# Poissons Ratio (y) = 0.71724 0.19170
# Poissons Ratio (z) = -0.52359 0.12913
#
# Static dielectric constant tensor:
#      x y z
#    x 1.739950 0.000000 0.000000 
#    y 0.000000 0.865200 0.000000 
#    z 0.000000 0.000000 1.561650 
# 
# From -- ./inp_files/51235.got.cif
#   From: 2010.05.17/outbox.cif.g08.bks.cpg/sg71_26_cif.got.tgz:51235.got - 2010.06.03 16:22:01.
