data_PCOD9518357
_publ_section_title
;
Structure prediction by ZEFSAII (Michael W. Deem and Ramdas Pophale) SiO2 
 PCOD9518357
Probable space group: I M M M
;
_chemical_formula_sum "Si O2"
_cell_formula_units_Z 104
_cell_length_a 21.498687
_cell_length_b 16.247975
_cell_length_c 15.171973
_cell_angle_alpha 90.000000
_cell_angle_beta 90.000000
_cell_angle_gamma 90.000000
_cell_volume 5299.723844
_symmetry_space_group_name_H-M "I M M M"
_symmetry_group_IT_number 71
_symmetry_cell_setting 'orthorhombic'
loop_
_space_group_symop_operation_xyz
x,y,z
-x,-y,z
x,-y,-z
-x,y,-z
-x,-y,-z
x,y,-z
-x,y,z
x,-y,z
1/2+x,1/2+y,1/2+z
1/2-x,1/2-y,1/2+z
1/2+x,1/2-y,1/2-z
1/2-x,1/2+y,1/2-z
1/2-x,1/2-y,1/2-z
1/2+x,1/2+y,1/2-z
1/2-x,1/2+y,1/2+z
1/2+x,1/2-y,1/2+z
loop_
_atom_site_type_symbol
_atom_site_label
_atom_site_fract_x
_atom_site_fract_y
_atom_site_fract_z
Si Si1 0.676404 0.407765 0.603209
Si Si2 0.070021 0.597393 0.000000
Si Si3 0.927649 0.409364 0.659012
Si Si4 0.633206 0.158981 0.324132
Si Si5 0.104904 0.229413 0.400451
Si Si6 0.251215 0.757579 0.395910
Si Si7 0.929096 0.833567 0.781008
O O1 0.656471 0.398702 0.500000
O O2 0.701214 0.500000 0.613950
O O3 0.726601 0.336170 0.619233
O O4 0.618978 0.392688 0.669113
O O5 0.107367 0.623010 0.085921
O O6 0.064602 0.500000 0.000000
O O7 0.000000 0.633219 0.000000
O O8 0.917846 0.500000 0.617166
O O9 0.882804 0.399419 0.742917
O O10 0.917304 0.324873 0.605646
O O11 0.000000 0.407320 0.688476
O O12 0.704583 0.185094 0.337241
O O13 0.594005 0.242430 0.308229
O O14 0.094533 0.200554 0.500000
O O15 0.178606 0.231515 0.380047
O O16 0.075375 0.172734 0.325079
O O17 0.262715 0.774991 0.500000
O O18 0.000000 0.848747 0.807228
#
# Coordination Sequence:
#
# PCOD9518357 Si02
#       7
#    16   8  16  16  16  16  16
#     4   9  19  35  55  82 115 143 168 210 269 331
#     4  11  20  28  46  76 107 145 182 205 243 309
#     4  10  21  35  50  76 113 142 173 222 273 324
#     4  10  18  32  50  72 106 145 175 216 260 312
#     4  10  21  37  57  77 101 141 188 231 274 314
#     4   9  18  34  54  78 105 140 183 230 266 311
#     4  10  21  34  53  81 107 138 180 225 268 320
#
# _framework density 19.623664000000002
#
# number of rings (size 3 to 8) (size 9 to 14) (size 15 to 20)
#    0.000    2.231    0.769    3.231    1.077    9.538 
#    0.000    3.077    0.000    1.385    0.000    1.077 
#    0.000    0.000    0.000    0.000    0.000    0.000 
#
# Total GULP energy -290146.148413 kJ/mol
# GULP energy per Si atom -5579.733623 kJ/mol
# Density = 1.957900 g / cm^3
# Si number density = 19.623664 Si / 1000 Ang^3
#
#
#
# Elastic Constant Matrix: (Units=GPa)
#
#
# Indices 1 2 3 4 5 6 
#
# 1 68.8468 11.1986 3.4441 0.0000 0.0000 0.0000
# 2 11.1986 41.2057 8.7891 0.0000 0.0000 0.0000
# 3 3.4441 8.7891 72.2861 0.0000 0.0000 0.0000
# 4 0.0000 0.0000 0.0000 -22.2826 0.0000 0.0000
# 5 0.0000 0.0000 0.0000 0.0000 23.8259 0.0000
# 6 0.0000 0.0000 0.0000 0.0000 0.0000 15.5030
#
#
#
# Elastic Compliance Matrix: (Units=1/GPa)
#
#
# Indices 1 2 3 4 5 6 
#
# 1 0.015200 -0.004082 -0.000228 0.000000 0.000000 0.000000
# 2 -0.004082 0.026011 -0.002968 0.000000 0.000000 0.000000
# 3 -0.000228 -0.002968 0.014206 0.000000 0.000000 0.000000
# 4 0.000000 0.000000 0.000000 -0.044878 0.000000 0.000000
# 5 0.000000 0.000000 0.000000 0.000000 0.041971 0.000000
# 6 0.000000 0.000000 0.000000 0.000000 0.000000 0.064504
#
#
# Mechanical properties :
#
#
# Convention : Reuss Voigt Hill
#
# Bulk Modulus (GPa) = 24.47362 25.46691 24.97026
# Shear Modulus (GPa) = 34.43744 14.00305 24.22025
#
# Velocity S-wave (km/s) = 4.19369 2.67419 3.51698
# Velocity P-wave (km/s) = 5.99566 4.74772 5.40781
#
# Compressibility (1/GPa) = 0.04086033
#
# Stress axis : x y z
#
# Youngs Moduli (GPa) = 65.78753 38.44511 70.39443
#
# Poissons Ratio (x) = 0.15695 0.01604
# Poissons Ratio (y) = 0.26858 0.20894
# Poissons Ratio (z) = 0.01499 0.11411
#
# Static dielectric constant tensor:
#      x y z
#    x 1.679590 0.000000 0.000000 
#    y 0.000000 1.673860 0.000000 
#    z 0.000000 0.000000 1.630050 
# 
# From -- ./inp_files/38107.got.cif
#   From: 2010.05.17/outbox.cif.g08.bks.cpg/sg71_20_cif.got.tgz:38107.got - 2010.06.03 16:22:01.
