data_PCOD9518443
_publ_section_title
;
Structure prediction by ZEFSAII (Michael W. Deem and Ramdas Pophale) SiO2 
 PCOD9518443
Probable space group: I M M M
;
_chemical_formula_sum "Si O2"
_cell_formula_units_Z 112
_cell_length_a 28.704505
_cell_length_b 13.517818
_cell_length_c 14.890244
_cell_angle_alpha 90.000000
_cell_angle_beta 90.000000
_cell_angle_gamma 90.000000
_cell_volume 5777.746343
_symmetry_space_group_name_H-M "I M M M"
_symmetry_group_IT_number 71
_symmetry_cell_setting 'orthorhombic'
loop_
_space_group_symop_operation_xyz
x,y,z
-x,-y,z
x,-y,-z
-x,y,-z
-x,-y,-z
x,y,-z
-x,y,z
x,-y,z
1/2+x,1/2+y,1/2+z
1/2-x,1/2-y,1/2+z
1/2+x,1/2-y,1/2-z
1/2-x,1/2+y,1/2-z
1/2-x,1/2-y,1/2-z
1/2+x,1/2+y,1/2-z
1/2-x,1/2+y,1/2+z
1/2+x,1/2-y,1/2+z
loop_
_atom_site_type_symbol
_atom_site_label
_atom_site_fract_x
_atom_site_fract_y
_atom_site_fract_z
Si Si1 0.640864 0.384170 0.106881
Si Si2 0.351322 0.883864 0.602698
Si Si3 0.050143 0.383662 0.634499
Si Si4 0.945699 0.887727 0.268580
Si Si5 0.847862 0.383789 0.593931
Si Si6 0.052476 0.310925 0.163928
Si Si7 0.304371 0.233745 0.238974
O O1 0.654199 0.500000 0.113720
O O2 0.588528 0.375875 0.146993
O O3 0.671487 0.320531 0.178461
O O4 0.643880 0.359025 0.000000
O O5 0.334867 0.875058 0.500000
O O6 0.406252 0.857793 0.607377
O O7 0.327448 0.802640 0.667776
O O8 0.344865 0.000000 0.630418
O O9 0.049078 0.500000 0.612153
O O10 0.099480 0.342182 0.601687
O O11 0.051973 0.370032 0.741585
O O12 0.000000 0.341437 0.604711
O O13 0.936691 0.801889 0.195524
O O14 0.000000 0.877136 0.293996
O O15 0.938911 0.000000 0.233903
O O16 0.826607 0.351593 0.500000
O O17 0.854086 0.500000 0.593170
O O18 0.815438 0.357968 0.675026
O O19 0.000000 0.314583 0.126167
O O20 0.250000 0.250000 0.250000
#
# Coordination Sequence:
#
# PCOD9518443 Si02
#       7
#    16  16  16  16  16  16  16
#     4  10  21  38  63  95 126 156 197 248 302 365
#     4  11  24  42  65  93 123 157 203 256 308 363
#     4   9  16  27  49  82 120 158 191 223 271 346
#     4   9  17  31  56  91 129 166 202 240 288 355
#     4  10  20  35  58  87 118 151 189 232 284 356
#     4  10  18  32  57  87 121 164 205 246 294 351
#     4  12  25  42  63  82 113 156 200 254 312 366
#
# _framework density 19.384720999999999
#
# number of rings (size 3 to 8) (size 9 to 14) (size 15 to 20)
#    0.000    1.857    2.857    1.286    0.000    4.000 
#    0.000    5.000    0.000    6.000    0.000    2.000 
#    0.000    0.000    0.000    0.000    0.000    0.000 
#
# Total GULP energy -311905.837132 kJ/mol
# GULP energy per Si atom -5569.747092 kJ/mol
# Density = 1.934060 g / cm^3
# Si number density = 19.384721 Si / 1000 Ang^3
#
#
#
# Elastic Constant Matrix: (Units=GPa)
#
#
# Indices 1 2 3 4 5 6 
#
# 1 111.2253 21.0351 45.7683 0.0000 0.0000 0.0000
# 2 21.0351 102.6409 25.8390 0.0000 0.0000 0.0000
# 3 45.7683 25.8390 96.5746 0.0000 0.0000 0.0000
# 4 0.0000 0.0000 0.0000 40.1272 0.0000 0.0000
# 5 0.0000 0.0000 0.0000 0.0000 -131.6601 0.0000
# 6 0.0000 0.0000 0.0000 0.0000 0.0000 19.8935
#
#
#
# Elastic Compliance Matrix: (Units=1/GPa)
#
#
# Indices 1 2 3 4 5 6 
#
# 1 0.011270 -0.001035 -0.005064 0.000000 0.000000 0.000000
# 2 -0.001035 0.010541 -0.002330 0.000000 0.000000 0.000000
# 3 -0.005064 -0.002330 0.013378 0.000000 0.000000 0.000000
# 4 0.000000 0.000000 0.000000 0.024921 0.000000 0.000000
# 5 0.000000 0.000000 0.000000 0.000000 -0.007595 0.000000
# 6 0.000000 0.000000 0.000000 0.000000 0.000000 0.050268
#
#
# Mechanical properties :
#
#
# Convention : Reuss Voigt Hill
#
# Bulk Modulus (GPa) = 54.55062 55.08063 54.81562
# Shear Modulus (GPa) = 39.76085 0.19202 19.97644
#
# Velocity S-wave (km/s) = 4.53387 0.31508 3.21366
# Velocity P-wave (km/s) = 7.45722 5.34869 6.48917
#
# Compressibility (1/GPa) = 0.01833160
#
# Stress axis : x y z
#
# Youngs Moduli (GPa) = 88.72792 94.86468 74.74868
#
# Poissons Ratio (x) = 0.09817 0.37855
# Poissons Ratio (y) = 0.09182 0.17416
# Poissons Ratio (z) = 0.44935 0.22103
#
# Static dielectric constant tensor:
#      x y z
#    x 1.653030 0.000000 0.000000 
#    y 0.000000 1.750610 0.000000 
#    z 0.000000 0.000000 1.696530 
# 
# From -- ./inp_files/39264.got.cif
#   From: 2010.05.17/outbox.cif.g08.bks.cpg/sg71_20_cif.got.tgz:39264.got - 2010.06.03 16:22:01.
