data_PCOD9518358
_publ_section_title
;
Structure prediction by ZEFSAII (Michael W. Deem and Ramdas Pophale) SiO2 
 PCOD9518358
Probable space group: I M M M
;
_chemical_formula_sum "Si O2"
_cell_formula_units_Z 112
_cell_length_a 22.225119
_cell_length_b 26.818793
_cell_length_c 10.819619
_cell_angle_alpha 90.000000
_cell_angle_beta 90.000000
_cell_angle_gamma 90.000000
_cell_volume 6449.043273
_symmetry_space_group_name_H-M "I M M M"
_symmetry_group_IT_number 71
_symmetry_cell_setting 'orthorhombic'
loop_
_space_group_symop_operation_xyz
x,y,z
-x,-y,z
x,-y,-z
-x,y,-z
-x,-y,-z
x,y,-z
-x,y,z
x,-y,z
1/2+x,1/2+y,1/2+z
1/2-x,1/2-y,1/2+z
1/2+x,1/2-y,1/2-z
1/2-x,1/2+y,1/2-z
1/2-x,1/2-y,1/2-z
1/2+x,1/2+y,1/2-z
1/2-x,1/2+y,1/2+z
1/2+x,1/2-y,1/2+z
loop_
_atom_site_type_symbol
_atom_site_label
_atom_site_fract_x
_atom_site_fract_y
_atom_site_fract_z
Si Si1 0.323013 0.054935 0.354382
Si Si2 0.343003 0.302767 0.141981
Si Si3 0.252425 0.633171 0.294708
Si Si4 0.428268 0.604651 0.857920
Si Si5 0.929078 0.374032 0.856889
Si Si6 0.145817 0.057694 0.136097
Si Si7 0.368642 0.813055 0.861018
O O1 0.313474 0.051583 0.500000
O O2 0.277904 0.096042 0.303627
O O3 0.390115 0.076116 0.335275
O O4 0.314831 0.000000 0.298992
O O5 0.291886 0.323952 0.231013
O O6 0.399850 0.339996 0.154447
O O7 0.359160 0.245508 0.163637
O O8 0.321809 0.306916 0.000000
O O9 0.298863 0.596582 0.363168
O O10 0.196099 0.659123 0.360695
O O11 0.500000 0.604915 0.843086
O O12 0.396337 0.572210 0.751722
O O13 0.414774 0.588048 0.000000
O O14 0.906990 0.336288 0.750819
O O15 0.000000 0.382188 0.847773
O O16 0.915963 0.357807 0.000000
O O17 0.165331 0.000000 0.149810
O O18 0.116055 0.061977 0.000000
O O19 0.394721 0.818807 0.000000
#
# Coordination Sequence:
#
# PCOD9518358 Si02
#       7
#    16  16  16  16  16  16  16
#     4   9  17  29  49  77 103 129 164 205 248 293
#     4   9  18  32  51  76 103 132 166 204 248 295
#     4  10  18  32  50  73 103 135 164 202 245 295
#     4   9  19  36  55  74  98 128 164 207 251 294
#     4   9  19  35  52  72 101 134 167 206 251 296
#     4  10  21  35  51  73 102 135 167 201 245 295
#     4  10  20  33  52  77 102 132 169 206 246 294
#
# _framework density 17.366916
#
# number of rings (size 3 to 8) (size 9 to 14) (size 15 to 20)
#    0.000    2.571    0.000    1.714    0.000    3.143 
#    0.000    7.857    0.000    3.857    0.000    4.000 
#    0.000    0.000    0.000    0.000    0.000    0.000 
#
# Total GULP energy -311828.637724 kJ/mol
# GULP energy per Si atom -5568.368531 kJ/mol
# Density = 1.732739 g / cm^3
# Si number density = 17.366916 Si / 1000 Ang^3
#
#
#
# Elastic Constant Matrix: (Units=GPa)
#
#
# Indices 1 2 3 4 5 6 
#
# 1 48.0031 -12.1287 26.5565 0.0000 0.0000 0.0000
# 2 -12.1287 58.1142 26.4181 0.0000 0.0000 0.0000
# 3 26.5565 26.4181 77.1672 0.0000 0.0000 0.0000
# 4 0.0000 0.0000 0.0000 8.2414 0.0000 0.0000
# 5 0.0000 0.0000 0.0000 0.0000 14.4797 0.0000
# 6 0.0000 0.0000 0.0000 0.0000 0.0000 1.5119
#
#
#
# Elastic Compliance Matrix: (Units=1/GPa)
#
#
# Indices 1 2 3 4 5 6 
#
# 1 0.033684 0.014567 -0.016579 0.000000 0.000000 0.000000
# 2 0.014567 0.026678 -0.014146 0.000000 0.000000 0.000000
# 3 -0.016579 -0.014146 0.023507 0.000000 0.000000 0.000000
# 4 0.000000 0.000000 0.000000 0.121338 0.000000 0.000000
# 5 0.000000 0.000000 0.000000 0.000000 0.069062 0.000000
# 6 0.000000 0.000000 0.000000 0.000000 0.000000 0.661403
#
#
# Mechanical properties :
#
#
# Convention : Reuss Voigt Hill
#
# Bulk Modulus (GPa) = 19.39756 29.44181 24.41968
# Shear Modulus (GPa) = 5.07524 14.34252 9.70888
#
# Velocity S-wave (km/s) = 1.71135 2.87688 2.36698
# Velocity P-wave (km/s) = 3.88567 5.29385 4.64345
#
# Compressibility (1/GPa) = 0.05155288
#
# Stress axis : x y z
#
# Youngs Moduli (GPa) = 29.68726 37.48349 42.53974
#
# Poissons Ratio (x) = -0.54601 0.70527
# Poissons Ratio (y) = -0.43245 0.60178
# Poissons Ratio (z) = 0.49219 0.53025
#
# Static dielectric constant tensor:
#      x y z
#    x 1.576960 0.000000 0.000000 
#    y 0.000000 1.574530 0.000000 
#    z 0.000000 0.000000 1.604310 
# 
# From -- ./inp_files/26267.got.cif
#   From: 2010.05.17/outbox.cif.g08.bks.cpg/sg71_14_cif.got.tgz:26267.got - 2010.06.03 16:22:01.
