data_PCOD9518649
_publ_section_title
;
Structure prediction by ZEFSAII (Michael W. Deem and Ramdas Pophale) SiO2 
 PCOD9518649
Probable space group: I M M M
;
_chemical_formula_sum "Si O2"
_cell_formula_units_Z 88
_cell_length_a 8.561560
_cell_length_b 25.732550
_cell_length_c 24.689971
_cell_angle_alpha 90.000000
_cell_angle_beta 90.000000
_cell_angle_gamma 90.000000
_cell_volume 5439.466541
_symmetry_space_group_name_H-M "I M M M"
_symmetry_group_IT_number 71
_symmetry_cell_setting 'orthorhombic'
loop_
_space_group_symop_operation_xyz
x,y,z
-x,-y,z
x,-y,-z
-x,y,-z
-x,-y,-z
x,y,-z
-x,y,z
x,-y,z
1/2+x,1/2+y,1/2+z
1/2-x,1/2-y,1/2+z
1/2+x,1/2-y,1/2-z
1/2-x,1/2+y,1/2-z
1/2-x,1/2-y,1/2-z
1/2+x,1/2+y,1/2-z
1/2-x,1/2+y,1/2+z
1/2+x,1/2-y,1/2+z
loop_
_atom_site_type_symbol
_atom_site_label
_atom_site_fract_x
_atom_site_fract_y
_atom_site_fract_z
Si Si1 0.325324 0.677294 0.561277
Si Si2 0.685620 0.788866 0.670756
Si Si3 0.679017 0.901419 0.134454
Si Si4 0.814765 0.791069 0.440778
Si Si5 0.808723 0.500000 0.436328
Si Si6 0.814438 0.175740 0.216288
O O1 0.330029 0.657689 0.500000
O O2 0.500000 0.670490 0.585372
O O3 0.195290 0.646001 0.592661
O O4 0.281713 0.737418 0.558992
O O5 0.500000 0.789975 0.663639
O O6 0.765098 0.813255 0.617426
O O7 0.733355 0.817894 0.725709
O O8 0.731513 0.727891 0.681730
O O9 0.500000 0.911958 0.149115
O O10 0.740657 0.950199 0.099607
O O11 0.767688 0.877275 0.185914
O O12 0.783012 0.816637 0.500000
O O13 0.000000 0.780818 0.439193
O O14 0.758261 0.500000 0.500000
O O15 0.000000 0.500000 0.438104
O O16 0.000000 0.178437 0.223545
#
# Coordination Sequence:
#
# PCOD9518649 Si02
#       6
#    16  16  16  16   8  16
#     4  10  19  29  41  59  84 113 148 190 234 278
#     4  10  19  31  47  67  92 121 153 191 234 282
#     4  11  20  32  50  67  86 115 155 199 245 291
#     4  10  19  29  43  64  90 121 153 185 224 271
#     4   9  20  36  51  69  93 123 162 209 254 293
#     4  10  20  32  47  66  91 119 151 194 240 288
#
# _framework density 16.178058
#
# number of rings (size 3 to 8) (size 9 to 14) (size 15 to 20)
#    0.000    1.909    1.818    3.273    0.000    4.364 
#    0.000    1.818    0.000    3.273    0.000    0.000 
#    0.000    0.000    0.000    0.818    0.000   15.818 
#
# Total GULP energy -244972.150460 kJ/mol
# GULP energy per Si atom -5567.548874 kJ/mol
# Density = 1.614124 g / cm^3
# Si number density = 16.178058 Si / 1000 Ang^3
#
#
#
# Elastic Constant Matrix: (Units=GPa)
#
#
# Indices 1 2 3 4 5 6 
#
# 1 44.0170 3.6451 29.1709 0.0000 0.0000 0.0000
# 2 3.6451 42.2969 24.3614 0.0000 0.0000 0.0000
# 3 29.1709 24.3614 132.4106 0.0000 0.0000 0.0000
# 4 0.0000 0.0000 0.0000 20.8705 0.0000 0.0000
# 5 0.0000 0.0000 0.0000 0.0000 28.0627 0.0000
# 6 0.0000 0.0000 0.0000 0.0000 0.0000 10.7994
#
#
#
# Elastic Compliance Matrix: (Units=1/GPa)
#
#
# Indices 1 2 3 4 5 6 
#
# 1 0.026658 0.001214 -0.006096 0.000000 0.000000 0.000000
# 2 0.001214 0.026500 -0.005143 0.000000 0.000000 0.000000
# 3 -0.006096 -0.005143 0.009842 0.000000 0.000000 0.000000
# 4 0.000000 0.000000 0.000000 0.047915 0.000000 0.000000
# 5 0.000000 0.000000 0.000000 0.000000 0.035634 0.000000
# 6 0.000000 0.000000 0.000000 0.000000 0.000000 0.092598
#
#
# Mechanical properties :
#
#
# Convention : Reuss Voigt Hill
#
# Bulk Modulus (GPa) = 23.28357 37.00883 30.14620
# Shear Modulus (GPa) = 18.28066 22.71634 20.49850
#
# Velocity S-wave (km/s) = 3.36514 3.75126 3.56343
# Velocity P-wave (km/s) = 5.43344 6.45664 5.96701
#
# Compressibility (1/GPa) = 0.04294875
#
# Stress axis : x y z
#
# Youngs Moduli (GPa) = 37.51210 37.73592 101.61012
#
# Poissons Ratio (x) = -0.04581 0.61944
# Poissons Ratio (y) = -0.04553 0.52258
# Poissons Ratio (z) = 0.22868 0.19408
#
# Static dielectric constant tensor:
#      x y z
#    x 1.554560 0.000000 0.000000 
#    y 0.000000 1.528660 0.000000 
#    z 0.000000 0.000000 1.630150 
# 
# From -- ./inp_files/58147.got.cif
#   From: 2010.05.17/outbox.cif.g08.bks.cpg/sg71_30_cif.got.tgz:58147.got - 2010.06.03 16:22:01.
