data_PCOD9518646
_publ_section_title
;
Structure prediction by ZEFSAII (Michael W. Deem and Ramdas Pophale) SiO2 
 PCOD9518646
Probable space group: I M M M
;
_chemical_formula_sum "Si O2"
_cell_formula_units_Z 72
_cell_length_a 9.166842
_cell_length_b 13.889039
_cell_length_c 40.199042
_cell_angle_alpha 90.000000
_cell_angle_beta 90.000000
_cell_angle_gamma 90.000000
_cell_volume 5118.086796
_symmetry_space_group_name_H-M "I M M M"
_symmetry_group_IT_number 71
_symmetry_cell_setting 'orthorhombic'
loop_
_space_group_symop_operation_xyz
x,y,z
-x,-y,z
x,-y,-z
-x,y,-z
-x,-y,-z
x,y,-z
-x,y,z
x,-y,z
1/2+x,1/2+y,1/2+z
1/2-x,1/2-y,1/2+z
1/2+x,1/2-y,1/2-z
1/2-x,1/2+y,1/2-z
1/2-x,1/2-y,1/2-z
1/2+x,1/2+y,1/2-z
1/2-x,1/2+y,1/2+z
1/2+x,1/2-y,1/2+z
loop_
_atom_site_type_symbol
_atom_site_label
_atom_site_fract_x
_atom_site_fract_y
_atom_site_fract_z
Si Si1 0.831296 0.617407 0.000000
Si Si2 0.673116 0.884765 0.364591
Si Si3 0.326434 0.287622 0.801948
Si Si4 0.168190 0.882910 0.567118
Si Si5 0.826163 0.888267 0.768314
O O1 0.748852 0.648742 0.033460
O O2 0.829911 0.500000 0.000000
O O3 0.000000 0.647171 0.000000
O O4 0.500000 0.867677 0.365404
O O5 0.747474 0.830558 0.334003
O O6 0.746215 0.855226 0.399523
O O7 0.696113 0.000000 0.360644
O O8 0.500000 0.283411 0.807111
O O9 0.262588 0.183968 0.791688
O O10 0.298365 0.355581 0.769780
O O11 0.000000 0.851553 0.567926
O O12 0.168049 0.000000 0.566453
O O13 0.000000 0.876097 0.774072
O O14 0.788854 0.000000 0.772803
#
# Coordination Sequence:
#
# PCOD9518646 Si02
#       5
#     8  16  16  16  16
#     4   9  15  23  35  51  73 101 134 169 202 239
#     4  10  19  29  41  58  81 109 140 173 209 248
#     4  10  19  30  45  64  84 106 135 171 209 248
#     4   9  16  25  37  53  74 102 136 171 205 240
#     4   9  18  32  47  62  82 108 137 169 206 248
#
# _framework density 14.067757
#
# number of rings (size 3 to 8) (size 9 to 14) (size 15 to 20)
#    0.000    2.556    0.000    3.000    0.000    7.556 
#    0.000    0.000    0.000    0.000    0.000    0.000 
#    0.000    0.000    0.000    1.000    0.000   18.556 
#
# Total GULP energy -200685.332626 kJ/mol
# GULP energy per Si atom -5574.592573 kJ/mol
# Density = 1.403574 g / cm^3
# Si number density = 14.067757 Si / 1000 Ang^3
#
#
#
# Elastic Constant Matrix: (Units=GPa)
#
#
# Indices 1 2 3 4 5 6 
#
# 1 116.6732 49.9881 96.5567 0.0000 0.0000 0.0000
# 2 49.9881 56.6158 47.2063 0.0000 0.0000 0.0000
# 3 96.5567 47.2063 149.0090 0.0000 0.0000 0.0000
# 4 0.0000 0.0000 0.0000 14.4606 0.0000 0.0000
# 5 0.0000 0.0000 0.0000 0.0000 30.2682 0.0000
# 6 0.0000 0.0000 0.0000 0.0000 0.0000 17.4863
#
#
#
# Elastic Compliance Matrix: (Units=1/GPa)
#
#
# Indices 1 2 3 4 5 6 
#
# 1 0.022187 -0.010331 -0.011104 0.000000 0.000000 0.000000
# 2 -0.010331 0.028814 -0.002434 0.000000 0.000000 0.000000
# 3 -0.011104 -0.002434 0.014677 0.000000 0.000000 0.000000
# 4 0.000000 0.000000 0.000000 0.069153 0.000000 0.000000
# 5 0.000000 0.000000 0.000000 0.000000 0.033038 0.000000
# 6 0.000000 0.000000 0.000000 0.000000 0.000000 0.057188
#
#
# Mechanical properties :
#
#
# Convention : Reuss Voigt Hill
#
# Bulk Modulus (GPa) = 55.74039 78.86670 67.30354
# Shear Modulus (GPa) = 17.93567 21.01281 19.47424
#
# Velocity S-wave (km/s) = 3.57452 3.86902 3.72468
# Velocity P-wave (km/s) = 7.53293 8.72598 8.15131
#
# Compressibility (1/GPa) = 0.01794031
#
# Stress axis : x y z
#
# Youngs Moduli (GPa) = 45.07243 34.70549 68.13249
#
# Poissons Ratio (x) = 0.35854 0.75653
# Poissons Ratio (y) = 0.46564 0.16583
# Poissons Ratio (z) = 0.50048 0.08447
#
# Static dielectric constant tensor:
#      x y z
#    x 1.467450 0.000000 0.000000 
#    y 0.000000 1.429710 0.000000 
#    z 0.000000 0.000000 1.449760 
# 
# From -- ./inp_files/67843.got.cif
#   From: 2010.05.17/outbox.cif.g08.bks.cpg/sg71_34_cif.got.tgz:67843.got - 2010.06.03 16:22:01.
