data_PCOD9518897
_publ_section_title
;
Structure prediction by ZEFSAII (Michael W. Deem and Ramdas Pophale) SiO2 
 PCOD9518897
Probable space group: I M M M
;
_chemical_formula_sum "Si O2"
_cell_formula_units_Z 88
_cell_length_a 22.704602
_cell_length_b 24.473001
_cell_length_c 9.081269
_cell_angle_alpha 90.000000
_cell_angle_beta 90.000000
_cell_angle_gamma 90.000000
_cell_volume 5046.004826
_symmetry_space_group_name_H-M "I M M M"
_symmetry_group_IT_number 71
_symmetry_cell_setting 'orthorhombic'
loop_
_space_group_symop_operation_xyz
x,y,z
-x,-y,z
x,-y,-z
-x,y,-z
-x,-y,-z
x,y,-z
-x,y,z
x,-y,z
1/2+x,1/2+y,1/2+z
1/2-x,1/2-y,1/2+z
1/2+x,1/2-y,1/2-z
1/2-x,1/2+y,1/2-z
1/2-x,1/2-y,1/2-z
1/2+x,1/2+y,1/2-z
1/2-x,1/2+y,1/2+z
1/2+x,1/2-y,1/2+z
loop_
_atom_site_type_symbol
_atom_site_label
_atom_site_fract_x
_atom_site_fract_y
_atom_site_fract_z
Si Si1 0.435299 0.260770 0.173624
Si Si2 0.271736 0.192658 0.322398
Si Si3 0.901722 0.348559 0.177198
Si Si4 0.500000 0.063944 0.679408
Si Si5 0.935120 0.065137 0.172517
Si Si6 0.150694 0.855803 0.675878
O O1 0.500000 0.286460 0.188206
O O2 0.433849 0.205150 0.263243
O O3 0.384892 0.301780 0.225885
O O4 0.425868 0.248967 0.000000
O O5 0.274038 0.201306 0.500000
O O6 0.250000 0.250000 0.250000
O O7 0.333788 0.164891 0.276346
O O8 0.218824 0.150979 0.288230
O O9 0.941152 0.401260 0.224407
O O10 0.901348 0.349962 0.000000
O O11 0.500000 0.063395 0.500000
O O12 0.500000 0.000000 0.726926
O O13 0.882389 0.093577 0.255266
O O14 0.000000 0.081557 0.229526
O O15 0.931441 0.000000 0.183710
O O16 0.932671 0.079515 0.000000
O O17 0.144784 0.857843 0.500000
#
# Coordination Sequence:
#
# PCOD9518897 Si02
#       6
#    16  16  16   8  16  16
#     4  10  19  30  47  73 105 137 166 203 255 310
#     4  10  20  33  50  75 107 138 172 211 256 314
#     4  10  19  32  52  77 100 129 175 219 257 310
#     4   9  18  34  55  77 103 135 172 221 272 307
#     4   9  19  36  55  75 101 134 174 218 259 299
#     4  10  20  33  49  74 107 139 172 207 254 315
#
# _framework density 17.439540000000001
#
# number of rings (size 3 to 8) (size 9 to 14) (size 15 to 20)
#    0.000    2.273    2.727    1.091    0.000    2.909 
#    0.000    1.818    0.000    4.364    0.000    0.000 
#    0.000    0.000    0.000    0.000    0.000    0.000 
#
# Total GULP energy -244968.142411 kJ/mol
# GULP energy per Si atom -5567.457782 kJ/mol
# Density = 1.739985 g / cm^3
# Si number density = 17.439540 Si / 1000 Ang^3
#
#
#
# Elastic Constant Matrix: (Units=GPa)
#
#
# Indices 1 2 3 4 5 6 
#
# 1 159.6133 51.7916 28.2687 0.0000 0.0000 0.0000
# 2 51.7916 62.3167 18.9626 0.0000 0.0000 0.0000
# 3 28.2687 18.9626 -1.7073 0.0000 0.0000 0.0000
# 4 0.0000 0.0000 0.0000 25.5242 0.0000 0.0000
# 5 0.0000 0.0000 0.0000 0.0000 17.5169 0.0000
# 6 0.0000 0.0000 0.0000 0.0000 0.0000 -22.7113
#
#
#
# Elastic Compliance Matrix: (Units=1/GPa)
#
#
# Indices 1 2 3 4 5 6 
#
# 1 0.007273 -0.009747 0.012167 0.000000 0.000000 0.000000
# 2 -0.009747 0.016726 0.024389 0.000000 0.000000 0.000000
# 3 0.012167 0.024389 -0.113382 0.000000 0.000000 0.000000
# 4 0.000000 0.000000 0.000000 0.039178 0.000000 0.000000
# 5 0.000000 0.000000 0.000000 0.000000 0.057088 0.000000
# 6 0.000000 0.000000 0.000000 0.000000 0.000000 -0.044031
#
#
# Mechanical properties :
#
#
# Convention : Reuss Voigt Hill
#
# Bulk Modulus (GPa) = -27.96115 46.47428 9.25656
# Shear Modulus (GPa) = -48.69131 12.14596 -18.27267
#
# Velocity S-wave (km/s) = -5.28968 2.64192 -3.24044
# Velocity P-wave (km/s) = 7.30586 6.00108 2.94641
#
# Compressibility (1/GPa) = -0.03576390
#
# Stress axis : x y z
#
# Youngs Moduli (GPa) = 137.49496 59.78646 -8.81975
#
# Poissons Ratio (x) = 0.58273 0.10731
# Poissons Ratio (y) = 1.34015 0.21511
# Poissons Ratio (z) = -1.67288 -1.45816
#
# Static dielectric constant tensor:
#      x y z
#    x 1.653430 0.000000 0.000000 
#    y 0.000000 1.580800 0.000000 
#    z 0.000000 0.000000 1.589770 
# 
# From -- ./inp_files/10408.got.cif
#   From: 2010.05.17/outbox.cif.g08.bks.cpg/sg71_6_cif.got.tgz:10408.got - 2010.06.03 16:22:01.
