data_PCOD9518179
_publ_section_title
;
Structure prediction by ZEFSAII (Michael W. Deem and Ramdas Pophale) SiO2 
 PCOD9518179
Probable space group: I M M M
;
_chemical_formula_sum "Si O2"
_cell_formula_units_Z 72
_cell_length_a 31.690496
_cell_length_b 18.296097
_cell_length_c 7.669665
_cell_angle_alpha 90.000000
_cell_angle_beta 90.000000
_cell_angle_gamma 90.000000
_cell_volume 4446.966785
_symmetry_space_group_name_H-M "I M M M"
_symmetry_group_IT_number 71
_symmetry_cell_setting 'orthorhombic'
loop_
_space_group_symop_operation_xyz
x,y,z
-x,-y,z
x,-y,-z
-x,y,-z
-x,-y,-z
x,y,-z
-x,y,z
x,-y,z
1/2+x,1/2+y,1/2+z
1/2-x,1/2-y,1/2+z
1/2+x,1/2-y,1/2-z
1/2-x,1/2+y,1/2-z
1/2-x,1/2-y,1/2-z
1/2+x,1/2+y,1/2-z
1/2-x,1/2+y,1/2+z
1/2+x,1/2-y,1/2+z
loop_
_atom_site_type_symbol
_atom_site_label
_atom_site_fract_x
_atom_site_fract_y
_atom_site_fract_z
Si Si1 0.751562 0.585805 0.701768
Si Si2 0.867330 0.272990 0.000000
Si Si3 0.581102 0.414803 0.203527
Si Si4 0.680159 0.085225 0.500000
Si Si5 0.547270 0.311703 0.500000
Si Si6 0.167011 0.170744 0.701714
O O1 0.762943 0.597686 0.500000
O O2 0.739738 0.500000 0.723123
O O3 0.711613 0.635219 0.750088
O O4 0.790041 0.599305 0.832495
O O5 0.845459 0.235175 0.167468
O O6 0.857972 0.358337 0.000000
O O7 0.916040 0.248834 0.000000
O O8 0.576388 0.500000 0.247667
O O9 0.555102 0.363350 0.332256
O O10 0.629932 0.389775 0.222491
O O11 0.569681 0.404838 0.000000
O O12 0.668095 0.000000 0.500000
O O13 0.500000 0.282637 0.500000
O O14 0.167344 0.193864 0.500000
#
# Coordination Sequence:
#
# PCOD9518179 Si02
#       6
#    16   8  16   8   8  16
#     4  10  19  31  48  72 102 138 174 203 232 272
#     4  10  22  37  52  73  97 126 164 206 255 299
#     4   9  18  30  47  72 103 138 172 201 229 271
#     4  10  22  38  53  70  96 130 165 204 252 300
#     4  10  21  36  52  71  96 125 161 206 258 304
#     4  10  18  31  48  73 103 139 173 204 234 272
#
# _framework density 16.190811
#
# number of rings (size 3 to 8) (size 9 to 14) (size 15 to 20)
#    0.000    2.222    2.222    1.000    0.000    4.000 
#    0.000    1.111    0.000    0.333    0.000    0.000 
#    0.000    0.000    0.000   16.667    0.000    0.000 
#
# Total GULP energy -200915.012281 kJ/mol
# GULP energy per Si atom -5580.972563 kJ/mol
# Density = 1.615396 g / cm^3
# Si number density = 16.190811 Si / 1000 Ang^3
#
#
#
# Elastic Constant Matrix: (Units=GPa)
#
#
# Indices 1 2 3 4 5 6 
#
# 1 77.7314 69.4283 41.6371 0.0000 0.0000 0.0000
# 2 69.4283 76.3336 41.9434 0.0000 0.0000 0.0000
# 3 41.6371 41.9434 97.3626 0.0000 0.0000 0.0000
# 4 0.0000 0.0000 0.0000 6.4320 0.0000 0.0000
# 5 0.0000 0.0000 0.0000 0.0000 -450.9682 0.0000
# 6 0.0000 0.0000 0.0000 0.0000 0.0000 3.5180
#
#
#
# Elastic Compliance Matrix: (Units=1/GPa)
#
#
# Indices 1 2 3 4 5 6 
#
# 1 0.069348 -0.061286 -0.003255 0.000000 0.000000 0.000000
# 2 -0.061286 0.071325 -0.004517 0.000000 0.000000 0.000000
# 3 -0.003255 -0.004517 0.013609 0.000000 0.000000 0.000000
# 4 0.000000 0.000000 0.000000 0.155473 0.000000 0.000000
# 5 0.000000 0.000000 0.000000 0.000000 -0.002217 0.000000
# 6 0.000000 0.000000 0.000000 0.000000 0.000000 0.284254
#
#
# Mechanical properties :
#
#
# Convention : Reuss Voigt Hill
#
# Bulk Modulus (GPa) = 61.86272 61.93833 61.90053
# Shear Modulus (GPa) = 6.79999 -81.64239 -37.42120
#
# Velocity S-wave (km/s) = 2.05159 -7.10877 -4.81277
# Velocity P-wave (km/s) = 6.62597 5.38899 2.72602
#
# Compressibility (1/GPa) = 0.01616482
#
# Stress axis : x y z
#
# Youngs Moduli (GPa) = 14.42003 14.02041 73.48156
#
# Poissons Ratio (x) = 0.85926 0.23917
# Poissons Ratio (y) = 0.88375 0.33194
# Poissons Ratio (z) = 0.04694 0.06333
#
# Static dielectric constant tensor:
#      x y z
#    x 1.518950 0.000000 0.000000 
#    y 0.000000 1.522230 0.000000 
#    z 0.000000 0.000000 1.560470 
# 
# From -- ./inp_files/16403.got.cif
#   From: 2010.05.17/outbox.cif.g08.bks.cpg/sg71_9_cif.got.tgz:16403.got - 2010.06.03 16:22:01.
