data_PCOD9518247
_publ_section_title
;
Structure prediction by ZEFSAII (Michael W. Deem and Ramdas Pophale) SiO2 
 PCOD9518247
Probable space group: I M M M
;
_chemical_formula_sum "Si O2"
_cell_formula_units_Z 120
_cell_length_a 24.978791
_cell_length_b 13.113141
_cell_length_c 21.760669
_cell_angle_alpha 90.000000
_cell_angle_beta 90.000000
_cell_angle_gamma 90.000000
_cell_volume 7127.716018
_symmetry_space_group_name_H-M "I M M M"
_symmetry_group_IT_number 71
_symmetry_cell_setting 'orthorhombic'
loop_
_space_group_symop_operation_xyz
x,y,z
-x,-y,z
x,-y,-z
-x,y,-z
-x,-y,-z
x,y,-z
-x,y,z
x,-y,z
1/2+x,1/2+y,1/2+z
1/2-x,1/2-y,1/2+z
1/2+x,1/2-y,1/2-z
1/2-x,1/2+y,1/2-z
1/2-x,1/2-y,1/2-z
1/2+x,1/2+y,1/2-z
1/2-x,1/2+y,1/2+z
1/2+x,1/2-y,1/2+z
loop_
_atom_site_type_symbol
_atom_site_label
_atom_site_fract_x
_atom_site_fract_y
_atom_site_fract_z
Si Si1 0.564403 0.376763 0.500000
Si Si2 0.241343 0.193732 0.071606
Si Si3 0.627037 0.692907 0.621290
Si Si4 0.842538 0.617859 0.801353
Si Si5 0.125197 0.252901 0.315238
Si Si6 0.560389 0.615368 0.733694
Si Si7 0.225663 0.118778 0.352040
Si Si8 0.358208 0.883231 0.071528
O O1 0.573520 0.500000 0.500000
O O2 0.500000 0.360800 0.500000
O O3 0.592309 0.328191 0.439612
O O4 0.188519 0.162201 0.108396
O O5 0.258140 0.308641 0.090868
O O6 0.294166 0.127118 0.083109
O O7 0.228105 0.188915 0.000000
O O8 0.631429 0.809475 0.646317
O O9 0.600640 0.632539 0.677400
O O10 0.858129 0.500000 0.807925
O O11 0.858251 0.663457 0.735524
O O12 0.778202 0.624107 0.809045
O O13 0.075618 0.192532 0.287288
O O14 0.174134 0.172668 0.322380
O O15 0.115662 0.307255 0.379981
O O16 0.500000 0.632425 0.711243
O O17 0.564855 0.500000 0.756021
O O18 0.216148 0.000000 0.366862
O O19 0.374606 0.000000 0.080772
O O20 0.366772 0.855908 0.000000
#
# Coordination Sequence:
#
# PCOD9518247 Si02
#       8
#     8  16  16  16  16  16  16  16
#     4  11  22  34  51  73  97 131 176 224 270 307
#     4   9  17  30  45  70 105 139 174 202 239 294
#     4  10  19  33  51  72 102 136 172 216 255 295
#     4   9  18  31  48  71  99 132 169 207 249 300
#     4  10  18  31  52  72  98 131 165 204 248 303
#     4  10  21  36  53  74  99 128 166 211 260 305
#     4   9  17  28  44  70 101 131 167 208 250 297
#     4   9  18  31  49  76 108 136 160 194 241 299
#
# _framework density 16.835687
#
# number of rings (size 3 to 8) (size 9 to 14) (size 15 to 20)
#    0.000    2.467    0.667    2.000    0.000    3.467 
#    0.000    0.333    0.000   15.600    0.000    1.867 
#    0.000    0.000    0.000    0.000    0.000    0.000 
#
# Total GULP energy -334338.665628 kJ/mol
# GULP energy per Si atom -5572.311094 kJ/mol
# Density = 1.679737 g / cm^3
# Si number density = 16.835687 Si / 1000 Ang^3
#
#
#
# Elastic Constant Matrix: (Units=GPa)
#
#
# Indices 1 2 3 4 5 6 
#
# 1 16.4656 6.9114 11.3259 0.0000 0.0000 0.0000
# 2 6.9114 74.0721 24.7946 0.0000 0.0000 0.0000
# 3 11.3259 24.7946 73.0138 0.0000 0.0000 0.0000
# 4 0.0000 0.0000 0.0000 16.8849 0.0000 0.0000
# 5 0.0000 0.0000 0.0000 0.0000 20.6946 0.0000
# 6 0.0000 0.0000 0.0000 0.0000 0.0000 22.0622
#
#
#
# Elastic Compliance Matrix: (Units=1/GPa)
#
#
# Indices 1 2 3 4 5 6 
#
# 1 0.068655 -0.003205 -0.009561 0.000000 0.000000 0.000000
# 2 -0.003205 0.015381 -0.004726 0.000000 0.000000 0.000000
# 3 -0.009561 -0.004726 0.016784 0.000000 0.000000 0.000000
# 4 0.000000 0.000000 0.000000 0.059225 0.000000 0.000000
# 5 0.000000 0.000000 0.000000 0.000000 0.048322 0.000000
# 6 0.000000 0.000000 0.000000 0.000000 0.000000 0.045326
#
#
# Mechanical properties :
#
#
# Convention : Reuss Voigt Hill
#
# Bulk Modulus (GPa) = 15.18948 27.73500 21.46224
# Shear Modulus (GPa) = 16.09664 19.96298 18.02981
#
# Velocity S-wave (km/s) = 3.09544 3.44721 3.27605
# Velocity P-wave (km/s) = 4.67092 5.68806 5.20440
#
# Compressibility (1/GPa) = 0.06583504
#
# Stress axis : x y z
#
# Youngs Moduli (GPa) = 14.56558 65.01334 59.58018
#
# Poissons Ratio (x) = 0.20840 0.56966
# Poissons Ratio (y) = 0.04669 0.28158
# Poissons Ratio (z) = 0.13926 0.30726
#
# Static dielectric constant tensor:
#      x y z
#    x 1.559180 0.000000 0.000000 
#    y 0.000000 1.568720 0.000000 
#    z 0.000000 0.000000 1.563590 
# 
# From -- ./inp_files/26533.got.cif
#   From: 2010.05.17/outbox.cif.g08.bks.cpg/sg71_14_cif.got.tgz:26533.got - 2010.06.03 16:22:01.
