data_PCOD9518235
_publ_section_title
;
Structure prediction by ZEFSAII (Michael W. Deem and Ramdas Pophale) SiO2 
 PCOD9518235
Probable space group: I M M M
;
_chemical_formula_sum "Si O2"
_cell_formula_units_Z 80
_cell_length_a 8.678571
_cell_length_b 25.839814
_cell_length_c 21.071796
_cell_angle_alpha 90.000000
_cell_angle_beta 90.000000
_cell_angle_gamma 90.000000
_cell_volume 4725.406313
_symmetry_space_group_name_H-M "I M M M"
_symmetry_group_IT_number 71
_symmetry_cell_setting 'orthorhombic'
loop_
_space_group_symop_operation_xyz
x,y,z
-x,-y,z
x,-y,-z
-x,y,-z
-x,-y,-z
x,y,-z
-x,y,z
x,-y,z
1/2+x,1/2+y,1/2+z
1/2-x,1/2-y,1/2+z
1/2+x,1/2-y,1/2-z
1/2-x,1/2+y,1/2-z
1/2-x,1/2-y,1/2-z
1/2+x,1/2+y,1/2-z
1/2-x,1/2+y,1/2+z
1/2+x,1/2-y,1/2+z
loop_
_atom_site_type_symbol
_atom_site_label
_atom_site_fract_x
_atom_site_fract_y
_atom_site_fract_z
Si Si1 0.314863 0.782120 0.309534
Si Si2 0.313749 0.387771 0.235823
Si Si3 0.678388 0.500000 0.613634
Si Si4 0.315293 0.713014 0.570692
Si Si5 0.683056 0.891275 0.878426
Si Si6 0.679425 0.500000 0.768156
O O1 0.500000 0.783318 0.305774
O O2 0.250000 0.750000 0.250000
O O3 0.249546 0.839816 0.303578
O O4 0.269129 0.752426 0.373790
O O5 0.500000 0.387282 0.236423
O O6 0.257146 0.382895 0.308581
O O7 0.256656 0.444245 0.212171
O O8 0.500000 0.500000 0.594703
O O9 0.757623 0.446229 0.594753
O O10 0.684526 0.500000 0.691071
O O11 0.282095 0.732654 0.500000
O O12 0.500000 0.705237 0.576236
O O13 0.235406 0.657842 0.581123
O O14 0.500000 0.893103 0.872088
O O15 0.500000 0.500000 0.786767
#
# Coordination Sequence:
#
# PCOD9518235 Si02
#       6
#    16  16   8  16  16   8
#     4  11  21  33  53  79 105 134 172 218 265 312
#     4  10  18  31  51  75 105 139 173 210 256 312
#     4   9  17  31  50  70  99 138 176 213 258 309
#     4  10  22  39  55  71  99 141 180 213 260 321
#     4  11  20  31  50  76 104 133 173 221 264 305
#     4   7  14  27  45  70  99 132 165 201 248 298
#
# _framework density 16.929760999999999
#
# number of rings (size 3 to 8) (size 9 to 14) (size 15 to 20)
#    0.000    2.000    2.000    4.500    0.000    1.200 
#    0.000    2.000    0.000    3.000    0.000    0.700 
#    0.000    5.600    0.000    0.000    0.000    0.000 
#
# Total GULP energy -223146.984934 kJ/mol
# GULP energy per Si atom -5578.674623 kJ/mol
# Density = 1.689123 g / cm^3
# Si number density = 16.929761 Si / 1000 Ang^3
#
#
#
# Elastic Constant Matrix: (Units=GPa)
#
#
# Indices 1 2 3 4 5 6 
#
# 1 60.5677 38.5942 33.1269 0.0000 0.0000 0.0000
# 2 38.5942 148.9792 56.2353 0.0000 0.0000 0.0000
# 3 33.1269 56.2353 79.4341 0.0000 0.0000 0.0000
# 4 0.0000 0.0000 0.0000 14.3372 0.0000 0.0000
# 5 0.0000 0.0000 0.0000 0.0000 13.9495 0.0000
# 6 0.0000 0.0000 0.0000 0.0000 0.0000 32.3132
#
#
#
# Elastic Compliance Matrix: (Units=1/GPa)
#
#
# Indices 1 2 3 4 5 6 
#
# 1 0.022395 -0.003106 -0.007141 0.000000 0.000000 0.000000
# 2 -0.003106 0.009591 -0.005495 0.000000 0.000000 0.000000
# 3 -0.007141 -0.005495 0.019457 0.000000 0.000000 0.000000
# 4 0.000000 0.000000 0.000000 0.069749 0.000000 0.000000
# 5 0.000000 0.000000 0.000000 0.000000 0.071687 0.000000
# 6 0.000000 0.000000 0.000000 0.000000 0.000000 0.030947
#
#
# Mechanical properties :
#
#
# Convention : Reuss Voigt Hill
#
# Bulk Modulus (GPa) = 50.09941 60.54379 55.32160
# Shear Modulus (GPa) = 19.08673 22.85496 20.97084
#
# Velocity S-wave (km/s) = 3.36133 3.67820 3.52333
# Velocity P-wave (km/s) = 6.68741 7.34018 7.02139
#
# Compressibility (1/GPa) = 0.01996032
#
# Stress axis : x y z
#
# Youngs Moduli (GPa) = 44.65233 104.26331 51.39597
#
# Poissons Ratio (x) = 0.32388 0.36699
# Poissons Ratio (y) = 0.13870 0.28240
# Poissons Ratio (z) = 0.31884 0.57288
#
# Static dielectric constant tensor:
#      x y z
#    x 1.572130 0.000000 0.000000 
#    y 0.000000 1.600790 0.000000 
#    z 0.000000 0.000000 1.561000 
# 
# From -- ./inp_files/10262.got.cif
#   From: 2010.05.17/outbox.cif.g08.bks.cpg/sg71_6_cif.got.tgz:10262.got - 2010.06.03 16:22:01.
