data_PCOD9518550
_publ_section_title
;
Structure prediction by ZEFSAII (Michael W. Deem and Ramdas Pophale) SiO2 
 PCOD9518550
Probable space group: I M M M
;
_chemical_formula_sum "Si O2"
_cell_formula_units_Z 56
_cell_length_a 10.082070
_cell_length_b 11.222396
_cell_length_c 21.723485
_cell_angle_alpha 90.000000
_cell_angle_beta 90.000000
_cell_angle_gamma 90.000000
_cell_volume 2457.903320
_symmetry_space_group_name_H-M "I M M M"
_symmetry_group_IT_number 71
_symmetry_cell_setting 'orthorhombic'
loop_
_space_group_symop_operation_xyz
x,y,z
-x,-y,z
x,-y,-z
-x,y,-z
-x,-y,-z
x,y,-z
-x,y,z
x,-y,z
1/2+x,1/2+y,1/2+z
1/2-x,1/2-y,1/2+z
1/2+x,1/2-y,1/2-z
1/2-x,1/2+y,1/2-z
1/2-x,1/2-y,1/2-z
1/2+x,1/2+y,1/2-z
1/2-x,1/2+y,1/2+z
1/2+x,1/2-y,1/2+z
loop_
_atom_site_type_symbol
_atom_site_label
_atom_site_fract_x
_atom_site_fract_y
_atom_site_fract_z
Si Si1 0.290010 0.241710 0.633374
Si Si2 0.500000 0.750073 0.105037
Si Si3 0.265820 0.000000 0.313450
Si Si4 0.659179 0.138026 0.500000
Si Si5 0.500000 0.500000 0.102723
Si Si6 0.000000 0.500000 0.399049
Si Si7 0.782736 0.000000 0.830541
O O1 0.132016 0.249921 0.646287
O O2 0.338771 0.123874 0.669125
O O3 0.301182 0.208198 0.561456
O O4 0.344199 0.373065 0.648194
O O5 0.500000 0.625896 0.069154
O O6 0.500000 0.872838 0.068113
O O7 0.132518 0.000000 0.355478
O O8 0.227164 0.000000 0.242672
O O9 0.500000 0.131053 0.500000
O O10 0.709008 0.000000 0.500000
O O11 0.134418 0.500000 0.359349
#
# Coordination Sequence:
#
# PCOD9518550 Si02
#       7
#    16   8   8   8   4   4   8
#     4  10  20  38  59  86 115 157 191 244 301 338
#     4   8  16  31  57  80 113 134 184 228 290 342
#     4  10  18  35  56  83 117 153 195 243 292 352
#     4  11  24  44  62  81 120 159 204 250 275 354
#     4   8  16  28  48  77 112 143 170 250 282 312
#     4   8  16  32  48  79 116 149 164 234 284 338
#     4  10  20  35  58  87 119 147 197 243 294 356
#
# _framework density 22.783646999999998
#
# number of rings (size 3 to 8) (size 9 to 14) (size 15 to 20)
#    0.000    2.429    1.429    0.857    0.000    1.143 
#    5.143    1.429    0.000    5.143    0.000    0.000 
#    0.000    0.000    0.000    0.000    0.000    0.000 
#
# Total GULP energy -155992.846701 kJ/mol
# GULP energy per Si atom -5571.173096 kJ/mol
# Density = 2.273179 g / cm^3
# Si number density = 22.783647 Si / 1000 Ang^3
#
#
#
# Elastic Constant Matrix: (Units=GPa)
#
#
# Indices 1 2 3 4 5 6 
#
# 1 87.6428 0.1723 -10.3434 0.0000 0.0000 0.0000
# 2 0.1723 339.3140 84.5499 0.0000 0.0000 0.0000
# 3 -10.3434 84.5499 142.7500 0.0000 0.0000 0.0000
# 4 0.0000 0.0000 0.0000 95.3668 0.0000 0.0000
# 5 0.0000 0.0000 0.0000 0.0000 -8.0109 0.0000
# 6 0.0000 0.0000 0.0000 0.0000 0.0000 -11.9903
#
#
#
# Elastic Compliance Matrix: (Units=1/GPa)
#
#
# Indices 1 2 3 4 5 6 
#
# 1 0.011527 -0.000251 0.000984 0.000000 0.000000 0.000000
# 2 -0.000251 0.003463 -0.002069 0.000000 0.000000 0.000000
# 3 0.000984 -0.002069 0.008302 0.000000 0.000000 0.000000
# 4 0.000000 0.000000 0.000000 0.010486 0.000000 0.000000
# 5 0.000000 0.000000 0.000000 0.000000 -0.124830 0.000000
# 6 0.000000 0.000000 0.000000 0.000000 0.000000 -0.083401
#
#
# Mechanical properties :
#
#
# Convention : Reuss Voigt Hill
#
# Bulk Modulus (GPa) = 48.49936 79.82938 64.16437
# Shear Modulus (GPa) = -30.32001 48.09499 8.88749
#
# Velocity S-wave (km/s) = -3.65194 4.59948 1.97719
# Velocity P-wave (km/s) = 1.88438 7.95746 5.78239
#
# Compressibility (1/GPa) = 0.02061883
#
# Stress axis : x y z
#
# Youngs Moduli (GPa) = 86.75612 288.77906 120.45105
#
# Poissons Ratio (x) = 0.07249 -0.11851
# Poissons Ratio (y) = 0.02178 0.24924
# Poissons Ratio (z) = -0.08536 0.59755
#
# Static dielectric constant tensor:
#      x y z
#    x 1.873570 0.000000 0.000000 
#    y 0.000000 1.977400 0.000000 
#    z 0.000000 0.000000 1.748270 
# 
# From -- ./inp_files/37372.got.cif
#   From: 2010.05.17/outbox.cif.g08.bks.cpg/sg71_19_cif.got.tgz:37372.got - 2010.06.03 16:22:01.
