data_PCOD9518928
_publ_section_title
;
Structure prediction by ZEFSAII (Michael W. Deem and Ramdas Pophale) SiO2 
 PCOD9518928
Probable space group: I M M M
;
_chemical_formula_sum "Si O2"
_cell_formula_units_Z 88
_cell_length_a 24.522647
_cell_length_b 21.872076
_cell_length_c 8.242613
_cell_angle_alpha 90.000000
_cell_angle_beta 90.000000
_cell_angle_gamma 90.000000
_cell_volume 4421.017791
_symmetry_space_group_name_H-M "I M M M"
_symmetry_group_IT_number 71
_symmetry_cell_setting 'orthorhombic'
loop_
_space_group_symop_operation_xyz
x,y,z
-x,-y,z
x,-y,-z
-x,y,-z
-x,-y,-z
x,y,-z
-x,y,z
x,-y,z
1/2+x,1/2+y,1/2+z
1/2-x,1/2-y,1/2+z
1/2+x,1/2-y,1/2-z
1/2-x,1/2+y,1/2-z
1/2-x,1/2-y,1/2-z
1/2+x,1/2+y,1/2-z
1/2-x,1/2+y,1/2+z
1/2+x,1/2-y,1/2+z
loop_
_atom_site_type_symbol
_atom_site_label
_atom_site_fract_x
_atom_site_fract_y
_atom_site_fract_z
Si Si1 0.710540 0.197339 0.188187
Si Si2 0.066334 0.928404 0.500000
Si Si3 0.436051 0.637126 0.322043
Si Si4 0.083809 0.269741 0.690504
Si Si5 0.820539 0.566375 0.695068
Si Si6 0.059207 0.596652 0.192985
O O1 0.750000 0.250000 0.250000
O O2 0.648928 0.222118 0.200117
O O3 0.707929 0.128360 0.261044
O O4 0.724265 0.189376 0.000000
O O5 0.087479 0.897119 0.664833
O O6 0.000000 0.920422 0.500000
O O7 0.077612 0.000000 0.500000
O O8 0.411930 0.623797 0.500000
O O9 0.500000 0.620200 0.329612
O O10 0.432787 0.708987 0.284067
O O11 0.068642 0.264899 0.500000
O O12 0.060145 0.331203 0.766770
O O13 0.814429 0.567187 0.500000
O O14 0.801331 0.500000 0.756068
O O15 0.885416 0.571478 0.729446
O O16 0.000000 0.572783 0.248898
O O17 0.062768 0.587173 0.000000
#
# Coordination Sequence:
#
# PCOD9518928 Si02
#       6
#    16   8  16  16  16  16
#     4   9  19  34  54  79 102 129 170 221 274 327
#     4   9  18  32  48  68  98 136 173 213 261 311
#     4  10  19  30  48  75 103 135 176 217 263 320
#     4  10  19  32  50  73 102 136 174 217 271 321
#     4   9  19  36  55  75 102 139 181 220 263 321
#     4  10  20  31  45  72 109 144 178 217 259 307
#
# _framework density 19.904919
#
# number of rings (size 3 to 8) (size 9 to 14) (size 15 to 20)
#    0.000    2.455    0.909    2.727    0.000    8.364 
#    0.000    3.636    0.000    1.091    0.000    2.545 
#    0.000    0.000    0.000    0.000    0.000    0.000 
#
# Total GULP energy -245270.455955 kJ/mol
# GULP energy per Si atom -5574.328544 kJ/mol
# Density = 1.985961 g / cm^3
# Si number density = 19.904919 Si / 1000 Ang^3
#
#
#
# Elastic Constant Matrix: (Units=GPa)
#
#
# Indices 1 2 3 4 5 6 
#
# 1 44.3954 41.7052 6.2602 0.0000 0.0000 0.0000
# 2 41.7052 124.8502 38.6519 0.0000 0.0000 0.0000
# 3 6.2602 38.6519 73.4849 0.0000 0.0000 0.0000
# 4 0.0000 0.0000 0.0000 10.8056 0.0000 0.0000
# 5 0.0000 0.0000 0.0000 0.0000 20.5886 0.0000
# 6 0.0000 0.0000 0.0000 0.0000 0.0000 -149.4498
#
#
#
# Elastic Compliance Matrix: (Units=1/GPa)
#
#
# Indices 1 2 3 4 5 6 
#
# 1 0.033619 -0.012355 0.003635 0.000000 0.000000 0.000000
# 2 -0.012355 0.014108 -0.006368 0.000000 0.000000 0.000000
# 3 0.003635 -0.006368 0.016648 0.000000 0.000000 0.000000
# 4 0.000000 0.000000 0.000000 0.092544 0.000000 0.000000
# 5 0.000000 0.000000 0.000000 0.000000 0.048570 0.000000
# 6 0.000000 0.000000 0.000000 0.000000 0.000000 -0.006691
#
#
# Mechanical properties :
#
#
# Convention : Reuss Voigt Hill
#
# Bulk Modulus (GPa) = 29.24166 46.21835 37.73000
# Shear Modulus (GPa) = 20.80073 -13.20355 3.79859
#
# Velocity S-wave (km/s) = 3.23616 -2.57832 1.38294
# Velocity P-wave (km/s) = 5.35595 3.79557 4.64180
#
# Compressibility (1/GPa) = 0.03419779
#
# Stress axis : x y z
#
# Youngs Moduli (GPa) = 29.74503 70.88006 60.06668
#
# Poissons Ratio (x) = 0.87575 -0.21833
# Poissons Ratio (y) = 0.36751 0.38252
# Poissons Ratio (z) = -0.10812 0.45138
#
# Static dielectric constant tensor:
#      x y z
#    x 1.696050 0.000000 0.000000 
#    y 0.000000 1.729510 0.000000 
#    z 0.000000 0.000000 1.728540 
# 
# From -- ./inp_files/12510.got.cif
#   From: 2010.05.17/outbox.cif.g08.bks.cpg/sg71_7_cif.got.tgz:12510.got - 2010.06.03 16:22:01.
