data_PCOD9518067
_publ_section_title
;
Structure prediction by ZEFSAII (Michael W. Deem and Ramdas Pophale) SiO2 
 PCOD9518067
Probable space group: I M M M
;
_chemical_formula_sum "Si O2"
_cell_formula_units_Z 48
_cell_length_a 15.551942
_cell_length_b 8.617356
_cell_length_c 18.583757
_cell_angle_alpha 90.000000
_cell_angle_beta 90.000000
_cell_angle_gamma 90.000000
_cell_volume 2490.532313
_symmetry_space_group_name_H-M "I M M M"
_symmetry_group_IT_number 71
_symmetry_cell_setting 'orthorhombic'
loop_
_space_group_symop_operation_xyz
x,y,z
-x,-y,z
x,-y,-z
-x,y,-z
-x,-y,-z
x,y,-z
-x,y,z
x,-y,z
1/2+x,1/2+y,1/2+z
1/2-x,1/2-y,1/2+z
1/2+x,1/2-y,1/2-z
1/2-x,1/2+y,1/2-z
1/2-x,1/2-y,1/2-z
1/2+x,1/2+y,1/2-z
1/2-x,1/2+y,1/2+z
1/2+x,1/2-y,1/2+z
loop_
_atom_site_type_symbol
_atom_site_label
_atom_site_fract_x
_atom_site_fract_y
_atom_site_fract_z
Si Si1 0.724815 0.685139 0.417611
Si Si2 0.906094 0.185612 0.363303
Si Si3 0.158671 0.314941 0.222059
O O1 0.704701 0.723647 0.500000
O O2 0.721746 0.500000 0.407778
O O3 0.822697 0.739743 0.400618
O O4 0.659908 0.762645 0.360649
O O5 0.904438 0.239484 0.279947
O O6 0.000000 0.227270 0.394234
O O7 0.896327 0.000000 0.366466
O O8 0.155215 0.500000 0.227327
O O9 0.250000 0.250000 0.250000
#
# Coordination Sequence:
#
# PCOD9518067 Si02
#       3
#    16  16  16
#     4  10  20  33  50  72  99 130 162 198 240 286
#     4  10  20  33  50  72  99 130 162 198 240 286
#     4  10  18  30  50  71  94 125 162 202 238 280
#
# _framework density 19.272988000000002
#
# number of rings (size 3 to 8) (size 9 to 14) (size 15 to 20)
#    0.000    2.000    0.000    9.000    0.000    6.000 
#    0.000    3.333    0.000    1.000    0.000    7.000 
#    0.000    0.000    0.000    0.000    0.000    0.000 
#
# Total GULP energy -133830.934243 kJ/mol
# GULP energy per Si atom -5576.288927 kJ/mol
# Density = 1.922912 g / cm^3
# Si number density = 19.272988 Si / 1000 Ang^3
#
#
#
# Elastic Constant Matrix: (Units=GPa)
#
#
# Indices 1 2 3 4 5 6 
#
# 1 12.7146 -12.7490 -23.0595 0.0000 0.0000 0.0000
# 2 -12.7490 47.7145 5.7120 0.0000 0.0000 0.0000
# 3 -23.0595 5.7120 75.6551 0.0000 0.0000 0.0000
# 4 0.0000 0.0000 0.0000 29.8925 0.0000 0.0000
# 5 0.0000 0.0000 0.0000 0.0000 13.3755 0.0000
# 6 0.0000 0.0000 0.0000 0.0000 0.0000 14.7997
#
#
#
# Elastic Compliance Matrix: (Units=1/GPa)
#
#
# Indices 1 2 3 4 5 6 
#
# 1 0.320172 0.074539 0.091960 0.000000 0.000000 0.000000
# 2 0.074539 0.038503 0.019812 0.000000 0.000000 0.000000
# 3 0.091960 0.019812 0.039751 0.000000 0.000000 0.000000
# 4 0.000000 0.000000 0.000000 0.033453 0.000000 0.000000
# 5 0.000000 0.000000 0.000000 0.000000 0.074764 0.000000
# 6 0.000000 0.000000 0.000000 0.000000 0.000000 0.067569
#
#
# Mechanical properties :
#
#
# Convention : Reuss Voigt Hill
#
# Bulk Modulus (GPa) = 1.29693 8.43235 4.86464
# Shear Modulus (GPa) = 10.90263 22.69225 16.79744
#
# Velocity S-wave (km/s) = 2.38101 3.43507 2.95541
# Velocity P-wave (km/s) = 2.86938 4.48527 3.76504
#
# Compressibility (1/GPa) = 0.77104987
#
# Stress axis : x y z
#
# Youngs Moduli (GPa) = 3.12332 25.97227 25.15640
#
# Poissons Ratio (x) = -1.93595 -2.31339
# Poissons Ratio (y) = -0.23281 -0.49841
# Poissons Ratio (z) = -0.28722 -0.51457
#
# Static dielectric constant tensor:
#      x y z
#    x 1.646660 0.000000 0.000000 
#    y 0.000000 1.641060 0.000000 
#    z 0.000000 0.000000 1.736440 
# 
# From -- ./inp_files/4482.got.cif
#   From: 2010.05.17/outbox.cif.g08.bks.cpg/sg71_3_cif.got.tgz:4482.got - 2010.06.03 16:22:01.
