data_PCOD9518609
_publ_section_title
;
Structure prediction by ZEFSAII (Michael W. Deem and Ramdas Pophale) SiO2 
 PCOD9518609
Probable space group: I M M M
;
_chemical_formula_sum "Si O2"
_cell_formula_units_Z 88
_cell_length_a 7.515520
_cell_length_b 27.741013
_cell_length_c 21.235321
_cell_angle_alpha 90.000000
_cell_angle_beta 90.000000
_cell_angle_gamma 90.000000
_cell_volume 4427.312536
_symmetry_space_group_name_H-M "I M M M"
_symmetry_group_IT_number 71
_symmetry_cell_setting 'orthorhombic'
loop_
_space_group_symop_operation_xyz
x,y,z
-x,-y,z
x,-y,-z
-x,y,-z
-x,-y,-z
x,y,-z
-x,y,z
x,-y,z
1/2+x,1/2+y,1/2+z
1/2-x,1/2-y,1/2+z
1/2+x,1/2-y,1/2-z
1/2-x,1/2+y,1/2-z
1/2-x,1/2-y,1/2-z
1/2+x,1/2+y,1/2-z
1/2-x,1/2+y,1/2+z
1/2+x,1/2-y,1/2+z
loop_
_atom_site_type_symbol
_atom_site_label
_atom_site_fract_x
_atom_site_fract_y
_atom_site_fract_z
Si Si1 0.284027 0.213725 0.362481
Si Si2 0.211903 0.054838 0.637173
Si Si3 0.708608 0.368724 0.235146
Si Si4 0.294538 0.209171 0.500000
Si Si5 0.210824 0.554860 0.000000
Si Si6 0.781303 0.825277 0.862573
Si Si7 0.794124 0.173415 0.000000
O O1 0.500000 0.212819 0.364429
O O2 0.222960 0.179206 0.307160
O O3 0.218335 0.196607 0.431646
O O4 0.230469 0.269289 0.352572
O O5 0.285650 0.088537 0.692233
O O6 0.239083 0.076462 0.567250
O O7 0.000000 0.051876 0.645440
O O8 0.283283 0.000000 0.637827
O O9 0.500000 0.379403 0.244179
O O10 0.781571 0.357157 0.304181
O O11 0.500000 0.192180 0.500000
O O12 0.295938 0.267912 0.500000
O O13 0.286878 0.500000 0.000000
O O14 0.000000 0.551943 0.000000
O O15 0.718581 0.840760 0.932140
O O16 0.000000 0.825608 0.863573
O O17 0.000000 0.157667 0.000000
#
# Coordination Sequence:
#
# PCOD9518609 Si02
#       7
#    16  16  16   8   8  16   8
#     4   9  16  27  42  59  82 110 136 164 202 244
#     4   9  18  32  46  59  81 114 144 169 205 252
#     4  10  19  28  40  61  84 105 135 172 205 240
#     4   7  12  23  38  55  75 104 138 162 183 225
#     4   9  17  30  49  68  82 101 137 184 219 240
#     4   8  14  25  41  61  83 106 134 167 200 240
#     4   7  10  20  39  58  76 101 132 162 191 226
#
# _framework density 19.876618000000001
#
# number of rings (size 3 to 8) (size 9 to 14) (size 15 to 20)
#    0.000    3.364    0.000    3.000    0.000    2.545 
#    0.000    2.273    0.000    0.000    0.000    2.545 
#    0.000    5.091    0.000    0.000    0.000   10.455 
#
# Total GULP energy -245210.367426 kJ/mol
# GULP energy per Si atom -5572.962896 kJ/mol
# Density = 1.983138 g / cm^3
# Si number density = 19.876618 Si / 1000 Ang^3
#
#
#
# Elastic Constant Matrix: (Units=GPa)
#
#
# Indices 1 2 3 4 5 6 
#
# 1 53.0736 3.3090 1.7382 0.0000 0.0000 0.0000
# 2 3.3090 66.1131 68.9364 0.0000 0.0000 0.0000
# 3 1.7382 68.9364 212.2385 0.0000 0.0000 0.0000
# 4 0.0000 0.0000 0.0000 22.7810 0.0000 0.0000
# 5 0.0000 0.0000 0.0000 0.0000 -14.7800 0.0000
# 6 0.0000 0.0000 0.0000 0.0000 0.0000 5.5592
#
#
#
# Elastic Compliance Matrix: (Units=1/GPa)
#
#
# Indices 1 2 3 4 5 6 
#
# 1 0.018908 -0.001187 0.000231 0.000000 0.000000 0.000000
# 2 -0.001187 0.022946 -0.007443 0.000000 0.000000 0.000000
# 3 0.000231 -0.007443 0.007127 0.000000 0.000000 0.000000
# 4 0.000000 0.000000 0.000000 0.043896 0.000000 0.000000
# 5 0.000000 0.000000 0.000000 0.000000 -0.067659 0.000000
# 6 0.000000 0.000000 0.000000 0.000000 0.000000 0.179883
#
#
# Mechanical properties :
#
#
# Convention : Reuss Voigt Hill
#
# Bulk Modulus (GPa) = 31.07256 53.26582 42.16919
# Shear Modulus (GPa) = 21.49342 19.87478 20.68410
#
# Velocity S-wave (km/s) = 3.29194 3.16556 3.22937
# Velocity P-wave (km/s) = 5.48779 6.34172 5.93015
#
# Compressibility (1/GPa) = 0.03218273
#
# Stress axis : x y z
#
# Youngs Moduli (GPa) = 52.88710 43.58011 140.30273
#
# Poissons Ratio (x) = 0.05172 -0.03236
# Poissons Ratio (y) = 0.06277 1.04432
# Poissons Ratio (z) = -0.01220 0.32438
#
# Static dielectric constant tensor:
#      x y z
#    x 1.763960 0.000000 0.000000 
#    y 0.000000 1.699420 0.000000 
#    z 0.000000 0.000000 1.751070 
# 
# From -- ./inp_files/51093.got.cif
#   From: 2010.05.17/outbox.cif.g08.bks.cpg/sg71_26_cif.got.tgz:51093.got - 2010.06.03 16:22:01.
