data_PCOD9518512
_publ_section_title
;
Structure prediction by ZEFSAII (Michael W. Deem and Ramdas Pophale) SiO2 
 PCOD9518512
Probable space group: I M M M
;
_chemical_formula_sum "Si O2"
_cell_formula_units_Z 116
_cell_length_a 7.662682
_cell_length_b 29.193223
_cell_length_c 28.156327
_cell_angle_alpha 90.000000
_cell_angle_beta 90.000000
_cell_angle_gamma 90.000000
_cell_volume 6298.524861
_symmetry_space_group_name_H-M "I M M M"
_symmetry_group_IT_number 71
_symmetry_cell_setting 'orthorhombic'
loop_
_space_group_symop_operation_xyz
x,y,z
-x,-y,z
x,-y,-z
-x,y,-z
-x,-y,-z
x,y,-z
-x,y,z
x,-y,z
1/2+x,1/2+y,1/2+z
1/2-x,1/2-y,1/2+z
1/2+x,1/2-y,1/2-z
1/2-x,1/2+y,1/2-z
1/2-x,1/2-y,1/2-z
1/2+x,1/2+y,1/2-z
1/2-x,1/2+y,1/2+z
1/2+x,1/2-y,1/2+z
loop_
_atom_site_type_symbol
_atom_site_label
_atom_site_fract_x
_atom_site_fract_y
_atom_site_fract_z
Si Si1 0.291754 0.197201 0.759830
Si Si2 0.213578 0.352438 0.356338
Si Si3 0.712175 0.793740 0.054076
Si Si4 0.297683 0.357042 0.833490
Si Si5 0.500000 0.661900 0.000000
Si Si6 0.806044 0.688436 0.071484
Si Si7 0.291926 0.051022 0.819462
Si Si8 0.711239 0.448924 0.208537
O O1 0.500000 0.191183 0.758174
O O2 0.250000 0.250000 0.750000
O O3 0.232733 0.178612 0.811205
O O4 0.213417 0.167744 0.717218
O O5 0.268574 0.329469 0.405688
O O6 0.274429 0.404503 0.347389
O O7 0.000000 0.352957 0.356470
O O8 0.500000 0.791416 0.054698
O O9 0.777443 0.743008 0.066652
O O10 0.764536 0.804991 0.000000
O O11 0.500000 0.360847 0.847011
O O12 0.208283 0.327628 0.874133
O O13 0.224739 0.407977 0.824610
O O14 0.346260 0.665484 0.958971
O O15 0.000000 0.677249 0.054535
O O16 0.500000 0.049365 0.827193
O O17 0.263136 0.059071 0.763301
O O18 0.221285 0.000000 0.830644
O O19 0.500000 0.448154 0.207340
O O20 0.770160 0.500000 0.195303
#
# Coordination Sequence:
#
# PCOD9518512 Si02
#       8
#    16  16  16  16   4  16  16  16
#     4  11  21  33  47  70 106 146 186 224 277 351
#     4   9  18  30  48  72 102 143 185 231 288 341
#     4  10  18  34  54  75 106 144 193 245 289 334
#     4  11  21  35  53  79 116 148 182 229 283 338
#     4  12  22  44  60  86 121 146 199 236 290 324
#     4  12  23  38  62  87 114 152 192 239 284 333
#     4   9  16  29  49  72 100 137 183 232 281 338
#     4   9  18  32  52  77 108 145 181 222 277 339
#
# _framework density 18.417010000000001
#
# number of rings (size 3 to 8) (size 9 to 14) (size 15 to 20)
#    0.000    1.793    3.448    1.862    0.000    1.655 
#    0.000    1.379    0.000    0.414    0.000    3.862 
#    0.000    1.103    0.000    4.690    0.000    6.621 
#
# Total GULP energy -323218.130835 kJ/mol
# GULP energy per Si atom -5572.726394 kJ/mol
# Density = 1.837509 g / cm^3
# Si number density = 18.417010 Si / 1000 Ang^3
#
#
#
# Elastic Constant Matrix: (Units=GPa)
#
#
# Indices 1 2 3 4 5 6 
#
# 1 71.6918 9.3440 18.8635 0.0000 0.0000 0.0000
# 2 9.3440 107.8810 73.8544 0.0000 0.0000 0.0000
# 3 18.8635 73.8544 146.3145 0.0000 0.0000 0.0000
# 4 0.0000 0.0000 0.0000 -4.6172 0.0000 0.0000
# 5 0.0000 0.0000 0.0000 0.0000 17.9629 0.0000
# 6 0.0000 0.0000 0.0000 0.0000 0.0000 6.7666
#
#
#
# Elastic Compliance Matrix: (Units=1/GPa)
#
#
# Indices 1 2 3 4 5 6 
#
# 1 0.014438 0.000036 -0.001880 0.000000 0.000000 0.000000
# 2 0.000036 0.014164 -0.007154 0.000000 0.000000 0.000000
# 3 -0.001880 -0.007154 0.010688 0.000000 0.000000 0.000000
# 4 0.000000 0.000000 0.000000 -0.216580 0.000000 0.000000
# 5 0.000000 0.000000 0.000000 0.000000 0.055670 0.000000
# 6 0.000000 0.000000 0.000000 0.000000 0.000000 0.147785
#
#
# Mechanical properties :
#
#
# Convention : Reuss Voigt Hill
#
# Bulk Modulus (GPa) = 46.95876 58.89013 52.92445
# Shear Modulus (GPa) = 97.54201 18.94414 58.24308
#
# Velocity S-wave (km/s) = 7.28546 3.21069 5.62968
# Velocity P-wave (km/s) = 9.81445 6.76684 8.42952
#
# Compressibility (1/GPa) = 0.02129528
#
# Stress axis : x y z
#
# Youngs Moduli (GPa) = 69.25942 70.60148 93.56180
#
# Poissons Ratio (x) = -0.00256 0.17588
# Poissons Ratio (y) = -0.00252 0.66936
# Poissons Ratio (z) = 0.13019 0.50510
#
# Static dielectric constant tensor:
#      x y z
#    x 1.692010 0.000000 0.000000 
#    y 0.000000 1.653730 0.000000 
#    z 0.000000 0.000000 1.610570 
# 
# From -- ./inp_files/63774.got.cif
#   From: 2010.05.17/outbox.cif.g08.bks.cpg/sg71_32_cif.got.tgz:63774.got - 2010.06.03 16:22:01.
