data_PCOD9518994
_publ_section_title
;
Structure prediction by ZEFSAII (Michael W. Deem and Ramdas Pophale) SiO2 
 PCOD9518994
Probable space group: I M M M
;
_chemical_formula_sum "Si O2"
_cell_formula_units_Z 72
_cell_length_a 9.189941
_cell_length_b 23.536790
_cell_length_c 23.056559
_cell_angle_alpha 90.000000
_cell_angle_beta 90.000000
_cell_angle_gamma 90.000000
_cell_volume 4987.173171
_symmetry_space_group_name_H-M "I M M M"
_symmetry_group_IT_number 71
_symmetry_cell_setting 'orthorhombic'
loop_
_space_group_symop_operation_xyz
x,y,z
-x,-y,z
x,-y,-z
-x,y,-z
-x,-y,-z
x,y,-z
-x,y,z
x,-y,z
1/2+x,1/2+y,1/2+z
1/2-x,1/2-y,1/2+z
1/2+x,1/2-y,1/2-z
1/2-x,1/2+y,1/2-z
1/2-x,1/2-y,1/2-z
1/2+x,1/2+y,1/2-z
1/2-x,1/2+y,1/2+z
1/2+x,1/2-y,1/2+z
loop_
_atom_site_type_symbol
_atom_site_label
_atom_site_fract_x
_atom_site_fract_y
_atom_site_fract_z
Si Si1 0.172475 0.067888 0.500000
Si Si2 0.326482 0.123069 0.389419
Si Si3 0.332344 0.271600 0.838468
Si Si4 0.826539 0.434174 0.764643
Si Si5 0.332727 0.668943 0.288953
O O1 0.247809 0.094063 0.443344
O O2 0.000000 0.080014 0.500000
O O3 0.191949 0.000000 0.500000
O O4 0.500000 0.125961 0.398158
O O5 0.259953 0.185301 0.377615
O O6 0.299539 0.086589 0.330738
O O7 0.500000 0.267503 0.857282
O O8 0.332387 0.300172 0.774219
O O9 0.257746 0.210491 0.830614
O O10 0.785816 0.500000 0.758212
O O11 0.741753 0.391542 0.722503
O O12 0.000000 0.428446 0.754997
O O13 0.500000 0.663776 0.307383
#
# Coordination Sequence:
#
# PCOD9518994 Si02
#       5
#     8  16  16  16  16
#     4  11  23  35  45  59  81 109 142 179 216 251
#     4  10  19  31  46  61  78 104 140 179 215 249
#     4   9  16  27  42  59  79 102 130 166 207 248
#     4   9  17  28  41  58  81 109 139 170 206 248
#     4   9  16  25  39  59  80 103 132 165 201 243
#
# _framework density 14.437036000000001
#
# number of rings (size 3 to 8) (size 9 to 14) (size 15 to 20)
#    0.000    2.556    0.000    3.000    0.000    8.444 
#    0.000    0.000    0.000    0.000    0.000    0.000 
#    0.000    0.000    0.000    1.000    0.000   18.444 
#
# Total GULP energy -200664.261411 kJ/mol
# GULP energy per Si atom -5574.007261 kJ/mol
# Density = 1.440418 g / cm^3
# Si number density = 14.437036 Si / 1000 Ang^3
#
#
#
# Elastic Constant Matrix: (Units=GPa)
#
#
# Indices 1 2 3 4 5 6 
#
# 1 108.8274 83.2529 39.8812 0.0000 0.0000 0.0000
# 2 83.2529 140.7037 41.7379 0.0000 0.0000 0.0000
# 3 39.8812 41.7379 33.0765 0.0000 0.0000 0.0000
# 4 0.0000 0.0000 0.0000 20.6209 0.0000 0.0000
# 5 0.0000 0.0000 0.0000 0.0000 18.9867 0.0000
# 6 0.0000 0.0000 0.0000 0.0000 0.0000 26.5250
#
#
#
# Elastic Compliance Matrix: (Units=1/GPa)
#
#
# Indices 1 2 3 4 5 6 
#
# 1 0.020650 -0.007724 -0.015152 0.000000 0.000000 0.000000
# 2 -0.007724 0.014248 -0.008666 0.000000 0.000000 0.000000
# 3 -0.015152 -0.008666 0.059438 0.000000 0.000000 0.000000
# 4 0.000000 0.000000 0.000000 0.048495 0.000000 0.000000
# 5 0.000000 0.000000 0.000000 0.000000 0.052668 0.000000
# 6 0.000000 0.000000 0.000000 0.000000 0.000000 0.037700
#
#
# Mechanical properties :
#
#
# Convention : Reuss Voigt Hill
#
# Bulk Modulus (GPa) = 31.99818 68.03905 50.01862
# Shear Modulus (GPa) = 16.30253 21.07556 18.68904
#
# Velocity S-wave (km/s) = 3.36403 3.82491 3.60185
# Velocity P-wave (km/s) = 6.10745 8.16927 7.21242
#
# Compressibility (1/GPa) = 0.03125178
#
# Stress axis : x y z
#
# Youngs Moduli (GPa) = 48.42521 70.18573 16.82432
#
# Poissons Ratio (x) = 0.54211 0.25493
# Poissons Ratio (y) = 0.37403 0.14580
# Poissons Ratio (z) = 0.73375 0.60823
#
# Static dielectric constant tensor:
#      x y z
#    x 1.483030 0.000000 0.000000 
#    y 0.000000 1.468410 0.000000 
#    z 0.000000 0.000000 1.446250 
# 
# From -- ./inp_files/7889.got.cif
#   From: 2010.05.17/outbox.cif.g08.bks.cpg/sg71_4_cif.got.tgz:7889.got - 2010.06.03 16:22:01.
