data_PCOD9518035
_publ_section_title
;
Structure prediction by ZEFSAII (Michael W. Deem and Ramdas Pophale) SiO2 
 PCOD9518035
Probable space group: I M M M
;
_chemical_formula_sum "Si O2"
_cell_formula_units_Z 104
_cell_length_a 23.436539
_cell_length_b 27.964794
_cell_length_c 7.401302
_cell_angle_alpha 90.000000
_cell_angle_beta 90.000000
_cell_angle_gamma 90.000000
_cell_volume 4850.798419
_symmetry_space_group_name_H-M "I M M M"
_symmetry_group_IT_number 71
_symmetry_cell_setting 'orthorhombic'
loop_
_space_group_symop_operation_xyz
x,y,z
-x,-y,z
x,-y,-z
-x,y,-z
-x,-y,-z
x,y,-z
-x,y,z
x,-y,z
1/2+x,1/2+y,1/2+z
1/2-x,1/2-y,1/2+z
1/2+x,1/2-y,1/2-z
1/2-x,1/2+y,1/2-z
1/2-x,1/2-y,1/2-z
1/2+x,1/2+y,1/2-z
1/2-x,1/2+y,1/2+z
1/2+x,1/2-y,1/2+z
loop_
_atom_site_type_symbol
_atom_site_label
_atom_site_fract_x
_atom_site_fract_y
_atom_site_fract_z
Si Si1 0.753078 0.445073 0.782662
Si Si2 0.837832 0.873421 0.703317
Si Si3 0.565520 0.000000 0.779108
Si Si4 0.376798 0.904243 0.783935
Si Si5 0.934502 0.801479 0.279206
Si Si6 0.737552 0.195290 0.787110
Si Si7 0.394202 0.803676 0.780779
O O1 0.760770 0.500000 0.718918
O O2 0.694813 0.419465 0.715115
O O3 0.808593 0.412310 0.743239
O O4 0.748779 0.446513 0.000000
O O5 0.856117 0.886832 0.500000
O O6 0.889862 0.842206 0.783808
O O7 0.785464 0.836044 0.694109
O O8 0.595967 0.952548 0.712547
O O9 0.500000 0.000000 0.730783
O O10 0.569418 0.000000 0.000000
O O11 0.411255 0.857002 0.719999
O O12 0.383306 0.902893 0.000000
O O13 0.930480 0.800887 0.500000
O O14 0.918607 0.747248 0.218024
O O15 0.000000 0.811593 0.231080
O O16 0.750000 0.250000 0.750000
O O17 0.672227 0.191524 0.731817
O O18 0.741125 0.184656 0.000000
O O19 0.399563 0.801654 0.000000
#
# Coordination Sequence:
#
# PCOD9518035 Si02
#       7
#    16  16   8  16  16  16  16
#     4  10  20  32  48  72 101 127 156 201 257 306
#     4  10  19  32  50  73  98 127 164 203 249 301
#     4   9  18  30  45  67  95 129 166 205 246 282
#     4  10  18  30  49  71  97 126 160 204 242 285
#     4   9  17  30  48  70  97 129 164 199 236 288
#     4  11  19  29  47  73 103 129 159 197 241 291
#     4   9  17  27  43  71  99 122 156 197 237 280
#
# _framework density 21.439768999999998
#
# number of rings (size 3 to 8) (size 9 to 14) (size 15 to 20)
#    0.000    2.231    3.846    0.462    0.000    0.615 
#    0.000    3.077    0.000    1.846    0.000    3.231 
#    0.000    0.000    0.000    2.769    0.000    3.077 
#
# Total GULP energy -289783.817005 kJ/mol
# GULP energy per Si atom -5572.765712 kJ/mol
# Density = 2.139097 g / cm^3
# Si number density = 21.439769 Si / 1000 Ang^3
#
#
#
# Elastic Constant Matrix: (Units=GPa)
#
#
# Indices 1 2 3 4 5 6 
#
# 1 101.2857 30.6944 2.4407 0.0000 0.0000 0.0000
# 2 30.6944 96.4338 -7.1134 0.0000 0.0000 0.0000
# 3 2.4407 -7.1134 70.2240 0.0000 0.0000 0.0000
# 4 0.0000 0.0000 0.0000 -20.3942 0.0000 0.0000
# 5 0.0000 0.0000 0.0000 0.0000 9.1930 0.0000
# 6 0.0000 0.0000 0.0000 0.0000 0.0000 15.2390
#
#
#
# Elastic Compliance Matrix: (Units=1/GPa)
#
#
# Indices 1 2 3 4 5 6 
#
# 1 0.010965 -0.003545 -0.000740 0.000000 0.000000 0.000000
# 2 -0.003545 0.011594 0.001298 0.000000 0.000000 0.000000
# 3 -0.000740 0.001298 0.014397 0.000000 0.000000 0.000000
# 4 0.000000 0.000000 0.000000 -0.049034 0.000000 0.000000
# 5 0.000000 0.000000 0.000000 0.000000 0.108778 0.000000
# 6 0.000000 0.000000 0.000000 0.000000 0.000000 0.065621
#
#
# Mechanical properties :
#
#
# Convention : Reuss Voigt Hill
#
# Bulk Modulus (GPa) = 32.27721 35.55411 33.91566
# Shear Modulus (GPa) = 27.99174 16.93567 22.46371
#
# Velocity S-wave (km/s) = 3.61723 2.81360 3.24042
# Velocity P-wave (km/s) = 5.70380 5.21290 5.46387
#
# Compressibility (1/GPa) = 0.03098161
#
# Stress axis : x y z
#
# Youngs Moduli (GPa) = 91.19823 86.25298 69.45741
#
# Poissons Ratio (x) = 0.30574 0.05141
# Poissons Ratio (y) = 0.32327 -0.09013
# Poissons Ratio (z) = 0.06750 -0.11192
#
# Static dielectric constant tensor:
#      x y z
#    x 1.813510 0.000000 0.000000 
#    y 0.000000 1.956540 0.000000 
#    z 0.000000 0.000000 1.857220 
# 
# From -- ./inp_files/13300.got.cif
#   From: 2010.05.17/outbox.cif.g08.bks.cpg/sg71_7_cif.got.tgz:13300.got - 2010.06.03 16:22:01.
