data_PCOD9518747
_publ_section_title
;
Structure prediction by ZEFSAII (Michael W. Deem and Ramdas Pophale) SiO2 
 PCOD9518747
Probable space group: I M M M
;
_chemical_formula_sum "Si O2"
_cell_formula_units_Z 96
_cell_length_a 29.687025
_cell_length_b 28.803371
_cell_length_c 8.905737
_cell_angle_alpha 90.000000
_cell_angle_beta 90.000000
_cell_angle_gamma 90.000000
_cell_volume 7615.174546
_symmetry_space_group_name_H-M "I M M M"
_symmetry_group_IT_number 71
_symmetry_cell_setting 'orthorhombic'
loop_
_space_group_symop_operation_xyz
x,y,z
-x,-y,z
x,-y,-z
-x,y,-z
-x,-y,-z
x,y,-z
-x,y,z
x,-y,z
1/2+x,1/2+y,1/2+z
1/2-x,1/2-y,1/2+z
1/2+x,1/2-y,1/2-z
1/2-x,1/2+y,1/2-z
1/2-x,1/2-y,1/2-z
1/2+x,1/2+y,1/2-z
1/2-x,1/2+y,1/2+z
1/2+x,1/2-y,1/2+z
loop_
_atom_site_type_symbol
_atom_site_label
_atom_site_fract_x
_atom_site_fract_y
_atom_site_fract_z
Si Si1 0.552278 0.408320 0.822224
Si Si2 0.626326 0.652536 0.677247
Si Si3 0.281073 0.594906 0.322165
Si Si4 0.686321 0.265274 0.679453
Si Si5 0.266690 0.823507 0.323073
Si Si6 0.593864 0.500000 0.320998
Si Si7 0.806433 0.000000 0.678640
O O1 0.500000 0.398524 0.790069
O O2 0.585275 0.367202 0.771595
O O3 0.568154 0.454313 0.735267
O O4 0.557109 0.416710 0.000000
O O5 0.616414 0.647622 0.500000
O O6 0.671107 0.621303 0.707237
O O7 0.641001 0.705710 0.707113
O O8 0.278359 0.587385 0.500000
O O9 0.241792 0.629503 0.267634
O O10 0.282234 0.546495 0.235934
O O11 0.696673 0.271853 0.500000
O O12 0.690956 0.210436 0.709406
O O13 0.724201 0.291228 0.777002
O O14 0.265626 0.833382 0.500000
O O15 0.597618 0.500000 0.500000
O O16 0.643712 0.500000 0.250778
O O17 0.810195 0.000000 0.500000
#
# Coordination Sequence:
#
# PCOD9518747 Si02
#       7
#    16  16  16  16  16   8   8
#     4  11  23  35  45  58  75  94 122 163 202 237
#     4   9  17  29  44  58  74  96 121 151 190 234
#     4  10  19  30  42  57  78  99 121 153 188 225
#     4   8  15  26  39  56  78  97 117 147 182 221
#     4   9  15  24  39  58  77  98 120 145 179 220
#     4  12  23  35  48  59  70  92 122 158 202 247
#     4  12  22  31  45  60  74  97 128 160 193 233
#
# _framework density 12.606408999999999
#
# number of rings (size 3 to 8) (size 9 to 14) (size 15 to 20)
#    0.000    2.167    1.667    4.250    0.000    5.667 
#    0.000    0.000    0.000    0.000    0.000    0.000 
#    0.000    0.000    0.000    0.000    0.000    0.000 
#
# Total GULP energy -267442.905814 kJ/mol
# GULP energy per Si atom -5571.727204 kJ/mol
# Density = 1.257772 g / cm^3
# Si number density = 12.606409 Si / 1000 Ang^3
#
#
#
# Elastic Constant Matrix: (Units=GPa)
#
#
# Indices 1 2 3 4 5 6 
#
# 1 38.6242 44.4719 30.0306 0.0000 0.0000 0.0000
# 2 44.4719 82.8725 48.3973 0.0000 0.0000 0.0000
# 3 30.0306 48.3973 61.5986 0.0000 0.0000 0.0000
# 4 0.0000 0.0000 0.0000 21.0560 0.0000 0.0000
# 5 0.0000 0.0000 0.0000 0.0000 14.6513 0.0000
# 6 0.0000 0.0000 0.0000 0.0000 0.0000 2.8266
#
#
#
# Elastic Compliance Matrix: (Units=1/GPa)
#
#
# Indices 1 2 3 4 5 6 
#
# 1 0.070102 -0.032634 -0.008536 0.000000 0.000000 0.000000
# 2 -0.032634 0.037489 -0.013545 0.000000 0.000000 0.000000
# 3 -0.008536 -0.013545 0.031038 0.000000 0.000000 0.000000
# 4 0.000000 0.000000 0.000000 0.047493 0.000000 0.000000
# 5 0.000000 0.000000 0.000000 0.000000 0.068254 0.000000
# 6 0.000000 0.000000 0.000000 0.000000 0.000000 0.353782
#
#
# Mechanical properties :
#
#
# Convention : Reuss Voigt Hill
#
# Bulk Modulus (GPa) = 34.24786 47.65497 40.95141
# Shear Modulus (GPa) = 6.87454 11.71979 9.29717
#
# Velocity S-wave (km/s) = 2.33774 3.05236 2.71863
# Velocity P-wave (km/s) = 5.87475 7.09272 6.51228
#
# Compressibility (1/GPa) = 0.02919891
#
# Stress axis : x y z
#
# Youngs Moduli (GPa) = 14.26493 26.67420 32.21833
#
# Poissons Ratio (x) = 0.87048 0.27503
# Poissons Ratio (y) = 0.46552 0.43641
# Poissons Ratio (z) = 0.12177 0.36131
#
# Static dielectric constant tensor:
#      x y z
#    x 1.392810 0.000000 0.000000 
#    y 0.000000 1.434360 0.000000 
#    z 0.000000 0.000000 1.421770 
# 
# From -- ./inp_files/17566.got.cif
#   From: 2010.05.17/outbox.cif.g08.bks.cpg/sg71_9_cif.got.tgz:17566.got - 2010.06.03 16:22:01.
