data_PCOD9518705
_publ_section_title
;
Structure prediction by ZEFSAII (Michael W. Deem and Ramdas Pophale) SiO2 
 PCOD9518705
Probable space group: I M M M
;
_chemical_formula_sum "Si O2"
_cell_formula_units_Z 96
_cell_length_a 25.078821
_cell_length_b 21.275644
_cell_length_c 10.787570
_cell_angle_alpha 90.000000
_cell_angle_beta 90.000000
_cell_angle_gamma 90.000000
_cell_volume 5755.902878
_symmetry_space_group_name_H-M "I M M M"
_symmetry_group_IT_number 71
_symmetry_cell_setting 'orthorhombic'
loop_
_space_group_symop_operation_xyz
x,y,z
-x,-y,z
x,-y,-z
-x,y,-z
-x,-y,-z
x,y,-z
-x,y,z
x,-y,z
1/2+x,1/2+y,1/2+z
1/2-x,1/2-y,1/2+z
1/2+x,1/2-y,1/2-z
1/2-x,1/2+y,1/2-z
1/2-x,1/2-y,1/2-z
1/2+x,1/2+y,1/2-z
1/2-x,1/2+y,1/2+z
1/2+x,1/2-y,1/2+z
loop_
_atom_site_type_symbol
_atom_site_label
_atom_site_fract_x
_atom_site_fract_y
_atom_site_fract_z
Si Si1 0.440678 0.253942 0.142513
Si Si2 0.241528 0.571344 0.359052
Si Si3 0.061365 0.906755 0.637950
Si Si4 0.838567 0.771003 0.220892
Si Si5 0.866297 0.094067 0.865589
Si Si6 0.757418 0.331918 0.139237
O O1 0.500000 0.235991 0.187951
O O2 0.438975 0.330356 0.140479
O O3 0.389344 0.235633 0.221722
O O4 0.435605 0.233039 0.000000
O O5 0.226672 0.592291 0.500000
O O6 0.221910 0.500000 0.340741
O O7 0.306024 0.569740 0.357501
O O8 0.227866 0.618844 0.248047
O O9 0.079550 0.925370 0.500000
O O10 0.098644 0.927005 0.749864
O O11 0.000000 0.926447 0.653372
O O12 0.859925 0.830207 0.143582
O O13 0.799814 0.724612 0.147920
O O14 0.800500 0.802675 0.326012
O O15 0.888889 0.077230 0.000000
O O16 0.756252 0.358109 0.000000
#
# Coordination Sequence:
#
# PCOD9518705 Si02
#       6
#    16  16  16  16  16  16
#     4   8  13  22  37  57  83 116 149 176 204 247
#     4   9  19  34  47  60  82 111 142 178 222 266
#     4   8  14  24  37  55  80 108 138 173 212 250
#     4   9  17  27  41  63  95 120 141 174 220 262
#     4   9  16  26  42  61  81 108 140 174 211 253
#     4  10  19  29  45  67  90 118 150 183 217 259
#
# _framework density 16.678531
#
# number of rings (size 3 to 8) (size 9 to 14) (size 15 to 20)
#    0.000    3.167    0.000    2.000    0.000    9.333 
#    0.000    0.000    0.000    2.000    0.000    3.500 
#    0.000    0.667    0.000    5.167    0.000    1.500 
#
# Total GULP energy -267278.550515 kJ/mol
# GULP energy per Si atom -5568.303136 kJ/mol
# Density = 1.664057 g / cm^3
# Si number density = 16.678531 Si / 1000 Ang^3
#
#
#
# Elastic Constant Matrix: (Units=GPa)
#
#
# Indices 1 2 3 4 5 6 
#
# 1 57.3816 2.5791 29.8676 0.0000 0.0000 0.0000
# 2 2.5791 40.3118 37.0092 0.0000 0.0000 0.0000
# 3 29.8676 37.0092 127.3894 0.0000 0.0000 0.0000
# 4 0.0000 0.0000 0.0000 58.4372 0.0000 0.0000
# 5 0.0000 0.0000 0.0000 0.0000 13.0448 0.0000
# 6 0.0000 0.0000 0.0000 0.0000 0.0000 -6.9467
#
#
#
# Elastic Compliance Matrix: (Units=1/GPa)
#
#
# Indices 1 2 3 4 5 6 
#
# 1 0.020358 0.004200 -0.005993 0.000000 0.000000 0.000000
# 2 0.004200 0.034696 -0.011065 0.000000 0.000000 0.000000
# 3 -0.005993 -0.011065 0.012470 0.000000 0.000000 0.000000
# 4 0.000000 0.000000 0.000000 0.017112 0.000000 0.000000
# 5 0.000000 0.000000 0.000000 0.000000 0.076659 0.000000
# 6 0.000000 0.000000 0.000000 0.000000 0.000000 -0.143952
#
#
# Mechanical properties :
#
#
# Convention : Reuss Voigt Hill
#
# Bulk Modulus (GPa) = 23.91915 40.44383 32.18149
# Shear Modulus (GPa) = 87.72826 23.28219 55.50522
#
# Velocity S-wave (km/s) = 7.26042 3.74028 5.77509
# Velocity P-wave (km/s) = 9.20094 6.55397 7.98786
#
# Compressibility (1/GPa) = 0.04180751
#
# Stress axis : x y z
#
# Youngs Moduli (GPa) = 49.12085 28.82172 80.19512
#
# Poissons Ratio (x) = -0.12104 0.48063
# Poissons Ratio (y) = -0.20629 0.88732
# Poissons Ratio (z) = 0.29439 0.31890
#
# Static dielectric constant tensor:
#      x y z
#    x 1.556940 0.000000 0.000000 
#    y 0.000000 1.584710 0.000000 
#    z 0.000000 0.000000 1.592580 
# 
# From -- ./inp_files/29030.got.cif
#   From: 2010.05.17/outbox.cif.g08.bks.cpg/sg71_15_cif.got.tgz:29030.got - 2010.06.03 16:22:01.
