data_PCOD9518048
_publ_section_title
;
Structure prediction by ZEFSAII (Michael W. Deem and Ramdas Pophale) SiO2 
 PCOD9518048
Probable space group: I M M M
;
_chemical_formula_sum "Si O2"
_cell_formula_units_Z 120
_cell_length_a 29.775944
_cell_length_b 24.612783
_cell_length_c 7.443422
_cell_angle_alpha 90.000000
_cell_angle_beta 90.000000
_cell_angle_gamma 90.000000
_cell_volume 5455.052108
_symmetry_space_group_name_H-M "I M M M"
_symmetry_group_IT_number 71
_symmetry_cell_setting 'orthorhombic'
loop_
_space_group_symop_operation_xyz
x,y,z
-x,-y,z
x,-y,-z
-x,y,-z
-x,-y,-z
x,y,-z
-x,y,z
x,-y,z
1/2+x,1/2+y,1/2+z
1/2-x,1/2-y,1/2+z
1/2+x,1/2-y,1/2-z
1/2-x,1/2+y,1/2-z
1/2-x,1/2-y,1/2-z
1/2+x,1/2+y,1/2-z
1/2-x,1/2+y,1/2+z
1/2+x,1/2-y,1/2+z
loop_
_atom_site_type_symbol
_atom_site_label
_atom_site_fract_x
_atom_site_fract_y
_atom_site_fract_z
Si Si1 0.000000 0.935747 0.708849
Si Si2 0.688477 0.386170 0.782501
Si Si3 0.551088 0.291604 0.284909
Si Si4 0.593266 0.601445 0.204841
Si Si5 0.284146 0.060969 0.787018
Si Si6 0.697967 0.736837 0.785638
Si Si7 0.950390 0.335058 0.708803
Si Si8 0.148062 0.654514 0.720967
O O1 0.952842 0.917987 0.793000
O O2 0.000000 0.915781 0.500000
O O3 0.000000 0.000000 0.704688
O O4 0.641676 0.411791 0.717201
O O5 0.733367 0.418197 0.736874
O O6 0.690253 0.323971 0.715640
O O7 0.685920 0.384426 0.000000
O O8 0.555355 0.291410 0.500000
O O9 0.500000 0.309536 0.239323
O O10 0.586707 0.333245 0.204928
O O11 0.554919 0.230267 0.218282
O O12 0.592897 0.580495 0.000000
O O13 0.318027 0.107299 0.718825
O O14 0.289770 0.000000 0.713667
O O15 0.292419 0.058076 0.000000
O O16 0.750000 0.750000 0.750000
O O17 0.667027 0.786574 0.719439
O O18 0.691468 0.735007 0.000000
O O19 0.952127 0.351138 0.500000
O O20 0.903016 0.356087 0.782406
O O21 0.000000 0.347672 0.787212
O O22 0.147787 0.655601 0.500000
#
# Coordination Sequence:
#
# PCOD9518048 Si02
#       8
#     8  16  16  16  16  16  16  16
#     4   9  18  32  51  73  91 117 167 219 254 291
#     4  10  21  34  52  79 105 131 170 220 266 306
#     4  10  19  30  46  72 106 137 165 200 245 298
#     4  10  19  33  53  72  94 129 169 209 254 306
#     4  10  21  37  56  75  99 137 178 211 254 314
#     4  10  18  30  49  73 102 132 165 204 250 302
#     4   9  17  30  51  76 102 134 169 203 245 300
#     4   9  17  32  53  76 104 135 170 211 250 300
#
# _framework density 21.997955999999999
#
# number of rings (size 3 to 8) (size 9 to 14) (size 15 to 20)
#    0.000    2.333    2.000    1.200    0.000    4.000 
#    0.000    4.000    0.000    1.200    0.000    2.800 
#    0.000    0.000    0.000    4.533    0.000    4.800 
#
# Total GULP energy -334940.703320 kJ/mol
# GULP energy per Si atom -5582.345055 kJ/mol
# Density = 2.194789 g / cm^3
# Si number density = 21.997956 Si / 1000 Ang^3
#
#
#
# Elastic Constant Matrix: (Units=GPa)
#
#
# Indices 1 2 3 4 5 6 
#
# 1 170.1638 28.8798 -4.9210 0.0000 0.0000 0.0000
# 2 28.8798 72.2754 1.5321 0.0000 0.0000 0.0000
# 3 -4.9210 1.5321 74.2426 0.0000 0.0000 0.0000
# 4 0.0000 0.0000 0.0000 -10.0130 0.0000 0.0000
# 5 0.0000 0.0000 0.0000 0.0000 20.9453 0.0000
# 6 0.0000 0.0000 0.0000 0.0000 0.0000 3.1650
#
#
#
# Elastic Compliance Matrix: (Units=1/GPa)
#
#
# Indices 1 2 3 4 5 6 
#
# 1 0.006321 -0.002536 0.000471 0.000000 0.000000 0.000000
# 2 -0.002536 0.014859 -0.000475 0.000000 0.000000 0.000000
# 3 0.000471 -0.000475 0.013510 0.000000 0.000000 0.000000
# 4 0.000000 0.000000 0.000000 -0.099870 0.000000 0.000000
# 5 0.000000 0.000000 0.000000 0.000000 0.047743 0.000000
# 6 0.000000 0.000000 0.000000 0.000000 0.000000 0.315959
#
#
# Mechanical properties :
#
#
# Convention : Reuss Voigt Hill
#
# Bulk Modulus (GPa) = 33.76988 40.85151 37.31070
# Shear Modulus (GPa) = 15.95044 22.23218 19.09131
#
# Velocity S-wave (km/s) = 2.69567 3.18252 2.94915
# Velocity P-wave (km/s) = 5.00735 5.66705 5.34738
#
# Compressibility (1/GPa) = 0.02961219
#
# Stress axis : x y z
#
# Youngs Moduli (GPa) = 158.21137 67.29833 74.01715
#
# Poissons Ratio (x) = 0.17064 -0.03488
# Poissons Ratio (y) = 0.40116 0.03514
# Poissons Ratio (z) = -0.07456 0.03195
#
# Static dielectric constant tensor:
#      x y z
#    x 1.845480 0.000000 0.000000 
#    y 0.000000 1.799430 0.000000 
#    z 0.000000 0.000000 1.912260 
# 
# From -- ./inp_files/15629.got.cif
#   From: 2010.05.17/outbox.cif.g08.bks.cpg/sg71_8_cif.got.tgz:15629.got - 2010.06.03 16:22:01.
