data_PCOD9518648
_publ_section_title
;
Structure prediction by ZEFSAII (Michael W. Deem and Ramdas Pophale) SiO2 
 PCOD9518648
Probable space group: I M M M
;
_chemical_formula_sum "Si O2"
_cell_formula_units_Z 72
_cell_length_a 23.815745
_cell_length_b 23.955333
_cell_length_c 8.652350
_cell_angle_alpha 90.000000
_cell_angle_beta 90.000000
_cell_angle_gamma 90.000000
_cell_volume 4936.287691
_symmetry_space_group_name_H-M "I M M M"
_symmetry_group_IT_number 71
_symmetry_cell_setting 'orthorhombic'
loop_
_space_group_symop_operation_xyz
x,y,z
-x,-y,z
x,-y,-z
-x,y,-z
-x,-y,-z
x,y,-z
-x,y,z
x,-y,z
1/2+x,1/2+y,1/2+z
1/2-x,1/2-y,1/2+z
1/2+x,1/2-y,1/2-z
1/2-x,1/2+y,1/2-z
1/2-x,1/2-y,1/2-z
1/2+x,1/2+y,1/2-z
1/2-x,1/2+y,1/2+z
1/2+x,1/2-y,1/2+z
loop_
_atom_site_type_symbol
_atom_site_label
_atom_site_fract_x
_atom_site_fract_y
_atom_site_fract_z
Si Si1 0.169582 0.224761 0.314874
Si Si2 0.724933 0.162824 0.317102
Si Si3 0.120251 0.387950 0.316611
Si Si4 0.565857 0.000000 0.685339
Si Si5 0.934681 0.274669 0.814769
O O1 0.172846 0.234070 0.500000
O O2 0.209279 0.171764 0.279134
O O3 0.197314 0.277522 0.227445
O O4 0.105506 0.227874 0.260513
O O5 0.719445 0.153645 0.500000
O O6 0.685776 0.119122 0.229218
O O7 0.114429 0.385573 0.500000
O O8 0.094810 0.444705 0.251259
O O9 0.087386 0.334857 0.244550
O O10 0.500000 0.000000 0.727106
O O11 0.570165 0.000000 0.500000
O O12 0.000000 0.268082 0.775164
O O13 0.928706 0.273258 0.000000
#
# Coordination Sequence:
#
# PCOD9518648 Si02
#       5
#    16  16  16   8  16
#     4   9  16  25  40  60  79 102 132 166 201 238
#     4   9  16  27  42  59  79 102 130 164 204 247
#     4  11  21  31  45  62  79 103 137 176 212 244
#     4  11  23  37  49  59  77 107 140 175 214 249
#     4  10  19  29  41  58  82 112 141 168 203 246
#
# _framework density 14.58586
#
# number of rings (size 3 to 8) (size 9 to 14) (size 15 to 20)
#    0.000    2.111    0.000    7.667    0.000    8.000 
#    0.000    0.000    0.000    0.000    0.000    0.000 
#    0.000    0.000    0.000    1.000    0.000   18.667 
#
# Total GULP energy -200570.068676 kJ/mol
# GULP energy per Si atom -5571.390797 kJ/mol
# Density = 1.455266 g / cm^3
# Si number density = 14.585860 Si / 1000 Ang^3
#
#
#
# Elastic Constant Matrix: (Units=GPa)
#
#
# Indices 1 2 3 4 5 6 
#
# 1 122.3776 47.0210 30.7207 0.0000 0.0000 0.0000
# 2 47.0210 41.6149 16.2060 0.0000 0.0000 0.0000
# 3 30.7207 16.2060 47.0054 0.0000 0.0000 0.0000
# 4 0.0000 0.0000 0.0000 18.5503 0.0000 0.0000
# 5 0.0000 0.0000 0.0000 0.0000 24.3442 0.0000
# 6 0.0000 0.0000 0.0000 0.0000 0.0000 21.9320
#
#
#
# Elastic Compliance Matrix: (Units=1/GPa)
#
#
# Indices 1 2 3 4 5 6 
#
# 1 0.015276 -0.015446 -0.004658 0.000000 0.000000 0.000000
# 2 -0.015446 0.043375 -0.004859 0.000000 0.000000 0.000000
# 3 -0.004658 -0.004859 0.025994 0.000000 0.000000 0.000000
# 4 0.000000 0.000000 0.000000 0.053907 0.000000 0.000000
# 5 0.000000 0.000000 0.000000 0.000000 0.041077 0.000000
# 6 0.000000 0.000000 0.000000 0.000000 0.000000 0.045596
#
#
# Mechanical properties :
#
#
# Convention : Reuss Voigt Hill
#
# Bulk Modulus (GPa) = 28.80428 44.32148 36.56288
# Shear Modulus (GPa) = 17.43838 20.76867 19.10352
#
# Velocity S-wave (km/s) = 3.46145 3.77754 3.62294
# Velocity P-wave (km/s) = 5.98051 7.03413 6.52861
#
# Compressibility (1/GPa) = 0.03471707
#
# Stress axis : x y z
#
# Youngs Moduli (GPa) = 65.46419 23.05492 38.47057
#
# Poissons Ratio (x) = 0.35610 0.17920
# Poissons Ratio (y) = 1.01115 0.18695
# Poissons Ratio (z) = 0.30494 0.11203
#
# Static dielectric constant tensor:
#      x y z
#    x 1.540200 0.000000 0.000000 
#    y 0.000000 1.453610 0.000000 
#    z 0.000000 0.000000 1.485570 
# 
# From -- ./inp_files/12717.got.cif
#   From: 2010.05.17/outbox.cif.g08.bks.cpg/sg71_7_cif.got.tgz:12717.got - 2010.06.03 16:22:01.
