data_PCOD9518674
_publ_section_title
;
Structure prediction by ZEFSAII (Michael W. Deem and Ramdas Pophale) SiO2 
 PCOD9518674
Probable space group: I M M M
;
_chemical_formula_sum "Si O2"
_cell_formula_units_Z 104
_cell_length_a 25.675838
_cell_length_b 8.180230
_cell_length_c 34.457324
_cell_angle_alpha 90.000000
_cell_angle_beta 90.000000
_cell_angle_gamma 90.000000
_cell_volume 7237.218558
_symmetry_space_group_name_H-M "I M M M"
_symmetry_group_IT_number 71
_symmetry_cell_setting 'orthorhombic'
loop_
_space_group_symop_operation_xyz
x,y,z
-x,-y,z
x,-y,-z
-x,y,-z
-x,-y,-z
x,y,-z
-x,y,z
x,-y,z
1/2+x,1/2+y,1/2+z
1/2-x,1/2-y,1/2+z
1/2+x,1/2-y,1/2-z
1/2-x,1/2+y,1/2-z
1/2-x,1/2-y,1/2-z
1/2+x,1/2+y,1/2-z
1/2-x,1/2+y,1/2+z
1/2+x,1/2-y,1/2+z
loop_
_atom_site_type_symbol
_atom_site_label
_atom_site_fract_x
_atom_site_fract_y
_atom_site_fract_z
Si Si1 0.831116 0.311566 0.375458
Si Si2 0.941622 0.803597 0.655420
Si Si3 0.443250 0.302213 0.751973
Si Si4 0.057261 0.000000 0.453524
Si Si5 0.628935 0.190401 0.954671
Si Si6 0.764594 0.190794 0.692984
Si Si7 0.168363 0.195388 0.233906
O O1 0.820190 0.500000 0.367265
O O2 0.891229 0.275510 0.364035
O O3 0.827544 0.284619 0.421702
O O4 0.792815 0.212445 0.347918
O O5 0.938173 0.773353 0.701751
O O6 0.000000 0.750548 0.642934
O O7 0.938030 0.000000 0.649779
O O8 0.500000 0.238644 0.739358
O O9 0.444843 0.500000 0.747495
O O10 0.390563 0.240172 0.731925
O O11 0.087158 0.168270 0.445182
O O12 0.052678 0.000000 0.500000
O O13 0.000000 0.000000 0.435822
O O14 0.610816 0.000000 0.950488
O O15 0.643999 0.210558 0.000000
O O16 0.803085 0.257942 0.726798
O O17 0.708096 0.268791 0.699209
O O18 0.757799 0.000000 0.700724
O O19 0.164140 0.000000 0.238081
#
# Coordination Sequence:
#
# PCOD9518674 Si02
#       7
#    16  16  16   8  16  16  16
#     4  11  21  31  45  62  81 104 135 173 215 261
#     4   9  17  29  43  58  78 104 133 168 210 252
#     4   8  13  24  42  60  78 104 137 169 204 245
#     4   9  18  32  50  68  82 106 142 174 215 269
#     4   9  20  36  49  63  84 108 136 176 221 265
#     4  10  19  29  43  61  81 108 137 170 210 247
#     4   9  16  28  43  60  83 108 137 169 205 248
#
# _framework density 14.370161
#
# number of rings (size 3 to 8) (size 9 to 14) (size 15 to 20)
#    0.000    2.692    1.538    1.846    2.154    1.846 
#    0.000    3.077    0.000    0.462    0.000    0.000 
#    0.000    0.000    0.000    0.000    0.000    0.769 
#
# Total GULP energy -289481.741203 kJ/mol
# GULP energy per Si atom -5566.956562 kJ/mol
# Density = 1.433745 g / cm^3
# Si number density = 14.370161 Si / 1000 Ang^3
#
#
#
# Elastic Constant Matrix: (Units=GPa)
#
#
# Indices 1 2 3 4 5 6 
#
# 1 97.9902 11.7863 33.1934 0.0000 0.0000 0.0000
# 2 11.7863 22.4859 11.5167 0.0000 0.0000 0.0000
# 3 33.1934 11.5167 46.0357 0.0000 0.0000 0.0000
# 4 0.0000 0.0000 0.0000 13.0999 0.0000 0.0000
# 5 0.0000 0.0000 0.0000 0.0000 10.2520 0.0000
# 6 0.0000 0.0000 0.0000 0.0000 0.0000 13.4965
#
#
#
# Elastic Compliance Matrix: (Units=1/GPa)
#
#
# Indices 1 2 3 4 5 6 
#
# 1 0.013617 -0.002419 -0.009213 0.000000 0.000000 0.000000
# 2 -0.002419 0.051438 -0.011124 0.000000 0.000000 0.000000
# 3 -0.009213 -0.011124 0.031148 0.000000 0.000000 0.000000
# 4 0.000000 0.000000 0.000000 0.076336 0.000000 0.000000
# 5 0.000000 0.000000 0.000000 0.000000 0.097542 0.000000
# 6 0.000000 0.000000 0.000000 0.000000 0.000000 0.074093
#
#
# Mechanical properties :
#
#
# Convention : Reuss Voigt Hill
#
# Bulk Modulus (GPa) = 19.72747 31.05607 25.39177
# Shear Modulus (GPa) = 12.29758 14.70402 13.50080
#
# Velocity S-wave (km/s) = 2.92853 3.20227 3.06846
# Velocity P-wave (km/s) = 5.01926 5.94400 5.50109
#
# Compressibility (1/GPa) = 0.05069072
#
# Stress axis : x y z
#
# Youngs Moduli (GPa) = 73.43789 19.44101 32.10450
#
# Poissons Ratio (x) = 0.04702 0.29579
# Poissons Ratio (y) = 0.17763 0.35713
# Poissons Ratio (z) = 0.67660 0.21626
#
# Static dielectric constant tensor:
#      x y z
#    x 1.489020 0.000000 0.000000 
#    y 0.000000 1.506900 0.000000 
#    z 0.000000 0.000000 1.479150 
# 
# From -- ./inp_files/15799.got.cif
#   From: 2010.05.17/outbox.cif.g08.bks.cpg/sg71_8_cif.got.tgz:15799.got - 2010.06.03 16:22:01.
