data_PCOD9518331
_publ_section_title
;
Structure prediction by ZEFSAII (Michael W. Deem and Ramdas Pophale) SiO2 
 PCOD9518331
Probable space group: I M M M
;
_chemical_formula_sum "Si O2"
_cell_formula_units_Z 64
_cell_length_a 7.418228
_cell_length_b 30.176682
_cell_length_c 15.494361
_cell_angle_alpha 90.000000
_cell_angle_beta 90.000000
_cell_angle_gamma 90.000000
_cell_volume 3468.529032
_symmetry_space_group_name_H-M "I M M M"
_symmetry_group_IT_number 71
_symmetry_cell_setting 'orthorhombic'
loop_
_space_group_symop_operation_xyz
x,y,z
-x,-y,z
x,-y,-z
-x,y,-z
-x,-y,-z
x,y,-z
-x,y,z
x,-y,z
1/2+x,1/2+y,1/2+z
1/2-x,1/2-y,1/2+z
1/2+x,1/2-y,1/2-z
1/2-x,1/2+y,1/2-z
1/2-x,1/2-y,1/2-z
1/2+x,1/2+y,1/2-z
1/2-x,1/2+y,1/2+z
1/2+x,1/2-y,1/2+z
loop_
_atom_site_type_symbol
_atom_site_label
_atom_site_fract_x
_atom_site_fract_y
_atom_site_fract_z
Si Si1 0.216150 0.124272 0.174052
Si Si2 0.000000 0.420125 0.093701
Si Si3 0.789465 0.171050 0.000000
Si Si4 0.285178 0.653688 0.137186
Si Si5 0.783963 0.225646 0.500000
Si Si6 0.000000 0.449634 0.715419
O O1 0.280288 0.149525 0.088308
O O2 0.250245 0.153478 0.260262
O O3 0.327123 0.079001 0.185674
O O4 0.000000 0.116469 0.170907
O O5 0.172411 0.387532 0.101001
O O6 0.000000 0.448887 0.180055
O O7 0.000000 0.442169 0.000000
O O8 0.775222 0.223885 0.000000
O O9 0.000000 0.160069 0.000000
O O10 0.500000 0.647560 0.124501
O O11 0.228945 0.697245 0.084122
O O12 0.000000 0.226780 0.500000
O O13 0.000000 0.500000 0.684294
#
# Coordination Sequence:
#
# PCOD9518331 Si02
#       6
#    16   8   8  16   8   8
#     4   9  20  39  57  76 110 146 176 225 281 323
#     4  10  18  31  57  81 112 148 173 219 273 319
#     4  10  22  36  54  79 106 143 188 232 273 312
#     4   9  18  33  51  76 110 149 185 211 261 322
#     4  10  20  30  50  80 109 144 191 223 251 320
#     4  10  22  38  60  86 105 139 186 225 279 342
#
# _framework density 18.451626999999998
#
# number of rings (size 3 to 8) (size 9 to 14) (size 15 to 20)
#    0.000    2.500    1.250    0.000    3.500    1.750 
#    0.000    1.250    0.000    2.250    0.000    7.000 
#    0.000    0.000    0.000    0.000    0.000    0.000 
#
# Total GULP energy -178377.309000 kJ/mol
# GULP energy per Si atom -5574.290906 kJ/mol
# Density = 1.840963 g / cm^3
# Si number density = 18.451627 Si / 1000 Ang^3
#
#
#
# Elastic Constant Matrix: (Units=GPa)
#
#
# Indices 1 2 3 4 5 6 
#
# 1 66.6340 26.6268 38.6231 0.0000 0.0000 0.0000
# 2 26.6268 127.0933 78.0073 0.0000 0.0000 0.0000
# 3 38.6231 78.0073 146.7050 0.0000 0.0000 0.0000
# 4 0.0000 0.0000 0.0000 7.6681 0.0000 0.0000
# 5 0.0000 0.0000 0.0000 0.0000 11.0341 0.0000
# 6 0.0000 0.0000 0.0000 0.0000 0.0000 15.8134
#
#
#
# Elastic Compliance Matrix: (Units=1/GPa)
#
#
# Indices 1 2 3 4 5 6 
#
# 1 0.017847 -0.001269 -0.004024 0.000000 0.000000 0.000000
# 2 -0.001269 0.011771 -0.005925 0.000000 0.000000 0.000000
# 3 -0.004024 -0.005925 0.011026 0.000000 0.000000 0.000000
# 4 0.000000 0.000000 0.000000 0.130410 0.000000 0.000000
# 5 0.000000 0.000000 0.000000 0.000000 0.090628 0.000000
# 6 0.000000 0.000000 0.000000 0.000000 0.000000 0.063237
#
#
# Mechanical properties :
#
#
# Convention : Reuss Voigt Hill
#
# Bulk Modulus (GPa) = 54.92023 69.66076 62.29050
# Shear Modulus (GPa) = 14.14735 20.04814 17.09774
#
# Velocity S-wave (km/s) = 2.77199 3.29982 3.04735
# Velocity P-wave (km/s) = 6.33042 7.23558 6.79808
#
# Compressibility (1/GPa) = 0.01820823
#
# Stress axis : x y z
#
# Youngs Moduli (GPa) = 56.03254 84.95783 90.69540
#
# Poissons Ratio (x) = 0.10785 0.36492
# Poissons Ratio (y) = 0.07113 0.53733
# Poissons Ratio (z) = 0.22545 0.50334
#
# Static dielectric constant tensor:
#      x y z
#    x 1.637650 0.000000 0.000000 
#    y 0.000000 1.575930 0.000000 
#    z 0.000000 0.000000 1.676130 
# 
# From -- ./inp_files/5946.got.cif
#   From: 2010.05.17/outbox.cif.g08.bks.cpg/sg71_3_cif.got.tgz:5946.got - 2010.06.03 16:22:01.
