data_PCOD9518581
_publ_section_title
;
Structure prediction by ZEFSAII (Michael W. Deem and Ramdas Pophale) SiO2 
 PCOD9518581
Probable space group: I M M M
;
_chemical_formula_sum "Si O2"
_cell_formula_units_Z 128
_cell_length_a 16.972885
_cell_length_b 23.686153
_cell_length_c 18.155338
_cell_angle_alpha 90.000000
_cell_angle_beta 90.000000
_cell_angle_gamma 90.000000
_cell_volume 7298.851665
_symmetry_space_group_name_H-M "I M M M"
_symmetry_group_IT_number 71
_symmetry_cell_setting 'orthorhombic'
loop_
_space_group_symop_operation_xyz
x,y,z
-x,-y,z
x,-y,-z
-x,y,-z
-x,-y,-z
x,y,-z
-x,y,z
x,-y,z
1/2+x,1/2+y,1/2+z
1/2-x,1/2-y,1/2+z
1/2+x,1/2-y,1/2-z
1/2-x,1/2+y,1/2-z
1/2-x,1/2-y,1/2-z
1/2+x,1/2+y,1/2-z
1/2-x,1/2+y,1/2+z
1/2+x,1/2-y,1/2+z
loop_
_atom_site_type_symbol
_atom_site_label
_atom_site_fract_x
_atom_site_fract_y
_atom_site_fract_z
Si Si1 0.588858 0.640811 0.621544
Si Si2 0.194514 0.567713 0.737526
Si Si3 0.593817 0.165623 0.716416
Si Si4 0.146801 0.132786 0.286067
Si Si5 0.906259 0.063394 0.577627
Si Si6 0.238701 0.066431 0.919194
Si Si7 0.190344 0.255825 0.681513
Si Si8 0.164559 0.258120 0.085678
O O1 0.500000 0.624416 0.601301
O O2 0.599738 0.638227 0.709971
O O3 0.658289 0.601354 0.590942
O O4 0.607406 0.704380 0.595969
O O5 0.197840 0.500000 0.752212
O O6 0.121050 0.600913 0.772269
O O7 0.269761 0.603243 0.767211
O O8 0.202929 0.576100 0.649176
O O9 0.500000 0.171849 0.711303
O O10 0.628577 0.198367 0.788680
O O11 0.634659 0.194350 0.643970
O O12 0.110506 0.094237 0.347786
O O13 0.152673 0.194367 0.321830
O O14 0.877546 0.089577 0.500000
O O15 0.000000 0.059783 0.572852
O O16 0.873810 0.000000 0.581338
O O17 0.218566 0.000000 0.916127
O O18 0.272189 0.079182 0.000000
O O19 0.250000 0.250000 0.750000
O O20 0.248793 0.263906 0.612581
O O21 0.165769 0.275538 0.000000
#
# Coordination Sequence:
#
# PCOD9518581 Si02
#       8
#    16  16  16  16  16  16  16  16
#     4  11  21  31  49  80 112 146 184 224 272 330
#     4  10  20  36  58  82 107 141 190 236 276 328
#     4  11  22  38  59  85 115 147 185 229 279 335
#     4  11  18  33  56  77 105 138 188 234 269 323
#     4   9  19  34  50  74 110 147 182 223 273 327
#     4   9  19  35  54  77 109 148 186 227 273 326
#     4  10  18  37  57  79 105 141 182 227 272 324
#     4  11  22  37  58  83 111 145 187 229 275 336
#
# _framework density 17.537005000000001
#
# number of rings (size 3 to 8) (size 9 to 14) (size 15 to 20)
#    0.000    1.750    5.000    2.625    0.000    3.750 
#    0.000    0.625    0.000    1.875    0.000    2.625 
#    0.000    0.000    0.000    0.000    0.000    0.000 
#
# Total GULP energy -356445.040486 kJ/mol
# GULP energy per Si atom -5569.453758 kJ/mol
# Density = 1.749709 g / cm^3
# Si number density = 17.537005 Si / 1000 Ang^3
#
#
#
# Elastic Constant Matrix: (Units=GPa)
#
#
# Indices 1 2 3 4 5 6 
#
# 1 49.5689 15.4091 32.3693 0.0000 0.0000 0.0000
# 2 15.4091 68.9352 27.9965 0.0000 0.0000 0.0000
# 3 32.3693 27.9965 98.4308 -0.0001 0.0000 0.0000
# 4 0.0000 0.0000 -0.0001 12.1140 0.0000 0.0000
# 5 0.0000 0.0000 0.0000 0.0000 21.4906 0.0000
# 6 0.0000 0.0000 0.0000 0.0000 0.0000 23.5640
#
#
#
# Elastic Compliance Matrix: (Units=1/GPa)
#
#
# Indices 1 2 3 4 5 6 
#
# 1 0.026114 -0.002656 -0.007832 0.000000 0.000000 0.000000
# 2 -0.002656 0.016671 -0.003868 0.000000 0.000000 0.000000
# 3 -0.007832 -0.003868 0.013835 0.000000 0.000000 0.000000
# 4 0.000000 0.000000 0.000000 0.082549 0.000000 0.000000
# 5 0.000000 0.000000 0.000000 0.000000 0.046532 0.000000
# 6 0.000000 0.000000 0.000000 0.000000 0.000000 0.042438
#
#
# Mechanical properties :
#
#
# Convention : Reuss Voigt Hill
#
# Bulk Modulus (GPa) = 35.83319 40.94275 38.38797
# Shear Modulus (GPa) = 18.78602 20.84439 19.81520
#
# Velocity S-wave (km/s) = 3.27650 3.45134 3.36506
# Velocity P-wave (km/s) = 5.89841 6.26734 6.08567
#
# Compressibility (1/GPa) = 0.02790709
#
# Stress axis : x y z
#
# Youngs Moduli (GPa) = 38.29315 59.98392 72.27885
#
# Poissons Ratio (x) = 0.15934 0.56610
# Poissons Ratio (y) = 0.10172 0.27959
# Poissons Ratio (z) = 0.29992 0.23203
#
# Static dielectric constant tensor:
#      x y z
#    x 1.569960 0.000000 0.000000 
#    y 0.000000 1.588920 0.000000 
#    z 0.000000 0.000000 1.614930 
# 
# From -- ./inp_files/46665.got.cif
#   From: 2010.05.17/outbox.cif.g08.bks.cpg/sg71_24_cif.got.tgz:46665.got - 2010.06.03 16:22:01.
