data_PCOD9518771
_publ_section_title
;
Structure prediction by ZEFSAII (Michael W. Deem and Ramdas Pophale) SiO2 
 PCOD9518771
Probable space group: I M M M
;
_chemical_formula_sum "Si O2"
_cell_formula_units_Z 104
_cell_length_a 25.430082
_cell_length_b 33.673324
_cell_length_c 8.793396
_cell_angle_alpha 90.000000
_cell_angle_beta 90.000000
_cell_angle_gamma 90.000000
_cell_volume 7529.920330
_symmetry_space_group_name_H-M "I M M M"
_symmetry_group_IT_number 71
_symmetry_cell_setting 'orthorhombic'
loop_
_space_group_symop_operation_xyz
x,y,z
-x,-y,z
x,-y,-z
-x,y,-z
-x,-y,-z
x,y,-z
-x,y,z
x,-y,z
1/2+x,1/2+y,1/2+z
1/2-x,1/2-y,1/2+z
1/2+x,1/2-y,1/2-z
1/2-x,1/2+y,1/2-z
1/2-x,1/2-y,1/2-z
1/2+x,1/2+y,1/2-z
1/2-x,1/2+y,1/2+z
1/2+x,1/2-y,1/2+z
loop_
_atom_site_type_symbol
_atom_site_label
_atom_site_fract_x
_atom_site_fract_y
_atom_site_fract_z
Si Si1 0.442495 0.249067 0.682371
Si Si2 0.726036 0.312045 0.181945
Si Si3 0.611867 0.546282 0.181469
Si Si4 0.000000 0.048245 0.826691
Si Si5 0.659511 0.380191 0.319786
Si Si6 0.671895 0.234356 0.682623
Si Si7 0.940975 0.162986 0.681352
O O1 0.441131 0.256723 0.500000
O O2 0.500000 0.230996 0.716462
O O3 0.388905 0.225962 0.720074
O O4 0.439721 0.291032 0.768550
O O5 0.705617 0.352707 0.253582
O O6 0.689886 0.275579 0.240554
O O7 0.785325 0.298921 0.224592
O O8 0.721831 0.314416 0.000000
O O9 0.620139 0.500000 0.221750
O O10 0.554005 0.558486 0.242074
O O11 0.654461 0.575735 0.252325
O O12 0.611856 0.549879 0.000000
O O13 0.000000 0.000000 0.832016
O O14 0.000000 0.063183 0.000000
O O15 0.662611 0.381405 0.500000
O O16 0.605458 0.358903 0.267836
O O17 0.676014 0.239803 0.500000
O O18 0.933015 0.159503 0.500000
O O19 0.000000 0.148163 0.717715
#
# Coordination Sequence:
#
# PCOD9518771 Si02
#       7
#    16  16  16   8  16  16  16
#     4   9  16  27  43  62  84 108 135 169 210 254
#     4  10  19  30  44  61  82 109 141 175 209 247
#     4  10  21  36  51  64  80 103 132 169 212 257
#     4   9  17  31  49  67  85 105 131 163 205 257
#     4  12  23  33  46  62  82 105 138 175 214 258
#     4   9  17  29  44  62  84 110 139 171 210 251
#     4  10  20  31  42  58  80 105 135 172 215 257
#
# _framework density 13.811565999999999
#
# number of rings (size 3 to 8) (size 9 to 14) (size 15 to 20)
#    0.000    2.077    1.538    3.000    1.077    3.385 
#    0.000    0.000    0.000    0.000    0.000    0.000 
#    0.000    0.000    0.000    0.000    0.000    0.769 
#
# Total GULP energy -290037.496493 kJ/mol
# GULP energy per Si atom -5577.644163 kJ/mol
# Density = 1.378013 g / cm^3
# Si number density = 13.811566 Si / 1000 Ang^3
#
#
#
# Elastic Constant Matrix: (Units=GPa)
#
#
# Indices 1 2 3 4 5 6 
#
# 1 103.1646 47.5765 30.3205 0.0000 0.0000 0.0000
# 2 47.5765 70.3092 32.4930 0.0000 0.0000 0.0000
# 3 30.3205 32.4930 47.3001 0.0000 0.0000 0.0000
# 4 0.0000 0.0000 0.0000 17.4890 0.0000 0.0000
# 5 0.0000 0.0000 0.0000 0.0000 14.4022 0.0000
# 6 0.0000 0.0000 0.0000 0.0000 0.0000 25.1230
#
#
#
# Elastic Compliance Matrix: (Units=1/GPa)
#
#
# Indices 1 2 3 4 5 6 
#
# 1 0.014531 -0.008099 -0.003751 0.000000 0.000000 0.000000
# 2 -0.008099 0.025353 -0.012224 0.000000 0.000000 0.000000
# 3 -0.003751 -0.012224 0.031944 0.000000 0.000000 0.000000
# 4 0.000000 0.000000 0.000000 0.057179 0.000000 0.000000
# 5 0.000000 0.000000 0.000000 0.000000 0.069434 0.000000
# 6 0.000000 0.000000 0.000000 0.000000 0.000000 0.039804
#
#
# Mechanical properties :
#
#
# Convention : Reuss Voigt Hill
#
# Bulk Modulus (GPa) = 42.23276 49.06153 45.64715
# Shear Modulus (GPa) = 16.99029 18.76177 17.87603
#
# Velocity S-wave (km/s) = 3.51115 3.68966 3.60151
# Velocity P-wave (km/s) = 6.86162 7.33148 7.10044
#
# Compressibility (1/GPa) = 0.02367830
#
# Stress axis : x y z
#
# Youngs Moduli (GPa) = 68.81977 39.44325 31.30521
#
# Poissons Ratio (x) = 0.31946 0.11742
# Poissons Ratio (y) = 0.55738 0.38269
# Poissons Ratio (z) = 0.25813 0.48217
#
# Static dielectric constant tensor:
#      x y z
#    x 1.476470 0.000000 0.000000 
#    y 0.000000 1.453560 0.000000 
#    z 0.000000 0.000000 1.460430 
# 
# From -- ./inp_files/15542.got.cif
#   From: 2010.05.17/outbox.cif.g08.bks.cpg/sg71_8_cif.got.tgz:15542.got - 2010.06.03 16:22:01.
