data_PCOD9518325
_publ_section_title
;
Structure prediction by ZEFSAII (Michael W. Deem and Ramdas Pophale) SiO2 
 PCOD9518325
Probable space group: I M M M
;
_chemical_formula_sum "Si O2"
_cell_formula_units_Z 80
_cell_length_a 10.666903
_cell_length_b 19.053935
_cell_length_c 22.991127
_cell_angle_alpha 90.000000
_cell_angle_beta 90.000000
_cell_angle_gamma 90.000000
_cell_volume 4672.865552
_symmetry_space_group_name_H-M "I M M M"
_symmetry_group_IT_number 71
_symmetry_cell_setting 'orthorhombic'
loop_
_space_group_symop_operation_xyz
x,y,z
-x,-y,z
x,-y,-z
-x,y,-z
-x,-y,-z
x,y,-z
-x,y,z
x,-y,z
1/2+x,1/2+y,1/2+z
1/2-x,1/2-y,1/2+z
1/2+x,1/2-y,1/2-z
1/2-x,1/2+y,1/2-z
1/2-x,1/2-y,1/2-z
1/2+x,1/2+y,1/2-z
1/2-x,1/2+y,1/2+z
1/2+x,1/2-y,1/2+z
loop_
_atom_site_type_symbol
_atom_site_label
_atom_site_fract_x
_atom_site_fract_y
_atom_site_fract_z
Si Si1 0.500000 0.084055 0.070163
Si Si2 0.746339 0.161721 0.893829
Si Si3 0.151151 0.186641 0.567576
Si Si4 0.150204 0.189061 0.767287
Si Si5 0.645515 0.422277 0.500000
Si Si6 0.150923 0.920897 0.334645
O O1 0.382026 0.117705 0.102840
O O2 0.500000 0.000000 0.072947
O O3 0.500000 0.103712 0.000000
O O4 0.713590 0.241020 0.912437
O O5 0.815635 0.164748 0.832313
O O6 0.823121 0.122614 0.943582
O O7 0.177407 0.173131 0.500000
O O8 0.193167 0.123704 0.609448
O O9 0.000000 0.195011 0.573757
O O10 0.250000 0.250000 0.750000
O O11 0.173837 0.125589 0.722378
O O12 0.000000 0.208117 0.762987
O O13 0.709441 0.500000 0.500000
O O14 0.500000 0.433005 0.500000
O O15 0.000000 0.925843 0.339650
O O16 0.201076 0.000000 0.331821
#
# Coordination Sequence:
#
# PCOD9518325 Si02
#       6
#     8  16  16  16   8  16
#     4  11  22  36  58  90 125 163 202 252 312 367
#     4  12  21  36  59  86 119 156 204 248 298 363
#     4  10  18  31  55  88 114 147 192 242 296 351
#     4  11  24  40  64  89 119 159 204 250 304 364
#     4  11  24  39  55  81 120 160 200 250 307 369
#     4   9  19  36  57  83 117 152 190 240 299 357
#
# _framework density 17.120115999999999
#
# number of rings (size 3 to 8) (size 9 to 14) (size 15 to 20)
#    0.000    1.400    5.000    1.200    1.400    2.000 
#    0.000    4.000    0.000    0.000    0.000    0.000 
#    0.000    2.400    0.000    0.000    0.000    0.000 
#
# Total GULP energy -223023.221904 kJ/mol
# GULP energy per Si atom -5575.580548 kJ/mol
# Density = 1.708115 g / cm^3
# Si number density = 17.120116 Si / 1000 Ang^3
#
#
#
# Elastic Constant Matrix: (Units=GPa)
#
#
# Indices 1 2 3 4 5 6 
#
# 1 77.0900 44.6750 37.7092 0.0000 0.0000 0.0000
# 2 44.6750 166.7900 86.8865 0.0000 0.0000 0.0000
# 3 37.7092 86.8865 158.1936 0.0000 0.0000 0.0000
# 4 0.0000 0.0000 0.0000 22.2825 0.0000 0.0000
# 5 0.0000 0.0000 0.0000 0.0000 28.9353 0.0000
# 6 0.0000 0.0000 0.0000 0.0000 0.0000 16.7091
#
#
#
# Elastic Compliance Matrix: (Units=1/GPa)
#
#
# Indices 1 2 3 4 5 6 
#
# 1 0.015803 -0.003181 -0.002020 0.000000 0.000000 0.000000
# 2 -0.003181 0.009039 -0.004206 0.000000 0.000000 0.000000
# 3 -0.002020 -0.004206 0.009113 0.000000 0.000000 0.000000
# 4 0.000000 0.000000 0.000000 0.044878 0.000000 0.000000
# 5 0.000000 0.000000 0.000000 0.000000 0.034560 0.000000
# 6 0.000000 0.000000 0.000000 0.000000 0.000000 0.059848
#
#
# Mechanical properties :
#
#
# Convention : Reuss Voigt Hill
#
# Bulk Modulus (GPa) = 66.04539 82.29054 74.16796
# Shear Modulus (GPa) = 25.36757 29.10555 27.23656
#
# Velocity S-wave (km/s) = 3.85351 4.12767 3.99295
# Velocity P-wave (km/s) = 7.64597 8.41949 8.04204
#
# Compressibility (1/GPa) = 0.01514110
#
# Stress axis : x y z
#
# Youngs Moduli (GPa) = 63.27823 110.63601 109.73120
#
# Poissons Ratio (x) = 0.35188 0.22168
# Poissons Ratio (y) = 0.20126 0.46156
# Poissons Ratio (z) = 0.12783 0.46536
#
# Static dielectric constant tensor:
#      x y z
#    x 1.612210 0.000000 0.000000 
#    y 0.000000 1.574420 0.000000 
#    z 0.000000 0.000000 1.560870 
# 
# From -- ./inp_files/51714.got.cif
#   From: 2010.05.17/outbox.cif.g08.bks.cpg/sg71_26_cif.got.tgz:51714.got - 2010.06.03 16:22:01.
