data_PCOD9518804
_publ_section_title
;
Structure prediction by ZEFSAII (Michael W. Deem and Ramdas Pophale) SiO2 
 PCOD9518804
Probable space group: I M M M
;
_chemical_formula_sum "Si O2"
_cell_formula_units_Z 72
_cell_length_a 8.541395
_cell_length_b 15.087685
_cell_length_c 36.672532
_cell_angle_alpha 90.000000
_cell_angle_beta 90.000000
_cell_angle_gamma 90.000000
_cell_volume 4725.984696
_symmetry_space_group_name_H-M "I M M M"
_symmetry_group_IT_number 71
_symmetry_cell_setting 'orthorhombic'
loop_
_space_group_symop_operation_xyz
x,y,z
-x,-y,z
x,-y,-z
-x,y,-z
-x,-y,-z
x,y,-z
-x,y,z
x,-y,z
1/2+x,1/2+y,1/2+z
1/2-x,1/2-y,1/2+z
1/2+x,1/2-y,1/2-z
1/2-x,1/2+y,1/2-z
1/2-x,1/2-y,1/2-z
1/2+x,1/2+y,1/2-z
1/2-x,1/2+y,1/2+z
1/2+x,1/2-y,1/2+z
loop_
_atom_site_type_symbol
_atom_site_label
_atom_site_fract_x
_atom_site_fract_y
_atom_site_fract_z
Si Si1 0.690500 0.000000 0.728386
Si Si2 0.311767 0.801551 0.713699
Si Si3 0.813145 0.896538 0.921688
Si Si4 0.309916 0.000000 0.812043
Si Si5 0.187930 0.319420 0.649959
Si Si6 0.820767 0.392770 0.500000
O O1 0.740712 0.095371 0.713139
O O2 0.740053 0.000000 0.770478
O O3 0.500000 0.000000 0.727037
O O4 0.500000 0.799439 0.715964
O O5 0.250000 0.750000 0.750000
O O6 0.256137 0.754956 0.676575
O O7 0.742941 0.830777 0.891537
O O8 0.000000 0.897062 0.918794
O O9 0.758410 0.000000 0.915984
O O10 0.763296 0.868477 0.962355
O O11 0.257760 0.911817 0.831915
O O12 0.500000 0.000000 0.812463
O O13 0.000000 0.314307 0.651088
O O14 0.821909 0.500000 0.500000
O O15 0.000000 0.361823 0.500000
#
# Coordination Sequence:
#
# PCOD9518804 Si02
#       6
#     8  16  16   8  16   8
#     4   9  18  34  50  64  89 124 157 194 246 293
#     4  11  21  34  50  69  91 122 160 201 243 288
#     4  10  19  30  45  68  96 125 160 201 236 275
#     4   9  16  28  46  65  89 122 157 191 237 285
#     4  11  20  32  48  68  94 126 161 200 241 286
#     4   9  17  29  45  65  91 128 163 190 233 287
#
# _framework density 15.234919
#
# number of rings (size 3 to 8) (size 9 to 14) (size 15 to 20)
#    0.000    1.889    3.333    2.333    0.000    2.222 
#    0.000    3.333    0.000    0.000    0.000    0.000 
#    0.000    0.889    0.000    9.556    0.000    4.222 
#
# Total GULP energy -200655.846173 kJ/mol
# GULP energy per Si atom -5573.773505 kJ/mol
# Density = 1.520024 g / cm^3
# Si number density = 15.234919 Si / 1000 Ang^3
#
#
#
# Elastic Constant Matrix: (Units=GPa)
#
#
# Indices 1 2 3 4 5 6 
#
# 1 44.8355 23.4762 27.5352 0.0000 0.0000 0.0000
# 2 23.4762 98.5521 60.6195 0.0000 0.0000 0.0000
# 3 27.5352 60.6195 130.7905 0.0000 0.0000 0.0000
# 4 0.0000 0.0000 0.0000 5.4123 0.0000 0.0000
# 5 0.0000 0.0000 0.0000 0.0000 28.1602 0.0000
# 6 0.0000 0.0000 0.0000 0.0000 0.0000 16.1365
#
#
#
# Elastic Compliance Matrix: (Units=1/GPa)
#
#
# Indices 1 2 3 4 5 6 
#
# 1 0.026731 -0.004065 -0.003744 0.000000 0.000000 0.000000
# 2 -0.004065 0.014811 -0.006009 0.000000 0.000000 0.000000
# 3 -0.003744 -0.006009 0.011219 0.000000 0.000000 0.000000
# 4 0.000000 0.000000 0.000000 0.184765 0.000000 0.000000
# 5 0.000000 0.000000 0.000000 0.000000 0.035511 0.000000
# 6 0.000000 0.000000 0.000000 0.000000 0.000000 0.061971
#
#
# Mechanical properties :
#
#
# Convention : Reuss Voigt Hill
#
# Bulk Modulus (GPa) = 39.79877 55.27110 47.53493
# Shear Modulus (GPa) = 13.47637 20.77828 17.12733
#
# Velocity S-wave (km/s) = 2.97740 3.69705 3.35657
# Velocity P-wave (km/s) = 6.16441 7.38798 6.80376
#
# Compressibility (1/GPa) = 0.02512640
#
# Stress axis : x y z
#
# Youngs Moduli (GPa) = 37.40933 67.51534 89.13372
#
# Poissons Ratio (x) = 0.27445 0.33369
# Poissons Ratio (y) = 0.15207 0.53561
# Poissons Ratio (z) = 0.14005 0.40571
#
# Static dielectric constant tensor:
#      x y z
#    x 1.524120 0.000000 0.000000 
#    y 0.000000 1.510770 0.000000 
#    z 0.000000 0.000000 1.510370 
# 
# From -- ./inp_files/67884.got.cif
#   From: 2010.05.17/outbox.cif.g08.bks.cpg/sg71_34_cif.got.tgz:67884.got - 2010.06.03 16:22:01.
