data_PCOD9518073
_publ_section_title
;
Structure prediction by ZEFSAII (Michael W. Deem and Ramdas Pophale) SiO2 
 PCOD9518073
Probable space group: I M M M
;
_chemical_formula_sum "Si O2"
_cell_formula_units_Z 116
_cell_length_a 28.451939
_cell_length_b 26.819429
_cell_length_c 7.701917
_cell_angle_alpha 90.000000
_cell_angle_beta 90.000000
_cell_angle_gamma 90.000000
_cell_volume 5877.061431
_symmetry_space_group_name_H-M "I M M M"
_symmetry_group_IT_number 71
_symmetry_cell_setting 'orthorhombic'
loop_
_space_group_symop_operation_xyz
x,y,z
-x,-y,z
x,-y,-z
-x,y,-z
-x,-y,-z
x,y,-z
-x,y,z
x,-y,z
1/2+x,1/2+y,1/2+z
1/2-x,1/2-y,1/2+z
1/2+x,1/2-y,1/2-z
1/2-x,1/2+y,1/2-z
1/2-x,1/2-y,1/2-z
1/2+x,1/2+y,1/2-z
1/2-x,1/2+y,1/2+z
1/2+x,1/2-y,1/2+z
loop_
_atom_site_type_symbol
_atom_site_label
_atom_site_fract_x
_atom_site_fract_y
_atom_site_fract_z
Si Si1 0.811511 0.722352 0.197928
Si Si2 0.358835 0.055975 0.294841
Si Si3 0.949286 0.615774 0.790218
Si Si4 0.500000 0.368160 0.500000
Si Si5 0.069523 0.165173 0.703150
Si Si6 0.083133 0.722738 0.296389
Si Si7 0.821446 0.834045 0.212139
Si Si8 0.770201 0.619969 0.303412
O O1 0.867864 0.716343 0.197692
O O2 0.804817 0.778368 0.266423
O O3 0.790313 0.676353 0.300677
O O4 0.794522 0.719127 0.000000
O O5 0.367659 0.051873 0.500000
O O6 0.403171 0.087120 0.222729
O O7 0.310040 0.085558 0.277813
O O8 0.356008 0.000000 0.222689
O O9 0.946333 0.673519 0.737133
O O10 0.000000 0.594902 0.734304
O O11 0.948065 0.614479 0.000000
O O12 0.459228 0.365309 0.345018
O O13 0.057161 0.157101 0.500000
O O14 0.060768 0.223953 0.748300
O O15 0.125761 0.157895 0.723305
O O16 0.094741 0.725827 0.500000
O O17 0.782235 0.873585 0.271272
O O18 0.822381 0.833395 0.000000
O O19 0.765160 0.602464 0.500000
#
# Coordination Sequence:
#
# PCOD9518073 Si02
#       8
#    16  16  16   4  16  16  16  16
#     4  10  18  30  50  72 102 139 174 214 271 328
#     4  10  22  40  57  75 100 133 178 229 283 348
#     4  10  21  34  53  74  95 130 173 226 292 347
#     4  12  22  36  56  70 116 156 196 236 270 304
#     4  10  22  35  52  78 107 153 196 231 272 320
#     4  10  20  32  47  71 103 133 180 229 273 327
#     4   9  19  35  51  75 111 145 178 224 272 322
#     4  11  21  33  54  80 105 137 173 217 280 340
#
# _framework density 19.737756000000001
#
# number of rings (size 3 to 8) (size 9 to 14) (size 15 to 20)
#    0.000    1.931    2.069    1.862    2.897    2.483 
#    0.000    1.379    0.000    0.000    0.000    1.931 
#    0.000    0.000    0.000    1.241    0.000    5.241 
#
# Total GULP energy -323151.928323 kJ/mol
# GULP energy per Si atom -5571.584971 kJ/mol
# Density = 1.969283 g / cm^3
# Si number density = 19.737756 Si / 1000 Ang^3
#
#
#
# Elastic Constant Matrix: (Units=GPa)
#
#
# Indices 1 2 3 4 5 6 
#
# 1 103.9915 41.2549 13.2656 0.0000 0.0000 0.0000
# 2 41.2549 38.0405 0.6925 0.0000 0.0000 0.0000
# 3 13.2656 0.6925 63.1503 0.0000 0.0000 0.0000
# 4 0.0000 0.0000 0.0000 5.1740 0.0000 0.0000
# 5 0.0000 0.0000 0.0000 0.0000 23.8020 0.0000
# 6 0.0000 0.0000 0.0000 0.0000 0.0000 2.2773
#
#
#
# Elastic Compliance Matrix: (Units=1/GPa)
#
#
# Indices 1 2 3 4 5 6 
#
# 1 0.017615 -0.019040 -0.003491 0.000000 0.000000 0.000000
# 2 -0.019040 0.046873 0.003486 0.000000 0.000000 0.000000
# 3 -0.003491 0.003486 0.016530 0.000000 0.000000 0.000000
# 4 0.000000 0.000000 0.000000 0.193276 0.000000 0.000000
# 5 0.000000 0.000000 0.000000 0.000000 0.042013 0.000000
# 6 0.000000 0.000000 0.000000 0.000000 0.000000 0.439119
#
#
# Mechanical properties :
#
#
# Convention : Reuss Voigt Hill
#
# Bulk Modulus (GPa) = 23.29540 35.06761 29.18151
# Shear Modulus (GPa) = 6.18945 16.24858 11.21902
#
# Velocity S-wave (km/s) = 1.77275 2.87230 2.38671
# Velocity P-wave (km/s) = 4.00228 5.36707 4.73412
#
# Compressibility (1/GPa) = 0.04292693
#
# Stress axis : x y z
#
# Youngs Moduli (GPa) = 56.76996 21.33420 60.49443
#
# Poissons Ratio (x) = 0.40620 0.21121
# Poissons Ratio (y) = 1.08089 -0.21086
# Poissons Ratio (z) = 0.19821 -0.07436
#
# Static dielectric constant tensor:
#      x y z
#    x 1.751360 0.000000 0.000000 
#    y 0.000000 1.674780 0.000000 
#    z 0.000000 0.000000 1.721080 
# 
# From -- ./inp_files/15661.got.cif
#   From: 2010.05.17/outbox.cif.g08.bks.cpg/sg71_8_cif.got.tgz:15661.got - 2010.06.03 16:22:01.
