data_PCOD9518514
_publ_section_title
;
Structure prediction by ZEFSAII (Michael W. Deem and Ramdas Pophale) SiO2 
 PCOD9518514
Probable space group: I M M M
;
_chemical_formula_sum "Si O2"
_cell_formula_units_Z 88
_cell_length_a 15.406850
_cell_length_b 17.032202
_cell_length_c 18.577373
_cell_angle_alpha 90.000000
_cell_angle_beta 90.000000
_cell_angle_gamma 90.000000
_cell_volume 4874.936404
_symmetry_space_group_name_H-M "I M M M"
_symmetry_group_IT_number 71
_symmetry_cell_setting 'orthorhombic'
loop_
_space_group_symop_operation_xyz
x,y,z
-x,-y,z
x,-y,-z
-x,y,-z
-x,-y,-z
x,y,-z
-x,y,z
x,-y,z
1/2+x,1/2+y,1/2+z
1/2-x,1/2-y,1/2+z
1/2+x,1/2-y,1/2-z
1/2-x,1/2+y,1/2-z
1/2-x,1/2-y,1/2-z
1/2+x,1/2+y,1/2-z
1/2-x,1/2+y,1/2+z
1/2+x,1/2-y,1/2+z
loop_
_atom_site_type_symbol
_atom_site_label
_atom_site_fract_x
_atom_site_fract_y
_atom_site_fract_z
Si Si1 0.600444 0.162893 0.129880
Si Si2 0.646190 0.328612 0.083236
Si Si3 0.896441 0.411732 0.219950
Si Si4 0.714534 0.093546 0.000000
Si Si5 0.896129 0.000000 0.417011
Si Si6 0.148316 0.682168 0.922422
Si Si7 0.097321 0.829745 0.000000
O O1 0.500000 0.137601 0.117366
O O2 0.603023 0.257269 0.125111
O O3 0.631517 0.132500 0.207527
O O4 0.663861 0.129450 0.068591
O O5 0.633159 0.416223 0.113796
O O6 0.748136 0.310644 0.080425
O O7 0.613273 0.328241 0.000000
O O8 0.859887 0.500000 0.216446
O O9 0.878918 0.364581 0.147245
O O10 0.000000 0.417527 0.226045
O O11 0.816526 0.117240 0.000000
O O12 0.706343 0.000000 0.000000
O O13 0.863002 0.000000 0.500000
O O14 0.000000 0.000000 0.417971
O O15 0.126707 0.642145 0.000000
O O16 0.107696 0.768625 0.932900
O O17 0.000000 0.864102 0.000000
#
# Coordination Sequence:
#
# PCOD9518514 Si02
#       7
#    16  16  16   8   8  16   8
#     4  11  21  37  59  84 119 159 192 236 287 342
#     4  10  18  34  54  84 116 149 197 236 280 346
#     4  10  22  36  52  84 120 149 191 243 296 345
#     4  12  23  39  60  89 117 152 201 231 274 347
#     4   9  18  28  48  82 118 152 185 237 288 337
#     4   9  19  36  60  82 106 147 194 238 292 352
#     4  10  20  40  62  86 112 141 191 249 294 338
#
# _framework density 18.051518999999999
#
# number of rings (size 3 to 8) (size 9 to 14) (size 15 to 20)
#    0.545    1.364    2.727    1.909    1.273    3.455 
#    0.000    0.909    0.000    0.000    0.000    0.000 
#    0.000    0.000    0.000    0.000    0.000    0.000 
#
# Total GULP energy -245060.530395 kJ/mol
# GULP energy per Si atom -5569.557509 kJ/mol
# Density = 1.801043 g / cm^3
# Si number density = 18.051519 Si / 1000 Ang^3
#
#
#
# Elastic Constant Matrix: (Units=GPa)
#
#
# Indices 1 2 3 4 5 6 
#
# 1 81.0092 20.4278 18.6982 0.0000 0.0000 0.0000
# 2 20.4278 116.9389 44.9912 0.0000 0.0000 0.0000
# 3 18.6982 44.9912 116.2568 0.0000 0.0000 0.0000
# 4 0.0000 0.0000 0.0000 3.6469 0.0000 0.0000
# 5 0.0000 0.0000 0.0000 0.0000 2.2924 0.0000
# 6 0.0000 0.0000 0.0000 0.0000 0.0000 23.1626
#
#
#
# Elastic Compliance Matrix: (Units=1/GPa)
#
#
# Indices 1 2 3 4 5 6 
#
# 1 0.013114 -0.001738 -0.001437 0.000000 0.000000 0.000000
# 2 -0.001738 0.010278 -0.003698 0.000000 0.000000 0.000000
# 3 -0.001437 -0.003698 0.010264 0.000000 0.000000 0.000000
# 4 0.000000 0.000000 0.000000 0.274207 0.000000 0.000000
# 5 0.000000 0.000000 0.000000 0.000000 0.436223 0.000000
# 6 0.000000 0.000000 0.000000 0.000000 0.000000 0.043173
#
#
# Mechanical properties :
#
#
# Convention : Reuss Voigt Hill
#
# Bulk Modulus (GPa) = 50.22488 53.60437 51.91463
# Shear Modulus (GPa) = 6.19087 21.15956 13.67521
#
# Velocity S-wave (km/s) = 1.85391 3.42742 2.75538
# Velocity P-wave (km/s) = 5.69791 6.73963 6.24054
#
# Compressibility (1/GPa) = 0.01991045
#
# Stress axis : x y z
#
# Youngs Moduli (GPa) = 76.25344 97.29643 97.42983
#
# Poissons Ratio (x) = 0.16912 0.13996
# Poissons Ratio (y) = 0.13254 0.36029
# Poissons Ratio (z) = 0.10954 0.35980
#
# Static dielectric constant tensor:
#      x y z
#    x 1.633480 0.000000 0.000000 
#    y 0.000000 1.646590 0.000000 
#    z 0.000000 0.000000 1.619530 
# 
# From -- ./inp_files/44734.got.cif
#   From: 2010.05.17/outbox.cif.g08.bks.cpg/sg71_23_cif.got.tgz:44734.got - 2010.06.03 16:22:01.
