data_PCOD9518988
_publ_section_title
;
Structure prediction by ZEFSAII (Michael W. Deem and Ramdas Pophale) SiO2 
 PCOD9518988
Probable space group: I M M M
;
_chemical_formula_sum "Si O2"
_cell_formula_units_Z 80
_cell_length_a 8.802623
_cell_length_b 33.750356
_cell_length_c 19.761889
_cell_angle_alpha 90.000000
_cell_angle_beta 90.000000
_cell_angle_gamma 90.000000
_cell_volume 5871.092407
_symmetry_space_group_name_H-M "I M M M"
_symmetry_group_IT_number 71
_symmetry_cell_setting 'orthorhombic'
loop_
_space_group_symop_operation_xyz
x,y,z
-x,-y,z
x,-y,-z
-x,y,-z
-x,-y,-z
x,y,-z
-x,y,z
x,-y,z
1/2+x,1/2+y,1/2+z
1/2-x,1/2-y,1/2+z
1/2+x,1/2-y,1/2-z
1/2-x,1/2+y,1/2-z
1/2-x,1/2-y,1/2-z
1/2+x,1/2+y,1/2-z
1/2-x,1/2+y,1/2+z
1/2+x,1/2-y,1/2+z
loop_
_atom_site_type_symbol
_atom_site_label
_atom_site_fract_x
_atom_site_fract_y
_atom_site_fract_z
Si Si1 0.316781 0.230085 0.350649
Si Si2 0.319330 0.877216 0.132343
Si Si3 0.817442 0.045787 0.920870
Si Si4 0.315927 0.242673 0.500000
Si Si5 0.682606 0.664402 0.500000
Si Si6 0.681155 0.312496 0.276078
O O1 0.500000 0.225809 0.347027
O O2 0.265442 0.225033 0.428213
O O3 0.282379 0.275008 0.325426
O O4 0.240001 0.200807 0.297289
O O5 0.500000 0.875736 0.129952
O O6 0.261986 0.922277 0.126572
O O7 0.248902 0.855980 0.066376
O O8 0.258460 0.851854 0.195364
O O9 0.000000 0.050260 0.916486
O O10 0.780294 0.000000 0.905816
O O11 0.776018 0.053136 0.000000
O O12 0.500000 0.240468 0.500000
O O13 0.278305 0.289234 0.500000
O O14 0.500000 0.660472 0.500000
O O15 0.500000 0.317167 0.276346
#
# Coordination Sequence:
#
# PCOD9518988 Si02
#       6
#    16  16  16   8   8  16
#     4   9  17  30  45  62  83 109 144 182 220 259
#     4  12  22  30  43  65  87 111 144 185 222 255
#     4   9  18  32  48  63  82 112 145 176 215 261
#     4   9  16  29  47  62  80 111 144 180 224 262
#     4  11  19  31  44  60  83 113 149 181 217 260
#     4  10  19  31  45  60  83 115 145 178 219 259
#
# _framework density 13.626084000000001
#
# number of rings (size 3 to 8) (size 9 to 14) (size 15 to 20)
#    0.000    2.000    3.000    3.300    0.000    1.200 
#    0.000    1.500    0.000    0.000    0.000    0.000 
#    0.000    0.000    0.000    0.900    0.000   17.400 
#
# Total GULP energy -223121.544599 kJ/mol
# GULP energy per Si atom -5578.038615 kJ/mol
# Density = 1.359507 g / cm^3
# Si number density = 13.626084 Si / 1000 Ang^3
#
#
#
# Elastic Constant Matrix: (Units=GPa)
#
#
# Indices 1 2 3 4 5 6 
#
# 1 51.8501 43.2828 30.5437 0.0000 0.0000 0.0000
# 2 43.2828 91.6922 46.8524 0.0000 0.0000 0.0000
# 3 30.5437 46.8524 93.9297 -0.0001 0.0000 0.0000
# 4 0.0000 0.0000 -0.0001 20.6835 0.0000 0.0000
# 5 0.0000 0.0000 0.0000 0.0000 18.7416 0.0000
# 6 0.0000 0.0000 0.0000 0.0000 0.0000 16.9811
#
#
#
# Elastic Compliance Matrix: (Units=1/GPa)
#
#
# Indices 1 2 3 4 5 6 
#
# 1 0.032890 -0.013502 -0.003960 0.000000 0.000000 0.000000
# 2 -0.013502 0.020179 -0.005675 0.000000 0.000000 0.000000
# 3 -0.003960 -0.005675 0.014765 0.000000 0.000000 0.000000
# 4 0.000000 0.000000 0.000000 0.048348 0.000000 0.000000
# 5 0.000000 0.000000 0.000000 0.000000 0.053357 0.000000
# 6 0.000000 0.000000 0.000000 0.000000 0.000000 0.058889
#
#
# Mechanical properties :
#
#
# Convention : Reuss Voigt Hill
#
# Bulk Modulus (GPa) = 46.38264 53.20332 49.79298
# Shear Modulus (GPa) = 17.73742 19.06745 18.40244
#
# Velocity S-wave (km/s) = 3.61186 3.74483 3.67894
# Velocity P-wave (km/s) = 7.17687 7.60449 7.39377
#
# Compressibility (1/GPa) = 0.02155979
#
# Stress axis : x y z
#
# Youngs Moduli (GPa) = 30.40400 49.55547 67.72895
#
# Poissons Ratio (x) = 0.66910 0.26823
# Poissons Ratio (y) = 0.41052 0.38436
# Poissons Ratio (z) = 0.12041 0.28123
#
# Static dielectric constant tensor:
#      x y z
#    x 1.451140 0.000000 0.000000 
#    y 0.000000 1.442250 0.000000 
#    z 0.000000 0.000000 1.445870 
# 
# From -- ./inp_files/8671.got.cif
#   From: 2010.05.17/outbox.cif.g08.bks.cpg/sg71_5_cif.got.tgz:8671.got - 2010.06.03 16:22:01.
