data_PCOD9518164
_publ_section_title
;
Structure prediction by ZEFSAII (Michael W. Deem and Ramdas Pophale) SiO2 
 PCOD9518164
Probable space group: I M M M
;
_chemical_formula_sum "Si O2"
_cell_formula_units_Z 80
_cell_length_a 25.156370
_cell_length_b 12.863231
_cell_length_c 13.592331
_cell_angle_alpha 90.000000
_cell_angle_beta 90.000000
_cell_angle_gamma 90.000000
_cell_volume 4398.372270
_symmetry_space_group_name_H-M "I M M M"
_symmetry_group_IT_number 71
_symmetry_cell_setting 'orthorhombic'
loop_
_space_group_symop_operation_xyz
x,y,z
-x,-y,z
x,-y,-z
-x,y,-z
-x,-y,-z
x,y,-z
-x,y,z
x,-y,z
1/2+x,1/2+y,1/2+z
1/2-x,1/2-y,1/2+z
1/2+x,1/2-y,1/2-z
1/2-x,1/2+y,1/2-z
1/2-x,1/2-y,1/2-z
1/2+x,1/2+y,1/2-z
1/2-x,1/2+y,1/2+z
1/2+x,1/2-y,1/2+z
loop_
_atom_site_type_symbol
_atom_site_label
_atom_site_fract_x
_atom_site_fract_y
_atom_site_fract_z
Si Si1 0.179110 0.500000 0.118713
Si Si2 0.890480 0.319972 0.211973
Si Si3 0.061670 0.881512 0.881327
Si Si4 0.698517 0.500000 0.881009
Si Si5 0.000000 0.386715 0.709399
Si Si6 0.000000 0.166277 0.385710
Si Si7 0.617691 0.321368 0.118476
O O1 0.149557 0.602040 0.160083
O O2 0.240685 0.500000 0.151333
O O3 0.176616 0.500000 0.000000
O O4 0.901133 0.210879 0.156583
O O5 0.947783 0.373840 0.224230
O O6 0.874281 0.284882 0.322052
O O7 0.000000 0.863164 0.848930
O O8 0.076412 0.000000 0.853687
O O9 0.061374 0.877954 0.000000
O O10 0.664104 0.600109 0.852845
O O11 0.699415 0.500000 0.000000
O O12 0.000000 0.290538 0.633800
O O13 0.000000 0.500000 0.661886
O O14 0.941029 0.134293 0.351043
O O15 0.000000 0.139292 0.500000
O O16 0.616960 0.308299 0.000000
#
# Coordination Sequence:
#
# PCOD9518164 Si02
#       7
#     8  16  16   8   8   8  16
#     4  11  24  39  56  80 107 146 197 239 275 321
#     4  11  20  34  56  82 111 146 186 229 271 335
#     4   9  18  32  50  75 110 148 182 224 282 334
#     4   9  20  39  57  78 110 147 186 233 285 323
#     4  10  18  31  46  75 115 144 173 218 267 319
#     4   8  16  30  50  80 109 138 179 213 264 334
#     4   9  19  35  56  82 113 145 177 223 279 336
#
# _framework density 18.188545999999999
#
# number of rings (size 3 to 8) (size 9 to 14) (size 15 to 20)
#    0.000    2.400    2.000    1.200    1.400    1.400 
#    0.000    3.000    0.000    0.000    0.000    1.400 
#    0.000    0.000    0.000    0.000    0.000    0.000 
#
# Total GULP energy -222933.808815 kJ/mol
# GULP energy per Si atom -5573.345220 kJ/mol
# Density = 1.814715 g / cm^3
# Si number density = 18.188546 Si / 1000 Ang^3
#
#
#
# Elastic Constant Matrix: (Units=GPa)
#
#
# Indices 1 2 3 4 5 6 
#
# 1 145.9802 70.6377 39.6967 0.0000 0.0000 0.0000
# 2 70.6377 127.6236 35.0052 0.0000 0.0000 0.0000
# 3 39.6967 35.0052 65.8702 0.0000 0.0000 0.0000
# 4 0.0000 0.0000 0.0000 23.0188 0.0000 0.0000
# 5 0.0000 0.0000 0.0000 0.0000 21.6340 0.0000
# 6 0.0000 0.0000 0.0000 0.0000 0.0000 20.9222
#
#
#
# Elastic Compliance Matrix: (Units=1/GPa)
#
#
# Indices 1 2 3 4 5 6 
#
# 1 0.010046 -0.004565 -0.003628 0.000000 0.000000 0.000000
# 2 -0.004565 0.011247 -0.003226 0.000000 0.000000 0.000000
# 3 -0.003628 -0.003226 0.019082 0.000000 0.000000 0.000000
# 4 0.000000 0.000000 0.000000 0.043443 0.000000 0.000000
# 5 0.000000 0.000000 0.000000 0.000000 0.046224 0.000000
# 6 0.000000 0.000000 0.000000 0.000000 0.000000 0.047796
#
#
# Mechanical properties :
#
#
# Convention : Reuss Voigt Hill
#
# Bulk Modulus (GPa) = 57.02242 70.01703 63.51973
# Shear Modulus (GPa) = 24.21060 26.05729 25.13394
#
# Velocity S-wave (km/s) = 3.65237 3.78910 3.72136
# Velocity P-wave (km/s) = 7.01464 7.59748 7.31187
#
# Compressibility (1/GPa) = 0.01753696
#
# Stress axis : x y z
#
# Youngs Moduli (GPa) = 99.54392 88.91231 52.40501
#
# Poissons Ratio (x) = 0.40589 0.19013
# Poissons Ratio (y) = 0.45443 0.16905
# Poissons Ratio (z) = 0.36116 0.28682
#
# Static dielectric constant tensor:
#      x y z
#    x 1.625750 0.000000 0.000000 
#    y 0.000000 1.632290 0.000000 
#    z 0.000000 0.000000 1.661780 
# 
# From -- ./inp_files/38998.got.cif
#   From: 2010.05.17/outbox.cif.g08.bks.cpg/sg71_20_cif.got.tgz:38998.got - 2010.06.03 16:22:01.
