data_PCOD9518746
_publ_section_title
;
Structure prediction by ZEFSAII (Michael W. Deem and Ramdas Pophale) SiO2 
 PCOD9518746
Probable space group: I M M M
;
_chemical_formula_sum "Si O2"
_cell_formula_units_Z 88
_cell_length_a 9.067523
_cell_length_b 23.774369
_cell_length_c 34.124407
_cell_angle_alpha 90.000000
_cell_angle_beta 90.000000
_cell_angle_gamma 90.000000
_cell_volume 7356.356676
_symmetry_space_group_name_H-M "I M M M"
_symmetry_group_IT_number 71
_symmetry_cell_setting 'orthorhombic'
loop_
_space_group_symop_operation_xyz
x,y,z
-x,-y,z
x,-y,-z
-x,y,-z
-x,-y,-z
x,y,-z
-x,y,z
x,-y,z
1/2+x,1/2+y,1/2+z
1/2-x,1/2-y,1/2+z
1/2+x,1/2-y,1/2-z
1/2-x,1/2+y,1/2-z
1/2-x,1/2-y,1/2-z
1/2+x,1/2+y,1/2-z
1/2-x,1/2+y,1/2+z
1/2+x,1/2-y,1/2+z
loop_
_atom_site_type_symbol
_atom_site_label
_atom_site_fract_x
_atom_site_fract_y
_atom_site_fract_z
Si Si1 0.176142 0.877453 0.343576
Si Si2 0.329939 0.568275 0.000000
Si Si3 0.831210 0.727647 0.190036
Si Si4 0.177397 0.565250 0.768350
Si Si5 0.325207 0.067609 0.418921
Si Si6 0.330784 0.171042 0.776869
O O1 0.232117 0.813969 0.335686
O O2 0.240239 0.914123 0.307391
O O3 0.244244 0.901873 0.383293
O O4 0.000000 0.880017 0.343894
O O5 0.245248 0.584892 0.039532
O O6 0.331140 0.500000 0.000000
O O7 0.500000 0.587144 0.000000
O O8 0.767881 0.790146 0.195510
O O9 0.829777 0.700359 0.233779
O O10 0.000000 0.727469 0.176454
O O11 0.207104 0.500000 0.760597
O O12 0.217847 0.607592 0.733036
O O13 0.000000 0.572033 0.774596
O O14 0.500000 0.078843 0.418206
O O15 0.305693 0.000000 0.414658
O O16 0.500000 0.171142 0.790668
#
# Coordination Sequence:
#
# PCOD9518746 Si02
#       6
#    16   8  16  16  16  16
#     4  11  20  27  37  53  71  89 112 145 180 210
#     4   9  17  29  43  57  71  87 111 141 170 203
#     4   9  16  26  38  50  65  86 111 138 171 209
#     4   9  17  28  39  51  69  92 115 140 174 214
#     4  10  19  30  42  54  70  92 115 139 172 213
#     4   8  14  24  37  51  66  85 110 139 169 203
#
# _framework density 11.962443
#
# number of rings (size 3 to 8) (size 9 to 14) (size 15 to 20)
#    0.000    2.636    0.000    4.636    0.000    9.091 
#    0.000    0.000    0.000    0.000    0.000    0.000 
#    0.000    0.000    0.000    0.000    0.000    0.000 
#
# Total GULP energy -245088.404956 kJ/mol
# GULP energy per Si atom -5570.191022 kJ/mol
# Density = 1.193522 g / cm^3
# Si number density = 11.962443 Si / 1000 Ang^3
#
#
#
# Elastic Constant Matrix: (Units=GPa)
#
#
# Indices 1 2 3 4 5 6 
#
# 1 83.5634 46.5569 37.1756 0.0000 0.0000 0.0000
# 2 46.5569 86.0231 37.1725 0.0000 0.0000 0.0000
# 3 37.1756 37.1725 38.8839 0.0000 0.0000 0.0000
# 4 0.0000 0.0000 0.0000 14.5124 0.0000 0.0000
# 5 0.0000 0.0000 0.0000 0.0000 16.5203 0.0000
# 6 0.0000 0.0000 0.0000 0.0000 0.0000 17.1609
#
#
#
# Elastic Compliance Matrix: (Units=1/GPa)
#
#
# Indices 1 2 3 4 5 6 
#
# 1 0.021922 -0.004784 -0.016385 0.000000 0.000000 0.000000
# 2 -0.004784 0.020851 -0.015360 0.000000 0.000000 0.000000
# 3 -0.016385 -0.015360 0.056067 0.000000 0.000000 0.000000
# 4 0.000000 0.000000 0.000000 0.068907 0.000000 0.000000
# 5 0.000000 0.000000 0.000000 0.000000 0.060532 0.000000
# 6 0.000000 0.000000 0.000000 0.000000 0.000000 0.058272
#
#
# Mechanical properties :
#
#
# Convention : Reuss Voigt Hill
#
# Bulk Modulus (GPa) = 38.78704 50.03114 44.40909
# Shear Modulus (GPa) = 13.57953 15.47643 14.52798
#
# Velocity S-wave (km/s) = 3.37290 3.60078 3.48870
# Velocity P-wave (km/s) = 6.90384 7.69427 7.30975
#
# Compressibility (1/GPa) = 0.02578181
#
# Stress axis : x y z
#
# Youngs Moduli (GPa) = 45.61685 47.95892 17.83588
#
# Poissons Ratio (x) = 0.22943 0.29225
# Poissons Ratio (y) = 0.21823 0.27395
# Poissons Ratio (z) = 0.74744 0.73664
#
# Static dielectric constant tensor:
#      x y z
#    x 1.402360 0.000000 0.000000 
#    y 0.000000 1.397010 0.000000 
#    z 0.000000 0.000000 1.359630 
# 
# From -- ./inp_files/13503.got.cif
#   From: 2010.05.17/outbox.cif.g08.bks.cpg/sg71_7_cif.got.tgz:13503.got - 2010.06.03 16:22:01.
