data_PCOD9518172
_publ_section_title
;
Structure prediction by ZEFSAII (Michael W. Deem and Ramdas Pophale) SiO2 
 PCOD9518172
Probable space group: I M M M
;
_chemical_formula_sum "Si O2"
_cell_formula_units_Z 96
_cell_length_a 8.783108
_cell_length_b 24.219186
_cell_length_c 29.991173
_cell_angle_alpha 90.000000
_cell_angle_beta 90.000000
_cell_angle_gamma 90.000000
_cell_volume 6379.714112
_symmetry_space_group_name_H-M "I M M M"
_symmetry_group_IT_number 71
_symmetry_cell_setting 'orthorhombic'
loop_
_space_group_symop_operation_xyz
x,y,z
-x,-y,z
x,-y,-z
-x,y,-z
-x,-y,-z
x,y,-z
-x,y,z
x,-y,z
1/2+x,1/2+y,1/2+z
1/2-x,1/2-y,1/2+z
1/2+x,1/2-y,1/2-z
1/2-x,1/2+y,1/2-z
1/2-x,1/2-y,1/2-z
1/2+x,1/2+y,1/2-z
1/2-x,1/2+y,1/2+z
1/2+x,1/2-y,1/2+z
loop_
_atom_site_type_symbol
_atom_site_label
_atom_site_fract_x
_atom_site_fract_y
_atom_site_fract_z
Si Si1 0.680863 0.769341 0.320049
Si Si2 0.824226 0.908508 0.000000
Si Si3 0.181131 0.723748 0.593107
Si Si4 0.680660 0.937443 0.188875
Si Si5 0.676513 0.726081 0.500000
Si Si6 0.815700 0.899521 0.096882
Si Si7 0.681163 0.663002 0.742622
O O1 0.500000 0.773877 0.326387
O O2 0.764382 0.762799 0.366982
O O3 0.711317 0.712670 0.292539
O O4 0.742144 0.818067 0.288671
O O5 0.821891 0.841334 0.000000
O O6 0.760907 0.923331 0.048795
O O7 0.000000 0.927019 0.000000
O O8 0.239839 0.743707 0.545026
O O9 0.258214 0.663640 0.600416
O O10 0.000000 0.717384 0.593203
O O11 0.500000 0.927643 0.185283
O O12 0.753837 0.930362 0.139969
O O13 0.752618 0.892457 0.221600
O O14 0.706214 0.000000 0.204412
O O15 0.500000 0.742622 0.500000
O O16 0.000000 0.899371 0.096716
O O17 0.500000 0.658942 0.748101
#
# Coordination Sequence:
#
# PCOD9518172 Si02
#       7
#    16   8  16  16   8  16  16
#     4  10  19  31  49  71  96 122 149 188 234 279
#     4   7  14  27  44  62  81 106 143 189 233 275
#     4  11  19  28  45  69  96 123 154 191 231 276
#     4  11  23  36  49  66  90 120 153 194 241 285
#     4   9  17  29  43  62  92 125 158 188 226 276
#     4  10  18  31  48  65  85 115 152 193 238 283
#     4  10  20  33  50  70  91 118 152 191 235 281
#
# _framework density 15.047696
#
# number of rings (size 3 to 8) (size 9 to 14) (size 15 to 20)
#    0.000    2.000    1.667    4.750    0.000    2.667 
#    0.000    1.667    0.000    2.500    0.000    0.000 
#    0.000    0.000    0.000    0.750    0.000   13.833 
#
# Total GULP energy -267799.403936 kJ/mol
# GULP energy per Si atom -5579.154249 kJ/mol
# Density = 1.501345 g / cm^3
# Si number density = 15.047696 Si / 1000 Ang^3
#
#
#
# Elastic Constant Matrix: (Units=GPa)
#
#
# Indices 1 2 3 4 5 6 
#
# 1 64.3541 29.1804 42.0936 0.0000 0.0000 0.0000
# 2 29.1804 53.5439 38.3573 0.0000 0.0000 0.0000
# 3 42.0936 38.3573 90.8825 0.0000 0.0000 0.0000
# 4 0.0000 0.0000 0.0000 9.7129 0.0000 0.0000
# 5 0.0000 0.0000 0.0000 0.0000 27.2521 0.0000
# 6 0.0000 0.0000 0.0000 0.0000 0.0000 16.3016
#
#
#
# Elastic Compliance Matrix: (Units=1/GPa)
#
#
# Indices 1 2 3 4 5 6 
#
# 1 0.024172 -0.007386 -0.008078 0.000000 0.000000 0.000000
# 2 -0.007386 0.029027 -0.008830 0.000000 0.000000 0.000000
# 3 -0.008078 -0.008830 0.018472 0.000000 0.000000 0.000000
# 4 0.000000 0.000000 0.000000 0.102956 0.000000 0.000000
# 5 0.000000 0.000000 0.000000 0.000000 0.036694 0.000000
# 6 0.000000 0.000000 0.000000 0.000000 0.000000 0.061344
#
#
# Mechanical properties :
#
#
# Convention : Reuss Voigt Hill
#
# Bulk Modulus (GPa) = 43.32423 47.56034 45.44229
# Shear Modulus (GPa) = 15.19998 17.26326 16.23162
#
# Velocity S-wave (km/s) = 3.18169 3.39076 3.28789
# Velocity P-wave (km/s) = 6.50779 6.85600 6.68416
#
# Compressibility (1/GPa) = 0.02308177
#
# Stress axis : x y z
#
# Youngs Moduli (GPa) = 41.36984 34.45042 54.13743
#
# Poissons Ratio (x) = 0.25446 0.43734
# Poissons Ratio (y) = 0.30557 0.47803
# Poissons Ratio (z) = 0.33420 0.30420
#
# Static dielectric constant tensor:
#      x y z
#    x 1.501420 0.000000 0.000000 
#    y 0.000000 1.475630 0.000000 
#    z 0.000000 0.000000 1.517070 
# 
# From -- ./inp_files/63503.got.cif
#   From: 2010.05.17/outbox.cif.g08.bks.cpg/sg71_32_cif.got.tgz:63503.got - 2010.06.03 16:22:01.
