data_PCOD9518638
_publ_section_title
;
Structure prediction by ZEFSAII (Michael W. Deem and Ramdas Pophale) SiO2 
 PCOD9518638
Probable space group: I M M M
;
_chemical_formula_sum "Si O2"
_cell_formula_units_Z 72
_cell_length_a 26.252421
_cell_length_b 16.567695
_cell_length_c 9.940313
_cell_angle_alpha 90.000000
_cell_angle_beta 90.000000
_cell_angle_gamma 90.000000
_cell_volume 4323.460652
_symmetry_space_group_name_H-M "I M M M"
_symmetry_group_IT_number 71
_symmetry_cell_setting 'orthorhombic'
loop_
_space_group_symop_operation_xyz
x,y,z
-x,-y,z
x,-y,-z
-x,y,-z
-x,-y,-z
x,y,-z
-x,y,z
x,-y,z
1/2+x,1/2+y,1/2+z
1/2-x,1/2-y,1/2+z
1/2+x,1/2-y,1/2-z
1/2-x,1/2+y,1/2-z
1/2-x,1/2-y,1/2-z
1/2+x,1/2+y,1/2-z
1/2-x,1/2+y,1/2+z
1/2+x,1/2-y,1/2+z
loop_
_atom_site_type_symbol
_atom_site_label
_atom_site_fract_x
_atom_site_fract_y
_atom_site_fract_z
Si Si1 0.770630 0.094708 0.215126
Si Si2 0.558553 0.912189 0.701538
Si Si3 0.164515 0.193330 0.000000
Si Si4 0.695638 0.155334 0.000000
Si Si5 0.409950 0.909214 0.000000
Si Si6 0.437832 0.774815 0.500000
Si Si7 0.751897 0.324122 0.000000
O O1 0.760149 0.126603 0.364890
O O2 0.782915 0.000000 0.214100
O O3 0.812904 0.145622 0.130419
O O4 0.719373 0.110952 0.129223
O O5 0.500000 0.918176 0.659201
O O6 0.560224 0.902144 0.861597
O O7 0.576405 0.832591 0.626144
O O8 0.583021 0.000000 0.669576
O O9 0.192308 0.281436 0.000000
O O10 0.103557 0.203179 0.000000
O O11 0.715720 0.245876 0.000000
O O12 0.635786 0.152501 0.000000
O O13 0.387399 0.000000 0.000000
O O14 0.500000 0.756941 0.500000
#
# Coordination Sequence:
#
# PCOD9518638 Si02
#       7
#    16  16   8   8   8   8   8
#     4  10  20  36  54  75 104 138 171 208 257 314
#     4   9  18  32  47  67  99 138 174 211 254 299
#     4  10  20  36  55  74 108 141 171 208 268 312
#     4  10  19  33  48  72 108 136 164 202 254 301
#     4  10  19  28  47  71  99 135 173 203 240 300
#     4  10  21  34  52  75 103 135 176 223 260 306
#     4  10  21  33  54  80 103 134 167 216 252 302
#
# _framework density 16.653326
#
# number of rings (size 3 to 8) (size 9 to 14) (size 15 to 20)
#    0.000    2.444    0.000    5.667    6.222    2.667 
#    0.000    1.111    0.000    1.333    0.000    0.000 
#    0.000    1.778    0.000    0.000    0.000    0.000 
#
# Total GULP energy -200412.062248 kJ/mol
# GULP energy per Si atom -5567.001729 kJ/mol
# Density = 1.661542 g / cm^3
# Si number density = 16.653326 Si / 1000 Ang^3
#
#
#
# Elastic Constant Matrix: (Units=GPa)
#
#
# Indices 1 2 3 4 5 6 
#
# 1 68.4513 28.1199 20.3856 0.0000 0.0000 0.0000
# 2 28.1199 75.4288 41.9568 0.0000 0.0000 0.0000
# 3 20.3856 41.9568 139.2168 0.0000 0.0000 0.0000
# 4 0.0000 0.0000 0.0000 13.4653 0.0000 0.0000
# 5 0.0000 0.0000 0.0000 0.0000 2.3892 0.0000
# 6 0.0000 0.0000 0.0000 0.0000 0.0000 12.8243
#
#
#
# Elastic Compliance Matrix: (Units=1/GPa)
#
#
# Indices 1 2 3 4 5 6 
#
# 1 0.017309 -0.006059 -0.000709 0.000000 0.000000 0.000000
# 2 -0.006059 0.018048 -0.004552 0.000000 0.000000 0.000000
# 3 -0.000709 -0.004552 0.008659 0.000000 0.000000 0.000000
# 4 0.000000 0.000000 0.000000 0.074265 0.000000 0.000000
# 5 0.000000 0.000000 0.000000 0.000000 0.418545 0.000000
# 6 0.000000 0.000000 0.000000 0.000000 0.000000 0.077977
#
#
# Mechanical properties :
#
#
# Convention : Reuss Voigt Hill
#
# Bulk Modulus (GPa) = 46.77903 51.55793 49.16848
# Shear Modulus (GPa) = 7.75713 18.57806 13.16760
#
# Velocity S-wave (km/s) = 2.16058 3.34365 2.81497
# Velocity P-wave (km/s) = 5.86302 6.77742 6.33674
#
# Compressibility (1/GPa) = 0.02137710
#
# Stress axis : x y z
#
# Youngs Moduli (GPa) = 57.77395 55.40687 115.49033
#
# Poissons Ratio (x) = 0.33569 0.08184
# Poissons Ratio (y) = 0.35003 0.52573
# Poissons Ratio (z) = 0.04094 0.25222
#
# Static dielectric constant tensor:
#      x y z
#    x 1.572950 0.000000 0.000000 
#    y 0.000000 1.581210 0.000000 
#    z 0.000000 0.000000 1.604050 
# 
# From -- ./inp_files/14508.got.cif
#   From: 2010.05.17/outbox.cif.g08.bks.cpg/sg71_8_cif.got.tgz:14508.got - 2010.06.03 16:22:01.
