data_PCOD9518058
_publ_section_title
;
Structure prediction by ZEFSAII (Michael W. Deem and Ramdas Pophale) SiO2 
 PCOD9518058
Probable space group: I M M M
;
_chemical_formula_sum "Si O2"
_cell_formula_units_Z 104
_cell_length_a 7.372642
_cell_length_b 28.033026
_cell_length_c 23.401808
_cell_angle_alpha 90.000000
_cell_angle_beta 90.000000
_cell_angle_gamma 90.000000
_cell_volume 4836.626351
_symmetry_space_group_name_H-M "I M M M"
_symmetry_group_IT_number 71
_symmetry_cell_setting 'orthorhombic'
loop_
_space_group_symop_operation_xyz
x,y,z
-x,-y,z
x,-y,-z
-x,y,-z
-x,-y,-z
x,y,-z
-x,y,z
x,-y,z
1/2+x,1/2+y,1/2+z
1/2-x,1/2-y,1/2+z
1/2+x,1/2-y,1/2-z
1/2-x,1/2+y,1/2-z
1/2-x,1/2-y,1/2-z
1/2+x,1/2+y,1/2-z
1/2-x,1/2+y,1/2+z
1/2+x,1/2-y,1/2+z
loop_
_atom_site_type_symbol
_atom_site_label
_atom_site_fract_x
_atom_site_fract_y
_atom_site_fract_z
Si Si1 0.277926 0.095460 0.128717
Si Si2 0.279165 0.000000 0.064793
Si Si3 0.283252 0.365906 0.169147
Si Si4 0.278497 0.699970 0.935063
Si Si5 0.797462 0.694444 0.402649
Si Si6 0.216102 0.445379 0.251116
Si Si7 0.784863 0.802179 0.772881
O O1 0.500000 0.098875 0.128838
O O2 0.223607 0.047414 0.097252
O O3 0.212638 0.141749 0.093044
O O4 0.218524 0.086933 0.194870
O O5 0.500000 0.000000 0.065324
O O6 0.218668 0.000000 0.000000
O O7 0.500000 0.360477 0.167645
O O8 0.218042 0.339492 0.111524
O O9 0.249270 0.419884 0.190061
O O10 0.213269 0.336242 0.223383
O O11 0.500000 0.701315 0.932207
O O12 0.217318 0.754490 0.921186
O O13 0.227658 0.688024 0.000000
O O14 0.806699 0.695428 0.333932
O O15 0.000000 0.693041 0.428083
O O16 0.284325 0.500000 0.254006
O O17 0.000000 0.447994 0.258501
O O18 0.750000 0.750000 0.750000
O O19 0.000000 0.809830 0.780916
#
# Coordination Sequence:
#
# PCOD9518058 Si02
#       7
#    16   8  16  16  16  16  16
#     4   9  16  26  43  68 100 134 167 205 249 294
#     4   9  16  26  40  64 101 139 174 213 250 288
#     4  10  20  33  51  76 102 130 168 210 255 305
#     4   9  18  33  51  72 101 134 169 209 251 303
#     4  10  18  30  49  74 102 134 169 206 251 300
#     4  10  19  32  52  76 104 134 163 204 262 313
#     4  11  20  30  47  74 104 132 165 205 249 296
#
# _framework density 21.502593000000001
#
# number of rings (size 3 to 8) (size 9 to 14) (size 15 to 20)
#    0.000    2.231    3.846    0.462    0.000    1.538 
#    0.000    3.077    0.000    2.308    0.000    3.231 
#    0.000    3.077    0.000    0.000    0.000    0.000 
#
# Total GULP energy -289930.503871 kJ/mol
# GULP energy per Si atom -5575.586613 kJ/mol
# Density = 2.145365 g / cm^3
# Si number density = 21.502593 Si / 1000 Ang^3
#
#
#
# Elastic Constant Matrix: (Units=GPa)
#
#
# Indices 1 2 3 4 5 6 
#
# 1 85.8986 -1.4336 4.0662 0.0000 0.0000 0.0000
# 2 -1.4336 111.1175 50.9777 0.0000 0.0000 0.0000
# 3 4.0662 50.9777 130.3679 0.0000 0.0000 0.0000
# 4 0.0000 0.0000 0.0000 18.2812 0.0000 0.0000
# 5 0.0000 0.0000 0.0000 0.0000 -8.4295 0.0000
# 6 0.0000 0.0000 0.0000 0.0000 0.0000 1.5697
#
#
#
# Elastic Compliance Matrix: (Units=1/GPa)
#
#
# Indices 1 2 3 4 5 6 
#
# 1 0.011672 0.000387 -0.000515 0.000000 0.000000 0.000000
# 2 0.000387 0.010980 -0.004305 0.000000 0.000000 0.000000
# 3 -0.000515 -0.004305 0.009370 0.000000 0.000000 0.000000
# 4 0.000000 0.000000 0.000000 0.054701 0.000000 0.000000
# 5 0.000000 0.000000 0.000000 0.000000 -0.118631 0.000000
# 6 0.000000 0.000000 0.000000 0.000000 0.000000 0.637073
#
#
# Mechanical properties :
#
#
# Convention : Reuss Voigt Hill
#
# Bulk Modulus (GPa) = 43.18760 48.28938 45.73849
# Shear Modulus (GPa) = 8.04181 20.53587 14.28884
#
# Velocity S-wave (km/s) = 1.93599 3.09373 2.58062
# Velocity P-wave (km/s) = 5.01257 5.93867 5.49516
#
# Compressibility (1/GPa) = 0.02315479
#
# Stress axis : x y z
#
# Youngs Moduli (GPa) = 85.67155 91.07715 106.72090
#
# Poissons Ratio (x) = -0.03525 0.05501
# Poissons Ratio (y) = -0.03316 0.45948
# Poissons Ratio (z) = 0.04416 0.39213
#
# Static dielectric constant tensor:
#      x y z
#    x 1.876900 0.000000 0.000000 
#    y 0.000000 1.769540 0.000000 
#    z 0.000000 0.000000 1.757490 
# 
# From -- ./inp_files/13262.got.cif
#   From: 2010.05.17/outbox.cif.g08.bks.cpg/sg71_7_cif.got.tgz:13262.got - 2010.06.03 16:22:01.
