data_PCOD9518611
_publ_section_title
;
Structure prediction by ZEFSAII (Michael W. Deem and Ramdas Pophale) SiO2 
 PCOD9518611
Probable space group: I M M M
;
_chemical_formula_sum "Si O2"
_cell_formula_units_Z 96
_cell_length_a 7.768751
_cell_length_b 33.724066
_cell_length_c 19.436193
_cell_angle_alpha 90.000000
_cell_angle_beta 90.000000
_cell_angle_gamma 90.000000
_cell_volume 5092.163451
_symmetry_space_group_name_H-M "I M M M"
_symmetry_group_IT_number 71
_symmetry_cell_setting 'orthorhombic'
loop_
_space_group_symop_operation_xyz
x,y,z
-x,-y,z
x,-y,-z
-x,y,-z
-x,-y,-z
x,y,-z
-x,y,z
x,-y,z
1/2+x,1/2+y,1/2+z
1/2-x,1/2-y,1/2+z
1/2+x,1/2-y,1/2-z
1/2-x,1/2+y,1/2-z
1/2-x,1/2-y,1/2-z
1/2+x,1/2+y,1/2-z
1/2-x,1/2+y,1/2+z
1/2+x,1/2-y,1/2+z
loop_
_atom_site_type_symbol
_atom_site_label
_atom_site_fract_x
_atom_site_fract_y
_atom_site_fract_z
Si Si1 0.707462 0.759949 0.921678
Si Si2 0.789439 0.169668 0.421870
Si Si3 0.702423 0.083409 0.924372
Si Si4 0.796635 0.160534 0.149594
Si Si5 0.293887 0.377082 0.209230
Si Si6 0.707962 0.955445 0.216386
O O1 0.500000 0.760193 0.921892
O O2 0.761718 0.715032 0.904899
O O3 0.765968 0.794362 0.871115
O O4 0.765368 0.768713 0.000000
O O5 0.733799 0.160711 0.500000
O O6 0.728188 0.139910 0.362872
O O7 0.000000 0.169113 0.422759
O O8 0.500000 0.073621 0.927630
O O9 0.717753 0.129801 0.905074
O O10 0.773421 0.059868 0.858282
O O11 0.777257 0.075524 0.000000
O O12 0.729490 0.148299 0.225050
O O13 0.000000 0.152942 0.148762
O O14 0.500000 0.372444 0.207467
O O15 0.256156 0.422544 0.227587
O O16 0.500000 0.955852 0.213145
O O17 0.767764 0.000000 0.230393
#
# Coordination Sequence:
#
# PCOD9518611 Si02
#       6
#    16  16  16  16  16  16
#     4   9  17  29  45  64  87 119 158 192 219 252
#     4   8  15  30  51  70  87 112 148 188 226 262
#     4   9  17  29  45  64  87 119 158 192 218 249
#     4  10  19  28  40  63  95 125 151 183 222 260
#     4   9  18  32  49  69  91 115 146 183 223 267
#     4   9  18  32  49  69  92 117 145 179 222 269
#
# _framework density 18.852499000000002
#
# number of rings (size 3 to 8) (size 9 to 14) (size 15 to 20)
#    0.000    3.000    0.000    2.000    0.000    4.667 
#    0.000    2.500    0.000    2.000    0.000    8.167 
#    0.000    0.000    0.000    0.000    0.000    0.000 
#
# Total GULP energy -267573.095177 kJ/mol
# GULP energy per Si atom -5574.439483 kJ/mol
# Density = 1.880959 g / cm^3
# Si number density = 18.852499 Si / 1000 Ang^3
#
#
#
# Elastic Constant Matrix: (Units=GPa)
#
#
# Indices 1 2 3 4 5 6 
#
# 1 22.1879 -4.7121 0.2115 0.0000 0.0000 0.0000
# 2 -4.7121 139.3192 96.2943 0.0000 0.0000 0.0000
# 3 0.2115 96.2943 106.5908 0.0000 0.0000 0.0000
# 4 0.0000 0.0000 0.0000 8.9675 0.0000 0.0000
# 5 0.0000 0.0000 0.0000 0.0000 11.5428 0.0000
# 6 0.0000 0.0000 0.0000 0.0000 0.0000 17.5495
#
#
#
# Elastic Compliance Matrix: (Units=1/GPa)
#
#
# Indices 1 2 3 4 5 6 
#
# 1 0.046023 0.004313 -0.003987 0.000000 0.000000 0.000000
# 2 0.004313 0.019515 -0.017638 0.000000 0.000000 0.000000
# 3 -0.003987 -0.017638 0.025324 0.000000 0.000000 0.000000
# 4 0.000000 0.000000 0.000000 0.111514 0.000000 0.000000
# 5 0.000000 0.000000 0.000000 0.000000 0.086634 0.000000
# 6 0.000000 0.000000 0.000000 0.000000 0.000000 0.056982
#
#
# Mechanical properties :
#
#
# Convention : Reuss Voigt Hill
#
# Bulk Modulus (GPa) = 17.78211 50.18724 33.98467
# Shear Modulus (GPa) = 12.51992 19.36557 15.94275
#
# Velocity S-wave (km/s) = 2.57981 3.20850 2.91117
# Velocity P-wave (km/s) = 4.28096 6.35647 5.41901
#
# Compressibility (1/GPa) = 0.05623630
#
# Stress axis : x y z
#
# Youngs Moduli (GPa) = 21.72806 51.24325 39.48827
#
# Poissons Ratio (x) = -0.22099 0.15745
# Poissons Ratio (y) = -0.09370 0.69650
# Poissons Ratio (z) = 0.08664 0.90384
#
# Static dielectric constant tensor:
#      x y z
#    x 1.701610 0.000000 0.000000 
#    y 0.000000 1.634280 0.000000 
#    z 0.000000 0.000000 1.662840 
# 
# From -- ./inp_files/50803.got.cif
#   From: 2010.05.17/outbox.cif.g08.bks.cpg/sg71_26_cif.got.tgz:50803.got - 2010.06.03 16:22:01.
