data_PCOD9518174
_publ_section_title
;
Structure prediction by ZEFSAII (Michael W. Deem and Ramdas Pophale) SiO2 
 PCOD9518174
Probable space group: I M M M
;
_chemical_formula_sum "Si O2"
_cell_formula_units_Z 72
_cell_length_a 14.329332
_cell_length_b 9.794930
_cell_length_c 31.109576
_cell_angle_alpha 90.000000
_cell_angle_beta 90.000000
_cell_angle_gamma 90.000000
_cell_volume 4366.378438
_symmetry_space_group_name_H-M "I M M M"
_symmetry_group_IT_number 71
_symmetry_cell_setting 'orthorhombic'
loop_
_space_group_symop_operation_xyz
x,y,z
-x,-y,z
x,-y,-z
-x,y,-z
-x,-y,-z
x,y,-z
-x,y,z
x,-y,z
1/2+x,1/2+y,1/2+z
1/2-x,1/2-y,1/2+z
1/2+x,1/2-y,1/2-z
1/2-x,1/2+y,1/2-z
1/2-x,1/2-y,1/2-z
1/2+x,1/2+y,1/2-z
1/2-x,1/2+y,1/2+z
1/2+x,1/2-y,1/2+z
loop_
_atom_site_type_symbol
_atom_site_label
_atom_site_fract_x
_atom_site_fract_y
_atom_site_fract_z
Si Si1 0.327044 0.156677 0.953004
Si Si2 0.796923 0.338585 0.212423
Si Si3 0.287259 0.151959 0.141272
Si Si4 0.000000 0.728178 0.342545
Si Si5 0.000000 0.154203 0.567777
Si Si6 0.000000 0.658638 0.751557
O O1 0.268400 0.171237 0.909412
O O2 0.410756 0.262843 0.948404
O O3 0.363582 0.000000 0.951286
O O4 0.281918 0.173641 0.000000
O O5 0.774042 0.500000 0.214778
O O6 0.750000 0.250000 0.250000
O O7 0.759954 0.269591 0.169024
O O8 0.907366 0.324032 0.220547
O O9 0.400014 0.156586 0.148338
O O10 0.256106 0.000000 0.154765
O O11 0.000000 0.841803 0.379930
O O12 0.000000 0.752012 0.291268
O O13 0.000000 0.000000 0.552899
O O14 0.000000 0.500000 0.735419
#
# Coordination Sequence:
#
# PCOD9518174 Si02
#       6
#    16  16  16   8   8   8
#     4   9  18  32  49  67  92 132 173 202 242 307
#     4  11  22  36  53  74 100 131 168 206 246 294
#     4  10  19  33  52  74 100 131 168 210 249 291
#     4  10  18  31  48  67 100 142 173 193 241 306
#     4  10  20  29  40  67 102 131 166 214 255 282
#     4  10  20  36  53  69  96 137 172 198 241 301
#
# _framework density 16.489637999999999
#
# number of rings (size 3 to 8) (size 9 to 14) (size 15 to 20)
#    0.000    2.000    2.222    2.333    0.000    8.889 
#    0.000    2.222    0.000    0.000    0.000    0.778 
#    0.000    6.222    0.000    0.000    0.000    0.000 
#
# Total GULP energy -200449.185992 kJ/mol
# GULP energy per Si atom -5568.032944 kJ/mol
# Density = 1.645211 g / cm^3
# Si number density = 16.489638 Si / 1000 Ang^3
#
#
#
# Elastic Constant Matrix: (Units=GPa)
#
#
# Indices 1 2 3 4 5 6 
#
# 1 60.7282 34.4310 34.0089 0.0000 0.0000 0.0000
# 2 34.4310 114.9210 62.3235 0.0000 0.0000 0.0000
# 3 34.0089 62.3235 134.1270 0.0000 0.0000 0.0000
# 4 0.0000 0.0000 0.0000 19.3830 0.0000 0.0000
# 5 0.0000 0.0000 0.0000 0.0000 12.4333 0.0000
# 6 0.0000 0.0000 0.0000 0.0000 0.0000 -2.0434
#
#
#
# Elastic Compliance Matrix: (Units=1/GPa)
#
#
# Indices 1 2 3 4 5 6 
#
# 1 0.020804 -0.004508 -0.003180 0.000000 0.000000 0.000000
# 2 -0.004508 0.012610 -0.004716 0.000000 0.000000 0.000000
# 3 -0.003180 -0.004716 0.010453 0.000000 0.000000 0.000000
# 4 0.000000 0.000000 0.000000 0.051592 0.000000 0.000000
# 5 0.000000 0.000000 0.000000 0.000000 0.080429 0.000000
# 6 0.000000 0.000000 0.000000 0.000000 0.000000 -0.489371
#
#
# Mechanical properties :
#
#
# Convention : Reuss Voigt Hill
#
# Bulk Modulus (GPa) = 52.47176 63.47810 57.97493
# Shear Modulus (GPa) = -17.71037 17.88875 0.08919
#
# Velocity S-wave (km/s) = -3.28080 3.29728 0.23282
# Velocity P-wave (km/s) = 4.18792 7.28528 5.94197
#
# Compressibility (1/GPa) = 0.01905787
#
# Stress axis : x y z
#
# Youngs Moduli (GPa) = 48.06814 79.30172 95.66233
#
# Poissons Ratio (x) = 0.35752 0.30422
# Poissons Ratio (y) = 0.21671 0.45117
# Poissons Ratio (z) = 0.15286 0.37401
#
# Static dielectric constant tensor:
#      x y z
#    x 1.526120 0.000000 0.000000 
#    y 0.000000 1.556460 0.000000 
#    z 0.000000 0.000000 1.611690 
# 
# From -- ./inp_files/6537.got.cif
#   From: 2010.05.17/outbox.cif.g08.bks.cpg/sg71_4_cif.got.tgz:6537.got - 2010.06.03 16:22:01.
