data_PCOD9518886
_publ_section_title
;
Structure prediction by ZEFSAII (Michael W. Deem and Ramdas Pophale) SiO2 
 PCOD9518886
Probable space group: I M M M
;
_chemical_formula_sum "Si O2"
_cell_formula_units_Z 104
_cell_length_a 23.971337
_cell_length_b 26.752833
_cell_length_c 10.158160
_cell_angle_alpha 90.000000
_cell_angle_beta 90.000000
_cell_angle_gamma 90.000000
_cell_volume 6514.439949
_symmetry_space_group_name_H-M "I M M M"
_symmetry_group_IT_number 71
_symmetry_cell_setting 'orthorhombic'
loop_
_space_group_symop_operation_xyz
x,y,z
-x,-y,z
x,-y,-z
-x,y,-z
-x,-y,-z
x,y,-z
-x,y,z
x,-y,z
1/2+x,1/2+y,1/2+z
1/2-x,1/2-y,1/2+z
1/2+x,1/2-y,1/2-z
1/2-x,1/2+y,1/2-z
1/2-x,1/2-y,1/2-z
1/2+x,1/2+y,1/2-z
1/2-x,1/2+y,1/2+z
1/2+x,1/2-y,1/2+z
loop_
_atom_site_type_symbol
_atom_site_label
_atom_site_fract_x
_atom_site_fract_y
_atom_site_fract_z
Si Si1 0.221130 0.940625 0.652316
Si Si2 0.000000 0.730379 0.340424
Si Si3 0.112643 0.889528 0.243887
Si Si4 0.562175 0.441508 0.500000
Si Si5 0.625024 0.208225 0.842943
Si Si6 0.176856 0.208277 0.153290
Si Si7 0.500000 0.343463 0.846331
Si Si8 0.278403 0.863381 0.845698
O O1 0.238528 0.934741 0.500000
O O2 0.159587 0.916330 0.669135
O O3 0.259380 0.908142 0.751154
O O4 0.220327 0.000000 0.682798
O O5 0.940311 0.706454 0.304569
O O6 0.000000 0.730375 0.500000
O O7 0.000000 0.787482 0.287036
O O8 0.095747 0.925790 0.127201
O O9 0.138051 0.839792 0.178791
O O10 0.055742 0.873294 0.312916
O O11 0.555880 0.500000 0.500000
O O12 0.500000 0.417744 0.500000
O O13 0.655602 0.249769 0.753651
O O14 0.659117 0.156855 0.826275
O O15 0.628736 0.221466 0.000000
O O16 0.238118 0.184808 0.178991
O O17 0.174134 0.224173 0.000000
O O18 0.500000 0.334879 0.000000
O O19 0.270150 0.876785 0.000000
#
# Coordination Sequence:
#
# PCOD9518886 Si02
#       8
#    16   8  16   8  16  16   8  16
#     4  10  22  38  55  76 100 129 168 218 272 314
#     4   9  18  30  48  74 102 137 171 201 242 295
#     4  11  20  34  50  70 100 134 175 220 259 304
#     4  11  22  34  48  66  90 134 186 227 268 304
#     4  10  19  33  51  74 105 137 171 205 248 309
#     4  10  19  30  47  72 101 132 169 212 255 298
#     4  11  20  31  49  72  99 138 181 215 258 303
#     4   9  20  35  52  75 101 133 170 210 256 308
#
# _framework density 15.964534
#
# number of rings (size 3 to 8) (size 9 to 14) (size 15 to 20)
#    0.000    1.923    3.077    1.385    1.077    3.385 
#    0.000    1.154    0.000    1.846    0.000    0.538 
#    0.000    4.308    0.000    0.000    0.000    0.000 
#
# Total GULP energy -289749.245970 kJ/mol
# GULP energy per Si atom -5572.100884 kJ/mol
# Density = 1.592820 g / cm^3
# Si number density = 15.964534 Si / 1000 Ang^3
#
#
#
# Elastic Constant Matrix: (Units=GPa)
#
#
# Indices 1 2 3 4 5 6 
#
# 1 109.4223 60.9166 46.8896 0.0000 0.0000 0.0000
# 2 60.9166 70.1752 39.0954 0.0000 0.0000 0.0000
# 3 46.8896 39.0954 68.1581 0.0000 0.0000 0.0000
# 4 0.0000 0.0000 0.0000 14.2078 0.0000 0.0000
# 5 0.0000 0.0000 0.0000 0.0000 26.6790 0.0000
# 6 0.0000 0.0000 0.0000 0.0000 0.0000 17.4279
#
#
#
# Elastic Compliance Matrix: (Units=1/GPa)
#
#
# Indices 1 2 3 4 5 6 
#
# 1 0.018895 -0.013462 -0.005277 0.000000 0.000000 0.000000
# 2 -0.013462 0.030534 -0.008253 0.000000 0.000000 0.000000
# 3 -0.005277 -0.008253 0.023036 0.000000 0.000000 0.000000
# 4 0.000000 0.000000 0.000000 0.070384 0.000000 0.000000
# 5 0.000000 0.000000 0.000000 0.000000 0.037483 0.000000
# 6 0.000000 0.000000 0.000000 0.000000 0.000000 0.057379
#
#
# Mechanical properties :
#
#
# Convention : Reuss Voigt Hill
#
# Bulk Modulus (GPa) = 54.11031 60.17318 57.14175
# Shear Modulus (GPa) = 16.78679 18.38654 17.58666
#
# Velocity S-wave (km/s) = 3.24621 3.39737 3.32265
# Velocity P-wave (km/s) = 6.92951 7.29130 7.11271
#
# Compressibility (1/GPa) = 0.01848077
#
# Stress axis : x y z
#
# Youngs Moduli (GPa) = 52.92541 32.75081 43.41059
#
# Poissons Ratio (x) = 0.44089 0.22907
# Poissons Ratio (y) = 0.71247 0.35826
# Poissons Ratio (z) = 0.27928 0.27029
#
# Static dielectric constant tensor:
#      x y z
#    x 1.558360 0.000000 0.000000 
#    y 0.000000 1.519950 0.000000 
#    z 0.000000 0.000000 1.534950 
# 
# From -- ./inp_files/13394.got.cif
#   From: 2010.05.17/outbox.cif.g08.bks.cpg/sg71_7_cif.got.tgz:13394.got - 2010.06.03 16:22:01.
