data_PCOD9518467
_publ_section_title
;
Structure prediction by ZEFSAII (Michael W. Deem and Ramdas Pophale) SiO2 
 PCOD9518467
Probable space group: I M M M
;
_chemical_formula_sum "Si O2"
_cell_formula_units_Z 116
_cell_length_a 25.614705
_cell_length_b 30.374769
_cell_length_c 7.875976
_cell_angle_alpha 90.000000
_cell_angle_beta 90.000000
_cell_angle_gamma 90.000000
_cell_volume 6127.830253
_symmetry_space_group_name_H-M "I M M M"
_symmetry_group_IT_number 71
_symmetry_cell_setting 'orthorhombic'
loop_
_space_group_symop_operation_xyz
x,y,z
-x,-y,z
x,-y,-z
-x,y,-z
-x,-y,-z
x,y,-z
-x,y,z
x,-y,z
1/2+x,1/2+y,1/2+z
1/2-x,1/2-y,1/2+z
1/2+x,1/2-y,1/2-z
1/2-x,1/2+y,1/2-z
1/2-x,1/2-y,1/2-z
1/2+x,1/2+y,1/2-z
1/2-x,1/2+y,1/2+z
1/2+x,1/2-y,1/2+z
loop_
_atom_site_type_symbol
_atom_site_label
_atom_site_fract_x
_atom_site_fract_y
_atom_site_fract_z
Si Si1 0.656484 0.605970 0.702229
Si Si2 0.942988 0.051316 0.793378
Si Si3 0.560752 0.225198 0.199449
Si Si4 0.940835 0.629954 0.199180
Si Si5 0.085813 0.182759 0.196975
Si Si6 0.000000 0.832750 0.500000
Si Si7 0.370563 0.950749 0.802344
Si Si8 0.246456 0.450595 0.199347
O O1 0.659461 0.599145 0.500000
O O2 0.606559 0.578168 0.767799
O O3 0.639318 0.656199 0.730542
O O4 0.709387 0.585612 0.771888
O O5 0.000000 0.067473 0.732988
O O6 0.938411 0.000000 0.747749
O O7 0.943560 0.053465 0.000000
O O8 0.500000 0.226042 0.258779
O O9 0.579761 0.175396 0.221288
O O10 0.590225 0.264492 0.291983
O O11 0.559890 0.235720 0.000000
O O12 0.904825 0.587847 0.224867
O O13 0.000000 0.622072 0.265098
O O14 0.944240 0.638641 0.000000
O O15 0.045222 0.169882 0.345776
O O16 0.069832 0.171048 0.000000
O O17 0.308859 0.941488 0.786281
O O18 0.379348 0.000000 0.729494
O O19 0.384121 0.952164 0.000000
O O20 0.264552 0.500000 0.254036
O O21 0.235499 0.452447 0.000000
#
# Coordination Sequence:
#
# PCOD9518467 Si02
#       8
#    16  16  16  16  16   4  16  16
#     4  10  21  33  51  76 103 138 184 237 288 342
#     4   8  14  25  41  63  93 128 167 214 271 336
#     4  10  18  33  54  80 114 153 193 231 275 328
#     4  10  21  35  56  88 123 157 186 220 267 327
#     4  11  22  35  54  81 112 150 196 242 293 351
#     4  12  22  36  52  78 113 158 187 244 302 346
#     4  10  21  38  60  85 113 148 190 232 275 328
#     4  10  21  37  58  80 106 142 185 237 289 341
#
# _framework density 18.930029000000001
#
# number of rings (size 3 to 8) (size 9 to 14) (size 15 to 20)
#    0.000    2.069    1.379    2.690    1.931    3.862 
#    0.000    1.379    0.000    0.828    0.000    2.897 
#    0.000    0.000    0.000    0.000    0.000    0.000 
#
# Total GULP energy -322937.564921 kJ/mol
# GULP energy per Si atom -5567.889050 kJ/mol
# Density = 1.888694 g / cm^3
# Si number density = 18.930029 Si / 1000 Ang^3
#
#
#
# Elastic Constant Matrix: (Units=GPa)
#
#
# Indices 1 2 3 4 5 6 
#
# 1 50.1814 50.5847 6.7702 0.0000 0.0000 0.0000
# 2 50.5847 118.7064 11.0770 0.0000 0.0000 0.0000
# 3 6.7702 11.0770 69.4786 0.0000 0.0000 0.0000
# 4 0.0000 0.0000 0.0000 20.2322 0.0000 0.0000
# 5 0.0000 0.0000 0.0000 0.0000 139.7998 0.0000
# 6 0.0000 0.0000 0.0000 0.0000 0.0000 20.2661
#
#
#
# Elastic Compliance Matrix: (Units=1/GPa)
#
#
# Indices 1 2 3 4 5 6 
#
# 1 0.035009 -0.014821 -0.001049 0.000000 0.000000 0.000000
# 2 -0.014821 0.014825 -0.000919 0.000000 0.000000 0.000000
# 3 -0.001049 -0.000919 0.014642 0.000000 0.000000 0.000000
# 4 0.000000 0.000000 0.000000 0.049426 0.000000 0.000000
# 5 0.000000 0.000000 0.000000 0.000000 0.007153 0.000000
# 6 0.000000 0.000000 0.000000 0.000000 0.000000 0.049343
#
#
# Mechanical properties :
#
#
# Convention : Reuss Voigt Hill
#
# Bulk Modulus (GPa) = 32.36363 41.69224 37.02794
# Shear Modulus (GPa) = 23.33446 47.38860 35.36153
#
# Velocity S-wave (km/s) = 3.51475 5.00878 4.32674
# Velocity P-wave (km/s) = 5.79697 7.45136 6.67561
#
# Compressibility (1/GPa) = 0.03089888
#
# Stress axis : x y z
#
# Youngs Moduli (GPa) = 28.56419 67.45144 68.29820
#
# Poissons Ratio (x) = 0.99967 0.07161
# Poissons Ratio (y) = 0.42334 0.06280
# Poissons Ratio (z) = 0.02995 0.06202
#
# Static dielectric constant tensor:
#      x y z
#    x 1.629650 0.000000 0.000000 
#    y 0.000000 1.708400 0.000000 
#    z 0.000000 0.000000 1.684040 
# 
# From -- ./inp_files/13702.got.cif
#   From: 2010.05.17/outbox.cif.g08.bks.cpg/sg71_7_cif.got.tgz:13702.got - 2010.06.03 16:22:01.
