data_PCOD9518736
_publ_section_title
;
Structure prediction by ZEFSAII (Michael W. Deem and Ramdas Pophale) SiO2 
 PCOD9518736
Probable space group: I M M M
;
_chemical_formula_sum "Si O2"
_cell_formula_units_Z 88
_cell_length_a 7.768469
_cell_length_b 18.187794
_cell_length_c 27.080534
_cell_angle_alpha 90.000000
_cell_angle_beta 90.000000
_cell_angle_gamma 90.000000
_cell_volume 3826.244229
_symmetry_space_group_name_H-M "I M M M"
_symmetry_group_IT_number 71
_symmetry_cell_setting 'orthorhombic'
loop_
_space_group_symop_operation_xyz
x,y,z
-x,-y,z
x,-y,-z
-x,y,-z
-x,-y,-z
x,y,-z
-x,y,z
x,-y,z
1/2+x,1/2+y,1/2+z
1/2-x,1/2-y,1/2+z
1/2+x,1/2-y,1/2-z
1/2-x,1/2+y,1/2-z
1/2-x,1/2-y,1/2-z
1/2+x,1/2+y,1/2-z
1/2-x,1/2+y,1/2+z
1/2+x,1/2-y,1/2+z
loop_
_atom_site_type_symbol
_atom_site_label
_atom_site_fract_x
_atom_site_fract_y
_atom_site_fract_z
Si Si1 0.805510 0.189669 0.058184
Si Si2 0.295081 0.729521 0.693941
Si Si3 0.710735 0.580727 0.731011
Si Si4 0.804649 0.117961 0.340593
Si Si5 0.294503 0.140122 0.553856
Si Si6 0.500000 0.085497 0.060821
O O1 0.741258 0.274153 0.059613
O O2 0.668025 0.131378 0.077405
O O3 0.000000 0.185067 0.079767
O O4 0.822443 0.173978 0.000000
O O5 0.500000 0.735254 0.686619
O O6 0.250000 0.750000 0.750000
O O7 0.236290 0.645277 0.693923
O O8 0.208916 0.793246 0.662588
O O9 0.500000 0.585616 0.733104
O O10 0.760087 0.500000 0.714595
O O11 0.774140 0.592131 0.788036
O O12 0.742033 0.097952 0.395234
O O13 0.000000 0.093501 0.338455
O O14 0.229501 0.113281 0.500000
O O15 0.500000 0.142858 0.550553
O O16 0.500000 0.000000 0.075402
O O17 0.500000 0.086857 0.000000
#
# Coordination Sequence:
#
# PCOD9518736 Si02
#       6
#    16  16  16  16  16   8
#     4   8  15  27  41  59  84 115 153 199 252 300
#     4   9  16  28  48  72 100 131 163 204 250 299
#     4   8  15  29  49  74 103 133 165 201 245 301
#     4  10  19  29  48  77 103 131 167 210 257 306
#     4   9  18  32  49  69  95 128 167 215 264 301
#     4   9  16  24  38  60  82 108 143 189 245 299
#
# _framework density 22.999056
#
# number of rings (size 3 to 8) (size 9 to 14) (size 15 to 20)
#    0.000    3.182    0.000    3.273    1.273    0.727 
#    0.000    1.818    0.000   21.273    0.000    6.364 
#    0.000    0.000    0.000    0.000    0.000    0.000 
#
# Total GULP energy -245127.521038 kJ/mol
# GULP energy per Si atom -5571.080024 kJ/mol
# Density = 2.294671 g / cm^3
# Si number density = 22.999056 Si / 1000 Ang^3
#
#
#
# Elastic Constant Matrix: (Units=GPa)
#
#
# Indices 1 2 3 4 5 6 
#
# 1 47.5272 1.9648 4.3727 0.0000 0.0000 0.0000
# 2 1.9648 70.4930 -4.9674 0.0000 0.0000 0.0000
# 3 4.3727 -4.9674 97.1321 0.0000 0.0000 0.0000
# 4 0.0000 0.0000 0.0000 1.8218 0.0000 0.0000
# 5 0.0000 0.0000 0.0000 0.0000 6.9916 0.0000
# 6 0.0000 0.0000 0.0000 0.0000 0.0000 10.2031
#
#
#
# Elastic Compliance Matrix: (Units=1/GPa)
#
#
# Indices 1 2 3 4 5 6 
#
# 1 0.021159 -0.000659 -0.000986 0.000000 0.000000 0.000000
# 2 -0.000659 0.014258 0.000759 0.000000 0.000000 0.000000
# 3 -0.000986 0.000759 0.010378 0.000000 0.000000 0.000000
# 4 0.000000 0.000000 0.000000 0.548911 0.000000 0.000000
# 5 0.000000 0.000000 0.000000 0.000000 0.143028 0.000000
# 6 0.000000 0.000000 0.000000 0.000000 0.000000 0.098009
#
#
# Mechanical properties :
#
#
# Convention : Reuss Voigt Hill
#
# Bulk Modulus (GPa) = 22.71621 24.21027 23.46324
# Shear Modulus (GPa) = 5.86723 18.05546 11.96135
#
# Velocity S-wave (km/s) = 1.59894 2.80492 2.28300
# Velocity P-wave (km/s) = 3.64791 4.58689 4.14408
#
# Compressibility (1/GPa) = 0.04402142
#
# Stress axis : x y z
#
# Youngs Moduli (GPa) = 47.26218 70.13777 96.35340
#
# Poissons Ratio (x) = 0.04624 0.09503
# Poissons Ratio (y) = 0.03116 -0.07311
# Poissons Ratio (z) = 0.04661 -0.05322
#
# Static dielectric constant tensor:
#      x y z
#    x 1.845760 0.000000 0.000000 
#    y 0.000000 1.870030 0.000000 
#    z 0.000000 0.000000 1.819840 
# 
# From -- ./inp_files/16865.got.cif
#   From: 2010.05.17/outbox.cif.g08.bks.cpg/sg71_9_cif.got.tgz:16865.got - 2010.06.03 16:22:01.
