data_PCOD9518175
_publ_section_title
;
Structure prediction by ZEFSAII (Michael W. Deem and Ramdas Pophale) SiO2 
 PCOD9518175
Probable space group: I M M M
;
_chemical_formula_sum "Si O2"
_cell_formula_units_Z 112
_cell_length_a 26.574526
_cell_length_b 13.695427
_cell_length_c 15.407769
_cell_angle_alpha 90.000000
_cell_angle_beta 90.000000
_cell_angle_gamma 90.000000
_cell_volume 5607.649529
_symmetry_space_group_name_H-M "I M M M"
_symmetry_group_IT_number 71
_symmetry_cell_setting 'orthorhombic'
loop_
_space_group_symop_operation_xyz
x,y,z
-x,-y,z
x,-y,-z
-x,y,-z
-x,-y,-z
x,y,-z
-x,y,z
x,-y,z
1/2+x,1/2+y,1/2+z
1/2-x,1/2-y,1/2+z
1/2+x,1/2-y,1/2-z
1/2-x,1/2+y,1/2-z
1/2-x,1/2-y,1/2-z
1/2+x,1/2+y,1/2-z
1/2-x,1/2+y,1/2+z
1/2+x,1/2-y,1/2+z
loop_
_atom_site_type_symbol
_atom_site_label
_atom_site_fract_x
_atom_site_fract_y
_atom_site_fract_z
Si Si1 0.407332 0.611633 0.364003
Si Si2 0.446277 0.186053 0.401357
Si Si3 0.210711 0.882077 0.097038
Si Si4 0.340291 0.116932 0.600633
Si Si5 0.443389 0.385465 0.835455
Si Si6 0.659394 0.380935 0.095289
Si Si7 0.251776 0.380870 0.779269
O O1 0.416386 0.500000 0.393116
O O2 0.439799 0.697321 0.405195
O O3 0.348566 0.634743 0.381782
O O4 0.422549 0.616064 0.262873
O O5 0.446816 0.147450 0.500000
O O6 0.500000 0.161529 0.360122
O O7 0.394658 0.146817 0.362314
O O8 0.244180 0.850050 0.179059
O O9 0.215171 0.000000 0.094348
O O10 0.222875 0.845916 0.000000
O O11 0.335476 0.151591 0.500000
O O12 0.295837 0.150508 0.663505
O O13 0.337929 0.000000 0.596879
O O14 0.500000 0.343998 0.841288
O O15 0.447653 0.500000 0.859356
O O16 0.397411 0.343685 0.891160
O O17 0.657352 0.500000 0.098712
O O18 0.697308 0.351793 0.170768
O O19 0.678810 0.354444 0.000000
O O20 0.250966 0.500000 0.779284
#
# Coordination Sequence:
#
# PCOD9518175 Si02
#       7
#    16  16  16  16  16  16  16
#     4  10  18  31  48  68  97 133 168 200 239 284
#     4  10  21  34  48  71 100 128 164 205 242 289
#     4   9  16  26  44  69  98 133 166 198 242 290
#     4   9  18  33  53  74  97 128 162 200 248 295
#     4   9  16  25  38  58  86 122 163 202 240 285
#     4   9  15  23  38  61  88 120 160 206 249 285
#     4   9  15  27  46  70  95 122 160 201 243 294
#
# _framework density 19.972716999999999
#
# number of rings (size 3 to 8) (size 9 to 14) (size 15 to 20)
#    0.000    2.714    1.429    1.286    0.000    4.000 
#    0.000    4.286    0.000    0.000    0.000    0.000 
#    0.000    1.714    0.000    5.571    0.000    0.143 
#
# Total GULP energy -312233.697625 kJ/mol
# GULP energy per Si atom -5575.601743 kJ/mol
# Density = 1.992726 g / cm^3
# Si number density = 19.972717 Si / 1000 Ang^3
#
#
#
# Elastic Constant Matrix: (Units=GPa)
#
#
# Indices 1 2 3 4 5 6 
#
# 1 153.7229 14.3492 67.9238 0.0000 0.0000 0.0000
# 2 14.3492 40.9070 7.6393 0.0000 0.0000 0.0000
# 3 67.9238 7.6393 106.0677 0.0000 0.0000 0.0000
# 4 0.0000 0.0000 0.0000 1.4835 0.0000 0.0000
# 5 0.0000 0.0000 0.0000 0.0000 18.6539 0.0000
# 6 0.0000 0.0000 0.0000 0.0000 0.0000 15.4794
#
#
#
# Elastic Compliance Matrix: (Units=1/GPa)
#
#
# Indices 1 2 3 4 5 6 
#
# 1 0.009258 -0.002170 -0.005773 0.000000 0.000000 0.000000
# 2 -0.002170 0.025287 -0.000432 0.000000 0.000000 0.000000
# 3 -0.005773 -0.000432 0.013156 0.000000 0.000000 0.000000
# 4 0.000000 0.000000 0.000000 0.674084 0.000000 0.000000
# 5 0.000000 0.000000 0.000000 0.000000 0.053608 0.000000
# 6 0.000000 0.000000 0.000000 0.000000 0.000000 0.064602
#
#
# Mechanical properties :
#
#
# Convention : Reuss Voigt Hill
#
# Bulk Modulus (GPa) = 32.30676 53.39135 42.84906
# Shear Modulus (GPa) = 5.76660 21.17570 13.47115
#
# Velocity S-wave (km/s) = 1.70103 3.25965 2.59989
# Velocity P-wave (km/s) = 4.47980 6.39979 5.52385
#
# Compressibility (1/GPa) = 0.03095327
#
# Stress axis : x y z
#
# Youngs Moduli (GPa) = 108.00953 39.54534 76.01232
#
# Poissons Ratio (x) = 0.08580 0.43879
# Poissons Ratio (y) = 0.23434 0.03283
# Poissons Ratio (z) = 0.62350 0.01708
#
# Static dielectric constant tensor:
#      x y z
#    x 1.727660 0.000000 0.000000 
#    y 0.000000 1.729280 0.000000 
#    z 0.000000 0.000000 1.738160 
# 
# From -- ./inp_files/40365.got.cif
#   From: 2010.05.17/outbox.cif.g08.bks.cpg/sg71_21_cif.got.tgz:40365.got - 2010.06.03 16:22:01.
