data_PCOD9518695
_publ_section_title
;
Structure prediction by ZEFSAII (Michael W. Deem and Ramdas Pophale) SiO2 
 PCOD9518695
Probable space group: I M M M
;
_chemical_formula_sum "Si O2"
_cell_formula_units_Z 80
_cell_length_a 8.946687
_cell_length_b 24.151185
_cell_length_c 24.918621
_cell_angle_alpha 90.000000
_cell_angle_beta 90.000000
_cell_angle_gamma 90.000000
_cell_volume 5384.243510
_symmetry_space_group_name_H-M "I M M M"
_symmetry_group_IT_number 71
_symmetry_cell_setting 'orthorhombic'
loop_
_space_group_symop_operation_xyz
x,y,z
-x,-y,z
x,-y,-z
-x,y,-z
-x,-y,-z
x,y,-z
-x,y,z
x,-y,z
1/2+x,1/2+y,1/2+z
1/2-x,1/2-y,1/2+z
1/2+x,1/2-y,1/2-z
1/2-x,1/2+y,1/2-z
1/2-x,1/2-y,1/2-z
1/2+x,1/2+y,1/2-z
1/2-x,1/2+y,1/2+z
1/2+x,1/2-y,1/2+z
loop_
_atom_site_type_symbol
_atom_site_label
_atom_site_fract_x
_atom_site_fract_y
_atom_site_fract_z
Si Si1 0.678260 0.165314 0.772514
Si Si2 0.321600 0.244697 0.939411
Si Si3 0.322085 0.769750 0.332974
Si Si4 0.180134 0.936571 0.169534
Si Si5 0.678611 0.623240 0.439915
O O1 0.500000 0.166367 0.780523
O O2 0.709544 0.182940 0.711065
O O3 0.752044 0.213387 0.808796
O O4 0.744828 0.106986 0.790473
O O5 0.500000 0.244965 0.933817
O O6 0.247216 0.278604 0.891370
O O7 0.262152 0.181680 0.934196
O O8 0.283106 0.263141 0.000000
O O9 0.500000 0.762723 0.336967
O O10 0.218184 0.916923 0.108927
O O11 0.000000 0.933018 0.825363
O O12 0.225068 0.000000 0.178259
O O13 0.709719 0.601317 0.500000
O O14 0.500000 0.633760 0.436639
#
# Coordination Sequence:
#
# PCOD9518695 Si02
#       5
#    16  16  16  16  16
#     4  10  20  32  47  67  89 117 153 191 233 274
#     4  10  19  29  44  68  95 120 148 184 227 273
#     4  10  19  31  48  68  90 117 151 188 228 279
#     4  10  20  32  46  65  90 121 158 196 232 272
#     4   9  17  29  44  61  85 119 157 194 229 264
#
# _framework density 14.858169999999999
#
# number of rings (size 3 to 8) (size 9 to 14) (size 15 to 20)
#    0.000    2.200    2.000    1.800    0.000    4.400 
#    0.000    2.000    0.000    0.000    0.000    4.200 
#    0.000    0.800    0.000    8.800    0.000    6.400 
#
# Total GULP energy -223062.483655 kJ/mol
# GULP energy per Si atom -5576.562091 kJ/mol
# Density = 1.482435 g / cm^3
# Si number density = 14.858170 Si / 1000 Ang^3
#
#
#
# Elastic Constant Matrix: (Units=GPa)
#
#
# Indices 1 2 3 4 5 6 
#
# 1 43.7251 35.4031 57.4785 0.0000 0.0000 0.0000
# 2 35.4031 75.7816 66.9487 0.0000 0.0000 0.0000
# 3 57.4785 66.9487 140.4391 0.0000 0.0000 0.0000
# 4 0.0000 0.0000 0.0000 19.6239 0.0000 0.0000
# 5 0.0000 0.0000 0.0000 0.0000 25.4252 0.0000
# 6 0.0000 0.0000 0.0000 0.0000 0.0000 17.6560
#
#
#
# Elastic Compliance Matrix: (Units=1/GPa)
#
#
# Indices 1 2 3 4 5 6 
#
# 1 0.053360 -0.009734 -0.017199 0.000000 0.000000 0.000000
# 2 -0.009734 0.024572 -0.007730 0.000000 0.000000 0.000000
# 3 -0.017199 -0.007730 0.017844 0.000000 0.000000 0.000000
# 4 0.000000 0.000000 0.000000 0.050958 0.000000 0.000000
# 5 0.000000 0.000000 0.000000 0.000000 0.039331 0.000000
# 6 0.000000 0.000000 0.000000 0.000000 0.000000 0.056638
#
#
# Mechanical properties :
#
#
# Convention : Reuss Voigt Hill
#
# Bulk Modulus (GPa) = 37.80544 64.40072 51.10308
# Shear Modulus (GPa) = 15.58376 19.21538 17.39957
#
# Velocity S-wave (km/s) = 3.24208 3.60008 3.42576
# Velocity P-wave (km/s) = 6.28604 7.79221 7.07929
#
# Compressibility (1/GPa) = 0.02645122
#
# Stress axis : x y z
#
# Youngs Moduli (GPa) = 18.74056 40.69626 56.04020
#
# Poissons Ratio (x) = 0.39616 0.96381
# Poissons Ratio (y) = 0.18243 0.43318
# Poissons Ratio (z) = 0.32231 0.31457
#
# Static dielectric constant tensor:
#      x y z
#    x 1.495540 0.000000 0.000000 
#    y 0.000000 1.455480 0.000000 
#    z 0.000000 0.000000 1.524180 
# 
# From -- ./inp_files/63043.got.cif
#   From: 2010.05.17/outbox.cif.g08.bks.cpg/sg71_32_cif.got.tgz:63043.got - 2010.06.03 16:22:01.
