data_PCOD9518741
_publ_section_title
;
Structure prediction by ZEFSAII (Michael W. Deem and Ramdas Pophale) SiO2 
 PCOD9518741
Probable space group: I M M M
;
_chemical_formula_sum "Si O2"
_cell_formula_units_Z 80
_cell_length_a 32.217940
_cell_length_b 18.073838
_cell_length_c 7.688155
_cell_angle_alpha 90.000000
_cell_angle_beta 90.000000
_cell_angle_gamma 90.000000
_cell_volume 4476.826712
_symmetry_space_group_name_H-M "I M M M"
_symmetry_group_IT_number 71
_symmetry_cell_setting 'orthorhombic'
loop_
_space_group_symop_operation_xyz
x,y,z
-x,-y,z
x,-y,-z
-x,y,-z
-x,-y,-z
x,y,-z
-x,y,z
x,-y,z
1/2+x,1/2+y,1/2+z
1/2-x,1/2-y,1/2+z
1/2+x,1/2-y,1/2-z
1/2-x,1/2+y,1/2-z
1/2-x,1/2-y,1/2-z
1/2+x,1/2+y,1/2-z
1/2-x,1/2+y,1/2+z
1/2+x,1/2-y,1/2+z
loop_
_atom_site_type_symbol
_atom_site_label
_atom_site_fract_x
_atom_site_fract_y
_atom_site_fract_z
Si Si1 0.094619 0.918744 0.500000
Si Si2 0.392972 0.212314 0.696392
Si Si3 0.169206 0.415042 0.711210
Si Si4 0.950907 0.764042 0.500000
Si Si5 0.654695 0.365467 0.704699
Si Si6 0.753247 0.163199 0.208693
O O1 0.062848 0.850333 0.500000
O O2 0.124092 0.909207 0.331102
O O3 0.075355 0.000000 0.500000
O O4 0.408756 0.215725 0.500000
O O5 0.368016 0.137056 0.727435
O O6 0.429063 0.226674 0.833787
O O7 0.360118 0.279821 0.718281
O O8 0.169378 0.412906 0.500000
O O9 0.165209 0.500000 0.765587
O O10 0.212841 0.380135 0.773083
O O11 0.000000 0.756473 0.500000
O O12 0.651782 0.386501 0.500000
O O13 0.702326 0.368503 0.766324
O O14 0.750000 0.250000 0.250000
O O15 0.753709 0.156753 0.000000
#
# Coordination Sequence:
#
# PCOD9518741 Si02
#       6
#     8  16  16   8  16  16
#     4  10  22  37  58  85 115 150 188 231 280 336
#     4  10  19  35  59  84 109 144 188 228 279 339
#     4  10  20  33  51  78 113 153 193 236 284 328
#     4  10  22  41  65  88 112 139 177 232 292 352
#     4   9  19  34  53  78 110 155 198 233 272 321
#     4  10  19  29  50  75 108 154 198 240 275 314
#
# _framework density 17.869800999999999
#
# number of rings (size 3 to 8) (size 9 to 14) (size 15 to 20)
#    0.000    2.200    3.000    0.000    1.400    2.200 
#    0.000    2.000    0.000    1.200    0.000    7.000 
#    0.000    0.000    0.000    0.000    0.000    0.000 
#
# Total GULP energy -223271.665763 kJ/mol
# GULP energy per Si atom -5581.791644 kJ/mol
# Density = 1.782913 g / cm^3
# Si number density = 17.869801 Si / 1000 Ang^3
#
#
#
# Elastic Constant Matrix: (Units=GPa)
#
#
# Indices 1 2 3 4 5 6 
#
# 1 139.1094 46.6076 55.7413 0.0000 0.0000 0.0000
# 2 46.6076 108.9361 35.9161 0.0000 0.0000 0.0000
# 3 55.7413 35.9161 83.4293 0.0000 0.0000 0.0000
# 4 0.0000 0.0000 0.0000 4.8204 0.0000 0.0000
# 5 0.0000 0.0000 0.0000 0.0000 10.7223 0.0000
# 6 0.0000 0.0000 0.0000 0.0000 0.0000 12.1744
#
#
#
# Elastic Compliance Matrix: (Units=1/GPa)
#
#
# Indices 1 2 3 4 5 6 
#
# 1 0.010374 -0.002509 -0.005851 0.000000 0.000000 0.000000
# 2 -0.002509 0.011305 -0.003190 0.000000 0.000000 0.000000
# 3 -0.005851 -0.003190 0.017269 0.000000 0.000000 0.000000
# 4 0.000000 0.000000 0.000000 0.207451 0.000000 0.000000
# 5 0.000000 0.000000 0.000000 0.000000 0.093264 0.000000
# 6 0.000000 0.000000 0.000000 0.000000 0.000000 0.082139
#
#
# Mechanical properties :
#
#
# Convention : Reuss Voigt Hill
#
# Bulk Modulus (GPa) = 63.10408 67.55609 65.33008
# Shear Modulus (GPa) = 11.10657 18.42407 14.76532
#
# Velocity S-wave (km/s) = 2.49575 3.21443 2.87761
# Velocity P-wave (km/s) = 6.61021 7.18773 6.90501
#
# Compressibility (1/GPa) = 0.01584684
#
# Stress axis : x y z
#
# Youngs Moduli (GPa) = 96.39755 88.45538 57.90859
#
# Poissons Ratio (x) = 0.22197 0.33880
# Poissons Ratio (y) = 0.24190 0.18474
# Poissons Ratio (z) = 0.56399 0.28220
#
# Static dielectric constant tensor:
#      x y z
#    x 1.573240 0.000000 0.000000 
#    y 0.000000 1.602170 0.000000 
#    z 0.000000 0.000000 1.637940 
# 
# From -- ./inp_files/8422.got.cif
#   From: 2010.05.17/outbox.cif.g08.bks.cpg/sg71_5_cif.got.tgz:8422.got - 2010.06.03 16:22:01.
