data_PCOD9518762
_publ_section_title
;
Structure prediction by ZEFSAII (Michael W. Deem and Ramdas Pophale) SiO2 
 PCOD9518762
Probable space group: I M M M
;
_chemical_formula_sum "Si O2"
_cell_formula_units_Z 72
_cell_length_a 12.111775
_cell_length_b 13.440922
_cell_length_c 23.384119
_cell_angle_alpha 90.000000
_cell_angle_beta 90.000000
_cell_angle_gamma 90.000000
_cell_volume 3806.780777
_symmetry_space_group_name_H-M "I M M M"
_symmetry_group_IT_number 71
_symmetry_cell_setting 'orthorhombic'
loop_
_space_group_symop_operation_xyz
x,y,z
-x,-y,z
x,-y,-z
-x,y,-z
-x,-y,-z
x,y,-z
-x,y,z
x,-y,z
1/2+x,1/2+y,1/2+z
1/2-x,1/2-y,1/2+z
1/2+x,1/2-y,1/2-z
1/2-x,1/2+y,1/2-z
1/2-x,1/2-y,1/2-z
1/2+x,1/2+y,1/2-z
1/2-x,1/2+y,1/2+z
1/2+x,1/2-y,1/2+z
loop_
_atom_site_type_symbol
_atom_site_label
_atom_site_fract_x
_atom_site_fract_y
_atom_site_fract_z
Si Si1 0.500000 0.608774 0.568044
Si Si2 0.695699 0.239463 0.435449
Si Si3 0.630184 0.181351 0.683184
Si Si4 0.270093 0.390634 0.712561
Si Si5 0.631266 0.889375 0.902608
O O1 0.500000 0.500000 0.594826
O O2 0.500000 0.597126 0.500000
O O3 0.607252 0.673728 0.579435
O O4 0.673687 0.202222 0.500000
O O5 0.677960 0.168295 0.381242
O O6 0.811242 0.297589 0.433986
O O7 0.500000 0.158564 0.684510
O O8 0.650295 0.296592 0.702876
O O9 0.703158 0.121467 0.728568
O O10 0.322795 0.500000 0.709859
O O11 0.180202 0.385142 0.661434
O O12 0.500000 0.881822 0.902890
O O13 0.661544 0.000000 0.925804
#
# Coordination Sequence:
#
# PCOD9518762 Si02
#       5
#     8  16  16  16  16
#     4   9  16  26  40  58  85 121 155 189 235 288
#     4  10  19  30  43  65  96 129 161 200 243 286
#     4  10  19  32  51  75  98 128 168 205 244 297
#     4   9  19  34  51  73 101 129 161 205 254 297
#     4   9  17  29  45  66  92 123 158 197 241 294
#
# _framework density 18.913620000000002
#
# number of rings (size 3 to 8) (size 9 to 14) (size 15 to 20)
#    0.000    2.556    1.111    1.333    0.000    4.444 
#    0.000    1.111    0.000    0.667    0.000    1.556 
#    0.000    0.000    0.000   16.222    0.000    0.000 
#
# Total GULP energy -200611.701802 kJ/mol
# GULP energy per Si atom -5572.547272 kJ/mol
# Density = 1.887057 g / cm^3
# Si number density = 18.913620 Si / 1000 Ang^3
#
#
#
# Elastic Constant Matrix: (Units=GPa)
#
#
# Indices 1 2 3 4 5 6 
#
# 1 46.4305 -14.5553 1.1027 0.0000 0.0000 0.0000
# 2 -14.5553 20.9326 -0.6945 0.0000 0.0000 0.0000
# 3 1.1027 -0.6945 131.4584 0.0000 0.0000 0.0000
# 4 0.0000 0.0000 0.0000 11.3551 0.0000 0.0000
# 5 0.0000 0.0000 0.0000 0.0000 18.3702 0.0000
# 6 0.0000 0.0000 0.0000 0.0000 0.0000 64.1202
#
#
#
# Elastic Compliance Matrix: (Units=1/GPa)
#
#
# Indices 1 2 3 4 5 6 
#
# 1 0.027543 0.019148 -0.000130 0.000000 0.000000 0.000000
# 2 0.019148 0.061092 0.000162 0.000000 0.000000 0.000000
# 3 -0.000130 0.000162 0.007609 0.000000 0.000000 0.000000
# 4 0.000000 0.000000 0.000000 0.088066 0.000000 0.000000
# 5 0.000000 0.000000 0.000000 0.000000 0.054436 0.000000
# 6 0.000000 0.000000 0.000000 0.000000 0.000000 0.015596
#
#
# Mechanical properties :
#
#
# Convention : Reuss Voigt Hill
#
# Bulk Modulus (GPa) = 7.42922 18.94747 13.18834
# Shear Modulus (GPa) = 19.16812 32.96702 26.06757
#
# Velocity S-wave (km/s) = 3.18694 4.17949 3.71650
# Velocity P-wave (km/s) = 4.18074 5.77326 5.04029
#
# Compressibility (1/GPa) = 0.13460368
#
# Stress axis : x y z
#
# Youngs Moduli (GPa) = 36.30663 16.36880 131.42479
#
# Poissons Ratio (x) = -0.31342 0.01707
# Poissons Ratio (y) = -0.69518 -0.02131
# Poissons Ratio (z) = 0.00472 -0.00265
#
# Static dielectric constant tensor:
#      x y z
#    x 1.524090 0.000000 0.000000 
#    y 0.000000 1.679280 0.000000 
#    z 0.000000 0.000000 1.691630 
# 
# From -- ./inp_files/19863.got.cif
#   From: 2010.05.17/outbox.cif.g08.bks.cpg/sg71_10_cif.got.tgz:19863.got - 2010.06.03 16:22:01.
