data_PCOD9518839
_publ_section_title
;
Structure prediction by ZEFSAII (Michael W. Deem and Ramdas Pophale) SiO2 
 PCOD9518839
Probable space group: I M M M
;
_chemical_formula_sum "Si O2"
_cell_formula_units_Z 104
_cell_length_a 24.190738
_cell_length_b 23.916057
_cell_length_c 8.224215
_cell_angle_alpha 90.000000
_cell_angle_beta 90.000000
_cell_angle_gamma 90.000000
_cell_volume 4758.095482
_symmetry_space_group_name_H-M "I M M M"
_symmetry_group_IT_number 71
_symmetry_cell_setting 'orthorhombic'
loop_
_space_group_symop_operation_xyz
x,y,z
-x,-y,z
x,-y,-z
-x,y,-z
-x,-y,-z
x,y,-z
-x,y,z
x,-y,z
1/2+x,1/2+y,1/2+z
1/2-x,1/2-y,1/2+z
1/2+x,1/2-y,1/2-z
1/2-x,1/2+y,1/2-z
1/2-x,1/2-y,1/2-z
1/2+x,1/2+y,1/2-z
1/2-x,1/2+y,1/2+z
1/2+x,1/2-y,1/2+z
loop_
_atom_site_type_symbol
_atom_site_label
_atom_site_fract_x
_atom_site_fract_y
_atom_site_fract_z
Si Si1 0.090442 0.682717 0.815871
Si Si2 0.221277 0.695573 0.185069
Si Si3 0.757184 0.418471 0.315814
Si Si4 0.619361 0.061555 0.196712
Si Si5 0.561729 0.500000 0.698636
Si Si6 0.939391 0.197983 0.308220
Si Si7 0.862562 0.101358 0.196182
O O1 0.155417 0.698034 0.817372
O O2 0.089030 0.618401 0.753000
O O3 0.064803 0.735270 0.722376
O O4 0.069416 0.683268 0.000000
O O5 0.250000 0.750000 0.250000
O O6 0.236568 0.647887 0.311292
O O7 0.239448 0.682089 0.000000
O O8 0.755539 0.439978 0.500000
O O9 0.816196 0.437246 0.242832
O O10 0.696339 0.422805 0.239683
O O11 0.596367 0.000000 0.241770
O O12 0.621388 0.064303 0.000000
O O13 0.500000 0.500000 0.759014
O O14 0.561623 0.500000 0.500000
O O15 0.592706 0.444018 0.748580
O O16 0.938978 0.188649 0.500000
O O17 0.887665 0.162036 0.240573
O O18 0.000000 0.179457 0.241687
O O19 0.856870 0.101267 0.000000
#
# Coordination Sequence:
#
# PCOD9518839 Si02
#       7
#    16  16  16  16   8  16  16
#     4  10  21  36  55  80 108 141 182 227 275 328
#     4  10  19  30  46  70 102 137 172 211 259 316
#     4   9  18  30  47  75 107 140 178 217 257 309
#     4   9  18  33  55  82 116 154 186 218 265 326
#     4   9  18  32  51  75 103 139 185 235 282 323
#     4  11  24  40  58  80 107 140 182 233 287 340
#     4  10  20  34  55  81 110 144 186 233 278 325
#
# _framework density 21.857485
#
# number of rings (size 3 to 8) (size 9 to 14) (size 15 to 20)
#    0.000    2.231    0.000    2.769    1.077    8.308 
#    0.000    0.385    0.000    1.846    0.000    3.231 
#    0.000    0.000    0.000    0.000    0.000    0.000 
#
# Total GULP energy -289721.710921 kJ/mol
# GULP energy per Si atom -5571.571364 kJ/mol
# Density = 2.180774 g / cm^3
# Si number density = 21.857485 Si / 1000 Ang^3
#
#
#
# Elastic Constant Matrix: (Units=GPa)
#
#
# Indices 1 2 3 4 5 6 
#
# 1 39.6343 -7.1298 1.8132 0.0000 0.0000 0.0000
# 2 -7.1298 125.7029 5.3972 0.0000 0.0000 0.0000
# 3 1.8132 5.3972 41.6852 0.0000 0.0000 0.0000
# 4 0.0000 0.0000 0.0000 -30.9015 0.0000 0.0000
# 5 0.0000 0.0000 0.0000 0.0000 11.5222 0.0000
# 6 0.0000 0.0000 0.0000 0.0000 0.0000 34.6755
#
#
#
# Elastic Compliance Matrix: (Units=1/GPa)
#
#
# Indices 1 2 3 4 5 6 
#
# 1 0.025561 0.001506 -0.001307 0.000000 0.000000 0.000000
# 2 0.001506 0.008088 -0.001113 0.000000 0.000000 0.000000
# 3 -0.001307 -0.001113 0.024190 0.000000 0.000000 0.000000
# 4 0.000000 0.000000 0.000000 -0.032361 0.000000 0.000000
# 5 0.000000 0.000000 0.000000 0.000000 0.086789 0.000000
# 6 0.000000 0.000000 0.000000 0.000000 0.000000 0.028839
#
#
# Mechanical properties :
#
#
# Convention : Reuss Voigt Hill
#
# Bulk Modulus (GPa) = 17.85308 23.02039 20.43674
# Shear Modulus (GPa) = 30.93961 16.85536 23.89749
#
# Velocity S-wave (km/s) = 3.76642 2.77997 3.31014
# Velocity P-wave (km/s) = 5.20578 4.56719 4.89691
#
# Compressibility (1/GPa) = 0.05601275
#
# Stress axis : x y z
#
# Youngs Moduli (GPa) = 39.12152 123.63297 41.33900
#
# Poissons Ratio (x) = -0.18618 0.05402
# Poissons Ratio (y) = -0.05891 0.04600
# Poissons Ratio (z) = 0.05113 0.13757
#
# Static dielectric constant tensor:
#      x y z
#    x 1.871430 0.000000 0.000000 
#    y 0.000000 1.795680 0.000000 
#    z 0.000000 0.000000 1.808000 
# 
# From -- ./inp_files/15297.got.cif
#   From: 2010.05.17/outbox.cif.g08.bks.cpg/sg71_8_cif.got.tgz:15297.got - 2010.06.03 16:22:01.
