data_PCOD9518336
_publ_section_title
;
Structure prediction by ZEFSAII (Michael W. Deem and Ramdas Pophale) SiO2 
 PCOD9518336
Probable space group: I M M M
;
_chemical_formula_sum "Si O2"
_cell_formula_units_Z 80
_cell_length_a 19.827784
_cell_length_b 34.091279
_cell_length_c 8.809272
_cell_angle_alpha 90.000000
_cell_angle_beta 90.000000
_cell_angle_gamma 90.000000
_cell_volume 5954.667194
_symmetry_space_group_name_H-M "I M M M"
_symmetry_group_IT_number 71
_symmetry_cell_setting 'orthorhombic'
loop_
_space_group_symop_operation_xyz
x,y,z
-x,-y,z
x,-y,-z
-x,y,-z
-x,-y,-z
x,y,-z
-x,y,z
x,-y,z
1/2+x,1/2+y,1/2+z
1/2-x,1/2-y,1/2+z
1/2+x,1/2-y,1/2-z
1/2-x,1/2+y,1/2-z
1/2-x,1/2-y,1/2-z
1/2+x,1/2+y,1/2-z
1/2-x,1/2+y,1/2+z
1/2+x,1/2-y,1/2+z
loop_
_atom_site_type_symbol
_atom_site_label
_atom_site_fract_x
_atom_site_fract_y
_atom_site_fract_z
Si Si1 0.078816 0.045162 0.182604
Si Si2 0.000000 0.251690 0.316088
Si Si3 0.772618 0.810535 0.317633
Si Si4 0.351333 0.231438 0.182320
Si Si5 0.500000 0.335303 0.318510
Si Si6 0.369785 0.378322 0.817837
O O1 0.125988 0.077277 0.259656
O O2 0.000000 0.052397 0.224811
O O3 0.094312 0.000000 0.221805
O O4 0.082608 0.048970 0.000000
O O5 0.070456 0.272110 0.273327
O O6 0.000000 0.246866 0.500000
O O7 0.000000 0.208977 0.241428
O O8 0.768412 0.809693 0.500000
O O9 0.700069 0.799985 0.250460
O O10 0.822680 0.774585 0.272220
O O11 0.805535 0.851855 0.272517
O O12 0.347581 0.229498 0.000000
O O13 0.500000 0.336927 0.500000
O O14 0.565586 0.356849 0.253534
O O15 0.374971 0.377377 0.000000
#
# Coordination Sequence:
#
# PCOD9518336 Si02
#       6
#    16   8  16  16   8  16
#     4   9  18  31  44  61  85 108 134 172 212 246
#     4  10  18  32  46  59  81 108 139 177 216 245
#     4   9  18  30  42  58  82 108 135 171 209 243
#     4   9  17  29  44  59  80 107 136 171 209 247
#     4  12  22  28  39  61  82 106 142 178 211 248
#     4  11  20  31  45  60  81 109 141 177 211 246
#
# _framework density 13.434839999999999
#
# number of rings (size 3 to 8) (size 9 to 14) (size 15 to 20)
#    0.000    2.200    3.000    2.100    0.000    2.800 
#    0.000    1.000    0.000    0.000    0.000    0.000 
#    0.000    0.000    0.000    0.900    0.000   17.600 
#
# Total GULP energy -222977.344482 kJ/mol
# GULP energy per Si atom -5574.433612 kJ/mol
# Density = 1.340426 g / cm^3
# Si number density = 13.434840 Si / 1000 Ang^3
#
#
#
# Elastic Constant Matrix: (Units=GPa)
#
#
# Indices 1 2 3 4 5 6 
#
# 1 104.2491 56.7403 27.3723 -0.0004 0.0007 0.0001
# 2 56.7403 96.9077 30.4516 -0.0002 -0.0001 0.0008
# 3 27.3723 30.4516 22.2401 -0.0141 -0.0027 0.0001
# 4 -0.0004 -0.0002 -0.0141 21.8923 -0.0006 0.0010
# 5 0.0007 -0.0001 -0.0027 -0.0006 19.1667 0.0004
# 6 0.0001 0.0008 0.0001 0.0010 0.0004 24.2325
#
#
#
# Elastic Compliance Matrix: (Units=1/GPa)
#
#
# Indices 1 2 3 4 5 6 
#
# 1 0.015664 -0.005465 -0.011796 -0.000007 -0.000002 0.000000
# 2 -0.005465 0.020018 -0.020684 -0.000013 -0.000003 -0.000001
# 3 -0.011796 -0.020684 0.087803 0.000056 0.000013 0.000000
# 4 -0.000007 -0.000013 0.000056 0.045678 0.000001 -0.000002
# 5 -0.000002 -0.000003 0.000013 0.000001 0.052174 -0.000001
# 6 0.000000 -0.000001 0.000000 -0.000002 -0.000001 0.041267
#
#
# Mechanical properties :
#
#
# Convention : Reuss Voigt Hill
#
# Bulk Modulus (GPa) = 21.01032 50.28057 35.64544
# Shear Modulus (GPa) = 14.11002 20.31384 17.21193
#
# Velocity S-wave (km/s) = 3.24428 3.89270 3.58319
# Velocity P-wave (km/s) = 5.45036 7.59677 6.61125
#
# Compressibility (1/GPa) = 0.04759566
#
# Stress axis : x y z
#
# Youngs Moduli (GPa) = 63.84073 49.95472 11.38915
#
# Poissons Ratio (x) = 0.27298 0.13435
# Poissons Ratio (y) = 0.34886 0.23557
# Poissons Ratio (z) = 0.75309 1.03324
#
# Static dielectric constant tensor:
#      x y z
#    x 1.435000 0.000000 0.000000 
#    y 0.000000 1.441410 0.000000 
#    z 0.000000 0.000000 1.450060 
# 
# From -- ./inp_files/11294.got.cif
#   From: 2010.05.17/outbox.cif.g08.bks.cpg/sg71_6_cif.got.tgz:11294.got - 2010.06.03 16:22:01.
