data_PCOD9518370
_publ_section_title
;
Structure prediction by ZEFSAII (Michael W. Deem and Ramdas Pophale) SiO2 
 PCOD9518370
Probable space group: I M M M
;
_chemical_formula_sum "Si O2"
_cell_formula_units_Z 72
_cell_length_a 7.580676
_cell_length_b 15.019168
_cell_length_c 30.895856
_cell_angle_alpha 90.000000
_cell_angle_beta 90.000000
_cell_angle_gamma 90.000000
_cell_volume 3517.661477
_symmetry_space_group_name_H-M "I M M M"
_symmetry_group_IT_number 71
_symmetry_cell_setting 'orthorhombic'
loop_
_space_group_symop_operation_xyz
x,y,z
-x,-y,z
x,-y,-z
-x,y,-z
-x,-y,-z
x,y,-z
-x,y,z
x,-y,z
1/2+x,1/2+y,1/2+z
1/2-x,1/2-y,1/2+z
1/2+x,1/2-y,1/2-z
1/2-x,1/2+y,1/2-z
1/2-x,1/2-y,1/2-z
1/2+x,1/2+y,1/2-z
1/2-x,1/2+y,1/2+z
1/2+x,1/2-y,1/2+z
loop_
_atom_site_type_symbol
_atom_site_label
_atom_site_fract_x
_atom_site_fract_y
_atom_site_fract_z
Si Si1 0.209291 0.305280 0.450947
Si Si2 0.787584 0.000000 0.338404
Si Si3 0.216708 0.809559 0.627518
Si Si4 0.711617 0.809039 0.207852
Si Si5 0.211243 0.500000 0.263949
Si Si6 0.290015 0.500000 0.549591
O O1 0.283153 0.303024 0.500000
O O2 0.277021 0.231153 0.418024
O O3 0.234206 0.404918 0.431803
O O4 0.000000 0.292015 0.454403
O O5 0.725012 0.090811 0.360895
O O6 0.743123 0.000000 0.287566
O O7 0.000000 0.000000 0.341086
O O8 0.275258 0.743241 0.665702
O O9 0.000000 0.810051 0.627439
O O10 0.500000 0.815094 0.203881
O O11 0.750000 0.750000 0.250000
O O12 0.781118 0.908619 0.215490
O O13 0.000000 0.500000 0.269895
O O14 0.500000 0.500000 0.548177
O O15 0.219171 0.500000 0.500000
#
# Coordination Sequence:
#
# PCOD9518370 Si02
#       6
#    16   8  16  16   8   8
#     4   9  17  31  51  74 100 132 169 204 240 291
#     4  10  18  32  52  71  94 130 167 197 241 295
#     4   9  18  31  50  74  98 128 166 203 244 290
#     4  10  19  32  49  71  98 128 162 201 245 292
#     4  10  20  31  47  72  99 126 161 202 244 288
#     4   9  17  30  49  73 100 129 160 199 250 298
#
# _framework density 20.468143999999999
#
# number of rings (size 3 to 8) (size 9 to 14) (size 15 to 20)
#    0.000    2.556    2.222    0.333    0.000    2.222 
#    0.000    6.111    0.000    4.667    0.000    0.000 
#    0.000    4.444    0.000    0.000    0.000    0.000 
#
# Total GULP energy -200873.180768 kJ/mol
# GULP energy per Si atom -5579.810577 kJ/mol
# Density = 2.042156 g / cm^3
# Si number density = 20.468144 Si / 1000 Ang^3
#
#
#
# Elastic Constant Matrix: (Units=GPa)
#
#
# Indices 1 2 3 4 5 6 
#
# 1 47.4714 7.4065 4.7851 0.0000 0.0000 0.0000
# 2 7.4065 223.4786 93.9078 0.0000 0.0000 0.0000
# 3 4.7851 93.9078 111.7220 0.0000 0.0000 0.0000
# 4 0.0000 0.0000 0.0000 28.6294 0.0000 0.0000
# 5 0.0000 0.0000 0.0000 0.0000 13.3866 0.0000
# 6 0.0000 0.0000 0.0000 0.0000 0.0000 3.0295
#
#
#
# Elastic Compliance Matrix: (Units=1/GPa)
#
#
# Indices 1 2 3 4 5 6 
#
# 1 0.021192 -0.000496 -0.000491 0.000000 0.000000 0.000000
# 2 -0.000496 0.006930 -0.005804 0.000000 0.000000 0.000000
# 3 -0.000491 -0.005804 0.013850 0.000000 0.000000 0.000000
# 4 0.000000 0.000000 0.000000 0.034929 0.000000 0.000000
# 5 0.000000 0.000000 0.000000 0.000000 0.074702 0.000000
# 6 0.000000 0.000000 0.000000 0.000000 0.000000 0.330083
#
#
# Mechanical properties :
#
#
# Convention : Reuss Voigt Hill
#
# Bulk Modulus (GPa) = 35.22213 66.09675 50.65944
# Shear Modulus (GPa) = 9.90626 27.44726 18.67676
#
# Velocity S-wave (km/s) = 2.20235 3.66590 3.02400
# Velocity P-wave (km/s) = 4.86957 7.09092 6.08251
#
# Compressibility (1/GPa) = 0.02839124
#
# Stress axis : x y z
#
# Youngs Moduli (GPa) = 47.18723 144.30206 72.20172
#
# Poissons Ratio (x) = 0.07160 0.03542
# Poissons Ratio (y) = 0.02341 0.41904
# Poissons Ratio (z) = 0.02315 0.83748
#
# Static dielectric constant tensor:
#      x y z
#    x 1.820920 0.000000 0.000000 
#    y 0.000000 1.730200 0.000000 
#    z 0.000000 0.000000 1.723010 
# 
# From -- ./inp_files/6514.got.cif
#   From: 2010.05.17/outbox.cif.g08.bks.cpg/sg71_4_cif.got.tgz:6514.got - 2010.06.03 16:22:01.
