data_PCOD9518803
_publ_section_title
;
Structure prediction by ZEFSAII (Michael W. Deem and Ramdas Pophale) SiO2 
 PCOD9518803
Probable space group: I M M M
;
_chemical_formula_sum "Si O2"
_cell_formula_units_Z 104
_cell_length_a 8.882211
_cell_length_b 30.586484
_cell_length_c 23.333318
_cell_angle_alpha 90.000000
_cell_angle_beta 90.000000
_cell_angle_gamma 90.000000
_cell_volume 6339.093276
_symmetry_space_group_name_H-M "I M M M"
_symmetry_group_IT_number 71
_symmetry_cell_setting 'orthorhombic'
loop_
_space_group_symop_operation_xyz
x,y,z
-x,-y,z
x,-y,-z
-x,y,-z
-x,-y,-z
x,y,-z
-x,y,z
x,-y,z
1/2+x,1/2+y,1/2+z
1/2-x,1/2-y,1/2+z
1/2+x,1/2-y,1/2-z
1/2-x,1/2+y,1/2-z
1/2-x,1/2-y,1/2-z
1/2+x,1/2+y,1/2-z
1/2-x,1/2+y,1/2+z
1/2+x,1/2-y,1/2+z
loop_
_atom_site_type_symbol
_atom_site_label
_atom_site_fract_x
_atom_site_fract_y
_atom_site_fract_z
Si Si1 0.819138 0.103127 0.892585
Si Si2 0.817009 0.049927 0.218034
Si Si3 0.826222 0.281791 0.069594
Si Si4 0.680001 0.948165 0.000000
Si Si5 0.322025 0.191531 0.068422
Si Si6 0.681497 0.550861 0.848420
Si Si7 0.182077 0.621168 0.933484
O O1 0.769348 0.082326 0.832141
O O2 0.749620 0.074762 0.944170
O O3 0.764541 0.152633 0.900418
O O4 0.000000 0.101154 0.896263
O O5 0.770775 0.061101 0.282887
O O6 0.000000 0.049702 0.218287
O O7 0.769042 0.000000 0.205522
O O8 0.731271 0.239685 0.087083
O O9 0.770833 0.330042 0.086644
O O10 0.000000 0.276258 0.087630
O O11 0.826017 0.282827 0.000000
O O12 0.500000 0.941654 0.000000
O O13 0.711444 0.000000 0.000000
O O14 0.500000 0.186613 0.076267
O O15 0.290352 0.187539 0.000000
O O16 0.500000 0.554216 0.851225
O O17 0.720394 0.500000 0.859603
O O18 0.753744 0.583676 0.893354
O O19 0.000000 0.620804 0.932383
O O20 0.228205 0.615174 0.000000
#
# Coordination Sequence:
#
# PCOD9518803 Si02
#       7
#    16  16  16   8  16  16  16
#     4  11  20  31  51  72  92 125 168 207 244 295
#     4   8  16  32  51  70  92 122 165 210 244 280
#     4   8  15  29  48  68  93 126 163 197 233 285
#     4  11  23  35  45  65 101 133 157 201 260 301
#     4  10  19  30  45  68 101 130 155 197 251 296
#     4   9  18  33  52  73  99 130 163 201 241 285
#     4   9  18  32  50  75 105 132 158 196 242 286
#
# _framework density 16.406131999999999
#
# number of rings (size 3 to 8) (size 9 to 14) (size 15 to 20)
#    0.000    2.692    0.769    3.462    0.000    3.385 
#    0.000    4.615    0.000    2.769    0.000    0.000 
#    0.000    0.000    0.000    0.000    0.000    0.000 
#
# Total GULP energy -289824.510236 kJ/mol
# GULP energy per Si atom -5573.548274 kJ/mol
# Density = 1.636879 g / cm^3
# Si number density = 16.406132 Si / 1000 Ang^3
#
#
#
# Elastic Constant Matrix: (Units=GPa)
#
#
# Indices 1 2 3 4 5 6 
#
# 1 29.2040 47.2964 31.1966 0.0000 0.0000 0.0000
# 2 47.2964 150.4418 86.9319 0.0000 0.0000 0.0000
# 3 31.1966 86.9319 90.4740 0.0000 0.0000 0.0000
# 4 0.0000 0.0000 0.0000 12.8904 0.0000 0.0000
# 5 0.0000 0.0000 0.0000 0.0000 9.3978 0.0000
# 6 0.0000 0.0000 0.0000 0.0000 0.0000 30.1131
#
#
#
# Elastic Compliance Matrix: (Units=1/GPa)
#
#
# Indices 1 2 3 4 5 6 
#
# 1 0.071616 -0.018539 -0.006881 0.000000 0.000000 0.000000
# 2 -0.018539 0.019744 -0.012578 0.000000 0.000000 0.000000
# 3 -0.006881 -0.012578 0.025512 0.000000 0.000000 0.000000
# 4 0.000000 0.000000 0.000000 0.077577 0.000000 0.000000
# 5 0.000000 0.000000 0.000000 0.000000 0.106408 0.000000
# 6 0.000000 0.000000 0.000000 0.000000 0.000000 0.033208
#
#
# Mechanical properties :
#
#
# Convention : Reuss Voigt Hill
#
# Bulk Modulus (GPa) = 24.46494 66.77440 45.61967
# Shear Modulus (GPa) = 11.80120 17.45993 14.63056
#
# Velocity S-wave (km/s) = 2.68492 3.26580 2.98950
# Velocity P-wave (km/s) = 4.95542 7.41686 6.30737
#
# Compressibility (1/GPa) = 0.04087482
#
# Stress axis : x y z
#
# Youngs Moduli (GPa) = 13.96331 50.64942 39.19800
#
# Poissons Ratio (x) = 0.93897 0.26974
# Poissons Ratio (y) = 0.25886 0.49304
# Poissons Ratio (z) = 0.09609 0.63708
#
# Static dielectric constant tensor:
#      x y z
#    x 1.552480 0.000000 0.000000 
#    y 0.000000 1.553030 0.000000 
#    z 0.000000 0.000000 1.533480 
# 
# From -- ./inp_files/58018.got.cif
#   From: 2010.05.17/outbox.cif.g08.bks.cpg/sg71_30_cif.got.tgz:58018.got - 2010.06.03 16:22:01.
