data_PCOD9518970
_publ_section_title
;
Structure prediction by ZEFSAII (Michael W. Deem and Ramdas Pophale) SiO2 
 PCOD9518970
Probable space group: I M M M
;
_chemical_formula_sum "Si O2"
_cell_formula_units_Z 96
_cell_length_a 24.612510
_cell_length_b 23.015669
_cell_length_c 7.535265
_cell_angle_alpha 90.000000
_cell_angle_beta 90.000000
_cell_angle_gamma 90.000000
_cell_volume 4268.527060
_symmetry_space_group_name_H-M "I M M M"
_symmetry_group_IT_number 71
_symmetry_cell_setting 'orthorhombic'
loop_
_space_group_symop_operation_xyz
x,y,z
-x,-y,z
x,-y,-z
-x,y,-z
-x,-y,-z
x,y,-z
-x,y,z
x,-y,z
1/2+x,1/2+y,1/2+z
1/2-x,1/2-y,1/2+z
1/2+x,1/2-y,1/2-z
1/2-x,1/2+y,1/2-z
1/2-x,1/2-y,1/2-z
1/2+x,1/2+y,1/2-z
1/2-x,1/2+y,1/2+z
1/2+x,1/2-y,1/2+z
loop_
_atom_site_type_symbol
_atom_site_label
_atom_site_fract_x
_atom_site_fract_y
_atom_site_fract_z
Si Si1 0.059600 0.312299 0.293008
Si Si2 0.560254 0.432472 0.283432
Si Si3 0.895661 0.564035 0.215143
Si Si4 0.217478 0.383421 0.786186
Si Si5 0.665736 0.634894 0.289179
Si Si6 0.173258 0.262779 0.797361
O O1 0.062026 0.296522 0.500000
O O2 0.069366 0.381489 0.278261
O O3 0.110221 0.281720 0.200944
O O4 0.000000 0.297507 0.222767
O O5 0.560943 0.431509 0.500000
O O6 0.500000 0.411987 0.228473
O O7 0.565911 0.500000 0.231742
O O8 0.611543 0.395555 0.219323
O O9 0.912788 0.500000 0.273762
O O10 0.833115 0.576837 0.269994
O O11 0.897431 0.565214 0.000000
O O12 0.278343 0.400118 0.735531
O O13 0.204242 0.318121 0.716634
O O14 0.215016 0.381684 0.000000
O O15 0.657173 0.642098 0.500000
O O16 0.675910 0.699379 0.212872
O O17 0.193002 0.258085 0.000000
#
# Coordination Sequence:
#
# PCOD9518970 Si02
#       6
#    16  16  16  16  16  16
#     4  10  21  35  51  74 103 132 164 207 258 304
#     4   8  15  29  47  68  97 127 153 191 243 289
#     4   9  19  36  55  74  99 134 174 209 242 289
#     4   9  18  32  48  69 100 133 160 195 247 296
#     4  10  19  30  50  78  98 122 167 210 241 286
#     4   9  19  34  50  70  98 132 169 205 243 292
#
# _framework density 22.490195
#
# number of rings (size 3 to 8) (size 9 to 14) (size 15 to 20)
#    0.000    2.833    0.000    2.500    0.000    6.667 
#    0.000    3.333    0.000    0.500    0.000    1.167 
#    0.000    0.000    0.000    0.000    0.000    0.000 
#
# Total GULP energy -267915.063035 kJ/mol
# GULP energy per Si atom -5581.563813 kJ/mol
# Density = 2.243901 g / cm^3
# Si number density = 22.490195 Si / 1000 Ang^3
#
#
#
# Elastic Constant Matrix: (Units=GPa)
#
#
# Indices 1 2 3 4 5 6 
#
# 1 125.3534 -6.9632 -6.1247 0.0000 0.0000 0.0000
# 2 -6.9632 11.3606 0.0444 0.0000 0.0000 0.0000
# 3 -6.1247 0.0444 60.2265 0.0000 0.0000 0.0000
# 4 0.0000 0.0000 0.0000 -9.9415 0.0000 0.0000
# 5 0.0000 0.0000 0.0000 0.0000 7.1512 0.0000
# 6 0.0000 0.0000 0.0000 0.0000 0.0000 5.3996
#
#
#
# Elastic Compliance Matrix: (Units=1/GPa)
#
#
# Indices 1 2 3 4 5 6 
#
# 1 0.008301 0.005085 0.000840 0.000000 0.000000 0.000000
# 2 0.005085 0.091138 0.000450 0.000000 0.000000 0.000000
# 3 0.000840 0.000450 0.016689 0.000000 0.000000 0.000000
# 4 0.000000 0.000000 0.000000 -0.100588 0.000000 0.000000
# 5 0.000000 0.000000 0.000000 0.000000 0.139836 0.000000
# 6 0.000000 0.000000 0.000000 0.000000 0.000000 0.185198
#
#
# Mechanical properties :
#
#
# Convention : Reuss Voigt Hill
#
# Bulk Modulus (GPa) = 7.75925 18.98371 13.37148
# Shear Modulus (GPa) = 13.48493 14.52080 14.00286
#
# Velocity S-wave (km/s) = 2.45131 2.54372 2.49794
# Velocity P-wave (km/s) = 3.38666 4.13359 3.77863
#
# Compressibility (1/GPa) = 0.12887838
#
# Stress axis : x y z
#
# Youngs Moduli (GPa) = 120.46815 10.97233 59.91924
#
# Poissons Ratio (x) = -0.05579 -0.05036
# Poissons Ratio (y) = -0.61253 -0.02696
# Poissons Ratio (z) = -0.10124 -0.00494
#
# Static dielectric constant tensor:
#      x y z
#    x 1.824100 0.000000 0.000000 
#    y 0.000000 1.824550 0.000000 
#    z 0.000000 0.000000 1.850780 
# 
# From -- ./inp_files/12822.got.cif
#   From: 2010.05.17/outbox.cif.g08.bks.cpg/sg71_7_cif.got.tgz:12822.got - 2010.06.03 16:22:01.
