data_PCOD9518688
_publ_section_title
;
Structure prediction by ZEFSAII (Michael W. Deem and Ramdas Pophale) SiO2 
 PCOD9518688
Probable space group: I M M M
;
_chemical_formula_sum "Si O2"
_cell_formula_units_Z 96
_cell_length_a 19.385908
_cell_length_b 17.783384
_cell_length_c 16.857875
_cell_angle_alpha 90.000000
_cell_angle_beta 90.000000
_cell_angle_gamma 90.000000
_cell_volume 5811.702611
_symmetry_space_group_name_H-M "I M M M"
_symmetry_group_IT_number 71
_symmetry_cell_setting 'orthorhombic'
loop_
_space_group_symop_operation_xyz
x,y,z
-x,-y,z
x,-y,-z
-x,y,-z
-x,-y,-z
x,y,-z
-x,y,z
x,-y,z
1/2+x,1/2+y,1/2+z
1/2-x,1/2-y,1/2+z
1/2+x,1/2-y,1/2-z
1/2-x,1/2+y,1/2-z
1/2-x,1/2-y,1/2-z
1/2+x,1/2+y,1/2-z
1/2-x,1/2+y,1/2+z
1/2+x,1/2-y,1/2+z
loop_
_atom_site_type_symbol
_atom_site_label
_atom_site_fract_x
_atom_site_fract_y
_atom_site_fract_z
Si Si1 0.847252 0.084908 0.336161
Si Si2 0.421805 0.371832 0.322386
Si Si3 0.919870 0.781993 0.413676
Si Si4 0.725104 0.162802 0.754834
Si Si5 0.422346 0.795644 0.746008
Si Si6 0.783701 0.910539 0.091278
O O1 0.899698 0.090583 0.261061
O O2 0.873369 0.145368 0.399040
O O3 0.775282 0.113602 0.299919
O O4 0.843940 0.000000 0.364719
O O5 0.500000 0.391696 0.344185
O O6 0.419019 0.282502 0.303151
O O7 0.363254 0.393552 0.384982
O O8 0.906047 0.747802 0.500000
O O9 0.912130 0.728093 0.338240
O O10 0.000000 0.806057 0.411609
O O11 0.750000 0.250000 0.750000
O O12 0.645843 0.157308 0.728035
O O13 0.738326 0.133837 0.844260
O O14 0.500000 0.826657 0.736322
O O15 0.772546 0.000000 0.100574
O O16 0.770612 0.889827 0.000000
#
# Coordination Sequence:
#
# PCOD9518688 Si02
#       6
#    16  16  16  16  16  16
#     4  10  19  29  44  66  93 124 158 196 234 275
#     4   9  16  28  46  67  93 125 159 191 225 280
#     4   9  17  28  42  65  98 129 155 183 223 279
#     4  11  17  32  52  71  88 122 165 198 235 274
#     4   9  17  30  48  70  94 119 155 201 241 276
#     4  10  21  33  46  70 102 132 159 192 238 286
#
# _framework density 16.518395999999999
#
# number of rings (size 3 to 8) (size 9 to 14) (size 15 to 20)
#    0.000    2.333    5.000    3.500    0.000    3.667 
#    0.000    1.667    0.000    2.000    0.000    1.167 
#    0.000    0.000    0.000    1.500    0.000    0.500 
#
# Total GULP energy -267392.904000 kJ/mol
# GULP energy per Si atom -5570.685500 kJ/mol
# Density = 1.648080 g / cm^3
# Si number density = 16.518396 Si / 1000 Ang^3
#
#
#
# Elastic Constant Matrix: (Units=GPa)
#
#
# Indices 1 2 3 4 5 6 
#
# 1 92.4760 17.6385 -6.0252 0.0000 0.0000 0.0000
# 2 17.6385 20.5683 6.4740 0.0000 0.0000 0.0000
# 3 -6.0252 6.4740 44.5267 0.0000 0.0000 0.0000
# 4 0.0000 0.0000 0.0000 13.7680 0.0000 0.0000
# 5 0.0000 0.0000 0.0000 0.0000 11.8515 0.0000
# 6 0.0000 0.0000 0.0000 0.0000 0.0000 12.4152
#
#
#
# Elastic Compliance Matrix: (Units=1/GPa)
#
#
# Indices 1 2 3 4 5 6 
#
# 1 0.013478 -0.012714 0.003672 0.000000 0.000000 0.000000
# 2 -0.012714 0.062944 -0.010872 0.000000 0.000000 0.000000
# 3 0.003672 -0.010872 0.024536 0.000000 0.000000 0.000000
# 4 0.000000 0.000000 0.000000 0.072632 0.000000 0.000000
# 5 0.000000 0.000000 0.000000 0.000000 0.084377 0.000000
# 6 0.000000 0.000000 0.000000 0.000000 0.000000 0.080547
#
#
# Mechanical properties :
#
#
# Convention : Reuss Voigt Hill
#
# Bulk Modulus (GPa) = 16.35856 21.52727 18.94292
# Shear Modulus (GPa) = 12.54019 16.90585 14.72302
#
# Velocity S-wave (km/s) = 2.75828 3.20262 2.98872
# Velocity P-wave (km/s) = 4.47983 5.17072 4.83762
#
# Compressibility (1/GPa) = 0.06113009
#
# Stress axis : x y z
#
# Youngs Moduli (GPa) = 74.19559 15.88724 40.75621
#
# Poissons Ratio (x) = 0.20199 -0.14967
# Poissons Ratio (y) = 0.94332 0.44311
# Poissons Ratio (z) = -0.27247 0.17273
#
# Static dielectric constant tensor:
#      x y z
#    x 1.588620 0.000000 0.000000 
#    y 0.000000 1.553980 0.000000 
#    z 0.000000 0.000000 1.566560 
# 
# From -- ./inp_files/46295.got.cif
#   From: 2010.05.17/outbox.cif.g08.bks.cpg/sg71_24_cif.got.tgz:46295.got - 2010.06.03 16:22:01.
