data_PCOD9518496
_publ_section_title
;
Structure prediction by ZEFSAII (Michael W. Deem and Ramdas Pophale) SiO2 
 PCOD9518496
Probable space group: I M M M
;
_chemical_formula_sum "Si O2"
_cell_formula_units_Z 88
_cell_length_a 15.555988
_cell_length_b 11.856890
_cell_length_c 28.311937
_cell_angle_alpha 90.000000
_cell_angle_beta 90.000000
_cell_angle_gamma 90.000000
_cell_volume 5222.013299
_symmetry_space_group_name_H-M "I M M M"
_symmetry_group_IT_number 71
_symmetry_cell_setting 'orthorhombic'
loop_
_space_group_symop_operation_xyz
x,y,z
-x,-y,z
x,-y,-z
-x,y,-z
-x,-y,-z
x,y,-z
-x,y,z
x,-y,z
1/2+x,1/2+y,1/2+z
1/2-x,1/2-y,1/2+z
1/2+x,1/2-y,1/2-z
1/2-x,1/2+y,1/2-z
1/2-x,1/2-y,1/2-z
1/2+x,1/2+y,1/2-z
1/2-x,1/2+y,1/2+z
1/2+x,1/2-y,1/2+z
loop_
_atom_site_type_symbol
_atom_site_label
_atom_site_fract_x
_atom_site_fract_y
_atom_site_fract_z
Si Si1 0.500000 0.870944 0.442889
Si Si2 0.099182 0.500000 0.373953
Si Si3 0.759734 0.000000 0.944143
Si Si4 0.599265 0.775014 0.188933
Si Si5 0.402048 0.864761 0.706468
Si Si6 0.822286 0.752787 0.943889
Si Si7 0.256672 0.365898 0.860570
O O1 0.500000 0.879805 0.500000
O O2 0.585960 0.802479 0.430962
O O3 0.500000 0.000000 0.423736
O O4 0.172562 0.500000 0.413666
O O5 0.109677 0.610132 0.341188
O O6 0.000000 0.500000 0.391835
O O7 0.813498 0.886162 0.934502
O O8 0.738947 0.000000 0.000000
O O9 0.500000 0.739394 0.184479
O O10 0.615108 0.804317 0.243716
O O11 0.663833 0.683990 0.168150
O O12 0.500000 0.838505 0.691238
O O13 0.329693 0.835824 0.668624
O O14 0.398341 0.000000 0.714427
O O15 0.752324 0.690410 0.911793
O O16 0.809393 0.735173 0.000000
O O17 0.261189 0.500000 0.864775
#
# Coordination Sequence:
#
# PCOD9518496 Si02
#       7
#     8   8   8  16  16  16  16
#     4   9  18  33  53  75 103 144 183 211 253 319
#     4  10  18  33  59  81 100 138 178 219 276 326
#     4  10  20  36  56  82 109 135 176 235 283 315
#     4  10  19  35  57  78 105 140 180 222 269 325
#     4   9  18  33  54  81 108 135 174 224 269 316
#     4  10  21  36  55  79 109 142 181 226 272 320
#     4  11  22  33  52  81 110 145 181 219 268 321
#
# _framework density 16.851738000000001
#
# number of rings (size 3 to 8) (size 9 to 14) (size 15 to 20)
#    0.000    2.091    2.727    1.091    1.273    2.000 
#    0.000    1.818    0.000    0.545    0.000    1.273 
#    0.000    0.000    0.000    0.000    0.000    0.000 
#
# Total GULP energy -245442.132119 kJ/mol
# GULP energy per Si atom -5578.230275 kJ/mol
# Density = 1.681338 g / cm^3
# Si number density = 16.851738 Si / 1000 Ang^3
#
#
#
# Elastic Constant Matrix: (Units=GPa)
#
#
# Indices 1 2 3 4 5 6 
#
# 1 73.1289 55.5100 51.0459 0.0000 0.0000 0.0000
# 2 55.5100 98.5452 47.7189 0.0000 0.0000 0.0000
# 3 51.0459 47.7189 70.0416 0.0000 0.0000 0.0000
# 4 0.0000 0.0000 0.0000 17.7738 0.0000 0.0000
# 5 0.0000 0.0000 0.0000 0.0000 26.5233 0.0000
# 6 0.0000 0.0000 0.0000 0.0000 0.0000 32.7562
#
#
#
# Elastic Compliance Matrix: (Units=1/GPa)
#
#
# Indices 1 2 3 4 5 6 
#
# 1 0.033993 -0.010673 -0.017503 0.000000 0.000000 0.000000
# 2 -0.010673 0.018495 -0.004822 0.000000 0.000000 0.000000
# 3 -0.017503 -0.004822 0.030318 0.000000 0.000000 0.000000
# 4 0.000000 0.000000 0.000000 0.056263 0.000000 0.000000
# 5 0.000000 0.000000 0.000000 0.000000 0.037703 0.000000
# 6 0.000000 0.000000 0.000000 0.000000 0.000000 0.030529
#
#
# Mechanical properties :
#
#
# Convention : Reuss Voigt Hill
#
# Bulk Modulus (GPa) = 59.48461 61.14059 60.31260
# Shear Modulus (GPa) = 17.92765 21.24005 19.58385
#
# Velocity S-wave (km/s) = 3.26520 3.55407 3.41270
# Velocity P-wave (km/s) = 7.04208 7.29398 7.16913
#
# Compressibility (1/GPa) = 0.01681107
#
# Stress axis : x y z
#
# Youngs Moduli (GPa) = 29.41752 54.07009 32.98340
#
# Poissons Ratio (x) = 0.57708 0.57730
# Poissons Ratio (y) = 0.31397 0.15904
# Poissons Ratio (z) = 0.51489 0.26072
#
# Static dielectric constant tensor:
#      x y z
#    x 1.559930 0.000000 0.000000 
#    y 0.000000 1.545730 0.000000 
#    z 0.000000 0.000000 1.565890 
# 
# From -- ./inp_files/28665.got.cif
#   From: 2010.05.17/outbox.cif.g08.bks.cpg/sg71_15_cif.got.tgz:28665.got - 2010.06.03 16:22:01.
