data_PCOD9518689
_publ_section_title
;
Structure prediction by ZEFSAII (Michael W. Deem and Ramdas Pophale) SiO2 
 PCOD9518689
Probable space group: I M M M
;
_chemical_formula_sum "Si O2"
_cell_formula_units_Z 120
_cell_length_a 7.467278
_cell_length_b 34.682647
_cell_length_c 23.895468
_cell_angle_alpha 90.000000
_cell_angle_beta 90.000000
_cell_angle_gamma 90.000000
_cell_volume 6188.566990
_symmetry_space_group_name_H-M "I M M M"
_symmetry_group_IT_number 71
_symmetry_cell_setting 'orthorhombic'
loop_
_space_group_symop_operation_xyz
x,y,z
-x,-y,z
x,-y,-z
-x,y,-z
-x,-y,-z
x,y,-z
-x,y,z
x,-y,z
1/2+x,1/2+y,1/2+z
1/2-x,1/2-y,1/2+z
1/2+x,1/2-y,1/2-z
1/2-x,1/2+y,1/2-z
1/2-x,1/2-y,1/2-z
1/2+x,1/2+y,1/2-z
1/2-x,1/2+y,1/2+z
1/2+x,1/2-y,1/2+z
loop_
_atom_site_type_symbol
_atom_site_label
_atom_site_fract_x
_atom_site_fract_y
_atom_site_fract_z
Si Si1 0.715135 0.959061 0.065104
Si Si2 0.214362 0.795396 0.739700
Si Si3 0.716135 0.763520 0.562841
Si Si4 0.211139 0.876079 0.062943
Si Si5 0.208396 0.000000 0.432181
Si Si6 0.719656 0.585588 0.065393
Si Si7 0.289796 0.661583 0.128473
Si Si8 0.780382 0.192877 0.861645
O O1 0.500000 0.959462 0.064415
O O2 0.769777 0.918305 0.089642
O O3 0.776347 0.000000 0.089575
O O4 0.776128 0.958419 0.000000
O O5 0.250000 0.750000 0.750000
O O6 0.285424 0.817129 0.684372
O O7 0.278032 0.813139 0.798183
O O8 0.000000 0.798504 0.736304
O O9 0.775827 0.753383 0.500000
O O10 0.500000 0.762337 0.562783
O O11 0.772389 0.806177 0.580357
O O12 0.777290 0.732892 0.609534
O O13 0.283751 0.841821 0.099827
O O14 0.000000 0.868817 0.057743
O O15 0.287440 0.876627 0.000000
O O16 0.280431 0.042447 0.416381
O O17 0.213332 0.000000 0.500000
O O18 0.000000 0.000000 0.414894
O O19 0.500000 0.585188 0.065771
O O20 0.780978 0.620876 0.104781
O O21 0.770743 0.591783 0.000000
O O22 0.500000 0.654856 0.139049
O O23 0.000000 0.193561 0.860922
#
# Coordination Sequence:
#
# PCOD9518689 Si02
#       8
#    16  16  16  16   8  16  16  16
#     4   8  14  25  40  59  86 115 136 161 207 262
#     4  10  19  32  48  63  82 114 151 184 219 258
#     4  10  19  30  45  63  86 119 151 175 210 262
#     4   9  16  26  42  63  83 106 141 180 215 255
#     4   7  10  18  34  56  83 115 141 159 196 258
#     4   8  13  22  37  60  90 116 137 168 211 259
#     4  10  19  29  44  67  90 113 143 184 227 257
#     4   9  17  30  45  60  82 113 146 182 217 253
#
# _framework density 19.390597
#
# number of rings (size 3 to 8) (size 9 to 14) (size 15 to 20)
#    0.000    3.000    1.333    2.000    0.000    2.667 
#    0.000    2.667    0.000    1.600    1.733    0.467 
#    0.000    2.667    0.000    0.000    0.000    0.000 
#
# Total GULP energy -334156.475323 kJ/mol
# GULP energy per Si atom -5569.274589 kJ/mol
# Density = 1.934646 g / cm^3
# Si number density = 19.390597 Si / 1000 Ang^3
#
#
#
# Elastic Constant Matrix: (Units=GPa)
#
#
# Indices 1 2 3 4 5 6 
#
# 1 54.6450 0.6470 5.4974 0.0000 0.0000 0.0000
# 2 0.6470 167.3816 57.9446 0.0000 0.0000 0.0000
# 3 5.4974 57.9446 94.6778 0.0000 0.0000 0.0000
# 4 0.0000 0.0000 0.0000 8.2297 0.0000 0.0000
# 5 0.0000 0.0000 0.0000 0.0000 2.7515 0.0000
# 6 0.0000 0.0000 0.0000 0.0000 0.0000 6.9368
#
#
#
# Elastic Compliance Matrix: (Units=1/GPa)
#
#
# Indices 1 2 3 4 5 6 
#
# 1 0.018426 0.000380 -0.001302 0.000000 0.000000 0.000000
# 2 0.000380 0.007588 -0.004666 0.000000 0.000000 0.000000
# 3 -0.001302 -0.004666 0.013494 0.000000 0.000000 0.000000
# 4 0.000000 0.000000 0.000000 0.121512 0.000000 0.000000
# 5 0.000000 0.000000 0.000000 0.000000 0.363433 0.000000
# 6 0.000000 0.000000 0.000000 0.000000 0.000000 0.144159
#
#
# Mechanical properties :
#
#
# Convention : Reuss Voigt Hill
#
# Bulk Modulus (GPa) = 35.29755 49.43138 42.36447
# Shear Modulus (GPa) = 7.25444 20.42463 13.83953
#
# Velocity S-wave (km/s) = 1.93632 3.24902 2.67446
# Velocity P-wave (km/s) = 4.82100 6.29465 5.60646
#
# Compressibility (1/GPa) = 0.02833057
#
# Stress axis : x y z
#
# Youngs Moduli (GPa) = 54.26980 131.78251 74.10948
#
# Poissons Ratio (x) = -0.05002 0.09651
# Poissons Ratio (y) = -0.02060 0.34581
# Poissons Ratio (z) = 0.07067 0.61492
#
# Static dielectric constant tensor:
#      x y z
#    x 1.820940 0.000000 0.000000 
#    y 0.000000 1.720240 0.000000 
#    z 0.000000 0.000000 1.683530 
# 
# From -- ./inp_files/59343.got.cif
#   From: 2010.05.17/outbox.cif.g08.bks.cpg/sg71_30_cif.got.tgz:59343.got - 2010.06.03 16:22:01.
