data_PCOD9518955
_publ_section_title
;
Structure prediction by ZEFSAII (Michael W. Deem and Ramdas Pophale) SiO2 
 PCOD9518955
Probable space group: I M M M
;
_chemical_formula_sum "Si O2"
_cell_formula_units_Z 88
_cell_length_a 30.972189
_cell_length_b 15.031622
_cell_length_c 9.566977
_cell_angle_alpha 90.000000
_cell_angle_beta 90.000000
_cell_angle_gamma 90.000000
_cell_volume 4454.023219
_symmetry_space_group_name_H-M "I M M M"
_symmetry_group_IT_number 71
_symmetry_cell_setting 'orthorhombic'
loop_
_space_group_symop_operation_xyz
x,y,z
-x,-y,z
x,-y,-z
-x,y,-z
-x,-y,-z
x,y,-z
-x,y,z
x,-y,z
1/2+x,1/2+y,1/2+z
1/2-x,1/2-y,1/2+z
1/2+x,1/2-y,1/2-z
1/2-x,1/2+y,1/2-z
1/2-x,1/2-y,1/2-z
1/2+x,1/2+y,1/2-z
1/2-x,1/2+y,1/2+z
1/2+x,1/2-y,1/2+z
loop_
_atom_site_type_symbol
_atom_site_label
_atom_site_fract_x
_atom_site_fract_y
_atom_site_fract_z
Si Si1 0.126381 0.871451 0.161905
Si Si2 0.049787 0.000000 0.831209
Si Si3 0.790635 0.862791 0.338851
Si Si4 0.374265 0.842539 0.659356
Si Si5 0.207508 0.354582 0.339236
Si Si6 0.951293 0.606520 0.346452
O O1 0.165840 0.895348 0.263515
O O2 0.125346 0.764740 0.162843
O O3 0.080815 0.916026 0.204714
O O4 0.135106 0.897545 0.000000
O O5 0.000000 0.000000 0.778065
O O6 0.046334 0.000000 0.000000
O O7 0.787467 0.891131 0.500000
O O8 0.791335 0.754070 0.340025
O O9 0.749039 0.886815 0.246604
O O10 0.368023 0.871314 0.500000
O O11 0.336039 0.878134 0.757323
O O12 0.419566 0.869811 0.723533
O O13 0.207768 0.384005 0.500000
O O14 0.935610 0.638157 0.500000
O O15 0.953323 0.500000 0.352692
O O16 0.000000 0.640037 0.326012
#
# Coordination Sequence:
#
# PCOD9518955 Si02
#       6
#    16   8  16  16  16  16
#     4   9  18  32  51  75 102 135 175 216 260 311
#     4   9  18  34  55  75  99 137 183 227 266 307
#     4   9  16  27  46  72 101 131 165 207 254 304
#     4  10  19  30  49  79 109 134 167 214 263 308
#     4   9  16  27  46  72 102 135 168 202 246 303
#     4   9  19  36  55  73  97 133 172 206 247 305
#
# _framework density 19.757418999999999
#
# number of rings (size 3 to 8) (size 9 to 14) (size 15 to 20)
#    0.000    2.818    0.000    2.182    0.000    6.545 
#    0.000    3.182    2.000    1.091    0.000    0.000 
#    0.000    0.000    0.000    0.000    0.000    0.000 
#
# Total GULP energy -245403.624237 kJ/mol
# GULP energy per Si atom -5577.355096 kJ/mol
# Density = 1.971245 g / cm^3
# Si number density = 19.757419 Si / 1000 Ang^3
#
#
#
# Elastic Constant Matrix: (Units=GPa)
#
#
# Indices 1 2 3 4 5 6 
#
# 1 151.9082 17.2706 97.0482 0.0000 0.0000 0.0000
# 2 17.2706 32.1719 17.2730 0.0000 0.0000 0.0000
# 3 97.0482 17.2730 165.9154 0.0000 0.0000 0.0000
# 4 0.0000 0.0000 0.0000 -0.5488 0.0000 0.0000
# 5 0.0000 0.0000 0.0000 0.0000 29.3483 0.0000
# 6 0.0000 0.0000 0.0000 0.0000 0.0000 51.8218
#
#
#
# Elastic Compliance Matrix: (Units=1/GPa)
#
#
# Indices 1 2 3 4 5 6 
#
# 1 0.010701 -0.002525 -0.005996 0.000000 0.000000 0.000000
# 2 -0.002525 0.033519 -0.002013 0.000000 0.000000 0.000000
# 3 -0.005996 -0.002013 0.009744 0.000000 0.000000 0.000000
# 4 0.000000 0.000000 0.000000 -1.821998 0.000000 0.000000
# 5 0.000000 0.000000 0.000000 0.000000 0.034074 0.000000
# 6 0.000000 0.000000 0.000000 0.000000 0.000000 0.019297
#
#
# Mechanical properties :
#
#
# Convention : Reuss Voigt Hill
#
# Bulk Modulus (GPa) = 30.39877 68.13101 49.26489
# Shear Modulus (GPa) = -2.97154 30.68450 13.85648
#
# Velocity S-wave (km/s) = -1.22771 3.94517 2.65114
# Velocity P-wave (km/s) = 3.66193 7.43714 5.86177
#
# Compressibility (1/GPa) = 0.03289607
#
# Stress axis : x y z
#
# Youngs Moduli (GPa) = 93.45090 29.83373 102.62630
#
# Poissons Ratio (x) = 0.07533 0.61538
# Poissons Ratio (y) = 0.23597 0.20655
# Poissons Ratio (z) = 0.56036 0.06004
#
# Static dielectric constant tensor:
#      x y z
#    x 1.674870 0.000000 0.000000 
#    y 0.000000 1.788290 0.000000 
#    z 0.000000 0.000000 1.677010 
# 
# From -- ./inp_files/16672.got.cif
#   From: 2010.05.17/outbox.cif.g08.bks.cpg/sg71_9_cif.got.tgz:16672.got - 2010.06.03 16:22:01.
