data_PCOD9518434
_publ_section_title
;
Structure prediction by ZEFSAII (Michael W. Deem and Ramdas Pophale) SiO2 
 PCOD9518434
Probable space group: I M M M
;
_chemical_formula_sum "Si O2"
_cell_formula_units_Z 104
_cell_length_a 31.375130
_cell_length_b 9.125442
_cell_length_c 20.369779
_cell_angle_alpha 90.000000
_cell_angle_beta 90.000000
_cell_angle_gamma 90.000000
_cell_volume 5832.110720
_symmetry_space_group_name_H-M "I M M M"
_symmetry_group_IT_number 71
_symmetry_cell_setting 'orthorhombic'
loop_
_space_group_symop_operation_xyz
x,y,z
-x,-y,z
x,-y,-z
-x,y,-z
-x,-y,-z
x,y,-z
-x,y,z
x,-y,z
1/2+x,1/2+y,1/2+z
1/2-x,1/2-y,1/2+z
1/2+x,1/2-y,1/2-z
1/2-x,1/2+y,1/2-z
1/2-x,1/2-y,1/2-z
1/2+x,1/2+y,1/2-z
1/2-x,1/2+y,1/2+z
1/2+x,1/2-y,1/2+z
loop_
_atom_site_type_symbol
_atom_site_label
_atom_site_fract_x
_atom_site_fract_y
_atom_site_fract_z
Si Si1 0.180515 0.822539 0.000000
Si Si2 0.500000 0.833411 0.079946
Si Si3 0.084485 0.827288 0.576691
Si Si4 0.835653 0.667044 0.380620
Si Si5 0.950928 0.821942 0.923177
Si Si6 0.723797 0.177714 0.000000
Si Si7 0.704660 0.169093 0.262628
Si Si8 0.637492 0.322259 0.637609
O O1 0.157052 0.783346 0.066631
O O2 0.228517 0.764644 0.000000
O O3 0.182002 0.000000 0.000000
O O4 0.457845 0.750832 0.101002
O O5 0.500000 0.000000 0.101418
O O6 0.500000 0.830153 0.000000
O O7 0.091721 0.785697 0.500000
O O8 0.124384 0.772225 0.616726
O O9 0.079031 0.000000 0.579190
O O10 0.848807 0.500000 0.398654
O O11 0.801883 0.718515 0.435027
O O12 0.815666 0.664114 0.309486
O O13 0.912679 0.778810 0.872994
O O14 0.000000 0.777473 0.907080
O O15 0.950249 0.000000 0.923506
O O16 0.942537 0.778459 0.000000
O O17 0.726362 0.000000 0.000000
O O18 0.750000 0.250000 0.250000
O O19 0.669697 0.248513 0.309707
O O20 0.711651 0.000000 0.284791
O O21 0.639057 0.500000 0.646897
#
# Coordination Sequence:
#
# PCOD9518434 Si02
#       8
#     8   8  16  16  16   8  16  16
#     4   9  16  28  50  81 109 137 180 226 268 320
#     4   9  17  29  49  75 105 141 177 208 249 316
#     4  10  19  31  50  79 110 134 163 216 275 317
#     4  10  20  35  55  75  99 138 184 223 267 331
#     4   8  13  24  48  85 120 146 181 231 278 324
#     4   9  16  28  49  73  96 124 170 226 267 316
#     4  11  24  40  57  79 109 146 188 234 284 342
#     4  10  18  32  56  83 112 148 189 232 278 333
#
# _framework density 17.832308000000001
#
# number of rings (size 3 to 8) (size 9 to 14) (size 15 to 20)
#    0.000    2.385    1.538    2.538    0.000    5.231 
#    0.000    0.385    1.692    0.462    0.000    1.077 
#    0.000    0.000    0.000    0.000    0.000    0.000 
#
# Total GULP energy -289583.728333 kJ/mol
# GULP energy per Si atom -5568.917853 kJ/mol
# Density = 1.779172 g / cm^3
# Si number density = 17.832308 Si / 1000 Ang^3
#
#
#
# Elastic Constant Matrix: (Units=GPa)
#
#
# Indices 1 2 3 4 5 6 
#
# 1 156.3120 47.9425 43.9106 0.0000 0.0000 0.0000
# 2 47.9425 50.8215 21.9376 0.0000 0.0000 0.0000
# 3 43.9106 21.9376 73.9649 0.0000 0.0000 0.0000
# 4 0.0000 0.0000 0.0000 19.6951 0.0000 0.0000
# 5 0.0000 0.0000 0.0000 0.0000 40.5073 0.0000
# 6 0.0000 0.0000 0.0000 0.0000 0.0000 11.7796
#
#
#
# Elastic Compliance Matrix: (Units=1/GPa)
#
#
# Indices 1 2 3 4 5 6 
#
# 1 0.009734 -0.007670 -0.003504 0.000000 0.000000 0.000000
# 2 -0.007670 0.028610 -0.003932 0.000000 0.000000 0.000000
# 3 -0.003504 -0.003932 0.016766 0.000000 0.000000 0.000000
# 4 0.000000 0.000000 0.000000 0.050774 0.000000 0.000000
# 5 0.000000 0.000000 0.000000 0.000000 0.024687 0.000000
# 6 0.000000 0.000000 0.000000 0.000000 0.000000 0.084892
#
#
# Mechanical properties :
#
#
# Convention : Reuss Voigt Hill
#
# Bulk Modulus (GPa) = 40.16383 56.51997 48.34190
# Shear Modulus (GPa) = 19.68693 25.55025 22.61859
#
# Velocity S-wave (km/s) = 3.32626 3.78935 3.56533
# Velocity P-wave (km/s) = 6.10933 7.13510 6.64205
#
# Compressibility (1/GPa) = 0.02489803
#
# Stress axis : x y z
#
# Youngs Moduli (GPa) = 102.72872 34.95306 59.64340
#
# Poissons Ratio (x) = 0.26810 0.20899
# Poissons Ratio (y) = 0.78797 0.23451
# Poissons Ratio (z) = 0.35996 0.13743
#
# Static dielectric constant tensor:
#      x y z
#    x 0.112370 0.000000 0.000000 
#    y 0.000000 1.616940 0.000000 
#    z 0.000000 0.000000 1.591790 
# 
# From -- ./inp_files/56751.got.cif
#   From: 2010.05.17/outbox.cif.g08.bks.cpg/sg71_29_cif.got.tgz:56751.got - 2010.06.03 16:22:01.
