data_PCOD9518453
_publ_section_title
;
Structure prediction by ZEFSAII (Michael W. Deem and Ramdas Pophale) SiO2 
 PCOD9518453
Probable space group: I M M M
;
_chemical_formula_sum "Si O2"
_cell_formula_units_Z 68
_cell_length_a 7.658182
_cell_length_b 27.456225
_cell_length_c 19.635329
_cell_angle_alpha 90.000000
_cell_angle_beta 90.000000
_cell_angle_gamma 90.000000
_cell_volume 4128.617898
_symmetry_space_group_name_H-M "I M M M"
_symmetry_group_IT_number 71
_symmetry_cell_setting 'orthorhombic'
loop_
_space_group_symop_operation_xyz
x,y,z
-x,-y,z
x,-y,-z
-x,y,-z
-x,-y,-z
x,y,-z
-x,y,z
x,-y,z
1/2+x,1/2+y,1/2+z
1/2-x,1/2-y,1/2+z
1/2+x,1/2-y,1/2-z
1/2-x,1/2+y,1/2-z
1/2-x,1/2-y,1/2-z
1/2+x,1/2+y,1/2-z
1/2-x,1/2+y,1/2+z
1/2+x,1/2-y,1/2+z
loop_
_atom_site_type_symbol
_atom_site_label
_atom_site_fract_x
_atom_site_fract_y
_atom_site_fract_z
Si Si1 0.712856 0.749732 0.000000
Si Si2 0.204113 0.327723 0.720704
Si Si3 0.305555 0.581466 0.361334
Si Si4 0.000000 0.500000 0.350690
Si Si5 0.788388 0.227799 0.351232
Si Si6 0.711016 0.136827 0.000000
O O1 0.768853 0.725206 0.070569
O O2 0.764947 0.806561 0.000000
O O3 0.500000 0.749518 0.000000
O O4 0.293176 0.376801 0.696368
O O5 0.269645 0.280123 0.679388
O O6 0.224884 0.313454 0.799575
O O7 0.000000 0.332955 0.703817
O O8 0.500000 0.560298 0.361143
O O9 0.275744 0.609540 0.432797
O O10 0.153569 0.542424 0.352520
O O11 0.000000 0.227427 0.348988
O O12 0.500000 0.135592 0.000000
#
# Coordination Sequence:
#
# PCOD9518453 Si02
#       6
#     8  16  16   4  16   8
#     4   9  16  29  51  76 109 149 187 223 268 326
#     4  10  18  33  51  75 108 144 177 228 278 324
#     4  12  24  39  59  79 104 143 190 235 283 328
#     4  12  26  45  58  78 106 145 192 248 286 313
#     4   9  17  29  50  76 106 143 184 220 270 331
#     4  11  19  37  56  75 109 150 184 235 281 314
#
# _framework density 16.470403000000001
#
# number of rings (size 3 to 8) (size 9 to 14) (size 15 to 20)
#    0.000    1.647    4.706    1.412    0.000    1.882 
#    0.000    1.765    0.000    0.000    0.000    0.000 
#    0.000    1.882    0.000    6.824    0.000    0.118 
#
# Total GULP energy -189277.421016 kJ/mol
# GULP energy per Si atom -5566.982971 kJ/mol
# Density = 1.643292 g / cm^3
# Si number density = 16.470403 Si / 1000 Ang^3
#
#
#
# Elastic Constant Matrix: (Units=GPa)
#
#
# Indices 1 2 3 4 5 6 
#
# 1 102.6842 29.7012 15.3929 0.0000 0.0000 0.0000
# 2 29.7012 84.4794 48.9290 0.0000 0.0000 0.0000
# 3 15.3929 48.9290 111.8928 -0.0001 -0.0001 0.0000
# 4 0.0000 0.0000 -0.0001 -3.9767 0.0000 0.0000
# 5 0.0000 0.0000 -0.0001 0.0000 21.9230 0.0000
# 6 0.0000 0.0000 0.0000 0.0000 0.0000 15.8358
#
#
#
# Elastic Compliance Matrix: (Units=1/GPa)
#
#
# Indices 1 2 3 4 5 6 
#
# 1 0.010846 -0.003949 0.000235 0.000000 0.000000 0.000000
# 2 -0.003949 0.017290 -0.007017 0.000000 0.000000 0.000000
# 3 0.000235 -0.007017 0.011973 0.000000 0.000000 0.000000
# 4 0.000000 0.000000 0.000000 -0.251467 0.000000 0.000000
# 5 0.000000 0.000000 0.000000 0.000000 0.045614 0.000000
# 6 0.000000 0.000000 0.000000 0.000000 0.000000 0.063148
#
#
# Mechanical properties :
#
#
# Convention : Reuss Voigt Hill
#
# Bulk Modulus (GPa) = 53.63143 54.12251 53.87697
# Shear Modulus (GPa) = -66.74057 20.42530 -23.15763
#
# Velocity S-wave (km/s) = -6.37256 3.52536 -3.75375
# Velocity P-wave (km/s) = 4.63821 7.03581 3.74097
#
# Compressibility (1/GPa) = 0.01864578
#
# Stress axis : x y z
#
# Youngs Moduli (GPa) = 92.20273 57.83694 83.51841
#
# Poissons Ratio (x) = 0.22841 -0.01962
# Poissons Ratio (y) = 0.36412 0.58608
# Poissons Ratio (z) = -0.02166 0.40586
#
# Static dielectric constant tensor:
#      x y z
#    x 1.604720 0.000000 0.000000 
#    y 0.000000 1.516530 0.000000 
#    z 0.000000 0.000000 1.565630 
# 
# From -- ./inp_files/42214.got.cif
#   From: 2010.05.17/outbox.cif.g08.bks.cpg/sg71_22_cif.got.tgz:42214.got - 2010.06.03 16:22:01.
