data_PCOD9518861
_publ_section_title
;
Structure prediction by ZEFSAII (Michael W. Deem and Ramdas Pophale) SiO2 
 PCOD9518861
Probable space group: I M M M
;
_chemical_formula_sum "Si O2"
_cell_formula_units_Z 96
_cell_length_a 20.085934
_cell_length_b 19.403994
_cell_length_c 14.203143
_cell_angle_alpha 90.000000
_cell_angle_beta 90.000000
_cell_angle_gamma 90.000000
_cell_volume 5535.637244
_symmetry_space_group_name_H-M "I M M M"
_symmetry_group_IT_number 71
_symmetry_cell_setting 'orthorhombic'
loop_
_space_group_symop_operation_xyz
x,y,z
-x,-y,z
x,-y,-z
-x,y,-z
-x,-y,-z
x,y,-z
-x,y,z
x,-y,z
1/2+x,1/2+y,1/2+z
1/2-x,1/2-y,1/2+z
1/2+x,1/2-y,1/2-z
1/2-x,1/2+y,1/2-z
1/2-x,1/2-y,1/2-z
1/2+x,1/2+y,1/2-z
1/2-x,1/2+y,1/2+z
1/2+x,1/2-y,1/2+z
loop_
_atom_site_type_symbol
_atom_site_label
_atom_site_fract_x
_atom_site_fract_y
_atom_site_fract_z
Si Si1 0.320592 0.421531 0.887905
Si Si2 0.747367 0.695715 0.389091
Si Si3 0.926056 0.839664 0.729700
Si Si4 0.648107 0.206535 0.725720
Si Si5 0.362076 0.580191 0.609024
Si Si6 0.836590 0.579711 0.888082
O O1 0.339342 0.500000 0.860918
O O2 0.367947 0.367270 0.838185
O O3 0.242552 0.412494 0.866014
O O4 0.326930 0.415996 0.000000
O O5 0.760580 0.707606 0.500000
O O6 0.699212 0.754734 0.346165
O O7 0.811620 0.693882 0.322460
O O8 0.705207 0.625021 0.378925
O O9 0.909981 0.760949 0.755015
O O10 0.915832 0.885606 0.822967
O O11 0.000000 0.848342 0.691093
O O12 0.627567 0.135892 0.675806
O O13 0.381764 0.586397 0.500000
O O14 0.351409 0.500000 0.630512
O O15 0.854286 0.500000 0.870204
O O16 0.844958 0.592338 0.000000
#
# Coordination Sequence:
#
# PCOD9518861 Si02
#       6
#    16  16  16  16  16  16
#     4   9  18  32  50  74 102 127 154 194 240 283
#     4   9  17  29  47  71  95 119 149 189 241 291
#     4  11  23  34  44  63  94 134 173 198 219 258
#     4  10  19  30  47  68  92 124 157 195 241 285
#     4   9  18  32  49  70  95 120 149 188 231 276
#     4   9  17  31  54  80  99 115 143 192 254 309
#
# _framework density 17.342177
#
# number of rings (size 3 to 8) (size 9 to 14) (size 15 to 20)
#    0.000    2.500    0.000    5.000    0.000    6.667 
#    0.000    1.667    0.000    0.500    0.000    1.167 
#    0.000    0.000    0.000    7.167    0.000    0.000 
#
# Total GULP energy -267776.471453 kJ/mol
# GULP energy per Si atom -5578.676489 kJ/mol
# Density = 1.730271 g / cm^3
# Si number density = 17.342177 Si / 1000 Ang^3
#
#
#
# Elastic Constant Matrix: (Units=GPa)
#
#
# Indices 1 2 3 4 5 6 
#
# 1 7.6616 12.1797 3.4055 0.0000 0.0000 0.0000
# 2 12.1797 89.7324 17.0893 0.0000 0.0000 0.0000
# 3 3.4055 17.0893 60.9929 0.0000 0.0000 0.0000
# 4 0.0000 0.0000 0.0000 30.8941 0.0000 0.0000
# 5 0.0000 0.0000 0.0000 0.0000 5.1721 0.0000
# 6 0.0000 0.0000 0.0000 0.0000 0.0000 5.9423
#
#
#
# Elastic Compliance Matrix: (Units=1/GPa)
#
#
# Indices 1 2 3 4 5 6 
#
# 1 0.167000 -0.022069 -0.003141 0.000000 0.000000 0.000000
# 2 -0.022069 0.014689 -0.002883 0.000000 0.000000 0.000000
# 3 -0.003141 -0.002883 0.017379 0.000000 0.000000 0.000000
# 4 0.000000 0.000000 0.000000 0.032369 0.000000 0.000000
# 5 0.000000 0.000000 0.000000 0.000000 0.193346 0.000000
# 6 0.000000 0.000000 0.000000 0.000000 0.000000 0.168285
#
#
# Mechanical properties :
#
#
# Convention : Reuss Voigt Hill
#
# Bulk Modulus (GPa) = 6.99884 24.85953 15.92919
# Shear Modulus (GPa) = 7.17482 16.78253 11.97868
#
# Velocity S-wave (km/s) = 2.03622 3.11421 2.63102
# Velocity P-wave (km/s) = 3.09399 5.22464 4.29358
#
# Compressibility (1/GPa) = 0.14288086
#
# Stress axis : x y z
#
# Youngs Moduli (GPa) = 5.98801 68.07843 57.54206
#
# Poissons Ratio (x) = 1.50245 0.18072
# Poissons Ratio (y) = 0.13215 0.16592
# Poissons Ratio (z) = 0.01881 0.19630
#
# Static dielectric constant tensor:
#      x y z
#    x 1.562180 0.000000 0.000000 
#    y 0.000000 1.619610 0.000000 
#    z 0.000000 0.000000 1.603490 
# 
# From -- ./inp_files/38263.got.cif
#   From: 2010.05.17/outbox.cif.g08.bks.cpg/sg71_20_cif.got.tgz:38263.got - 2010.06.03 16:22:01.
