data_PCOD9518866
_publ_section_title
;
Structure prediction by ZEFSAII (Michael W. Deem and Ramdas Pophale) SiO2 
 PCOD9518866
Probable space group: I M M M
;
_chemical_formula_sum "Si O2"
_cell_formula_units_Z 64
_cell_length_a 13.521415
_cell_length_b 13.269037
_cell_length_c 21.876887
_cell_angle_alpha 90.000000
_cell_angle_beta 90.000000
_cell_angle_gamma 90.000000
_cell_volume 3925.066969
_symmetry_space_group_name_H-M "I M M M"
_symmetry_group_IT_number 71
_symmetry_cell_setting 'orthorhombic'
loop_
_space_group_symop_operation_xyz
x,y,z
-x,-y,z
x,-y,-z
-x,y,-z
-x,-y,-z
x,y,-z
-x,y,z
x,-y,z
1/2+x,1/2+y,1/2+z
1/2-x,1/2-y,1/2+z
1/2+x,1/2-y,1/2-z
1/2-x,1/2+y,1/2-z
1/2-x,1/2-y,1/2-z
1/2+x,1/2+y,1/2-z
1/2-x,1/2+y,1/2+z
1/2+x,1/2-y,1/2+z
loop_
_atom_site_type_symbol
_atom_site_label
_atom_site_fract_x
_atom_site_fract_y
_atom_site_fract_z
Si Si1 0.619897 0.329066 0.067231
Si Si2 0.617978 0.890763 0.896507
Si Si3 0.612964 0.177846 0.242628
Si Si4 0.689840 0.387839 0.198110
O O1 0.500000 0.332656 0.073737
O O2 0.652067 0.211482 0.071548
O O3 0.665528 0.381144 0.126308
O O4 0.644448 0.369077 0.000000
O O5 0.500000 0.894223 0.907795
O O6 0.630335 0.873160 0.823821
O O7 0.659371 0.000000 0.914367
O O8 0.500000 0.158884 0.260646
O O9 0.630645 0.297099 0.230824
O O10 0.695586 0.136416 0.288047
O O11 0.665452 0.500000 0.220289
#
# Coordination Sequence:
#
# PCOD9518866 Si02
#       4
#    16  16  16  16
#     4   9  18  30  42  61  90 120 152 190 227 265
#     4   8  13  23  41  63  86 112 140 172 216 268
#     4   9  18  31  46  68  96 119 144 185 232 273
#     4  10  19  30  47  69  91 119 154 187 222 270
#
# _framework density 16.305454000000001
#
# number of rings (size 3 to 8) (size 9 to 14) (size 15 to 20)
#    0.000    3.000    0.000    3.000    0.000    4.500 
#    0.000    3.750    0.000    0.750    0.000    1.750 
#    0.000    0.000    0.000   18.250    0.000    0.750 
#
# Total GULP energy -178195.571370 kJ/mol
# GULP energy per Si atom -5568.611605 kJ/mol
# Density = 1.626834 g / cm^3
# Si number density = 16.305454 Si / 1000 Ang^3
#
#
#
# Elastic Constant Matrix: (Units=GPa)
#
#
# Indices 1 2 3 4 5 6 
#
# 1 40.5447 -15.4222 23.2949 0.0000 0.0000 0.0000
# 2 -15.4222 80.8451 -2.0630 0.0000 0.0000 0.0000
# 3 23.2949 -2.0630 54.2480 0.0000 0.0000 0.0000
# 4 0.0000 0.0000 0.0000 -3.9609 0.0000 0.0000
# 5 0.0000 0.0000 0.0000 0.0000 20.8337 0.0000
# 6 0.0000 0.0000 0.0000 0.0000 0.0000 8.5986
#
#
#
# Elastic Compliance Matrix: (Units=1/GPa)
#
#
# Indices 1 2 3 4 5 6 
#
# 1 0.035810 0.006445 -0.015132 0.000000 0.000000 0.000000
# 2 0.006445 0.013541 -0.002253 0.000000 0.000000 0.000000
# 3 -0.015132 -0.002253 0.024846 0.000000 0.000000 0.000000
# 4 0.000000 0.000000 0.000000 -0.252466 0.000000 0.000000
# 5 0.000000 0.000000 0.000000 0.000000 0.047999 0.000000
# 6 0.000000 0.000000 0.000000 0.000000 0.000000 0.116297
#
#
# Mechanical properties :
#
#
# Convention : Reuss Voigt Hill
#
# Bulk Modulus (GPa) = 19.11397 20.80638 19.96017
# Shear Modulus (GPa) = 197.26243 16.41616 106.83929
#
# Velocity S-wave (km/s) = 11.01100 3.17644 8.10345
# Velocity P-wave (km/s) = 13.16829 5.12260 9.99112
#
# Compressibility (1/GPa) = 0.05231775
#
# Stress axis : x y z
#
# Youngs Moduli (GPa) = 27.92525 73.84798 40.24762
#
# Poissons Ratio (x) = -0.47595 0.60904
# Poissons Ratio (y) = -0.17998 0.09066
# Poissons Ratio (z) = 0.42257 0.16635
#
# Static dielectric constant tensor:
#      x y z
#    x 1.519720 0.000000 0.000000 
#    y 0.000000 1.618750 0.000000 
#    z 0.000000 0.000000 1.550410 
# 
# From -- ./inp_files/21447.got.cif
#   From: 2010.05.17/outbox.cif.g08.bks.cpg/sg71_11_cif.got.tgz:21447.got - 2010.06.03 16:22:01.
