data_PCOD9518360
_publ_section_title
;
Structure prediction by ZEFSAII (Michael W. Deem and Ramdas Pophale) SiO2 
 PCOD9518360
Probable space group: I M M M
;
_chemical_formula_sum "Si O2"
_cell_formula_units_Z 64
_cell_length_a 5.502298
_cell_length_b 15.524569
_cell_length_c 32.363186
_cell_angle_alpha 90.000000
_cell_angle_beta 90.000000
_cell_angle_gamma 90.000000
_cell_volume 2764.489399
_symmetry_space_group_name_H-M "I M M M"
_symmetry_group_IT_number 71
_symmetry_cell_setting 'orthorhombic'
loop_
_space_group_symop_operation_xyz
x,y,z
-x,-y,z
x,-y,-z
-x,y,-z
-x,-y,-z
x,y,-z
-x,y,z
x,-y,z
1/2+x,1/2+y,1/2+z
1/2-x,1/2-y,1/2+z
1/2+x,1/2-y,1/2-z
1/2-x,1/2+y,1/2-z
1/2-x,1/2-y,1/2-z
1/2+x,1/2+y,1/2-z
1/2-x,1/2+y,1/2+z
1/2+x,1/2-y,1/2+z
loop_
_atom_site_type_symbol
_atom_site_label
_atom_site_fract_x
_atom_site_fract_y
_atom_site_fract_z
Si Si1 0.000000 0.157569 0.549613
Si Si2 0.500000 0.901514 0.592765
Si Si3 0.500000 0.732645 0.372296
Si Si4 0.500000 0.364035 0.450633
Si Si5 0.500000 0.902615 0.247328
Si Si6 0.000000 0.283381 0.668421
Si Si7 0.500000 0.403313 0.800133
Si Si8 0.500000 0.863914 0.049419
O O1 0.752403 0.116424 0.567818
O O2 0.000000 0.261199 0.559020
O O3 0.000000 0.149203 0.500000
O O4 0.500000 0.835646 0.631200
O O5 0.500000 0.000000 0.606119
O O6 0.500000 0.719375 0.421754
O O7 0.746273 0.693994 0.353761
O O8 0.500000 0.346116 0.500000
O O9 0.249819 0.406521 0.438363
O O10 0.500000 0.828873 0.212751
O O11 0.249049 0.895645 0.273267
O O12 0.500000 0.000000 0.229220
O O13 0.000000 0.179732 0.670931
O O14 0.500000 0.500000 0.818733
O O15 0.500000 0.868228 0.000000
#
# Coordination Sequence:
#
# PCOD9518360 Si02
#       8
#     8   8   8   8   8   8   8   8
#     4  11  20  34  51  67  87 123 188 262 319 356
#     4  12  25  37  47  64  97 144 195 245 298 357
#     4  12  24  37  53  79 115 157 200 250 309 355
#     4  10  18  32  51  69  97 143 197 251 300 348
#     4  10  21  41  68  97 125 157 196 237 286 349
#     4  12  24  38  61  92 129 159 195 245 296 355
#     4  10  21  39  66  95 127 166 201 230 272 342
#     4   9  15  26  47  64  81 115 171 241 302 338
#
# _framework density 23.150746999999999
#
# number of rings (size 3 to 8) (size 9 to 14) (size 15 to 20)
#    0.000    1.250    2.500    4.500    0.000    2.500 
#    0.000    0.000    0.000    0.000    0.000    0.000 
#    0.000    3.000    0.000    0.000    0.000    0.000 
#
# Total GULP energy -178545.661847 kJ/mol
# GULP energy per Si atom -5579.551933 kJ/mol
# Density = 2.309806 g / cm^3
# Si number density = 23.150747 Si / 1000 Ang^3
#
#
#
# Elastic Constant Matrix: (Units=GPa)
#
#
# Indices 1 2 3 4 5 6 
#
# 1 272.9597 18.1223 29.0210 0.0000 0.0000 0.0000
# 2 18.1223 76.3097 4.8350 0.0000 0.0000 0.0000
# 3 29.0210 4.8350 36.3490 0.0000 0.0000 0.0000
# 4 0.0000 0.0000 0.0000 123.7055 0.0000 0.0000
# 5 0.0000 0.0000 0.0000 0.0000 36.3554 0.0000
# 6 0.0000 0.0000 0.0000 0.0000 0.0000 78.3447
#
#
#
# Elastic Compliance Matrix: (Units=1/GPa)
#
#
# Indices 1 2 3 4 5 6 
#
# 1 0.004047 -0.000763 -0.003130 0.000000 0.000000 0.000000
# 2 -0.000763 0.013360 -0.001168 0.000000 0.000000 0.000000
# 3 -0.003130 -0.001168 0.030165 0.000000 0.000000 0.000000
# 4 0.000000 0.000000 0.000000 0.008084 0.000000 0.000000
# 5 0.000000 0.000000 0.000000 0.000000 0.027506 0.000000
# 6 0.000000 0.000000 0.000000 0.000000 0.000000 0.012764
#
#
# Mechanical properties :
#
#
# Convention : Reuss Voigt Hill
#
# Bulk Modulus (GPa) = 26.70169 54.39723 40.54946
# Shear Modulus (GPa) = 42.18334 69.92380 56.05357
#
# Velocity S-wave (km/s) = 4.27326 5.50175 4.92595
# Velocity P-wave (km/s) = 5.99220 7.99418 7.06447
#
# Compressibility (1/GPa) = 0.03745082
#
# Stress axis : x y z
#
# Youngs Moduli (GPa) = 247.10117 74.85226 33.15089
#
# Poissons Ratio (x) = 0.05710 0.10375
# Poissons Ratio (y) = 0.18849 0.03872
# Poissons Ratio (z) = 0.77333 0.08743
#
# Static dielectric constant tensor:
#      x y z
#    x 1.962890 0.000000 0.000000 
#    y 0.000000 1.879350 0.000000 
#    z 0.000000 0.000000 1.850150 
# 
# From -- ./inp_files/67463.got.cif
#   From: 2010.05.17/outbox.cif.g08.bks.cpg/sg71_34_cif.got.tgz:67463.got - 2010.06.03 16:22:01.
