data_PCOD9518759
_publ_section_title
;
Structure prediction by ZEFSAII (Michael W. Deem and Ramdas Pophale) SiO2 
 PCOD9518759
Probable space group: I M M M
;
_chemical_formula_sum "Si O2"
_cell_formula_units_Z 104
_cell_length_a 20.501079
_cell_length_b 7.510286
_cell_length_c 25.835466
_cell_angle_alpha 90.000000
_cell_angle_beta 90.000000
_cell_angle_gamma 90.000000
_cell_volume 3977.860002
_symmetry_space_group_name_H-M "I M M M"
_symmetry_group_IT_number 71
_symmetry_cell_setting 'orthorhombic'
loop_
_space_group_symop_operation_xyz
x,y,z
-x,-y,z
x,-y,-z
-x,y,-z
-x,-y,-z
x,y,-z
-x,y,z
x,-y,z
1/2+x,1/2+y,1/2+z
1/2-x,1/2-y,1/2+z
1/2+x,1/2-y,1/2-z
1/2-x,1/2+y,1/2-z
1/2-x,1/2-y,1/2-z
1/2+x,1/2+y,1/2-z
1/2-x,1/2+y,1/2+z
1/2+x,1/2-y,1/2+z
loop_
_atom_site_type_symbol
_atom_site_label
_atom_site_fract_x
_atom_site_fract_y
_atom_site_fract_z
Si Si1 0.426250 0.789864 0.500000
Si Si2 0.761407 0.707579 0.173286
Si Si3 0.389631 0.295820 0.721047
Si Si4 0.888701 0.780680 0.668125
Si Si5 0.741684 0.714095 0.442999
Si Si6 0.426032 0.287394 0.389265
Si Si7 0.897414 0.210367 0.443682
O O1 0.500000 0.708015 0.500000
O O2 0.394377 0.740377 0.554549
O O3 0.431616 0.000000 0.500000
O O4 0.760454 0.500000 0.185668
O O5 0.811011 0.797316 0.213208
O O6 0.687431 0.774834 0.171146
O O7 0.784670 0.727134 0.113288
O O8 0.412591 0.500000 0.721594
O O9 0.413647 0.221020 0.775667
O O10 0.408798 0.209276 0.666665
O O11 0.918401 0.721361 0.613203
O O12 0.889922 0.000000 0.667278
O O13 0.720392 0.781884 0.500000
O O14 0.737687 0.500000 0.443408
O O15 0.818767 0.768232 0.441888
O O16 0.500000 0.226536 0.397627
O O17 0.423163 0.500000 0.382702
O O18 0.918750 0.283753 0.500000
O O19 0.912960 0.000000 0.444466
#
# Coordination Sequence:
#
# PCOD9518759 Si02
#       7
#     8  16  16  16  16  16  16
#     4   9  17  31  53  75  91 111 141 181 231 281
#     4  10  19  30  43  60  85 115 147 181 217 260
#     4  10  19  31  46  64  87 114 145 180 217 263
#     4   8  15  27  43  63  87 116 147 179 215 254
#     4   9  16  26  40  57  78 107 144 181 215 252
#     4   9  18  33  52  71  90 114 145 184 229 273
#     4   8  13  23  40  60  82 109 141 177 213 247
#
# _framework density 26.14471
#
# number of rings (size 3 to 8) (size 9 to 14) (size 15 to 20)
#    0.000    3.000    0.000    2.538    0.000    2.462 
#    1.385    3.077    0.000    0.000    0.000    0.000 
#    0.000    0.615    0.000    8.615    0.000    0.154 
#
# Total GULP energy -290051.455473 kJ/mol
# GULP energy per Si atom -5577.912605 kJ/mol
# Density = 2.608520 g / cm^3
# Si number density = 26.144710 Si / 1000 Ang^3
#
#
#
# Elastic Constant Matrix: (Units=GPa)
#
#
# Indices 1 2 3 4 5 6 
#
# 1 36.3418 -10.1290 40.1434 0.0000 0.0000 0.0000
# 2 -10.1290 87.5761 8.8065 0.0000 0.0000 0.0000
# 3 40.1434 8.8065 324.3272 0.0000 0.0000 0.0000
# 4 0.0000 0.0000 0.0000 5.9932 0.0000 0.0000
# 5 0.0000 0.0000 0.0000 0.0000 8.9914 0.0000
# 6 0.0000 0.0000 0.0000 0.0000 0.0000 -7.7225
#
#
#
# Elastic Compliance Matrix: (Units=1/GPa)
#
#
# Indices 1 2 3 4 5 6 
#
# 1 0.033409 0.004292 -0.004252 0.000000 0.000000 0.000000
# 2 0.004292 0.012001 -0.000857 0.000000 0.000000 0.000000
# 3 -0.004252 -0.000857 0.003633 0.000000 0.000000 0.000000
# 4 0.000000 0.000000 0.000000 0.166855 0.000000 0.000000
# 5 0.000000 0.000000 0.000000 0.000000 0.111217 0.000000
# 6 0.000000 0.000000 0.000000 0.000000 0.000000 -0.129492
#
#
# Mechanical properties :
#
#
# Convention : Reuss Voigt Hill
#
# Bulk Modulus (GPa) = 21.09309 58.43187 39.76248
# Shear Modulus (GPa) = 23.24925 28.74737 25.99831
#
# Velocity S-wave (km/s) = 2.98527 3.31954 3.15683
# Velocity P-wave (km/s) = 4.46853 6.09019 5.34126
#
# Compressibility (1/GPa) = 0.04740890
#
# Stress axis : x y z
#
# Youngs Moduli (GPa) = 29.93191 83.32499 275.26714
#
# Poissons Ratio (x) = -0.35760 1.17036
# Poissons Ratio (y) = -0.12846 0.23592
# Poissons Ratio (z) = 0.12726 0.07142
#
# Static dielectric constant tensor:
#      x y z
#    x 2.156830 0.000000 0.000000 
#    y 0.000000 1.935780 0.000000 
#    z 0.000000 0.000000 2.139540 
# 
# From -- ./inp_files/61948.got.cif
#   From: 2010.05.17/outbox.cif.g08.bks.cpg/sg71_31_cif.got.tgz:61948.got - 2010.06.03 16:22:01.
