data_PCOD9518049
_publ_section_title
;
Structure prediction by ZEFSAII (Michael W. Deem and Ramdas Pophale) SiO2 
 PCOD9518049
Probable space group: I M M M
;
_chemical_formula_sum "Si O2"
_cell_formula_units_Z 112
_cell_length_a 24.365168
_cell_length_b 14.215934
_cell_length_c 17.256446
_cell_angle_alpha 90.000000
_cell_angle_beta 90.000000
_cell_angle_gamma 90.000000
_cell_volume 5977.177673
_symmetry_space_group_name_H-M "I M M M"
_symmetry_group_IT_number 71
_symmetry_cell_setting 'orthorhombic'
loop_
_space_group_symop_operation_xyz
x,y,z
-x,-y,z
x,-y,-z
-x,y,-z
-x,-y,-z
x,y,-z
-x,y,z
x,-y,z
1/2+x,1/2+y,1/2+z
1/2-x,1/2-y,1/2+z
1/2+x,1/2-y,1/2-z
1/2-x,1/2+y,1/2-z
1/2-x,1/2-y,1/2-z
1/2+x,1/2+y,1/2-z
1/2-x,1/2+y,1/2+z
1/2+x,1/2-y,1/2+z
loop_
_atom_site_type_symbol
_atom_site_label
_atom_site_fract_x
_atom_site_fract_y
_atom_site_fract_z
Si Si1 0.620722 0.613044 0.744139
Si Si2 0.748068 0.392468 0.288013
Si Si3 0.267034 0.258248 0.917841
Si Si4 0.874463 0.113108 0.586190
Si Si5 0.565084 0.613584 0.414599
Si Si6 0.559698 0.886477 0.409385
Si Si7 0.177647 0.608392 0.136005
O O1 0.613655 0.500000 0.742096
O O2 0.686153 0.631189 0.739479
O O3 0.599299 0.641316 0.830293
O O4 0.593316 0.648753 0.664465
O O5 0.746204 0.500000 0.317578
O O6 0.766159 0.317009 0.350345
O O7 0.790811 0.389627 0.217598
O O8 0.316896 0.331967 0.913334
O O9 0.211955 0.319355 0.914396
O O10 0.271135 0.207738 0.000000
O O11 0.899903 0.131826 0.500000
O O12 0.865620 0.000000 0.589595
O O13 0.585380 0.646416 0.500000
O O14 0.500000 0.631815 0.411160
O O15 0.571724 0.500000 0.415157
O O16 0.566539 0.860969 0.500000
O O17 0.500000 0.850785 0.382926
O O18 0.614168 0.862786 0.362409
O O19 0.556903 0.000000 0.407385
O O20 0.180724 0.500000 0.107136
#
# Coordination Sequence:
#
# PCOD9518049 Si02
#       7
#    16  16  16  16  16  16  16
#     4   9  16  28  46  65  91 126 157 200 257 296
#     4  10  21  34  47  68  98 132 170 211 255 305
#     4  11  21  31  47  70  96 130 166 203 250 301
#     4   9  17  29  46  71  98 121 154 199 247 302
#     4   8  14  25  43  67  91 120 166 214 248 289
#     4   8  14  25  43  70 103 134 161 194 242 298
#     4  10  18  30  49  73 102 134 169 208 249 300
#
# _framework density 18.737940999999999
#
# number of rings (size 3 to 8) (size 9 to 14) (size 15 to 20)
#    0.000    2.714    1.429    2.143    0.000    2.286 
#    0.000    1.429    0.000    1.286    0.000    5.000 
#    0.000    1.714    0.000    5.571    0.000    0.143 
#
# Total GULP energy -311929.112144 kJ/mol
# GULP energy per Si atom -5570.162717 kJ/mol
# Density = 1.869529 g / cm^3
# Si number density = 18.737941 Si / 1000 Ang^3
#
#
#
# Elastic Constant Matrix: (Units=GPa)
#
#
# Indices 1 2 3 4 5 6 
#
# 1 68.9301 0.1411 45.9220 0.0000 0.0000 0.0000
# 2 0.1411 58.3570 20.4806 0.0000 0.0000 0.0000
# 3 45.9220 20.4806 158.5647 0.0000 0.0000 0.0000
# 4 0.0000 0.0000 0.0000 9.5534 0.0000 0.0000
# 5 0.0000 0.0000 0.0000 0.0000 29.2869 0.0000
# 6 0.0000 0.0000 0.0000 0.0000 0.0000 -9.1746
#
#
#
# Elastic Compliance Matrix: (Units=1/GPa)
#
#
# Indices 1 2 3 4 5 6 
#
# 1 0.018172 0.001889 -0.005507 0.000000 0.000000 0.000000
# 2 0.001889 0.018146 -0.002891 0.000000 0.000000 0.000000
# 3 -0.005507 -0.002891 0.008275 0.000000 0.000000 0.000000
# 4 0.000000 0.000000 0.000000 0.104674 0.000000 0.000000
# 5 0.000000 0.000000 0.000000 0.000000 0.034145 0.000000
# 6 0.000000 0.000000 0.000000 0.000000 0.000000 -0.108997
#
#
# Mechanical properties :
#
#
# Convention : Reuss Voigt Hill
#
# Bulk Modulus (GPa) = 31.67045 46.54879 39.10962
# Shear Modulus (GPa) = 51.04212 20.55370 35.79791
#
# Velocity S-wave (km/s) = 5.22486 3.31555 4.37561
# Velocity P-wave (km/s) = 7.30324 6.28912 6.81507
#
# Compressibility (1/GPa) = 0.03157517
#
# Stress axis : x y z
#
# Youngs Moduli (GPa) = 55.02885 55.10904 120.84901
#
# Poissons Ratio (x) = -0.10409 0.66550
# Poissons Ratio (y) = -0.10393 0.34934
# Poissons Ratio (z) = 0.30303 0.15931
#
# Static dielectric constant tensor:
#      x y z
#    x 1.643650 0.000000 0.000000 
#    y 0.000000 1.665060 0.000000 
#    z 0.000000 0.000000 1.675700 
# 
# From -- ./inp_files/39283.got.cif
#   From: 2010.05.17/outbox.cif.g08.bks.cpg/sg71_20_cif.got.tgz:39283.got - 2010.06.03 16:22:01.
