data_PCOD9518653
_publ_section_title
;
Structure prediction by ZEFSAII (Michael W. Deem and Ramdas Pophale) SiO2 
 PCOD9518653
Probable space group: I M M M
;
_chemical_formula_sum "Si O2"
_cell_formula_units_Z 80
_cell_length_a 21.728761
_cell_length_b 19.927193
_cell_length_c 7.651450
_cell_angle_alpha 90.000000
_cell_angle_beta 90.000000
_cell_angle_gamma 90.000000
_cell_volume 3313.025928
_symmetry_space_group_name_H-M "I M M M"
_symmetry_group_IT_number 71
_symmetry_cell_setting 'orthorhombic'
loop_
_space_group_symop_operation_xyz
x,y,z
-x,-y,z
x,-y,-z
-x,y,-z
-x,-y,-z
x,y,-z
-x,y,z
x,-y,z
1/2+x,1/2+y,1/2+z
1/2-x,1/2-y,1/2+z
1/2+x,1/2-y,1/2-z
1/2-x,1/2+y,1/2-z
1/2-x,1/2-y,1/2-z
1/2+x,1/2+y,1/2-z
1/2-x,1/2+y,1/2+z
1/2+x,1/2-y,1/2+z
loop_
_atom_site_type_symbol
_atom_site_label
_atom_site_fract_x
_atom_site_fract_y
_atom_site_fract_z
Si Si1 0.573747 0.572445 0.295031
Si Si2 0.125954 0.355049 0.209664
Si Si3 0.624034 0.000000 0.793663
Si Si4 0.766808 0.148289 0.705887
Si Si5 0.613778 0.287506 0.299009
Si Si6 0.264750 0.500000 0.290299
O O1 0.594763 0.572834 0.500000
O O2 0.500000 0.571874 0.298738
O O3 0.592478 0.500000 0.219755
O O4 0.590967 0.643857 0.213017
O O5 0.096549 0.427576 0.245835
O O6 0.196877 0.354384 0.275207
O O7 0.097394 0.285281 0.275598
O O8 0.129001 0.349363 0.000000
O O9 0.693931 0.000000 0.718717
O O10 0.629192 0.000000 0.000000
O O11 0.766169 0.162471 0.500000
O O12 0.812296 0.201000 0.795587
O O13 0.790911 0.071881 0.733390
O O14 0.591620 0.288061 0.500000
O O15 0.263957 0.500000 0.500000
#
# Coordination Sequence:
#
# PCOD9518653 Si02
#       6
#    16  16   8  16  16   8
#     4   8  15  29  48  70  95 121 154 199 242 275
#     4   9  18  31  44  63  94 128 158 191 231 276
#     4   9  17  29  47  65  84 117 158 192 226 270
#     4  10  19  29  41  61  93 128 156 191 234 274
#     4  10  19  29  46  70  92 121 160 194 232 282
#     4   9  17  29  43  59  82 117 160 197 224 267
#
# _framework density 24.147110000000001
#
# number of rings (size 3 to 8) (size 9 to 14) (size 15 to 20)
#    0.000    2.800    0.000    2.400    1.400    4.000 
#    0.000    0.000    0.000    0.600    0.000    2.100 
#    0.000    5.600    0.000    0.000    0.000    0.000 
#
# Total GULP energy -223123.795244 kJ/mol
# GULP energy per Si atom -5578.094881 kJ/mol
# Density = 2.409215 g / cm^3
# Si number density = 24.147110 Si / 1000 Ang^3
#
#
#
# Elastic Constant Matrix: (Units=GPa)
#
#
# Indices 1 2 3 4 5 6 
#
# 1 8.9483 18.5951 -0.6583 0.0000 0.0000 0.0000
# 2 18.5951 289.9530 10.3376 0.0000 0.0000 0.0000
# 3 -0.6583 10.3376 62.0892 0.0000 0.0000 0.0000
# 4 0.0000 0.0000 0.0000 14.7147 0.0000 0.0000
# 5 0.0000 0.0000 0.0000 0.0000 -0.0909 0.0000
# 6 0.0000 0.0000 0.0000 0.0000 0.0000 21.4260
#
#
#
# Elastic Compliance Matrix: (Units=1/GPa)
#
#
# Indices 1 2 3 4 5 6 
#
# 1 0.129409 -0.008398 0.002770 0.000000 0.000000 0.000000
# 2 -0.008398 0.004014 -0.000757 0.000000 0.000000 0.000000
# 3 0.002770 -0.000757 0.016261 0.000000 0.000000 0.000000
# 4 0.000000 0.000000 0.000000 0.067959 0.000000 0.000000
# 5 0.000000 0.000000 0.000000 0.000000-10.999221 0.000000
# 6 0.000000 0.000000 0.000000 0.000000 0.000000 0.046672
#
#
# Mechanical properties :
#
#
# Convention : Reuss Voigt Hill
#
# Bulk Modulus (GPa) = 7.30382 46.39323 26.84852
# Shear Modulus (GPa) = -0.46832 29.39103 14.46136
#
# Velocity S-wave (km/s) = -0.44087 3.49257 2.44987
# Velocity P-wave (km/s) = 1.66497 5.95974 4.37554
#
# Compressibility (1/GPa) = 0.13691468
#
# Stress axis : x y z
#
# Youngs Moduli (GPa) = 7.72744 249.10260 61.49555
#
# Poissons Ratio (x) = 2.09195 -0.17036
# Poissons Ratio (y) = 0.06489 0.04658
# Poissons Ratio (z) = -0.02141 0.18868
#
# Static dielectric constant tensor:
#      x y z
#    x 1.970090 0.000000 0.000000 
#    y 0.000000 2.033100 0.000000 
#    z 0.000000 0.000000 1.862490 
# 
# From -- ./inp_files/8447.got.cif
#   From: 2010.05.17/outbox.cif.g08.bks.cpg/sg71_5_cif.got.tgz:8447.got - 2010.06.03 16:22:01.
